
     RDKit          3D

 14 14  0  0  0  0  0  0  0  0999 V2000
   -1.1778    0.2241    0.1818 C   0  0  0  0  0  0  0  0  0  0  0  0
   -0.5633   -1.1636    0.0678 C   0  0  0  0  0  0  0  0  0  0  0  0
    0.6943   -1.1996    0.7146 O   0  0  0  0  0  0  0  0  0  0  0  0
    1.5547   -0.2288    0.2011 C   0  0  0  0  0  0  0  0  0  0  0  0
    1.0729    1.0696    0.3698 O   0  0  0  0  0  0  0  0  0  0  0  0
   -0.1607    1.2493   -0.2989 C   0  0  0  0  0  0  0  0  0  0  0  0
   -2.0927    0.2866   -0.4117 H   0  0  0  0  0  0  0  0  0  0  0  0
   -1.4303    0.4248    1.2248 H   0  0  0  0  0  0  0  0  0  0  0  0
   -1.1822   -1.9235    0.5431 H   0  0  0  0  0  0  0  0  0  0  0  0
   -0.4389   -1.4347   -0.9919 H   0  0  0  0  0  0  0  0  0  0  0  0
    1.7250   -0.4207   -0.8742 H   0  0  0  0  0  0  0  0  0  0  0  0
    2.4896   -0.3010    0.7524 H   0  0  0  0  0  0  0  0  0  0  0  0
   -0.0080    1.1481   -1.3844 H   0  0  0  0  0  0  0  0  0  0  0  0
   -0.4826    2.2695   -0.0942 H   0  0  0  0  0  0  0  0  0  0  0  0
  1  2  1  0
  1  6  1  0
  1  7  1  0
  1  8  1  0
  2  3  1  0
  2  9  1  0
  2 10  1  0
  3  4  1  0
  4  5  1  0
  4 11  1  0
  4 12  1  0
  5  6  1  0
  6 13  1  0
  6 14  1  0
M  END
>  <reaction>  (1) 
rmg_rxn_292

>  <mol_properties>  (1) 
{"1": {"label": "donator", "atom_type": "Cs"}, "8": {"label": "d_hydrogen", "atom_type": "H0"}}

>  <type>  (1) 
r1h

$$$$

     RDKit          3D

 17 16  0  0  0  0  0  0  0  0999 V2000
   -3.2378    0.0781    0.0468 C   0  0  0  0  0  0  0  0  0  0  0  0
   -1.9072   -0.5430    0.2348 C   0  0  0  0  0  3  0  0  0  0  0  0
   -1.5607   -0.7743    1.5229 O   0  0  0  0  0  0  0  0  0  0  0  0
   -0.2678   -1.3170    1.7206 C   0  0  0  0  0  0  0  0  0  0  0  0
    0.0055   -1.4164    3.2061 C   0  0  0  0  0  0  0  0  0  0  0  0
    0.0347   -0.0632    3.9042 C   0  0  0  0  0  0  0  0  0  0  0  0
   -3.2816    1.0982    0.4537 H   0  0  0  0  0  0  0  0  0  0  0  0
   -3.4818    0.1310   -1.0144 H   0  0  0  0  0  0  0  0  0  0  0  0
   -4.0139   -0.5033    0.5509 H   0  0  0  0  0  0  0  0  0  0  0  0
   -1.0896   -0.3480   -0.4562 H   0  0  0  0  0  0  0  0  0  0  0  0
   -0.2142   -2.3036    1.2476 H   0  0  0  0  0  0  0  0  0  0  0  0
    0.4751   -0.6679    1.2371 H   0  0  0  0  0  0  0  0  0  0  0  0
   -0.7555   -2.0574    3.6583 H   0  0  0  0  0  0  0  0  0  0  0  0
    0.9642   -1.9267    3.3334 H   0  0  0  0  0  0  0  0  0  0  0  0
   -0.9209    0.4499    3.7952 H   0  0  0  0  0  0  0  0  0  0  0  0
    0.2399   -0.1765    4.9695 H   0  0  0  0  0  0  0  0  0  0  0  0
    0.8109    0.5782    3.4796 H   0  0  0  0  0  0  0  0  0  0  0  0
  1  2  1  0
  1  7  1  0
  1  8  1  0
  1  9  1  0
  2  3  1  0
  2 10  1  0
  3  4  1  0
  4  5  1  0
  4 11  1  0
  4 12  1  0
  5  6  1  0
  5 13  1  0
  5 14  1  0
  6 15  1  0
  6 16  1  0
  6 17  1  0
M  RAD  1   2   2
M  END
>  <reaction>  (2) 
rmg_rxn_292

>  <mol_properties>  (2) 
{"1": {"label": "acceptor", "atom_type": "Cs"}}

>  <type>  (2) 
r2

$$$$

     RDKit          3D

 18 17  0  0  0  0  0  0  0  0999 V2000
    2.2026   -0.7213   -0.2612 C   0  0  0  0  0  0  0  0  0  0  0  0
    1.5384    0.2638    0.6915 C   0  0  0  0  0  0  0  0  0  0  0  0
    2.2584    1.5946    0.7694 C   0  0  0  0  0  0  0  0  0  0  0  0
    2.2212    2.2185   -0.4893 O   0  0  0  0  0  0  0  0  0  0  0  0
    2.8988    3.4488   -0.5204 C   0  0  0  0  0  0  0  0  0  0  0  0
    2.7981    4.0296   -1.9118 C   0  0  0  0  0  0  0  0  0  0  0  0
    3.2294   -0.9309    0.0486 H   0  0  0  0  0  0  0  0  0  0  0  0
    2.2338   -0.3181   -1.2734 H   0  0  0  0  0  0  0  0  0  0  0  0
    1.6610   -1.6680   -0.2875 H   0  0  0  0  0  0  0  0  0  0  0  0
    1.4990   -0.1566    1.7002 H   0  0  0  0  0  0  0  0  0  0  0  0
    0.5055    0.4455    0.3835 H   0  0  0  0  0  0  0  0  0  0  0  0
    3.3038    1.4410    1.0808 H   0  0  0  0  0  0  0  0  0  0  0  0
    1.7844    2.2410    1.5226 H   0  0  0  0  0  0  0  0  0  0  0  0
    2.4596    4.1376    0.2164 H   0  0  0  0  0  0  0  0  0  0  0  0
    3.9524    3.3035   -0.2397 H   0  0  0  0  0  0  0  0  0  0  0  0
    1.7543    4.1869   -2.1856 H   0  0  0  0  0  0  0  0  0  0  0  0
    3.2472    3.3545   -2.6411 H   0  0  0  0  0  0  0  0  0  0  0  0
    3.3178    4.9878   -1.9600 H   0  0  0  0  0  0  0  0  0  0  0  0
  1  2  1  0
  1  7  1  0
  1  8  1  0
  1  9  1  0
  2  3  1  0
  2 10  1  0
  2 11  1  0
  3  4  1  0
  3 12  1  0
  3 13  1  0
  4  5  1  0
  5  6  1  0
  5 14  1  0
  5 15  1  0
  6 16  1  0
  6 17  1  0
  6 18  1  0
M  END
>  <reaction>  (3) 
rmg_rxn_292

>  <mol_properties>  (3) 
{"0": {"label": "a_hydrogen", "atom_type": "H0"}, "2": {"label": "acceptor", "atom_type": "Cs"}}

>  <type>  (3) 
r2h

$$$$

     RDKit          3D

 31 30  0  0  0  0  0  0  0  0999 V2000
    1.3587    1.0425   -0.6268 C   0  0  0  0  0  0  0  0  0  0  0  0
    0.7135    1.2868    0.7118 C   0  0  0  0  0  3  0  0  0  0  0  0
   -0.5891    1.7804    0.5954 O   0  0  0  0  0  0  0  0  0  0  0  0
   -0.6491    2.9153   -0.2287 C   0  0  0  0  0  0  0  0  0  0  0  0
   -0.1859    2.6670   -1.5169 O   0  0  0  0  0  0  0  0  0  0  0  0
    1.1748    2.2763   -1.5075 C   0  0  0  0  0  0  0  0  0  0  0  0
    2.4192    0.8152   -0.5024 H   0  0  0  0  0  0  0  0  0  0  0  0
    0.8849    0.1831   -1.1087 H   0  0  0  0  0  0  0  0  0  0  0  0
    0.5384    0.0237    1.2989 H   0  0  0  0  0  0  0  0  0  0  0  0
    1.3135    1.8724    1.4182 H   0  0  0  0  0  0  0  0  0  0  0  0
   -0.0589    3.7274    0.2305 H   0  0  0  0  0  0  0  0  0  0  0  0
   -1.6964    3.1999   -0.3065 H   0  0  0  0  0  0  0  0  0  0  0  0
    1.7921    3.1059   -1.1330 H   0  0  0  0  0  0  0  0  0  0  0  0
    1.4509    2.0812   -2.5433 H   0  0  0  0  0  0  0  0  0  0  0  0
    1.7149   -1.6931    2.1533 C   0  0  0  0  0  0  0  0  0  0  0  0
    0.3894   -1.2356    1.6201 C   0  0  0  0  0  0  0  0  0  0  0  0
    0.0547   -1.9174    0.4675 O   0  0  0  0  0  0  0  0  0  0  0  0
   -1.2493   -1.6404   -0.0115 C   0  0  0  0  0  0  0  0  0  0  0  0
   -1.4601   -2.3733   -1.3187 C   0  0  0  0  0  0  0  0  0  0  0  0
   -1.3769   -3.8878   -1.1829 C   0  0  0  0  0  0  0  0  0  0  0  0
    2.4920   -1.5699    1.3964 H   0  0  0  0  0  0  0  0  0  0  0  0
    1.9894   -1.1056    3.0307 H   0  0  0  0  0  0  0  0  0  0  0  0
    1.6854   -2.7478    2.4389 H   0  0  0  0  0  0  0  0  0  0  0  0
   -0.4209   -1.2373    2.3598 H   0  0  0  0  0  0  0  0  0  0  0  0
   -1.9859   -1.9684    0.7362 H   0  0  0  0  0  0  0  0  0  0  0  0
   -1.3707   -0.5603   -0.1478 H   0  0  0  0  0  0  0  0  0  0  0  0
   -2.4396   -2.0827   -1.7080 H   0  0  0  0  0  0  0  0  0  0  0  0
   -0.7185   -2.0191   -2.0399 H   0  0  0  0  0  0  0  0  0  0  0  0
   -2.1312   -4.2579   -0.4842 H   0  0  0  0  0  0  0  0  0  0  0  0
   -1.5415   -4.3778   -2.1436 H   0  0  0  0  0  0  0  0  0  0  0  0
   -0.3983   -4.1903   -0.8098 H   0  0  0  0  0  0  0  0  0  0  0  0
  1  2  1  0
  1  6  1  0
  1  7  1  0
  1  8  1  0
  2  3  1  0
  2 10  1  0
  3  4  1  0
  4  5  1  0
  4 11  1  0
  4 12  1  0
  5  6  1  0
  6 13  1  0
  6 14  1  0
  9 16  1  0
 15 16  1  0
 15 21  1  0
 15 22  1  0
 15 23  1  0
 16 17  1  0
 16 24  1  0
 17 18  1  0
 18 19  1  0
 18 25  1  0
 18 26  1  0
 19 20  1  0
 19 27  1  0
 19 28  1  0
 20 29  1  0
 20 30  1  0
 20 31  1  0
M  RAD  1   2   2
M  END
>  <reaction>  (4) 
rmg_rxn_292

>  <mol_properties>  (4) 
{"1": {"label": "*3", "atom_type": "Cs"}, "2": {"label": "*4", "atom_type": "O2s"}, "8": {"label": "*2", "atom_type": "H0"}, "15": {"label": "*1", "atom_type": "Cs"}, "16": {"label": "*0", "atom_type": "O2s"}}

>  <type>  (4) 
ts

$$$$

     RDKit          3D

 31 30  0  0  0  0  0  0  0  0999 V2000
   -0.2119    1.0335   -2.0713 C   0  0  0  0  0  0  0  0  0  0  0  0
   -0.2119    1.0335   -0.5493 C   0  0  0  0  0  0  0  0  0  0  0  0
   -1.2602    1.8461   -0.0572 O   0  0  0  0  0  0  0  0  0  0  0  0
   -1.1693    3.1456   -0.5565 C   0  0  0  0  0  0  0  0  0  0  0  0
   -1.2602    3.2018   -1.9476 O   0  0  0  0  0  0  0  0  0  0  0  0
   -0.2119    2.4751   -2.5594 C   0  0  0  0  0  0  0  0  0  0  0  0
    0.6621    0.5010   -2.4532 H   0  0  0  0  0  0  0  0  0  0  0  0
   -1.1085    0.5273   -2.4344 H   0  0  0  0  0  0  0  0  0  0  0  0
   -0.4026   -0.1636   -0.0605 H   0  0  0  0  0  0  0  0  0  0  0  0
    0.7517    1.4094   -0.1726 H   0  0  0  0  0  0  0  0  0  0  0  0
   -0.2139    3.5977   -0.2323 H   0  0  0  0  0  0  0  0  0  0  0  0
   -2.0103    3.7061   -0.1545 H   0  0  0  0  0  0  0  0  0  0  0  0
    0.7517    2.9525   -2.3242 H   0  0  0  0  0  0  0  0  0  0  0  0
   -0.3708    2.5410   -3.6349 H   0  0  0  0  0  0  0  0  0  0  0  0
   -1.5210   -0.5072    1.2564 C   0  0  0  0  0  0  0  0  0  0  0  0
   -0.5953   -1.3727    0.4332 C   0  0  0  0  0  3  0  0  0  0  0  0
    0.5031   -1.7475    1.2248 O   0  0  0  0  0  0  0  0  0  0  0  0
    1.4269   -2.5600    0.5455 C   0  0  0  0  0  0  0  0  0  0  0  0
    2.5489   -2.9416    1.4892 C   0  0  0  0  0  0  0  0  0  0  0  0
    2.0780   -3.7772    2.6722 C   0  0  0  0  0  0  0  0  0  0  0  0
   -1.0023    0.3887    1.5992 H   0  0  0  0  0  0  0  0  0  0  0  0
   -2.3831   -0.2028    0.6609 H   0  0  0  0  0  0  0  0  0  0  0  0
   -1.8785   -1.0534    2.1301 H   0  0  0  0  0  0  0  0  0  0  0  0
   -1.1232   -2.2693    0.0763 H   0  0  0  0  0  0  0  0  0  0  0  0
    0.9245   -3.4655    0.1699 H   0  0  0  0  0  0  0  0  0  0  0  0
    1.8283   -2.0232   -0.3266 H   0  0  0  0  0  0  0  0  0  0  0  0
    3.2990   -3.4921    0.9146 H   0  0  0  0  0  0  0  0  0  0  0  0
    3.0305   -2.0267    1.8440 H   0  0  0  0  0  0  0  0  0  0  0  0
    1.6154   -4.7073    2.3327 H   0  0  0  0  0  0  0  0  0  0  0  0
    2.9118   -4.0373    3.3259 H   0  0  0  0  0  0  0  0  0  0  0  0
    1.3405   -3.2317    3.2609 H   0  0  0  0  0  0  0  0  0  0  0  0
  1  2  1  0
  1  6  1  0
  1  7  1  0
  1  8  1  0
  2  3  1  0
  2  9  1  0
  2 10  1  0
  3  4  1  0
  4  5  1  0
  4 11  1  0
  4 12  1  0
  5  6  1  0
  6 13  1  0
  6 14  1  0
 15 16  1  0
 15 21  1  0
 15 22  1  0
 15 23  1  0
 16 17  1  0
 16 24  1  0
 17 18  1  0
 18 19  1  0
 18 25  1  0
 18 26  1  0
 19 20  1  0
 19 27  1  0
 19 28  1  0
 20 29  1  0
 20 30  1  0
 20 31  1  0
M  RAD  1  16   2
M  END
>  <reaction>  (5) 
rmg_rxn_292

>  <mol_properties>  (5) 
{"1": {"label": "*3", "atom_type": "Cs"}, "2": {"label": "*4", "atom_type": "O2s"}, "8": {"label": "*2", "atom_type": "H0"}, "15": {"label": "*1", "atom_type": "Cs"}, "16": {"label": "*0", "atom_type": "O2s"}}

>  <type>  (5) 
unop_1

>  <geom_source>  (5) 
Heuristics

$$$$

     RDKit          3D

 31 30  0  0  0  0  0  0  0  0999 V2000
    0.2899    1.3056   -1.0911 C   0  0  0  0  0  0  0  0  0  0  0  0
    0.2899    1.3056    0.4309 C   0  0  0  0  0  0  0  0  0  0  0  0
   -0.7584    2.1182    0.9230 O   0  0  0  0  0  0  0  0  0  0  0  0
   -0.6675    3.4177    0.4237 C   0  0  0  0  0  0  0  0  0  0  0  0
   -0.7584    3.4739   -0.9674 O   0  0  0  0  0  0  0  0  0  0  0  0
    0.2899    2.7472   -1.5792 C   0  0  0  0  0  0  0  0  0  0  0  0
    1.1639    0.7731   -1.4730 H   0  0  0  0  0  0  0  0  0  0  0  0
   -0.6067    0.7994   -1.4542 H   0  0  0  0  0  0  0  0  0  0  0  0
    0.0991    0.1085    0.9197 H   0  0  0  0  0  0  0  0  0  0  0  0
    1.2535    1.6815    0.8076 H   0  0  0  0  0  0  0  0  0  0  0  0
    0.2878    3.8698    0.7479 H   0  0  0  0  0  0  0  0  0  0  0  0
   -1.5086    3.9782    0.8257 H   0  0  0  0  0  0  0  0  0  0  0  0
    1.2535    3.2246   -1.3439 H   0  0  0  0  0  0  0  0  0  0  0  0
    0.1309    2.8131   -2.6547 H   0  0  0  0  0  0  0  0  0  0  0  0
    0.8641   -0.9317    2.5702 C   0  0  0  0  0  0  0  0  0  0  0  0
   -0.0935   -1.1006    1.4134 C   0  0  0  0  0  3  0  0  0  0  0  0
    0.4213   -2.0657    0.5319 O   0  0  0  0  0  0  0  0  0  0  0  0
   -0.4024   -2.2965   -0.5830 C   0  0  0  0  0  0  0  0  0  0  0  0
    0.2156   -3.3752   -1.4490 C   0  0  0  0  0  0  0  0  0  0  0  0
    0.3196   -4.7216   -0.7450 C   0  0  0  0  0  0  0  0  0  0  0  0
    1.8418   -0.6069    2.2125 H   0  0  0  0  0  0  0  0  0  0  0  0
    0.4845   -0.1848    3.2692 H   0  0  0  0  0  0  0  0  0  0  0  0
    0.9887   -1.8746    3.1039 H   0  0  0  0  0  0  0  0  0  0  0  0
   -1.0833   -1.4147    1.7764 H   0  0  0  0  0  0  0  0  0  0  0  0
   -1.4053   -2.6075   -0.2501 H   0  0  0  0  0  0  0  0  0  0  0  0
   -0.5228   -1.3674   -1.1593 H   0  0  0  0  0  0  0  0  0  0  0  0
   -0.3920   -3.4694   -2.3534 H   0  0  0  0  0  0  0  0  0  0  0  0
    1.2064   -3.0402   -1.7666 H   0  0  0  0  0  0  0  0  0  0  0  0
   -0.6674   -5.0805   -0.4428 H   0  0  0  0  0  0  0  0  0  0  0  0
    0.7632   -5.4735   -1.3992 H   0  0  0  0  0  0  0  0  0  0  0  0
    0.9358   -4.6424    0.1506 H   0  0  0  0  0  0  0  0  0  0  0  0
  1  2  1  0
  1  6  1  0
  1  7  1  0
  1  8  1  0
  2  3  1  0
  2  9  1  0
  2 10  1  0
  3  4  1  0
  4  5  1  0
  4 11  1  0
  4 12  1  0
  5  6  1  0
  6 13  1  0
  6 14  1  0
 15 16  1  0
 15 21  1  0
 15 22  1  0
 15 23  1  0
 16 17  1  0
 16 24  1  0
 17 18  1  0
 18 19  1  0
 18 25  1  0
 18 26  1  0
 19 20  1  0
 19 27  1  0
 19 28  1  0
 20 29  1  0
 20 30  1  0
 20 31  1  0
M  RAD  1  16   2
M  END
>  <reaction>  (6) 
rmg_rxn_292

>  <mol_properties>  (6) 
{"1": {"label": "*3", "atom_type": "Cs"}, "2": {"label": "*4", "atom_type": "O2s"}, "8": {"label": "*2", "atom_type": "H0"}, "15": {"label": "*1", "atom_type": "Cs"}, "16": {"label": "*0", "atom_type": "O2s"}}

>  <type>  (6) 
unop_2

>  <geom_source>  (6) 
Heuristics

$$$$

     RDKit          3D

 31 30  0  0  0  0  0  0  0  0999 V2000
   -0.0204    0.8641   -2.3536 C   0  0  0  0  0  0  0  0  0  0  0  0
   -0.0204    0.8641   -0.8315 C   0  0  0  0  0  0  0  0  0  0  0  0
   -1.0687    1.6767   -0.3394 O   0  0  0  0  0  0  0  0  0  0  0  0
   -0.9778    2.9762   -0.8388 C   0  0  0  0  0  0  0  0  0  0  0  0
   -1.0687    3.0324   -2.2298 O   0  0  0  0  0  0  0  0  0  0  0  0
   -0.0204    2.3057   -2.8417 C   0  0  0  0  0  0  0  0  0  0  0  0
    0.8536    0.3316   -2.7355 H   0  0  0  0  0  0  0  0  0  0  0  0
   -0.9170    0.3579   -2.7166 H   0  0  0  0  0  0  0  0  0  0  0  0
   -0.2112   -0.3329   -0.3427 H   0  0  0  0  0  0  0  0  0  0  0  0
    0.9432    1.2401   -0.4548 H   0  0  0  0  0  0  0  0  0  0  0  0
   -0.0225    3.4283   -0.5145 H   0  0  0  0  0  0  0  0  0  0  0  0
   -1.8189    3.5368   -0.4368 H   0  0  0  0  0  0  0  0  0  0  0  0
    0.9432    2.7831   -2.6064 H   0  0  0  0  0  0  0  0  0  0  0  0
   -0.1794    2.3717   -3.9171 H   0  0  0  0  0  0  0  0  0  0  0  0
   -1.8357   -1.1199    0.3858 C   0  0  0  0  0  0  0  0  0  0  0  0
   -0.4038   -1.5420    0.1510 C   0  0  0  0  0  3  0  0  0  0  0  0
    0.2456   -1.6623    1.3909 O   0  0  0  0  0  0  0  0  0  0  0  0
    1.5906   -2.0541    1.2787 C   0  0  0  0  0  0  0  0  0  0  0  0
    2.1900   -2.1937    2.6631 C   0  0  0  0  0  0  0  0  0  0  0  0
    1.5261   -3.2822    3.4959 C   0  0  0  0  0  0  0  0  0  0  0  0
   -1.8713   -0.1615    0.9048 H   0  0  0  0  0  0  0  0  0  0  0  0
   -2.3610   -1.0193   -0.5653 H   0  0  0  0  0  0  0  0  0  0  0  0
   -2.3575   -1.8600    0.9936 H   0  0  0  0  0  0  0  0  0  0  0  0
   -0.3689   -2.5020   -0.3849 H   0  0  0  0  0  0  0  0  0  0  0  0
    1.6581   -3.0122    0.7393 H   0  0  0  0  0  0  0  0  0  0  0  0
    2.1507   -1.3096    0.6940 H   0  0  0  0  0  0  0  0  0  0  0  0
    3.2565   -2.4059    2.5478 H   0  0  0  0  0  0  0  0  0  0  0  0
    2.1121   -1.2304    3.1738 H   0  0  0  0  0  0  0  0  0  0  0  0
    1.6174   -4.2560    3.0083 H   0  0  0  0  0  0  0  0  0  0  0  0
    1.9862   -3.3575    4.4823 H   0  0  0  0  0  0  0  0  0  0  0  0
    0.4648   -3.0727    3.6297 H   0  0  0  0  0  0  0  0  0  0  0  0
  1  2  1  0
  1  6  1  0
  1  7  1  0
  1  8  1  0
  2  3  1  0
  2  9  1  0
  2 10  1  0
  3  4  1  0
  4  5  1  0
  4 11  1  0
  4 12  1  0
  5  6  1  0
  6 13  1  0
  6 14  1  0
 15 16  1  0
 15 21  1  0
 15 22  1  0
 15 23  1  0
 16 17  1  0
 16 24  1  0
 17 18  1  0
 18 19  1  0
 18 25  1  0
 18 26  1  0
 19 20  1  0
 19 27  1  0
 19 28  1  0
 20 29  1  0
 20 30  1  0
 20 31  1  0
M  RAD  1  16   2
M  END
>  <reaction>  (7) 
rmg_rxn_292

>  <mol_properties>  (7) 
{"1": {"label": "*3", "atom_type": "Cs"}, "2": {"label": "*4", "atom_type": "O2s"}, "8": {"label": "*2", "atom_type": "H0"}, "15": {"label": "*1", "atom_type": "Cs"}, "16": {"label": "*0", "atom_type": "O2s"}}

>  <type>  (7) 
unop_3

>  <geom_source>  (7) 
Heuristics

$$$$

     RDKit          3D

 31 30  0  0  0  0  0  0  0  0999 V2000
    1.2904    0.8385   -1.4827 C   0  0  0  0  0  0  0  0  0  0  0  0
    1.2904    0.8385    0.0393 C   0  0  0  0  0  0  0  0  0  0  0  0
    0.2421    1.6511    0.5314 O   0  0  0  0  0  0  0  0  0  0  0  0
    0.3330    2.9506    0.0321 C   0  0  0  0  0  0  0  0  0  0  0  0
    0.2421    3.0068   -1.3590 O   0  0  0  0  0  0  0  0  0  0  0  0
    1.2904    2.2801   -1.9708 C   0  0  0  0  0  0  0  0  0  0  0  0
    2.1644    0.3060   -1.8646 H   0  0  0  0  0  0  0  0  0  0  0  0
    0.3938    0.3323   -1.8458 H   0  0  0  0  0  0  0  0  0  0  0  0
    1.0996   -0.3586    0.5281 H   0  0  0  0  0  0  0  0  0  0  0  0
    2.2540    1.2144    0.4160 H   0  0  0  0  0  0  0  0  0  0  0  0
    1.2883    3.4027    0.3563 H   0  0  0  0  0  0  0  0  0  0  0  0
   -0.5081    3.5111    0.4341 H   0  0  0  0  0  0  0  0  0  0  0  0
    2.2540    2.7575   -1.7356 H   0  0  0  0  0  0  0  0  0  0  0  0
    1.1314    2.3460   -3.0463 H   0  0  0  0  0  0  0  0  0  0  0  0
    1.8388   -2.7257    1.2942 C   0  0  0  0  0  0  0  0  0  0  0  0
    0.9070   -1.5677    1.0218 C   0  0  0  0  0  3  0  0  0  0  0  0
   -0.3312   -2.0704    0.5886 O   0  0  0  0  0  0  0  0  0  0  0  0
   -1.2726   -1.0652    0.3087 C   0  0  0  0  0  0  0  0  0  0  0  0
   -2.5803   -1.7048   -0.1108 C   0  0  0  0  0  0  0  0  0  0  0  0
   -3.2134   -2.5487    0.9875 C   0  0  0  0  0  0  0  0  0  0  0  0
    1.9873   -3.3175    0.3903 H   0  0  0  0  0  0  0  0  0  0  0  0
    2.8092   -2.3588    1.6321 H   0  0  0  0  0  0  0  0  0  0  0  0
    1.4255   -3.3753    2.0666 H   0  0  0  0  0  0  0  0  0  0  0  0
    0.7688   -0.9634    1.9306 H   0  0  0  0  0  0  0  0  0  0  0  0
   -1.4277   -0.4380    1.2010 H   0  0  0  0  0  0  0  0  0  0  0  0
   -0.8953   -0.4097   -0.4899 H   0  0  0  0  0  0  0  0  0  0  0  0
   -3.2636   -0.9061   -0.4127 H   0  0  0  0  0  0  0  0  0  0  0  0
   -2.3983   -2.3178   -0.9973 H   0  0  0  0  0  0  0  0  0  0  0  0
   -3.4232   -1.9428    1.8724 H   0  0  0  0  0  0  0  0  0  0  0  0
   -4.1540   -2.9882    0.6521 H   0  0  0  0  0  0  0  0  0  0  0  0
   -2.5464   -3.3575    1.2858 H   0  0  0  0  0  0  0  0  0  0  0  0
  1  2  1  0
  1  6  1  0
  1  7  1  0
  1  8  1  0
  2  3  1  0
  2  9  1  0
  2 10  1  0
  3  4  1  0
  4  5  1  0
  4 11  1  0
  4 12  1  0
  5  6  1  0
  6 13  1  0
  6 14  1  0
 15 16  1  0
 15 21  1  0
 15 22  1  0
 15 23  1  0
 16 17  1  0
 16 24  1  0
 17 18  1  0
 18 19  1  0
 18 25  1  0
 18 26  1  0
 19 20  1  0
 19 27  1  0
 19 28  1  0
 20 29  1  0
 20 30  1  0
 20 31  1  0
M  RAD  1  16   2
M  END
>  <reaction>  (8) 
rmg_rxn_292

>  <mol_properties>  (8) 
{"1": {"label": "*3", "atom_type": "Cs"}, "2": {"label": "*4", "atom_type": "O2s"}, "8": {"label": "*2", "atom_type": "H0"}, "15": {"label": "*1", "atom_type": "Cs"}, "16": {"label": "*0", "atom_type": "O2s"}}

>  <type>  (8) 
unop_4

>  <geom_source>  (8) 
Heuristics

$$$$

     RDKit          3D

 31 30  0  0  0  0  0  0  0  0999 V2000
    0.2843    0.6767   -2.5073 C   0  0  0  0  0  0  0  0  0  0  0  0
    0.2843    0.6767   -0.9853 C   0  0  0  0  0  0  0  0  0  0  0  0
   -0.7640    1.4893   -0.4932 O   0  0  0  0  0  0  0  0  0  0  0  0
   -0.6731    2.7888   -0.9925 C   0  0  0  0  0  0  0  0  0  0  0  0
   -0.7640    2.8450   -2.3836 O   0  0  0  0  0  0  0  0  0  0  0  0
    0.2843    2.1183   -2.9954 C   0  0  0  0  0  0  0  0  0  0  0  0
    1.1583    0.1442   -2.8892 H   0  0  0  0  0  0  0  0  0  0  0  0
   -0.6123    0.1705   -2.8703 H   0  0  0  0  0  0  0  0  0  0  0  0
    0.0936   -0.5204   -0.4965 H   0  0  0  0  0  0  0  0  0  0  0  0
    1.2479    1.0526   -0.6086 H   0  0  0  0  0  0  0  0  0  0  0  0
    0.2822    3.2409   -0.6683 H   0  0  0  0  0  0  0  0  0  0  0  0
   -1.5141    3.3493   -0.5905 H   0  0  0  0  0  0  0  0  0  0  0  0
    1.2479    2.5957   -2.7601 H   0  0  0  0  0  0  0  0  0  0  0  0
    0.1253    2.1842   -4.0709 H   0  0  0  0  0  0  0  0  0  0  0  0
   -1.4257   -2.2843   -0.4672 C   0  0  0  0  0  0  0  0  0  0  0  0
   -0.0991   -1.7295   -0.0027 C   0  0  0  0  0  3  0  0  0  0  0  0
   -0.0913   -1.6805    1.4012 O   0  0  0  0  0  0  0  0  0  0  0  0
    1.1076   -1.1764    1.9336 C   0  0  0  0  0  0  0  0  0  0  0  0
    1.0340   -1.1998    3.4467 C   0  0  0  0  0  0  0  0  0  0  0  0
    0.9043   -2.6055    4.0181 C   0  0  0  0  0  0  0  0  0  0  0  0
   -2.2454   -1.6517   -0.1249 H   0  0  0  0  0  0  0  0  0  0  0  0
   -1.4552   -2.3312   -1.5570 H   0  0  0  0  0  0  0  0  0  0  0  0
   -1.5788   -3.2894   -0.0726 H   0  0  0  0  0  0  0  0  0  0  0  0
    0.7280   -2.3605   -0.3602 H   0  0  0  0  0  0  0  0  0  0  0  0
    1.9571   -1.7861    1.5872 H   0  0  0  0  0  0  0  0  0  0  0  0
    1.2746   -0.1498    1.5759 H   0  0  0  0  0  0  0  0  0  0  0  0
    1.9355   -0.7176    3.8346 H   0  0  0  0  0  0  0  0  0  0  0  0
    0.1860   -0.5866    3.7625 H   0  0  0  0  0  0  0  0  0  0  0  0
    1.7583   -3.2235    3.7299 H   0  0  0  0  0  0  0  0  0  0  0  0
    0.8596   -2.5838    5.1079 H   0  0  0  0  0  0  0  0  0  0  0  0
    0.0004   -3.0903    3.6493 H   0  0  0  0  0  0  0  0  0  0  0  0
  1  2  1  0
  1  6  1  0
  1  7  1  0
  1  8  1  0
  2  3  1  0
  2  9  1  0
  2 10  1  0
  3  4  1  0
  4  5  1  0
  4 11  1  0
  4 12  1  0
  5  6  1  0
  6 13  1  0
  6 14  1  0
 15 16  1  0
 15 21  1  0
 15 22  1  0
 15 23  1  0
 16 17  1  0
 16 24  1  0
 17 18  1  0
 18 19  1  0
 18 25  1  0
 18 26  1  0
 19 20  1  0
 19 27  1  0
 19 28  1  0
 20 29  1  0
 20 30  1  0
 20 31  1  0
M  RAD  1  16   2
M  END
>  <reaction>  (9) 
rmg_rxn_292

>  <mol_properties>  (9) 
{"1": {"label": "*3", "atom_type": "Cs"}, "2": {"label": "*4", "atom_type": "O2s"}, "8": {"label": "*2", "atom_type": "H0"}, "15": {"label": "*1", "atom_type": "Cs"}, "16": {"label": "*0", "atom_type": "O2s"}}

>  <type>  (9) 
unop_5

>  <geom_source>  (9) 
Heuristics

$$$$

     RDKit          3D

 31 30  0  0  0  0  0  0  0  0999 V2000
    1.2979    0.6570   -1.8725 C   0  0  0  0  0  0  0  0  0  0  0  0
    1.2979    0.6570   -0.3505 C   0  0  0  0  0  0  0  0  0  0  0  0
    0.2496    1.4697    0.1416 O   0  0  0  0  0  0  0  0  0  0  0  0
    0.3406    2.7692   -0.3577 C   0  0  0  0  0  0  0  0  0  0  0  0
    0.2496    2.8254   -1.7488 O   0  0  0  0  0  0  0  0  0  0  0  0
    1.2979    2.0987   -2.3607 C   0  0  0  0  0  0  0  0  0  0  0  0
    2.1719    0.1246   -2.2544 H   0  0  0  0  0  0  0  0  0  0  0  0
    0.4014    0.1509   -2.2356 H   0  0  0  0  0  0  0  0  0  0  0  0
    1.1072   -0.5400    0.1383 H   0  0  0  0  0  0  0  0  0  0  0  0
    2.2616    1.0330    0.0262 H   0  0  0  0  0  0  0  0  0  0  0  0
    1.2959    3.2213   -0.0335 H   0  0  0  0  0  0  0  0  0  0  0  0
   -0.5005    3.3297    0.0443 H   0  0  0  0  0  0  0  0  0  0  0  0
    2.2616    2.5761   -2.1254 H   0  0  0  0  0  0  0  0  0  0  0  0
    1.1390    2.1646   -3.4361 H   0  0  0  0  0  0  0  0  0  0  0  0
    1.6341   -3.0772    0.5891 C   0  0  0  0  0  0  0  0  0  0  0  0
    0.9145   -1.7491    0.6320 C   0  0  0  0  0  3  0  0  0  0  0  0
   -0.4595   -1.9801    0.8112 O   0  0  0  0  0  0  0  0  0  0  0  0
   -1.2197   -0.7993    0.8653 C   0  0  0  0  0  0  0  0  0  0  0  0
   -2.6751   -1.1495    1.0987 C   0  0  0  0  0  0  0  0  0  0  0  0
   -2.9178   -1.8411    2.4337 C   0  0  0  0  0  0  0  0  0  0  0  0
    1.2616   -3.6872   -0.2345 H   0  0  0  0  0  0  0  0  0  0  0  0
    2.7052   -2.9226    0.4498 H   0  0  0  0  0  0  0  0  0  0  0  0
    1.4810   -3.6250    1.5196 H   0  0  0  0  0  0  0  0  0  0  0  0
    1.3006   -1.1290    1.4545 H   0  0  0  0  0  0  0  0  0  0  0  0
   -0.8514   -0.1534    1.6780 H   0  0  0  0  0  0  0  0  0  0  0  0
   -1.1085   -0.2382   -0.0742 H   0  0  0  0  0  0  0  0  0  0  0  0
   -3.2565   -0.2251    1.0427 H   0  0  0  0  0  0  0  0  0  0  0  0
   -3.0146   -1.7874    0.2785 H   0  0  0  0  0  0  0  0  0  0  0  0
   -2.6048   -1.2043    3.2649 H   0  0  0  0  0  0  0  0  0  0  0  0
   -3.9752   -2.0728    2.5694 H   0  0  0  0  0  0  0  0  0  0  0  0
   -2.3541   -2.7720    2.4943 H   0  0  0  0  0  0  0  0  0  0  0  0
  1  2  1  0
  1  6  1  0
  1  7  1  0
  1  8  1  0
  2  3  1  0
  2  9  1  0
  2 10  1  0
  3  4  1  0
  4  5  1  0
  4 11  1  0
  4 12  1  0
  5  6  1  0
  6 13  1  0
  6 14  1  0
 15 16  1  0
 15 21  1  0
 15 22  1  0
 15 23  1  0
 16 17  1  0
 16 24  1  0
 17 18  1  0
 18 19  1  0
 18 25  1  0
 18 26  1  0
 19 20  1  0
 19 27  1  0
 19 28  1  0
 20 29  1  0
 20 30  1  0
 20 31  1  0
M  RAD  1  16   2
M  END
>  <reaction>  (10) 
rmg_rxn_292

>  <mol_properties>  (10) 
{"1": {"label": "*3", "atom_type": "Cs"}, "2": {"label": "*4", "atom_type": "O2s"}, "8": {"label": "*2", "atom_type": "H0"}, "15": {"label": "*1", "atom_type": "Cs"}, "16": {"label": "*0", "atom_type": "O2s"}}

>  <type>  (10) 
unop_6

>  <geom_source>  (10) 
Heuristics

$$$$

     RDKit          3D

 31 30  0  0  0  0  0  0  0  0999 V2000
    1.0872    0.5400   -2.2406 C   0  0  0  0  0  0  0  0  0  0  0  0
    1.0872    0.5400   -0.7186 C   0  0  0  0  0  0  0  0  0  0  0  0
    0.0389    1.3526   -0.2265 O   0  0  0  0  0  0  0  0  0  0  0  0
    0.1299    2.6522   -0.7258 C   0  0  0  0  0  0  0  0  0  0  0  0
    0.0389    2.7084   -2.1168 O   0  0  0  0  0  0  0  0  0  0  0  0
    1.0872    1.9817   -2.7287 C   0  0  0  0  0  0  0  0  0  0  0  0
    1.9612    0.0076   -2.6225 H   0  0  0  0  0  0  0  0  0  0  0  0
    0.1907    0.0339   -2.6036 H   0  0  0  0  0  0  0  0  0  0  0  0
    0.8965   -0.6570   -0.2298 H   0  0  0  0  0  0  0  0  0  0  0  0
    2.0509    0.9160   -0.3418 H   0  0  0  0  0  0  0  0  0  0  0  0
    1.0852    3.1042   -0.4016 H   0  0  0  0  0  0  0  0  0  0  0  0
   -0.7112    3.2127   -0.3238 H   0  0  0  0  0  0  0  0  0  0  0  0
    2.0509    2.4591   -2.4934 H   0  0  0  0  0  0  0  0  0  0  0  0
    0.9283    2.0476   -3.8042 H   0  0  0  0  0  0  0  0  0  0  0  0
    1.0391   -3.2824   -0.1424 C   0  0  0  0  0  0  0  0  0  0  0  0
    0.7038   -1.8661    0.2640 C   0  0  0  0  0  3  0  0  0  0  0  0
   -0.4566   -1.8811    1.0555 O   0  0  0  0  0  0  0  0  0  0  0  0
   -0.8523   -0.6034    1.4870 C   0  0  0  0  0  0  0  0  0  0  0  0
   -2.0833   -0.7277    2.3613 C   0  0  0  0  0  0  0  0  0  0  0  0
   -1.8334   -1.5196    3.6379 C   0  0  0  0  0  0  0  0  0  0  0  0
    0.2198   -3.7202   -0.7137 H   0  0  0  0  0  0  0  0  0  0  0  0
    1.9387   -3.2957   -0.7598 H   0  0  0  0  0  0  0  0  0  0  0  0
    1.2138   -3.9015    0.7383 H   0  0  0  0  0  0  0  0  0  0  0  0
    1.5365   -1.4206    0.8281 H   0  0  0  0  0  0  0  0  0  0  0  0
   -0.0342   -0.1285    2.0515 H   0  0  0  0  0  0  0  0  0  0  0  0
   -1.0647    0.0368    0.6182 H   0  0  0  0  0  0  0  0  0  0  0  0
   -2.4254    0.2818    2.6057 H   0  0  0  0  0  0  0  0  0  0  0  0
   -2.8780   -1.1987    1.7770 H   0  0  0  0  0  0  0  0  0  0  0  0
   -1.0569   -1.0464    4.2443 H   0  0  0  0  0  0  0  0  0  0  0  0
   -2.7384   -1.5837    4.2438 H   0  0  0  0  0  0  0  0  0  0  0  0
   -1.5060   -2.5330    3.4058 H   0  0  0  0  0  0  0  0  0  0  0  0
  1  2  1  0
  1  6  1  0
  1  7  1  0
  1  8  1  0
  2  3  1  0
  2  9  1  0
  2 10  1  0
  3  4  1  0
  4  5  1  0
  4 11  1  0
  4 12  1  0
  5  6  1  0
  6 13  1  0
  6 14  1  0
 15 16  1  0
 15 21  1  0
 15 22  1  0
 15 23  1  0
 16 17  1  0
 16 24  1  0
 17 18  1  0
 18 19  1  0
 18 25  1  0
 18 26  1  0
 19 20  1  0
 19 27  1  0
 19 28  1  0
 20 29  1  0
 20 30  1  0
 20 31  1  0
M  RAD  1  16   2
M  END
>  <reaction>  (11) 
rmg_rxn_292

>  <mol_properties>  (11) 
{"1": {"label": "*3", "atom_type": "Cs"}, "2": {"label": "*4", "atom_type": "O2s"}, "8": {"label": "*2", "atom_type": "H0"}, "15": {"label": "*1", "atom_type": "Cs"}, "16": {"label": "*0", "atom_type": "O2s"}}

>  <type>  (11) 
unop_7

>  <geom_source>  (11) 
Heuristics

$$$$

     RDKit          3D

 31 30  0  0  0  0  0  0  0  0999 V2000
   -0.2373    1.1874   -1.7037 C   0  0  0  0  0  0  0  0  0  0  0  0
   -0.2373    1.1874   -0.1817 C   0  0  0  0  0  0  0  0  0  0  0  0
   -1.2856    2.0000    0.3104 O   0  0  0  0  0  0  0  0  0  0  0  0
   -1.1947    3.2996   -0.1889 C   0  0  0  0  0  0  0  0  0  0  0  0
   -1.2856    3.3558   -1.5799 O   0  0  0  0  0  0  0  0  0  0  0  0
   -0.2373    2.6291   -2.1918 C   0  0  0  0  0  0  0  0  0  0  0  0
    0.6367    0.6550   -2.0856 H   0  0  0  0  0  0  0  0  0  0  0  0
   -1.1339    0.6813   -2.0667 H   0  0  0  0  0  0  0  0  0  0  0  0
   -0.4280   -0.0096    0.3071 H   0  0  0  0  0  0  0  0  0  0  0  0
    0.7263    1.5634    0.1951 H   0  0  0  0  0  0  0  0  0  0  0  0
   -0.2393    3.7516    0.1353 H   0  0  0  0  0  0  0  0  0  0  0  0
   -2.0357    3.8601    0.2131 H   0  0  0  0  0  0  0  0  0  0  0  0
    0.7263    3.1065   -1.9565 H   0  0  0  0  0  0  0  0  0  0  0  0
   -0.3962    2.6950   -3.2673 H   0  0  0  0  0  0  0  0  0  0  0  0
   -0.8780   -0.3153    1.9846 C   0  0  0  0  0  0  0  0  0  0  0  0
   -0.6207   -1.2187    0.8009 C   0  0  0  0  0  3  0  0  0  0  0  0
    0.6136   -1.8653    0.9801 O   0  0  0  0  0  0  0  0  0  0  0  0
    0.9448   -2.7338   -0.0740 C   0  0  0  0  0  0  0  0  0  0  0  0
    2.2667   -3.4093    0.2287 C   0  0  0  0  0  0  0  0  0  0  0  0
    2.2185   -4.2899    1.4703 C   0  0  0  0  0  0  0  0  0  0  0  0
   -0.0895    0.4329    2.0728 H   0  0  0  0  0  0  0  0  0  0  0  0
   -1.8331    0.1991    1.8671 H   0  0  0  0  0  0  0  0  0  0  0  0
   -0.9075   -0.8947    2.9081 H   0  0  0  0  0  0  0  0  0  0  0  0
   -1.4237   -1.9643    0.7044 H   0  0  0  0  0  0  0  0  0  0  0  0
    0.1538   -3.4901   -0.1991 H   0  0  0  0  0  0  0  0  0  0  0  0
    1.0112   -2.1712   -1.0168 H   0  0  0  0  0  0  0  0  0  0  0  0
    2.5476   -4.0049   -0.6444 H   0  0  0  0  0  0  0  0  0  0  0  0
    3.0321   -2.6378    0.3453 H   0  0  0  0  0  0  0  0  0  0  0  0
    1.4733   -5.0814    1.3579 H   0  0  0  0  0  0  0  0  0  0  0  0
    3.1842   -4.7632    1.6537 H   0  0  0  0  0  0  0  0  0  0  0  0
    1.9538   -3.7030    2.3498 H   0  0  0  0  0  0  0  0  0  0  0  0
  1  2  1  0
  1  6  1  0
  1  7  1  0
  1  8  1  0
  2  3  1  0
  2  9  1  0
  2 10  1  0
  3  4  1  0
  4  5  1  0
  4 11  1  0
  4 12  1  0
  5  6  1  0
  6 13  1  0
  6 14  1  0
 15 16  1  0
 15 21  1  0
 15 22  1  0
 15 23  1  0
 16 17  1  0
 16 24  1  0
 17 18  1  0
 18 19  1  0
 18 25  1  0
 18 26  1  0
 19 20  1  0
 19 27  1  0
 19 28  1  0
 20 29  1  0
 20 30  1  0
 20 31  1  0
M  RAD  1  16   2
M  END
>  <reaction>  (12) 
rmg_rxn_292

>  <mol_properties>  (12) 
{"1": {"label": "*3", "atom_type": "Cs"}, "2": {"label": "*4", "atom_type": "O2s"}, "8": {"label": "*2", "atom_type": "H0"}, "15": {"label": "*1", "atom_type": "Cs"}, "16": {"label": "*0", "atom_type": "O2s"}}

>  <type>  (12) 
unop_8

>  <geom_source>  (12) 
Heuristics

$$$$

     RDKit          3D

 31 30  0  0  0  0  0  0  0  0999 V2000
    1.0763    1.0393   -1.1744 C   0  0  0  0  0  0  0  0  0  0  0  0
    1.0763    1.0393    0.3476 C   0  0  0  0  0  0  0  0  0  0  0  0
    0.0280    1.8519    0.8397 O   0  0  0  0  0  0  0  0  0  0  0  0
    0.1189    3.1515    0.3404 C   0  0  0  0  0  0  0  0  0  0  0  0
    0.0280    3.2077   -1.0507 O   0  0  0  0  0  0  0  0  0  0  0  0
    1.0763    2.4810   -1.6625 C   0  0  0  0  0  0  0  0  0  0  0  0
    1.9503    0.5069   -1.5563 H   0  0  0  0  0  0  0  0  0  0  0  0
    0.1797    0.5332   -1.5374 H   0  0  0  0  0  0  0  0  0  0  0  0
    0.8856   -0.1577    0.8364 H   0  0  0  0  0  0  0  0  0  0  0  0
    2.0399    1.4153    0.7243 H   0  0  0  0  0  0  0  0  0  0  0  0
    1.0743    3.6035    0.6646 H   0  0  0  0  0  0  0  0  0  0  0  0
   -0.7221    3.7120    0.7424 H   0  0  0  0  0  0  0  0  0  0  0  0
    2.0399    2.9584   -1.4272 H   0  0  0  0  0  0  0  0  0  0  0  0
    0.9173    2.5469   -2.7380 H   0  0  0  0  0  0  0  0  0  0  0  0
    1.7924   -2.2444    1.8819 C   0  0  0  0  0  0  0  0  0  0  0  0
    0.6929   -1.3668    1.3302 C   0  0  0  0  0  3  0  0  0  0  0  0
   -0.0964   -2.1241    0.4486 O   0  0  0  0  0  0  0  0  0  0  0  0
   -1.1534   -1.3929   -0.1198 C   0  0  0  0  0  0  0  0  0  0  0  0
   -1.9654   -2.3015   -1.0199 C   0  0  0  0  0  0  0  0  0  0  0  0
   -2.6318   -3.4471   -0.2698 C   0  0  0  0  0  0  0  0  0  0  0  0
    2.4191   -2.6248    1.0745 H   0  0  0  0  0  0  0  0  0  0  0  0
    2.4201   -1.6763    2.5702 H   0  0  0  0  0  0  0  0  0  0  0  0
    1.3698   -3.0942    2.4190 H   0  0  0  0  0  0  0  0  0  0  0  0
    0.0698   -0.9723    2.1463 H   0  0  0  0  0  0  0  0  0  0  0  0
   -1.7931   -0.9790    0.6757 H   0  0  0  0  0  0  0  0  0  0  0  0
   -0.7555   -0.5435   -0.6944 H   0  0  0  0  0  0  0  0  0  0  0  0
   -2.7209   -1.6901   -1.5213 H   0  0  0  0  0  0  0  0  0  0  0  0
   -1.3082   -2.6953   -1.7995 H   0  0  0  0  0  0  0  0  0  0  0  0
   -3.3108   -3.0675    0.4978 H   0  0  0  0  0  0  0  0  0  0  0  0
   -3.2110   -4.0760   -0.9476 H   0  0  0  0  0  0  0  0  0  0  0  0
   -1.8863   -4.0721    0.2218 H   0  0  0  0  0  0  0  0  0  0  0  0
  1  2  1  0
  1  6  1  0
  1  7  1  0
  1  8  1  0
  2  3  1  0
  2  9  1  0
  2 10  1  0
  3  4  1  0
  4  5  1  0
  4 11  1  0
  4 12  1  0
  5  6  1  0
  6 13  1  0
  6 14  1  0
 15 16  1  0
 15 21  1  0
 15 22  1  0
 15 23  1  0
 16 17  1  0
 16 24  1  0
 17 18  1  0
 18 19  1  0
 18 25  1  0
 18 26  1  0
 19 20  1  0
 19 27  1  0
 19 28  1  0
 20 29  1  0
 20 30  1  0
 20 31  1  0
M  RAD  1  16   2
M  END
>  <reaction>  (13) 
rmg_rxn_292

>  <mol_properties>  (13) 
{"1": {"label": "*3", "atom_type": "Cs"}, "2": {"label": "*4", "atom_type": "O2s"}, "8": {"label": "*2", "atom_type": "H0"}, "15": {"label": "*1", "atom_type": "Cs"}, "16": {"label": "*0", "atom_type": "O2s"}}

>  <type>  (13) 
unop_9

>  <geom_source>  (13) 
Heuristics

$$$$

     RDKit          3D

 31 30  0  0  0  0  0  0  0  0999 V2000
   -0.0592    1.2917   -1.3420 C   0  0  0  0  0  0  0  0  0  0  0  0
   -0.0592    1.2917    0.1800 C   0  0  0  0  0  0  0  0  0  0  0  0
   -1.1075    2.1043    0.6721 O   0  0  0  0  0  0  0  0  0  0  0  0
   -1.0166    3.4038    0.1728 C   0  0  0  0  0  0  0  0  0  0  0  0
   -1.1075    3.4600   -1.2182 O   0  0  0  0  0  0  0  0  0  0  0  0
   -0.0592    2.7333   -1.8301 C   0  0  0  0  0  0  0  0  0  0  0  0
    0.8148    0.7592   -1.7239 H   0  0  0  0  0  0  0  0  0  0  0  0
   -0.9558    0.7855   -1.7050 H   0  0  0  0  0  0  0  0  0  0  0  0
   -0.2499    0.0946    0.6688 H   0  0  0  0  0  0  0  0  0  0  0  0
    0.9044    1.6676    0.5567 H   0  0  0  0  0  0  0  0  0  0  0  0
   -0.0612    3.8559    0.4970 H   0  0  0  0  0  0  0  0  0  0  0  0
   -1.8576    3.9643    0.5748 H   0  0  0  0  0  0  0  0  0  0  0  0
    0.9044    3.2107   -1.5948 H   0  0  0  0  0  0  0  0  0  0  0  0
   -0.2181    2.7992   -2.9056 H   0  0  0  0  0  0  0  0  0  0  0  0
   -0.0170   -0.4617    2.4573 C   0  0  0  0  0  0  0  0  0  0  0  0
   -0.4426   -1.1145    1.1626 C   0  0  0  0  0  3  0  0  0  0  0  0
    0.5781   -1.9771    0.7294 O   0  0  0  0  0  0  0  0  0  0  0  0
    0.2755   -2.6367   -0.4741 C   0  0  0  0  0  0  0  0  0  0  0  0
    1.4141   -3.5684   -0.8359 C   0  0  0  0  0  0  0  0  0  0  0  0
    1.6262   -4.6788    0.1845 C   0  0  0  0  0  0  0  0  0  0  0  0
    0.9003    0.1103    2.3134 H   0  0  0  0  0  0  0  0  0  0  0  0
   -0.7956    0.2147    2.8134 H   0  0  0  0  0  0  0  0  0  0  0  0
    0.1644   -1.2159    3.2239 H   0  0  0  0  0  0  0  0  0  0  0  0
   -1.3754   -1.6797    1.3054 H   0  0  0  0  0  0  0  0  0  0  0  0
   -0.6598   -3.2080   -0.3635 H   0  0  0  0  0  0  0  0  0  0  0  0
    0.1160   -1.9004   -1.2756 H   0  0  0  0  0  0  0  0  0  0  0  0
    1.1986   -3.9967   -1.8188 H   0  0  0  0  0  0  0  0  0  0  0  0
    2.3269   -2.9764   -0.9416 H   0  0  0  0  0  0  0  0  0  0  0  0
    0.7284   -5.2942    0.2830 H   0  0  0  0  0  0  0  0  0  0  0  0
    2.4487   -5.3318   -0.1111 H   0  0  0  0  0  0  0  0  0  0  0  0
    1.8565   -4.2629    1.1653 H   0  0  0  0  0  0  0  0  0  0  0  0
  1  2  1  0
  1  6  1  0
  1  7  1  0
  1  8  1  0
  2  3  1  0
  2  9  1  0
  2 10  1  0
  3  4  1  0
  4  5  1  0
  4 11  1  0
  4 12  1  0
  5  6  1  0
  6 13  1  0
  6 14  1  0
 15 16  1  0
 15 21  1  0
 15 22  1  0
 15 23  1  0
 16 17  1  0
 16 24  1  0
 17 18  1  0
 18 19  1  0
 18 25  1  0
 18 26  1  0
 19 20  1  0
 19 27  1  0
 19 28  1  0
 20 29  1  0
 20 30  1  0
 20 31  1  0
M  RAD  1  16   2
M  END
>  <reaction>  (14) 
rmg_rxn_292

>  <mol_properties>  (14) 
{"1": {"label": "*3", "atom_type": "Cs"}, "2": {"label": "*4", "atom_type": "O2s"}, "8": {"label": "*2", "atom_type": "H0"}, "15": {"label": "*1", "atom_type": "Cs"}, "16": {"label": "*0", "atom_type": "O2s"}}

>  <type>  (14) 
unop_10

>  <geom_source>  (14) 
Heuristics

$$$$

     RDKit          3D

 31 30  0  0  0  0  0  0  0  0999 V2000
    0.7035    0.5359   -2.4794 C   0  0  0  0  0  0  0  0  0  0  0  0
    0.7035    0.5359   -0.9573 C   0  0  0  0  0  0  0  0  0  0  0  0
   -0.3448    1.3485   -0.4652 O   0  0  0  0  0  0  0  0  0  0  0  0
   -0.2539    2.6480   -0.9645 C   0  0  0  0  0  0  0  0  0  0  0  0
   -0.3448    2.7042   -2.3556 O   0  0  0  0  0  0  0  0  0  0  0  0
    0.7035    1.9775   -2.9675 C   0  0  0  0  0  0  0  0  0  0  0  0
    1.5775    0.0034   -2.8612 H   0  0  0  0  0  0  0  0  0  0  0  0
   -0.1931    0.0297   -2.8424 H   0  0  0  0  0  0  0  0  0  0  0  0
    0.5128   -0.6612   -0.4685 H   0  0  0  0  0  0  0  0  0  0  0  0
    1.6671    0.9118   -0.5806 H   0  0  0  0  0  0  0  0  0  0  0  0
    0.7015    3.1001   -0.6403 H   0  0  0  0  0  0  0  0  0  0  0  0
   -1.0949    3.2085   -0.5626 H   0  0  0  0  0  0  0  0  0  0  0  0
    1.6671    2.4549   -2.7322 H   0  0  0  0  0  0  0  0  0  0  0  0
    0.5446    2.0434   -4.0429 H   0  0  0  0  0  0  0  0  0  0  0  0
   -0.0846   -3.1582   -0.6538 C   0  0  0  0  0  0  0  0  0  0  0  0
    0.3201   -1.8703    0.0252 C   0  0  0  0  0  3  0  0  0  0  0  0
   -0.3346   -1.7827    1.2651 O   0  0  0  0  0  0  0  0  0  0  0  0
   -0.0211   -0.6132    1.9784 C   0  0  0  0  0  0  0  0  0  0  0  0
   -0.7413   -0.6298    3.3112 C   0  0  0  0  0  0  0  0  0  0  0  0
   -0.3041   -1.7760    4.2136 C   0  0  0  0  0  0  0  0  0  0  0  0
   -1.1630   -3.1832   -0.8140 H   0  0  0  0  0  0  0  0  0  0  0  0
    0.4122   -3.2479   -1.6211 H   0  0  0  0  0  0  0  0  0  0  0  0
    0.1922   -4.0167   -0.0408 H   0  0  0  0  0  0  0  0  0  0  0  0
    1.4096   -1.8398    0.1738 H   0  0  0  0  0  0  0  0  0  0  0  0
    1.0672   -0.5516    2.1376 H   0  0  0  0  0  0  0  0  0  0  0  0
   -0.3169    0.2719    1.3962 H   0  0  0  0  0  0  0  0  0  0  0  0
   -0.5575    0.3287    3.8046 H   0  0  0  0  0  0  0  0  0  0  0  0
   -1.8166   -0.6886    3.1240 H   0  0  0  0  0  0  0  0  0  0  0  0
    0.7657   -1.7161    4.4289 H   0  0  0  0  0  0  0  0  0  0  0  0
   -0.8386   -1.7530    5.1644 H   0  0  0  0  0  0  0  0  0  0  0  0
   -0.4966   -2.7373    3.7374 H   0  0  0  0  0  0  0  0  0  0  0  0
  1  2  1  0
  1  6  1  0
  1  7  1  0
  1  8  1  0
  2  3  1  0
  2  9  1  0
  2 10  1  0
  3  4  1  0
  4  5  1  0
  4 11  1  0
  4 12  1  0
  5  6  1  0
  6 13  1  0
  6 14  1  0
 15 16  1  0
 15 21  1  0
 15 22  1  0
 15 23  1  0
 16 17  1  0
 16 24  1  0
 17 18  1  0
 18 19  1  0
 18 25  1  0
 18 26  1  0
 19 20  1  0
 19 27  1  0
 19 28  1  0
 20 29  1  0
 20 30  1  0
 20 31  1  0
M  RAD  1  16   2
M  END
>  <reaction>  (15) 
rmg_rxn_292

>  <mol_properties>  (15) 
{"1": {"label": "*3", "atom_type": "Cs"}, "2": {"label": "*4", "atom_type": "O2s"}, "8": {"label": "*2", "atom_type": "H0"}, "15": {"label": "*1", "atom_type": "Cs"}, "16": {"label": "*0", "atom_type": "O2s"}}

>  <type>  (15) 
unop_11

>  <geom_source>  (15) 
Heuristics

$$$$

     RDKit          3D

 31 30  0  0  0  0  0  0  0  0999 V2000
    0.7105    1.2123   -1.0293 C   0  0  0  0  0  0  0  0  0  0  0  0
    0.7105    1.2123    0.4927 C   0  0  0  0  0  0  0  0  0  0  0  0
   -0.3378    2.0249    0.9848 O   0  0  0  0  0  0  0  0  0  0  0  0
   -0.2469    3.3244    0.4855 C   0  0  0  0  0  0  0  0  0  0  0  0
   -0.3378    3.3806   -0.9056 O   0  0  0  0  0  0  0  0  0  0  0  0
    0.7105    2.6539   -1.5175 C   0  0  0  0  0  0  0  0  0  0  0  0
    1.5845    0.6798   -1.4112 H   0  0  0  0  0  0  0  0  0  0  0  0
   -0.1861    0.7061   -1.3924 H   0  0  0  0  0  0  0  0  0  0  0  0
    0.5198    0.0153    0.9815 H   0  0  0  0  0  0  0  0  0  0  0  0
    1.6741    1.5883    0.8694 H   0  0  0  0  0  0  0  0  0  0  0  0
    0.7085    3.7765    0.8097 H   0  0  0  0  0  0  0  0  0  0  0  0
   -1.0879    3.8850    0.8875 H   0  0  0  0  0  0  0  0  0  0  0  0
    1.6741    3.1313   -1.2822 H   0  0  0  0  0  0  0  0  0  0  0  0
    0.5516    2.7199   -2.5929 H   0  0  0  0  0  0  0  0  0  0  0  0
    1.4996   -1.6063    2.3347 C   0  0  0  0  0  0  0  0  0  0  0  0
    0.3271   -1.1938    1.4752 C   0  0  0  0  0  3  0  0  0  0  0  0
    0.1795   -2.1204    0.4296 O   0  0  0  0  0  0  0  0  0  0  0  0
   -0.8917   -1.8231   -0.4301 C   0  0  0  0  0  0  0  0  0  0  0  0
   -0.9926   -2.8951   -1.4958 C   0  0  0  0  0  0  0  0  0  0  0  0
   -1.3066   -4.2738   -0.9302 C   0  0  0  0  0  0  0  0  0  0  0  0
    2.4162   -1.6312    1.7442 H   0  0  0  0  0  0  0  0  0  0  0  0
    1.6343   -0.8994    3.1549 H   0  0  0  0  0  0  0  0  0  0  0  0
    1.3345   -2.5987    2.7557 H   0  0  0  0  0  0  0  0  0  0  0  0
   -0.5944   -1.1555    2.0747 H   0  0  0  0  0  0  0  0  0  0  0  0
   -1.8302   -1.7717    0.1444 H   0  0  0  0  0  0  0  0  0  0  0  0
   -0.7381   -0.8376   -0.8939 H   0  0  0  0  0  0  0  0  0  0  0  0
   -1.7693   -2.5931   -2.2039 H   0  0  0  0  0  0  0  0  0  0  0  0
   -0.0513   -2.9226   -2.0507 H   0  0  0  0  0  0  0  0  0  0  0  0
   -2.2580   -4.2669   -0.3924 H   0  0  0  0  0  0  0  0  0  0  0  0
   -1.3769   -5.0177   -1.7251 H   0  0  0  0  0  0  0  0  0  0  0  0
   -0.5306   -4.5913   -0.2338 H   0  0  0  0  0  0  0  0  0  0  0  0
  1  2  1  0
  1  6  1  0
  1  7  1  0
  1  8  1  0
  2  3  1  0
  2  9  1  0
  2 10  1  0
  3  4  1  0
  4  5  1  0
  4 11  1  0
  4 12  1  0
  5  6  1  0
  6 13  1  0
  6 14  1  0
 15 16  1  0
 15 21  1  0
 15 22  1  0
 15 23  1  0
 16 17  1  0
 16 24  1  0
 17 18  1  0
 18 19  1  0
 18 25  1  0
 18 26  1  0
 19 20  1  0
 19 27  1  0
 19 28  1  0
 20 29  1  0
 20 30  1  0
 20 31  1  0
M  RAD  1  16   2
M  END
>  <reaction>  (16) 
rmg_rxn_292

>  <mol_properties>  (16) 
{"1": {"label": "*3", "atom_type": "Cs"}, "2": {"label": "*4", "atom_type": "O2s"}, "8": {"label": "*2", "atom_type": "H0"}, "15": {"label": "*1", "atom_type": "Cs"}, "16": {"label": "*0", "atom_type": "O2s"}}

>  <type>  (16) 
unop_12

>  <geom_source>  (16) 
Heuristics

$$$$

     RDKit          3D

 31 30  0  0  0  0  0  0  0  0999 V2000
    1.5485    0.5084    0.2735 O   0  0  0  0  0  0  0  0  0  0  0  0
   -4.2805   -0.5079    0.5508 O   0  0  0  0  0  0  0  0  0  0  0  0
   -2.3068    0.6310    1.0435 O   0  0  0  0  0  0  0  0  0  0  0  0
    3.6799   -0.6046    0.3821 C   0  0  0  0  0  0  0  0  0  0  0  0
   -2.6562   -0.1755   -1.2142 C   0  0  0  0  0  0  0  0  0  0  0  0
    2.6536    0.0991   -0.5068 C   0  0  0  0  0  0  0  0  0  0  0  0
   -3.7508   -1.0699   -0.6330 C   0  0  0  0  0  0  0  0  0  0  0  0
    0.6468    1.2729   -0.5044 C   0  0  0  0  0  0  0  0  0  0  0  0
    3.1292   -1.9013    0.9719 C   0  0  0  0  0  0  0  0  0  0  0  0
    0.8939    2.7606   -0.2893 C   0  0  0  0  0  0  0  0  0  0  0  0
   -3.2398   -0.3331    1.4949 C   0  0  0  0  0  0  0  0  0  0  0  0
   -1.6533    0.1403   -0.1086 C   0  0  0  0  0  3  0  0  0  0  0  0
    3.9851    0.0756    1.2067 H   0  0  0  0  0  0  0  0  0  0  0  0
    4.5822   -0.8401   -0.2230 H   0  0  0  0  0  0  0  0  0  0  0  0
   -2.1465   -0.6866   -2.0585 H   0  0  0  0  0  0  0  0  0  0  0  0
   -3.1036    0.7727   -1.5819 H   0  0  0  0  0  0  0  0  0  0  0  0
    0.6752    1.0347   -1.5945 H   0  0  0  0  0  0  0  0  0  0  0  0
   -0.6046    0.9960   -0.0839 H   0  0  0  0  0  0  0  0  0  0  0  0
    2.3280   -0.6021   -1.3090 H   0  0  0  0  0  0  0  0  0  0  0  0
    3.1535    0.9769   -0.9758 H   0  0  0  0  0  0  0  0  0  0  0  0
   -4.5683   -1.1665   -1.3782 H   0  0  0  0  0  0  0  0  0  0  0  0
   -3.3572   -2.0940   -0.4395 H   0  0  0  0  0  0  0  0  0  0  0  0
    1.9008    3.0439   -0.6606 H   0  0  0  0  0  0  0  0  0  0  0  0
    0.1300    3.3471   -0.8413 H   0  0  0  0  0  0  0  0  0  0  0  0
    0.8206    3.0031    0.7917 H   0  0  0  0  0  0  0  0  0  0  0  0
    3.9124   -2.3897    1.5891 H   0  0  0  0  0  0  0  0  0  0  0  0
    2.8311   -2.5989    0.1605 H   0  0  0  0  0  0  0  0  0  0  0  0
    2.2502   -1.6924    1.6180 H   0  0  0  0  0  0  0  0  0  0  0  0
   -3.6913    0.0424    2.4361 H   0  0  0  0  0  0  0  0  0  0  0  0
   -2.7450   -1.3006    1.7506 H   0  0  0  0  0  0  0  0  0  0  0  0
   -1.0172   -0.7414    0.1331 H   0  0  0  0  0  0  0  0  0  0  0  0
  1  8  1  0
  1  6  1  0
  2  7  1  0
  2 11  1  0
  3 12  1  0
  3 11  1  0
  4  9  1  0
  4  6  1  0
  4 13  1  0
  4 14  1  0
  5 12  1  0
  5  7  1  0
  5 15  1  0
  5 16  1  0
  6 19  1  0
  6 20  1  0
  7 21  1  0
  7 22  1  0
  8 10  1  0
  8 17  1  0
  8 18  1  0
  9 26  1  0
  9 27  1  0
  9 28  1  0
 10 23  1  0
 10 24  1  0
 10 25  1  0
 11 29  1  0
 11 30  1  0
 12 31  1  0
M  RAD  1  12   2
M  END
>  <reaction>  (17) 
rmg_rxn_292

>  <mol_properties>  (17) 
{"1": {"label": "*3", "atom_type": "Cs"}, "2": {"label": "*4", "atom_type": "O2s"}, "8": {"label": "*2", "atom_type": "H0"}, "15": {"label": "*1", "atom_type": "Cs"}, "16": {"label": "*0", "atom_type": "O2s"}}

>  <type>  (17) 
unop_13

>  <geom_source>  (17) 
AutoTST

$$$$

     RDKit          3D

 31 30  0  0  0  0  0  0  0  0999 V2000
    0.2899    1.3056   -1.0911 C   0  0  0  0  0  0  0  0  0  0  0  0
    0.2899    1.3056    0.4309 C   0  0  0  0  0  0  0  0  0  0  0  0
   -0.7584    2.1182    0.9230 O   0  0  0  0  0  0  0  0  0  0  0  0
   -0.6675    3.4177    0.4237 C   0  0  0  0  0  0  0  0  0  0  0  0
   -0.7584    3.4739   -0.9674 O   0  0  0  0  0  0  0  0  0  0  0  0
    0.2899    2.7472   -1.5792 C   0  0  0  0  0  0  0  0  0  0  0  0
    1.1639    0.7731   -1.4730 H   0  0  0  0  0  0  0  0  0  0  0  0
   -0.6067    0.7994   -1.4542 H   0  0  0  0  0  0  0  0  0  0  0  0
    0.0992    0.1085    0.9197 H   0  0  0  0  0  0  0  0  0  0  0  0
    1.2535    1.6815    0.8076 H   0  0  0  0  0  0  0  0  0  0  0  0
    0.2878    3.8698    0.7479 H   0  0  0  0  0  0  0  0  0  0  0  0
   -1.5086    3.9782    0.8257 H   0  0  0  0  0  0  0  0  0  0  0  0
    1.2535    3.2246   -1.3439 H   0  0  0  0  0  0  0  0  0  0  0  0
    0.1309    2.8131   -2.6547 H   0  0  0  0  0  0  0  0  0  0  0  0
    0.8641   -0.9317    2.5702 C   0  0  0  0  0  0  0  0  0  0  0  0
   -0.0935   -1.1006    1.4134 C   0  0  0  0  0  3  0  0  0  0  0  0
    0.4214   -2.0657    0.5319 O   0  0  0  0  0  0  0  0  0  0  0  0
   -0.4024   -2.2965   -0.5830 C   0  0  0  0  0  0  0  0  0  0  0  0
    0.2156   -3.3752   -1.4490 C   0  0  0  0  0  0  0  0  0  0  0  0
    0.3196   -4.7216   -0.7450 C   0  0  0  0  0  0  0  0  0  0  0  0
    1.8418   -0.6069    2.2125 H   0  0  0  0  0  0  0  0  0  0  0  0
    0.4845   -0.1848    3.2692 H   0  0  0  0  0  0  0  0  0  0  0  0
    0.9887   -1.8745    3.1039 H   0  0  0  0  0  0  0  0  0  0  0  0
   -1.0833   -1.4147    1.7764 H   0  0  0  0  0  0  0  0  0  0  0  0
   -1.4053   -2.6075   -0.2501 H   0  0  0  0  0  0  0  0  0  0  0  0
   -0.5228   -1.3674   -1.1593 H   0  0  0  0  0  0  0  0  0  0  0  0
   -0.3920   -3.4694   -2.3533 H   0  0  0  0  0  0  0  0  0  0  0  0
    1.2064   -3.0402   -1.7666 H   0  0  0  0  0  0  0  0  0  0  0  0
   -0.6674   -5.0805   -0.4428 H   0  0  0  0  0  0  0  0  0  0  0  0
    0.7632   -5.4735   -1.3992 H   0  0  0  0  0  0  0  0  0  0  0  0
    0.9358   -4.6424    0.1505 H   0  0  0  0  0  0  0  0  0  0  0  0
  1  2  1  0
  1  6  1  0
  1  7  1  0
  1  8  1  0
  2  3  1  0
  2  9  1  0
  2 10  1  0
  3  4  1  0
  4  5  1  0
  4 11  1  0
  4 12  1  0
  5  6  1  0
  6 13  1  0
  6 14  1  0
 15 16  1  0
 15 21  1  0
 15 22  1  0
 15 23  1  0
 16 17  1  0
 16 24  1  0
 17 18  1  0
 18 19  1  0
 18 25  1  0
 18 26  1  0
 19 20  1  0
 19 27  1  0
 19 28  1  0
 20 29  1  0
 20 30  1  0
 20 31  1  0
M  RAD  1  16   2
M  END
>  <reaction>  (18) 
rmg_rxn_292

>  <mol_properties>  (18) 
{"1": {"label": "*3", "atom_type": "Cs"}, "2": {"label": "*4", "atom_type": "O2s"}, "8": {"label": "*2", "atom_type": "H0"}, "15": {"label": "*1", "atom_type": "Cs"}, "16": {"label": "*0", "atom_type": "O2s"}}

>  <type>  (18) 
unop_14

>  <geom_source>  (18) 
gaussian_log

$$$$
