
     RDKit          3D

  9  8  0  0  0  0  0  0  0  0999 V2000
   -1.5915   -0.3670   -0.0519 C   0  0  0  0  0  0  0  0  0  0  0  0
   -0.4922    0.6696    0.0849 C   0  0  0  0  0  0  0  0  0  0  0  0
    1.1414   -0.1015   -0.0812 S   0  0  0  0  0  0  0  0  0  0  0  0
   -1.5200   -1.1346    0.7261 H   0  0  0  0  0  0  0  0  0  0  0  0
   -1.5611   -0.8586   -1.0302 H   0  0  0  0  0  0  0  0  0  0  0  0
   -2.5706    0.1134    0.0467 H   0  0  0  0  0  0  0  0  0  0  0  0
   -0.5531    1.1600    1.0610 H   0  0  0  0  0  0  0  0  0  0  0  0
   -0.5982    1.4362   -0.6885 H   0  0  0  0  0  0  0  0  0  0  0  0
    1.0422   -0.9077    0.9861 H   0  0  0  0  0  0  0  0  0  0  0  0
  1  2  1  0
  1  4  1  0
  1  5  1  0
  1  6  1  0
  2  3  1  0
  2  7  1  0
  2  8  1  0
  3  9  1  0
M  END
>  <reaction>  (1) 
rmg_rxn_1339

>  <mol_properties>  (1) 
{"2": {"label": "donator", "atom_type": "S2s"}, "8": {"label": "d_hydrogen", "atom_type": "H0"}}

>  <type>  (1) 
r1h

$$$$

     RDKit          3D

 13 12  0  0  0  0  0  0  0  0999 V2000
   -2.7070   -0.4344   -0.2055 C   0  0  0  0  0  3  0  0  0  0  0  0
   -1.6720    0.4487    0.0704 O   0  0  0  0  0  0  0  0  0  0  0  0
   -0.3991   -0.2089    0.0000 C   0  0  0  0  0  0  0  0  0  0  0  0
    0.6760    0.8635    0.0035 C   0  0  0  0  0  0  0  0  0  0  0  0
    2.0575    0.2721   -0.0091 C   0  0  0  0  0  0  0  0  0  0  0  0
    2.2973   -0.9310   -0.0033 O   0  0  0  0  0  0  0  0  0  0  0  0
   -3.6755    0.0422    0.2382 H   0  0  0  0  0  0  0  0  0  0  0  0
   -2.5094   -1.4767    0.5114 H   0  0  0  0  0  0  0  0  0  0  0  0
   -0.3167   -0.8506   -0.8718 H   0  0  0  0  0  0  0  0  0  0  0  0
   -0.2954   -0.8300    0.9139 H   0  0  0  0  0  0  0  0  0  0  0  0
    0.5688    1.4911   -0.8987 H   0  0  0  0  0  0  0  0  0  0  0  0
    0.5799    1.5212    0.8631 H   0  0  0  0  0  0  0  0  0  0  0  0
    2.8808    1.0068   -0.0260 H   0  0  0  0  0  0  0  0  0  0  0  0
  1  2  1  0
  1  7  1  0
  1  8  1  0
  2  3  1  0
  3  4  1  0
  3  9  1  0
  3 10  1  0
  4  5  1  0
  4 11  1  0
  4 12  1  0
  5  6  2  0
  5 13  1  0
M  RAD  1   1   2
M  END
>  <reaction>  (2) 
rmg_rxn_1339

>  <mol_properties>  (2) 
{"0": {"label": "acceptor", "atom_type": "Cs"}}

>  <type>  (2) 
r2

$$$$

     RDKit          3D

 14 13  0  0  0  0  0  0  0  0999 V2000
    2.6835   -0.4133    0.0000 C   0  0  0  0  0  0  0  0  0  0  0  0
    1.5970    0.5046    0.0000 O   0  0  0  0  0  0  0  0  0  0  0  0
    0.3396   -0.1741   -0.0000 C   0  0  0  0  0  0  0  0  0  0  0  0
   -0.7603    0.8710    0.0000 C   0  0  0  0  0  0  0  0  0  0  0  0
   -2.1280    0.2478    0.0000 C   0  0  0  0  0  0  0  0  0  0  0  0
   -2.3411   -0.9603    0.0000 O   0  0  0  0  0  0  0  0  0  0  0  0
    2.6563   -1.0389   -0.8974 H   0  0  0  0  0  0  0  0  0  0  0  0
    2.6563   -1.0389    0.8974 H   0  0  0  0  0  0  0  0  0  0  0  0
    3.6159    0.1574    0.0000 H   0  0  0  0  0  0  0  0  0  0  0  0
    0.2658   -0.8093   -0.8908 H   0  0  0  0  0  0  0  0  0  0  0  0
    0.2658   -0.8093    0.8908 H   0  0  0  0  0  0  0  0  0  0  0  0
   -0.6740    1.5163   -0.8809 H   0  0  0  0  0  0  0  0  0  0  0  0
   -0.6740    1.5163    0.8809 H   0  0  0  0  0  0  0  0  0  0  0  0
   -2.9678    0.9638   -0.0000 H   0  0  0  0  0  0  0  0  0  0  0  0
  1  2  1  0
  1  7  1  0
  1  8  1  0
  1  9  1  0
  2  3  1  0
  3  4  1  0
  3 10  1  0
  3 11  1  0
  4  5  1  0
  4 12  1  0
  4 13  1  0
  5  6  2  0
  5 14  1  0
M  END
>  <reaction>  (3) 
rmg_rxn_1339

>  <mol_properties>  (3) 
{"0": {"label": "a_hydrogen", "atom_type": "H0"}, "1": {"label": "acceptor", "atom_type": "Cs"}}

>  <type>  (3) 
r2h

$$$$

     RDKit          3D

 22 20  0  0  0  0  0  0  0  0999 V2000
   -3.6328    0.2956    0.9952 C   0  0  0  0  0  0  0  0  0  0  0  0
   -3.3790   -0.6107   -0.1946 C   0  0  0  0  0  0  0  0  0  0  0  0
   -1.6308   -1.0884   -0.2762 S   0  0  0  0  0  1  0  0  0  0  0  0
   -3.0515    1.2214    0.9273 H   0  0  0  0  0  0  0  0  0  0  0  0
   -3.3866   -0.2019    1.9394 H   0  0  0  0  0  0  0  0  0  0  0  0
   -4.6917    0.5723    1.0333 H   0  0  0  0  0  0  0  0  0  0  0  0
   -3.6488   -0.1004   -1.1241 H   0  0  0  0  0  0  0  0  0  0  0  0
   -3.9867   -1.5170   -0.1150 H   0  0  0  0  0  0  0  0  0  0  0  0
   -1.0407    0.3957   -0.4751 H   0  0  0  0  0  0  0  0  0  0  0  0
   -0.5592    1.6065   -0.6374 C   0  0  0  0  0  0  0  0  0  0  0  0
    0.7430    1.7040   -0.0737 O   0  0  0  0  0  0  0  0  0  0  0  0
    1.4534    0.4691   -0.1827 C   0  0  0  0  0  0  0  0  0  0  0  0
    2.8247    0.6574    0.4386 C   0  0  0  0  0  0  0  0  0  0  0  0
    3.6500   -0.5968    0.3703 C   0  0  0  0  0  0  0  0  0  0  0  0
    3.2702   -1.6524   -0.1262 O   0  0  0  0  0  0  0  0  0  0  0  0
   -1.0551    2.5745   -0.5270 H   0  0  0  0  0  0  0  0  0  0  0  0
   -0.4982    1.3642   -1.7027 H   0  0  0  0  0  0  0  0  0  0  0  0
    1.5454    0.1911   -1.2394 H   0  0  0  0  0  0  0  0  0  0  0  0
    0.8998   -0.3198    0.3404 H   0  0  0  0  0  0  0  0  0  0  0  0
    3.3691    1.4583   -0.0733 H   0  0  0  0  0  0  0  0  0  0  0  0
    2.7306    0.9530    1.4891 H   0  0  0  0  0  0  0  0  0  0  0  0
    4.6596   -0.5164    0.8089 H   0  0  0  0  0  0  0  0  0  0  0  0
  1  2  1  0
  1  4  1  0
  1  5  1  0
  1  6  1  0
  2  3  1  0
  2  7  1  0
  2  8  1  0
  9 10  1  0
 10 11  1  0
 10 16  1  0
 10 17  1  0
 11 12  1  0
 12 13  1  0
 12 18  1  0
 12 19  1  0
 13 14  1  0
 13 20  1  0
 13 21  1  0
 14 15  2  0
 14 22  1  0
M  RAD  1   3   2
M  END
>  <reaction>  (4) 
rmg_rxn_1339

>  <mol_properties>  (4) 
{"1": {"label": "*4", "atom_type": "Cs"}, "2": {"label": "*3", "atom_type": "S2s"}, "8": {"label": "*2", "atom_type": "H0"}, "9": {"label": "*1", "atom_type": "Cs"}, "10": {"label": "*0", "atom_type": "O2s"}}

>  <type>  (4) 
ts

$$$$

     RDKit          3D

 22 20  0  0  0  0  0  0  0  0999 V2000
   -1.0102   -3.3347   -1.6049 C   0  0  0  0  0  0  0  0  0  0  0  0
   -1.0102   -3.3347   -0.0878 C   0  0  0  0  0  0  0  0  0  0  0  0
   -1.0102   -1.6380    0.5541 S   0  0  0  0  0  1  0  0  0  0  0  0
   -0.1192   -2.8409   -2.0074 H   0  0  0  0  0  0  0  0  0  0  0  0
   -1.8976   -2.8342   -2.0070 H   0  0  0  0  0  0  0  0  0  0  0  0
   -1.0139   -4.3645   -1.9772 H   0  0  0  0  0  0  0  0  0  0  0  0
   -0.1255   -3.8551    0.2912 H   0  0  0  0  0  0  0  0  0  0  0  0
   -1.8972   -3.8522    0.2895 H   0  0  0  0  0  0  0  0  0  0  0  0
    0.4035   -1.1992   -0.0777 H   0  0  0  0  0  0  0  0  0  0  0  0
    1.5570   -0.8413   -0.5932 C   0  0  0  0  0  0  0  0  0  0  0  0
    1.5648    0.5527   -0.8756 O   0  0  0  0  0  0  0  0  0  0  0  0
    0.7752    1.2811    0.0665 C   0  0  0  0  0  0  0  0  0  0  0  0
    0.8362    2.7512   -0.3038 C   0  0  0  0  0  0  0  0  0  0  0  0
    0.0302    3.6020    0.6371 C   0  0  0  0  0  0  0  0  0  0  0  0
   -0.6050    3.1700    1.5936 O   0  0  0  0  0  0  0  0  0  0  0  0
    2.1734   -1.3472   -1.3410 H   0  0  0  0  0  0  0  0  0  0  0  0
    1.9804   -1.0337    0.3973 H   0  0  0  0  0  0  0  0  0  0  0  0
    1.1711    1.1228    1.0768 H   0  0  0  0  0  0  0  0  0  0  0  0
   -0.2596    0.9197    0.0349 H   0  0  0  0  0  0  0  0  0  0  0  0
    1.8725    3.1059   -0.2897 H   0  0  0  0  0  0  0  0  0  0  0  0
    0.4576    2.9050   -1.3201 H   0  0  0  0  0  0  0  0  0  0  0  0
    0.0392    4.6828    0.4140 H   0  0  0  0  0  0  0  0  0  0  0  0
  1  2  1  0
  1  4  1  0
  1  5  1  0
  1  6  1  0
  2  3  1  0
  2  7  1  0
  2  8  1  0
  9 10  1  0
 10 11  1  0
 10 16  1  0
 10 17  1  0
 11 12  1  0
 12 13  1  0
 12 18  1  0
 12 19  1  0
 13 14  1  0
 13 20  1  0
 13 21  1  0
 14 15  2  0
 14 22  1  0
M  RAD  1   3   2
M  END
>  <reaction>  (5) 
rmg_rxn_1339

>  <mol_properties>  (5) 
{"1": {"label": "*4", "atom_type": "Cs"}, "2": {"label": "*3", "atom_type": "S2s"}, "8": {"label": "*2", "atom_type": "H0"}, "9": {"label": "*1", "atom_type": "Cs"}, "10": {"label": "*0", "atom_type": "O2s"}}

>  <type>  (5) 
unop_1

>  <geom_source>  (5) 
Heuristics

$$$$

     RDKit          3D

 22 20  0  0  0  0  0  0  0  0999 V2000
   -0.6348   -1.8853    0.1799 C   0  0  0  0  0  0  0  0  0  0  0  0
   -0.6348   -1.8853    1.6970 C   0  0  0  0  0  0  0  0  0  0  0  0
   -0.6348   -0.1885    2.3389 S   0  0  0  0  0  1  0  0  0  0  0  0
    0.2562   -1.3914   -0.2226 H   0  0  0  0  0  0  0  0  0  0  0  0
   -1.5222   -1.3848   -0.2222 H   0  0  0  0  0  0  0  0  0  0  0  0
   -0.6385   -2.9151   -0.1924 H   0  0  0  0  0  0  0  0  0  0  0  0
    0.2499   -2.4057    2.0760 H   0  0  0  0  0  0  0  0  0  0  0  0
   -1.5219   -2.4028    2.0742 H   0  0  0  0  0  0  0  0  0  0  0  0
    0.7789    0.2502    1.7071 H   0  0  0  0  0  0  0  0  0  0  0  0
    1.9323    0.6082    1.1916 C   0  0  0  0  0  0  0  0  0  0  0  0
    1.8993    0.4988   -0.2262 O   0  0  0  0  0  0  0  0  0  0  0  0
    0.5806    0.7059   -0.7356 C   0  0  0  0  0  0  0  0  0  0  0  0
    0.6323    0.5730   -2.2461 C   0  0  0  0  0  0  0  0  0  0  0  0
   -0.7176    0.7763   -2.8750 C   0  0  0  0  0  0  0  0  0  0  0  0
   -1.7451    1.0209   -2.2511 O   0  0  0  0  0  0  0  0  0  0  0  0
    2.9599    0.4416    1.5255 H   0  0  0  0  0  0  0  0  0  0  0  0
    1.6203    1.6088    1.5058 H   0  0  0  0  0  0  0  0  0  0  0  0
    0.2297    1.7048   -0.4498 H   0  0  0  0  0  0  0  0  0  0  0  0
   -0.0993   -0.0403   -0.3075 H   0  0  0  0  0  0  0  0  0  0  0  0
    1.3259    1.3070   -2.6705 H   0  0  0  0  0  0  0  0  0  0  0  0
    1.0005   -0.4188   -2.5298 H   0  0  0  0  0  0  0  0  0  0  0  0
   -0.7383    0.6905   -3.9751 H   0  0  0  0  0  0  0  0  0  0  0  0
  1  2  1  0
  1  4  1  0
  1  5  1  0
  1  6  1  0
  2  3  1  0
  2  7  1  0
  2  8  1  0
  9 10  1  0
 10 11  1  0
 10 16  1  0
 10 17  1  0
 11 12  1  0
 12 13  1  0
 12 18  1  0
 12 19  1  0
 13 14  1  0
 13 20  1  0
 13 21  1  0
 14 15  2  0
 14 22  1  0
M  RAD  1   3   2
M  END
>  <reaction>  (6) 
rmg_rxn_1339

>  <mol_properties>  (6) 
{"1": {"label": "*4", "atom_type": "Cs"}, "2": {"label": "*3", "atom_type": "S2s"}, "8": {"label": "*2", "atom_type": "H0"}, "9": {"label": "*1", "atom_type": "Cs"}, "10": {"label": "*0", "atom_type": "O2s"}}

>  <type>  (6) 
unop_2

>  <geom_source>  (6) 
Heuristics

$$$$

     RDKit          3D

 22 20  0  0  0  0  0  0  0  0999 V2000
   -1.8038   -2.9393   -2.3693 C   0  0  0  0  0  0  0  0  0  0  0  0
   -1.8038   -2.9393   -0.8522 C   0  0  0  0  0  0  0  0  0  0  0  0
   -1.8038   -1.2425   -0.2103 S   0  0  0  0  0  1  0  0  0  0  0  0
   -0.9129   -2.4454   -2.7718 H   0  0  0  0  0  0  0  0  0  0  0  0
   -2.6912   -2.4388   -2.7714 H   0  0  0  0  0  0  0  0  0  0  0  0
   -1.8075   -3.9691   -2.7416 H   0  0  0  0  0  0  0  0  0  0  0  0
   -0.9191   -3.4597   -0.4732 H   0  0  0  0  0  0  0  0  0  0  0  0
   -2.6909   -3.4568   -0.4749 H   0  0  0  0  0  0  0  0  0  0  0  0
   -0.3901   -0.8038   -0.8421 H   0  0  0  0  0  0  0  0  0  0  0  0
    0.7633   -0.4458   -1.3576 C   0  0  0  0  0  0  0  0  0  0  0  0
    1.0638    0.9021   -1.0172 O   0  0  0  0  0  0  0  0  0  0  0  0
    1.1657    1.0734    0.3976 C   0  0  0  0  0  0  0  0  0  0  0  0
    1.4862    2.5304    0.6744 C   0  0  0  0  0  0  0  0  0  0  0  0
    1.6133    2.8085    2.1459 C   0  0  0  0  0  0  0  0  0  0  0  0
    1.4763    1.9657    3.0267 O   0  0  0  0  0  0  0  0  0  0  0  0
    0.6973   -0.5191   -2.4464 H   0  0  0  0  0  0  0  0  0  0  0  0
    1.5564   -1.1146   -1.0096 H   0  0  0  0  0  0  0  0  0  0  0  0
    1.9583    0.4247    0.7894 H   0  0  0  0  0  0  0  0  0  0  0  0
    0.2170    0.7924    0.8703 H   0  0  0  0  0  0  0  0  0  0  0  0
    2.4247    2.8143    0.1861 H   0  0  0  0  0  0  0  0  0  0  0  0
    0.7027    3.1779    0.2661 H   0  0  0  0  0  0  0  0  0  0  0  0
    1.8465    3.8556    2.4052 H   0  0  0  0  0  0  0  0  0  0  0  0
  1  2  1  0
  1  4  1  0
  1  5  1  0
  1  6  1  0
  2  3  1  0
  2  7  1  0
  2  8  1  0
  9 10  1  0
 10 11  1  0
 10 16  1  0
 10 17  1  0
 11 12  1  0
 12 13  1  0
 12 18  1  0
 12 19  1  0
 13 14  1  0
 13 20  1  0
 13 21  1  0
 14 15  2  0
 14 22  1  0
M  RAD  1   3   2
M  END
>  <reaction>  (7) 
rmg_rxn_1339

>  <mol_properties>  (7) 
{"1": {"label": "*4", "atom_type": "Cs"}, "2": {"label": "*3", "atom_type": "S2s"}, "8": {"label": "*2", "atom_type": "H0"}, "9": {"label": "*1", "atom_type": "Cs"}, "10": {"label": "*0", "atom_type": "O2s"}}

>  <type>  (7) 
unop_3

>  <geom_source>  (7) 
Heuristics

$$$$

     RDKit          3D

 22 20  0  0  0  0  0  0  0  0999 V2000
   -1.9508   -0.4799   -0.3846 C   0  0  0  0  0  0  0  0  0  0  0  0
   -1.9508   -0.4799    1.1325 C   0  0  0  0  0  0  0  0  0  0  0  0
   -1.9508    1.2168    1.7744 S   0  0  0  0  0  1  0  0  0  0  0  0
   -1.0599    0.0140   -0.7871 H   0  0  0  0  0  0  0  0  0  0  0  0
   -2.8382    0.0206   -0.7867 H   0  0  0  0  0  0  0  0  0  0  0  0
   -1.9545   -1.5097   -0.7569 H   0  0  0  0  0  0  0  0  0  0  0  0
   -1.0661   -1.0003    1.5115 H   0  0  0  0  0  0  0  0  0  0  0  0
   -2.8379   -0.9974    1.5098 H   0  0  0  0  0  0  0  0  0  0  0  0
   -0.5371    1.6556    1.1426 H   0  0  0  0  0  0  0  0  0  0  0  0
    0.6163    2.0135    0.6271 C   0  0  0  0  0  0  0  0  0  0  0  0
    1.4830    0.8910    0.5187 O   0  0  0  0  0  0  0  0  0  0  0  0
    1.1628    0.0919   -0.6217 C   0  0  0  0  0  0  0  0  0  0  0  0
    2.1281   -1.0779   -0.6639 C   0  0  0  0  0  0  0  0  0  0  0  0
    1.8674   -1.9801   -1.8373 C   0  0  0  0  0  0  0  0  0  0  0  0
    0.9824   -1.8016   -2.6679 O   0  0  0  0  0  0  0  0  0  0  0  0
    0.9050    2.5868    1.5121 H   0  0  0  0  0  0  0  0  0  0  0  0
    0.7115    2.6571   -0.2528 H   0  0  0  0  0  0  0  0  0  0  0  0
    1.2536    0.6978   -1.5311 H   0  0  0  0  0  0  0  0  0  0  0  0
    0.1294   -0.2658   -0.5404 H   0  0  0  0  0  0  0  0  0  0  0  0
    3.1610   -0.7186   -0.7264 H   0  0  0  0  0  0  0  0  0  0  0  0
    2.0492   -1.6714    0.2534 H   0  0  0  0  0  0  0  0  0  0  0  0
    2.5422   -2.8497   -1.9173 H   0  0  0  0  0  0  0  0  0  0  0  0
  1  2  1  0
  1  4  1  0
  1  5  1  0
  1  6  1  0
  2  3  1  0
  2  7  1  0
  2  8  1  0
  9 10  1  0
 10 11  1  0
 10 16  1  0
 10 17  1  0
 11 12  1  0
 12 13  1  0
 12 18  1  0
 12 19  1  0
 13 14  1  0
 13 20  1  0
 13 21  1  0
 14 15  2  0
 14 22  1  0
M  RAD  1   3   2
M  END
>  <reaction>  (8) 
rmg_rxn_1339

>  <mol_properties>  (8) 
{"1": {"label": "*4", "atom_type": "Cs"}, "2": {"label": "*3", "atom_type": "S2s"}, "8": {"label": "*2", "atom_type": "H0"}, "9": {"label": "*1", "atom_type": "Cs"}, "10": {"label": "*0", "atom_type": "O2s"}}

>  <type>  (8) 
unop_4

>  <geom_source>  (8) 
Heuristics

$$$$

     RDKit          3D

 22 20  0  0  0  0  0  0  0  0999 V2000
   -2.5153   -2.1629   -2.4513 C   0  0  0  0  0  0  0  0  0  0  0  0
   -2.5153   -2.1629   -0.9342 C   0  0  0  0  0  0  0  0  0  0  0  0
   -2.5153   -0.4662   -0.2923 S   0  0  0  0  0  1  0  0  0  0  0  0
   -1.6243   -1.6691   -2.8538 H   0  0  0  0  0  0  0  0  0  0  0  0
   -3.4027   -1.6625   -2.8534 H   0  0  0  0  0  0  0  0  0  0  0  0
   -2.5190   -3.1928   -2.8236 H   0  0  0  0  0  0  0  0  0  0  0  0
   -1.6306   -2.6834   -0.5552 H   0  0  0  0  0  0  0  0  0  0  0  0
   -3.4023   -2.6805   -0.5569 H   0  0  0  0  0  0  0  0  0  0  0  0
   -1.1015   -0.0275   -0.9241 H   0  0  0  0  0  0  0  0  0  0  0  0
    0.0519    0.3305   -1.4396 C   0  0  0  0  0  0  0  0  0  0  0  0
    0.6816    1.3075   -0.6200 O   0  0  0  0  0  0  0  0  0  0  0  0
    1.5088    0.7007    0.3746 C   0  0  0  0  0  0  0  0  0  0  0  0
    2.1398    1.8053    1.2013 C   0  0  0  0  0  0  0  0  0  0  0  0
    3.0331    1.2601    2.2801 C   0  0  0  0  0  0  0  0  0  0  0  0
    3.2350    0.0663    2.4775 O   0  0  0  0  0  0  0  0  0  0  0  0
   -0.5654    0.8478   -2.1789 H   0  0  0  0  0  0  0  0  0  0  0  0
    0.8013   -0.2678   -1.9667 H   0  0  0  0  0  0  0  0  0  0  0  0
    2.2828    0.0951   -0.1119 H   0  0  0  0  0  0  0  0  0  0  0  0
    0.8992    0.0465    1.0092 H   0  0  0  0  0  0  0  0  0  0  0  0
    2.7333    2.4686    0.5629 H   0  0  0  0  0  0  0  0  0  0  0  0
    1.3650    2.4205    1.6716 H   0  0  0  0  0  0  0  0  0  0  0  0
    3.5195    2.0218    2.9135 H   0  0  0  0  0  0  0  0  0  0  0  0
  1  2  1  0
  1  4  1  0
  1  5  1  0
  1  6  1  0
  2  3  1  0
  2  7  1  0
  2  8  1  0
  9 10  1  0
 10 11  1  0
 10 16  1  0
 10 17  1  0
 11 12  1  0
 12 13  1  0
 12 18  1  0
 12 19  1  0
 13 14  1  0
 13 20  1  0
 13 21  1  0
 14 15  2  0
 14 22  1  0
M  RAD  1   3   2
M  END
>  <reaction>  (9) 
rmg_rxn_1339

>  <mol_properties>  (9) 
{"1": {"label": "*4", "atom_type": "Cs"}, "2": {"label": "*3", "atom_type": "S2s"}, "8": {"label": "*2", "atom_type": "H0"}, "9": {"label": "*1", "atom_type": "Cs"}, "10": {"label": "*0", "atom_type": "O2s"}}

>  <type>  (9) 
unop_5

>  <geom_source>  (9) 
Heuristics

$$$$

     RDKit          3D

 22 20  0  0  0  0  0  0  0  0999 V2000
   -2.4405   -0.4948   -1.0076 C   0  0  0  0  0  0  0  0  0  0  0  0
   -2.4405   -0.4948    0.5095 C   0  0  0  0  0  0  0  0  0  0  0  0
   -2.4405    1.2019    1.1514 S   0  0  0  0  0  1  0  0  0  0  0  0
   -1.5495   -0.0010   -1.4101 H   0  0  0  0  0  0  0  0  0  0  0  0
   -3.3279    0.0057   -1.4097 H   0  0  0  0  0  0  0  0  0  0  0  0
   -2.4442   -1.5247   -1.3799 H   0  0  0  0  0  0  0  0  0  0  0  0
   -1.5558   -1.0152    0.8885 H   0  0  0  0  0  0  0  0  0  0  0  0
   -3.3276   -1.0124    0.8868 H   0  0  0  0  0  0  0  0  0  0  0  0
   -1.0268    1.6406    0.5196 H   0  0  0  0  0  0  0  0  0  0  0  0
    0.1266    1.9986    0.0041 C   0  0  0  0  0  0  0  0  0  0  0  0
    1.1709    1.1671    0.4953 O   0  0  0  0  0  0  0  0  0  0  0  0
    1.4048    0.0553   -0.3712 C   0  0  0  0  0  0  0  0  0  0  0  0
    2.5268   -0.7765    0.2214 C   0  0  0  0  0  0  0  0  0  0  0  0
    2.8457   -1.9759   -0.6263 C   0  0  0  0  0  0  0  0  0  0  0  0
    2.2735   -2.2582   -1.6741 O   0  0  0  0  0  0  0  0  0  0  0  0
   -0.0091    2.8288    0.7023 H   0  0  0  0  0  0  0  0  0  0  0  0
    0.3907    2.4059   -0.9766 H   0  0  0  0  0  0  0  0  0  0  0  0
    1.6818    0.4192   -1.3679 H   0  0  0  0  0  0  0  0  0  0  0  0
    0.4889   -0.5413   -0.4578 H   0  0  0  0  0  0  0  0  0  0  0  0
    3.4357   -0.1739    0.3243 H   0  0  0  0  0  0  0  0  0  0  0  0
    2.2560   -1.1237    1.2244 H   0  0  0  0  0  0  0  0  0  0  0  0
    3.6565   -2.6181   -0.2413 H   0  0  0  0  0  0  0  0  0  0  0  0
  1  2  1  0
  1  4  1  0
  1  5  1  0
  1  6  1  0
  2  3  1  0
  2  7  1  0
  2  8  1  0
  9 10  1  0
 10 11  1  0
 10 16  1  0
 10 17  1  0
 11 12  1  0
 12 13  1  0
 12 18  1  0
 12 19  1  0
 13 14  1  0
 13 20  1  0
 13 21  1  0
 14 15  2  0
 14 22  1  0
M  RAD  1   3   2
M  END
>  <reaction>  (10) 
rmg_rxn_1339

>  <mol_properties>  (10) 
{"1": {"label": "*4", "atom_type": "Cs"}, "2": {"label": "*3", "atom_type": "S2s"}, "8": {"label": "*2", "atom_type": "H0"}, "9": {"label": "*1", "atom_type": "Cs"}, "10": {"label": "*0", "atom_type": "O2s"}}

>  <type>  (10) 
unop_6

>  <geom_source>  (10) 
Heuristics

$$$$

     RDKit          3D

 22 20  0  0  0  0  0  0  0  0999 V2000
   -2.7383   -0.8420   -1.6506 C   0  0  0  0  0  0  0  0  0  0  0  0
   -2.7383   -0.8420   -0.1335 C   0  0  0  0  0  0  0  0  0  0  0  0
   -2.7383    0.8547    0.5084 S   0  0  0  0  0  1  0  0  0  0  0  0
   -1.8473   -0.3482   -2.0531 H   0  0  0  0  0  0  0  0  0  0  0  0
   -3.6257   -0.3415   -2.0527 H   0  0  0  0  0  0  0  0  0  0  0  0
   -2.7420   -1.8718   -2.0229 H   0  0  0  0  0  0  0  0  0  0  0  0
   -1.8536   -1.3624    0.2455 H   0  0  0  0  0  0  0  0  0  0  0  0
   -3.6253   -1.3596    0.2438 H   0  0  0  0  0  0  0  0  0  0  0  0
   -1.3246    1.2934   -0.1234 H   0  0  0  0  0  0  0  0  0  0  0  0
   -0.1711    1.6514   -0.6389 C   0  0  0  0  0  0  0  0  0  0  0  0
    0.8880    1.3702    0.2678 O   0  0  0  0  0  0  0  0  0  0  0  0
    1.5669    0.1621   -0.0804 C   0  0  0  0  0  0  0  0  0  0  0  0
    2.6756   -0.0640    0.9305 C   0  0  0  0  0  0  0  0  0  0  0  0
    3.4502   -1.3197    0.6441 C   0  0  0  0  0  0  0  0  0  0  0  0
    3.2219   -2.0786   -0.2923 O   0  0  0  0  0  0  0  0  0  0  0  0
   -0.6534    2.5815   -0.3266 H   0  0  0  0  0  0  0  0  0  0  0  0
    0.2178    1.7826   -1.6532 H   0  0  0  0  0  0  0  0  0  0  0  0
    1.9817    0.2529   -1.0914 H   0  0  0  0  0  0  0  0  0  0  0  0
    0.8578   -0.6742   -0.0661 H   0  0  0  0  0  0  0  0  0  0  0  0
    3.3727    0.7809    0.9280 H   0  0  0  0  0  0  0  0  0  0  0  0
    2.2613   -0.1359    1.9419 H   0  0  0  0  0  0  0  0  0  0  0  0
    4.2709   -1.5338    1.3502 H   0  0  0  0  0  0  0  0  0  0  0  0
  1  2  1  0
  1  4  1  0
  1  5  1  0
  1  6  1  0
  2  3  1  0
  2  7  1  0
  2  8  1  0
  9 10  1  0
 10 11  1  0
 10 16  1  0
 10 17  1  0
 11 12  1  0
 12 13  1  0
 12 18  1  0
 12 19  1  0
 13 14  1  0
 13 20  1  0
 13 21  1  0
 14 15  2  0
 14 22  1  0
M  RAD  1   3   2
M  END
>  <reaction>  (11) 
rmg_rxn_1339

>  <mol_properties>  (11) 
{"1": {"label": "*4", "atom_type": "Cs"}, "2": {"label": "*3", "atom_type": "S2s"}, "8": {"label": "*2", "atom_type": "H0"}, "9": {"label": "*1", "atom_type": "Cs"}, "10": {"label": "*0", "atom_type": "O2s"}}

>  <type>  (11) 
unop_7

>  <geom_source>  (11) 
Heuristics

$$$$

     RDKit          3D

 22 20  0  0  0  0  0  0  0  0999 V2000
   -0.6084   -3.1119   -0.7338 C   0  0  0  0  0  0  0  0  0  0  0  0
   -0.6084   -3.1119    0.7833 C   0  0  0  0  0  0  0  0  0  0  0  0
   -0.6084   -1.4152    1.4252 S   0  0  0  0  0  1  0  0  0  0  0  0
    0.2825   -2.6180   -1.1363 H   0  0  0  0  0  0  0  0  0  0  0  0
   -1.4958   -2.6114   -1.1359 H   0  0  0  0  0  0  0  0  0  0  0  0
   -0.6121   -4.1417   -1.1061 H   0  0  0  0  0  0  0  0  0  0  0  0
    0.2763   -3.6323    1.1623 H   0  0  0  0  0  0  0  0  0  0  0  0
   -1.4955   -3.6294    1.1606 H   0  0  0  0  0  0  0  0  0  0  0  0
    0.8053   -0.9764    0.7934 H   0  0  0  0  0  0  0  0  0  0  0  0
    1.9587   -0.6184    0.2779 C   0  0  0  0  0  0  0  0  0  0  0  0
    1.7889    0.4844   -0.6041 O   0  0  0  0  0  0  0  0  0  0  0  0
    0.5841    1.1987   -0.3215 C   0  0  0  0  0  0  0  0  0  0  0  0
    0.4793    2.3526   -1.3011 C   0  0  0  0  0  0  0  0  0  0  0  0
   -0.7646    3.1668   -1.0799 C   0  0  0  0  0  0  0  0  0  0  0  0
   -1.6019    2.9349   -0.2138 O   0  0  0  0  0  0  0  0  0  0  0  0
    2.8913   -1.1264    0.0179 H   0  0  0  0  0  0  0  0  0  0  0  0
    2.0256   -0.2733    1.3141 H   0  0  0  0  0  0  0  0  0  0  0  0
    0.6120    1.5714    0.7094 H   0  0  0  0  0  0  0  0  0  0  0  0
   -0.2748    0.5255   -0.4279 H   0  0  0  0  0  0  0  0  0  0  0  0
    1.3473    3.0141   -1.2063 H   0  0  0  0  0  0  0  0  0  0  0  0
    0.4703    1.9797   -2.3310 H   0  0  0  0  0  0  0  0  0  0  0  0
   -0.8921    4.0213   -1.7665 H   0  0  0  0  0  0  0  0  0  0  0  0
  1  2  1  0
  1  4  1  0
  1  5  1  0
  1  6  1  0
  2  3  1  0
  2  7  1  0
  2  8  1  0
  9 10  1  0
 10 11  1  0
 10 16  1  0
 10 17  1  0
 11 12  1  0
 12 13  1  0
 12 18  1  0
 12 19  1  0
 13 14  1  0
 13 20  1  0
 13 21  1  0
 14 15  2  0
 14 22  1  0
M  RAD  1   3   2
M  END
>  <reaction>  (12) 
rmg_rxn_1339

>  <mol_properties>  (12) 
{"1": {"label": "*4", "atom_type": "Cs"}, "2": {"label": "*3", "atom_type": "S2s"}, "8": {"label": "*2", "atom_type": "H0"}, "9": {"label": "*1", "atom_type": "Cs"}, "10": {"label": "*0", "atom_type": "O2s"}}

>  <type>  (12) 
unop_8

>  <geom_source>  (12) 
Heuristics

$$$$

     RDKit          3D

 22 20  0  0  0  0  0  0  0  0999 V2000
   -0.5119   -2.5508   -0.1247 C   0  0  0  0  0  0  0  0  0  0  0  0
   -0.5119   -2.5508    1.3924 C   0  0  0  0  0  0  0  0  0  0  0  0
   -0.5119   -0.8541    2.0343 S   0  0  0  0  0  1  0  0  0  0  0  0
    0.3790   -2.0570   -0.5272 H   0  0  0  0  0  0  0  0  0  0  0  0
   -1.3993   -2.0503   -0.5268 H   0  0  0  0  0  0  0  0  0  0  0  0
   -0.5157   -3.5806   -0.4970 H   0  0  0  0  0  0  0  0  0  0  0  0
    0.3728   -3.0712    1.7714 H   0  0  0  0  0  0  0  0  0  0  0  0
   -1.3990   -3.0684    1.7697 H   0  0  0  0  0  0  0  0  0  0  0  0
    0.9018   -0.4154    1.4025 H   0  0  0  0  0  0  0  0  0  0  0  0
    2.0552   -0.0574    0.8870 C   0  0  0  0  0  0  0  0  0  0  0  0
    1.8705    0.4952   -0.4105 O   0  0  0  0  0  0  0  0  0  0  0  0
    0.5354    0.9714   -0.5903 C   0  0  0  0  0  0  0  0  0  0  0  0
    0.4229    1.5418   -1.9918 C   0  0  0  0  0  0  0  0  0  0  0  0
   -0.9552    2.0706   -2.2748 C   0  0  0  0  0  0  0  0  0  0  0  0
   -1.8855    2.0488   -1.4754 O   0  0  0  0  0  0  0  0  0  0  0  0
    3.0887   -0.4042    0.9692 H   0  0  0  0  0  0  0  0  0  0  0  0
    1.8789    0.7017    1.6552 H   0  0  0  0  0  0  0  0  0  0  0  0
    0.3177    1.7437    0.1571 H   0  0  0  0  0  0  0  0  0  0  0  0
   -0.1707    0.1434   -0.4549 H   0  0  0  0  0  0  0  0  0  0  0  0
    1.1417    2.3565   -2.1314 H   0  0  0  0  0  0  0  0  0  0  0  0
    0.6587    0.7740   -2.7366 H   0  0  0  0  0  0  0  0  0  0  0  0
   -1.0938    2.4983   -3.2826 H   0  0  0  0  0  0  0  0  0  0  0  0
  1  2  1  0
  1  4  1  0
  1  5  1  0
  1  6  1  0
  2  3  1  0
  2  7  1  0
  2  8  1  0
  9 10  1  0
 10 11  1  0
 10 16  1  0
 10 17  1  0
 11 12  1  0
 12 13  1  0
 12 18  1  0
 12 19  1  0
 13 14  1  0
 13 20  1  0
 13 21  1  0
 14 15  2  0
 14 22  1  0
M  RAD  1   3   2
M  END
>  <reaction>  (13) 
rmg_rxn_1339

>  <mol_properties>  (13) 
{"1": {"label": "*4", "atom_type": "Cs"}, "2": {"label": "*3", "atom_type": "S2s"}, "8": {"label": "*2", "atom_type": "H0"}, "9": {"label": "*1", "atom_type": "Cs"}, "10": {"label": "*0", "atom_type": "O2s"}}

>  <type>  (13) 
unop_9

>  <geom_source>  (13) 
Heuristics

$$$$

     RDKit          3D

 22 20  0  0  0  0  0  0  0  0999 V2000
   -2.7834   -1.4362   -2.1548 C   0  0  0  0  0  0  0  0  0  0  0  0
   -2.7834   -1.4362   -0.6377 C   0  0  0  0  0  0  0  0  0  0  0  0
   -2.7834    0.2605    0.0042 S   0  0  0  0  0  1  0  0  0  0  0  0
   -1.8925   -0.9424   -2.5573 H   0  0  0  0  0  0  0  0  0  0  0  0
   -3.6708   -0.9358   -2.5569 H   0  0  0  0  0  0  0  0  0  0  0  0
   -2.7871   -2.4661   -2.5271 H   0  0  0  0  0  0  0  0  0  0  0  0
   -1.8987   -1.9566   -0.2587 H   0  0  0  0  0  0  0  0  0  0  0  0
   -3.6705   -1.9538   -0.2604 H   0  0  0  0  0  0  0  0  0  0  0  0
   -1.3697    0.6992   -0.6276 H   0  0  0  0  0  0  0  0  0  0  0  0
   -0.2163    1.0572   -1.1431 C   0  0  0  0  0  0  0  0  0  0  0  0
    0.6912    1.4379   -0.1162 O   0  0  0  0  0  0  0  0  0  0  0  0
    1.6152    0.3890    0.1799 C   0  0  0  0  0  0  0  0  0  0  0  0
    2.5422    0.8735    1.2789 C   0  0  0  0  0  0  0  0  0  0  0  0
    3.5557   -0.1690    1.6599 C   0  0  0  0  0  0  0  0  0  0  0  0
    3.6330   -1.2820    1.1498 O   0  0  0  0  0  0  0  0  0  0  0  0
   -0.8966    1.8927   -1.3281 H   0  0  0  0  0  0  0  0  0  0  0  0
    0.3239    0.8346   -2.0683 H   0  0  0  0  0  0  0  0  0  0  0  0
    2.1866    0.1384   -0.7218 H   0  0  0  0  0  0  0  0  0  0  0  0
    1.0659   -0.5023    0.5060 H   0  0  0  0  0  0  0  0  0  0  0  0
    3.0763    1.7746    0.9584 H   0  0  0  0  0  0  0  0  0  0  0  0
    1.9681    1.1410    2.1726 H   0  0  0  0  0  0  0  0  0  0  0  0
    4.2576    0.1309    2.4570 H   0  0  0  0  0  0  0  0  0  0  0  0
  1  2  1  0
  1  4  1  0
  1  5  1  0
  1  6  1  0
  2  3  1  0
  2  7  1  0
  2  8  1  0
  9 10  1  0
 10 11  1  0
 10 16  1  0
 10 17  1  0
 11 12  1  0
 12 13  1  0
 12 18  1  0
 12 19  1  0
 13 14  1  0
 13 20  1  0
 13 21  1  0
 14 15  2  0
 14 22  1  0
M  RAD  1   3   2
M  END
>  <reaction>  (14) 
rmg_rxn_1339

>  <mol_properties>  (14) 
{"1": {"label": "*4", "atom_type": "Cs"}, "2": {"label": "*3", "atom_type": "S2s"}, "8": {"label": "*2", "atom_type": "H0"}, "9": {"label": "*1", "atom_type": "Cs"}, "10": {"label": "*0", "atom_type": "O2s"}}

>  <type>  (14) 
unop_10

>  <geom_source>  (14) 
Heuristics

$$$$

     RDKit          3D

 22 20  0  0  0  0  0  0  0  0999 V2000
   -0.9362   -1.2664    0.2243 C   0  0  0  0  0  0  0  0  0  0  0  0
   -0.9362   -1.2664    1.7414 C   0  0  0  0  0  0  0  0  0  0  0  0
   -0.9362    0.4303    2.3833 S   0  0  0  0  0  1  0  0  0  0  0  0
   -0.0452   -0.7725   -0.1783 H   0  0  0  0  0  0  0  0  0  0  0  0
   -1.8236   -0.7659   -0.1778 H   0  0  0  0  0  0  0  0  0  0  0  0
   -0.9399   -2.2962   -0.1481 H   0  0  0  0  0  0  0  0  0  0  0  0
   -0.0515   -1.7868    2.1204 H   0  0  0  0  0  0  0  0  0  0  0  0
   -1.8232   -1.7839    2.1186 H   0  0  0  0  0  0  0  0  0  0  0  0
    0.4776    0.8691    1.7514 H   0  0  0  0  0  0  0  0  0  0  0  0
    1.6310    1.2270    1.2360 C   0  0  0  0  0  0  0  0  0  0  0  0
    1.8757    0.5214    0.0255 O   0  0  0  0  0  0  0  0  0  0  0  0
    0.7031    0.4580   -0.7885 C   0  0  0  0  0  0  0  0  0  0  0  0
    1.0476   -0.3065   -2.0530 C   0  0  0  0  0  0  0  0  0  0  0  0
   -0.1316   -0.4252   -2.9772 C   0  0  0  0  0  0  0  0  0  0  0  0
   -1.2444    0.0370   -2.7468 O   0  0  0  0  0  0  0  0  0  0  0  0
    2.5569    1.2448    1.8169 H   0  0  0  0  0  0  0  0  0  0  0  0
    1.3310    2.2579    1.0243 H   0  0  0  0  0  0  0  0  0  0  0  0
    0.3708    1.4741   -1.0326 H   0  0  0  0  0  0  0  0  0  0  0  0
   -0.0980   -0.0503   -0.2387 H   0  0  0  0  0  0  0  0  0  0  0  0
    1.8605    0.1925   -2.5914 H   0  0  0  0  0  0  0  0  0  0  0  0
    1.3969   -1.3150   -1.8063 H   0  0  0  0  0  0  0  0  0  0  0  0
    0.0629   -0.9735   -3.9150 H   0  0  0  0  0  0  0  0  0  0  0  0
  1  2  1  0
  1  4  1  0
  1  5  1  0
  1  6  1  0
  2  3  1  0
  2  7  1  0
  2  8  1  0
  9 10  1  0
 10 11  1  0
 10 16  1  0
 10 17  1  0
 11 12  1  0
 12 13  1  0
 12 18  1  0
 12 19  1  0
 13 14  1  0
 13 20  1  0
 13 21  1  0
 14 15  2  0
 14 22  1  0
M  RAD  1   3   2
M  END
>  <reaction>  (15) 
rmg_rxn_1339

>  <mol_properties>  (15) 
{"1": {"label": "*4", "atom_type": "Cs"}, "2": {"label": "*3", "atom_type": "S2s"}, "8": {"label": "*2", "atom_type": "H0"}, "9": {"label": "*1", "atom_type": "Cs"}, "10": {"label": "*0", "atom_type": "O2s"}}

>  <type>  (15) 
unop_11

>  <geom_source>  (15) 
Heuristics

$$$$

     RDKit          3D

 22 20  0  0  0  0  0  0  0  0999 V2000
   -0.6348   -1.8853    0.1799 C   0  0  0  0  0  0  0  0  0  0  0  0
   -0.6348   -1.8853    1.6970 C   0  0  0  0  0  0  0  0  0  0  0  0
   -0.6348   -0.1885    2.3389 S   0  0  0  0  0  1  0  0  0  0  0  0
    0.2562   -1.3914   -0.2226 H   0  0  0  0  0  0  0  0  0  0  0  0
   -1.5222   -1.3848   -0.2222 H   0  0  0  0  0  0  0  0  0  0  0  0
   -0.6385   -2.9151   -0.1925 H   0  0  0  0  0  0  0  0  0  0  0  0
    0.2499   -2.4057    2.0760 H   0  0  0  0  0  0  0  0  0  0  0  0
   -1.5218   -2.4028    2.0743 H   0  0  0  0  0  0  0  0  0  0  0  0
    0.7789    0.2502    1.7070 H   0  0  0  0  0  0  0  0  0  0  0  0
    1.9324    0.6082    1.1916 C   0  0  0  0  0  0  0  0  0  0  0  0
    1.8993    0.4988   -0.2262 O   0  0  0  0  0  0  0  0  0  0  0  0
    0.5806    0.7059   -0.7356 C   0  0  0  0  0  0  0  0  0  0  0  0
    0.6323    0.5730   -2.2461 C   0  0  0  0  0  0  0  0  0  0  0  0
   -0.7176    0.7763   -2.8750 C   0  0  0  0  0  0  0  0  0  0  0  0
   -1.7451    1.0209   -2.2511 O   0  0  0  0  0  0  0  0  0  0  0  0
    2.9599    0.4416    1.5255 H   0  0  0  0  0  0  0  0  0  0  0  0
    1.6203    1.6088    1.5058 H   0  0  0  0  0  0  0  0  0  0  0  0
    0.2297    1.7048   -0.4497 H   0  0  0  0  0  0  0  0  0  0  0  0
   -0.0993   -0.0403   -0.3075 H   0  0  0  0  0  0  0  0  0  0  0  0
    1.3259    1.3070   -2.6705 H   0  0  0  0  0  0  0  0  0  0  0  0
    1.0005   -0.4188   -2.5298 H   0  0  0  0  0  0  0  0  0  0  0  0
   -0.7383    0.6905   -3.9751 H   0  0  0  0  0  0  0  0  0  0  0  0
  1  2  1  0
  1  4  1  0
  1  5  1  0
  1  6  1  0
  2  3  1  0
  2  7  1  0
  2  8  1  0
  9 10  1  0
 10 11  1  0
 10 16  1  0
 10 17  1  0
 11 12  1  0
 12 13  1  0
 12 18  1  0
 12 19  1  0
 13 14  1  0
 13 20  1  0
 13 21  1  0
 14 15  2  0
 14 22  1  0
M  RAD  1   3   2
M  END
>  <reaction>  (16) 
rmg_rxn_1339

>  <mol_properties>  (16) 
{"1": {"label": "*4", "atom_type": "Cs"}, "2": {"label": "*3", "atom_type": "S2s"}, "8": {"label": "*2", "atom_type": "H0"}, "9": {"label": "*1", "atom_type": "Cs"}, "10": {"label": "*0", "atom_type": "O2s"}}

>  <type>  (16) 
unop_12

>  <geom_source>  (16) 
gaussian_log

$$$$
