
     RDKit          3D

  9  8  0  0  0  0  0  0  0  0999 V2000
   -1.0314    0.2323   -0.1227 C   0  0  0  0  0  0  0  0  0  0  0  0
    0.3094   -0.4511    0.0063 C   0  0  0  0  0  0  0  0  0  0  0  0
    0.3197   -1.7698    0.6841 N   0  0  0  0  0  0  0  0  0  0  0  0
   -0.7498   -2.1455    1.0557 O   0  0  0  0  0  0  0  0  0  0  0  0
   -1.4744    0.4198    0.8552 H   0  0  0  0  0  0  0  0  0  0  0  0
   -0.9073    1.1865   -0.6350 H   0  0  0  0  0  0  0  0  0  0  0  0
   -1.7319   -0.3778   -0.6927 H   0  0  0  0  0  0  0  0  0  0  0  0
    1.0375    0.1401    0.5713 H   0  0  0  0  0  0  0  0  0  0  0  0
    0.7826   -0.6494   -0.9609 H   0  0  0  0  0  0  0  0  0  0  0  0
  1  2  1  0
  1  5  1  0
  1  6  1  0
  1  7  1  0
  2  3  1  0
  2  8  1  0
  2  9  1  0
  3  4  2  0
M  END
>  <reaction>  (1) 
rmg_rxn_8

>  <mol_properties>  (1) 
{"1": {"label": "donator", "atom_type": "Cs"}, "7": {"label": "d_hydrogen", "atom_type": "H0"}}

>  <type>  (1) 
r1h

$$$$

     RDKit          3D

  8  7  0  0  0  0  0  0  0  0999 V2000
   -0.7853    0.0326    0.0393 C   0  0  0  0  0  0  0  0  0  0  0  0
    0.7379   -0.1211   -0.0579 C   0  0  0  0  0  0  0  0  0  0  0  0
    1.1315   -0.8282   -1.2106 N   0  0  0  0  0  1  0  0  0  0  0  0
   -1.2679   -0.9438    0.0768 H   0  0  0  0  0  0  0  0  0  0  0  0
   -1.0464    0.5840    0.9431 H   0  0  0  0  0  0  0  0  0  0  0  0
   -1.1718    0.5760   -0.8227 H   0  0  0  0  0  0  0  0  0  0  0  0
    1.2178    0.8698   -0.0686 H   0  0  0  0  0  0  0  0  0  0  0  0
    1.1219   -0.6479    0.8296 H   0  0  0  0  0  0  0  0  0  0  0  0
  1  2  1  0
  1  4  1  0
  1  5  1  0
  1  6  1  0
  2  3  1  0
  2  7  1  0
  2  8  1  0
M  RAD  1   3   3
M  END
>  <reaction>  (2) 
rmg_rxn_8

>  <mol_properties>  (2) 
{"2": {"label": "acceptor", "atom_type": "N3s"}}

>  <type>  (2) 
r2

$$$$

     RDKit          3D

  9  8  0  0  0  0  0  0  0  0999 V2000
   -1.0434   -0.0834    0.0221 C   0  0  0  0  0  0  0  0  0  0  0  0
    0.4680   -0.2131    0.0785 C   0  0  0  0  0  0  0  0  0  0  0  0
    0.9450   -1.3136   -0.7058 N   0  0  0  0  0  2  0  0  0  0  0  0
   -1.5170   -0.9919    0.3960 H   0  0  0  0  0  0  0  0  0  0  0  0
   -1.3864    0.7592    0.6249 H   0  0  0  0  0  0  0  0  0  0  0  0
   -1.3736    0.0696   -1.0061 H   0  0  0  0  0  0  0  0  0  0  0  0
    0.8045   -0.3309    1.1214 H   0  0  0  0  0  0  0  0  0  0  0  0
    0.9463    0.7186   -0.2648 H   0  0  0  0  0  0  0  0  0  0  0  0
    1.9638   -1.3321   -0.6157 H   0  0  0  0  0  0  0  0  0  0  0  0
  1  2  1  0
  1  4  1  0
  1  5  1  0
  1  6  1  0
  2  3  1  0
  2  7  1  0
  2  8  1  0
  3  9  1  0
M  RAD  1   3   2
M  END
>  <reaction>  (3) 
rmg_rxn_8

>  <mol_properties>  (3) 
{"2": {"label": "acceptor", "atom_type": "N3s"}, "8": {"label": "a_hydrogen", "atom_type": "H0"}}

>  <type>  (3) 
r2h

$$$$

     RDKit          3D

 17 15  0  0  0  0  0  0  0  0999 V2000
    1.9465   -1.5892    2.1768 C   0  0  0  0  0  0  0  0  0  0  0  0
    0.7977   -0.9939    1.3685 C   0  0  0  0  0  0  0  0  0  0  0  0
    0.5788   -1.7192    0.1660 N   0  0  0  0  0  2  0  0  0  0  0  0
    2.8725   -1.5689    1.6021 H   0  0  0  0  0  0  0  0  0  0  0  0
    2.0938   -1.0155    3.0924 H   0  0  0  0  0  0  0  0  0  0  0  0
    1.7316   -2.6232    2.4462 H   0  0  0  0  0  0  0  0  0  0  0  0
   -0.1303   -0.9825    1.9600 H   0  0  0  0  0  0  0  0  0  0  0  0
    0.9971    0.0608    1.1239 H   0  0  0  0  0  0  0  0  0  0  0  0
   -0.5239    0.4130   -2.0302 C   0  0  0  0  0  0  0  0  0  0  0  0
   -1.3000   -0.3745   -1.0135 C   0  0  0  0  0  0  0  0  0  0  0  0
   -1.9017    0.2929    0.0828 N   0  0  0  0  0  0  0  0  0  0  0  0
   -1.4191    1.3723    0.3592 O   0  0  0  0  0  1  0  0  0  0  0  0
    0.2209    1.0445   -1.5474 H   0  0  0  0  0  0  0  0  0  0  0  0
   -0.0252   -0.2663   -2.7208 H   0  0  0  0  0  0  0  0  0  0  0  0
   -1.1885    1.0627   -2.6046 H   0  0  0  0  0  0  0  0  0  0  0  0
   -0.4118   -1.1385   -0.4161 H   0  0  0  0  0  0  0  0  0  0  0  0
   -1.9729   -1.1433   -1.3894 H   0  0  0  0  0  0  0  0  0  0  0  0
  1  2  1  0
  1  4  1  0
  1  5  1  0
  1  6  1  0
  2  3  1  0
  2  7  1  0
  2  8  1  0
  3 16  1  0
  9 10  1  0
  9 13  1  0
  9 14  1  0
  9 15  1  0
 10 11  2  3
 10 17  1  0
 11 12  1  0
M  RAD  2   3   2  12   2
M  END
>  <reaction>  (4) 
rmg_rxn_8

>  <mol_properties>  (4) 
{"1": {"label": "*0", "atom_type": "Cs"}, "2": {"label": "*1", "atom_type": "N3s"}, "9": {"label": "*3", "atom_type": "Cd"}, "10": {"label": "*4", "atom_type": "N3d"}, "15": {"label": "*2", "atom_type": "H0"}}

>  <type>  (4) 
ts

$$$$

     RDKit          3D

 17 15  0  0  0  0  0  0  0  0999 V2000
    2.1079   -1.0370    2.3880 C   0  0  0  0  0  0  0  0  0  0  0  0
    1.5902   -0.4374    1.0931 C   0  0  0  0  0  0  0  0  0  0  0  0
    0.8857   -1.3984    0.2970 N   0  0  0  0  0  2  0  0  0  0  0  0
    2.7888   -1.8629    2.1789 H   0  0  0  0  0  0  0  0  0  0  0  0
    2.6407   -0.2902    2.9792 H   0  0  0  0  0  0  0  0  0  0  0  0
    1.2812   -1.4250    2.9844 H   0  0  0  0  0  0  0  0  0  0  0  0
    0.9311    0.4205    1.3038 H   0  0  0  0  0  0  0  0  0  0  0  0
    2.4216   -0.0125    0.5074 H   0  0  0  0  0  0  0  0  0  0  0  0
   -1.1365   -0.2208   -2.2050 C   0  0  0  0  0  0  0  0  0  0  0  0
   -1.1365   -0.2208   -0.6945 C   0  0  0  0  0  0  0  0  0  0  0  0
   -1.1365    1.1051   -0.0309 N   0  0  0  0  0  0  0  0  0  0  0  0
   -1.1365    2.0347   -0.7786 O   0  0  0  0  0  1  0  0  0  0  0  0
   -0.2564    0.2865   -2.5995 H   0  0  0  0  0  0  0  0  0  0  0  0
   -1.1365   -1.2480   -2.5703 H   0  0  0  0  0  0  0  0  0  0  0  0
   -2.0167    0.2865   -2.5995 H   0  0  0  0  0  0  0  0  0  0  0  0
   -0.0911   -0.8296   -0.1819 H   0  0  0  0  0  0  0  0  0  0  0  0
   -2.0077   -0.7282   -0.2674 H   0  0  0  0  0  0  0  0  0  0  0  0
  1  2  1  0
  1  4  1  0
  1  5  1  0
  1  6  1  0
  2  3  1  0
  2  7  1  0
  2  8  1  0
  3 16  1  0
  9 10  1  0
  9 13  1  0
  9 14  1  0
  9 15  1  0
 10 11  2  3
 10 17  1  0
 11 12  1  0
M  RAD  2   3   2  12   2
M  END
>  <reaction>  (5) 
rmg_rxn_8

>  <mol_properties>  (5) 
{"1": {"label": "*0", "atom_type": "Cs"}, "2": {"label": "*1", "atom_type": "N3s"}, "9": {"label": "*3", "atom_type": "Cd"}, "10": {"label": "*4", "atom_type": "N3d"}, "15": {"label": "*2", "atom_type": "H0"}}

>  <type>  (5) 
unop_1

>  <geom_source>  (5) 
Heuristics

$$$$

     RDKit          3D

 17 15  0  0  0  0  0  0  0  0999 V2000
    3.0855   -1.2902    0.6234 C   0  0  0  0  0  0  0  0  0  0  0  0
    1.7355   -1.0569   -0.0303 C   0  0  0  0  0  0  0  0  0  0  0  0
    0.6529   -1.2182    0.8947 N   0  0  0  0  0  2  0  0  0  0  0  0
    3.1408   -2.3001    1.0315 H   0  0  0  0  0  0  0  0  0  0  0  0
    3.8959   -1.1628   -0.0965 H   0  0  0  0  0  0  0  0  0  0  0  0
    3.2374   -0.5870    1.4432 H   0  0  0  0  0  0  0  0  0  0  0  0
    1.6932   -0.0493   -0.4748 H   0  0  0  0  0  0  0  0  0  0  0  0
    1.5977   -1.7429   -0.8819 H   0  0  0  0  0  0  0  0  0  0  0  0
   -1.3693   -0.0406   -1.6073 C   0  0  0  0  0  0  0  0  0  0  0  0
   -1.3693   -0.0406   -0.0968 C   0  0  0  0  0  0  0  0  0  0  0  0
   -1.3693    1.2854    0.5668 N   0  0  0  0  0  0  0  0  0  0  0  0
   -1.3693    2.2149   -0.1809 O   0  0  0  0  0  1  0  0  0  0  0  0
   -0.4892    0.4668   -2.0018 H   0  0  0  0  0  0  0  0  0  0  0  0
   -1.3693   -1.0677   -1.9726 H   0  0  0  0  0  0  0  0  0  0  0  0
   -2.2495    0.4668   -2.0018 H   0  0  0  0  0  0  0  0  0  0  0  0
   -0.3239   -0.6494    0.4158 H   0  0  0  0  0  0  0  0  0  0  0  0
   -2.2405   -0.5479    0.3304 H   0  0  0  0  0  0  0  0  0  0  0  0
  1  2  1  0
  1  4  1  0
  1  5  1  0
  1  6  1  0
  2  3  1  0
  2  7  1  0
  2  8  1  0
  3 16  1  0
  9 10  1  0
  9 13  1  0
  9 14  1  0
  9 15  1  0
 10 11  2  3
 10 17  1  0
 11 12  1  0
M  RAD  2   3   2  12   2
M  END
>  <reaction>  (6) 
rmg_rxn_8

>  <mol_properties>  (6) 
{"1": {"label": "*0", "atom_type": "Cs"}, "2": {"label": "*1", "atom_type": "N3s"}, "9": {"label": "*3", "atom_type": "Cd"}, "10": {"label": "*4", "atom_type": "N3d"}, "15": {"label": "*2", "atom_type": "H0"}}

>  <type>  (6) 
unop_2

>  <geom_source>  (6) 
Heuristics

$$$$

     RDKit          3D

 17 15  0  0  0  0  0  0  0  0999 V2000
    1.9297   -1.5770    2.4450 C   0  0  0  0  0  0  0  0  0  0  0  0
    1.2719   -0.6218    1.4656 C   0  0  0  0  0  0  0  0  0  0  0  0
    0.9883   -1.2483    0.2084 N   0  0  0  0  0  2  0  0  0  0  0  0
    2.8694   -1.9517    2.0375 H   0  0  0  0  0  0  0  0  0  0  0  0
    2.1373   -1.0816    3.3950 H   0  0  0  0  0  0  0  0  0  0  0  0
    1.2806   -2.4325    2.6356 H   0  0  0  0  0  0  0  0  0  0  0  0
    0.3409   -0.2149    1.8928 H   0  0  0  0  0  0  0  0  0  0  0  0
    1.9117    0.2605    1.3014 H   0  0  0  0  0  0  0  0  0  0  0  0
   -1.0339   -0.0708   -2.2936 C   0  0  0  0  0  0  0  0  0  0  0  0
   -1.0339   -0.0708   -0.7831 C   0  0  0  0  0  0  0  0  0  0  0  0
   -1.0339    1.2552   -0.1195 N   0  0  0  0  0  0  0  0  0  0  0  0
   -1.0339    2.1847   -0.8672 O   0  0  0  0  0  1  0  0  0  0  0  0
   -0.1538    0.4366   -2.6881 H   0  0  0  0  0  0  0  0  0  0  0  0
   -1.0339   -1.0979   -2.6589 H   0  0  0  0  0  0  0  0  0  0  0  0
   -1.9141    0.4366   -2.6881 H   0  0  0  0  0  0  0  0  0  0  0  0
    0.0115   -0.6795   -0.2705 H   0  0  0  0  0  0  0  0  0  0  0  0
   -1.9051   -0.5781   -0.3560 H   0  0  0  0  0  0  0  0  0  0  0  0
  1  2  1  0
  1  4  1  0
  1  5  1  0
  1  6  1  0
  2  3  1  0
  2  7  1  0
  2  8  1  0
  3 16  1  0
  9 10  1  0
  9 13  1  0
  9 14  1  0
  9 15  1  0
 10 11  2  3
 10 17  1  0
 11 12  1  0
M  RAD  2   3   2  12   2
M  END
>  <reaction>  (7) 
rmg_rxn_8

>  <mol_properties>  (7) 
{"1": {"label": "*0", "atom_type": "Cs"}, "2": {"label": "*1", "atom_type": "N3s"}, "9": {"label": "*3", "atom_type": "Cd"}, "10": {"label": "*4", "atom_type": "N3d"}, "15": {"label": "*2", "atom_type": "H0"}}

>  <type>  (7) 
unop_3

>  <geom_source>  (7) 
Heuristics

$$$$

     RDKit          3D

 17 15  0  0  0  0  0  0  0  0999 V2000
    1.6240   -2.9896    1.2697 C   0  0  0  0  0  0  0  0  0  0  0  0
    1.0671   -2.0222    0.2409 C   0  0  0  0  0  0  0  0  0  0  0  0
    1.0939   -0.6665    0.7047 N   0  0  0  0  0  2  0  0  0  0  0  0
    1.0440   -2.9392    2.1919 H   0  0  0  0  0  0  0  0  0  0  0  0
    1.5950   -4.0153    0.8980 H   0  0  0  0  0  0  0  0  0  0  0  0
    2.6579   -2.7372    1.5081 H   0  0  0  0  0  0  0  0  0  0  0  0
    1.6303   -2.0997   -0.7033 H   0  0  0  0  0  0  0  0  0  0  0  0
    0.0346   -2.2994   -0.0273 H   0  0  0  0  0  0  0  0  0  0  0  0
   -0.9283    0.5110   -1.7973 C   0  0  0  0  0  0  0  0  0  0  0  0
   -0.9283    0.5110   -0.2868 C   0  0  0  0  0  0  0  0  0  0  0  0
   -0.9283    1.8370    0.3768 N   0  0  0  0  0  0  0  0  0  0  0  0
   -0.9283    2.7665   -0.3709 O   0  0  0  0  0  1  0  0  0  0  0  0
   -0.0482    1.0184   -2.1917 H   0  0  0  0  0  0  0  0  0  0  0  0
   -0.9283   -0.5161   -2.1625 H   0  0  0  0  0  0  0  0  0  0  0  0
   -1.8084    1.0184   -2.1917 H   0  0  0  0  0  0  0  0  0  0  0  0
    0.1171   -0.0978    0.2258 H   0  0  0  0  0  0  0  0  0  0  0  0
   -1.7995    0.0037    0.1404 H   0  0  0  0  0  0  0  0  0  0  0  0
  1  2  1  0
  1  4  1  0
  1  5  1  0
  1  6  1  0
  2  3  1  0
  2  7  1  0
  2  8  1  0
  3 16  1  0
  9 10  1  0
  9 13  1  0
  9 14  1  0
  9 15  1  0
 10 11  2  3
 10 17  1  0
 11 12  1  0
M  RAD  2   3   2  12   2
M  END
>  <reaction>  (8) 
rmg_rxn_8

>  <mol_properties>  (8) 
{"1": {"label": "*0", "atom_type": "Cs"}, "2": {"label": "*1", "atom_type": "N3s"}, "9": {"label": "*3", "atom_type": "Cd"}, "10": {"label": "*4", "atom_type": "N3d"}, "15": {"label": "*2", "atom_type": "H0"}}

>  <type>  (8) 
unop_4

>  <geom_source>  (8) 
Heuristics

$$$$

     RDKit          3D

 17 15  0  0  0  0  0  0  0  0999 V2000
    2.0712   -1.7313    2.3329 C   0  0  0  0  0  0  0  0  0  0  0  0
    0.9109   -1.0556    1.6249 C   0  0  0  0  0  0  0  0  0  0  0  0
    1.0333   -1.1269    0.1988 N   0  0  0  0  0  2  0  0  0  0  0  0
    3.0139   -1.2593    2.0533 H   0  0  0  0  0  0  0  0  0  0  0  0
    1.9595   -1.6663    3.4165 H   0  0  0  0  0  0  0  0  0  0  0  0
    2.1260   -2.7841    2.0533 H   0  0  0  0  0  0  0  0  0  0  0  0
   -0.0447   -1.5085    1.9356 H   0  0  0  0  0  0  0  0  0  0  0  0
    0.8332   -0.0010    1.9356 H   0  0  0  0  0  0  0  0  0  0  0  0
   -0.9889    0.0507   -2.3032 C   0  0  0  0  0  0  0  0  0  0  0  0
   -0.9889    0.0507   -0.7927 C   0  0  0  0  0  0  0  0  0  0  0  0
   -0.9889    1.3766   -0.1291 N   0  0  0  0  0  0  0  0  0  0  0  0
   -0.9889    2.3062   -0.8768 O   0  0  0  0  0  1  0  0  0  0  0  0
   -0.1087    0.5580   -2.6977 H   0  0  0  0  0  0  0  0  0  0  0  0
   -0.9889   -0.9765   -2.6685 H   0  0  0  0  0  0  0  0  0  0  0  0
   -1.8690    0.5580   -2.6977 H   0  0  0  0  0  0  0  0  0  0  0  0
    0.0566   -0.5581   -0.2801 H   0  0  0  0  0  0  0  0  0  0  0  0
   -1.8601   -0.4566   -0.3655 H   0  0  0  0  0  0  0  0  0  0  0  0
  1  2  1  0
  1  4  1  0
  1  5  1  0
  1  6  1  0
  2  3  1  0
  2  7  1  0
  2  8  1  0
  3 16  1  0
  9 10  1  0
  9 13  1  0
  9 14  1  0
  9 15  1  0
 10 11  2  3
 10 17  1  0
 11 12  1  0
M  RAD  2   3   2  12   2
M  END
>  <reaction>  (9) 
rmg_rxn_8

>  <mol_properties>  (9) 
{"1": {"label": "*0", "atom_type": "Cs"}, "2": {"label": "*1", "atom_type": "N3s"}, "9": {"label": "*3", "atom_type": "Cd"}, "10": {"label": "*4", "atom_type": "N3d"}, "15": {"label": "*2", "atom_type": "H0"}}

>  <type>  (9) 
unop_5

>  <geom_source>  (9) 
Heuristics

$$$$

     RDKit          3D

 17 15  0  0  0  0  0  0  0  0999 V2000
    1.3688   -2.6675    1.9511 C   0  0  0  0  0  0  0  0  0  0  0  0
    0.8433   -2.0976    0.6460 C   0  0  0  0  0  0  0  0  0  0  0  0
    1.1930   -0.7178    0.4798 N   0  0  0  0  0  2  0  0  0  0  0  0
    0.9622   -2.1142    2.7985 H   0  0  0  0  0  0  0  0  0  0  0  0
    1.0924   -3.7178    2.0587 H   0  0  0  0  0  0  0  0  0  0  0  0
    2.4560   -2.5902    1.9891 H   0  0  0  0  0  0  0  0  0  0  0  0
    1.2250   -2.6798   -0.2085 H   0  0  0  0  0  0  0  0  0  0  0  0
   -0.2519   -2.2091    0.5917 H   0  0  0  0  0  0  0  0  0  0  0  0
   -0.8292    0.4597   -2.0222 C   0  0  0  0  0  0  0  0  0  0  0  0
   -0.8292    0.4597   -0.5117 C   0  0  0  0  0  0  0  0  0  0  0  0
   -0.8292    1.7857    0.1519 N   0  0  0  0  0  0  0  0  0  0  0  0
   -0.8292    2.7153   -0.5958 O   0  0  0  0  0  1  0  0  0  0  0  0
    0.0509    0.9671   -2.4166 H   0  0  0  0  0  0  0  0  0  0  0  0
   -0.8292   -0.5674   -2.3874 H   0  0  0  0  0  0  0  0  0  0  0  0
   -1.7093    0.9671   -2.4166 H   0  0  0  0  0  0  0  0  0  0  0  0
    0.2162   -0.1490    0.0009 H   0  0  0  0  0  0  0  0  0  0  0  0
   -1.7004   -0.0476   -0.0845 H   0  0  0  0  0  0  0  0  0  0  0  0
  1  2  1  0
  1  4  1  0
  1  5  1  0
  1  6  1  0
  2  3  1  0
  2  7  1  0
  2  8  1  0
  3 16  1  0
  9 10  1  0
  9 13  1  0
  9 14  1  0
  9 15  1  0
 10 11  2  3
 10 17  1  0
 11 12  1  0
M  RAD  2   3   2  12   2
M  END
>  <reaction>  (10) 
rmg_rxn_8

>  <mol_properties>  (10) 
{"1": {"label": "*0", "atom_type": "Cs"}, "2": {"label": "*1", "atom_type": "N3s"}, "9": {"label": "*3", "atom_type": "Cd"}, "10": {"label": "*4", "atom_type": "N3d"}, "15": {"label": "*2", "atom_type": "H0"}}

>  <type>  (10) 
unop_6

>  <geom_source>  (10) 
Heuristics

$$$$

     RDKit          3D

 17 15  0  0  0  0  0  0  0  0999 V2000
    1.4854   -2.1058    2.3880 C   0  0  0  0  0  0  0  0  0  0  0  0
    0.7085   -1.9515    1.0931 C   0  0  0  0  0  0  0  0  0  0  0  0
    1.1966   -0.8645    0.2970 N   0  0  0  0  0  2  0  0  0  0  0  0
    1.4149   -1.1954    2.9844 H   0  0  0  0  0  0  0  0  0  0  0  0
    1.0989   -2.9378    2.9792 H   0  0  0  0  0  0  0  0  0  0  0  0
    2.5398   -2.2904    2.1789 H   0  0  0  0  0  0  0  0  0  0  0  0
    0.7492   -2.8843    0.5074 H   0  0  0  0  0  0  0  0  0  0  0  0
   -0.3629   -1.8017    1.3038 H   0  0  0  0  0  0  0  0  0  0  0  0
   -0.8256    0.3131   -2.2050 C   0  0  0  0  0  0  0  0  0  0  0  0
   -0.8256    0.3131   -0.6945 C   0  0  0  0  0  0  0  0  0  0  0  0
   -0.8256    1.6390   -0.0309 N   0  0  0  0  0  0  0  0  0  0  0  0
   -0.8256    2.5686   -0.7786 O   0  0  0  0  0  1  0  0  0  0  0  0
    0.0545    0.8205   -2.5995 H   0  0  0  0  0  0  0  0  0  0  0  0
   -0.8256   -0.7141   -2.5703 H   0  0  0  0  0  0  0  0  0  0  0  0
   -1.7057    0.8205   -2.5995 H   0  0  0  0  0  0  0  0  0  0  0  0
    0.2198   -0.2957   -0.1819 H   0  0  0  0  0  0  0  0  0  0  0  0
   -1.6968   -0.1942   -0.2674 H   0  0  0  0  0  0  0  0  0  0  0  0
  1  2  1  0
  1  4  1  0
  1  5  1  0
  1  6  1  0
  2  3  1  0
  2  7  1  0
  2  8  1  0
  3 16  1  0
  9 10  1  0
  9 13  1  0
  9 14  1  0
  9 15  1  0
 10 11  2  3
 10 17  1  0
 11 12  1  0
M  RAD  2   3   2  12   2
M  END
>  <reaction>  (11) 
rmg_rxn_8

>  <mol_properties>  (11) 
{"1": {"label": "*0", "atom_type": "Cs"}, "2": {"label": "*1", "atom_type": "N3s"}, "9": {"label": "*3", "atom_type": "Cd"}, "10": {"label": "*4", "atom_type": "N3d"}, "15": {"label": "*2", "atom_type": "H0"}}

>  <type>  (11) 
unop_7

>  <geom_source>  (11) 
Heuristics

$$$$

     RDKit          3D

 17 15  0  0  0  0  0  0  0  0999 V2000
    2.5388   -0.6583    1.9511 C   0  0  0  0  0  0  0  0  0  0  0  0
    1.7838   -0.4825    0.6460 C   0  0  0  0  0  0  0  0  0  0  0  0
    0.7564   -1.4677    0.4798 N   0  0  0  0  0  2  0  0  0  0  0  0
    3.0082   -1.6421    1.9891 H   0  0  0  0  0  0  0  0  0  0  0  0
    3.3158    0.1004    2.0587 H   0  0  0  0  0  0  0  0  0  0  0  0
    1.8569   -0.5778    2.7985 H   0  0  0  0  0  0  0  0  0  0  0  0
    1.3403    0.5250    0.5917 H   0  0  0  0  0  0  0  0  0  0  0  0
    2.4786   -0.5272   -0.2085 H   0  0  0  0  0  0  0  0  0  0  0  0
   -1.2658   -0.2901   -2.0222 C   0  0  0  0  0  0  0  0  0  0  0  0
   -1.2658   -0.2901   -0.5117 C   0  0  0  0  0  0  0  0  0  0  0  0
   -1.2658    1.0359    0.1519 N   0  0  0  0  0  0  0  0  0  0  0  0
   -1.2658    1.9654   -0.5958 O   0  0  0  0  0  1  0  0  0  0  0  0
   -0.3857    0.2173   -2.4166 H   0  0  0  0  0  0  0  0  0  0  0  0
   -1.2658   -1.3172   -2.3874 H   0  0  0  0  0  0  0  0  0  0  0  0
   -2.1460    0.2173   -2.4166 H   0  0  0  0  0  0  0  0  0  0  0  0
   -0.2204   -0.8989    0.0009 H   0  0  0  0  0  0  0  0  0  0  0  0
   -2.1370   -0.7974   -0.0845 H   0  0  0  0  0  0  0  0  0  0  0  0
  1  2  1  0
  1  4  1  0
  1  5  1  0
  1  6  1  0
  2  3  1  0
  2  7  1  0
  2  8  1  0
  3 16  1  0
  9 10  1  0
  9 13  1  0
  9 14  1  0
  9 15  1  0
 10 11  2  3
 10 17  1  0
 11 12  1  0
M  RAD  2   3   2  12   2
M  END
>  <reaction>  (12) 
rmg_rxn_8

>  <mol_properties>  (12) 
{"1": {"label": "*0", "atom_type": "Cs"}, "2": {"label": "*1", "atom_type": "N3s"}, "9": {"label": "*3", "atom_type": "Cd"}, "10": {"label": "*4", "atom_type": "N3d"}, "15": {"label": "*2", "atom_type": "H0"}}

>  <type>  (12) 
unop_8

>  <geom_source>  (12) 
Heuristics

$$$$

     RDKit          3D

 17 15  0  0  0  0  0  0  0  0999 V2000
    2.1881   -2.8312    0.6234 C   0  0  0  0  0  0  0  0  0  0  0  0
    1.3190   -1.7722   -0.0303 C   0  0  0  0  0  0  0  0  0  0  0  0
    0.9249   -0.7510    0.8947 N   0  0  0  0  0  2  0  0  0  0  0  0
    1.6516   -3.3103    1.4432 H   0  0  0  0  0  0  0  0  0  0  0  0
    2.4773   -3.5988   -0.0965 H   0  0  0  0  0  0  0  0  0  0  0  0
    3.0938   -2.3808    1.0315 H   0  0  0  0  0  0  0  0  0  0  0  0
    1.8476   -1.3137   -0.8819 H   0  0  0  0  0  0  0  0  0  0  0  0
    0.4217   -2.2327   -0.4748 H   0  0  0  0  0  0  0  0  0  0  0  0
   -1.0973    0.4266   -1.6073 C   0  0  0  0  0  0  0  0  0  0  0  0
   -1.0973    0.4266   -0.0968 C   0  0  0  0  0  0  0  0  0  0  0  0
   -1.0973    1.7526    0.5668 N   0  0  0  0  0  0  0  0  0  0  0  0
   -1.0973    2.6821   -0.1809 O   0  0  0  0  0  1  0  0  0  0  0  0
   -0.2171    0.9340   -2.0018 H   0  0  0  0  0  0  0  0  0  0  0  0
   -1.0973   -0.6005   -1.9726 H   0  0  0  0  0  0  0  0  0  0  0  0
   -1.9774    0.9340   -2.0018 H   0  0  0  0  0  0  0  0  0  0  0  0
   -0.0518   -0.1822    0.4158 H   0  0  0  0  0  0  0  0  0  0  0  0
   -1.9685   -0.0807    0.3304 H   0  0  0  0  0  0  0  0  0  0  0  0
  1  2  1  0
  1  4  1  0
  1  5  1  0
  1  6  1  0
  2  3  1  0
  2  7  1  0
  2  8  1  0
  3 16  1  0
  9 10  1  0
  9 13  1  0
  9 14  1  0
  9 15  1  0
 10 11  2  3
 10 17  1  0
 11 12  1  0
M  RAD  2   3   2  12   2
M  END
>  <reaction>  (13) 
rmg_rxn_8

>  <mol_properties>  (13) 
{"1": {"label": "*0", "atom_type": "Cs"}, "2": {"label": "*1", "atom_type": "N3s"}, "9": {"label": "*3", "atom_type": "Cd"}, "10": {"label": "*4", "atom_type": "N3d"}, "15": {"label": "*2", "atom_type": "H0"}}

>  <type>  (13) 
unop_9

>  <geom_source>  (13) 
Heuristics

$$$$

     RDKit          3D

 17 15  0  0  0  0  0  0  0  0999 V2000
    2.9449   -0.7214    1.2697 C   0  0  0  0  0  0  0  0  0  0  0  0
    1.8287   -0.7144    0.2409 C   0  0  0  0  0  0  0  0  0  0  0  0
    0.6628   -1.4068    0.7047 N   0  0  0  0  0  2  0  0  0  0  0  0
    3.2356   -1.7451    1.5081 H   0  0  0  0  0  0  0  0  0  0  0  0
    3.8226   -0.1898    0.8980 H   0  0  0  0  0  0  0  0  0  0  0  0
    2.6148   -0.2417    2.1919 H   0  0  0  0  0  0  0  0  0  0  0  0
    1.5602    0.3204   -0.0273 H   0  0  0  0  0  0  0  0  0  0  0  0
    2.1740   -1.1660   -0.7033 H   0  0  0  0  0  0  0  0  0  0  0  0
   -1.3594   -0.2292   -1.7973 C   0  0  0  0  0  0  0  0  0  0  0  0
   -1.3594   -0.2292   -0.2868 C   0  0  0  0  0  0  0  0  0  0  0  0
   -1.3594    1.0967    0.3768 N   0  0  0  0  0  0  0  0  0  0  0  0
   -1.3594    2.0263   -0.3709 O   0  0  0  0  0  1  0  0  0  0  0  0
   -0.4792    0.2782   -2.1917 H   0  0  0  0  0  0  0  0  0  0  0  0
   -1.3594   -1.2564   -2.1625 H   0  0  0  0  0  0  0  0  0  0  0  0
   -2.2395    0.2782   -2.1917 H   0  0  0  0  0  0  0  0  0  0  0  0
   -0.3139   -0.8380    0.2258 H   0  0  0  0  0  0  0  0  0  0  0  0
   -2.2306   -0.7365    0.1404 H   0  0  0  0  0  0  0  0  0  0  0  0
  1  2  1  0
  1  4  1  0
  1  5  1  0
  1  6  1  0
  2  3  1  0
  2  7  1  0
  2  8  1  0
  3 16  1  0
  9 10  1  0
  9 13  1  0
  9 14  1  0
  9 15  1  0
 10 11  2  3
 10 17  1  0
 11 12  1  0
M  RAD  2   3   2  12   2
M  END
>  <reaction>  (14) 
rmg_rxn_8

>  <mol_properties>  (14) 
{"1": {"label": "*0", "atom_type": "Cs"}, "2": {"label": "*1", "atom_type": "N3s"}, "9": {"label": "*3", "atom_type": "Cd"}, "10": {"label": "*4", "atom_type": "N3d"}, "15": {"label": "*2", "atom_type": "H0"}}

>  <type>  (14) 
unop_10

>  <geom_source>  (14) 
Heuristics

$$$$

     RDKit          3D

 17 15  0  0  0  0  0  0  0  0999 V2000
    1.8672   -1.6843    2.4450 C   0  0  0  0  0  0  0  0  0  0  0  0
    0.7118   -1.5837    1.4656 C   0  0  0  0  0  0  0  0  0  0  0  0
    1.1167   -1.0278    0.2084 N   0  0  0  0  0  2  0  0  0  0  0  0
    2.2909   -0.6976    2.6356 H   0  0  0  0  0  0  0  0  0  0  0  0
    1.5388   -2.1095    3.3950 H   0  0  0  0  0  0  0  0  0  0  0  0
    2.6568   -2.3168    2.0375 H   0  0  0  0  0  0  0  0  0  0  0  0
    0.2602   -2.5756    1.3014 H   0  0  0  0  0  0  0  0  0  0  0  0
   -0.1016   -0.9748    1.8928 H   0  0  0  0  0  0  0  0  0  0  0  0
   -0.9055    0.1498   -2.2936 C   0  0  0  0  0  0  0  0  0  0  0  0
   -0.9055    0.1498   -0.7831 C   0  0  0  0  0  0  0  0  0  0  0  0
   -0.9055    1.4758   -0.1195 N   0  0  0  0  0  0  0  0  0  0  0  0
   -0.9055    2.4053   -0.8672 O   0  0  0  0  0  1  0  0  0  0  0  0
   -0.0254    0.6572   -2.6881 H   0  0  0  0  0  0  0  0  0  0  0  0
   -0.9055   -0.8774   -2.6589 H   0  0  0  0  0  0  0  0  0  0  0  0
   -1.7856    0.6572   -2.6881 H   0  0  0  0  0  0  0  0  0  0  0  0
    0.1399   -0.4590   -0.2705 H   0  0  0  0  0  0  0  0  0  0  0  0
   -1.7767   -0.3575   -0.3560 H   0  0  0  0  0  0  0  0  0  0  0  0
  1  2  1  0
  1  4  1  0
  1  5  1  0
  1  6  1  0
  2  3  1  0
  2  7  1  0
  2  8  1  0
  3 16  1  0
  9 10  1  0
  9 13  1  0
  9 14  1  0
  9 15  1  0
 10 11  2  3
 10 17  1  0
 11 12  1  0
M  RAD  2   3   2  12   2
M  END
>  <reaction>  (15) 
rmg_rxn_8

>  <mol_properties>  (15) 
{"1": {"label": "*0", "atom_type": "Cs"}, "2": {"label": "*1", "atom_type": "N3s"}, "9": {"label": "*3", "atom_type": "Cd"}, "10": {"label": "*4", "atom_type": "N3d"}, "15": {"label": "*2", "atom_type": "H0"}}

>  <type>  (15) 
unop_11

>  <geom_source>  (15) 
Heuristics

$$$$

     RDKit          3D

 17 15  0  0  0  0  0  0  0  0999 V2000
    2.7976   -2.1543    0.3492 C   0  0  0  0  0  0  0  0  0  0  0  0
    1.5509   -1.4283   -0.1230 C   0  0  0  0  0  0  0  0  0  0  0  0
    0.7507   -0.9623    0.9707 N   0  0  0  0  0  2  0  0  0  0  0  0
    2.5269   -3.0176    0.9583 H   0  0  0  0  0  0  0  0  0  0  0  0
    3.3926   -2.5008   -0.4975 H   0  0  0  0  0  0  0  0  0  0  0  0
    3.4148   -1.4928    0.9583 H   0  0  0  0  0  0  0  0  0  0  0  0
    1.8233   -0.5776   -0.7687 H   0  0  0  0  0  0  0  0  0  0  0  0
    0.9455   -2.0851   -0.7687 H   0  0  0  0  0  0  0  0  0  0  0  0
   -1.2715    0.2153   -1.5312 C   0  0  0  0  0  0  0  0  0  0  0  0
   -1.2715    0.2153   -0.0208 C   0  0  0  0  0  0  0  0  0  0  0  0
   -1.2715    1.5412    0.6428 N   0  0  0  0  0  0  0  0  0  0  0  0
   -1.2715    2.4708   -0.1049 O   0  0  0  0  0  1  0  0  0  0  0  0
   -0.3914    0.7226   -1.9257 H   0  0  0  0  0  0  0  0  0  0  0  0
   -1.2715   -0.8119   -1.8965 H   0  0  0  0  0  0  0  0  0  0  0  0
   -2.1516    0.7226   -1.9257 H   0  0  0  0  0  0  0  0  0  0  0  0
   -0.2261   -0.3935    0.4918 H   0  0  0  0  0  0  0  0  0  0  0  0
   -2.1427   -0.2921    0.4064 H   0  0  0  0  0  0  0  0  0  0  0  0
  1  2  1  0
  1  4  1  0
  1  5  1  0
  1  6  1  0
  2  3  1  0
  2  7  1  0
  2  8  1  0
  3 16  1  0
  9 10  1  0
  9 13  1  0
  9 14  1  0
  9 15  1  0
 10 11  2  3
 10 17  1  0
 11 12  1  0
M  RAD  2   3   2  12   2
M  END
>  <reaction>  (16) 
rmg_rxn_8

>  <mol_properties>  (16) 
{"1": {"label": "*0", "atom_type": "Cs"}, "2": {"label": "*1", "atom_type": "N3s"}, "9": {"label": "*3", "atom_type": "Cd"}, "10": {"label": "*4", "atom_type": "N3d"}, "15": {"label": "*2", "atom_type": "H0"}}

>  <type>  (16) 
unop_12

>  <geom_source>  (16) 
Heuristics

$$$$

     RDKit          3D

 17 15  0  0  0  0  0  0  0  0999 V2000
    3.0855   -1.2901    0.6234 C   0  0  0  0  0  0  0  0  0  0  0  0
    1.7355   -1.0569   -0.0303 C   0  0  0  0  0  0  0  0  0  0  0  0
    0.6529   -1.2182    0.8947 N   0  0  0  0  0  2  0  0  0  0  0  0
    3.1408   -2.3001    1.0315 H   0  0  0  0  0  0  0  0  0  0  0  0
    3.8959   -1.1628   -0.0965 H   0  0  0  0  0  0  0  0  0  0  0  0
    3.2374   -0.5870    1.4432 H   0  0  0  0  0  0  0  0  0  0  0  0
    1.6932   -0.0493   -0.4748 H   0  0  0  0  0  0  0  0  0  0  0  0
    1.5977   -1.7429   -0.8819 H   0  0  0  0  0  0  0  0  0  0  0  0
   -1.3693   -0.0406   -1.6073 C   0  0  0  0  0  0  0  0  0  0  0  0
   -1.3693   -0.0406   -0.0968 C   0  0  0  0  0  0  0  0  0  0  0  0
   -1.3693    1.2854    0.5668 N   0  0  0  0  0  0  0  0  0  0  0  0
   -1.3693    2.2149   -0.1809 O   0  0  0  0  0  1  0  0  0  0  0  0
   -0.4892    0.4668   -2.0018 H   0  0  0  0  0  0  0  0  0  0  0  0
   -1.3693   -1.0677   -1.9726 H   0  0  0  0  0  0  0  0  0  0  0  0
   -2.2495    0.4668   -2.0018 H   0  0  0  0  0  0  0  0  0  0  0  0
   -0.3239   -0.6494    0.4158 H   0  0  0  0  0  0  0  0  0  0  0  0
   -2.2405   -0.5479    0.3304 H   0  0  0  0  0  0  0  0  0  0  0  0
  1  2  1  0
  1  4  1  0
  1  5  1  0
  1  6  1  0
  2  3  1  0
  2  7  1  0
  2  8  1  0
  3 16  1  0
  9 10  1  0
  9 13  1  0
  9 14  1  0
  9 15  1  0
 10 11  2  3
 10 17  1  0
 11 12  1  0
M  RAD  2   3   2  12   2
M  END
>  <reaction>  (17) 
rmg_rxn_8

>  <mol_properties>  (17) 
{"1": {"label": "*0", "atom_type": "Cs"}, "2": {"label": "*1", "atom_type": "N3s"}, "9": {"label": "*3", "atom_type": "Cd"}, "10": {"label": "*4", "atom_type": "N3d"}, "15": {"label": "*2", "atom_type": "H0"}}

>  <type>  (17) 
unop_13

>  <geom_source>  (17) 
gaussian_log

$$$$
