
     RDKit          3D

  9  8  0  0  0  0  0  0  0  0999 V2000
   -1.0314    0.2323   -0.1227 C   0  0  0  0  0  0  0  0  0  0  0  0
    0.3094   -0.4511    0.0063 C   0  0  0  0  0  0  0  0  0  0  0  0
    0.3197   -1.7698    0.6841 N   0  0  0  0  0  0  0  0  0  0  0  0
   -0.7498   -2.1455    1.0557 O   0  0  0  0  0  0  0  0  0  0  0  0
   -1.4744    0.4198    0.8552 H   0  0  0  0  0  0  0  0  0  0  0  0
   -0.9073    1.1865   -0.6350 H   0  0  0  0  0  0  0  0  0  0  0  0
   -1.7319   -0.3778   -0.6927 H   0  0  0  0  0  0  0  0  0  0  0  0
    1.0375    0.1401    0.5713 H   0  0  0  0  0  0  0  0  0  0  0  0
    0.7826   -0.6494   -0.9609 H   0  0  0  0  0  0  0  0  0  0  0  0
  1  2  1  0
  1  5  1  0
  1  6  1  0
  1  7  1  0
  2  3  1  0
  2  8  1  0
  2  9  1  0
  3  4  2  0
M  END
>  <reaction>  (1) 
rmg_rxn_384

>  <mol_properties>  (1) 
{"0": {"label": "donator", "atom_type": "Cs"}, "4": {"label": "d_hydrogen", "atom_type": "H0"}}

>  <type>  (1) 
r1h

$$$$

     RDKit          3D

  8  7  0  0  0  0  0  0  0  0999 V2000
   -0.7720    0.1667   -0.1823 C   0  0  0  0  0  0  0  0  0  0  0  0
    0.7149   -0.1409   -0.1334 C   0  0  0  0  0  0  0  0  0  0  0  0
    1.2375   -0.7099   -1.2497 O   0  0  0  0  0  1  0  0  0  0  0  0
   -1.3440   -0.7475   -0.3445 H   0  0  0  0  0  0  0  0  0  0  0  0
   -1.1030    0.6205    0.7540 H   0  0  0  0  0  0  0  0  0  0  0  0
   -0.9906    0.8573   -0.9975 H   0  0  0  0  0  0  0  0  0  0  0  0
    1.3115    0.7663    0.0778 H   0  0  0  0  0  0  0  0  0  0  0  0
    0.9660   -0.8029    0.7164 H   0  0  0  0  0  0  0  0  0  0  0  0
  1  2  1  0
  1  4  1  0
  1  5  1  0
  1  6  1  0
  2  3  1  0
  2  7  1  0
  2  8  1  0
M  RAD  1   3   2
M  END
>  <reaction>  (2) 
rmg_rxn_384

>  <mol_properties>  (2) 
{"2": {"label": "acceptor", "atom_type": "O2s"}}

>  <type>  (2) 
r2

$$$$

     RDKit          3D

  9  8  0  0  0  0  0  0  0  0999 V2000
   -0.9895    0.3048    0.1041 C   0  0  0  0  0  0  0  0  0  0  0  0
    0.3761   -0.3562    0.0721 C   0  0  0  0  0  0  0  0  0  0  0  0
    0.3441   -1.6564   -0.4834 O   0  0  0  0  0  0  0  0  0  0  0  0
   -1.6997   -0.3114    0.6572 H   0  0  0  0  0  0  0  0  0  0  0  0
   -0.9320    1.2848    0.5822 H   0  0  0  0  0  0  0  0  0  0  0  0
   -1.3774    0.4507   -0.9077 H   0  0  0  0  0  0  0  0  0  0  0  0
    0.7581   -0.4813    1.0862 H   0  0  0  0  0  0  0  0  0  0  0  0
    1.0900    0.2787   -0.4681 H   0  0  0  0  0  0  0  0  0  0  0  0
    0.0089   -1.5959   -1.3792 H   0  0  0  0  0  0  0  0  0  0  0  0
  1  2  1  0
  1  4  1  0
  1  5  1  0
  1  6  1  0
  2  3  1  0
  2  7  1  0
  2  8  1  0
  3  9  1  0
M  END
>  <reaction>  (3) 
rmg_rxn_384

>  <mol_properties>  (3) 
{"2": {"label": "acceptor", "atom_type": "O2s"}, "8": {"label": "a_hydrogen", "atom_type": "H0"}}

>  <type>  (3) 
r2h

$$$$

     RDKit          3D

 17 15  0  0  0  0  0  0  0  0999 V2000
   -0.6518    2.3821   -1.2017 C   0  0  0  0  0  0  0  0  0  0  0  0
   -1.6477    1.9820   -0.1290 C   0  0  0  0  0  0  0  0  0  0  0  0
   -1.6485    0.6148    0.1636 O   0  0  0  0  0  0  0  0  0  0  0  0
   -0.8257    1.8110   -2.1144 H   0  0  0  0  0  0  0  0  0  0  0  0
   -0.7433    3.4457   -1.4319 H   0  0  0  0  0  0  0  0  0  0  0  0
    0.3699    2.1869   -0.8725 H   0  0  0  0  0  0  0  0  0  0  0  0
   -1.5006    2.5767    0.7827 H   0  0  0  0  0  0  0  0  0  0  0  0
   -2.6720    2.1887   -0.4651 H   0  0  0  0  0  0  0  0  0  0  0  0
    0.4175    0.0725    1.4582 C   0  0  0  0  0  3  0  0  0  0  0  0
    0.9036   -1.2306    0.9100 C   0  0  0  0  0  0  0  0  0  0  0  0
    1.6200   -1.1924   -0.3911 N   0  0  0  0  0  0  0  0  0  0  0  0
    1.8294   -0.0990   -0.8155 O   0  0  0  0  0  0  0  0  0  0  0  0
   -0.6262    0.3665    0.7868 H   0  0  0  0  0  0  0  0  0  0  0  0
    0.0360   -0.0005    2.4738 H   0  0  0  0  0  0  0  0  0  0  0  0
    1.0973    0.9094    1.3203 H   0  0  0  0  0  0  0  0  0  0  0  0
    0.0972   -1.9546    0.7608 H   0  0  0  0  0  0  0  0  0  0  0  0
    1.6203   -1.7263    1.5785 H   0  0  0  0  0  0  0  0  0  0  0  0
  1  2  1  0
  1  4  1  0
  1  5  1  0
  1  6  1  0
  2  3  1  0
  2  7  1  0
  2  8  1  0
  3 13  1  0
  9 10  1  0
  9 14  1  0
  9 15  1  0
 10 11  1  0
 10 16  1  0
 10 17  1  0
 11 12  2  0
M  RAD  1   9   2
M  END
>  <reaction>  (4) 
rmg_rxn_384

>  <mol_properties>  (4) 
{"1": {"label": "*0", "atom_type": "Cs"}, "2": {"label": "*1", "atom_type": "O2s"}, "8": {"label": "*3", "atom_type": "Cs"}, "9": {"label": "*4", "atom_type": "Cs"}, "12": {"label": "*2", "atom_type": "H0"}}

>  <type>  (4) 
ts

$$$$

     RDKit          3D

 17 15  0  0  0  0  0  0  0  0999 V2000
   -0.9519    2.6257   -0.0982 C   0  0  0  0  0  0  0  0  0  0  0  0
   -1.7633    1.5586   -0.8094 C   0  0  0  0  0  0  0  0  0  0  0  0
   -1.0314    0.3691   -1.0318 O   0  0  0  0  0  0  0  0  0  0  0  0
   -0.0452    2.8543   -0.6599 H   0  0  0  0  0  0  0  0  0  0  0  0
   -1.5342    3.5428    0.0122 H   0  0  0  0  0  0  0  0  0  0  0  0
   -0.6611    2.2940    0.9023 H   0  0  0  0  0  0  0  0  0  0  0  0
   -2.6835    1.3486   -0.2493 H   0  0  0  0  0  0  0  0  0  0  0  0
   -2.0602    1.9082   -1.7992 H   0  0  0  0  0  0  0  0  0  0  0  0
    0.9536    0.3931    0.4174 C   0  0  0  0  0  3  0  0  0  0  0  0
    0.9536   -0.7839    1.3642 C   0  0  0  0  0  0  0  0  0  0  0  0
    0.9536   -2.1320    0.7469 N   0  0  0  0  0  0  0  0  0  0  0  0
    0.9536   -2.1320   -0.4461 O   0  0  0  0  0  0  0  0  0  0  0  0
   -0.1026    0.3803   -0.3537 H   0  0  0  0  0  0  0  0  0  0  0  0
    0.9536    1.3215    0.9889 H   0  0  0  0  0  0  0  0  0  0  0  0
    1.8337    0.3824   -0.2252 H   0  0  0  0  0  0  0  0  0  0  0  0
    0.0824   -0.7988    2.0272 H   0  0  0  0  0  0  0  0  0  0  0  0
    1.8248   -0.7988    2.0272 H   0  0  0  0  0  0  0  0  0  0  0  0
  1  2  1  0
  1  4  1  0
  1  5  1  0
  1  6  1  0
  2  3  1  0
  2  7  1  0
  2  8  1  0
  3 13  1  0
  9 10  1  0
  9 14  1  0
  9 15  1  0
 10 11  1  0
 10 16  1  0
 10 17  1  0
 11 12  2  0
M  RAD  1   9   2
M  END
>  <reaction>  (5) 
rmg_rxn_384

>  <mol_properties>  (5) 
{"1": {"label": "*0", "atom_type": "Cs"}, "2": {"label": "*1", "atom_type": "O2s"}, "8": {"label": "*3", "atom_type": "Cs"}, "9": {"label": "*4", "atom_type": "Cs"}, "12": {"label": "*2", "atom_type": "H0"}}

>  <type>  (5) 
unop_1

>  <geom_source>  (5) 
Heuristics

$$$$

     RDKit          3D

 17 15  0  0  0  0  0  0  0  0999 V2000
   -1.9113    0.7538    0.8920 C   0  0  0  0  0  0  0  0  0  0  0  0
   -1.8757    0.3696   -0.5757 C   0  0  0  0  0  0  0  0  0  0  0  0
   -0.8145    0.9852   -1.2791 O   0  0  0  0  0  0  0  0  0  0  0  0
   -1.9797    1.8369    1.0021 H   0  0  0  0  0  0  0  0  0  0  0  0
   -2.7701    0.2979    1.3889 H   0  0  0  0  0  0  0  0  0  0  0  0
   -1.0093    0.4129    1.4075 H   0  0  0  0  0  0  0  0  0  0  0  0
   -1.8276   -0.7220   -0.6789 H   0  0  0  0  0  0  0  0  0  0  0  0
   -2.7876    0.7013   -1.0742 H   0  0  0  0  0  0  0  0  0  0  0  0
    1.1705    1.0091    0.1701 C   0  0  0  0  0  3  0  0  0  0  0  0
    1.1705   -0.1678    1.1169 C   0  0  0  0  0  0  0  0  0  0  0  0
    1.1705   -1.5160    0.4996 N   0  0  0  0  0  0  0  0  0  0  0  0
    1.1705   -1.5160   -0.6934 O   0  0  0  0  0  0  0  0  0  0  0  0
    0.1144    0.9964   -0.6010 H   0  0  0  0  0  0  0  0  0  0  0  0
    1.1705    1.9375    0.7416 H   0  0  0  0  0  0  0  0  0  0  0  0
    2.0506    0.9985   -0.4725 H   0  0  0  0  0  0  0  0  0  0  0  0
    0.2993   -0.1827    1.7799 H   0  0  0  0  0  0  0  0  0  0  0  0
    2.0417   -0.1827    1.7799 H   0  0  0  0  0  0  0  0  0  0  0  0
  1  2  1  0
  1  4  1  0
  1  5  1  0
  1  6  1  0
  2  3  1  0
  2  7  1  0
  2  8  1  0
  3 13  1  0
  9 10  1  0
  9 14  1  0
  9 15  1  0
 10 11  1  0
 10 16  1  0
 10 17  1  0
 11 12  2  0
M  RAD  1   9   2
M  END
>  <reaction>  (6) 
rmg_rxn_384

>  <mol_properties>  (6) 
{"1": {"label": "*0", "atom_type": "Cs"}, "2": {"label": "*1", "atom_type": "O2s"}, "8": {"label": "*3", "atom_type": "Cs"}, "9": {"label": "*4", "atom_type": "Cs"}, "12": {"label": "*2", "atom_type": "H0"}}

>  <type>  (6) 
unop_2

>  <geom_source>  (6) 
Heuristics

$$$$

     RDKit          3D

 17 15  0  0  0  0  0  0  0  0999 V2000
   -0.3330    2.6094   -1.0897 C   0  0  0  0  0  0  0  0  0  0  0  0
   -1.5349    1.6830   -1.0999 C   0  0  0  0  0  0  0  0  0  0  0  0
   -1.2021    0.3479   -0.7732 O   0  0  0  0  0  0  0  0  0  0  0  0
    0.4353    2.2465   -1.7738 H   0  0  0  0  0  0  0  0  0  0  0  0
   -0.6214    3.6180   -1.3926 H   0  0  0  0  0  0  0  0  0  0  0  0
    0.1022    2.6745   -0.0887 H   0  0  0  0  0  0  0  0  0  0  0  0
   -2.3115    2.0652   -0.4251 H   0  0  0  0  0  0  0  0  0  0  0  0
   -1.9686    1.6395   -2.0999 H   0  0  0  0  0  0  0  0  0  0  0  0
    0.7829    0.3718    0.6760 C   0  0  0  0  0  3  0  0  0  0  0  0
    0.7829   -0.8052    1.6227 C   0  0  0  0  0  0  0  0  0  0  0  0
    0.7829   -2.1533    1.0055 N   0  0  0  0  0  0  0  0  0  0  0  0
    0.7829   -2.1533   -0.1875 O   0  0  0  0  0  0  0  0  0  0  0  0
   -0.2733    0.3591   -0.0951 H   0  0  0  0  0  0  0  0  0  0  0  0
    0.7829    1.3002    1.2474 H   0  0  0  0  0  0  0  0  0  0  0  0
    1.6630    0.3612    0.0334 H   0  0  0  0  0  0  0  0  0  0  0  0
   -0.0883   -0.8200    2.2858 H   0  0  0  0  0  0  0  0  0  0  0  0
    1.6541   -0.8200    2.2858 H   0  0  0  0  0  0  0  0  0  0  0  0
  1  2  1  0
  1  4  1  0
  1  5  1  0
  1  6  1  0
  2  3  1  0
  2  7  1  0
  2  8  1  0
  3 13  1  0
  9 10  1  0
  9 14  1  0
  9 15  1  0
 10 11  1  0
 10 16  1  0
 10 17  1  0
 11 12  2  0
M  RAD  1   9   2
M  END
>  <reaction>  (7) 
rmg_rxn_384

>  <mol_properties>  (7) 
{"1": {"label": "*0", "atom_type": "Cs"}, "2": {"label": "*1", "atom_type": "O2s"}, "8": {"label": "*3", "atom_type": "Cs"}, "9": {"label": "*4", "atom_type": "Cs"}, "12": {"label": "*2", "atom_type": "H0"}}

>  <type>  (7) 
unop_3

>  <geom_source>  (7) 
Heuristics

$$$$

     RDKit          3D

 17 15  0  0  0  0  0  0  0  0999 V2000
   -1.8106   -0.9386   -0.8457 C   0  0  0  0  0  0  0  0  0  0  0  0
   -1.0019    0.1693   -1.4949 C   0  0  0  0  0  0  0  0  0  0  0  0
   -1.0097    1.3676   -0.7437 O   0  0  0  0  0  0  0  0  0  0  0  0
   -2.8398   -0.6158   -0.6834 H   0  0  0  0  0  0  0  0  0  0  0  0
   -1.8200   -1.8294   -1.4771 H   0  0  0  0  0  0  0  0  0  0  0  0
   -1.3831   -1.2203    0.1204 H   0  0  0  0  0  0  0  0  0  0  0  0
    0.0266   -0.1695   -1.6737 H   0  0  0  0  0  0  0  0  0  0  0  0
   -1.4294    0.4296   -2.4642 H   0  0  0  0  0  0  0  0  0  0  0  0
    0.9753    1.3915    0.7055 C   0  0  0  0  0  3  0  0  0  0  0  0
    0.9753    0.2145    1.6522 C   0  0  0  0  0  0  0  0  0  0  0  0
    0.9753   -1.1336    1.0350 N   0  0  0  0  0  0  0  0  0  0  0  0
    0.9753   -1.1336   -0.1580 O   0  0  0  0  0  0  0  0  0  0  0  0
   -0.0808    1.3788   -0.0656 H   0  0  0  0  0  0  0  0  0  0  0  0
    0.9753    2.3199    1.2769 H   0  0  0  0  0  0  0  0  0  0  0  0
    1.8555    1.3809    0.0629 H   0  0  0  0  0  0  0  0  0  0  0  0
    0.1041    0.1997    2.3153 H   0  0  0  0  0  0  0  0  0  0  0  0
    1.8465    0.1997    2.3153 H   0  0  0  0  0  0  0  0  0  0  0  0
  1  2  1  0
  1  4  1  0
  1  5  1  0
  1  6  1  0
  2  3  1  0
  2  7  1  0
  2  8  1  0
  3 13  1  0
  9 10  1  0
  9 14  1  0
  9 15  1  0
 10 11  1  0
 10 16  1  0
 10 17  1  0
 11 12  2  0
M  RAD  1   9   2
M  END
>  <reaction>  (8) 
rmg_rxn_384

>  <mol_properties>  (8) 
{"1": {"label": "*0", "atom_type": "Cs"}, "2": {"label": "*1", "atom_type": "O2s"}, "8": {"label": "*3", "atom_type": "Cs"}, "9": {"label": "*4", "atom_type": "Cs"}, "12": {"label": "*2", "atom_type": "H0"}}

>  <type>  (8) 
unop_4

>  <geom_source>  (8) 
Heuristics

$$$$

     RDKit          3D

 17 15  0  0  0  0  0  0  0  0999 V2000
   -0.0191    1.6738   -2.2242 C   0  0  0  0  0  0  0  0  0  0  0  0
   -1.2613    1.6630   -1.3526 C   0  0  0  0  0  0  0  0  0  0  0  0
   -1.3199    0.5411   -0.4935 O   0  0  0  0  0  0  0  0  0  0  0  0
    0.0419    0.7583   -2.8142 H   0  0  0  0  0  0  0  0  0  0  0  0
   -0.0338    2.5272   -2.9053 H   0  0  0  0  0  0  0  0  0  0  0  0
    0.8856    1.7501   -1.6150 H   0  0  0  0  0  0  0  0  0  0  0  0
   -1.3268    2.5955   -0.7775 H   0  0  0  0  0  0  0  0  0  0  0  0
   -2.1565    1.6027   -1.9731 H   0  0  0  0  0  0  0  0  0  0  0  0
    0.6651    0.5651    0.9557 C   0  0  0  0  0  3  0  0  0  0  0  0
    0.6651   -0.6119    1.9024 C   0  0  0  0  0  0  0  0  0  0  0  0
    0.6651   -1.9600    1.2852 N   0  0  0  0  0  0  0  0  0  0  0  0
    0.6651   -1.9600    0.0922 O   0  0  0  0  0  0  0  0  0  0  0  0
   -0.3911    0.5523    0.1846 H   0  0  0  0  0  0  0  0  0  0  0  0
    0.6651    1.4935    1.5271 H   0  0  0  0  0  0  0  0  0  0  0  0
    1.5452    0.5544    0.3131 H   0  0  0  0  0  0  0  0  0  0  0  0
   -0.2061   -0.6268    2.5655 H   0  0  0  0  0  0  0  0  0  0  0  0
    1.5363   -0.6268    2.5655 H   0  0  0  0  0  0  0  0  0  0  0  0
  1  2  1  0
  1  4  1  0
  1  5  1  0
  1  6  1  0
  2  3  1  0
  2  7  1  0
  2  8  1  0
  3 13  1  0
  9 10  1  0
  9 14  1  0
  9 15  1  0
 10 11  1  0
 10 16  1  0
 10 17  1  0
 11 12  2  0
M  RAD  1   9   2
M  END
>  <reaction>  (9) 
rmg_rxn_384

>  <mol_properties>  (9) 
{"1": {"label": "*0", "atom_type": "Cs"}, "2": {"label": "*1", "atom_type": "O2s"}, "8": {"label": "*3", "atom_type": "Cs"}, "9": {"label": "*4", "atom_type": "Cs"}, "12": {"label": "*2", "atom_type": "H0"}}

>  <type>  (9) 
unop_5

>  <geom_source>  (9) 
Heuristics

$$$$

     RDKit          3D

 17 15  0  0  0  0  0  0  0  0999 V2000
   -1.3893   -0.8632   -1.6828 C   0  0  0  0  0  0  0  0  0  0  0  0
   -0.8228    0.5445   -1.7028 C   0  0  0  0  0  0  0  0  0  0  0  0
   -1.1306    1.2772   -0.5330 O   0  0  0  0  0  0  0  0  0  0  0  0
   -2.4706   -0.8382   -1.5413 H   0  0  0  0  0  0  0  0  0  0  0  0
   -1.1721   -1.3792   -2.6203 H   0  0  0  0  0  0  0  0  0  0  0  0
   -0.9507   -1.4498   -0.8710 H   0  0  0  0  0  0  0  0  0  0  0  0
    0.2621    0.5123   -1.8659 H   0  0  0  0  0  0  0  0  0  0  0  0
   -1.2565    1.1135   -2.5263 H   0  0  0  0  0  0  0  0  0  0  0  0
    0.8544    1.3011    0.9163 C   0  0  0  0  0  3  0  0  0  0  0  0
    0.8544    0.1242    1.8630 C   0  0  0  0  0  0  0  0  0  0  0  0
    0.8544   -1.2240    1.2457 N   0  0  0  0  0  0  0  0  0  0  0  0
    0.8544   -1.2240    0.0527 O   0  0  0  0  0  0  0  0  0  0  0  0
   -0.2018    1.2884    0.1451 H   0  0  0  0  0  0  0  0  0  0  0  0
    0.8544    2.2295    1.4877 H   0  0  0  0  0  0  0  0  0  0  0  0
    1.7345    1.2905    0.2737 H   0  0  0  0  0  0  0  0  0  0  0  0
   -0.0168    0.1093    2.5260 H   0  0  0  0  0  0  0  0  0  0  0  0
    1.7256    0.1093    2.5260 H   0  0  0  0  0  0  0  0  0  0  0  0
  1  2  1  0
  1  4  1  0
  1  5  1  0
  1  6  1  0
  2  3  1  0
  2  7  1  0
  2  8  1  0
  3 13  1  0
  9 10  1  0
  9 14  1  0
  9 15  1  0
 10 11  1  0
 10 16  1  0
 10 17  1  0
 11 12  2  0
M  RAD  1   9   2
M  END
>  <reaction>  (10) 
rmg_rxn_384

>  <mol_properties>  (10) 
{"1": {"label": "*0", "atom_type": "Cs"}, "2": {"label": "*1", "atom_type": "O2s"}, "8": {"label": "*3", "atom_type": "Cs"}, "9": {"label": "*4", "atom_type": "Cs"}, "12": {"label": "*2", "atom_type": "H0"}}

>  <type>  (10) 
unop_6

>  <geom_source>  (10) 
Heuristics

$$$$

     RDKit          3D

 17 15  0  0  0  0  0  0  0  0999 V2000
   -0.9328   -0.3793   -2.3283 C   0  0  0  0  0  0  0  0  0  0  0  0
   -0.7992    1.0136   -1.7409 C   0  0  0  0  0  0  0  0  0  0  0  0
   -1.2275    1.0855   -0.3950 O   0  0  0  0  0  0  0  0  0  0  0  0
   -1.9636   -0.7283   -2.2539 H   0  0  0  0  0  0  0  0  0  0  0  0
   -0.6383   -0.3838   -3.3798 H   0  0  0  0  0  0  0  0  0  0  0  0
   -0.2912   -1.0898   -1.8002 H   0  0  0  0  0  0  0  0  0  0  0  0
    0.2357    1.3661   -1.8377 H   0  0  0  0  0  0  0  0  0  0  0  0
   -1.4318    1.7150   -2.2866 H   0  0  0  0  0  0  0  0  0  0  0  0
    0.7574    1.1095    1.0542 C   0  0  0  0  0  3  0  0  0  0  0  0
    0.7574   -0.0675    2.0010 C   0  0  0  0  0  0  0  0  0  0  0  0
    0.7574   -1.4156    1.3837 N   0  0  0  0  0  0  0  0  0  0  0  0
    0.7574   -1.4156    0.1907 O   0  0  0  0  0  0  0  0  0  0  0  0
   -0.2987    1.0968    0.2831 H   0  0  0  0  0  0  0  0  0  0  0  0
    0.7574    2.0379    1.6257 H   0  0  0  0  0  0  0  0  0  0  0  0
    1.6376    1.0989    0.4116 H   0  0  0  0  0  0  0  0  0  0  0  0
   -0.1138   -0.0824    2.6640 H   0  0  0  0  0  0  0  0  0  0  0  0
    1.6286   -0.0824    2.6640 H   0  0  0  0  0  0  0  0  0  0  0  0
  1  2  1  0
  1  4  1  0
  1  5  1  0
  1  6  1  0
  2  3  1  0
  2  7  1  0
  2  8  1  0
  3 13  1  0
  9 10  1  0
  9 14  1  0
  9 15  1  0
 10 11  1  0
 10 16  1  0
 10 17  1  0
 11 12  2  0
M  RAD  1   9   2
M  END
>  <reaction>  (11) 
rmg_rxn_384

>  <mol_properties>  (11) 
{"1": {"label": "*0", "atom_type": "Cs"}, "2": {"label": "*1", "atom_type": "O2s"}, "8": {"label": "*3", "atom_type": "Cs"}, "9": {"label": "*4", "atom_type": "Cs"}, "12": {"label": "*2", "atom_type": "H0"}}

>  <type>  (11) 
unop_7

>  <geom_source>  (11) 
Heuristics

$$$$

     RDKit          3D

 17 15  0  0  0  0  0  0  0  0999 V2000
   -1.4236    2.1372    0.5524 C   0  0  0  0  0  0  0  0  0  0  0  0
   -1.9338    1.2528   -0.5702 C   0  0  0  0  0  0  0  0  0  0  0  0
   -0.9018    0.5288   -1.2113 O   0  0  0  0  0  0  0  0  0  0  0  0
   -0.6682    2.8304    0.1799 H   0  0  0  0  0  0  0  0  0  0  0  0
   -2.2409    2.7144    0.9899 H   0  0  0  0  0  0  0  0  0  0  0  0
   -0.9758    1.5380    1.3498 H   0  0  0  0  0  0  0  0  0  0  0  0
   -2.7077    0.5723   -0.1924 H   0  0  0  0  0  0  0  0  0  0  0  0
   -2.3919    1.8615   -1.3510 H   0  0  0  0  0  0  0  0  0  0  0  0
    1.0831    0.5528    0.2379 C   0  0  0  0  0  3  0  0  0  0  0  0
    1.0831   -0.6242    1.1847 C   0  0  0  0  0  0  0  0  0  0  0  0
    1.0831   -1.9724    0.5674 N   0  0  0  0  0  0  0  0  0  0  0  0
    1.0831   -1.9724   -0.6256 O   0  0  0  0  0  0  0  0  0  0  0  0
    0.0270    0.5400   -0.5332 H   0  0  0  0  0  0  0  0  0  0  0  0
    1.0831    1.4812    0.8094 H   0  0  0  0  0  0  0  0  0  0  0  0
    1.9633    0.5421   -0.4047 H   0  0  0  0  0  0  0  0  0  0  0  0
    0.2120   -0.6391    1.8477 H   0  0  0  0  0  0  0  0  0  0  0  0
    1.9543   -0.6391    1.8477 H   0  0  0  0  0  0  0  0  0  0  0  0
  1  2  1  0
  1  4  1  0
  1  5  1  0
  1  6  1  0
  2  3  1  0
  2  7  1  0
  2  8  1  0
  3 13  1  0
  9 10  1  0
  9 14  1  0
  9 15  1  0
 10 11  1  0
 10 16  1  0
 10 17  1  0
 11 12  2  0
M  RAD  1   9   2
M  END
>  <reaction>  (12) 
rmg_rxn_384

>  <mol_properties>  (12) 
{"1": {"label": "*0", "atom_type": "Cs"}, "2": {"label": "*1", "atom_type": "O2s"}, "8": {"label": "*3", "atom_type": "Cs"}, "9": {"label": "*4", "atom_type": "Cs"}, "12": {"label": "*2", "atom_type": "H0"}}

>  <type>  (12) 
unop_8

>  <geom_source>  (12) 
Heuristics

$$$$

     RDKit          3D

 17 15  0  0  0  0  0  0  0  0999 V2000
   -2.0699   -0.5816   -0.0074 C   0  0  0  0  0  0  0  0  0  0  0  0
   -1.2908   -0.0121   -1.1786 C   0  0  0  0  0  0  0  0  0  0  0  0
   -0.8994    1.3318   -0.9765 O   0  0  0  0  0  0  0  0  0  0  0  0
   -2.9505    0.0283    0.1987 H   0  0  0  0  0  0  0  0  0  0  0  0
   -2.3947   -1.6021   -0.2205 H   0  0  0  0  0  0  0  0  0  0  0  0
   -1.4537   -0.6104    0.8953 H   0  0  0  0  0  0  0  0  0  0  0  0
   -0.4180   -0.6420   -1.3931 H   0  0  0  0  0  0  0  0  0  0  0  0
   -1.9114   -0.0038   -2.0757 H   0  0  0  0  0  0  0  0  0  0  0  0
    1.0856    1.3557    0.4727 C   0  0  0  0  0  3  0  0  0  0  0  0
    1.0856    0.1787    1.4195 C   0  0  0  0  0  0  0  0  0  0  0  0
    1.0856   -1.1694    0.8022 N   0  0  0  0  0  0  0  0  0  0  0  0
    1.0856   -1.1694   -0.3908 O   0  0  0  0  0  0  0  0  0  0  0  0
    0.0294    1.3430   -0.2984 H   0  0  0  0  0  0  0  0  0  0  0  0
    1.0856    2.2841    1.0442 H   0  0  0  0  0  0  0  0  0  0  0  0
    1.9657    1.3451   -0.1699 H   0  0  0  0  0  0  0  0  0  0  0  0
    0.2144    0.1639    2.0825 H   0  0  0  0  0  0  0  0  0  0  0  0
    1.9568    0.1639    2.0825 H   0  0  0  0  0  0  0  0  0  0  0  0
  1  2  1  0
  1  4  1  0
  1  5  1  0
  1  6  1  0
  2  3  1  0
  2  7  1  0
  2  8  1  0
  3 13  1  0
  9 10  1  0
  9 14  1  0
  9 15  1  0
 10 11  1  0
 10 16  1  0
 10 17  1  0
 11 12  2  0
M  RAD  1   9   2
M  END
>  <reaction>  (13) 
rmg_rxn_384

>  <mol_properties>  (13) 
{"1": {"label": "*0", "atom_type": "Cs"}, "2": {"label": "*1", "atom_type": "O2s"}, "8": {"label": "*3", "atom_type": "Cs"}, "9": {"label": "*4", "atom_type": "Cs"}, "12": {"label": "*2", "atom_type": "H0"}}

>  <type>  (13) 
unop_9

>  <geom_source>  (13) 
Heuristics

$$$$

     RDKit          3D

 17 15  0  0  0  0  0  0  0  0999 V2000
   -1.7162    1.4568    0.8720 C   0  0  0  0  0  0  0  0  0  0  0  0
   -1.9848    0.8168   -0.4775 C   0  0  0  0  0  0  0  0  0  0  0  0
   -0.8323    0.7535   -1.2946 O   0  0  0  0  0  0  0  0  0  0  0  0
   -1.3032    2.4584    0.7447 H   0  0  0  0  0  0  0  0  0  0  0  0
   -2.6374    1.5309    1.4535 H   0  0  0  0  0  0  0  0  0  0  0  0
   -1.0039    0.8634    1.4516 H   0  0  0  0  0  0  0  0  0  0  0  0
   -2.4189   -0.1821   -0.3415 H   0  0  0  0  0  0  0  0  0  0  0  0
   -2.7083    1.4098   -1.0385 H   0  0  0  0  0  0  0  0  0  0  0  0
    1.1527    0.7775    0.1546 C   0  0  0  0  0  3  0  0  0  0  0  0
    1.1527   -0.3995    1.1013 C   0  0  0  0  0  0  0  0  0  0  0  0
    1.1527   -1.7477    0.4841 N   0  0  0  0  0  0  0  0  0  0  0  0
    1.1527   -1.7477   -0.7089 O   0  0  0  0  0  0  0  0  0  0  0  0
    0.0965    0.7647   -0.6165 H   0  0  0  0  0  0  0  0  0  0  0  0
    1.1527    1.7059    0.7260 H   0  0  0  0  0  0  0  0  0  0  0  0
    2.0328    0.7668   -0.4880 H   0  0  0  0  0  0  0  0  0  0  0  0
    0.2815   -0.4144    1.7644 H   0  0  0  0  0  0  0  0  0  0  0  0
    2.0239   -0.4144    1.7644 H   0  0  0  0  0  0  0  0  0  0  0  0
  1  2  1  0
  1  4  1  0
  1  5  1  0
  1  6  1  0
  2  3  1  0
  2  7  1  0
  2  8  1  0
  3 13  1  0
  9 10  1  0
  9 14  1  0
  9 15  1  0
 10 11  1  0
 10 16  1  0
 10 17  1  0
 11 12  2  0
M  RAD  1   9   2
M  END
>  <reaction>  (14) 
rmg_rxn_384

>  <mol_properties>  (14) 
{"1": {"label": "*0", "atom_type": "Cs"}, "2": {"label": "*1", "atom_type": "O2s"}, "8": {"label": "*3", "atom_type": "Cs"}, "9": {"label": "*4", "atom_type": "Cs"}, "12": {"label": "*2", "atom_type": "H0"}}

>  <type>  (14) 
unop_10

>  <geom_source>  (14) 
Heuristics

$$$$

     RDKit          3D

 17 15  0  0  0  0  0  0  0  0999 V2000
   -0.4495    0.4457   -2.6240 C   0  0  0  0  0  0  0  0  0  0  0  0
   -0.9565    1.4404   -1.5963 C   0  0  0  0  0  0  0  0  0  0  0  0
   -1.2937    0.8336   -0.3642 O   0  0  0  0  0  0  0  0  0  0  0  0
   -1.1879   -0.3391   -2.7934 H   0  0  0  0  0  0  0  0  0  0  0  0
   -0.2458    0.9436   -3.5743 H   0  0  0  0  0  0  0  0  0  0  0  0
    0.4793   -0.0239   -2.2889 H   0  0  0  0  0  0  0  0  0  0  0  0
   -0.2174    2.2378   -1.4463 H   0  0  0  0  0  0  0  0  0  0  0  0
   -1.8741    1.9128   -1.9499 H   0  0  0  0  0  0  0  0  0  0  0  0
    0.6913    0.8575    1.0851 C   0  0  0  0  0  3  0  0  0  0  0  0
    0.6913   -0.3194    2.0318 C   0  0  0  0  0  0  0  0  0  0  0  0
    0.6913   -1.6676    1.4145 N   0  0  0  0  0  0  0  0  0  0  0  0
    0.6913   -1.6676    0.2216 O   0  0  0  0  0  0  0  0  0  0  0  0
   -0.3649    0.8448    0.3139 H   0  0  0  0  0  0  0  0  0  0  0  0
    0.6913    1.7860    1.6565 H   0  0  0  0  0  0  0  0  0  0  0  0
    1.5714    0.8469    0.4425 H   0  0  0  0  0  0  0  0  0  0  0  0
   -0.1799   -0.3343    2.6948 H   0  0  0  0  0  0  0  0  0  0  0  0
    1.5625   -0.3343    2.6948 H   0  0  0  0  0  0  0  0  0  0  0  0
  1  2  1  0
  1  4  1  0
  1  5  1  0
  1  6  1  0
  2  3  1  0
  2  7  1  0
  2  8  1  0
  3 13  1  0
  9 10  1  0
  9 14  1  0
  9 15  1  0
 10 11  1  0
 10 16  1  0
 10 17  1  0
 11 12  2  0
M  RAD  1   9   2
M  END
>  <reaction>  (15) 
rmg_rxn_384

>  <mol_properties>  (15) 
{"1": {"label": "*0", "atom_type": "Cs"}, "2": {"label": "*1", "atom_type": "O2s"}, "8": {"label": "*3", "atom_type": "Cs"}, "9": {"label": "*4", "atom_type": "Cs"}, "12": {"label": "*2", "atom_type": "H0"}}

>  <type>  (15) 
unop_11

>  <geom_source>  (15) 
Heuristics

$$$$

     RDKit          3D

 17 15  0  0  0  0  0  0  0  0999 V2000
   -2.0688    0.0568    0.6097 C   0  0  0  0  0  0  0  0  0  0  0  0
   -1.6170    0.0580   -0.8390 C   0  0  0  0  0  0  0  0  0  0  0  0
   -0.8343    1.1886   -1.1693 O   0  0  0  0  0  0  0  0  0  0  0  0
   -2.6265    0.9662    0.8371 H   0  0  0  0  0  0  0  0  0  0  0  0
   -2.7084   -0.8045    0.8131 H   0  0  0  0  0  0  0  0  0  0  0  0
   -1.2119    0.0017    1.2867 H   0  0  0  0  0  0  0  0  0  0  0  0
   -1.0745   -0.8687   -1.0658 H   0  0  0  0  0  0  0  0  0  0  0  0
   -2.4814    0.0971   -1.5032 H   0  0  0  0  0  0  0  0  0  0  0  0
    1.1507    1.2126    0.2799 C   0  0  0  0  0  3  0  0  0  0  0  0
    1.1507    0.0356    1.2266 C   0  0  0  0  0  0  0  0  0  0  0  0
    1.1507   -1.3125    0.6094 N   0  0  0  0  0  0  0  0  0  0  0  0
    1.1507   -1.3125   -0.5836 O   0  0  0  0  0  0  0  0  0  0  0  0
    0.0945    1.1998   -0.4912 H   0  0  0  0  0  0  0  0  0  0  0  0
    1.1507    2.1410    0.8513 H   0  0  0  0  0  0  0  0  0  0  0  0
    2.0308    1.2019   -0.3627 H   0  0  0  0  0  0  0  0  0  0  0  0
    0.2795    0.0207    1.8897 H   0  0  0  0  0  0  0  0  0  0  0  0
    2.0219    0.0207    1.8897 H   0  0  0  0  0  0  0  0  0  0  0  0
  1  2  1  0
  1  4  1  0
  1  5  1  0
  1  6  1  0
  2  3  1  0
  2  7  1  0
  2  8  1  0
  3 13  1  0
  9 10  1  0
  9 14  1  0
  9 15  1  0
 10 11  1  0
 10 16  1  0
 10 17  1  0
 11 12  2  0
M  RAD  1   9   2
M  END
>  <reaction>  (16) 
rmg_rxn_384

>  <mol_properties>  (16) 
{"1": {"label": "*0", "atom_type": "Cs"}, "2": {"label": "*1", "atom_type": "O2s"}, "8": {"label": "*3", "atom_type": "Cs"}, "9": {"label": "*4", "atom_type": "Cs"}, "12": {"label": "*2", "atom_type": "H0"}}

>  <type>  (16) 
unop_12

>  <geom_source>  (16) 
Heuristics

$$$$

     RDKit          3D

 17 15  0  0  0  0  0  0  0  0999 V2000
    0.9348   -0.3672    0.6410 O   0  0  0  0  0  0  0  0  0  0  0  0
   -3.8294    1.4141    0.3449 O   0  0  0  0  0  0  0  0  0  0  0  0
   -3.7992    0.2238    0.2559 N   0  0  0  0  0  0  0  0  0  0  0  0
    1.8532    0.0832   -0.3114 C   0  0  0  0  0  0  0  0  0  0  0  0
    3.2386    0.1640    0.3103 C   0  0  0  0  0  0  0  0  0  0  0  0
   -2.7527   -0.4333   -0.4876 C   0  0  0  0  0  0  0  0  0  0  0  0
   -1.4120   -0.2747    0.2166 C   0  0  0  0  0  3  0  0  0  0  0  0
    1.8746   -0.6211   -1.1709 H   0  0  0  0  0  0  0  0  0  0  0  0
    1.5515    1.0900   -0.6732 H   0  0  0  0  0  0  0  0  0  0  0  0
    3.2307    0.8718    1.1662 H   0  0  0  0  0  0  0  0  0  0  0  0
    3.5537   -0.8390    0.6686 H   0  0  0  0  0  0  0  0  0  0  0  0
    3.9684    0.5218   -0.4463 H   0  0  0  0  0  0  0  0  0  0  0  0
   -2.6918   -0.0077   -1.5122 H   0  0  0  0  0  0  0  0  0  0  0  0
   -2.9907   -1.5143   -0.5687 H   0  0  0  0  0  0  0  0  0  0  0  0
   -1.4567   -0.7041    1.2401 H   0  0  0  0  0  0  0  0  0  0  0  0
   -1.1203    0.7957    0.2684 H   0  0  0  0  0  0  0  0  0  0  0  0
   -0.1528   -0.4030    0.0584 H   0  0  0  0  0  0  0  0  0  0  0  0
  1  4  1  0
  1 17  1  0
  2  3  2  0
  3  6  1  0
  4  5  1  0
  4  8  1  0
  4  9  1  0
  5 10  1  0
  5 11  1  0
  5 12  1  0
  6  7  1  0
  6 13  1  0
  6 14  1  0
  7 15  1  0
  7 16  1  0
M  RAD  1   7   2
M  END
>  <reaction>  (17) 
rmg_rxn_384

>  <mol_properties>  (17) 
{"1": {"label": "*0", "atom_type": "Cs"}, "2": {"label": "*1", "atom_type": "O2s"}, "8": {"label": "*3", "atom_type": "Cs"}, "9": {"label": "*4", "atom_type": "Cs"}, "12": {"label": "*2", "atom_type": "H0"}}

>  <type>  (17) 
unop_13

>  <geom_source>  (17) 
AutoTST

$$$$

     RDKit          3D

 17 15  0  0  0  0  0  0  0  0999 V2000
   -1.9112    0.7538    0.8920 C   0  0  0  0  0  0  0  0  0  0  0  0
   -1.8758    0.3696   -0.5757 C   0  0  0  0  0  0  0  0  0  0  0  0
   -0.8145    0.9852   -1.2791 O   0  0  0  0  0  0  0  0  0  0  0  0
   -1.9797    1.8369    1.0021 H   0  0  0  0  0  0  0  0  0  0  0  0
   -2.7701    0.2979    1.3889 H   0  0  0  0  0  0  0  0  0  0  0  0
   -1.0093    0.4129    1.4075 H   0  0  0  0  0  0  0  0  0  0  0  0
   -1.8276   -0.7220   -0.6789 H   0  0  0  0  0  0  0  0  0  0  0  0
   -2.7876    0.7013   -1.0742 H   0  0  0  0  0  0  0  0  0  0  0  0
    1.1705    1.0091    0.1701 C   0  0  0  0  0  3  0  0  0  0  0  0
    1.1705   -0.1678    1.1169 C   0  0  0  0  0  0  0  0  0  0  0  0
    1.1705   -1.5160    0.4996 N   0  0  0  0  0  0  0  0  0  0  0  0
    1.1705   -1.5160   -0.6934 O   0  0  0  0  0  0  0  0  0  0  0  0
    0.1144    0.9964   -0.6010 H   0  0  0  0  0  0  0  0  0  0  0  0
    1.1705    1.9376    0.7416 H   0  0  0  0  0  0  0  0  0  0  0  0
    2.0507    0.9985   -0.4724 H   0  0  0  0  0  0  0  0  0  0  0  0
    0.2993   -0.1827    1.7799 H   0  0  0  0  0  0  0  0  0  0  0  0
    2.0417   -0.1827    1.7799 H   0  0  0  0  0  0  0  0  0  0  0  0
  1  2  1  0
  1  4  1  0
  1  5  1  0
  1  6  1  0
  2  3  1  0
  2  7  1  0
  2  8  1  0
  3 13  1  0
  9 10  1  0
  9 14  1  0
  9 15  1  0
 10 11  1  0
 10 16  1  0
 10 17  1  0
 11 12  2  0
M  RAD  1   9   2
M  END
>  <reaction>  (18) 
rmg_rxn_384

>  <mol_properties>  (18) 
{"1": {"label": "*0", "atom_type": "Cs"}, "2": {"label": "*1", "atom_type": "O2s"}, "8": {"label": "*3", "atom_type": "Cs"}, "9": {"label": "*4", "atom_type": "Cs"}, "12": {"label": "*2", "atom_type": "H0"}}

>  <type>  (18) 
unop_14

>  <geom_source>  (18) 
gaussian_log

$$$$
