
     RDKit          3D

  9  8  0  0  0  0  0  0  0  0999 V2000
   -1.0314    0.2323   -0.1227 C   0  0  0  0  0  0  0  0  0  0  0  0
    0.3094   -0.4511    0.0063 C   0  0  0  0  0  0  0  0  0  0  0  0
    0.3197   -1.7698    0.6841 N   0  0  0  0  0  0  0  0  0  0  0  0
   -0.7498   -2.1455    1.0557 O   0  0  0  0  0  0  0  0  0  0  0  0
   -1.4744    0.4198    0.8552 H   0  0  0  0  0  0  0  0  0  0  0  0
   -0.9073    1.1865   -0.6350 H   0  0  0  0  0  0  0  0  0  0  0  0
   -1.7319   -0.3778   -0.6927 H   0  0  0  0  0  0  0  0  0  0  0  0
    1.0375    0.1401    0.5713 H   0  0  0  0  0  0  0  0  0  0  0  0
    0.7826   -0.6494   -0.9609 H   0  0  0  0  0  0  0  0  0  0  0  0
  1  2  1  0
  1  5  1  0
  1  6  1  0
  1  7  1  0
  2  3  1  0
  2  8  1  0
  2  9  1  0
  3  4  2  0
M  END
>  <reaction>  (1) 
rmg_rxn_49

>  <mol_properties>  (1) 
{"1": {"label": "donator", "atom_type": "Cs"}, "7": {"label": "d_hydrogen", "atom_type": "H0"}}

>  <type>  (1) 
r1h

$$$$

     RDKit          3D

  8  7  0  0  0  0  0  0  0  0999 V2000
   -0.9728    0.1768    0.1542 C   0  0  0  0  0  0  0  0  0  0  0  0
    0.4518   -0.2348    0.0047 C   0  0  0  0  0  3  0  0  0  0  0  0
    1.3116    0.0208    0.9062 N   0  0  0  0  0  2  0  0  0  0  0  0
    2.5018   -0.1901    1.0428 O   0  0  0  0  0  1  0  0  0  0  0  0
   -1.2701    0.8423   -0.6593 H   0  0  0  0  0  0  0  0  0  0  0  0
   -1.6318   -0.6936    0.1212 H   0  0  0  0  0  0  0  0  0  0  0  0
   -1.1258    0.6936    1.1003 H   0  0  0  0  0  0  0  0  0  0  0  0
    0.7882   -0.7655   -0.8838 H   0  0  0  0  0  0  0  0  0  0  0  0
  1  2  1  0
  1  7  1  0
  1  6  1  0
  1  5  1  0
  2  3  1  0
  2  8  1  0
  3  4  1  0
M  RAD  3   2   2   3   2   4   2
M  END
>  <reaction>  (2) 
rmg_rxn_49

>  <mol_properties>  (2) 
{"3": {"label": "acceptor", "atom_type": "O2s"}}

>  <type>  (2) 
r2

$$$$

     RDKit          3D

  9  8  0  0  0  0  0  0  0  0999 V2000
   -1.2461    0.5037    0.0950 C   0  0  0  0  0  0  0  0  0  0  0  0
   -0.0155   -0.3334    0.0640 C   0  0  0  0  0  0  0  0  0  0  0  0
    1.0697    0.1457   -0.3733 N   0  0  0  0  0  0  0  0  0  0  0  0
    2.1001   -0.7834   -0.3224 O   0  0  0  0  0  0  0  0  0  0  0  0
   -2.0357    0.0440   -0.5039 H   0  0  0  0  0  0  0  0  0  0  0  0
   -1.6237    0.5897    1.1166 H   0  0  0  0  0  0  0  0  0  0  0  0
   -1.0397    1.4998   -0.2929 H   0  0  0  0  0  0  0  0  0  0  0  0
   -0.0537   -1.3634    0.4205 H   0  0  0  0  0  0  0  0  0  0  0  0
    2.8478   -0.2985   -0.6758 H   0  0  0  0  0  0  0  0  0  0  0  0
  1  2  1  0
  1  5  1  0
  1  6  1  0
  1  7  1  0
  2  3  2  3
  2  8  1  0
  3  4  1  0
  4  9  1  0
M  END
>  <reaction>  (3) 
rmg_rxn_49

>  <mol_properties>  (3) 
{"3": {"label": "acceptor", "atom_type": "O2s"}, "8": {"label": "a_hydrogen", "atom_type": "H0"}}

>  <type>  (3) 
r2h

$$$$

     RDKit          3D

 17 15  0  0  0  0  0  0  0  0999 V2000
    1.8806    0.3761    2.3829 C   0  0  0  0  0  0  0  0  0  0  0  0
    1.5695   -0.8908    1.6621 C   0  0  0  0  0  3  0  0  0  0  0  0
    0.6642   -0.9358    0.7746 N   0  0  0  0  0  2  0  0  0  0  0  0
    0.3253   -1.9708    0.1085 O   0  0  0  0  0  1  0  0  0  0  0  0
    1.7339    0.2518    3.4584 H   0  0  0  0  0  0  0  0  0  0  0  0
    2.9244    0.6598    2.2295 H   0  0  0  0  0  0  0  0  0  0  0  0
    1.2449    1.1872    2.0329 H   0  0  0  0  0  0  0  0  0  0  0  0
    2.1229   -1.8002    1.8908 H   0  0  0  0  0  0  0  0  0  0  0  0
   -1.3656   -0.0737   -2.3625 C   0  0  0  0  0  0  0  0  0  0  0  0
   -1.3115   -0.3235   -0.8744 C   0  0  0  0  0  0  0  0  0  0  0  0
   -0.5919    0.5755   -0.1278 N   0  0  0  0  0  2  0  0  0  0  0  0
    0.0713    1.4913   -0.5163 O   0  0  0  0  0  1  0  0  0  0  0  0
   -0.3619   -0.0659   -2.7879 H   0  0  0  0  0  0  0  0  0  0  0  0
   -1.9326   -0.8710   -2.8412 H   0  0  0  0  0  0  0  0  0  0  0  0
   -1.8407    0.8820   -2.5946 H   0  0  0  0  0  0  0  0  0  0  0  0
   -0.6132   -1.3578   -0.5896 H   0  0  0  0  0  0  0  0  0  0  0  0
   -2.2426   -0.5612   -0.3633 H   0  0  0  0  0  0  0  0  0  0  0  0
  1  2  1  0
  1  7  1  0
  1  6  1  0
  1  5  1  0
  2  3  1  0
  2  8  1  0
  3  4  1  0
  9 14  1  0
  9 15  1  0
  9 10  1  0
  9 13  1  0
 10 16  1  0
 10 17  1  0
 10 11  1  0
 11 12  1  0
M  RAD  5   2   2   3   2   4   2  11   2  12   2
M  END
>  <reaction>  (4) 
rmg_rxn_49

>  <mol_properties>  (4) 
{"2": {"label": "*4", "atom_type": "N3s"}, "3": {"label": "*3", "atom_type": "O2s"}, "9": {"label": "*1", "atom_type": "Cs"}, "10": {"label": "*0", "atom_type": "N3s"}, "15": {"label": "*2", "atom_type": "H0"}}

>  <type>  (4) 
ts

$$$$

     RDKit          3D

 17 15  0  0  0  0  0  0  0  0999 V2000
    2.3020    0.0760    2.7524 C   0  0  0  0  0  0  0  0  0  0  0  0
    1.6119   -0.8386    1.8019 C   0  0  0  0  0  0  0  0  0  0  0  0
    1.1855   -0.4026    0.6946 N   0  0  0  0  0  0  0  0  0  0  0  0
    0.5735   -1.4013   -0.0509 O   0  0  0  0  0  0  0  0  0  0  0  0
    1.7698    0.1079    3.7060 H   0  0  0  0  0  0  0  0  0  0  0  0
    3.3139   -0.2804    2.9586 H   0  0  0  0  0  0  0  0  0  0  0  0
    2.3563    1.0827    2.3416 H   0  0  0  0  0  0  0  0  0  0  0  0
    1.4752   -1.8882    2.0651 H   0  0  0  0  0  0  0  0  0  0  0  0
   -1.3873   -0.2595   -2.5227 C   0  0  0  0  0  0  0  0  0  0  0  0
   -1.3873   -0.2595   -1.0123 C   0  0  0  0  0  0  0  0  0  0  0  0
   -1.3873    1.0665   -0.3487 N   0  0  0  0  0  0  0  0  0  0  0  0
   -1.3873    1.9960   -1.0964 O   0  0  0  0  0  1  0  0  0  0  0  0
   -0.5071    0.2479   -2.9172 H   0  0  0  0  0  0  0  0  0  0  0  0
   -1.3873   -1.2866   -2.8880 H   0  0  0  0  0  0  0  0  0  0  0  0
   -2.2674    0.2479   -2.9172 H   0  0  0  0  0  0  0  0  0  0  0  0
   -0.3418   -0.8683   -0.4997 H   0  0  0  0  0  0  0  0  0  0  0  0
   -2.2585   -0.7668   -0.5851 H   0  0  0  0  0  0  0  0  0  0  0  0
  1  2  1  0
  1  5  1  0
  1  6  1  0
  1  7  1  0
  2  3  2  3
  2  8  1  0
  3  4  1  0
  4 16  1  0
  9 10  1  0
  9 13  1  0
  9 14  1  0
  9 15  1  0
 10 11  2  3
 10 17  1  0
 11 12  1  0
M  RAD  1  12   2
M  END
>  <reaction>  (5) 
rmg_rxn_49

>  <mol_properties>  (5) 
{"2": {"label": "*4", "atom_type": "N3s"}, "3": {"label": "*3", "atom_type": "O2s"}, "9": {"label": "*1", "atom_type": "Cs"}, "10": {"label": "*0", "atom_type": "N3s"}, "15": {"label": "*2", "atom_type": "H0"}}

>  <type>  (5) 
unop_1

>  <geom_source>  (5) 
Heuristics

$$$$

     RDKit          3D

 17 15  0  0  0  0  0  0  0  0999 V2000
    3.5375   -0.8441   -0.3860 C   0  0  0  0  0  0  0  0  0  0  0  0
    2.3377   -1.0262    0.4762 C   0  0  0  0  0  0  0  0  0  0  0  0
    1.1783   -0.8888   -0.0087 N   0  0  0  0  0  0  0  0  0  0  0  0
    0.1927   -1.0972    0.9467 O   0  0  0  0  0  0  0  0  0  0  0  0
    4.1715   -0.0452    0.0058 H   0  0  0  0  0  0  0  0  0  0  0  0
    4.1389   -1.7560   -0.4010 H   0  0  0  0  0  0  0  0  0  0  0  0
    3.2416   -0.5963   -1.4040 H   0  0  0  0  0  0  0  0  0  0  0  0
    2.4630   -1.2791    1.5297 H   0  0  0  0  0  0  0  0  0  0  0  0
   -1.7681    0.0447   -1.5252 C   0  0  0  0  0  0  0  0  0  0  0  0
   -1.7681    0.0447   -0.0147 C   0  0  0  0  0  0  0  0  0  0  0  0
   -1.7681    1.3706    0.6488 N   0  0  0  0  0  0  0  0  0  0  0  0
   -1.7681    2.3002   -0.0989 O   0  0  0  0  0  1  0  0  0  0  0  0
   -0.8880    0.5520   -1.9197 H   0  0  0  0  0  0  0  0  0  0  0  0
   -1.7681   -0.9825   -1.8905 H   0  0  0  0  0  0  0  0  0  0  0  0
   -2.6483    0.5520   -1.9197 H   0  0  0  0  0  0  0  0  0  0  0  0
   -0.7227   -0.5641    0.4978 H   0  0  0  0  0  0  0  0  0  0  0  0
   -2.6393   -0.4627    0.4124 H   0  0  0  0  0  0  0  0  0  0  0  0
  1  2  1  0
  1  5  1  0
  1  6  1  0
  1  7  1  0
  2  3  2  3
  2  8  1  0
  3  4  1  0
  4 16  1  0
  9 10  1  0
  9 13  1  0
  9 14  1  0
  9 15  1  0
 10 11  2  3
 10 17  1  0
 11 12  1  0
M  RAD  1  12   2
M  END
>  <reaction>  (6) 
rmg_rxn_49

>  <mol_properties>  (6) 
{"2": {"label": "*4", "atom_type": "N3s"}, "3": {"label": "*3", "atom_type": "O2s"}, "9": {"label": "*1", "atom_type": "Cs"}, "10": {"label": "*0", "atom_type": "N3s"}, "15": {"label": "*2", "atom_type": "H0"}}

>  <type>  (6) 
unop_2

>  <geom_source>  (6) 
Heuristics

$$$$

     RDKit          3D

 17 15  0  0  0  0  0  0  0  0999 V2000
    1.7762   -0.7059    3.2217 C   0  0  0  0  0  0  0  0  0  0  0  0
    1.4801   -1.2331    1.8614 C   0  0  0  0  0  0  0  0  0  0  0  0
    0.9420   -0.4884    0.9930 N   0  0  0  0  0  0  0  0  0  0  0  0
    0.7459   -1.1565   -0.2081 O   0  0  0  0  0  0  0  0  0  0  0  0
    1.2539   -1.2928    3.9807 H   0  0  0  0  0  0  0  0  0  0  0  0
    2.8451   -0.7792    3.4352 H   0  0  0  0  0  0  0  0  0  0  0  0
    1.4680    0.3351    3.3027 H   0  0  0  0  0  0  0  0  0  0  0  0
    1.7295   -2.2661    1.6163 H   0  0  0  0  0  0  0  0  0  0  0  0
   -1.2149   -0.0147   -2.6800 C   0  0  0  0  0  0  0  0  0  0  0  0
   -1.2149   -0.0147   -1.1695 C   0  0  0  0  0  0  0  0  0  0  0  0
   -1.2149    1.3112   -0.5059 N   0  0  0  0  0  0  0  0  0  0  0  0
   -1.2149    2.2408   -1.2536 O   0  0  0  0  0  1  0  0  0  0  0  0
   -0.3348    0.4927   -3.0745 H   0  0  0  0  0  0  0  0  0  0  0  0
   -1.2149   -1.0419   -3.0452 H   0  0  0  0  0  0  0  0  0  0  0  0
   -2.0950    0.4927   -3.0745 H   0  0  0  0  0  0  0  0  0  0  0  0
   -0.1695   -0.6235   -0.6569 H   0  0  0  0  0  0  0  0  0  0  0  0
   -2.0861   -0.5220   -0.7423 H   0  0  0  0  0  0  0  0  0  0  0  0
  1  2  1  0
  1  5  1  0
  1  6  1  0
  1  7  1  0
  2  3  2  3
  2  8  1  0
  3  4  1  0
  4 16  1  0
  9 10  1  0
  9 13  1  0
  9 14  1  0
  9 15  1  0
 10 11  2  3
 10 17  1  0
 11 12  1  0
M  RAD  1  12   2
M  END
>  <reaction>  (7) 
rmg_rxn_49

>  <mol_properties>  (7) 
{"2": {"label": "*4", "atom_type": "N3s"}, "3": {"label": "*3", "atom_type": "O2s"}, "9": {"label": "*1", "atom_type": "Cs"}, "10": {"label": "*0", "atom_type": "N3s"}, "15": {"label": "*2", "atom_type": "H0"}}

>  <type>  (7) 
unop_3

>  <geom_source>  (7) 
Heuristics

$$$$

     RDKit          3D

 17 15  0  0  0  0  0  0  0  0999 V2000
    1.1855   -3.7710    0.6225 C   0  0  0  0  0  0  0  0  0  0  0  0
    1.2213   -2.3226    0.9648 C   0  0  0  0  0  0  0  0  0  0  0  0
    0.8224   -1.4610    0.1302 N   0  0  0  0  0  0  0  0  0  0  0  0
    0.9331   -0.1704    0.6298 O   0  0  0  0  0  0  0  0  0  0  0  0
    2.1884   -4.2008    0.6760 H   0  0  0  0  0  0  0  0  0  0  0  0
    0.5616   -4.3162    1.3345 H   0  0  0  0  0  0  0  0  0  0  0  0
    0.7895   -3.9160   -0.3812 H   0  0  0  0  0  0  0  0  0  0  0  0
    1.5937   -2.0072    1.9401 H   0  0  0  0  0  0  0  0  0  0  0  0
   -1.0277    0.9715   -1.8421 C   0  0  0  0  0  0  0  0  0  0  0  0
   -1.0277    0.9715   -0.3316 C   0  0  0  0  0  0  0  0  0  0  0  0
   -1.0277    2.2974    0.3320 N   0  0  0  0  0  0  0  0  0  0  0  0
   -1.0277    3.2270   -0.4157 O   0  0  0  0  0  1  0  0  0  0  0  0
   -0.1476    1.4788   -2.2366 H   0  0  0  0  0  0  0  0  0  0  0  0
   -1.0277   -0.0557   -2.2074 H   0  0  0  0  0  0  0  0  0  0  0  0
   -1.9078    1.4788   -2.2366 H   0  0  0  0  0  0  0  0  0  0  0  0
    0.0177    0.3627    0.1810 H   0  0  0  0  0  0  0  0  0  0  0  0
   -1.8989    0.4641    0.0955 H   0  0  0  0  0  0  0  0  0  0  0  0
  1  2  1  0
  1  5  1  0
  1  6  1  0
  1  7  1  0
  2  3  2  3
  2  8  1  0
  3  4  1  0
  4 16  1  0
  9 10  1  0
  9 13  1  0
  9 14  1  0
  9 15  1  0
 10 11  2  3
 10 17  1  0
 11 12  1  0
M  RAD  1  12   2
M  END
>  <reaction>  (8) 
rmg_rxn_49

>  <mol_properties>  (8) 
{"2": {"label": "*4", "atom_type": "N3s"}, "3": {"label": "*3", "atom_type": "O2s"}, "9": {"label": "*1", "atom_type": "Cs"}, "10": {"label": "*0", "atom_type": "N3s"}, "15": {"label": "*2", "atom_type": "H0"}}

>  <type>  (8) 
unop_4

>  <geom_source>  (8) 
Heuristics

$$$$

     RDKit          3D

 17 15  0  0  0  0  0  0  0  0999 V2000
    1.5294   -1.3486    3.2853 C   0  0  0  0  0  0  0  0  0  0  0  0
    1.5602   -1.3665    1.7970 C   0  0  0  0  0  0  0  0  0  0  0  0
    0.6299   -0.8247    1.1343 N   0  0  0  0  0  0  0  0  0  0  0  0
    0.8351   -0.9442   -0.2336 O   0  0  0  0  0  0  0  0  0  0  0  0
    1.5315   -2.3674    3.6795 H   0  0  0  0  0  0  0  0  0  0  0  0
    2.4166   -0.8475    3.6795 H   0  0  0  0  0  0  0  0  0  0  0  0
    0.6406   -0.8310    3.6422 H   0  0  0  0  0  0  0  0  0  0  0  0
    2.3899   -1.8496    1.2797 H   0  0  0  0  0  0  0  0  0  0  0  0
   -1.1257    0.1976   -2.7055 C   0  0  0  0  0  0  0  0  0  0  0  0
   -1.1257    0.1976   -1.1950 C   0  0  0  0  0  0  0  0  0  0  0  0
   -1.1257    1.5236   -0.5314 N   0  0  0  0  0  0  0  0  0  0  0  0
   -1.1257    2.4531   -1.2791 O   0  0  0  0  0  1  0  0  0  0  0  0
   -0.2456    0.7050   -3.1000 H   0  0  0  0  0  0  0  0  0  0  0  0
   -1.1257   -0.8295   -3.0708 H   0  0  0  0  0  0  0  0  0  0  0  0
   -2.0059    0.7050   -3.1000 H   0  0  0  0  0  0  0  0  0  0  0  0
   -0.0803   -0.4112   -0.6824 H   0  0  0  0  0  0  0  0  0  0  0  0
   -1.9969   -0.3097   -0.7678 H   0  0  0  0  0  0  0  0  0  0  0  0
  1  2  1  0
  1  5  1  0
  1  6  1  0
  1  7  1  0
  2  3  2  3
  2  8  1  0
  3  4  1  0
  4 16  1  0
  9 10  1  0
  9 13  1  0
  9 14  1  0
  9 15  1  0
 10 11  2  3
 10 17  1  0
 11 12  1  0
M  RAD  1  12   2
M  END
>  <reaction>  (9) 
rmg_rxn_49

>  <mol_properties>  (9) 
{"2": {"label": "*4", "atom_type": "N3s"}, "3": {"label": "*3", "atom_type": "O2s"}, "9": {"label": "*1", "atom_type": "Cs"}, "10": {"label": "*0", "atom_type": "N3s"}, "15": {"label": "*2", "atom_type": "H0"}}

>  <type>  (9) 
unop_5

>  <geom_source>  (9) 
Heuristics

$$$$

     RDKit          3D

 17 15  0  0  0  0  0  0  0  0999 V2000
    0.6772   -3.4885    1.8002 C   0  0  0  0  0  0  0  0  0  0  0  0
    1.0367   -2.0814    1.4731 C   0  0  0  0  0  0  0  0  0  0  0  0
    0.6666   -1.5675    0.3790 N   0  0  0  0  0  0  0  0  0  0  0  0
    1.0964   -0.2530    0.2561 O   0  0  0  0  0  0  0  0  0  0  0  0
    1.5781   -4.0854    1.9602 H   0  0  0  0  0  0  0  0  0  0  0  0
    0.0945   -3.5289    2.7234 H   0  0  0  0  0  0  0  0  0  0  0  0
    0.0960   -3.9312    0.9931 H   0  0  0  0  0  0  0  0  0  0  0  0
    1.6216   -1.4945    2.1823 H   0  0  0  0  0  0  0  0  0  0  0  0
   -0.8644    0.8888   -2.2158 C   0  0  0  0  0  0  0  0  0  0  0  0
   -0.8644    0.8888   -0.7053 C   0  0  0  0  0  0  0  0  0  0  0  0
   -0.8644    2.2147   -0.0417 N   0  0  0  0  0  0  0  0  0  0  0  0
   -0.8644    3.1443   -0.7894 O   0  0  0  0  0  1  0  0  0  0  0  0
    0.0157    1.3961   -2.6103 H   0  0  0  0  0  0  0  0  0  0  0  0
   -0.8644   -0.1384   -2.5811 H   0  0  0  0  0  0  0  0  0  0  0  0
   -1.7445    1.3961   -2.6103 H   0  0  0  0  0  0  0  0  0  0  0  0
    0.1810    0.2800   -0.1927 H   0  0  0  0  0  0  0  0  0  0  0  0
   -1.7356    0.3815   -0.2782 H   0  0  0  0  0  0  0  0  0  0  0  0
  1  2  1  0
  1  5  1  0
  1  6  1  0
  1  7  1  0
  2  3  2  3
  2  8  1  0
  3  4  1  0
  4 16  1  0
  9 10  1  0
  9 13  1  0
  9 14  1  0
  9 15  1  0
 10 11  2  3
 10 17  1  0
 11 12  1  0
M  RAD  1  12   2
M  END
>  <reaction>  (10) 
rmg_rxn_49

>  <mol_properties>  (10) 
{"2": {"label": "*4", "atom_type": "N3s"}, "3": {"label": "*3", "atom_type": "O2s"}, "9": {"label": "*1", "atom_type": "Cs"}, "10": {"label": "*0", "atom_type": "N3s"}, "15": {"label": "*2", "atom_type": "H0"}}

>  <type>  (10) 
unop_6

>  <geom_source>  (10) 
Heuristics

$$$$

     RDKit          3D

 17 15  0  0  0  0  0  0  0  0999 V2000
    0.6718   -2.7235    2.7524 C   0  0  0  0  0  0  0  0  0  0  0  0
    1.1266   -1.6719    1.8019 C   0  0  0  0  0  0  0  0  0  0  0  0
    0.5370   -1.5163    0.6946 N   0  0  0  0  0  0  0  0  0  0  0  0
    1.1035   -0.4912   -0.0509 O   0  0  0  0  0  0  0  0  0  0  0  0
    1.4811   -3.4277    2.9586 H   0  0  0  0  0  0  0  0  0  0  0  0
    0.3813   -2.2765    3.7060 H   0  0  0  0  0  0  0  0  0  0  0  0
   -0.1770   -3.2677    2.3416 H   0  0  0  0  0  0  0  0  0  0  0  0
    1.9720   -1.0351    2.0651 H   0  0  0  0  0  0  0  0  0  0  0  0
   -0.8573    0.6507   -2.5227 C   0  0  0  0  0  0  0  0  0  0  0  0
   -0.8573    0.6507   -1.0123 C   0  0  0  0  0  0  0  0  0  0  0  0
   -0.8573    1.9766   -0.3487 N   0  0  0  0  0  0  0  0  0  0  0  0
   -0.8573    2.9062   -1.0964 O   0  0  0  0  0  1  0  0  0  0  0  0
    0.0228    1.1580   -2.9172 H   0  0  0  0  0  0  0  0  0  0  0  0
   -0.8573   -0.3765   -2.8880 H   0  0  0  0  0  0  0  0  0  0  0  0
   -1.7374    1.1580   -2.9172 H   0  0  0  0  0  0  0  0  0  0  0  0
    0.1882    0.0419   -0.4997 H   0  0  0  0  0  0  0  0  0  0  0  0
   -1.7285    0.1433   -0.5851 H   0  0  0  0  0  0  0  0  0  0  0  0
  1  2  1  0
  1  5  1  0
  1  6  1  0
  1  7  1  0
  2  3  2  3
  2  8  1  0
  3  4  1  0
  4 16  1  0
  9 10  1  0
  9 13  1  0
  9 14  1  0
  9 15  1  0
 10 11  2  3
 10 17  1  0
 11 12  1  0
M  RAD  1  12   2
M  END
>  <reaction>  (11) 
rmg_rxn_49

>  <mol_properties>  (11) 
{"2": {"label": "*4", "atom_type": "N3s"}, "3": {"label": "*3", "atom_type": "O2s"}, "9": {"label": "*1", "atom_type": "Cs"}, "10": {"label": "*0", "atom_type": "N3s"}, "15": {"label": "*2", "atom_type": "H0"}}

>  <type>  (11) 
unop_7

>  <geom_source>  (11) 
Heuristics

$$$$

     RDKit          3D

 17 15  0  0  0  0  0  0  0  0999 V2000
    2.9700    0.4487    1.8002 C   0  0  0  0  0  0  0  0  0  0  0  0
    1.9236   -0.5584    1.4731 C   0  0  0  0  0  0  0  0  0  0  0  0
    1.2940   -0.4901    0.3790 N   0  0  0  0  0  0  0  0  0  0  0  0
    0.3629   -1.5126    0.2561 O   0  0  0  0  0  0  0  0  0  0  0  0
    2.7175    0.9755    2.7234 H   0  0  0  0  0  0  0  0  0  0  0  0
    3.9338   -0.0402    1.9602 H   0  0  0  0  0  0  0  0  0  0  0  0
    3.0681    1.1727    0.9931 H   0  0  0  0  0  0  0  0  0  0  0  0
    1.7019   -1.3567    2.1823 H   0  0  0  0  0  0  0  0  0  0  0  0
   -1.5979   -0.3708   -2.2158 C   0  0  0  0  0  0  0  0  0  0  0  0
   -1.5979   -0.3708   -0.7053 C   0  0  0  0  0  0  0  0  0  0  0  0
   -1.5979    0.9552   -0.0417 N   0  0  0  0  0  0  0  0  0  0  0  0
   -1.5979    1.8847   -0.7894 O   0  0  0  0  0  1  0  0  0  0  0  0
   -0.7177    0.1366   -2.6103 H   0  0  0  0  0  0  0  0  0  0  0  0
   -1.5979   -1.3980   -2.5811 H   0  0  0  0  0  0  0  0  0  0  0  0
   -2.4780    0.1366   -2.6103 H   0  0  0  0  0  0  0  0  0  0  0  0
   -0.5524   -0.9796   -0.1927 H   0  0  0  0  0  0  0  0  0  0  0  0
   -2.4691   -0.8781   -0.2782 H   0  0  0  0  0  0  0  0  0  0  0  0
  1  2  1  0
  1  5  1  0
  1  6  1  0
  1  7  1  0
  2  3  2  3
  2  8  1  0
  3  4  1  0
  4 16  1  0
  9 10  1  0
  9 13  1  0
  9 14  1  0
  9 15  1  0
 10 11  2  3
 10 17  1  0
 11 12  1  0
M  RAD  1  12   2
M  END
>  <reaction>  (12) 
rmg_rxn_49

>  <mol_properties>  (12) 
{"2": {"label": "*4", "atom_type": "N3s"}, "3": {"label": "*3", "atom_type": "O2s"}, "9": {"label": "*1", "atom_type": "Cs"}, "10": {"label": "*0", "atom_type": "N3s"}, "15": {"label": "*2", "atom_type": "H0"}}

>  <type>  (12) 
unop_8

>  <geom_source>  (12) 
Heuristics

$$$$

     RDKit          3D

 17 15  0  0  0  0  0  0  0  0999 V2000
    2.0817   -3.3441   -0.3860 C   0  0  0  0  0  0  0  0  0  0  0  0
    1.6480   -2.2106    0.4762 C   0  0  0  0  0  0  0  0  0  0  0  0
    0.9563   -1.2701   -0.0087 N   0  0  0  0  0  0  0  0  0  0  0  0
    0.6510   -0.3100    0.9467 O   0  0  0  0  0  0  0  0  0  0  0  0
    3.1717   -3.4170   -0.4010 H   0  0  0  0  0  0  0  0  0  0  0  0
    1.6998   -4.2897    0.0058 H   0  0  0  0  0  0  0  0  0  0  0  0
    1.7202   -3.2090   -1.4040 H   0  0  0  0  0  0  0  0  0  0  0  0
    1.9298   -2.1948    1.5297 H   0  0  0  0  0  0  0  0  0  0  0  0
   -1.3098    0.8318   -1.5252 C   0  0  0  0  0  0  0  0  0  0  0  0
   -1.3098    0.8318   -0.0147 C   0  0  0  0  0  0  0  0  0  0  0  0
   -1.3098    2.1578    0.6488 N   0  0  0  0  0  0  0  0  0  0  0  0
   -1.3098    3.0873   -0.0989 O   0  0  0  0  0  1  0  0  0  0  0  0
   -0.4296    1.3392   -1.9197 H   0  0  0  0  0  0  0  0  0  0  0  0
   -1.3098   -0.1954   -1.8905 H   0  0  0  0  0  0  0  0  0  0  0  0
   -2.1899    1.3392   -1.9197 H   0  0  0  0  0  0  0  0  0  0  0  0
   -0.2643    0.2230    0.4978 H   0  0  0  0  0  0  0  0  0  0  0  0
   -2.1810    0.3245    0.4124 H   0  0  0  0  0  0  0  0  0  0  0  0
  1  2  1  0
  1  5  1  0
  1  6  1  0
  1  7  1  0
  2  3  2  3
  2  8  1  0
  3  4  1  0
  4 16  1  0
  9 10  1  0
  9 13  1  0
  9 14  1  0
  9 15  1  0
 10 11  2  3
 10 17  1  0
 11 12  1  0
M  RAD  1  12   2
M  END
>  <reaction>  (13) 
rmg_rxn_49

>  <mol_properties>  (13) 
{"2": {"label": "*4", "atom_type": "N3s"}, "3": {"label": "*3", "atom_type": "O2s"}, "9": {"label": "*1", "atom_type": "Cs"}, "10": {"label": "*0", "atom_type": "N3s"}, "15": {"label": "*2", "atom_type": "H0"}}

>  <type>  (13) 
unop_9

>  <geom_source>  (13) 
Heuristics

$$$$

     RDKit          3D

 17 15  0  0  0  0  0  0  0  0999 V2000
    3.4665    0.1461    0.6225 C   0  0  0  0  0  0  0  0  0  0  0  0
    2.2245   -0.5999    0.9648 C   0  0  0  0  0  0  0  0  0  0  0  0
    1.2783   -0.6782    0.1302 N   0  0  0  0  0  0  0  0  0  0  0  0
    0.2104   -1.4114    0.6298 O   0  0  0  0  0  0  0  0  0  0  0  0
    3.6328    0.9578    1.3345 H   0  0  0  0  0  0  0  0  0  0  0  0
    4.3354   -0.5140    0.6760 H   0  0  0  0  0  0  0  0  0  0  0  0
    3.3972    0.5620   -0.3812 H   0  0  0  0  0  0  0  0  0  0  0  0
    2.1340   -1.0795    1.9401 H   0  0  0  0  0  0  0  0  0  0  0  0
   -1.7504   -0.2696   -1.8421 C   0  0  0  0  0  0  0  0  0  0  0  0
   -1.7504   -0.2696   -0.3316 C   0  0  0  0  0  0  0  0  0  0  0  0
   -1.7504    1.0564    0.3320 N   0  0  0  0  0  0  0  0  0  0  0  0
   -1.7504    1.9859   -0.4157 O   0  0  0  0  0  1  0  0  0  0  0  0
   -0.8703    0.2378   -2.2366 H   0  0  0  0  0  0  0  0  0  0  0  0
   -1.7504   -1.2967   -2.2074 H   0  0  0  0  0  0  0  0  0  0  0  0
   -2.6305    0.2378   -2.2366 H   0  0  0  0  0  0  0  0  0  0  0  0
   -0.7050   -0.8784    0.1810 H   0  0  0  0  0  0  0  0  0  0  0  0
   -2.6216   -0.7769    0.0955 H   0  0  0  0  0  0  0  0  0  0  0  0
  1  2  1  0
  1  5  1  0
  1  6  1  0
  1  7  1  0
  2  3  2  3
  2  8  1  0
  3  4  1  0
  4 16  1  0
  9 10  1  0
  9 13  1  0
  9 14  1  0
  9 15  1  0
 10 11  2  3
 10 17  1  0
 11 12  1  0
M  RAD  1  12   2
M  END
>  <reaction>  (14) 
rmg_rxn_49

>  <mol_properties>  (14) 
{"2": {"label": "*4", "atom_type": "N3s"}, "3": {"label": "*3", "atom_type": "O2s"}, "9": {"label": "*1", "atom_type": "Cs"}, "10": {"label": "*0", "atom_type": "N3s"}, "15": {"label": "*2", "atom_type": "H0"}}

>  <type>  (14) 
unop_10

>  <geom_source>  (14) 
Heuristics

$$$$

     RDKit          3D

 17 15  0  0  0  0  0  0  0  0999 V2000
    1.0923   -1.8804    3.2217 C   0  0  0  0  0  0  0  0  0  0  0  0
    1.4046   -1.3626    1.8614 C   0  0  0  0  0  0  0  0  0  0  0  0
    0.4914   -1.2622    0.9930 N   0  0  0  0  0  0  0  0  0  0  0  0
    0.9757   -0.7619   -0.2081 O   0  0  0  0  0  0  0  0  0  0  0  0
    1.6836   -2.7739    3.4352 H   0  0  0  0  0  0  0  0  0  0  0  0
    1.3450   -1.1364    3.9807 H   0  0  0  0  0  0  0  0  0  0  0  0
    0.0347   -2.1261    3.3027 H   0  0  0  0  0  0  0  0  0  0  0  0
    2.4262   -1.0697    1.6163 H   0  0  0  0  0  0  0  0  0  0  0  0
   -0.9851    0.3800   -2.6800 C   0  0  0  0  0  0  0  0  0  0  0  0
   -0.9851    0.3800   -1.1695 C   0  0  0  0  0  0  0  0  0  0  0  0
   -0.9851    1.7059   -0.5059 N   0  0  0  0  0  0  0  0  0  0  0  0
   -0.9851    2.6355   -1.2536 O   0  0  0  0  0  1  0  0  0  0  0  0
   -0.1050    0.8873   -3.0745 H   0  0  0  0  0  0  0  0  0  0  0  0
   -0.9851   -0.6472   -3.0452 H   0  0  0  0  0  0  0  0  0  0  0  0
   -1.8652    0.8873   -3.0745 H   0  0  0  0  0  0  0  0  0  0  0  0
    0.0603   -0.2288   -0.6569 H   0  0  0  0  0  0  0  0  0  0  0  0
   -1.8563   -0.1274   -0.7423 H   0  0  0  0  0  0  0  0  0  0  0  0
  1  2  1  0
  1  5  1  0
  1  6  1  0
  1  7  1  0
  2  3  2  3
  2  8  1  0
  3  4  1  0
  4 16  1  0
  9 10  1  0
  9 13  1  0
  9 14  1  0
  9 15  1  0
 10 11  2  3
 10 17  1  0
 11 12  1  0
M  RAD  1  12   2
M  END
>  <reaction>  (15) 
rmg_rxn_49

>  <mol_properties>  (15) 
{"2": {"label": "*4", "atom_type": "N3s"}, "3": {"label": "*3", "atom_type": "O2s"}, "9": {"label": "*1", "atom_type": "Cs"}, "10": {"label": "*0", "atom_type": "N3s"}, "15": {"label": "*2", "atom_type": "H0"}}

>  <type>  (15) 
unop_11

>  <geom_source>  (15) 
Heuristics

$$$$

     RDKit          3D

 17 15  0  0  0  0  0  0  0  0999 V2000
    3.0237   -2.2187   -0.7958 C   0  0  0  0  0  0  0  0  0  0  0  0
    2.1211   -1.6931    0.2650 C   0  0  0  0  0  0  0  0  0  0  0  0
    1.0625   -1.0767   -0.0474 N   0  0  0  0  0  0  0  0  0  0  0  0
    0.3560   -0.6653    1.0747 O   0  0  0  0  0  0  0  0  0  0  0  0
    4.0202   -1.7814   -0.7003 H   0  0  0  0  0  0  0  0  0  0  0  0
    3.1352   -3.3013   -0.7003 H   0  0  0  0  0  0  0  0  0  0  0  0
    2.6270   -1.9877   -1.7830 H   0  0  0  0  0  0  0  0  0  0  0  0
    2.3771   -1.8422    1.3147 H   0  0  0  0  0  0  0  0  0  0  0  0
   -1.6048    0.4766   -1.3972 C   0  0  0  0  0  0  0  0  0  0  0  0
   -1.6048    0.4766    0.1133 C   0  0  0  0  0  0  0  0  0  0  0  0
   -1.6048    1.8025    0.7769 N   0  0  0  0  0  0  0  0  0  0  0  0
   -1.6048    2.7321    0.0292 O   0  0  0  0  0  1  0  0  0  0  0  0
   -0.7246    0.9839   -1.7917 H   0  0  0  0  0  0  0  0  0  0  0  0
   -1.6048   -0.5506   -1.7625 H   0  0  0  0  0  0  0  0  0  0  0  0
   -2.4849    0.9839   -1.7917 H   0  0  0  0  0  0  0  0  0  0  0  0
   -0.5593   -0.1322    0.6259 H   0  0  0  0  0  0  0  0  0  0  0  0
   -2.4760   -0.0308    0.5405 H   0  0  0  0  0  0  0  0  0  0  0  0
  1  2  1  0
  1  5  1  0
  1  6  1  0
  1  7  1  0
  2  3  2  3
  2  8  1  0
  3  4  1  0
  4 16  1  0
  9 10  1  0
  9 13  1  0
  9 14  1  0
  9 15  1  0
 10 11  2  3
 10 17  1  0
 11 12  1  0
M  RAD  1  12   2
M  END
>  <reaction>  (16) 
rmg_rxn_49

>  <mol_properties>  (16) 
{"2": {"label": "*4", "atom_type": "N3s"}, "3": {"label": "*3", "atom_type": "O2s"}, "9": {"label": "*1", "atom_type": "Cs"}, "10": {"label": "*0", "atom_type": "N3s"}, "15": {"label": "*2", "atom_type": "H0"}}

>  <type>  (16) 
unop_12

>  <geom_source>  (16) 
Heuristics

$$$$

     RDKit          3D

 17 15  0  0  0  0  0  0  0  0999 V2000
   -0.1312   -0.5632   -0.9704 O   0  0  0  0  0  0  0  0  0  0  0  0
    3.1867   -1.5583   -1.6574 O   0  0  0  0  0  1  0  0  0  0  0  0
   -1.1478   -0.0450   -0.2029 N   0  0  0  0  0  0  0  0  0  0  0  0
    3.1948   -0.5829   -0.9705 N   0  0  0  0  0  0  0  0  0  0  0  0
   -3.4607    0.1277    0.4641 C   0  0  0  0  0  0  0  0  0  0  0  0
    2.3029    1.0167    0.6185 C   0  0  0  0  0  0  0  0  0  0  0  0
   -2.3667   -0.4409   -0.3736 C   0  0  0  0  0  0  0  0  0  0  0  0
    2.1024   -0.3228   -0.0707 C   0  0  0  0  0  0  0  0  0  0  0  0
   -4.4307   -0.3290    0.1764 H   0  0  0  0  0  0  0  0  0  0  0  0
   -3.2638   -0.0864    1.5355 H   0  0  0  0  0  0  0  0  0  0  0  0
   -3.5187    1.2260    0.3119 H   0  0  0  0  0  0  0  0  0  0  0  0
    2.3479    1.8283   -0.1379 H   0  0  0  0  0  0  0  0  0  0  0  0
    1.4500    1.2113    1.3014 H   0  0  0  0  0  0  0  0  0  0  0  0
    3.2445    1.0082    1.2081 H   0  0  0  0  0  0  0  0  0  0  0  0
   -2.5981   -1.1865   -1.1251 H   0  0  0  0  0  0  0  0  0  0  0  0
    2.0397   -1.1320    0.6887 H   0  0  0  0  0  0  0  0  0  0  0  0
    1.0489   -0.1715   -0.7962 H   0  0  0  0  0  0  0  0  0  0  0  0
  1  3  1  0
  1 17  1  0
  2  4  1  0
  3  7  2  3
  4  8  2  3
  5  7  1  0
  5  9  1  0
  5 10  1  0
  5 11  1  0
  6  8  1  0
  6 12  1  0
  6 13  1  0
  6 14  1  0
  7 15  1  0
  8 16  1  0
M  RAD  1   2   2
M  END
>  <reaction>  (17) 
rmg_rxn_49

>  <mol_properties>  (17) 
{"2": {"label": "*4", "atom_type": "N3s"}, "3": {"label": "*3", "atom_type": "O2s"}, "9": {"label": "*1", "atom_type": "Cs"}, "10": {"label": "*0", "atom_type": "N3s"}, "15": {"label": "*2", "atom_type": "H0"}}

>  <type>  (17) 
unop_13

>  <geom_source>  (17) 
AutoTST

$$$$

     RDKit          3D

 17 15  0  0  0  0  0  0  0  0999 V2000
    3.5375   -0.8441   -0.3860 C   0  0  0  0  0  0  0  0  0  0  0  0
    2.3377   -1.0262    0.4762 C   0  0  0  0  0  0  0  0  0  0  0  0
    1.1783   -0.8888   -0.0086 N   0  0  0  0  0  0  0  0  0  0  0  0
    0.1927   -1.0972    0.9467 O   0  0  0  0  0  0  0  0  0  0  0  0
    4.1715   -0.0452    0.0058 H   0  0  0  0  0  0  0  0  0  0  0  0
    4.1389   -1.7560   -0.4010 H   0  0  0  0  0  0  0  0  0  0  0  0
    3.2416   -0.5963   -1.4040 H   0  0  0  0  0  0  0  0  0  0  0  0
    2.4630   -1.2791    1.5297 H   0  0  0  0  0  0  0  0  0  0  0  0
   -1.7681    0.0447   -1.5252 C   0  0  0  0  0  0  0  0  0  0  0  0
   -1.7681    0.0447   -0.0147 C   0  0  0  0  0  0  0  0  0  0  0  0
   -1.7681    1.3706    0.6489 N   0  0  0  0  0  0  0  0  0  0  0  0
   -1.7681    2.3002   -0.0988 O   0  0  0  0  0  1  0  0  0  0  0  0
   -0.8880    0.5520   -1.9197 H   0  0  0  0  0  0  0  0  0  0  0  0
   -1.7681   -0.9825   -1.8905 H   0  0  0  0  0  0  0  0  0  0  0  0
   -2.6483    0.5520   -1.9197 H   0  0  0  0  0  0  0  0  0  0  0  0
   -0.7227   -0.5641    0.4979 H   0  0  0  0  0  0  0  0  0  0  0  0
   -2.6393   -0.4627    0.4124 H   0  0  0  0  0  0  0  0  0  0  0  0
  1  2  1  0
  1  5  1  0
  1  6  1  0
  1  7  1  0
  2  3  2  3
  2  8  1  0
  3  4  1  0
  4 16  1  0
  9 10  1  0
  9 13  1  0
  9 14  1  0
  9 15  1  0
 10 11  2  3
 10 17  1  0
 11 12  1  0
M  RAD  1  12   2
M  END
>  <reaction>  (18) 
rmg_rxn_49

>  <mol_properties>  (18) 
{"2": {"label": "*4", "atom_type": "N3s"}, "3": {"label": "*3", "atom_type": "O2s"}, "9": {"label": "*1", "atom_type": "Cs"}, "10": {"label": "*0", "atom_type": "N3s"}, "15": {"label": "*2", "atom_type": "H0"}}

>  <type>  (18) 
unop_14

>  <geom_source>  (18) 
gaussian_log

$$$$
