
     RDKit          3D

  9  8  0  0  0  0  0  0  0  0999 V2000
   -1.5470   -0.0755   -0.1976 C   0  0  0  0  0  0  0  0  0  0  0  0
   -0.2885    0.4507    0.1749 O   0  0  0  0  0  0  0  0  0  0  0  0
   -0.1502    1.7216   -0.3294 N   0  0  0  0  0  0  0  0  0  0  0  0
    0.9626    2.2353   -0.0219 C   0  0  0  0  0  0  0  0  0  0  0  0
   -1.6392   -0.1356   -1.2844 H   0  0  0  0  0  0  0  0  0  0  0  0
   -2.3597    0.5337    0.2044 H   0  0  0  0  0  0  0  0  0  0  0  0
   -1.5879   -1.0750    0.2318 H   0  0  0  0  0  0  0  0  0  0  0  0
    1.1497    3.2381   -0.3820 H   0  0  0  0  0  0  0  0  0  0  0  0
    1.7060    1.7101    0.5739 H   0  0  0  0  0  0  0  0  0  0  0  0
  1  2  1  0
  1  5  1  0
  1  6  1  0
  1  7  1  0
  2  3  1  0
  3  4  2  3
  4  8  1  0
  4  9  1  0
M  END
>  <reaction>  (1) 
rmg_rxn_15734

>  <mol_properties>  (1) 
{"0": {"label": "donator", "atom_type": "Cs"}, "4": {"label": "d_hydrogen", "atom_type": "H0"}}

>  <type>  (1) 
r1h

$$$$

     RDKit          3D

  5  4  0  0  0  0  0  0  0  0999 V2000
    0.8934    0.3742    0.4948 O   0  0  0  0  0  0  0  0  0  0  0  0
    0.1582   -0.1610   -0.5904 N   0  0  0  0  0  0  0  0  0  0  0  0
   -1.0297   -0.3739   -0.4689 C   0  0  0  0  0  3  0  0  0  0  0  0
    1.7804    0.4382    0.1306 H   0  0  0  0  0  0  0  0  0  0  0  0
   -1.8023   -0.2775    0.2859 H   0  0  0  0  0  0  0  0  0  0  0  0
  1  2  1  0
  1  4  1  0
  2  3  2  3
  3  5  1  0
M  RAD  1   3   2
M  END
>  <reaction>  (2) 
rmg_rxn_15734

>  <mol_properties>  (2) 
{"2": {"label": "acceptor", "atom_type": "Cd"}}

>  <type>  (2) 
r2

$$$$

     RDKit          3D

  6  5  0  0  0  0  0  0  0  0999 V2000
    1.2314    0.0428    0.5088 O   0  0  0  0  0  0  0  0  0  0  0  0
    0.2987    0.2341   -0.4915 N   0  0  0  0  0  0  0  0  0  0  0  0
   -0.8599   -0.1122   -0.1290 C   0  0  0  0  0  0  0  0  0  0  0  0
    2.0507    0.3401    0.1082 H   0  0  0  0  0  0  0  0  0  0  0  0
   -1.0700   -0.5112    0.8610 H   0  0  0  0  0  0  0  0  0  0  0  0
   -1.6509    0.0064   -0.8574 H   0  0  0  0  0  0  0  0  0  0  0  0
  1  2  1  0
  1  4  1  0
  2  3  2  3
  3  5  1  0
  3  6  1  0
M  END
>  <reaction>  (3) 
rmg_rxn_15734

>  <mol_properties>  (3) 
{"2": {"label": "acceptor", "atom_type": "Cd"}, "5": {"label": "a_hydrogen", "atom_type": "H0"}}

>  <type>  (3) 
r2h

$$$$

     RDKit          3D

 14 12  0  0  0  0  0  0  0  0999 V2000
    2.9914   -0.9222    1.9994 O   0  0  0  0  0  0  0  0  0  0  0  0
    1.9544   -0.0343    1.6749 N   0  0  0  0  0  0  0  0  0  0  0  0
    1.0223   -0.5540    1.0376 C   0  0  0  0  0  3  0  0  0  0  0  0
    3.6076   -0.3613    2.4758 H   0  0  0  0  0  0  0  0  0  0  0  0
    0.9221   -1.5891    0.7122 H   0  0  0  0  0  0  0  0  0  0  0  0
   -0.9346    1.1908    0.3970 C   0  0  0  0  0  0  0  0  0  0  0  0
   -1.2277    1.0509   -0.9512 O   0  0  0  0  0  0  0  0  0  0  0  0
   -1.9366   -0.1132   -1.1729 N   0  0  0  0  0  0  0  0  0  0  0  0
   -2.1715   -0.2870   -2.4019 C   0  0  0  0  0  0  0  0  0  0  0  0
   -0.0325    0.3658    0.7172 H   0  0  0  0  0  0  0  0  0  0  0  0
   -1.7837    0.9703    1.0444 H   0  0  0  0  0  0  0  0  0  0  0  0
   -0.5057    2.1778    0.5492 H   0  0  0  0  0  0  0  0  0  0  0  0
   -2.7305   -1.1750   -2.6653 H   0  0  0  0  0  0  0  0  0  0  0  0
   -1.8379    0.4094   -3.1677 H   0  0  0  0  0  0  0  0  0  0  0  0
  1  2  1  0
  1  4  1  0
  2  3  2  3
  3  5  1  0
  6  7  1  0
  6 10  1  0
  6 11  1  0
  6 12  1  0
  7  8  1  0
  8  9  2  3
  9 13  1  0
  9 14  1  0
M  RAD  1   3   2
M  END
>  <reaction>  (4) 
rmg_rxn_15734

>  <mol_properties>  (4) 
{"1": {"label": "*4", "atom_type": "N3d"}, "2": {"label": "*3", "atom_type": "Cd"}, "5": {"label": "*1", "atom_type": "Cs"}, "6": {"label": "*0", "atom_type": "O2s"}, "9": {"label": "*2", "atom_type": "H0"}}

>  <type>  (4) 
ts

$$$$

     RDKit          3D

 14 12  0  0  0  0  0  0  0  0999 V2000
    3.1622    0.4268    0.1149 O   0  0  0  0  0  0  0  0  0  0  0  0
    1.8362    0.0873   -0.2003 N   0  0  0  0  0  0  0  0  0  0  0  0
    1.3236   -0.9322    0.2820 C   0  0  0  0  0  0  0  0  0  0  0  0
    3.3270    1.2481   -0.3690 H   0  0  0  0  0  0  0  0  0  0  0  0
    1.7458   -1.6633    0.9592 H   0  0  0  0  0  0  0  0  0  0  0  0
   -1.1646   -1.2395   -0.5345 C   0  0  0  0  0  3  0  0  0  0  0  0
   -2.0411   -0.5969    0.3186 O   0  0  0  0  0  0  0  0  0  0  0  0
   -2.1515    0.7488    0.3358 N   0  0  0  0  0  0  0  0  0  0  0  0
   -1.3379    1.5010   -0.2680 C   0  0  0  0  0  0  0  0  0  0  0  0
    0.0995   -1.1155   -0.0998 H   0  0  0  0  0  0  0  0  0  0  0  0
   -1.1467   -0.8403   -1.5484 H   0  0  0  0  0  0  0  0  0  0  0  0
   -1.3936   -2.2985   -0.4902 H   0  0  0  0  0  0  0  0  0  0  0  0
   -1.5366    2.5555   -0.1878 H   0  0  0  0  0  0  0  0  0  0  0  0
   -0.4599    1.1870   -0.8263 H   0  0  0  0  0  0  0  0  0  0  0  0
  1  2  1  0
  1  4  1  0
  2  3  2  3
  3  5  1  0
  3 10  1  0
  6  7  1  0
  6 11  1  0
  6 12  1  0
  7  8  1  0
  8  9  2  3
  9 13  1  0
  9 14  1  0
M  RAD  1   6   2
M  END
>  <reaction>  (5) 
rmg_rxn_15734

>  <mol_properties>  (5) 
{"1": {"label": "*4", "atom_type": "N3d"}, "2": {"label": "*3", "atom_type": "Cd"}, "5": {"label": "*1", "atom_type": "Cs"}, "6": {"label": "*0", "atom_type": "O2s"}, "9": {"label": "*2", "atom_type": "H0"}}

>  <type>  (5) 
unop_1

>  <geom_source>  (5) 
crest_best.xyz

$$$$

     RDKit          3D

 14 12  0  0  0  0  0  0  0  0999 V2000
    2.1143   -0.5274    2.8422 O   0  0  0  0  0  0  0  0  0  0  0  0
    1.6741    0.2181    1.7663 N   0  0  0  0  0  0  0  0  0  0  0  0
    0.9152   -0.4485    1.0092 C   0  0  0  0  0  0  0  0  0  0  0  0
    2.6701    0.0871    3.3255 H   0  0  0  0  0  0  0  0  0  0  0  0
    0.6553   -1.4866    1.2055 H   0  0  0  0  0  0  0  0  0  0  0  0
   -1.2157    0.7700    0.1252 C   0  0  0  0  0  3  0  0  0  0  0  0
   -1.2158    0.8279   -1.2876 O   0  0  0  0  0  0  0  0  0  0  0  0
   -1.2158   -0.4460   -1.8034 N   0  0  0  0  0  0  0  0  0  0  0  0
   -1.2158   -0.4460   -3.0670 C   0  0  0  0  0  0  0  0  0  0  0  0
   -0.1451    0.1578    0.5694 H   0  0  0  0  0  0  0  0  0  0  0  0
   -2.1079    0.2598    0.4954 H   0  0  0  0  0  0  0  0  0  0  0  0
   -1.2158    1.8049    0.4630 H   0  0  0  0  0  0  0  0  0  0  0  0
   -1.2158   -1.4131   -3.5518 H   0  0  0  0  0  0  0  0  0  0  0  0
   -1.2158    0.4705   -3.6532 H   0  0  0  0  0  0  0  0  0  0  0  0
  1  2  1  0
  1  4  1  0
  2  3  2  3
  3  5  1  0
  3 10  1  0
  6  7  1  0
  6 11  1  0
  6 12  1  0
  7  8  1  0
  8  9  2  3
  9 13  1  0
  9 14  1  0
M  RAD  1   6   2
M  END
>  <reaction>  (6) 
rmg_rxn_15734

>  <mol_properties>  (6) 
{"1": {"label": "*4", "atom_type": "N3d"}, "2": {"label": "*3", "atom_type": "Cd"}, "5": {"label": "*1", "atom_type": "Cs"}, "6": {"label": "*0", "atom_type": "O2s"}, "9": {"label": "*2", "atom_type": "H0"}}

>  <type>  (6) 
unop_2

>  <geom_source>  (6) 
Heuristics

$$$$

     RDKit          3D

 14 12  0  0  0  0  0  0  0  0999 V2000
    2.8912   -0.5719    1.5169 O   0  0  0  0  0  0  0  0  0  0  0  0
    1.7516   -0.2525    0.8053 N   0  0  0  0  0  0  0  0  0  0  0  0
    0.7107   -0.3498    1.5127 C   0  0  0  0  0  0  0  0  0  0  0  0
    3.5937   -0.4587    0.8736 H   0  0  0  0  0  0  0  0  0  0  0  0
    0.7375   -0.6520    2.5575 H   0  0  0  0  0  0  0  0  0  0  0  0
   -1.4202    0.8687    0.6287 C   0  0  0  0  0  3  0  0  0  0  0  0
   -1.4202    0.9266   -0.7842 O   0  0  0  0  0  0  0  0  0  0  0  0
   -1.4202   -0.3473   -1.2999 N   0  0  0  0  0  0  0  0  0  0  0  0
   -1.4202   -0.3473   -2.5635 C   0  0  0  0  0  0  0  0  0  0  0  0
   -0.3496    0.2565    1.0728 H   0  0  0  0  0  0  0  0  0  0  0  0
   -2.3123    0.3585    0.9988 H   0  0  0  0  0  0  0  0  0  0  0  0
   -1.4202    1.9036    0.9665 H   0  0  0  0  0  0  0  0  0  0  0  0
   -1.4202   -1.3144   -3.0484 H   0  0  0  0  0  0  0  0  0  0  0  0
   -1.4202    0.5692   -3.1497 H   0  0  0  0  0  0  0  0  0  0  0  0
  1  2  1  0
  1  4  1  0
  2  3  2  3
  3  5  1  0
  3 10  1  0
  6  7  1  0
  6 11  1  0
  6 12  1  0
  7  8  1  0
  8  9  2  3
  9 13  1  0
  9 14  1  0
M  RAD  1   6   2
M  END
>  <reaction>  (7) 
rmg_rxn_15734

>  <mol_properties>  (7) 
{"1": {"label": "*4", "atom_type": "N3d"}, "2": {"label": "*3", "atom_type": "Cd"}, "5": {"label": "*1", "atom_type": "Cs"}, "6": {"label": "*0", "atom_type": "O2s"}, "9": {"label": "*2", "atom_type": "H0"}}

>  <type>  (7) 
unop_3

>  <geom_source>  (7) 
Heuristics

$$$$

     RDKit          3D

 14 12  0  0  0  0  0  0  0  0999 V2000
    1.9950   -0.9911    2.7859 O   0  0  0  0  0  0  0  0  0  0  0  0
    1.4210    0.0564    2.0928 N   0  0  0  0  0  0  0  0  0  0  0  0
    0.9916   -0.3049    0.9621 C   0  0  0  0  0  0  0  0  0  0  0  0
    2.2731   -0.5861    3.6098 H   0  0  0  0  0  0  0  0  0  0  0  0
    1.0770   -1.3278    0.6015 H   0  0  0  0  0  0  0  0  0  0  0  0
   -1.1393    0.9136    0.0781 C   0  0  0  0  0  3  0  0  0  0  0  0
   -1.1393    0.9715   -1.3348 O   0  0  0  0  0  0  0  0  0  0  0  0
   -1.1393   -0.3024   -1.8505 N   0  0  0  0  0  0  0  0  0  0  0  0
   -1.1393   -0.3024   -3.1142 C   0  0  0  0  0  0  0  0  0  0  0  0
   -0.0687    0.3014    0.5222 H   0  0  0  0  0  0  0  0  0  0  0  0
   -2.0314    0.4034    0.4482 H   0  0  0  0  0  0  0  0  0  0  0  0
   -1.1393    1.9484    0.4159 H   0  0  0  0  0  0  0  0  0  0  0  0
   -1.1393   -1.2695   -3.5990 H   0  0  0  0  0  0  0  0  0  0  0  0
   -1.1393    0.6141   -3.7003 H   0  0  0  0  0  0  0  0  0  0  0  0
  1  2  1  0
  1  4  1  0
  2  3  2  3
  3  5  1  0
  3 10  1  0
  6  7  1  0
  6 11  1  0
  6 12  1  0
  7  8  1  0
  8  9  2  3
  9 13  1  0
  9 14  1  0
M  RAD  1   6   2
M  END
>  <reaction>  (8) 
rmg_rxn_15734

>  <mol_properties>  (8) 
{"1": {"label": "*4", "atom_type": "N3d"}, "2": {"label": "*3", "atom_type": "Cd"}, "5": {"label": "*1", "atom_type": "Cs"}, "6": {"label": "*0", "atom_type": "O2s"}, "9": {"label": "*2", "atom_type": "H0"}}

>  <type>  (8) 
unop_4

>  <geom_source>  (8) 
Heuristics

$$$$

     RDKit          3D

 14 12  0  0  0  0  0  0  0  0999 V2000
    1.8641   -1.8387    1.9559 O   0  0  0  0  0  0  0  0  0  0  0  0
    1.2244   -1.0800    0.9956 N   0  0  0  0  0  0  0  0  0  0  0  0
    1.0603    0.1144    1.3698 C   0  0  0  0  0  0  0  0  0  0  0  0
    1.9234   -2.7059    1.5505 H   0  0  0  0  0  0  0  0  0  0  0  0
    1.3936    0.4762    2.3401 H   0  0  0  0  0  0  0  0  0  0  0  0
   -1.0706    1.3329    0.4858 C   0  0  0  0  0  3  0  0  0  0  0  0
   -1.0706    1.3908   -0.9271 O   0  0  0  0  0  0  0  0  0  0  0  0
   -1.0706    0.1169   -1.4428 N   0  0  0  0  0  0  0  0  0  0  0  0
   -1.0706    0.1169   -2.7064 C   0  0  0  0  0  0  0  0  0  0  0  0
   -0.0000    0.7207    0.9299 H   0  0  0  0  0  0  0  0  0  0  0  0
   -1.9627    0.8227    0.8559 H   0  0  0  0  0  0  0  0  0  0  0  0
   -1.0706    2.3678    0.8236 H   0  0  0  0  0  0  0  0  0  0  0  0
   -1.0706   -0.8502   -3.1913 H   0  0  0  0  0  0  0  0  0  0  0  0
   -1.0706    1.0334   -3.2926 H   0  0  0  0  0  0  0  0  0  0  0  0
  1  2  1  0
  1  4  1  0
  2  3  2  3
  3  5  1  0
  3 10  1  0
  6  7  1  0
  6 11  1  0
  6 12  1  0
  7  8  1  0
  8  9  2  3
  9 13  1  0
  9 14  1  0
M  RAD  1   6   2
M  END
>  <reaction>  (9) 
rmg_rxn_15734

>  <mol_properties>  (9) 
{"1": {"label": "*4", "atom_type": "N3d"}, "2": {"label": "*3", "atom_type": "Cd"}, "5": {"label": "*1", "atom_type": "Cs"}, "6": {"label": "*0", "atom_type": "O2s"}, "9": {"label": "*2", "atom_type": "H0"}}

>  <type>  (9) 
unop_5

>  <geom_source>  (9) 
Heuristics

$$$$

     RDKit          3D

 14 12  0  0  0  0  0  0  0  0999 V2000
    2.2558   -0.9985    2.5961 O   0  0  0  0  0  0  0  0  0  0  0  0
    1.0967   -0.3406    2.2347 N   0  0  0  0  0  0  0  0  0  0  0  0
    0.9883   -0.2291    0.9820 C   0  0  0  0  0  0  0  0  0  0  0  0
    2.2128   -1.0139    3.5542 H   0  0  0  0  0  0  0  0  0  0  0  0
    1.7353   -0.6153    0.2918 H   0  0  0  0  0  0  0  0  0  0  0  0
   -1.1426    0.9894    0.0980 C   0  0  0  0  0  3  0  0  0  0  0  0
   -1.1426    1.0473   -1.3149 O   0  0  0  0  0  0  0  0  0  0  0  0
   -1.1426   -0.2265   -1.8306 N   0  0  0  0  0  0  0  0  0  0  0  0
   -1.1426   -0.2265   -3.0942 C   0  0  0  0  0  0  0  0  0  0  0  0
   -0.0720    0.3772    0.5421 H   0  0  0  0  0  0  0  0  0  0  0  0
   -2.0347    0.4792    0.4681 H   0  0  0  0  0  0  0  0  0  0  0  0
   -1.1426    2.0243    0.4358 H   0  0  0  0  0  0  0  0  0  0  0  0
   -1.1426   -1.1936   -3.5790 H   0  0  0  0  0  0  0  0  0  0  0  0
   -1.1426    0.6899   -3.6804 H   0  0  0  0  0  0  0  0  0  0  0  0
  1  2  1  0
  1  4  1  0
  2  3  2  3
  3  5  1  0
  3 10  1  0
  6  7  1  0
  6 11  1  0
  6 12  1  0
  7  8  1  0
  8  9  2  3
  9 13  1  0
  9 14  1  0
M  RAD  1   6   2
M  END
>  <reaction>  (10) 
rmg_rxn_15734

>  <mol_properties>  (10) 
{"1": {"label": "*4", "atom_type": "N3d"}, "2": {"label": "*3", "atom_type": "Cd"}, "5": {"label": "*1", "atom_type": "Cs"}, "6": {"label": "*0", "atom_type": "O2s"}, "9": {"label": "*2", "atom_type": "H0"}}

>  <type>  (10) 
unop_6

>  <geom_source>  (10) 
Heuristics

$$$$

     RDKit          3D

 14 12  0  0  0  0  0  0  0  0999 V2000
    3.1615   -0.4270    0.1149 O   0  0  0  0  0  0  0  0  0  0  0  0
    1.8354   -0.0872   -0.1997 N   0  0  0  0  0  0  0  0  0  0  0  0
    1.3235    0.9332    0.2813 C   0  0  0  0  0  0  0  0  0  0  0  0
    3.3254   -1.2492   -0.3677 H   0  0  0  0  0  0  0  0  0  0  0  0
    1.7463    1.6653    0.9571 H   0  0  0  0  0  0  0  0  0  0  0  0
   -1.1651    1.2397   -0.5342 C   0  0  0  0  0  3  0  0  0  0  0  0
   -2.0410    0.5963    0.3190 O   0  0  0  0  0  0  0  0  0  0  0  0
   -2.1507   -0.7494    0.3357 N   0  0  0  0  0  0  0  0  0  0  0  0
   -1.3366   -1.5010   -0.2684 C   0  0  0  0  0  0  0  0  0  0  0  0
    0.0992    1.1163   -0.1001 H   0  0  0  0  0  0  0  0  0  0  0  0
   -1.3947    2.2985   -0.4895 H   0  0  0  0  0  0  0  0  0  0  0  0
   -1.1475    0.8408   -1.5483 H   0  0  0  0  0  0  0  0  0  0  0  0
   -1.5347   -2.5556   -0.1887 H   0  0  0  0  0  0  0  0  0  0  0  0
   -0.4587   -1.1860   -0.8262 H   0  0  0  0  0  0  0  0  0  0  0  0
  1  2  1  0
  1  4  1  0
  2  3  2  3
  3  5  1  0
  3 10  1  0
  6  7  1  0
  6 11  1  0
  6 12  1  0
  7  8  1  0
  8  9  2  3
  9 13  1  0
  9 14  1  0
M  RAD  1   6   2
M  END
>  <reaction>  (11) 
rmg_rxn_15734

>  <mol_properties>  (11) 
{"1": {"label": "*4", "atom_type": "N3d"}, "2": {"label": "*3", "atom_type": "Cd"}, "5": {"label": "*1", "atom_type": "Cs"}, "6": {"label": "*0", "atom_type": "O2s"}, "9": {"label": "*2", "atom_type": "H0"}}

>  <type>  (11) 
unop_7

>  <geom_source>  (11) 
Heuristics

$$$$

     RDKit          3D

 14 12  0  0  0  0  0  0  0  0999 V2000
    1.6755   -1.6005    2.4862 O   0  0  0  0  0  0  0  0  0  0  0  0
    1.0527   -1.1762    1.3289 N   0  0  0  0  0  0  0  0  0  0  0  0
    1.1384    0.0741    1.1779 C   0  0  0  0  0  0  0  0  0  0  0  0
    1.5376   -2.5496    2.4774 H   0  0  0  0  0  0  0  0  0  0  0  0
    1.6489    0.7175    1.8913 H   0  0  0  0  0  0  0  0  0  0  0  0
   -0.9925    1.2926    0.2939 C   0  0  0  0  0  3  0  0  0  0  0  0
   -0.9925    1.3505   -1.1190 O   0  0  0  0  0  0  0  0  0  0  0  0
   -0.9925    0.0766   -1.6347 N   0  0  0  0  0  0  0  0  0  0  0  0
   -0.9925    0.0766   -2.8983 C   0  0  0  0  0  0  0  0  0  0  0  0
    0.0781    0.6804    0.7380 H   0  0  0  0  0  0  0  0  0  0  0  0
   -1.8846    0.7824    0.6640 H   0  0  0  0  0  0  0  0  0  0  0  0
   -0.9925    2.3275    0.6317 H   0  0  0  0  0  0  0  0  0  0  0  0
   -0.9925   -0.8905   -3.3831 H   0  0  0  0  0  0  0  0  0  0  0  0
   -0.9925    0.9931   -3.4845 H   0  0  0  0  0  0  0  0  0  0  0  0
  1  2  1  0
  1  4  1  0
  2  3  2  3
  3  5  1  0
  3 10  1  0
  6  7  1  0
  6 11  1  0
  6 12  1  0
  7  8  1  0
  8  9  2  3
  9 13  1  0
  9 14  1  0
M  RAD  1   6   2
M  END
>  <reaction>  (12) 
rmg_rxn_15734

>  <mol_properties>  (12) 
{"1": {"label": "*4", "atom_type": "N3d"}, "2": {"label": "*3", "atom_type": "Cd"}, "5": {"label": "*1", "atom_type": "Cs"}, "6": {"label": "*0", "atom_type": "O2s"}, "9": {"label": "*2", "atom_type": "H0"}}

>  <type>  (12) 
unop_8

>  <geom_source>  (12) 
Heuristics

$$$$

     RDKit          3D

 14 12  0  0  0  0  0  0  0  0999 V2000
    3.1622   -0.4269   -0.1154 O   0  0  0  0  0  0  0  0  0  0  0  0
    1.8364   -0.0873    0.2005 N   0  0  0  0  0  0  0  0  0  0  0  0
    1.3235    0.9323   -0.2814 C   0  0  0  0  0  0  0  0  0  0  0  0
    3.3271   -1.2485    0.3681 H   0  0  0  0  0  0  0  0  0  0  0  0
    1.7452    1.6635   -0.9589 H   0  0  0  0  0  0  0  0  0  0  0  0
   -1.1649    1.2395    0.5346 C   0  0  0  0  0  3  0  0  0  0  0  0
   -2.0407    0.5969   -0.3191 O   0  0  0  0  0  0  0  0  0  0  0  0
   -2.1513   -0.7488   -0.3361 N   0  0  0  0  0  0  0  0  0  0  0  0
   -1.3383   -1.5010    0.2686 C   0  0  0  0  0  0  0  0  0  0  0  0
    0.0994    1.1154    0.1007 H   0  0  0  0  0  0  0  0  0  0  0  0
   -1.1479    0.8405    1.5486 H   0  0  0  0  0  0  0  0  0  0  0  0
   -1.3937    2.2985    0.4899 H   0  0  0  0  0  0  0  0  0  0  0  0
   -1.5370   -2.5555    0.1885 H   0  0  0  0  0  0  0  0  0  0  0  0
   -0.4608   -1.1868    0.8275 H   0  0  0  0  0  0  0  0  0  0  0  0
  1  2  1  0
  1  4  1  0
  2  3  2  3
  3  5  1  0
  3 10  1  0
  6  7  1  0
  6 11  1  0
  6 12  1  0
  7  8  1  0
  8  9  2  3
  9 13  1  0
  9 14  1  0
M  RAD  1   6   2
M  END
>  <reaction>  (13) 
rmg_rxn_15734

>  <mol_properties>  (13) 
{"1": {"label": "*4", "atom_type": "N3d"}, "2": {"label": "*3", "atom_type": "Cd"}, "5": {"label": "*1", "atom_type": "Cs"}, "6": {"label": "*0", "atom_type": "O2s"}, "9": {"label": "*2", "atom_type": "H0"}}

>  <type>  (13) 
unop_9

>  <geom_source>  (13) 
Heuristics

$$$$

     RDKit          3D

 14 12  0  0  0  0  0  0  0  0999 V2000
    1.7731   -1.1424    2.8170 O   0  0  0  0  0  0  0  0  0  0  0  0
    0.9456   -1.0951    1.7125 N   0  0  0  0  0  0  0  0  0  0  0  0
    1.1346   -0.0531    1.0254 C   0  0  0  0  0  0  0  0  0  0  0  0
    1.5301   -1.9676    3.2413 H   0  0  0  0  0  0  0  0  0  0  0  0
    1.8697    0.7022    1.2952 H   0  0  0  0  0  0  0  0  0  0  0  0
   -0.9963    1.1654    0.1414 C   0  0  0  0  0  3  0  0  0  0  0  0
   -0.9964    1.2233   -1.2714 O   0  0  0  0  0  0  0  0  0  0  0  0
   -0.9964   -0.0506   -1.7872 N   0  0  0  0  0  0  0  0  0  0  0  0
   -0.9964   -0.0506   -3.0508 C   0  0  0  0  0  0  0  0  0  0  0  0
    0.0742    0.5532    0.5856 H   0  0  0  0  0  0  0  0  0  0  0  0
   -1.8885    0.6552    0.5116 H   0  0  0  0  0  0  0  0  0  0  0  0
   -0.9964    2.2003    0.4792 H   0  0  0  0  0  0  0  0  0  0  0  0
   -0.9964   -1.0176   -3.5356 H   0  0  0  0  0  0  0  0  0  0  0  0
   -0.9964    0.8659   -3.6369 H   0  0  0  0  0  0  0  0  0  0  0  0
  1  2  1  0
  1  4  1  0
  2  3  2  3
  3  5  1  0
  3 10  1  0
  6  7  1  0
  6 11  1  0
  6 12  1  0
  7  8  1  0
  8  9  2  3
  9 13  1  0
  9 14  1  0
M  RAD  1   6   2
M  END
>  <reaction>  (14) 
rmg_rxn_15734

>  <mol_properties>  (14) 
{"1": {"label": "*4", "atom_type": "N3d"}, "2": {"label": "*3", "atom_type": "Cd"}, "5": {"label": "*1", "atom_type": "Cs"}, "6": {"label": "*0", "atom_type": "O2s"}, "9": {"label": "*2", "atom_type": "H0"}}

>  <type>  (14) 
unop_10

>  <geom_source>  (14) 
Heuristics

$$$$

     RDKit          3D

 14 12  0  0  0  0  0  0  0  0999 V2000
    2.4622   -0.1824    2.5443 O   0  0  0  0  0  0  0  0  0  0  0  0
    1.8130    0.1941    1.3851 N   0  0  0  0  0  0  0  0  0  0  0  0
    0.8042   -0.5284    1.1532 C   0  0  0  0  0  0  0  0  0  0  0  0
    3.1938    0.4355    2.5997 H   0  0  0  0  0  0  0  0  0  0  0  0
    0.5046   -1.3449    1.8068 H   0  0  0  0  0  0  0  0  0  0  0  0
   -1.3267    0.6901    0.2692 C   0  0  0  0  0  3  0  0  0  0  0  0
   -1.3268    0.7480   -1.1437 O   0  0  0  0  0  0  0  0  0  0  0  0
   -1.3268   -0.5259   -1.6594 N   0  0  0  0  0  0  0  0  0  0  0  0
   -1.3268   -0.5259   -2.9230 C   0  0  0  0  0  0  0  0  0  0  0  0
   -0.2561    0.0779    0.7133 H   0  0  0  0  0  0  0  0  0  0  0  0
   -2.2189    0.1799    0.6393 H   0  0  0  0  0  0  0  0  0  0  0  0
   -1.3268    1.7250    0.6070 H   0  0  0  0  0  0  0  0  0  0  0  0
   -1.3268   -1.4930   -3.4078 H   0  0  0  0  0  0  0  0  0  0  0  0
   -1.3268    0.3906   -3.5092 H   0  0  0  0  0  0  0  0  0  0  0  0
  1  2  1  0
  1  4  1  0
  2  3  2  3
  3  5  1  0
  3 10  1  0
  6  7  1  0
  6 11  1  0
  6 12  1  0
  7  8  1  0
  8  9  2  3
  9 13  1  0
  9 14  1  0
M  RAD  1   6   2
M  END
>  <reaction>  (15) 
rmg_rxn_15734

>  <mol_properties>  (15) 
{"1": {"label": "*4", "atom_type": "N3d"}, "2": {"label": "*3", "atom_type": "Cd"}, "5": {"label": "*1", "atom_type": "Cs"}, "6": {"label": "*0", "atom_type": "O2s"}, "9": {"label": "*2", "atom_type": "H0"}}

>  <type>  (15) 
unop_11

>  <geom_source>  (15) 
Heuristics

$$$$

     RDKit          3D

 14 12  0  0  0  0  0  0  0  0999 V2000
    3.1622    0.4268    0.1149 O   0  0  0  0  0  0  0  0  0  0  0  0
    1.8362    0.0873   -0.2003 N   0  0  0  0  0  0  0  0  0  0  0  0
    1.3236   -0.9322    0.2820 C   0  0  0  0  0  0  0  0  0  0  0  0
    3.3270    1.2481   -0.3690 H   0  0  0  0  0  0  0  0  0  0  0  0
    1.7458   -1.6633    0.9592 H   0  0  0  0  0  0  0  0  0  0  0  0
   -1.1646   -1.2395   -0.5345 C   0  0  0  0  0  3  0  0  0  0  0  0
   -2.0411   -0.5969    0.3186 O   0  0  0  0  0  0  0  0  0  0  0  0
   -2.1515    0.7488    0.3358 N   0  0  0  0  0  0  0  0  0  0  0  0
   -1.3379    1.5010   -0.2680 C   0  0  0  0  0  0  0  0  0  0  0  0
    0.0995   -1.1155   -0.0998 H   0  0  0  0  0  0  0  0  0  0  0  0
   -1.1467   -0.8403   -1.5484 H   0  0  0  0  0  0  0  0  0  0  0  0
   -1.3936   -2.2985   -0.4902 H   0  0  0  0  0  0  0  0  0  0  0  0
   -1.5366    2.5555   -0.1878 H   0  0  0  0  0  0  0  0  0  0  0  0
   -0.4599    1.1870   -0.8263 H   0  0  0  0  0  0  0  0  0  0  0  0
  1  2  1  0
  1  4  1  0
  2  3  2  3
  3  5  1  0
  3 10  1  0
  6  7  1  0
  6 11  1  0
  6 12  1  0
  7  8  1  0
  8  9  2  3
  9 13  1  0
  9 14  1  0
M  RAD  1   6   2
M  END
>  <reaction>  (16) 
rmg_rxn_15734

>  <mol_properties>  (16) 
{"1": {"label": "*4", "atom_type": "N3d"}, "2": {"label": "*3", "atom_type": "Cd"}, "5": {"label": "*1", "atom_type": "Cs"}, "6": {"label": "*0", "atom_type": "O2s"}, "9": {"label": "*2", "atom_type": "H0"}}

>  <type>  (16) 
unop_12

>  <geom_source>  (16) 
Heuristics

$$$$

     RDKit          3D

 14 12  0  0  0  0  0  0  0  0999 V2000
    2.2685   -1.6943    1.4709 O   0  0  0  0  0  0  0  0  0  0  0  0
    1.4188   -0.8525    0.7807 N   0  0  0  0  0  0  0  0  0  0  0  0
    0.9251    0.0366    1.5285 C   0  0  0  0  0  0  0  0  0  0  0  0
    2.5671   -2.3089    0.7978 H   0  0  0  0  0  0  0  0  0  0  0  0
    1.1591    0.1078    2.5886 H   0  0  0  0  0  0  0  0  0  0  0  0
   -1.2058    1.2551    0.6445 C   0  0  0  0  0  3  0  0  0  0  0  0
   -1.2058    1.3130   -0.7683 O   0  0  0  0  0  0  0  0  0  0  0  0
   -1.2058    0.0391   -1.2841 N   0  0  0  0  0  0  0  0  0  0  0  0
   -1.2058    0.0391   -2.5477 C   0  0  0  0  0  0  0  0  0  0  0  0
   -0.1352    0.6429    1.0887 H   0  0  0  0  0  0  0  0  0  0  0  0
   -2.0979    0.7449    1.0147 H   0  0  0  0  0  0  0  0  0  0  0  0
   -1.2058    2.2900    0.9823 H   0  0  0  0  0  0  0  0  0  0  0  0
   -1.2058   -0.9279   -3.0325 H   0  0  0  0  0  0  0  0  0  0  0  0
   -1.2058    0.9556   -3.1338 H   0  0  0  0  0  0  0  0  0  0  0  0
  1  2  1  0
  1  4  1  0
  2  3  2  3
  3  5  1  0
  3 10  1  0
  6  7  1  0
  6 11  1  0
  6 12  1  0
  7  8  1  0
  8  9  2  3
  9 13  1  0
  9 14  1  0
M  RAD  1   6   2
M  END
>  <reaction>  (17) 
rmg_rxn_15734

>  <mol_properties>  (17) 
{"1": {"label": "*4", "atom_type": "N3d"}, "2": {"label": "*3", "atom_type": "Cd"}, "5": {"label": "*1", "atom_type": "Cs"}, "6": {"label": "*0", "atom_type": "O2s"}, "9": {"label": "*2", "atom_type": "H0"}}

>  <type>  (17) 
unop_13

>  <geom_source>  (17) 
Heuristics

$$$$

     RDKit          3D

 14 12  0  0  0  0  0  0  0  0999 V2000
    2.7824   -0.1834    2.0238 O   0  0  0  0  0  0  0  0  0  0  0  0
    1.8340    0.0187    1.0406 N   0  0  0  0  0  0  0  0  0  0  0  0
    0.7219   -0.4955    1.3448 C   0  0  0  0  0  0  0  0  0  0  0  0
    3.5629    0.2490    1.6716 H   0  0  0  0  0  0  0  0  0  0  0  0
    0.5582   -1.0294    2.2784 H   0  0  0  0  0  0  0  0  0  0  0  0
   -1.4090    0.7230    0.4608 C   0  0  0  0  0  3  0  0  0  0  0  0
   -1.4090    0.7809   -0.9521 O   0  0  0  0  0  0  0  0  0  0  0  0
   -1.4090   -0.4929   -1.4678 N   0  0  0  0  0  0  0  0  0  0  0  0
   -1.4090   -0.4929   -2.7314 C   0  0  0  0  0  0  0  0  0  0  0  0
   -0.3384    0.1109    0.9049 H   0  0  0  0  0  0  0  0  0  0  0  0
   -2.3011    0.2128    0.8309 H   0  0  0  0  0  0  0  0  0  0  0  0
   -1.4090    1.7579    0.7986 H   0  0  0  0  0  0  0  0  0  0  0  0
   -1.4090   -1.4600   -3.2163 H   0  0  0  0  0  0  0  0  0  0  0  0
   -1.4090    0.4236   -3.3176 H   0  0  0  0  0  0  0  0  0  0  0  0
  1  2  1  0
  1  4  1  0
  2  3  2  3
  3  5  1  0
  3 10  1  0
  6  7  1  0
  6 11  1  0
  6 12  1  0
  7  8  1  0
  8  9  2  3
  9 13  1  0
  9 14  1  0
M  RAD  1   6   2
M  END
>  <reaction>  (18) 
rmg_rxn_15734

>  <mol_properties>  (18) 
{"1": {"label": "*4", "atom_type": "N3d"}, "2": {"label": "*3", "atom_type": "Cd"}, "5": {"label": "*1", "atom_type": "Cs"}, "6": {"label": "*0", "atom_type": "O2s"}, "9": {"label": "*2", "atom_type": "H0"}}

>  <type>  (18) 
unop_14

>  <geom_source>  (18) 
Heuristics

$$$$

     RDKit          3D

 14 12  0  0  0  0  0  0  0  0999 V2000
    2.1048   -0.7932    2.7940 O   0  0  0  0  0  0  0  0  0  0  0  0
    0.9371   -0.8157    2.0571 N   0  0  0  0  0  0  0  0  0  0  0  0
    1.0550   -0.1906    0.9667 C   0  0  0  0  0  0  0  0  0  0  0  0
    1.8804   -1.2940    3.5808 H   0  0  0  0  0  0  0  0  0  0  0  0
    1.9796    0.2989    0.6682 H   0  0  0  0  0  0  0  0  0  0  0  0
   -1.0759    1.0279    0.0828 C   0  0  0  0  0  3  0  0  0  0  0  0
   -1.0759    1.0858   -1.3301 O   0  0  0  0  0  0  0  0  0  0  0  0
   -1.0759   -0.1881   -1.8459 N   0  0  0  0  0  0  0  0  0  0  0  0
   -1.0759   -0.1881   -3.1095 C   0  0  0  0  0  0  0  0  0  0  0  0
   -0.0053    0.4157    0.5269 H   0  0  0  0  0  0  0  0  0  0  0  0
   -1.9680    0.5177    0.4529 H   0  0  0  0  0  0  0  0  0  0  0  0
   -1.0759    2.0628    0.4206 H   0  0  0  0  0  0  0  0  0  0  0  0
   -1.0759   -1.1552   -3.5943 H   0  0  0  0  0  0  0  0  0  0  0  0
   -1.0759    0.7284   -3.6956 H   0  0  0  0  0  0  0  0  0  0  0  0
  1  2  1  0
  1  4  1  0
  2  3  2  3
  3  5  1  0
  3 10  1  0
  6  7  1  0
  6 11  1  0
  6 12  1  0
  7  8  1  0
  8  9  2  3
  9 13  1  0
  9 14  1  0
M  RAD  1   6   2
M  END
>  <reaction>  (19) 
rmg_rxn_15734

>  <mol_properties>  (19) 
{"1": {"label": "*4", "atom_type": "N3d"}, "2": {"label": "*3", "atom_type": "Cd"}, "5": {"label": "*1", "atom_type": "Cs"}, "6": {"label": "*0", "atom_type": "O2s"}, "9": {"label": "*2", "atom_type": "H0"}}

>  <type>  (19) 
unop_15

>  <geom_source>  (19) 
Heuristics

$$$$

     RDKit          3D

 14 12  0  0  0  0  0  0  0  0999 V2000
    2.6914   -1.1865    1.2871 O   0  0  0  0  0  0  0  0  0  0  0  0
    1.6021   -0.5587    0.7158 N   0  0  0  0  0  0  0  0  0  0  0  0
    0.7875   -0.1424    1.5856 C   0  0  0  0  0  0  0  0  0  0  0  0
    3.2190   -1.4482    0.5300 H   0  0  0  0  0  0  0  0  0  0  0  0
    0.9497   -0.2762    2.6530 H   0  0  0  0  0  0  0  0  0  0  0  0
   -1.3434    1.0761    0.7016 C   0  0  0  0  0  3  0  0  0  0  0  0
   -1.3435    1.1340   -0.7113 O   0  0  0  0  0  0  0  0  0  0  0  0
   -1.3435   -0.1399   -1.2270 N   0  0  0  0  0  0  0  0  0  0  0  0
   -1.3435   -0.1399   -2.4906 C   0  0  0  0  0  0  0  0  0  0  0  0
   -0.2728    0.4639    1.1457 H   0  0  0  0  0  0  0  0  0  0  0  0
   -2.2356    0.5659    1.0717 H   0  0  0  0  0  0  0  0  0  0  0  0
   -1.3435    2.1110    1.0394 H   0  0  0  0  0  0  0  0  0  0  0  0
   -1.3435   -1.1069   -2.9755 H   0  0  0  0  0  0  0  0  0  0  0  0
   -1.3435    0.7766   -3.0768 H   0  0  0  0  0  0  0  0  0  0  0  0
  1  2  1  0
  1  4  1  0
  2  3  2  3
  3  5  1  0
  3 10  1  0
  6  7  1  0
  6 11  1  0
  6 12  1  0
  7  8  1  0
  8  9  2  3
  9 13  1  0
  9 14  1  0
M  RAD  1   6   2
M  END
>  <reaction>  (20) 
rmg_rxn_15734

>  <mol_properties>  (20) 
{"1": {"label": "*4", "atom_type": "N3d"}, "2": {"label": "*3", "atom_type": "Cd"}, "5": {"label": "*1", "atom_type": "Cs"}, "6": {"label": "*0", "atom_type": "O2s"}, "9": {"label": "*2", "atom_type": "H0"}}

>  <type>  (20) 
unop_16

>  <geom_source>  (20) 
Heuristics

$$$$

     RDKit          3D

 14 12  0  0  0  0  0  0  0  0999 V2000
   -1.0452   -0.5856   -1.5456 O   0  0  0  0  0  0  0  0  0  0  0  0
    1.3695    1.4624    0.0281 O   0  0  0  0  0  0  0  0  0  0  0  0
   -1.6634    0.6208   -1.2601 N   0  0  0  0  0  0  0  0  0  0  0  0
    1.9999    0.5357    0.8305 N   0  0  0  0  0  0  0  0  0  0  0  0
   -0.3259   -1.3421   -0.5777 C   0  0  0  0  0  3  0  0  0  0  0  0
    1.4616   -0.6106    1.0959 C   0  0  0  0  0  0  0  0  0  0  0  0
   -1.6986    1.1656   -0.0829 C   0  0  0  0  0  0  0  0  0  0  0  0
    1.9830   -1.3152    1.7292 H   0  0  0  0  0  0  0  0  0  0  0  0
    0.3401   -0.9161    0.6271 H   0  0  0  0  0  0  0  0  0  0  0  0
   -2.2036    2.1122    0.0515 H   0  0  0  0  0  0  0  0  0  0  0  0
   -1.2384    0.6949    0.7754 H   0  0  0  0  0  0  0  0  0  0  0  0
   -0.0239   -2.3134   -1.0204 H   0  0  0  0  0  0  0  0  0  0  0  0
    0.5842   -0.7866   -0.2683 H   0  0  0  0  0  0  0  0  0  0  0  0
    0.4609    1.2781   -0.3828 H   0  0  0  0  0  0  0  0  0  0  0  0
  1  5  1  0
  1  3  1  0
  2  4  1  0
  2 14  1  0
  3  7  2  3
  4  6  2  3
  5 12  1  0
  5 13  1  0
  6  8  1  0
  6  9  1  0
  7 10  1  0
  7 11  1  0
M  RAD  1   5   2
M  END
>  <reaction>  (21) 
rmg_rxn_15734

>  <mol_properties>  (21) 
{"1": {"label": "*4", "atom_type": "N3d"}, "2": {"label": "*3", "atom_type": "Cd"}, "5": {"label": "*1", "atom_type": "Cs"}, "6": {"label": "*0", "atom_type": "O2s"}, "9": {"label": "*2", "atom_type": "H0"}}

>  <type>  (21) 
unop_17

>  <geom_source>  (21) 
AutoTST

$$$$

     RDKit          3D

 14 12  0  0  0  0  0  0  0  0999 V2000
    2.8912   -0.5719    1.5169 O   0  0  0  0  0  0  0  0  0  0  0  0
    1.7516   -0.2525    0.8053 N   0  0  0  0  0  0  0  0  0  0  0  0
    0.7107   -0.3498    1.5127 C   0  0  0  0  0  0  0  0  0  0  0  0
    3.5937   -0.4587    0.8736 H   0  0  0  0  0  0  0  0  0  0  0  0
    0.7375   -0.6520    2.5574 H   0  0  0  0  0  0  0  0  0  0  0  0
   -1.4202    0.8687    0.6287 C   0  0  0  0  0  3  0  0  0  0  0  0
   -1.4202    0.9266   -0.7842 O   0  0  0  0  0  0  0  0  0  0  0  0
   -1.4202   -0.3473   -1.2999 N   0  0  0  0  0  0  0  0  0  0  0  0
   -1.4202   -0.3473   -2.5635 C   0  0  0  0  0  0  0  0  0  0  0  0
   -0.3496    0.2565    1.0728 H   0  0  0  0  0  0  0  0  0  0  0  0
   -2.3123    0.3585    0.9988 H   0  0  0  0  0  0  0  0  0  0  0  0
   -1.4202    1.9036    0.9665 H   0  0  0  0  0  0  0  0  0  0  0  0
   -1.4202   -1.3144   -3.0484 H   0  0  0  0  0  0  0  0  0  0  0  0
   -1.4202    0.5692   -3.1497 H   0  0  0  0  0  0  0  0  0  0  0  0
  1  2  1  0
  1  4  1  0
  2  3  2  3
  3  5  1  0
  3 10  1  0
  6  7  1  0
  6 11  1  0
  6 12  1  0
  7  8  1  0
  8  9  2  3
  9 13  1  0
  9 14  1  0
M  RAD  1   6   2
M  END
>  <reaction>  (22) 
rmg_rxn_15734

>  <mol_properties>  (22) 
{"1": {"label": "*4", "atom_type": "N3d"}, "2": {"label": "*3", "atom_type": "Cd"}, "5": {"label": "*1", "atom_type": "Cs"}, "6": {"label": "*0", "atom_type": "O2s"}, "9": {"label": "*2", "atom_type": "H0"}}

>  <type>  (22) 
unop_18

>  <geom_source>  (22) 
gaussian_log

$$$$
