
     RDKit          3D

 14 13  0  0  0  0  0  0  0  0999 V2000
    1.8106   -0.5953    0.5577 C   0  0  0  0  0  0  0  0  0  0  0  0
    0.5197    0.2064    0.6554 C   0  0  0  0  0  0  0  0  0  0  0  0
   -0.5206   -0.2080   -0.3788 C   0  0  0  0  0  0  0  0  0  0  0  0
   -1.8114    0.5937   -0.2812 C   0  0  0  0  0  0  0  0  0  0  0  0
    2.2725   -0.4752   -0.4251 H   0  0  0  0  0  0  0  0  0  0  0  0
    1.6214   -1.6612    0.7052 H   0  0  0  0  0  0  0  0  0  0  0  0
    2.5364   -0.2784    1.3084 H   0  0  0  0  0  0  0  0  0  0  0  0
    0.0930    0.0950    1.6574 H   0  0  0  0  0  0  0  0  0  0  0  0
    0.7393    1.2723    0.5354 H   0  0  0  0  0  0  0  0  0  0  0  0
   -0.7402   -1.2739   -0.2588 H   0  0  0  0  0  0  0  0  0  0  0  0
   -0.0938   -0.0965   -1.3808 H   0  0  0  0  0  0  0  0  0  0  0  0
   -1.6222    1.6596   -0.4287 H   0  0  0  0  0  0  0  0  0  0  0  0
   -2.2734    0.4736    0.7017 H   0  0  0  0  0  0  0  0  0  0  0  0
   -2.5373    0.2768   -1.0318 H   0  0  0  0  0  0  0  0  0  0  0  0
  1  2  1  0
  1  5  1  0
  1  6  1  0
  1  7  1  0
  2  3  1  0
  2  8  1  0
  2  9  1  0
  3  4  1  0
  3 10  1  0
  3 11  1  0
  4 12  1  0
  4 13  1  0
  4 14  1  0
M  END
>  <reaction>  (1) 
rmg_rxn_302

>  <mol_properties>  (1) 
{"3": {"label": "donator", "atom_type": "Cs"}, "12": {"label": "d_hydrogen", "atom_type": "H0"}}

>  <type>  (1) 
r1h

$$$$

     RDKit          3D

 11 10  0  0  0  0  0  0  0  0999 V2000
   -1.2230    0.3768   -0.0849 C   0  0  0  0  0  0  0  0  0  0  0  0
   -0.0734   -0.5533    0.2746 C   0  0  0  0  0  0  0  0  0  0  0  0
   -0.0853   -1.8426   -0.5372 C   0  0  0  0  0  0  0  0  0  0  0  0
    0.0319   -1.6944   -1.8815 O   0  0  0  0  0  1  0  0  0  0  0  0
   -2.1874   -0.0885    0.1341 H   0  0  0  0  0  0  0  0  0  0  0  0
   -1.1670    1.3099    0.4765 H   0  0  0  0  0  0  0  0  0  0  0  0
   -1.2014    0.6189   -1.1483 H   0  0  0  0  0  0  0  0  0  0  0  0
    0.8834   -0.0518    0.1071 H   0  0  0  0  0  0  0  0  0  0  0  0
   -0.1104   -0.8149    1.3362 H   0  0  0  0  0  0  0  0  0  0  0  0
    0.6767   -2.5604   -0.1861 H   0  0  0  0  0  0  0  0  0  0  0  0
   -1.0401   -2.3871   -0.3877 H   0  0  0  0  0  0  0  0  0  0  0  0
  1  2  1  0
  1  5  1  0
  1  6  1  0
  1  7  1  0
  2  3  1  0
  2  8  1  0
  2  9  1  0
  3  4  1  0
  3 10  1  0
  3 11  1  0
M  RAD  1   4   2
M  END
>  <reaction>  (2) 
rmg_rxn_302

>  <mol_properties>  (2) 
{"3": {"label": "acceptor", "atom_type": "O2s"}}

>  <type>  (2) 
r2

$$$$

     RDKit          3D

 12 11  0  0  0  0  0  0  0  0999 V2000
   -1.4643   -0.2505   -0.5284 C   0  0  0  0  0  0  0  0  0  0  0  0
   -0.3946    0.4302    0.3143 C   0  0  0  0  0  0  0  0  0  0  0  0
   -0.5959    0.2382    1.8102 C   0  0  0  0  0  0  0  0  0  0  0  0
   -0.5633   -1.1190    2.2092 O   0  0  0  0  0  0  0  0  0  0  0  0
   -2.4511    0.1644   -0.3109 H   0  0  0  0  0  0  0  0  0  0  0  0
   -1.5019   -1.3198   -0.3181 H   0  0  0  0  0  0  0  0  0  0  0  0
   -1.2720   -0.1182   -1.5941 H   0  0  0  0  0  0  0  0  0  0  0  0
    0.5965    0.0515    0.0385 H   0  0  0  0  0  0  0  0  0  0  0  0
   -0.3776    1.5047    0.1078 H   0  0  0  0  0  0  0  0  0  0  0  0
   -1.5821    0.6048    2.1034 H   0  0  0  0  0  0  0  0  0  0  0  0
    0.1495    0.8220    2.3649 H   0  0  0  0  0  0  0  0  0  0  0  0
    0.3017   -1.4750    1.9997 H   0  0  0  0  0  0  0  0  0  0  0  0
  1  2  1  0
  1  5  1  0
  1  6  1  0
  1  7  1  0
  2  3  1  0
  2  8  1  0
  2  9  1  0
  3  4  1  0
  3 10  1  0
  3 11  1  0
  4 12  1  0
M  END
>  <reaction>  (3) 
rmg_rxn_302

>  <mol_properties>  (3) 
{"3": {"label": "acceptor", "atom_type": "O2s"}, "11": {"label": "a_hydrogen", "atom_type": "H0"}}

>  <type>  (3) 
r2h

$$$$

     RDKit          3D

 25 23  0  0  0  0  0  0  0  0999 V2000
   -0.7547    0.9016    3.5252 C   0  0  0  0  0  0  0  0  0  0  0  0
   -0.0500   -0.1507    2.6813 C   0  0  0  0  0  0  0  0  0  0  0  0
   -0.8128   -0.5041    1.4107 C   0  0  0  0  0  0  0  0  0  0  0  0
   -1.0459    0.5802    0.5636 O   0  0  0  0  0  0  0  0  0  0  0  0
   -1.7299    0.5420    3.8623 H   0  0  0  0  0  0  0  0  0  0  0  0
   -0.1685    1.1581    4.4088 H   0  0  0  0  0  0  0  0  0  0  0  0
   -0.9180    1.8115    2.9468 H   0  0  0  0  0  0  0  0  0  0  0  0
    0.9472    0.2030    2.4014 H   0  0  0  0  0  0  0  0  0  0  0  0
    0.0958   -1.0677    3.2604 H   0  0  0  0  0  0  0  0  0  0  0  0
   -0.3076   -1.3203    0.8758 H   0  0  0  0  0  0  0  0  0  0  0  0
   -1.8139   -0.8756    1.6709 H   0  0  0  0  0  0  0  0  0  0  0  0
    0.3970   -1.0172   -3.6979 C   0  0  0  0  0  0  0  0  0  0  0  0
    0.5638   -0.7020   -2.2182 C   0  0  0  0  0  0  0  0  0  0  0  0
    0.9816    0.7424   -1.9641 C   0  0  0  0  0  0  0  0  0  0  0  0
    1.1727    1.0593   -0.5053 C   0  0  0  0  0  3  0  0  0  0  0  0
    1.3301   -0.8556   -4.2430 H   0  0  0  0  0  0  0  0  0  0  0  0
   -0.3655   -0.3784   -4.1493 H   0  0  0  0  0  0  0  0  0  0  0  0
    0.0958   -2.0544   -3.8519 H   0  0  0  0  0  0  0  0  0  0  0  0
   -0.3745   -0.8914   -1.6901 H   0  0  0  0  0  0  0  0  0  0  0  0
    1.3100   -1.3730   -1.7801 H   0  0  0  0  0  0  0  0  0  0  0  0
    0.2362    1.4195   -2.3916 H   0  0  0  0  0  0  0  0  0  0  0  0
    1.9196    0.9487   -2.4968 H   0  0  0  0  0  0  0  0  0  0  0  0
    1.8389    0.3744    0.0208 H   0  0  0  0  0  0  0  0  0  0  0  0
    0.0553    0.8905    0.0509 H   0  0  0  0  0  0  0  0  0  0  0  0
    1.4074    2.0988   -0.2815 H   0  0  0  0  0  0  0  0  0  0  0  0
  1  2  1  0
  1  5  1  0
  1  6  1  0
  1  7  1  0
  2  3  1  0
  2  8  1  0
  2  9  1  0
  3  4  1  0
  3 10  1  0
  3 11  1  0
  4 24  1  0
 12 13  1  0
 12 16  1  0
 12 17  1  0
 12 18  1  0
 13 14  1  0
 13 19  1  0
 13 20  1  0
 14 15  1  0
 14 21  1  0
 14 22  1  0
 15 23  1  0
 15 25  1  0
M  RAD  1  15   2
M  END
>  <reaction>  (4) 
rmg_rxn_302

>  <mol_properties>  (4) 
{"2": {"label": "*0", "atom_type": "Cs"}, "3": {"label": "*1", "atom_type": "O2s"}, "13": {"label": "*4", "atom_type": "Cs"}, "14": {"label": "*3", "atom_type": "Cs"}, "23": {"label": "*2", "atom_type": "H0"}}

>  <type>  (4) 
ts

$$$$

     RDKit          3D

 25 23  0  0  0  0  0  0  0  0999 V2000
   -0.3359    1.2402    2.9788 C   0  0  0  0  0  0  0  0  0  0  0  0
    0.0840   -0.1847    2.6450 C   0  0  0  0  0  0  0  0  0  0  0  0
   -0.9818   -0.9633    1.8881 C   0  0  0  0  0  0  0  0  0  0  0  0
   -1.3196   -0.3831    0.6425 O   0  0  0  0  0  0  0  0  0  0  0  0
   -1.2153    1.2432    3.6269 H   0  0  0  0  0  0  0  0  0  0  0  0
    0.4620    1.7775    3.4933 H   0  0  0  0  0  0  0  0  0  0  0  0
   -0.5909    1.7919    2.0735 H   0  0  0  0  0  0  0  0  0  0  0  0
    1.0047   -0.1740    2.0501 H   0  0  0  0  0  0  0  0  0  0  0  0
    0.3207   -0.7335    3.5616 H   0  0  0  0  0  0  0  0  0  0  0  0
   -0.6597   -2.0038    1.7551 H   0  0  0  0  0  0  0  0  0  0  0  0
   -1.9102   -0.9798    2.4634 H   0  0  0  0  0  0  0  0  0  0  0  0
    0.6663   -0.6290   -3.8819 C   0  0  0  0  0  0  0  0  0  0  0  0
    0.6663   -0.6290   -2.3592 C   0  0  0  0  0  0  0  0  0  0  0  0
    0.6663    0.7734   -1.7618 C   0  0  0  0  0  0  0  0  0  0  0  0
    0.6663    0.7734   -0.2391 C   0  0  0  0  0  3  0  0  0  0  0  0
    1.5478   -0.1156   -4.2733 H   0  0  0  0  0  0  0  0  0  0  0  0
   -0.2152   -0.1156   -4.2733 H   0  0  0  0  0  0  0  0  0  0  0  0
    0.6663   -1.6441   -4.2823 H   0  0  0  0  0  0  0  0  0  0  0  0
   -0.2087   -1.1748   -1.9919 H   0  0  0  0  0  0  0  0  0  0  0  0
    1.5414   -1.1748   -1.9919 H   0  0  0  0  0  0  0  0  0  0  0  0
   -0.2087    1.3193   -2.1291 H   0  0  0  0  0  0  0  0  0  0  0  0
    1.5414    1.3193   -2.1291 H   0  0  0  0  0  0  0  0  0  0  0  0
    1.5478    0.2601    0.1522 H   0  0  0  0  0  0  0  0  0  0  0  0
   -0.3915    0.1574    0.2305 H   0  0  0  0  0  0  0  0  0  0  0  0
    0.6663    1.7885    0.1612 H   0  0  0  0  0  0  0  0  0  0  0  0
  1  2  1  0
  1  5  1  0
  1  6  1  0
  1  7  1  0
  2  3  1  0
  2  8  1  0
  2  9  1  0
  3  4  1  0
  3 10  1  0
  3 11  1  0
  4 24  1  0
 12 13  1  0
 12 16  1  0
 12 17  1  0
 12 18  1  0
 13 14  1  0
 13 19  1  0
 13 20  1  0
 14 15  1  0
 14 21  1  0
 14 22  1  0
 15 23  1  0
 15 25  1  0
M  RAD  1  15   2
M  END
>  <reaction>  (5) 
rmg_rxn_302

>  <mol_properties>  (5) 
{"2": {"label": "*0", "atom_type": "Cs"}, "3": {"label": "*1", "atom_type": "O2s"}, "13": {"label": "*4", "atom_type": "Cs"}, "14": {"label": "*3", "atom_type": "Cs"}, "23": {"label": "*2", "atom_type": "H0"}}

>  <type>  (5) 
unop_1

>  <geom_source>  (5) 
Heuristics

$$$$

     RDKit          3D

 25 23  0  0  0  0  0  0  0  0999 V2000
    0.8715   -1.4510    1.8955 C   0  0  0  0  0  0  0  0  0  0  0  0
   -0.0343   -1.4488    0.6718 C   0  0  0  0  0  0  0  0  0  0  0  0
   -1.4354   -0.9315    0.9624 C   0  0  0  0  0  0  0  0  0  0  0  0
   -1.4527    0.4041    1.4294 O   0  0  0  0  0  0  0  0  0  0  0  0
    0.4726   -2.1083    2.6716 H   0  0  0  0  0  0  0  0  0  0  0  0
    1.8747   -1.7984    1.6445 H   0  0  0  0  0  0  0  0  0  0  0  0
    0.9527   -0.4500    2.3201 H   0  0  0  0  0  0  0  0  0  0  0  0
    0.4111   -0.8387   -0.1226 H   0  0  0  0  0  0  0  0  0  0  0  0
   -0.1222   -2.4607    0.2648 H   0  0  0  0  0  0  0  0  0  0  0  0
   -2.0646   -1.0369    0.0697 H   0  0  0  0  0  0  0  0  0  0  0  0
   -1.8940   -1.5242    1.7571 H   0  0  0  0  0  0  0  0  0  0  0  0
    0.5332    0.1582   -3.0950 C   0  0  0  0  0  0  0  0  0  0  0  0
    0.5332    0.1582   -1.5723 C   0  0  0  0  0  0  0  0  0  0  0  0
    0.5332    1.5606   -0.9750 C   0  0  0  0  0  0  0  0  0  0  0  0
    0.5332    1.5606    0.5477 C   0  0  0  0  0  3  0  0  0  0  0  0
    1.4147    0.6716   -3.4864 H   0  0  0  0  0  0  0  0  0  0  0  0
   -0.3483    0.6716   -3.4864 H   0  0  0  0  0  0  0  0  0  0  0  0
    0.5332   -0.8569   -3.4954 H   0  0  0  0  0  0  0  0  0  0  0  0
   -0.3419   -0.3877   -1.2050 H   0  0  0  0  0  0  0  0  0  0  0  0
    1.4082   -0.3877   -1.2050 H   0  0  0  0  0  0  0  0  0  0  0  0
   -0.3419    2.1065   -1.3423 H   0  0  0  0  0  0  0  0  0  0  0  0
    1.4082    2.1065   -1.3423 H   0  0  0  0  0  0  0  0  0  0  0  0
    1.4147    1.0472    0.9391 H   0  0  0  0  0  0  0  0  0  0  0  0
   -0.5247    0.9446    1.0174 H   0  0  0  0  0  0  0  0  0  0  0  0
    0.5332    2.5757    0.9481 H   0  0  0  0  0  0  0  0  0  0  0  0
  1  2  1  0
  1  5  1  0
  1  6  1  0
  1  7  1  0
  2  3  1  0
  2  8  1  0
  2  9  1  0
  3  4  1  0
  3 10  1  0
  3 11  1  0
  4 24  1  0
 12 13  1  0
 12 16  1  0
 12 17  1  0
 12 18  1  0
 13 14  1  0
 13 19  1  0
 13 20  1  0
 14 15  1  0
 14 21  1  0
 14 22  1  0
 15 23  1  0
 15 25  1  0
M  RAD  1  15   2
M  END
>  <reaction>  (6) 
rmg_rxn_302

>  <mol_properties>  (6) 
{"2": {"label": "*0", "atom_type": "Cs"}, "3": {"label": "*1", "atom_type": "O2s"}, "13": {"label": "*4", "atom_type": "Cs"}, "14": {"label": "*3", "atom_type": "Cs"}, "23": {"label": "*2", "atom_type": "H0"}}

>  <type>  (6) 
unop_2

>  <geom_source>  (6) 
Heuristics

$$$$

     RDKit          3D

 25 23  0  0  0  0  0  0  0  0999 V2000
   -2.0687    1.5283    2.3398 C   0  0  0  0  0  0  0  0  0  0  0  0
   -0.8057    0.7577    2.6989 C   0  0  0  0  0  0  0  0  0  0  0  0
   -0.7798   -0.6526    2.1282 C   0  0  0  0  0  0  0  0  0  0  0  0
   -0.8354   -0.6849    0.7146 O   0  0  0  0  0  0  0  0  0  0  0  0
   -2.9536    1.0326    2.7457 H   0  0  0  0  0  0  0  0  0  0  0  0
   -2.0398    2.5432    2.7389 H   0  0  0  0  0  0  0  0  0  0  0  0
   -2.1916    1.5897    1.2581 H   0  0  0  0  0  0  0  0  0  0  0  0
    0.0778    1.3003    2.3432 H   0  0  0  0  0  0  0  0  0  0  0  0
   -0.7020    0.6874    3.7859 H   0  0  0  0  0  0  0  0  0  0  0  0
    0.1072   -1.1861    2.4923 H   0  0  0  0  0  0  0  0  0  0  0  0
   -1.6571   -1.2079    2.4673 H   0  0  0  0  0  0  0  0  0  0  0  0
    1.1505   -0.9308   -3.8098 C   0  0  0  0  0  0  0  0  0  0  0  0
    1.1505   -0.9308   -2.2871 C   0  0  0  0  0  0  0  0  0  0  0  0
    1.1505    0.4715   -1.6897 C   0  0  0  0  0  0  0  0  0  0  0  0
    1.1505    0.4715   -0.1670 C   0  0  0  0  0  3  0  0  0  0  0  0
    2.0321   -0.4175   -4.2012 H   0  0  0  0  0  0  0  0  0  0  0  0
    0.2690   -0.4175   -4.2012 H   0  0  0  0  0  0  0  0  0  0  0  0
    1.1505   -1.9459   -4.2102 H   0  0  0  0  0  0  0  0  0  0  0  0
    0.2755   -1.4767   -1.9198 H   0  0  0  0  0  0  0  0  0  0  0  0
    2.0256   -1.4767   -1.9198 H   0  0  0  0  0  0  0  0  0  0  0  0
    0.2755    1.0174   -2.0570 H   0  0  0  0  0  0  0  0  0  0  0  0
    2.0256    1.0174   -2.0570 H   0  0  0  0  0  0  0  0  0  0  0  0
    2.0321   -0.0418    0.2243 H   0  0  0  0  0  0  0  0  0  0  0  0
    0.0927   -0.1445    0.3026 H   0  0  0  0  0  0  0  0  0  0  0  0
    1.1505    1.4866    0.2333 H   0  0  0  0  0  0  0  0  0  0  0  0
  1  2  1  0
  1  5  1  0
  1  6  1  0
  1  7  1  0
  2  3  1  0
  2  8  1  0
  2  9  1  0
  3  4  1  0
  3 10  1  0
  3 11  1  0
  4 24  1  0
 12 13  1  0
 12 16  1  0
 12 17  1  0
 12 18  1  0
 13 14  1  0
 13 19  1  0
 13 20  1  0
 14 15  1  0
 14 21  1  0
 14 22  1  0
 15 23  1  0
 15 25  1  0
M  RAD  1  15   2
M  END
>  <reaction>  (7) 
rmg_rxn_302

>  <mol_properties>  (7) 
{"2": {"label": "*0", "atom_type": "Cs"}, "3": {"label": "*1", "atom_type": "O2s"}, "13": {"label": "*4", "atom_type": "Cs"}, "14": {"label": "*3", "atom_type": "Cs"}, "23": {"label": "*2", "atom_type": "H0"}}

>  <type>  (7) 
unop_3

>  <geom_source>  (7) 
Heuristics

$$$$

     RDKit          3D

 25 23  0  0  0  0  0  0  0  0999 V2000
   -1.6779   -2.1338    0.2787 C   0  0  0  0  0  0  0  0  0  0  0  0
   -1.5898   -0.6805   -0.1666 C   0  0  0  0  0  0  0  0  0  0  0  0
   -1.6474    0.3066    0.9898 C   0  0  0  0  0  0  0  0  0  0  0  0
   -0.5895    0.1458    1.9157 O   0  0  0  0  0  0  0  0  0  0  0  0
   -2.6282   -2.3280    0.7814 H   0  0  0  0  0  0  0  0  0  0  0  0
   -1.6031   -2.8133   -0.5715 H   0  0  0  0  0  0  0  0  0  0  0  0
   -0.8782   -2.3741    0.9798 H   0  0  0  0  0  0  0  0  0  0  0  0
   -0.6621   -0.5163   -0.7270 H   0  0  0  0  0  0  0  0  0  0  0  0
   -2.4067   -0.4462   -0.8559 H   0  0  0  0  0  0  0  0  0  0  0  0
   -1.6697    1.3333    0.6031 H   0  0  0  0  0  0  0  0  0  0  0  0
   -2.5637    0.1541    1.5645 H   0  0  0  0  0  0  0  0  0  0  0  0
    1.3964   -0.1001   -2.6088 C   0  0  0  0  0  0  0  0  0  0  0  0
    1.3964   -0.1001   -1.0861 C   0  0  0  0  0  0  0  0  0  0  0  0
    1.3964    1.3023   -0.4887 C   0  0  0  0  0  0  0  0  0  0  0  0
    1.3964    1.3023    1.0340 C   0  0  0  0  0  3  0  0  0  0  0  0
    2.2779    0.4132   -3.0001 H   0  0  0  0  0  0  0  0  0  0  0  0
    0.5148    0.4132   -3.0001 H   0  0  0  0  0  0  0  0  0  0  0  0
    1.3964   -1.1152   -3.0091 H   0  0  0  0  0  0  0  0  0  0  0  0
    0.5213   -0.6460   -0.7188 H   0  0  0  0  0  0  0  0  0  0  0  0
    2.2714   -0.6460   -0.7188 H   0  0  0  0  0  0  0  0  0  0  0  0
    0.5213    1.8481   -0.8560 H   0  0  0  0  0  0  0  0  0  0  0  0
    2.2714    1.8481   -0.8560 H   0  0  0  0  0  0  0  0  0  0  0  0
    2.2779    0.7889    1.4254 H   0  0  0  0  0  0  0  0  0  0  0  0
    0.3385    0.6862    1.5036 H   0  0  0  0  0  0  0  0  0  0  0  0
    1.3964    2.3174    1.4344 H   0  0  0  0  0  0  0  0  0  0  0  0
  1  2  1  0
  1  5  1  0
  1  6  1  0
  1  7  1  0
  2  3  1  0
  2  8  1  0
  2  9  1  0
  3  4  1  0
  3 10  1  0
  3 11  1  0
  4 24  1  0
 12 13  1  0
 12 16  1  0
 12 17  1  0
 12 18  1  0
 13 14  1  0
 13 19  1  0
 13 20  1  0
 14 15  1  0
 14 21  1  0
 14 22  1  0
 15 23  1  0
 15 25  1  0
M  RAD  1  15   2
M  END
>  <reaction>  (8) 
rmg_rxn_302

>  <mol_properties>  (8) 
{"2": {"label": "*0", "atom_type": "Cs"}, "3": {"label": "*1", "atom_type": "O2s"}, "13": {"label": "*4", "atom_type": "Cs"}, "14": {"label": "*3", "atom_type": "Cs"}, "23": {"label": "*2", "atom_type": "H0"}}

>  <type>  (8) 
unop_4

>  <geom_source>  (8) 
Heuristics

$$$$

     RDKit          3D

 25 23  0  0  0  0  0  0  0  0999 V2000
   -3.1238    0.5738    1.5190 C   0  0  0  0  0  0  0  0  0  0  0  0
   -1.7979    1.0368    2.1069 C   0  0  0  0  0  0  0  0  0  0  0  0
   -0.7697   -0.0788    2.2224 C   0  0  0  0  0  0  0  0  0  0  0  0
   -0.4317   -0.6589    0.9768 O   0  0  0  0  0  0  0  0  0  0  0  0
   -3.5859   -0.1846    2.1550 H   0  0  0  0  0  0  0  0  0  0  0  0
   -3.8252    1.4038    1.4227 H   0  0  0  0  0  0  0  0  0  0  0  0
   -2.9781    0.1332    0.5322 H   0  0  0  0  0  0  0  0  0  0  0  0
   -1.3784    1.8436    1.4948 H   0  0  0  0  0  0  0  0  0  0  0  0
   -1.9540    1.4611    3.1034 H   0  0  0  0  0  0  0  0  0  0  0  0
    0.1282    0.2928    2.7320 H   0  0  0  0  0  0  0  0  0  0  0  0
   -1.1727   -0.8959    2.8249 H   0  0  0  0  0  0  0  0  0  0  0  0
    1.5542   -0.9048   -3.5476 C   0  0  0  0  0  0  0  0  0  0  0  0
    1.5542   -0.9048   -2.0249 C   0  0  0  0  0  0  0  0  0  0  0  0
    1.5542    0.4976   -1.4276 C   0  0  0  0  0  0  0  0  0  0  0  0
    1.5542    0.4976    0.0951 C   0  0  0  0  0  3  0  0  0  0  0  0
    2.4357   -0.3914   -3.9390 H   0  0  0  0  0  0  0  0  0  0  0  0
    0.6726   -0.3914   -3.9390 H   0  0  0  0  0  0  0  0  0  0  0  0
    1.5542   -1.9199   -3.9480 H   0  0  0  0  0  0  0  0  0  0  0  0
    0.6791   -1.4507   -1.6576 H   0  0  0  0  0  0  0  0  0  0  0  0
    2.4292   -1.4507   -1.6576 H   0  0  0  0  0  0  0  0  0  0  0  0
    0.6791    1.0435   -1.7949 H   0  0  0  0  0  0  0  0  0  0  0  0
    2.4292    1.0435   -1.7949 H   0  0  0  0  0  0  0  0  0  0  0  0
    2.4357   -0.0158    0.4865 H   0  0  0  0  0  0  0  0  0  0  0  0
    0.4963   -0.1184    0.5648 H   0  0  0  0  0  0  0  0  0  0  0  0
    1.5542    1.5127    0.4955 H   0  0  0  0  0  0  0  0  0  0  0  0
  1  2  1  0
  1  5  1  0
  1  6  1  0
  1  7  1  0
  2  3  1  0
  2  8  1  0
  2  9  1  0
  3  4  1  0
  3 10  1  0
  3 11  1  0
  4 24  1  0
 12 13  1  0
 12 16  1  0
 12 17  1  0
 12 18  1  0
 13 14  1  0
 13 19  1  0
 13 20  1  0
 14 15  1  0
 14 21  1  0
 14 22  1  0
 15 23  1  0
 15 25  1  0
M  RAD  1  15   2
M  END
>  <reaction>  (9) 
rmg_rxn_302

>  <mol_properties>  (9) 
{"2": {"label": "*0", "atom_type": "Cs"}, "3": {"label": "*1", "atom_type": "O2s"}, "13": {"label": "*4", "atom_type": "Cs"}, "14": {"label": "*3", "atom_type": "Cs"}, "23": {"label": "*2", "atom_type": "H0"}}

>  <type>  (9) 
unop_5

>  <geom_source>  (9) 
Heuristics

$$$$

     RDKit          3D

 25 23  0  0  0  0  0  0  0  0999 V2000
   -2.5508   -1.5343    0.3002 C   0  0  0  0  0  0  0  0  0  0  0  0
   -2.1015   -0.0958    0.0838 C   0  0  0  0  0  0  0  0  0  0  0  0
   -1.4966    0.5382    1.3277 C   0  0  0  0  0  0  0  0  0  0  0  0
   -0.3435   -0.1359    1.7947 O   0  0  0  0  0  0  0  0  0  0  0  0
   -3.3309   -1.5859    1.0632 H   0  0  0  0  0  0  0  0  0  0  0  0
   -2.9505   -1.9663   -0.6183 H   0  0  0  0  0  0  0  0  0  0  0  0
   -1.7190   -2.1544    0.6359 H   0  0  0  0  0  0  0  0  0  0  0  0
   -1.3678   -0.0510   -0.7294 H   0  0  0  0  0  0  0  0  0  0  0  0
   -2.9474    0.5204   -0.2359 H   0  0  0  0  0  0  0  0  0  0  0  0
   -1.2753    1.5960    1.1372 H   0  0  0  0  0  0  0  0  0  0  0  0
   -2.2121    0.4976    2.1520 H   0  0  0  0  0  0  0  0  0  0  0  0
    1.6424   -0.3818   -2.7298 C   0  0  0  0  0  0  0  0  0  0  0  0
    1.6424   -0.3818   -1.2071 C   0  0  0  0  0  0  0  0  0  0  0  0
    1.6424    1.0205   -0.6097 C   0  0  0  0  0  0  0  0  0  0  0  0
    1.6424    1.0205    0.9130 C   0  0  0  0  0  3  0  0  0  0  0  0
    2.5239    0.1315   -3.1211 H   0  0  0  0  0  0  0  0  0  0  0  0
    0.7608    0.1315   -3.1211 H   0  0  0  0  0  0  0  0  0  0  0  0
    1.6424   -1.3969   -3.1301 H   0  0  0  0  0  0  0  0  0  0  0  0
    0.7673   -0.9277   -0.8397 H   0  0  0  0  0  0  0  0  0  0  0  0
    2.5174   -0.9277   -0.8397 H   0  0  0  0  0  0  0  0  0  0  0  0
    0.7673    1.5664   -0.9770 H   0  0  0  0  0  0  0  0  0  0  0  0
    2.5174    1.5664   -0.9770 H   0  0  0  0  0  0  0  0  0  0  0  0
    2.5239    0.5072    1.3044 H   0  0  0  0  0  0  0  0  0  0  0  0
    0.5845    0.4045    1.3826 H   0  0  0  0  0  0  0  0  0  0  0  0
    1.6424    2.0356    1.3134 H   0  0  0  0  0  0  0  0  0  0  0  0
  1  2  1  0
  1  5  1  0
  1  6  1  0
  1  7  1  0
  2  3  1  0
  2  8  1  0
  2  9  1  0
  3  4  1  0
  3 10  1  0
  3 11  1  0
  4 24  1  0
 12 13  1  0
 12 16  1  0
 12 17  1  0
 12 18  1  0
 13 14  1  0
 13 19  1  0
 13 20  1  0
 14 15  1  0
 14 21  1  0
 14 22  1  0
 15 23  1  0
 15 25  1  0
M  RAD  1  15   2
M  END
>  <reaction>  (10) 
rmg_rxn_302

>  <mol_properties>  (10) 
{"2": {"label": "*0", "atom_type": "Cs"}, "3": {"label": "*1", "atom_type": "O2s"}, "13": {"label": "*4", "atom_type": "Cs"}, "14": {"label": "*3", "atom_type": "Cs"}, "23": {"label": "*2", "atom_type": "H0"}}

>  <type>  (10) 
unop_6

>  <geom_source>  (10) 
Heuristics

$$$$

     RDKit          3D

 25 23  0  0  0  0  0  0  0  0999 V2000
   -3.0523   -0.8709    0.5957 C   0  0  0  0  0  0  0  0  0  0  0  0
   -2.3440    0.4763    0.6319 C   0  0  0  0  0  0  0  0  0  0  0  0
   -1.2752    0.5642    1.7113 C   0  0  0  0  0  0  0  0  0  0  0  0
   -0.2394   -0.3864    1.5515 O   0  0  0  0  0  0  0  0  0  0  0  0
   -3.5722   -1.0608    1.5375 H   0  0  0  0  0  0  0  0  0  0  0  0
   -3.7892   -0.9089   -0.2079 H   0  0  0  0  0  0  0  0  0  0  0  0
   -2.3384   -1.6808    0.4434 H   0  0  0  0  0  0  0  0  0  0  0  0
   -1.8831    0.6832   -0.3409 H   0  0  0  0  0  0  0  0  0  0  0  0
   -3.0675    1.2793    0.8024 H   0  0  0  0  0  0  0  0  0  0  0  0
   -0.8643    1.5810    1.7474 H   0  0  0  0  0  0  0  0  0  0  0  0
   -1.7150    0.3547    2.6889 H   0  0  0  0  0  0  0  0  0  0  0  0
    1.7465   -0.6323   -2.9730 C   0  0  0  0  0  0  0  0  0  0  0  0
    1.7465   -0.6323   -1.4503 C   0  0  0  0  0  0  0  0  0  0  0  0
    1.7465    0.7700   -0.8529 C   0  0  0  0  0  0  0  0  0  0  0  0
    1.7465    0.7700    0.6698 C   0  0  0  0  0  3  0  0  0  0  0  0
    2.6280   -0.1190   -3.3644 H   0  0  0  0  0  0  0  0  0  0  0  0
    0.8649   -0.1190   -3.3644 H   0  0  0  0  0  0  0  0  0  0  0  0
    1.7465   -1.6474   -3.3734 H   0  0  0  0  0  0  0  0  0  0  0  0
    0.8714   -1.1782   -1.0830 H   0  0  0  0  0  0  0  0  0  0  0  0
    2.6215   -1.1782   -1.0830 H   0  0  0  0  0  0  0  0  0  0  0  0
    0.8714    1.3159   -1.2202 H   0  0  0  0  0  0  0  0  0  0  0  0
    2.6215    1.3159   -1.2202 H   0  0  0  0  0  0  0  0  0  0  0  0
    2.6280    0.2567    1.0611 H   0  0  0  0  0  0  0  0  0  0  0  0
    0.6886    0.1540    1.1394 H   0  0  0  0  0  0  0  0  0  0  0  0
    1.7465    1.7851    1.0701 H   0  0  0  0  0  0  0  0  0  0  0  0
  1  2  1  0
  1  5  1  0
  1  6  1  0
  1  7  1  0
  2  3  1  0
  2  8  1  0
  2  9  1  0
  3  4  1  0
  3 10  1  0
  3 11  1  0
  4 24  1  0
 12 13  1  0
 12 16  1  0
 12 17  1  0
 12 18  1  0
 13 14  1  0
 13 19  1  0
 13 20  1  0
 14 15  1  0
 14 21  1  0
 14 22  1  0
 15 23  1  0
 15 25  1  0
M  RAD  1  15   2
M  END
>  <reaction>  (11) 
rmg_rxn_302

>  <mol_properties>  (11) 
{"2": {"label": "*0", "atom_type": "Cs"}, "3": {"label": "*1", "atom_type": "O2s"}, "13": {"label": "*4", "atom_type": "Cs"}, "14": {"label": "*3", "atom_type": "Cs"}, "23": {"label": "*2", "atom_type": "H0"}}

>  <type>  (11) 
unop_7

>  <geom_source>  (11) 
Heuristics

$$$$

     RDKit          3D

 25 23  0  0  0  0  0  0  0  0999 V2000
    0.6113    0.2506    2.9156 C   0  0  0  0  0  0  0  0  0  0  0  0
    0.3442   -0.9781    2.0573 C   0  0  0  0  0  0  0  0  0  0  0  0
   -1.1056   -1.0953    1.6106 C   0  0  0  0  0  0  0  0  0  0  0  0
   -1.5385   -0.0018    0.8239 O   0  0  0  0  0  0  0  0  0  0  0  0
    0.0240    0.2153    3.8361 H   0  0  0  0  0  0  0  0  0  0  0  0
    1.6644    0.3189    3.1919 H   0  0  0  0  0  0  0  0  0  0  0  0
    0.3375    1.1624    2.3840 H   0  0  0  0  0  0  0  0  0  0  0  0
    0.9882   -0.9624    1.1704 H   0  0  0  0  0  0  0  0  0  0  0  0
    0.6061   -1.8873    2.6069 H   0  0  0  0  0  0  0  0  0  0  0  0
   -1.2553   -2.0407    1.0740 H   0  0  0  0  0  0  0  0  0  0  0  0
   -1.7641   -1.1065    2.4820 H   0  0  0  0  0  0  0  0  0  0  0  0
    0.4474   -0.2477   -3.7005 C   0  0  0  0  0  0  0  0  0  0  0  0
    0.4474   -0.2477   -2.1778 C   0  0  0  0  0  0  0  0  0  0  0  0
    0.4474    1.1547   -1.5804 C   0  0  0  0  0  0  0  0  0  0  0  0
    0.4474    1.1547   -0.0578 C   0  0  0  0  0  3  0  0  0  0  0  0
    1.3289    0.2657   -4.0919 H   0  0  0  0  0  0  0  0  0  0  0  0
   -0.4342    0.2657   -4.0919 H   0  0  0  0  0  0  0  0  0  0  0  0
    0.4474   -1.2628   -4.1009 H   0  0  0  0  0  0  0  0  0  0  0  0
   -0.4277   -0.7936   -1.8105 H   0  0  0  0  0  0  0  0  0  0  0  0
    1.3224   -0.7936   -1.8105 H   0  0  0  0  0  0  0  0  0  0  0  0
   -0.4277    1.7006   -1.9478 H   0  0  0  0  0  0  0  0  0  0  0  0
    1.3224    1.7006   -1.9478 H   0  0  0  0  0  0  0  0  0  0  0  0
    1.3289    0.6414    0.3336 H   0  0  0  0  0  0  0  0  0  0  0  0
   -0.6105    0.5387    0.4119 H   0  0  0  0  0  0  0  0  0  0  0  0
    0.4474    2.1698    0.3426 H   0  0  0  0  0  0  0  0  0  0  0  0
  1  2  1  0
  1  5  1  0
  1  6  1  0
  1  7  1  0
  2  3  1  0
  2  8  1  0
  2  9  1  0
  3  4  1  0
  3 10  1  0
  3 11  1  0
  4 24  1  0
 12 13  1  0
 12 16  1  0
 12 17  1  0
 12 18  1  0
 13 14  1  0
 13 19  1  0
 13 20  1  0
 14 15  1  0
 14 21  1  0
 14 22  1  0
 15 23  1  0
 15 25  1  0
M  RAD  1  15   2
M  END
>  <reaction>  (12) 
rmg_rxn_302

>  <mol_properties>  (12) 
{"2": {"label": "*0", "atom_type": "Cs"}, "3": {"label": "*1", "atom_type": "O2s"}, "13": {"label": "*4", "atom_type": "Cs"}, "14": {"label": "*3", "atom_type": "Cs"}, "23": {"label": "*2", "atom_type": "H0"}}

>  <type>  (12) 
unop_8

>  <geom_source>  (12) 
Heuristics

$$$$

     RDKit          3D

 25 23  0  0  0  0  0  0  0  0999 V2000
    0.9488   -0.6751    2.4872 C   0  0  0  0  0  0  0  0  0  0  0  0
    0.2507   -1.3746    1.3291 C   0  0  0  0  0  0  0  0  0  0  0  0
   -1.2458   -1.1043    1.2782 C   0  0  0  0  0  0  0  0  0  0  0  0
   -1.5615    0.2658    1.1183 O   0  0  0  0  0  0  0  0  0  0  0  0
    0.5561   -1.0250    3.4446 H   0  0  0  0  0  0  0  0  0  0  0  0
    2.0228   -0.8660    2.4750 H   0  0  0  0  0  0  0  0  0  0  0  0
    0.7927    0.4030    2.4403 H   0  0  0  0  0  0  0  0  0  0  0  0
    0.6995   -1.0638    0.3785 H   0  0  0  0  0  0  0  0  0  0  0  0
    0.3995   -2.4566    1.3960 H   0  0  0  0  0  0  0  0  0  0  0  0
   -1.7061   -1.7024    0.4817 H   0  0  0  0  0  0  0  0  0  0  0  0
   -1.7105   -1.4026    2.2206 H   0  0  0  0  0  0  0  0  0  0  0  0
    0.4244    0.0199   -3.4061 C   0  0  0  0  0  0  0  0  0  0  0  0
    0.4244    0.0199   -1.8834 C   0  0  0  0  0  0  0  0  0  0  0  0
    0.4244    1.4223   -1.2860 C   0  0  0  0  0  0  0  0  0  0  0  0
    0.4244    1.4223    0.2367 C   0  0  0  0  0  3  0  0  0  0  0  0
    1.3059    0.5332   -3.7975 H   0  0  0  0  0  0  0  0  0  0  0  0
   -0.4571    0.5332   -3.7975 H   0  0  0  0  0  0  0  0  0  0  0  0
    0.4244   -0.9952   -3.8065 H   0  0  0  0  0  0  0  0  0  0  0  0
   -0.4506   -0.5260   -1.5161 H   0  0  0  0  0  0  0  0  0  0  0  0
    1.2994   -0.5260   -1.5161 H   0  0  0  0  0  0  0  0  0  0  0  0
   -0.4506    1.9681   -1.6533 H   0  0  0  0  0  0  0  0  0  0  0  0
    1.2994    1.9681   -1.6533 H   0  0  0  0  0  0  0  0  0  0  0  0
    1.3059    0.9089    0.6280 H   0  0  0  0  0  0  0  0  0  0  0  0
   -0.6334    0.8062    0.7063 H   0  0  0  0  0  0  0  0  0  0  0  0
    0.4244    2.4374    0.6370 H   0  0  0  0  0  0  0  0  0  0  0  0
  1  2  1  0
  1  5  1  0
  1  6  1  0
  1  7  1  0
  2  3  1  0
  2  8  1  0
  2  9  1  0
  3  4  1  0
  3 10  1  0
  3 11  1  0
  4 24  1  0
 12 13  1  0
 12 16  1  0
 12 17  1  0
 12 18  1  0
 13 14  1  0
 13 19  1  0
 13 20  1  0
 14 15  1  0
 14 21  1  0
 14 22  1  0
 15 23  1  0
 15 25  1  0
M  RAD  1  15   2
M  END
>  <reaction>  (13) 
rmg_rxn_302

>  <mol_properties>  (13) 
{"2": {"label": "*0", "atom_type": "Cs"}, "3": {"label": "*1", "atom_type": "O2s"}, "13": {"label": "*4", "atom_type": "Cs"}, "14": {"label": "*3", "atom_type": "Cs"}, "23": {"label": "*2", "atom_type": "H0"}}

>  <type>  (13) 
unop_9

>  <geom_source>  (13) 
Heuristics

$$$$

     RDKit          3D

 25 23  0  0  0  0  0  0  0  0999 V2000
   -3.2514   -0.2297    1.0116 C   0  0  0  0  0  0  0  0  0  0  0  0
   -2.2617    0.8749    1.3555 C   0  0  0  0  0  0  0  0  0  0  0  0
   -1.0065    0.3632    2.0466 C   0  0  0  0  0  0  0  0  0  0  0  0
   -0.2690   -0.5531    1.2599 O   0  0  0  0  0  0  0  0  0  0  0  0
   -3.6005   -0.7326    1.9164 H   0  0  0  0  0  0  0  0  0  0  0  0
   -4.1235    0.1684    0.4912 H   0  0  0  0  0  0  0  0  0  0  0  0
   -2.7868   -0.9823    0.3738 H   0  0  0  0  0  0  0  0  0  0  0  0
   -1.9711    1.4136    0.4461 H   0  0  0  0  0  0  0  0  0  0  0  0
   -2.7333    1.6148    2.0094 H   0  0  0  0  0  0  0  0  0  0  0  0
   -0.3756    1.2088    2.3482 H   0  0  0  0  0  0  0  0  0  0  0  0
   -1.2766   -0.1825    2.9534 H   0  0  0  0  0  0  0  0  0  0  0  0
    1.7169   -0.7990   -3.2645 C   0  0  0  0  0  0  0  0  0  0  0  0
    1.7169   -0.7990   -1.7419 C   0  0  0  0  0  0  0  0  0  0  0  0
    1.7169    0.6034   -1.1445 C   0  0  0  0  0  0  0  0  0  0  0  0
    1.7169    0.6034    0.3782 C   0  0  0  0  0  3  0  0  0  0  0  0
    2.5984   -0.2856   -3.6559 H   0  0  0  0  0  0  0  0  0  0  0  0
    0.8354   -0.2856   -3.6559 H   0  0  0  0  0  0  0  0  0  0  0  0
    1.7169   -1.8141   -3.6649 H   0  0  0  0  0  0  0  0  0  0  0  0
    0.8419   -1.3448   -1.3745 H   0  0  0  0  0  0  0  0  0  0  0  0
    2.5919   -1.3448   -1.3745 H   0  0  0  0  0  0  0  0  0  0  0  0
    0.8419    1.1493   -1.5118 H   0  0  0  0  0  0  0  0  0  0  0  0
    2.5919    1.1493   -1.5118 H   0  0  0  0  0  0  0  0  0  0  0  0
    2.5984    0.0901    0.7696 H   0  0  0  0  0  0  0  0  0  0  0  0
    0.6591   -0.0126    0.8479 H   0  0  0  0  0  0  0  0  0  0  0  0
    1.7169    1.6185    0.7786 H   0  0  0  0  0  0  0  0  0  0  0  0
  1  2  1  0
  1  5  1  0
  1  6  1  0
  1  7  1  0
  2  3  1  0
  2  8  1  0
  2  9  1  0
  3  4  1  0
  3 10  1  0
  3 11  1  0
  4 24  1  0
 12 13  1  0
 12 16  1  0
 12 17  1  0
 12 18  1  0
 13 14  1  0
 13 19  1  0
 13 20  1  0
 14 15  1  0
 14 21  1  0
 14 22  1  0
 15 23  1  0
 15 25  1  0
M  RAD  1  15   2
M  END
>  <reaction>  (14) 
rmg_rxn_302

>  <mol_properties>  (14) 
{"2": {"label": "*0", "atom_type": "Cs"}, "3": {"label": "*1", "atom_type": "O2s"}, "13": {"label": "*4", "atom_type": "Cs"}, "14": {"label": "*3", "atom_type": "Cs"}, "23": {"label": "*2", "atom_type": "H0"}}

>  <type>  (14) 
unop_10

>  <geom_source>  (14) 
Heuristics

$$$$

     RDKit          3D

 25 23  0  0  0  0  0  0  0  0999 V2000
    0.3782   -2.0658    1.2420 C   0  0  0  0  0  0  0  0  0  0  0  0
   -0.4388   -1.3307    0.1884 C   0  0  0  0  0  0  0  0  0  0  0  0
   -1.6191   -0.5660    0.7692 C   0  0  0  0  0  0  0  0  0  0  0  0
   -1.2369    0.4335    1.6951 O   0  0  0  0  0  0  0  0  0  0  0  0
   -0.2319   -2.8144    1.7527 H   0  0  0  0  0  0  0  0  0  0  0  0
    1.2320   -2.5770    0.7949 H   0  0  0  0  0  0  0  0  0  0  0  0
    0.7515   -1.3731    1.9968 H   0  0  0  0  0  0  0  0  0  0  0  0
    0.2016   -0.6305   -0.3606 H   0  0  0  0  0  0  0  0  0  0  0  0
   -0.8224   -2.0375   -0.5536 H   0  0  0  0  0  0  0  0  0  0  0  0
   -2.2183   -0.1329   -0.0415 H   0  0  0  0  0  0  0  0  0  0  0  0
   -2.2665   -1.2471    1.3260 H   0  0  0  0  0  0  0  0  0  0  0  0
    0.7490    0.1876   -2.8293 C   0  0  0  0  0  0  0  0  0  0  0  0
    0.7490    0.1876   -1.3066 C   0  0  0  0  0  0  0  0  0  0  0  0
    0.7490    1.5900   -0.7093 C   0  0  0  0  0  0  0  0  0  0  0  0
    0.7490    1.5900    0.8134 C   0  0  0  0  0  3  0  0  0  0  0  0
    1.6305    0.7009   -3.2207 H   0  0  0  0  0  0  0  0  0  0  0  0
   -0.1326    0.7009   -3.2207 H   0  0  0  0  0  0  0  0  0  0  0  0
    0.7490   -0.8275   -3.2297 H   0  0  0  0  0  0  0  0  0  0  0  0
   -0.1261   -0.3583   -0.9393 H   0  0  0  0  0  0  0  0  0  0  0  0
    1.6240   -0.3583   -0.9393 H   0  0  0  0  0  0  0  0  0  0  0  0
   -0.1261    2.1358   -1.0766 H   0  0  0  0  0  0  0  0  0  0  0  0
    1.6240    2.1358   -1.0766 H   0  0  0  0  0  0  0  0  0  0  0  0
    1.6305    1.0766    1.2048 H   0  0  0  0  0  0  0  0  0  0  0  0
   -0.3089    0.9739    1.2831 H   0  0  0  0  0  0  0  0  0  0  0  0
    0.7490    2.6051    1.2138 H   0  0  0  0  0  0  0  0  0  0  0  0
  1  2  1  0
  1  5  1  0
  1  6  1  0
  1  7  1  0
  2  3  1  0
  2  8  1  0
  2  9  1  0
  3  4  1  0
  3 10  1  0
  3 11  1  0
  4 24  1  0
 12 13  1  0
 12 16  1  0
 12 17  1  0
 12 18  1  0
 13 14  1  0
 13 19  1  0
 13 20  1  0
 14 15  1  0
 14 21  1  0
 14 22  1  0
 15 23  1  0
 15 25  1  0
M  RAD  1  15   2
M  END
>  <reaction>  (15) 
rmg_rxn_302

>  <mol_properties>  (15) 
{"2": {"label": "*0", "atom_type": "Cs"}, "3": {"label": "*1", "atom_type": "O2s"}, "13": {"label": "*4", "atom_type": "Cs"}, "14": {"label": "*3", "atom_type": "Cs"}, "23": {"label": "*2", "atom_type": "H0"}}

>  <type>  (15) 
unop_11

>  <geom_source>  (15) 
Heuristics

$$$$

     RDKit          3D

 25 23  0  0  0  0  0  0  0  0999 V2000
   -0.7589   -0.1821   -1.1733 O   0  0  0  0  0  0  0  0  0  0  0  0
    2.2832    0.2876   -0.4115 C   0  0  0  0  0  0  0  0  0  0  0  0
   -2.8959   -0.0987   -0.0832 C   0  0  0  0  0  0  0  0  0  0  0  0
    2.0728   -1.0317    0.3359 C   0  0  0  0  0  0  0  0  0  0  0  0
   -1.5870    0.6298   -0.3909 C   0  0  0  0  0  0  0  0  0  0  0  0
   -3.8317    0.7731    0.7488 C   0  0  0  0  0  0  0  0  0  0  0  0
    3.5868    0.9585    0.0114 C   0  0  0  0  0  0  0  0  0  0  0  0
    0.7606   -1.6809   -0.0821 C   0  0  0  0  0  3  0  0  0  0  0  0
   -3.4014   -0.3691   -1.0357 H   0  0  0  0  0  0  0  0  0  0  0  0
   -2.6783   -1.0339    0.4768 H   0  0  0  0  0  0  0  0  0  0  0  0
    1.4371    0.9771   -0.1985 H   0  0  0  0  0  0  0  0  0  0  0  0
    2.3157    0.0974   -1.5067 H   0  0  0  0  0  0  0  0  0  0  0  0
    2.9105   -1.7299    0.1189 H   0  0  0  0  0  0  0  0  0  0  0  0
    2.0424   -0.8402    1.4304 H   0  0  0  0  0  0  0  0  0  0  0  0
   -1.0645    0.9017    0.5530 H   0  0  0  0  0  0  0  0  0  0  0  0
   -1.8014    1.5635   -0.9535 H   0  0  0  0  0  0  0  0  0  0  0  0
   -4.0839    1.7041    0.1976 H   0  0  0  0  0  0  0  0  0  0  0  0
   -4.7707    0.2178    0.9560 H   0  0  0  0  0  0  0  0  0  0  0  0
   -3.3542    1.0372    1.7165 H   0  0  0  0  0  0  0  0  0  0  0  0
    3.5697    1.1839    1.0991 H   0  0  0  0  0  0  0  0  0  0  0  0
    3.7130    1.9103   -0.5463 H   0  0  0  0  0  0  0  0  0  0  0  0
    4.4512    0.2979   -0.2131 H   0  0  0  0  0  0  0  0  0  0  0  0
    0.7857   -1.9489   -1.1599 H   0  0  0  0  0  0  0  0  0  0  0  0
    0.5843   -2.5992    0.5167 H   0  0  0  0  0  0  0  0  0  0  0  0
   -0.2851   -1.0253   -0.4065 H   0  0  0  0  0  0  0  0  0  0  0  0
  1  5  1  0
  1 25  1  0
  2  7  1  0
  2  4  1  0
  2 11  1  0
  2 12  1  0
  3  6  1  0
  3  5  1  0
  3  9  1  0
  3 10  1  0
  4  8  1  0
  4 13  1  0
  4 14  1  0
  5 15  1  0
  5 16  1  0
  6 17  1  0
  6 18  1  0
  6 19  1  0
  7 20  1  0
  7 21  1  0
  7 22  1  0
  8 23  1  0
  8 24  1  0
M  RAD  1   8   2
M  END
>  <reaction>  (16) 
rmg_rxn_302

>  <mol_properties>  (16) 
{"2": {"label": "*0", "atom_type": "Cs"}, "3": {"label": "*1", "atom_type": "O2s"}, "13": {"label": "*4", "atom_type": "Cs"}, "14": {"label": "*3", "atom_type": "Cs"}, "23": {"label": "*2", "atom_type": "H0"}}

>  <type>  (16) 
unop_12

>  <geom_source>  (16) 
AutoTST

$$$$

     RDKit          3D

 25 23  0  0  0  0  0  0  0  0999 V2000
    0.8715   -1.4510    1.8955 C   0  0  0  0  0  0  0  0  0  0  0  0
   -0.0343   -1.4488    0.6718 C   0  0  0  0  0  0  0  0  0  0  0  0
   -1.4354   -0.9315    0.9624 C   0  0  0  0  0  0  0  0  0  0  0  0
   -1.4527    0.4041    1.4294 O   0  0  0  0  0  0  0  0  0  0  0  0
    0.4726   -2.1083    2.6716 H   0  0  0  0  0  0  0  0  0  0  0  0
    1.8746   -1.7984    1.6445 H   0  0  0  0  0  0  0  0  0  0  0  0
    0.9527   -0.4500    2.3201 H   0  0  0  0  0  0  0  0  0  0  0  0
    0.4111   -0.8387   -0.1226 H   0  0  0  0  0  0  0  0  0  0  0  0
   -0.1222   -2.4607    0.2648 H   0  0  0  0  0  0  0  0  0  0  0  0
   -2.0646   -1.0369    0.0697 H   0  0  0  0  0  0  0  0  0  0  0  0
   -1.8940   -1.5242    1.7571 H   0  0  0  0  0  0  0  0  0  0  0  0
    0.5332    0.1582   -3.0950 C   0  0  0  0  0  0  0  0  0  0  0  0
    0.5332    0.1582   -1.5723 C   0  0  0  0  0  0  0  0  0  0  0  0
    0.5332    1.5606   -0.9750 C   0  0  0  0  0  0  0  0  0  0  0  0
    0.5332    1.5606    0.5477 C   0  0  0  0  0  3  0  0  0  0  0  0
    1.4147    0.6716   -3.4864 H   0  0  0  0  0  0  0  0  0  0  0  0
   -0.3483    0.6716   -3.4864 H   0  0  0  0  0  0  0  0  0  0  0  0
    0.5332   -0.8569   -3.4954 H   0  0  0  0  0  0  0  0  0  0  0  0
   -0.3419   -0.3877   -1.2050 H   0  0  0  0  0  0  0  0  0  0  0  0
    1.4082   -0.3877   -1.2050 H   0  0  0  0  0  0  0  0  0  0  0  0
   -0.3419    2.1065   -1.3423 H   0  0  0  0  0  0  0  0  0  0  0  0
    1.4082    2.1065   -1.3423 H   0  0  0  0  0  0  0  0  0  0  0  0
    1.4147    1.0472    0.9391 H   0  0  0  0  0  0  0  0  0  0  0  0
   -0.5246    0.9446    1.0174 H   0  0  0  0  0  0  0  0  0  0  0  0
    0.5332    2.5757    0.9481 H   0  0  0  0  0  0  0  0  0  0  0  0
  1  2  1  0
  1  5  1  0
  1  6  1  0
  1  7  1  0
  2  3  1  0
  2  8  1  0
  2  9  1  0
  3  4  1  0
  3 10  1  0
  3 11  1  0
  4 24  1  0
 12 13  1  0
 12 16  1  0
 12 17  1  0
 12 18  1  0
 13 14  1  0
 13 19  1  0
 13 20  1  0
 14 15  1  0
 14 21  1  0
 14 22  1  0
 15 23  1  0
 15 25  1  0
M  RAD  1  15   2
M  END
>  <reaction>  (17) 
rmg_rxn_302

>  <mol_properties>  (17) 
{"2": {"label": "*0", "atom_type": "Cs"}, "3": {"label": "*1", "atom_type": "O2s"}, "13": {"label": "*4", "atom_type": "Cs"}, "14": {"label": "*3", "atom_type": "Cs"}, "23": {"label": "*2", "atom_type": "H0"}}

>  <type>  (17) 
unop_13

>  <geom_source>  (17) 
gaussian_log

$$$$
