
     RDKit          3D

 12 11  0  0  0  0  0  0  0  0999 V2000
    1.8075    0.1979    0.4695 C   0  0  0  0  0  0  0  0  0  0  0  0
    1.0072   -0.8859   -0.7259 S   0  0  0  0  0  0  0  0  0  0  0  0
   -0.7258   -0.6904   -0.2447 C   0  0  0  0  0  0  0  0  0  0  0  0
   -1.0856   -1.2776    1.1108 C   0  0  0  0  0  0  0  0  0  0  0  0
    1.7126   -0.1777    1.4878 H   0  0  0  0  0  0  0  0  0  0  0  0
    1.4024    1.2089    0.4095 H   0  0  0  0  0  0  0  0  0  0  0  0
    2.8647    0.2298    0.2095 H   0  0  0  0  0  0  0  0  0  0  0  0
   -1.2866   -1.1892   -1.0369 H   0  0  0  0  0  0  0  0  0  0  0  0
   -0.9814    0.3707   -0.2917 H   0  0  0  0  0  0  0  0  0  0  0  0
   -0.5492   -0.7768    1.9180 H   0  0  0  0  0  0  0  0  0  0  0  0
   -0.8418   -2.3397    1.1503 H   0  0  0  0  0  0  0  0  0  0  0  0
   -2.1545   -1.1604    1.3035 H   0  0  0  0  0  0  0  0  0  0  0  0
  1  2  1  0
  1  5  1  0
  1  6  1  0
  1  7  1  0
  2  3  1  0
  3  4  1  0
  3  8  1  0
  3  9  1  0
  4 10  1  0
  4 11  1  0
  4 12  1  0
M  END
>  <reaction>  (1) 
rmg_rxn_525

>  <mol_properties>  (1) 
{"0": {"label": "donator", "atom_type": "Cs"}, "4": {"label": "d_hydrogen", "atom_type": "H0"}}

>  <type>  (1) 
r1h

$$$$

     RDKit          3D

 17 16  0  0  0  0  0  0  0  0999 V2000
    3.3619    0.3511   -1.0290 C   0  0  0  0  0  3  0  0  0  0  0  0
    2.1806    1.0643   -0.5073 C   0  0  0  0  0  0  0  0  0  0  0  0
    1.4028    0.1998    0.2757 O   0  0  0  0  0  0  0  0  0  0  0  0
    0.2433    0.8081    0.7885 C   0  0  0  0  0  0  0  0  0  0  0  0
   -0.5040   -0.1878    1.6510 C   0  0  0  0  0  0  0  0  0  0  0  0
    0.2852   -0.6298    2.8762 C   0  0  0  0  0  0  0  0  0  0  0  0
    4.1174    0.8902   -1.5820 H   0  0  0  0  0  0  0  0  0  0  0  0
    3.4399   -0.7198   -0.9141 H   0  0  0  0  0  0  0  0  0  0  0  0
    1.5724    1.4684   -1.3398 H   0  0  0  0  0  0  0  0  0  0  0  0
    2.4896    1.9442    0.0856 H   0  0  0  0  0  0  0  0  0  0  0  0
    0.5169    1.6937    1.3835 H   0  0  0  0  0  0  0  0  0  0  0  0
   -0.3954    1.1528   -0.0379 H   0  0  0  0  0  0  0  0  0  0  0  0
   -0.7611   -1.0545    1.0367 H   0  0  0  0  0  0  0  0  0  0  0  0
   -1.4466    0.2743    1.9571 H   0  0  0  0  0  0  0  0  0  0  0  0
    0.5263    0.2245    3.5136 H   0  0  0  0  0  0  0  0  0  0  0  0
    1.2220   -1.1033    2.5825 H   0  0  0  0  0  0  0  0  0  0  0  0
   -0.2849   -1.3427    3.4737 H   0  0  0  0  0  0  0  0  0  0  0  0
  1  2  1  0
  1  7  1  0
  1  8  1  0
  2  3  1  0
  2  9  1  0
  2 10  1  0
  3  4  1  0
  4  5  1  0
  4 11  1  0
  4 12  1  0
  5  6  1  0
  5 13  1  0
  5 14  1  0
  6 15  1  0
  6 16  1  0
  6 17  1  0
M  RAD  1   1   2
M  END
>  <reaction>  (2) 
rmg_rxn_525

>  <mol_properties>  (2) 
{"0": {"label": "acceptor", "atom_type": "Cs"}}

>  <type>  (2) 
r2

$$$$

     RDKit          3D

 18 17  0  0  0  0  0  0  0  0999 V2000
    2.2026   -0.7213   -0.2612 C   0  0  0  0  0  0  0  0  0  0  0  0
    1.5384    0.2638    0.6915 C   0  0  0  0  0  0  0  0  0  0  0  0
    2.2584    1.5946    0.7694 C   0  0  0  0  0  0  0  0  0  0  0  0
    2.2212    2.2185   -0.4893 O   0  0  0  0  0  0  0  0  0  0  0  0
    2.8988    3.4488   -0.5204 C   0  0  0  0  0  0  0  0  0  0  0  0
    2.7981    4.0296   -1.9118 C   0  0  0  0  0  0  0  0  0  0  0  0
    3.2294   -0.9309    0.0486 H   0  0  0  0  0  0  0  0  0  0  0  0
    2.2338   -0.3181   -1.2734 H   0  0  0  0  0  0  0  0  0  0  0  0
    1.6610   -1.6680   -0.2875 H   0  0  0  0  0  0  0  0  0  0  0  0
    1.4990   -0.1566    1.7002 H   0  0  0  0  0  0  0  0  0  0  0  0
    0.5055    0.4455    0.3835 H   0  0  0  0  0  0  0  0  0  0  0  0
    3.3038    1.4410    1.0808 H   0  0  0  0  0  0  0  0  0  0  0  0
    1.7844    2.2410    1.5226 H   0  0  0  0  0  0  0  0  0  0  0  0
    2.4596    4.1376    0.2164 H   0  0  0  0  0  0  0  0  0  0  0  0
    3.9524    3.3035   -0.2397 H   0  0  0  0  0  0  0  0  0  0  0  0
    1.7543    4.1869   -2.1856 H   0  0  0  0  0  0  0  0  0  0  0  0
    3.2472    3.3545   -2.6411 H   0  0  0  0  0  0  0  0  0  0  0  0
    3.3178    4.9878   -1.9600 H   0  0  0  0  0  0  0  0  0  0  0  0
  1  2  1  0
  1  7  1  0
  1  8  1  0
  1  9  1  0
  2  3  1  0
  2 10  1  0
  2 11  1  0
  3  4  1  0
  3 12  1  0
  3 13  1  0
  4  5  1  0
  5  6  1  0
  5 14  1  0
  5 15  1  0
  6 16  1  0
  6 17  1  0
  6 18  1  0
M  END
>  <reaction>  (3) 
rmg_rxn_525

>  <mol_properties>  (3) 
{"0": {"label": "a_hydrogen", "atom_type": "H0"}, "1": {"label": "acceptor", "atom_type": "Cs"}}

>  <type>  (3) 
r2h

$$$$

     RDKit          3D

 29 27  0  0  0  0  0  0  0  0999 V2000
    1.0094   -0.2500    2.6750 C   0  0  0  0  0  0  0  0  0  0  0  0
   -0.6628   -0.7832    2.8674 S   0  0  0  0  0  0  0  0  0  0  0  0
   -0.5490   -2.5044    2.3221 C   0  0  0  0  0  0  0  0  0  0  0  0
   -0.2654   -2.6913    0.8409 C   0  0  0  0  0  0  0  0  0  0  0  0
    1.3028    0.0342    1.4435 H   0  0  0  0  0  0  0  0  0  0  0  0
    1.7420   -0.9939    2.9882 H   0  0  0  0  0  0  0  0  0  0  0  0
    1.1534    0.6940    3.1968 H   0  0  0  0  0  0  0  0  0  0  0  0
   -1.5137   -2.9398    2.5871 H   0  0  0  0  0  0  0  0  0  0  0  0
    0.2077   -3.0030    2.9315 H   0  0  0  0  0  0  0  0  0  0  0  0
    0.6934   -2.2527    0.5635 H   0  0  0  0  0  0  0  0  0  0  0  0
   -1.0404   -2.2230    0.2332 H   0  0  0  0  0  0  0  0  0  0  0  0
   -0.2317   -3.7548    0.5946 H   0  0  0  0  0  0  0  0  0  0  0  0
    1.5955    0.4444    0.1293 C   0  0  0  0  0  3  0  0  0  0  0  0
    0.2776    0.9102   -0.4017 C   0  0  0  0  0  0  0  0  0  0  0  0
    0.4200    1.3125   -1.7475 O   0  0  0  0  0  0  0  0  0  0  0  0
   -0.7897    1.7433   -2.3211 C   0  0  0  0  0  0  0  0  0  0  0  0
   -0.5547    2.1053   -3.7733 C   0  0  0  0  0  0  0  0  0  0  0  0
   -0.1097    0.9207   -4.6206 C   0  0  0  0  0  0  0  0  0  0  0  0
    1.9941   -0.4451   -0.3535 H   0  0  0  0  0  0  0  0  0  0  0  0
    2.3432    1.2234    0.2577 H   0  0  0  0  0  0  0  0  0  0  0  0
   -0.1019    1.7485    0.2006 H   0  0  0  0  0  0  0  0  0  0  0  0
   -0.4671    0.1051   -0.3305 H   0  0  0  0  0  0  0  0  0  0  0  0
   -1.5445    0.9443   -2.2480 H   0  0  0  0  0  0  0  0  0  0  0  0
   -1.1790    2.6113   -1.7692 H   0  0  0  0  0  0  0  0  0  0  0  0
    0.1946    2.9000   -3.8165 H   0  0  0  0  0  0  0  0  0  0  0  0
   -1.4838    2.5238   -4.1702 H   0  0  0  0  0  0  0  0  0  0  0  0
   -0.8606    0.1268   -4.6049 H   0  0  0  0  0  0  0  0  0  0  0  0
    0.8247    0.5056   -4.2428 H   0  0  0  0  0  0  0  0  0  0  0  0
    0.0433    1.2162   -5.6597 H   0  0  0  0  0  0  0  0  0  0  0  0
  1  2  1  0
  1  5  1  0
  1  6  1  0
  1  7  1  0
  2  3  1  0
  3  4  1  0
  3  8  1  0
  3  9  1  0
  4 10  1  0
  4 11  1  0
  4 12  1  0
 13 14  1  0
 13 19  1  0
 13 20  1  0
 14 15  1  0
 14 21  1  0
 14 22  1  0
 15 16  1  0
 16 17  1  0
 16 23  1  0
 16 24  1  0
 17 18  1  0
 17 25  1  0
 17 26  1  0
 18 27  1  0
 18 28  1  0
 18 29  1  0
M  RAD  1  13   2
M  END
>  <reaction>  (4) 
rmg_rxn_525

>  <mol_properties>  (4) 
{"0": {"label": "*1", "atom_type": "Cs"}, "1": {"label": "*0", "atom_type": "S2s"}, "4": {"label": "*2", "atom_type": "H0"}, "12": {"label": "*3", "atom_type": "Cs"}, "13": {"label": "*4", "atom_type": "Cs"}}

>  <type>  (4) 
ts

$$$$

     RDKit          3D

 29 27  0  0  0  0  0  0  0  0999 V2000
   -0.2275   -0.6168    2.4230 C   0  0  0  0  0  0  0  0  0  0  0  0
   -1.8706   -1.1957    2.8808 S   0  0  0  0  0  0  0  0  0  0  0  0
   -1.8706   -2.8358    2.1171 C   0  0  0  0  0  0  0  0  0  0  0  0
   -1.8706   -2.8358    0.5968 C   0  0  0  0  0  0  0  0  0  0  0  0
   -0.1126   -0.4412    1.1326 H   0  0  0  0  0  0  0  0  0  0  0  0
    0.5395   -1.3099    2.7711 H   0  0  0  0  0  0  0  0  0  0  0  0
   -0.0810    0.3426    2.9173 H   0  0  0  0  0  0  0  0  0  0  0  0
   -2.7746   -3.3138    2.4981 H   0  0  0  0  0  0  0  0  0  0  0  0
   -1.0214   -3.4007    2.5084 H   0  0  0  0  0  0  0  0  0  0  0  0
   -0.9636   -2.3796    0.1975 H   0  0  0  0  0  0  0  0  0  0  0  0
   -2.7266   -2.2826    0.2090 H   0  0  0  0  0  0  0  0  0  0  0  0
   -1.9190   -3.8590    0.2172 H   0  0  0  0  0  0  0  0  0  0  0  0
    0.0024   -0.2652   -0.1598 C   0  0  0  0  0  3  0  0  0  0  0  0
    0.3458    1.1747   -0.4637 C   0  0  0  0  0  0  0  0  0  0  0  0
    1.2809    1.2094   -1.5115 O   0  0  0  0  0  0  0  0  0  0  0  0
    1.6655    2.5125   -1.8709 C   0  0  0  0  0  0  0  0  0  0  0  0
    2.6405    2.4468   -3.0286 C   0  0  0  0  0  0  0  0  0  0  0  0
    2.0324    1.8487   -4.2902 C   0  0  0  0  0  0  0  0  0  0  0  0
   -0.4253   -0.7497   -1.0383 H   0  0  0  0  0  0  0  0  0  0  0  0
    0.8953   -0.8166    0.1367 H   0  0  0  0  0  0  0  0  0  0  0  0
    0.7625    1.6669    0.4276 H   0  0  0  0  0  0  0  0  0  0  0  0
   -0.5578    1.7334   -0.7492 H   0  0  0  0  0  0  0  0  0  0  0  0
    0.7784    3.0997   -2.1567 H   0  0  0  0  0  0  0  0  0  0  0  0
    2.1287    3.0176   -1.0106 H   0  0  0  0  0  0  0  0  0  0  0  0
    3.5100    1.8620   -2.7175 H   0  0  0  0  0  0  0  0  0  0  0  0
    2.9958    3.4618   -3.2269 H   0  0  0  0  0  0  0  0  0  0  0  0
    1.1755    2.4377   -4.6268 H   0  0  0  0  0  0  0  0  0  0  0  0
    1.6881    0.8308   -4.1077 H   0  0  0  0  0  0  0  0  0  0  0  0
    2.7601    1.8224   -5.1026 H   0  0  0  0  0  0  0  0  0  0  0  0
  1  2  1  0
  1  5  1  0
  1  6  1  0
  1  7  1  0
  2  3  1  0
  3  4  1  0
  3  8  1  0
  3  9  1  0
  4 10  1  0
  4 11  1  0
  4 12  1  0
 13 14  1  0
 13 19  1  0
 13 20  1  0
 14 15  1  0
 14 21  1  0
 14 22  1  0
 15 16  1  0
 16 17  1  0
 16 23  1  0
 16 24  1  0
 17 18  1  0
 17 25  1  0
 17 26  1  0
 18 27  1  0
 18 28  1  0
 18 29  1  0
M  RAD  1  13   2
M  END
>  <reaction>  (5) 
rmg_rxn_525

>  <mol_properties>  (5) 
{"0": {"label": "*1", "atom_type": "Cs"}, "1": {"label": "*0", "atom_type": "S2s"}, "4": {"label": "*2", "atom_type": "H0"}, "12": {"label": "*3", "atom_type": "Cs"}, "13": {"label": "*4", "atom_type": "Cs"}}

>  <type>  (5) 
unop_1

>  <geom_source>  (5) 
Heuristics

$$$$

     RDKit          3D

 29 27  0  0  0  0  0  0  0  0999 V2000
    1.2078   -0.1698    2.7144 C   0  0  0  0  0  0  0  0  0  0  0  0
   -0.4353   -0.7487    3.1722 S   0  0  0  0  0  0  0  0  0  0  0  0
   -0.4353   -2.3888    2.4086 C   0  0  0  0  0  0  0  0  0  0  0  0
   -0.4353   -2.3888    0.8882 C   0  0  0  0  0  0  0  0  0  0  0  0
    1.3226    0.0058    1.4240 H   0  0  0  0  0  0  0  0  0  0  0  0
    1.9748   -0.8629    3.0625 H   0  0  0  0  0  0  0  0  0  0  0  0
    1.3542    0.7895    3.2088 H   0  0  0  0  0  0  0  0  0  0  0  0
   -1.3394   -2.8668    2.7895 H   0  0  0  0  0  0  0  0  0  0  0  0
    0.4139   -2.9537    2.7998 H   0  0  0  0  0  0  0  0  0  0  0  0
    0.4716   -1.9326    0.4889 H   0  0  0  0  0  0  0  0  0  0  0  0
   -1.2913   -1.8356    0.5005 H   0  0  0  0  0  0  0  0  0  0  0  0
   -0.4838   -3.4120    0.5087 H   0  0  0  0  0  0  0  0  0  0  0  0
    1.4376    0.1818    0.1317 C   0  0  0  0  0  3  0  0  0  0  0  0
    0.1033    0.5643   -0.4655 C   0  0  0  0  0  0  0  0  0  0  0  0
    0.3171    1.1425   -1.7279 O   0  0  0  0  0  0  0  0  0  0  0  0
   -0.8706    1.5336   -2.3691 C   0  0  0  0  0  0  0  0  0  0  0  0
   -0.5401    2.1065   -3.7321 C   0  0  0  0  0  0  0  0  0  0  0  0
    0.1023    1.0915   -4.6683 C   0  0  0  0  0  0  0  0  0  0  0  0
    1.9513   -0.5359   -0.5090 H   0  0  0  0  0  0  0  0  0  0  0  0
    2.0732    1.0611    0.2419 H   0  0  0  0  0  0  0  0  0  0  0  0
   -0.4210    1.2762    0.1892 H   0  0  0  0  0  0  0  0  0  0  0  0
   -0.5422   -0.3210   -0.5634 H   0  0  0  0  0  0  0  0  0  0  0  0
   -1.5418    0.6667   -2.4761 H   0  0  0  0  0  0  0  0  0  0  0  0
   -1.3976    2.2817   -1.7587 H   0  0  0  0  0  0  0  0  0  0  0  0
    0.1233    2.9645   -3.5965 H   0  0  0  0  0  0  0  0  0  0  0  0
   -1.4666    2.4884   -4.1699 H   0  0  0  0  0  0  0  0  0  0  0  0
   -0.5607    0.2384   -4.8322 H   0  0  0  0  0  0  0  0  0  0  0  0
    1.0350    0.7151   -4.2481 H   0  0  0  0  0  0  0  0  0  0  0  0
    0.3210    1.5369   -5.6399 H   0  0  0  0  0  0  0  0  0  0  0  0
  1  2  1  0
  1  5  1  0
  1  6  1  0
  1  7  1  0
  2  3  1  0
  3  4  1  0
  3  8  1  0
  3  9  1  0
  4 10  1  0
  4 11  1  0
  4 12  1  0
 13 14  1  0
 13 19  1  0
 13 20  1  0
 14 15  1  0
 14 21  1  0
 14 22  1  0
 15 16  1  0
 16 17  1  0
 16 23  1  0
 16 24  1  0
 17 18  1  0
 17 25  1  0
 17 26  1  0
 18 27  1  0
 18 28  1  0
 18 29  1  0
M  RAD  1  13   2
M  END
>  <reaction>  (6) 
rmg_rxn_525

>  <mol_properties>  (6) 
{"0": {"label": "*1", "atom_type": "Cs"}, "1": {"label": "*0", "atom_type": "S2s"}, "4": {"label": "*2", "atom_type": "H0"}, "12": {"label": "*3", "atom_type": "Cs"}, "13": {"label": "*4", "atom_type": "Cs"}}

>  <type>  (6) 
unop_2

>  <geom_source>  (6) 
Heuristics

$$$$

     RDKit          3D

 29 27  0  0  0  0  0  0  0  0999 V2000
   -0.4278   -0.2900    2.5161 C   0  0  0  0  0  0  0  0  0  0  0  0
   -2.0709   -0.8689    2.9739 S   0  0  0  0  0  0  0  0  0  0  0  0
   -2.0709   -2.5090    2.2103 C   0  0  0  0  0  0  0  0  0  0  0  0
   -2.0709   -2.5090    0.6899 C   0  0  0  0  0  0  0  0  0  0  0  0
   -0.3129   -0.1144    1.2257 H   0  0  0  0  0  0  0  0  0  0  0  0
    0.3392   -0.9831    2.8642 H   0  0  0  0  0  0  0  0  0  0  0  0
   -0.2813    0.6694    3.0105 H   0  0  0  0  0  0  0  0  0  0  0  0
   -2.9749   -2.9870    2.5912 H   0  0  0  0  0  0  0  0  0  0  0  0
   -1.2216   -3.0739    2.6015 H   0  0  0  0  0  0  0  0  0  0  0  0
   -1.1639   -2.0528    0.2906 H   0  0  0  0  0  0  0  0  0  0  0  0
   -2.9269   -1.9558    0.3022 H   0  0  0  0  0  0  0  0  0  0  0  0
   -2.1193   -3.5322    0.3104 H   0  0  0  0  0  0  0  0  0  0  0  0
   -0.1979    0.0616   -0.0667 C   0  0  0  0  0  3  0  0  0  0  0  0
    0.7958    1.1619   -0.3590 C   0  0  0  0  0  0  0  0  0  0  0  0
    1.3872    0.9221   -1.6105 O   0  0  0  0  0  0  0  0  0  0  0  0
    2.3314    1.8968   -1.9756 C   0  0  0  0  0  0  0  0  0  0  0  0
    2.8812    1.5734   -3.3497 C   0  0  0  0  0  0  0  0  0  0  0  0
    1.8222    1.6153   -4.4433 C   0  0  0  0  0  0  0  0  0  0  0  0
   -0.9751    0.0355   -0.8313 H   0  0  0  0  0  0  0  0  0  0  0  0
    0.3002   -0.9084   -0.0491 H   0  0  0  0  0  0  0  0  0  0  0  0
    1.5705    1.1975    0.4214 H   0  0  0  0  0  0  0  0  0  0  0  0
    0.2950    2.1413   -0.3627 H   0  0  0  0  0  0  0  0  0  0  0  0
    1.8593    2.8921   -1.9821 H   0  0  0  0  0  0  0  0  0  0  0  0
    3.1454    1.9260   -1.2364 H   0  0  0  0  0  0  0  0  0  0  0  0
    3.3449    0.5842   -3.3141 H   0  0  0  0  0  0  0  0  0  0  0  0
    3.6781    2.2891   -3.5700 H   0  0  0  0  0  0  0  0  0  0  0  0
    1.3664    2.6066   -4.5065 H   0  0  0  0  0  0  0  0  0  0  0  0
    1.0299    0.8946   -4.2413 H   0  0  0  0  0  0  0  0  0  0  0  0
    2.2546    1.3831   -5.4177 H   0  0  0  0  0  0  0  0  0  0  0  0
  1  2  1  0
  1  5  1  0
  1  6  1  0
  1  7  1  0
  2  3  1  0
  3  4  1  0
  3  8  1  0
  3  9  1  0
  4 10  1  0
  4 11  1  0
  4 12  1  0
 13 14  1  0
 13 19  1  0
 13 20  1  0
 14 15  1  0
 14 21  1  0
 14 22  1  0
 15 16  1  0
 16 17  1  0
 16 23  1  0
 16 24  1  0
 17 18  1  0
 17 25  1  0
 17 26  1  0
 18 27  1  0
 18 28  1  0
 18 29  1  0
M  RAD  1  13   2
M  END
>  <reaction>  (7) 
rmg_rxn_525

>  <mol_properties>  (7) 
{"0": {"label": "*1", "atom_type": "Cs"}, "1": {"label": "*0", "atom_type": "S2s"}, "4": {"label": "*2", "atom_type": "H0"}, "12": {"label": "*3", "atom_type": "Cs"}, "13": {"label": "*4", "atom_type": "Cs"}}

>  <type>  (7) 
unop_3

>  <geom_source>  (7) 
Heuristics

$$$$

     RDKit          3D

 29 27  0  0  0  0  0  0  0  0999 V2000
    0.0632    1.2191    2.6242 C   0  0  0  0  0  0  0  0  0  0  0  0
   -1.5799    0.6403    3.0819 S   0  0  0  0  0  0  0  0  0  0  0  0
   -1.5799   -0.9999    2.3183 C   0  0  0  0  0  0  0  0  0  0  0  0
   -1.5799   -0.9999    0.7979 C   0  0  0  0  0  0  0  0  0  0  0  0
    0.1781    1.3948    1.3338 H   0  0  0  0  0  0  0  0  0  0  0  0
    0.8302    0.5261    2.9723 H   0  0  0  0  0  0  0  0  0  0  0  0
    0.2097    2.1785    3.1185 H   0  0  0  0  0  0  0  0  0  0  0  0
   -2.4839   -1.4778    2.6992 H   0  0  0  0  0  0  0  0  0  0  0  0
   -0.7306   -1.5647    2.7096 H   0  0  0  0  0  0  0  0  0  0  0  0
   -0.6729   -0.5437    0.3986 H   0  0  0  0  0  0  0  0  0  0  0  0
   -2.4359   -0.4466    0.4102 H   0  0  0  0  0  0  0  0  0  0  0  0
   -1.6283   -2.0231    0.4184 H   0  0  0  0  0  0  0  0  0  0  0  0
    0.2931    1.5707    0.0414 C   0  0  0  0  0  3  0  0  0  0  0  0
    0.0417    0.2715   -0.6884 C   0  0  0  0  0  0  0  0  0  0  0  0
    0.8206    0.2465   -1.8572 O   0  0  0  0  0  0  0  0  0  0  0  0
    0.6570   -0.9290   -2.6097 C   0  0  0  0  0  0  0  0  0  0  0  0
    1.5626   -0.8785   -3.8232 C   0  0  0  0  0  0  0  0  0  0  0  0
    3.0422   -0.8377   -3.4647 C   0  0  0  0  0  0  0  0  0  0  0  0
    1.3462    1.6603    0.3103 H   0  0  0  0  0  0  0  0  0  0  0  0
    0.0251    2.4203   -0.5876 H   0  0  0  0  0  0  0  0  0  0  0  0
   -1.0236    0.1748   -0.9453 H   0  0  0  0  0  0  0  0  0  0  0  0
    0.2991   -0.5851   -0.0481 H   0  0  0  0  0  0  0  0  0  0  0  0
    0.9023   -1.8070   -1.9914 H   0  0  0  0  0  0  0  0  0  0  0  0
   -0.3928   -1.0318   -2.9215 H   0  0  0  0  0  0  0  0  0  0  0  0
    1.2965   -0.0013   -4.4187 H   0  0  0  0  0  0  0  0  0  0  0  0
    1.3488   -1.7564   -4.4391 H   0  0  0  0  0  0  0  0  0  0  0  0
    3.3281   -1.7215   -2.8889 H   0  0  0  0  0  0  0  0  0  0  0  0
    3.2694    0.0421   -2.8627 H   0  0  0  0  0  0  0  0  0  0  0  0
    3.6628   -0.8073   -4.3614 H   0  0  0  0  0  0  0  0  0  0  0  0
  1  2  1  0
  1  5  1  0
  1  6  1  0
  1  7  1  0
  2  3  1  0
  3  4  1  0
  3  8  1  0
  3  9  1  0
  4 10  1  0
  4 11  1  0
  4 12  1  0
 13 14  1  0
 13 19  1  0
 13 20  1  0
 14 15  1  0
 14 21  1  0
 14 22  1  0
 15 16  1  0
 16 17  1  0
 16 23  1  0
 16 24  1  0
 17 18  1  0
 17 25  1  0
 17 26  1  0
 18 27  1  0
 18 28  1  0
 18 29  1  0
M  RAD  1  13   2
M  END
>  <reaction>  (8) 
rmg_rxn_525

>  <mol_properties>  (8) 
{"0": {"label": "*1", "atom_type": "Cs"}, "1": {"label": "*0", "atom_type": "S2s"}, "4": {"label": "*2", "atom_type": "H0"}, "12": {"label": "*3", "atom_type": "Cs"}, "13": {"label": "*4", "atom_type": "Cs"}}

>  <type>  (8) 
unop_4

>  <geom_source>  (8) 
Heuristics

$$$$

     RDKit          3D

 29 27  0  0  0  0  0  0  0  0999 V2000
   -0.4180   -0.2132    2.5667 C   0  0  0  0  0  0  0  0  0  0  0  0
   -2.0611   -0.7920    3.0244 S   0  0  0  0  0  0  0  0  0  0  0  0
   -2.0611   -2.4321    2.2608 C   0  0  0  0  0  0  0  0  0  0  0  0
   -2.0611   -2.4321    0.7404 C   0  0  0  0  0  0  0  0  0  0  0  0
   -0.3031   -0.0375    1.2762 H   0  0  0  0  0  0  0  0  0  0  0  0
    0.3490   -0.9062    2.9148 H   0  0  0  0  0  0  0  0  0  0  0  0
   -0.2715    0.7462    3.0610 H   0  0  0  0  0  0  0  0  0  0  0  0
   -2.9651   -2.9101    2.6417 H   0  0  0  0  0  0  0  0  0  0  0  0
   -1.2118   -2.9970    2.6521 H   0  0  0  0  0  0  0  0  0  0  0  0
   -1.1541   -1.9759    0.3411 H   0  0  0  0  0  0  0  0  0  0  0  0
   -2.9170   -1.8789    0.3527 H   0  0  0  0  0  0  0  0  0  0  0  0
   -2.1095   -3.4554    0.3609 H   0  0  0  0  0  0  0  0  0  0  0  0
   -0.1881    0.1384   -0.0161 C   0  0  0  0  0  3  0  0  0  0  0  0
    1.2020    0.6231   -0.3569 C   0  0  0  0  0  0  0  0  0  0  0  0
    1.2950    0.8017   -1.7473 O   0  0  0  0  0  0  0  0  0  0  0  0
    2.5575    1.2547   -2.1668 C   0  0  0  0  0  0  0  0  0  0  0  0
    2.5460    1.4532   -3.6687 C   0  0  0  0  0  0  0  0  0  0  0  0
    1.5663    2.5270   -4.1231 C   0  0  0  0  0  0  0  0  0  0  0  0
   -0.9354    0.8660   -0.3349 H   0  0  0  0  0  0  0  0  0  0  0  0
   -0.3955   -0.8089   -0.5150 H   0  0  0  0  0  0  0  0  0  0  0  0
    1.9559   -0.1042   -0.0208 H   0  0  0  0  0  0  0  0  0  0  0  0
    1.4155    1.5716    0.1577 H   0  0  0  0  0  0  0  0  0  0  0  0
    2.8022    2.2027   -1.6621 H   0  0  0  0  0  0  0  0  0  0  0  0
    3.3306    0.5250   -1.8846 H   0  0  0  0  0  0  0  0  0  0  0  0
    2.3034    0.4989   -4.1432 H   0  0  0  0  0  0  0  0  0  0  0  0
    3.5611    1.7135   -3.9812 H   0  0  0  0  0  0  0  0  0  0  0  0
    1.8114    3.4930   -3.6747 H   0  0  0  0  0  0  0  0  0  0  0  0
    0.5485    2.2701   -3.8296 H   0  0  0  0  0  0  0  0  0  0  0  0
    1.5891    2.6459   -5.2073 H   0  0  0  0  0  0  0  0  0  0  0  0
  1  2  1  0
  1  5  1  0
  1  6  1  0
  1  7  1  0
  2  3  1  0
  3  4  1  0
  3  8  1  0
  3  9  1  0
  4 10  1  0
  4 11  1  0
  4 12  1  0
 13 14  1  0
 13 19  1  0
 13 20  1  0
 14 15  1  0
 14 21  1  0
 14 22  1  0
 15 16  1  0
 16 17  1  0
 16 23  1  0
 16 24  1  0
 17 18  1  0
 17 25  1  0
 17 26  1  0
 18 27  1  0
 18 28  1  0
 18 29  1  0
M  RAD  1  13   2
M  END
>  <reaction>  (9) 
rmg_rxn_525

>  <mol_properties>  (9) 
{"0": {"label": "*1", "atom_type": "Cs"}, "1": {"label": "*0", "atom_type": "S2s"}, "4": {"label": "*2", "atom_type": "H0"}, "12": {"label": "*3", "atom_type": "Cs"}, "13": {"label": "*4", "atom_type": "Cs"}}

>  <type>  (9) 
unop_5

>  <geom_source>  (9) 
Heuristics

$$$$

     RDKit          3D

 29 27  0  0  0  0  0  0  0  0999 V2000
   -0.4868    0.9333    2.4642 C   0  0  0  0  0  0  0  0  0  0  0  0
   -2.1299    0.3544    2.9220 S   0  0  0  0  0  0  0  0  0  0  0  0
   -2.1299   -1.2857    2.1583 C   0  0  0  0  0  0  0  0  0  0  0  0
   -2.1299   -1.2857    0.6380 C   0  0  0  0  0  0  0  0  0  0  0  0
   -0.3719    1.1089    1.1738 H   0  0  0  0  0  0  0  0  0  0  0  0
    0.2802    0.2402    2.8123 H   0  0  0  0  0  0  0  0  0  0  0  0
   -0.3403    1.8926    2.9585 H   0  0  0  0  0  0  0  0  0  0  0  0
   -3.0339   -1.7637    2.5392 H   0  0  0  0  0  0  0  0  0  0  0  0
   -1.2806   -1.8506    2.5496 H   0  0  0  0  0  0  0  0  0  0  0  0
   -1.2229   -0.8295    0.2387 H   0  0  0  0  0  0  0  0  0  0  0  0
   -2.9858   -0.7325    0.2502 H   0  0  0  0  0  0  0  0  0  0  0  0
   -2.1783   -2.3089    0.2584 H   0  0  0  0  0  0  0  0  0  0  0  0
   -0.2569    1.2849   -0.1186 C   0  0  0  0  0  3  0  0  0  0  0  0
    0.2217    0.0131   -0.7796 C   0  0  0  0  0  0  0  0  0  0  0  0
    1.1371    0.3421   -1.7933 O   0  0  0  0  0  0  0  0  0  0  0  0
    1.6436   -0.7799   -2.4711 C   0  0  0  0  0  0  0  0  0  0  0  0
    2.6462   -0.3268   -3.5127 C   0  0  0  0  0  0  0  0  0  0  0  0
    3.8655    0.3594   -2.9113 C   0  0  0  0  0  0  0  0  0  0  0  0
    0.5821    1.8275    0.3183 H   0  0  0  0  0  0  0  0  0  0  0  0
   -0.7447    1.9338   -0.8468 H   0  0  0  0  0  0  0  0  0  0  0  0
   -0.6272   -0.5414   -1.2063 H   0  0  0  0  0  0  0  0  0  0  0  0
    0.7011   -0.6470   -0.0417 H   0  0  0  0  0  0  0  0  0  0  0  0
    2.1257   -1.4642   -1.7551 H   0  0  0  0  0  0  0  0  0  0  0  0
    0.8212   -1.3326   -2.9485 H   0  0  0  0  0  0  0  0  0  0  0  0
    2.1418    0.3474   -4.2098 H   0  0  0  0  0  0  0  0  0  0  0  0
    2.9537   -1.2047   -4.0875 H   0  0  0  0  0  0  0  0  0  0  0  0
    4.3938   -0.3120   -2.2298 H   0  0  0  0  0  0  0  0  0  0  0  0
    3.5715    1.2450   -2.3481 H   0  0  0  0  0  0  0  0  0  0  0  0
    4.5666    0.6665   -3.6888 H   0  0  0  0  0  0  0  0  0  0  0  0
  1  2  1  0
  1  5  1  0
  1  6  1  0
  1  7  1  0
  2  3  1  0
  3  4  1  0
  3  8  1  0
  3  9  1  0
  4 10  1  0
  4 11  1  0
  4 12  1  0
 13 14  1  0
 13 19  1  0
 13 20  1  0
 14 15  1  0
 14 21  1  0
 14 22  1  0
 15 16  1  0
 16 17  1  0
 16 23  1  0
 16 24  1  0
 17 18  1  0
 17 25  1  0
 17 26  1  0
 18 27  1  0
 18 28  1  0
 18 29  1  0
M  RAD  1  13   2
M  END
>  <reaction>  (10) 
rmg_rxn_525

>  <mol_properties>  (10) 
{"0": {"label": "*1", "atom_type": "Cs"}, "1": {"label": "*0", "atom_type": "S2s"}, "4": {"label": "*2", "atom_type": "H0"}, "12": {"label": "*3", "atom_type": "Cs"}, "13": {"label": "*4", "atom_type": "Cs"}}

>  <type>  (10) 
unop_6

>  <geom_source>  (10) 
Heuristics

$$$$

     RDKit          3D

 29 27  0  0  0  0  0  0  0  0999 V2000
   -0.7357    0.3964    2.3666 C   0  0  0  0  0  0  0  0  0  0  0  0
   -2.3788   -0.1824    2.8243 S   0  0  0  0  0  0  0  0  0  0  0  0
   -2.3788   -1.8226    2.0607 C   0  0  0  0  0  0  0  0  0  0  0  0
   -2.3788   -1.8226    0.5403 C   0  0  0  0  0  0  0  0  0  0  0  0
   -0.6209    0.5721    1.0761 H   0  0  0  0  0  0  0  0  0  0  0  0
    0.0313   -0.2966    2.7147 H   0  0  0  0  0  0  0  0  0  0  0  0
   -0.5892    1.3558    2.8609 H   0  0  0  0  0  0  0  0  0  0  0  0
   -3.2829   -2.3005    2.4416 H   0  0  0  0  0  0  0  0  0  0  0  0
   -1.5296   -2.3874    2.4520 H   0  0  0  0  0  0  0  0  0  0  0  0
   -1.4718   -1.3664    0.1410 H   0  0  0  0  0  0  0  0  0  0  0  0
   -3.2348   -1.2693    0.1526 H   0  0  0  0  0  0  0  0  0  0  0  0
   -2.4273   -2.8458    0.1608 H   0  0  0  0  0  0  0  0  0  0  0  0
   -0.5059    0.7480   -0.2162 C   0  0  0  0  0  3  0  0  0  0  0  0
    0.5869   -0.1368   -0.7699 C   0  0  0  0  0  0  0  0  0  0  0  0
    1.3019    0.5774   -1.7457 O   0  0  0  0  0  0  0  0  0  0  0  0
    2.3467   -0.1637   -2.3236 C   0  0  0  0  0  0  0  0  0  0  0  0
    3.0788    0.7007   -3.3296 C   0  0  0  0  0  0  0  0  0  0  0  0
    3.7514    1.9132   -2.6997 C   0  0  0  0  0  0  0  0  0  0  0  0
   -0.0795    1.6442    0.2360 H   0  0  0  0  0  0  0  0  0  0  0  0
   -1.1883    1.0544   -1.0097 H   0  0  0  0  0  0  0  0  0  0  0  0
    0.1569   -1.0479   -1.2118 H   0  0  0  0  0  0  0  0  0  0  0  0
    1.2667   -0.4567    0.0335 H   0  0  0  0  0  0  0  0  0  0  0  0
    3.0426   -0.5040   -1.5404 H   0  0  0  0  0  0  0  0  0  0  0  0
    1.9430   -1.0614   -2.8145 H   0  0  0  0  0  0  0  0  0  0  0  0
    2.3671    1.0216   -4.0946 H   0  0  0  0  0  0  0  0  0  0  0  0
    3.8230    0.0759   -3.8312 H   0  0  0  0  0  0  0  0  0  0  0  0
    4.4839    1.6063   -1.9489 H   0  0  0  0  0  0  0  0  0  0  0  0
    3.0163    2.5512   -2.2093 H   0  0  0  0  0  0  0  0  0  0  0  0
    4.2721    2.5081   -3.4516 H   0  0  0  0  0  0  0  0  0  0  0  0
  1  2  1  0
  1  5  1  0
  1  6  1  0
  1  7  1  0
  2  3  1  0
  3  4  1  0
  3  8  1  0
  3  9  1  0
  4 10  1  0
  4 11  1  0
  4 12  1  0
 13 14  1  0
 13 19  1  0
 13 20  1  0
 14 15  1  0
 14 21  1  0
 14 22  1  0
 15 16  1  0
 16 17  1  0
 16 23  1  0
 16 24  1  0
 17 18  1  0
 17 25  1  0
 17 26  1  0
 18 27  1  0
 18 28  1  0
 18 29  1  0
M  RAD  1  13   2
M  END
>  <reaction>  (11) 
rmg_rxn_525

>  <mol_properties>  (11) 
{"0": {"label": "*1", "atom_type": "Cs"}, "1": {"label": "*0", "atom_type": "S2s"}, "4": {"label": "*2", "atom_type": "H0"}, "12": {"label": "*3", "atom_type": "Cs"}, "13": {"label": "*4", "atom_type": "Cs"}}

>  <type>  (11) 
unop_7

>  <geom_source>  (11) 
Heuristics

$$$$

     RDKit          3D

 29 27  0  0  0  0  0  0  0  0999 V2000
    0.2593   -0.8205    2.4402 C   0  0  0  0  0  0  0  0  0  0  0  0
   -1.3838   -1.3993    2.8980 S   0  0  0  0  0  0  0  0  0  0  0  0
   -1.3838   -3.0395    2.1344 C   0  0  0  0  0  0  0  0  0  0  0  0
   -1.3838   -3.0395    0.6140 C   0  0  0  0  0  0  0  0  0  0  0  0
    0.3741   -0.6448    1.1498 H   0  0  0  0  0  0  0  0  0  0  0  0
    1.0263   -1.5135    2.7883 H   0  0  0  0  0  0  0  0  0  0  0  0
    0.4058    0.1389    2.9346 H   0  0  0  0  0  0  0  0  0  0  0  0
   -2.2879   -3.5174    2.5153 H   0  0  0  0  0  0  0  0  0  0  0  0
   -0.5346   -3.6043    2.5256 H   0  0  0  0  0  0  0  0  0  0  0  0
   -0.4768   -2.5833    0.2147 H   0  0  0  0  0  0  0  0  0  0  0  0
   -2.2398   -2.4862    0.2263 H   0  0  0  0  0  0  0  0  0  0  0  0
   -1.4323   -4.0627    0.2345 H   0  0  0  0  0  0  0  0  0  0  0  0
    0.4891   -0.4689   -0.1425 C   0  0  0  0  0  3  0  0  0  0  0  0
    0.1025    0.9436   -0.5152 C   0  0  0  0  0  0  0  0  0  0  0  0
    0.9755    1.4075   -1.5133 O   0  0  0  0  0  0  0  0  0  0  0  0
    0.6960    2.7200   -1.9307 C   0  0  0  0  0  0  0  0  0  0  0  0
    1.6612    3.1133   -3.0303 C   0  0  0  0  0  0  0  0  0  0  0  0
    1.5220    2.2586   -4.2830 C   0  0  0  0  0  0  0  0  0  0  0  0
    0.4220   -1.1252   -1.0110 H   0  0  0  0  0  0  0  0  0  0  0  0
    1.5126   -0.4985    0.2328 H   0  0  0  0  0  0  0  0  0  0  0  0
    0.1554    1.6015    0.3650 H   0  0  0  0  0  0  0  0  0  0  0  0
   -0.9346    0.9747   -0.8805 H   0  0  0  0  0  0  0  0  0  0  0  0
   -0.3408    2.7839   -2.2972 H   0  0  0  0  0  0  0  0  0  0  0  0
    0.7852    3.4113   -1.0799 H   0  0  0  0  0  0  0  0  0  0  0  0
    2.6797    3.0434   -2.6396 H   0  0  0  0  0  0  0  0  0  0  0  0
    1.4857    4.1655   -3.2712 H   0  0  0  0  0  0  0  0  0  0  0  0
    0.5143    2.3378   -4.6987 H   0  0  0  0  0  0  0  0  0  0  0  0
    1.7096    1.2090   -4.0571 H   0  0  0  0  0  0  0  0  0  0  0  0
    2.2274    2.5734   -5.0535 H   0  0  0  0  0  0  0  0  0  0  0  0
  1  2  1  0
  1  5  1  0
  1  6  1  0
  1  7  1  0
  2  3  1  0
  3  4  1  0
  3  8  1  0
  3  9  1  0
  4 10  1  0
  4 11  1  0
  4 12  1  0
 13 14  1  0
 13 19  1  0
 13 20  1  0
 14 15  1  0
 14 21  1  0
 14 22  1  0
 15 16  1  0
 16 17  1  0
 16 23  1  0
 16 24  1  0
 17 18  1  0
 17 25  1  0
 17 26  1  0
 18 27  1  0
 18 28  1  0
 18 29  1  0
M  RAD  1  13   2
M  END
>  <reaction>  (12) 
rmg_rxn_525

>  <mol_properties>  (12) 
{"0": {"label": "*1", "atom_type": "Cs"}, "1": {"label": "*0", "atom_type": "S2s"}, "4": {"label": "*2", "atom_type": "H0"}, "12": {"label": "*3", "atom_type": "Cs"}, "13": {"label": "*4", "atom_type": "Cs"}}

>  <type>  (12) 
unop_8

>  <geom_source>  (12) 
Heuristics

$$$$

     RDKit          3D

 29 27  0  0  0  0  0  0  0  0999 V2000
    0.7142    1.0853    2.7683 C   0  0  0  0  0  0  0  0  0  0  0  0
   -0.9289    0.5064    3.2261 S   0  0  0  0  0  0  0  0  0  0  0  0
   -0.9289   -1.1337    2.4624 C   0  0  0  0  0  0  0  0  0  0  0  0
   -0.9289   -1.1337    0.9420 C   0  0  0  0  0  0  0  0  0  0  0  0
    0.8290    1.2609    1.4779 H   0  0  0  0  0  0  0  0  0  0  0  0
    1.4812    0.3922    3.1164 H   0  0  0  0  0  0  0  0  0  0  0  0
    0.8607    2.0446    3.2626 H   0  0  0  0  0  0  0  0  0  0  0  0
   -1.8330   -1.6117    2.8433 H   0  0  0  0  0  0  0  0  0  0  0  0
   -0.0797   -1.6986    2.8537 H   0  0  0  0  0  0  0  0  0  0  0  0
   -0.0219   -0.6775    0.5427 H   0  0  0  0  0  0  0  0  0  0  0  0
   -1.7849   -0.5805    0.5543 H   0  0  0  0  0  0  0  0  0  0  0  0
   -0.9774   -2.1569    0.5625 H   0  0  0  0  0  0  0  0  0  0  0  0
    0.9440    1.4368    0.1855 C   0  0  0  0  0  3  0  0  0  0  0  0
    0.0423    0.4773   -0.5559 C   0  0  0  0  0  0  0  0  0  0  0  0
    0.4712    0.3868   -1.8906 O   0  0  0  0  0  0  0  0  0  0  0  0
   -0.3080   -0.4877   -2.6672 C   0  0  0  0  0  0  0  0  0  0  0  0
    0.2542   -0.5471   -4.0728 C   0  0  0  0  0  0  0  0  0  0  0  0
    1.6662   -1.1148   -4.1293 C   0  0  0  0  0  0  0  0  0  0  0  0
    1.9763    1.0855    0.1636 H   0  0  0  0  0  0  0  0  0  0  0  0
    0.9076    2.4262   -0.2718 H   0  0  0  0  0  0  0  0  0  0  0  0
   -1.0010    0.8244   -0.5198 H   0  0  0  0  0  0  0  0  0  0  0  0
    0.0690   -0.5167   -0.0855 H   0  0  0  0  0  0  0  0  0  0  0  0
   -0.3054   -1.4928   -2.2164 H   0  0  0  0  0  0  0  0  0  0  0  0
   -1.3518   -0.1417   -2.6884 H   0  0  0  0  0  0  0  0  0  0  0  0
    0.2376    0.4605   -4.4962 H   0  0  0  0  0  0  0  0  0  0  0  0
   -0.4211   -1.1568   -4.6795 H   0  0  0  0  0  0  0  0  0  0  0  0
    1.6933   -2.1321   -3.7308 H   0  0  0  0  0  0  0  0  0  0  0  0
    2.3511   -0.5057   -3.5395 H   0  0  0  0  0  0  0  0  0  0  0  0
    2.0355   -1.1474   -5.1554 H   0  0  0  0  0  0  0  0  0  0  0  0
  1  2  1  0
  1  5  1  0
  1  6  1  0
  1  7  1  0
  2  3  1  0
  3  4  1  0
  3  8  1  0
  3  9  1  0
  4 10  1  0
  4 11  1  0
  4 12  1  0
 13 14  1  0
 13 19  1  0
 13 20  1  0
 14 15  1  0
 14 21  1  0
 14 22  1  0
 15 16  1  0
 16 17  1  0
 16 23  1  0
 16 24  1  0
 17 18  1  0
 17 25  1  0
 17 26  1  0
 18 27  1  0
 18 28  1  0
 18 29  1  0
M  RAD  1  13   2
M  END
>  <reaction>  (13) 
rmg_rxn_525

>  <mol_properties>  (13) 
{"0": {"label": "*1", "atom_type": "Cs"}, "1": {"label": "*0", "atom_type": "S2s"}, "4": {"label": "*2", "atom_type": "H0"}, "12": {"label": "*3", "atom_type": "Cs"}, "13": {"label": "*4", "atom_type": "Cs"}}

>  <type>  (13) 
unop_9

>  <geom_source>  (13) 
Heuristics

$$$$

     RDKit          3D

 29 27  0  0  0  0  0  0  0  0999 V2000
    0.8262   -0.6809    2.5570 C   0  0  0  0  0  0  0  0  0  0  0  0
   -0.8170   -1.2597    3.0148 S   0  0  0  0  0  0  0  0  0  0  0  0
   -0.8170   -2.8999    2.2511 C   0  0  0  0  0  0  0  0  0  0  0  0
   -0.8170   -2.8999    0.7307 C   0  0  0  0  0  0  0  0  0  0  0  0
    0.9410   -0.5052    1.2666 H   0  0  0  0  0  0  0  0  0  0  0  0
    1.5932   -1.3739    2.9051 H   0  0  0  0  0  0  0  0  0  0  0  0
    0.9726    0.2785    3.0513 H   0  0  0  0  0  0  0  0  0  0  0  0
   -1.7210   -3.3778    2.6320 H   0  0  0  0  0  0  0  0  0  0  0  0
    0.0323   -3.4647    2.6424 H   0  0  0  0  0  0  0  0  0  0  0  0
    0.0900   -2.4437    0.3314 H   0  0  0  0  0  0  0  0  0  0  0  0
   -1.6729   -2.3466    0.3430 H   0  0  0  0  0  0  0  0  0  0  0  0
   -0.8654   -3.9231    0.3512 H   0  0  0  0  0  0  0  0  0  0  0  0
    1.0560   -0.3293   -0.0258 C   0  0  0  0  0  3  0  0  0  0  0  0
    0.0553    0.6962   -0.5058 C   0  0  0  0  0  0  0  0  0  0  0  0
    0.6026    1.3925   -1.5963 O   0  0  0  0  0  0  0  0  0  0  0  0
   -0.2574    2.3739   -2.1180 C   0  0  0  0  0  0  0  0  0  0  0  0
    0.4031    3.0387   -3.3084 C   0  0  0  0  0  0  0  0  0  0  0  0
    0.6603    2.0797   -4.4632 C   0  0  0  0  0  0  0  0  0  0  0  0
    1.2898   -1.0369   -0.8221 H   0  0  0  0  0  0  0  0  0  0  0  0
    1.9814    0.1564    0.2855 H   0  0  0  0  0  0  0  0  0  0  0  0
   -0.1918    1.4000    0.3029 H   0  0  0  0  0  0  0  0  0  0  0  0
   -0.8828    0.2067   -0.8065 H   0  0  0  0  0  0  0  0  0  0  0  0
   -1.2104    1.9133   -2.4231 H   0  0  0  0  0  0  0  0  0  0  0  0
   -0.4881    3.1204   -1.3439 H   0  0  0  0  0  0  0  0  0  0  0  0
    1.3429    3.4884   -2.9776 H   0  0  0  0  0  0  0  0  0  0  0  0
   -0.2421    3.8583   -3.6365 H   0  0  0  0  0  0  0  0  0  0  0  0
   -0.2744    1.6403   -4.8203 H   0  0  0  0  0  0  0  0  0  0  0  0
    1.3151    1.2662   -4.1509 H   0  0  0  0  0  0  0  0  0  0  0  0
    1.1308    2.5934   -5.3028 H   0  0  0  0  0  0  0  0  0  0  0  0
  1  2  1  0
  1  5  1  0
  1  6  1  0
  1  7  1  0
  2  3  1  0
  3  4  1  0
  3  8  1  0
  3  9  1  0
  4 10  1  0
  4 11  1  0
  4 12  1  0
 13 14  1  0
 13 19  1  0
 13 20  1  0
 14 15  1  0
 14 21  1  0
 14 22  1  0
 15 16  1  0
 16 17  1  0
 16 23  1  0
 16 24  1  0
 17 18  1  0
 17 25  1  0
 17 26  1  0
 18 27  1  0
 18 28  1  0
 18 29  1  0
M  RAD  1  13   2
M  END
>  <reaction>  (14) 
rmg_rxn_525

>  <mol_properties>  (14) 
{"0": {"label": "*1", "atom_type": "Cs"}, "1": {"label": "*0", "atom_type": "S2s"}, "4": {"label": "*2", "atom_type": "H0"}, "12": {"label": "*3", "atom_type": "Cs"}, "13": {"label": "*4", "atom_type": "Cs"}}

>  <type>  (14) 
unop_10

>  <geom_source>  (14) 
Heuristics

$$$$

     RDKit          3D

 29 27  0  0  0  0  0  0  0  0999 V2000
   -0.6246   -0.1006    2.4129 C   0  0  0  0  0  0  0  0  0  0  0  0
   -2.2677   -0.6794    2.8707 S   0  0  0  0  0  0  0  0  0  0  0  0
   -2.2677   -2.3196    2.1071 C   0  0  0  0  0  0  0  0  0  0  0  0
   -2.2677   -2.3196    0.5867 C   0  0  0  0  0  0  0  0  0  0  0  0
   -0.5097    0.0751    1.1225 H   0  0  0  0  0  0  0  0  0  0  0  0
    0.1424   -0.7936    2.7610 H   0  0  0  0  0  0  0  0  0  0  0  0
   -0.4781    0.8588    2.9073 H   0  0  0  0  0  0  0  0  0  0  0  0
   -3.1717   -2.7975    2.4880 H   0  0  0  0  0  0  0  0  0  0  0  0
   -1.4185   -2.8844    2.4983 H   0  0  0  0  0  0  0  0  0  0  0  0
   -1.3607   -1.8634    0.1874 H   0  0  0  0  0  0  0  0  0  0  0  0
   -3.1237   -1.7663    0.1990 H   0  0  0  0  0  0  0  0  0  0  0  0
   -2.3161   -3.3428    0.2072 H   0  0  0  0  0  0  0  0  0  0  0  0
   -0.3947    0.2510   -0.1699 C   0  0  0  0  0  3  0  0  0  0  0  0
    1.0316    0.0091   -0.6064 C   0  0  0  0  0  0  0  0  0  0  0  0
    1.2961    0.7810   -1.7500 O   0  0  0  0  0  0  0  0  0  0  0  0
    2.6056    0.6254   -2.2356 C   0  0  0  0  0  0  0  0  0  0  0  0
    2.8044    1.5229   -3.4399 C   0  0  0  0  0  0  0  0  0  0  0  0
    2.6750    3.0041   -3.1104 C   0  0  0  0  0  0  0  0  0  0  0  0
   -0.5489    1.3047    0.0652 H   0  0  0  0  0  0  0  0  0  0  0  0
   -1.0896   -0.0301   -0.9620 H   0  0  0  0  0  0  0  0  0  0  0  0
    1.1903   -1.0567   -0.8282 H   0  0  0  0  0  0  0  0  0  0  0  0
    1.7311    0.2798    0.1983 H   0  0  0  0  0  0  0  0  0  0  0  0
    3.3307    0.8840   -1.4477 H   0  0  0  0  0  0  0  0  0  0  0  0
    2.7817   -0.4251   -2.5098 H   0  0  0  0  0  0  0  0  0  0  0  0
    2.0755    1.2436   -4.2051 H   0  0  0  0  0  0  0  0  0  0  0  0
    3.7946    1.3147   -3.8545 H   0  0  0  0  0  0  0  0  0  0  0  0
    3.4145    3.3031   -2.3633 H   0  0  0  0  0  0  0  0  0  0  0  0
    1.6858    3.2256   -2.7100 H   0  0  0  0  0  0  0  0  0  0  0  0
    2.8293    3.6188   -3.9985 H   0  0  0  0  0  0  0  0  0  0  0  0
  1  2  1  0
  1  5  1  0
  1  6  1  0
  1  7  1  0
  2  3  1  0
  3  4  1  0
  3  8  1  0
  3  9  1  0
  4 10  1  0
  4 11  1  0
  4 12  1  0
 13 14  1  0
 13 19  1  0
 13 20  1  0
 14 15  1  0
 14 21  1  0
 14 22  1  0
 15 16  1  0
 16 17  1  0
 16 23  1  0
 16 24  1  0
 17 18  1  0
 17 25  1  0
 17 26  1  0
 18 27  1  0
 18 28  1  0
 18 29  1  0
M  RAD  1  13   2
M  END
>  <reaction>  (15) 
rmg_rxn_525

>  <mol_properties>  (15) 
{"0": {"label": "*1", "atom_type": "Cs"}, "1": {"label": "*0", "atom_type": "S2s"}, "4": {"label": "*2", "atom_type": "H0"}, "12": {"label": "*3", "atom_type": "Cs"}, "13": {"label": "*4", "atom_type": "Cs"}}

>  <type>  (15) 
unop_11

>  <geom_source>  (15) 
Heuristics

$$$$

     RDKit          3D

 29 27  0  0  0  0  0  0  0  0999 V2000
    1.1761    0.5357    2.8105 C   0  0  0  0  0  0  0  0  0  0  0  0
   -0.4670   -0.0431    3.2682 S   0  0  0  0  0  0  0  0  0  0  0  0
   -0.4670   -1.6833    2.5046 C   0  0  0  0  0  0  0  0  0  0  0  0
   -0.4670   -1.6833    0.9842 C   0  0  0  0  0  0  0  0  0  0  0  0
    1.2909    0.7114    1.5200 H   0  0  0  0  0  0  0  0  0  0  0  0
    1.9431   -0.1573    3.1586 H   0  0  0  0  0  0  0  0  0  0  0  0
    1.3226    1.4951    3.3048 H   0  0  0  0  0  0  0  0  0  0  0  0
   -1.3711   -2.1612    2.8855 H   0  0  0  0  0  0  0  0  0  0  0  0
    0.3822   -2.2481    2.8959 H   0  0  0  0  0  0  0  0  0  0  0  0
    0.4400   -1.2271    0.5849 H   0  0  0  0  0  0  0  0  0  0  0  0
   -1.3230   -1.1300    0.5965 H   0  0  0  0  0  0  0  0  0  0  0  0
   -0.5154   -2.7065    0.6047 H   0  0  0  0  0  0  0  0  0  0  0  0
    1.4060    0.8873    0.2277 C   0  0  0  0  0  3  0  0  0  0  0  0
    0.1078    0.5433   -0.4652 C   0  0  0  0  0  0  0  0  0  0  0  0
    0.2616    0.7422   -1.8473 O   0  0  0  0  0  0  0  0  0  0  0  0
   -0.8980    0.4466   -2.5843 C   0  0  0  0  0  0  0  0  0  0  0  0
   -0.6215    0.6533   -4.0595 C   0  0  0  0  0  0  0  0  0  0  0  0
    0.4472   -0.2843   -4.6054 C   0  0  0  0  0  0  0  0  0  0  0  0
    2.2141    0.2529   -0.1381 H   0  0  0  0  0  0  0  0  0  0  0  0
    1.6743    1.9278    0.0417 H   0  0  0  0  0  0  0  0  0  0  0  0
   -0.7099    1.1730   -0.0842 H   0  0  0  0  0  0  0  0  0  0  0  0
   -0.1692   -0.5024   -0.2656 H   0  0  0  0  0  0  0  0  0  0  0  0
   -1.2041   -0.5953   -2.3995 H   0  0  0  0  0  0  0  0  0  0  0  0
   -1.7253    1.0934   -2.2572 H   0  0  0  0  0  0  0  0  0  0  0  0
   -0.3229    1.6934   -4.2143 H   0  0  0  0  0  0  0  0  0  0  0  0
   -1.5606    0.5093   -4.6009 H   0  0  0  0  0  0  0  0  0  0  0  0
    0.1509   -1.3286   -4.4788 H   0  0  0  0  0  0  0  0  0  0  0  0
    1.3923   -0.1386   -4.0824 H   0  0  0  0  0  0  0  0  0  0  0  0
    0.6155   -0.1108   -5.6692 H   0  0  0  0  0  0  0  0  0  0  0  0
  1  2  1  0
  1  5  1  0
  1  6  1  0
  1  7  1  0
  2  3  1  0
  3  4  1  0
  3  8  1  0
  3  9  1  0
  4 10  1  0
  4 11  1  0
  4 12  1  0
 13 14  1  0
 13 19  1  0
 13 20  1  0
 14 15  1  0
 14 21  1  0
 14 22  1  0
 15 16  1  0
 16 17  1  0
 16 23  1  0
 16 24  1  0
 17 18  1  0
 17 25  1  0
 17 26  1  0
 18 27  1  0
 18 28  1  0
 18 29  1  0
M  RAD  1  13   2
M  END
>  <reaction>  (16) 
rmg_rxn_525

>  <mol_properties>  (16) 
{"0": {"label": "*1", "atom_type": "Cs"}, "1": {"label": "*0", "atom_type": "S2s"}, "4": {"label": "*2", "atom_type": "H0"}, "12": {"label": "*3", "atom_type": "Cs"}, "13": {"label": "*4", "atom_type": "Cs"}}

>  <type>  (16) 
unop_12

>  <geom_source>  (16) 
Heuristics

$$$$

     RDKit          3D

 29 27  0  0  0  0  0  0  0  0999 V2000
   -3.0174    0.4707   -1.2733 S   0  0  0  0  0  0  0  0  0  0  0  0
    2.1124   -0.3151   -0.5485 O   0  0  0  0  0  0  0  0  0  0  0  0
    4.0072    0.9525    0.2198 C   0  0  0  0  0  0  0  0  0  0  0  0
    3.3542   -0.4264    0.1158 C   0  0  0  0  0  0  0  0  0  0  0  0
    1.5032   -1.5857   -0.6230 C   0  0  0  0  0  0  0  0  0  0  0  0
   -4.5178   -0.0021   -0.3417 C   0  0  0  0  0  0  0  0  0  0  0  0
    3.1940    1.9026    1.0967 C   0  0  0  0  0  0  0  0  0  0  0  0
    0.1732   -1.4563   -1.3469 C   0  0  0  0  0  0  0  0  0  0  0  0
   -4.8242    1.0200    0.7452 C   0  0  0  0  0  0  0  0  0  0  0  0
   -1.8329   -0.3276   -0.1416 C   0  0  0  0  0  3  0  0  0  0  0  0
    5.0228    0.8405    0.6574 H   0  0  0  0  0  0  0  0  0  0  0  0
    4.1155    1.3900   -0.7965 H   0  0  0  0  0  0  0  0  0  0  0  0
    1.3043   -1.9892    0.3958 H   0  0  0  0  0  0  0  0  0  0  0  0
    2.1420   -2.3006   -1.1904 H   0  0  0  0  0  0  0  0  0  0  0  0
    4.0427   -1.0878   -0.4582 H   0  0  0  0  0  0  0  0  0  0  0  0
    3.2259   -0.8421    1.1421 H   0  0  0  0  0  0  0  0  0  0  0  0
   -4.4103   -1.0137    0.1042 H   0  0  0  0  0  0  0  0  0  0  0  0
   -5.3700   -0.0326   -1.0528 H   0  0  0  0  0  0  0  0  0  0  0  0
   -0.3218   -2.4486   -1.4059 H   0  0  0  0  0  0  0  0  0  0  0  0
    0.3358   -1.0718   -2.3761 H   0  0  0  0  0  0  0  0  0  0  0  0
   -0.6038   -0.6310   -0.6975 H   0  0  0  0  0  0  0  0  0  0  0  0
    2.1858    2.0674    0.6607 H   0  0  0  0  0  0  0  0  0  0  0  0
    3.7137    2.8815    1.1636 H   0  0  0  0  0  0  0  0  0  0  0  0
    3.0875    1.4869    2.1213 H   0  0  0  0  0  0  0  0  0  0  0  0
   -5.7690    0.7438    1.2589 H   0  0  0  0  0  0  0  0  0  0  0  0
   -4.9437    2.0296    0.2979 H   0  0  0  0  0  0  0  0  0  0  0  0
   -4.0086    1.0470    1.4967 H   0  0  0  0  0  0  0  0  0  0  0  0
   -1.8882    0.1200    0.8714 H   0  0  0  0  0  0  0  0  0  0  0  0
   -2.0126   -1.4218   -0.0951 H   0  0  0  0  0  0  0  0  0  0  0  0
  1 10  1  0
  1  6  1  0
  2  5  1  0
  2  4  1  0
  3  7  1  0
  3  4  1  0
  3 11  1  0
  3 12  1  0
  4 15  1  0
  4 16  1  0
  5  8  1  0
  5 13  1  0
  5 14  1  0
  6  9  1  0
  6 17  1  0
  6 18  1  0
  7 22  1  0
  7 23  1  0
  7 24  1  0
  8 19  1  0
  8 20  1  0
  8 21  1  0
  9 25  1  0
  9 26  1  0
  9 27  1  0
 10 28  1  0
 10 29  1  0
M  RAD  1  10   2
M  END
>  <reaction>  (17) 
rmg_rxn_525

>  <mol_properties>  (17) 
{"0": {"label": "*1", "atom_type": "Cs"}, "1": {"label": "*0", "atom_type": "S2s"}, "4": {"label": "*2", "atom_type": "H0"}, "12": {"label": "*3", "atom_type": "Cs"}, "13": {"label": "*4", "atom_type": "Cs"}}

>  <type>  (17) 
unop_13

>  <geom_source>  (17) 
AutoTST

$$$$

     RDKit          3D

 29 27  0  0  0  0  0  0  0  0999 V2000
    1.2078   -0.1698    2.7144 C   0  0  0  0  0  0  0  0  0  0  0  0
   -0.4353   -0.7487    3.1722 S   0  0  0  0  0  0  0  0  0  0  0  0
   -0.4353   -2.3888    2.4086 C   0  0  0  0  0  0  0  0  0  0  0  0
   -0.4353   -2.3888    0.8882 C   0  0  0  0  0  0  0  0  0  0  0  0
    1.3226    0.0058    1.4240 H   0  0  0  0  0  0  0  0  0  0  0  0
    1.9748   -0.8629    3.0625 H   0  0  0  0  0  0  0  0  0  0  0  0
    1.3542    0.7895    3.2088 H   0  0  0  0  0  0  0  0  0  0  0  0
   -1.3394   -2.8668    2.7895 H   0  0  0  0  0  0  0  0  0  0  0  0
    0.4139   -2.9537    2.7998 H   0  0  0  0  0  0  0  0  0  0  0  0
    0.4717   -1.9326    0.4889 H   0  0  0  0  0  0  0  0  0  0  0  0
   -1.2913   -1.8356    0.5005 H   0  0  0  0  0  0  0  0  0  0  0  0
   -0.4838   -3.4120    0.5087 H   0  0  0  0  0  0  0  0  0  0  0  0
    1.4376    0.1818    0.1316 C   0  0  0  0  0  3  0  0  0  0  0  0
    0.1032    0.5643   -0.4655 C   0  0  0  0  0  0  0  0  0  0  0  0
    0.3171    1.1425   -1.7279 O   0  0  0  0  0  0  0  0  0  0  0  0
   -0.8706    1.5336   -2.3691 C   0  0  0  0  0  0  0  0  0  0  0  0
   -0.5401    2.1065   -3.7321 C   0  0  0  0  0  0  0  0  0  0  0  0
    0.1023    1.0915   -4.6683 C   0  0  0  0  0  0  0  0  0  0  0  0
    1.9513   -0.5359   -0.5090 H   0  0  0  0  0  0  0  0  0  0  0  0
    2.0732    1.0611    0.2419 H   0  0  0  0  0  0  0  0  0  0  0  0
   -0.4210    1.2762    0.1892 H   0  0  0  0  0  0  0  0  0  0  0  0
   -0.5422   -0.3210   -0.5634 H   0  0  0  0  0  0  0  0  0  0  0  0
   -1.5418    0.6667   -2.4761 H   0  0  0  0  0  0  0  0  0  0  0  0
   -1.3976    2.2817   -1.7588 H   0  0  0  0  0  0  0  0  0  0  0  0
    0.1234    2.9645   -3.5965 H   0  0  0  0  0  0  0  0  0  0  0  0
   -1.4666    2.4884   -4.1699 H   0  0  0  0  0  0  0  0  0  0  0  0
   -0.5607    0.2384   -4.8322 H   0  0  0  0  0  0  0  0  0  0  0  0
    1.0350    0.7151   -4.2481 H   0  0  0  0  0  0  0  0  0  0  0  0
    0.3210    1.5369   -5.6399 H   0  0  0  0  0  0  0  0  0  0  0  0
  1  2  1  0
  1  5  1  0
  1  6  1  0
  1  7  1  0
  2  3  1  0
  3  4  1  0
  3  8  1  0
  3  9  1  0
  4 10  1  0
  4 11  1  0
  4 12  1  0
 13 14  1  0
 13 19  1  0
 13 20  1  0
 14 15  1  0
 14 21  1  0
 14 22  1  0
 15 16  1  0
 16 17  1  0
 16 23  1  0
 16 24  1  0
 17 18  1  0
 17 25  1  0
 17 26  1  0
 18 27  1  0
 18 28  1  0
 18 29  1  0
M  RAD  1  13   2
M  END
>  <reaction>  (18) 
rmg_rxn_525

>  <mol_properties>  (18) 
{"0": {"label": "*1", "atom_type": "Cs"}, "1": {"label": "*0", "atom_type": "S2s"}, "4": {"label": "*2", "atom_type": "H0"}, "12": {"label": "*3", "atom_type": "Cs"}, "13": {"label": "*4", "atom_type": "Cs"}}

>  <type>  (18) 
unop_14

>  <geom_source>  (18) 
gaussian_log

$$$$
