
     RDKit          3D

 14 14  0  0  0  0  0  0  0  0999 V2000
   -1.1778    0.2241    0.1818 C   0  0  0  0  0  0  0  0  0  0  0  0
   -0.5633   -1.1636    0.0678 C   0  0  0  0  0  0  0  0  0  0  0  0
    0.6943   -1.1996    0.7146 O   0  0  0  0  0  0  0  0  0  0  0  0
    1.5547   -0.2288    0.2011 C   0  0  0  0  0  0  0  0  0  0  0  0
    1.0729    1.0696    0.3698 O   0  0  0  0  0  0  0  0  0  0  0  0
   -0.1607    1.2493   -0.2989 C   0  0  0  0  0  0  0  0  0  0  0  0
   -2.0927    0.2866   -0.4117 H   0  0  0  0  0  0  0  0  0  0  0  0
   -1.4303    0.4248    1.2248 H   0  0  0  0  0  0  0  0  0  0  0  0
   -1.1822   -1.9235    0.5431 H   0  0  0  0  0  0  0  0  0  0  0  0
   -0.4389   -1.4347   -0.9919 H   0  0  0  0  0  0  0  0  0  0  0  0
    1.7250   -0.4207   -0.8742 H   0  0  0  0  0  0  0  0  0  0  0  0
    2.4896   -0.3010    0.7524 H   0  0  0  0  0  0  0  0  0  0  0  0
   -0.0080    1.1481   -1.3844 H   0  0  0  0  0  0  0  0  0  0  0  0
   -0.4826    2.2695   -0.0942 H   0  0  0  0  0  0  0  0  0  0  0  0
  1  2  1  0
  1  6  1  0
  1  7  1  0
  1  8  1  0
  2  3  1  0
  2  9  1  0
  2 10  1  0
  3  4  1  0
  4  5  1  0
  4 11  1  0
  4 12  1  0
  5  6  1  0
  6 13  1  0
  6 14  1  0
M  END
>  <reaction>  (1) 
rmg_rxn_15423

>  <mol_properties>  (1) 
{"1": {"label": "donator", "atom_type": "Cs"}, "8": {"label": "d_hydrogen", "atom_type": "H0"}}

>  <type>  (1) 
r1h

$$$$

     RDKit          3D

  5  4  0  0  0  0  0  0  0  0999 V2000
    0.8934    0.3742    0.4948 O   0  0  0  0  0  0  0  0  0  0  0  0
    0.1582   -0.1610   -0.5904 N   0  0  0  0  0  0  0  0  0  0  0  0
   -1.0297   -0.3739   -0.4689 C   0  0  0  0  0  3  0  0  0  0  0  0
    1.7805    0.4382    0.1306 H   0  0  0  0  0  0  0  0  0  0  0  0
   -1.8023   -0.2775    0.2859 H   0  0  0  0  0  0  0  0  0  0  0  0
  1  2  1  0
  1  4  1  0
  2  3  2  3
  3  5  1  0
M  RAD  1   3   2
M  END
>  <reaction>  (2) 
rmg_rxn_15423

>  <mol_properties>  (2) 
{"2": {"label": "acceptor", "atom_type": "Cd"}}

>  <type>  (2) 
r2

$$$$

     RDKit          3D

  6  5  0  0  0  0  0  0  0  0999 V2000
    1.2314    0.0428    0.5088 O   0  0  0  0  0  0  0  0  0  0  0  0
    0.2987    0.2341   -0.4915 N   0  0  0  0  0  0  0  0  0  0  0  0
   -0.8599   -0.1122   -0.1290 C   0  0  0  0  0  0  0  0  0  0  0  0
    2.0507    0.3401    0.1082 H   0  0  0  0  0  0  0  0  0  0  0  0
   -1.0700   -0.5112    0.8610 H   0  0  0  0  0  0  0  0  0  0  0  0
   -1.6509    0.0064   -0.8574 H   0  0  0  0  0  0  0  0  0  0  0  0
  1  2  1  0
  1  4  1  0
  2  3  2  3
  3  5  1  0
  3  6  1  0
M  END
>  <reaction>  (3) 
rmg_rxn_15423

>  <mol_properties>  (3) 
{"2": {"label": "acceptor", "atom_type": "Cd"}, "5": {"label": "a_hydrogen", "atom_type": "H0"}}

>  <type>  (3) 
r2h

$$$$

     RDKit          3D

 19 18  0  0  0  0  0  0  0  0999 V2000
    3.6723   -0.3521    0.0845 O   0  0  0  0  0  0  0  0  0  0  0  0
    2.3145   -0.2027   -0.2402 N   0  0  0  0  0  0  0  0  0  0  0  0
    1.8291    0.8947    0.0853 C   0  0  0  0  0  3  0  0  0  0  0  0
    3.8706   -1.2364   -0.2324 H   0  0  0  0  0  0  0  0  0  0  0  0
    2.3293    1.7277    0.5798 H   0  0  0  0  0  0  0  0  0  0  0  0
   -1.0248   -0.2361   -1.4423 C   0  0  0  0  0  0  0  0  0  0  0  0
   -0.7756    1.0731   -0.7220 C   0  0  0  0  0  0  0  0  0  0  0  0
   -1.6032    1.2706    0.3744 O   0  0  0  0  0  0  0  0  0  0  0  0
   -1.6273    0.1604    1.2401 C   0  0  0  0  0  0  0  0  0  0  0  0
   -2.0256   -1.0077    0.6071 O   0  0  0  0  0  0  0  0  0  0  0  0
   -1.1162   -1.3620   -0.4232 C   0  0  0  0  0  0  0  0  0  0  0  0
   -1.9641   -0.1682   -1.9987 H   0  0  0  0  0  0  0  0  0  0  0  0
   -0.2171   -0.4276   -2.1509 H   0  0  0  0  0  0  0  0  0  0  0  0
    0.4057    1.0412   -0.3262 H   0  0  0  0  0  0  0  0  0  0  0  0
   -0.8323    1.9552   -1.3582 H   0  0  0  0  0  0  0  0  0  0  0  0
   -2.3571    0.3848    2.0142 H   0  0  0  0  0  0  0  0  0  0  0  0
   -0.6225    0.0319    1.6757 H   0  0  0  0  0  0  0  0  0  0  0  0
   -1.4930   -2.2804   -0.8700 H   0  0  0  0  0  0  0  0  0  0  0  0
   -0.1267   -1.5604    0.0079 H   0  0  0  0  0  0  0  0  0  0  0  0
  1  2  1  0
  1  4  1  0
  2  3  2  3
  3  5  1  0
  6  7  1  0
  6 11  1  0
  6 12  1  0
  6 13  1  0
  7  8  1  0
  7 14  1  0
  7 15  1  0
  8  9  1  0
  9 10  1  0
  9 16  1  0
  9 17  1  0
 10 11  1  0
 11 18  1  0
 11 19  1  0
M  RAD  1   3   2
M  END
>  <reaction>  (4) 
rmg_rxn_15423

>  <mol_properties>  (4) 
{"1": {"label": "*4", "atom_type": "N3d"}, "2": {"label": "*3", "atom_type": "Cd"}, "6": {"label": "*1", "atom_type": "Cs"}, "7": {"label": "*0", "atom_type": "O2s"}, "13": {"label": "*2", "atom_type": "H0"}}

>  <type>  (4) 
ts

$$$$

     RDKit          3D

 19 18  0  0  0  0  0  0  0  0999 V2000
    3.5481   -0.4278    0.3151 O   0  0  0  0  0  0  0  0  0  0  0  0
    2.2007   -0.2104   -0.0441 N   0  0  0  0  0  0  0  0  0  0  0  0
    1.7564    0.9480   -0.0550 C   0  0  0  0  0  0  0  0  0  0  0  0
    3.6663   -1.3850    0.2460 H   0  0  0  0  0  0  0  0  0  0  0  0
    2.2692    1.8709    0.1888 H   0  0  0  0  0  0  0  0  0  0  0  0
   -1.0885   -0.1793   -1.4948 C   0  0  0  0  0  0  0  0  0  0  0  0
   -0.7896    1.0975   -0.7338 C   0  0  0  0  0  3  0  0  0  0  0  0
   -1.5073    1.2406    0.4511 O   0  0  0  0  0  0  0  0  0  0  0  0
   -1.4832    0.0923    1.2574 C   0  0  0  0  0  0  0  0  0  0  0  0
   -1.8988   -1.0597    0.6049 O   0  0  0  0  0  0  0  0  0  0  0  0
   -1.0636   -1.3467   -0.5062 C   0  0  0  0  0  0  0  0  0  0  0  0
   -2.0848   -0.1130   -1.9454 H   0  0  0  0  0  0  0  0  0  0  0  0
   -0.3529   -0.3301   -2.2838 H   0  0  0  0  0  0  0  0  0  0  0  0
    0.5121    1.0418   -0.4044 H   0  0  0  0  0  0  0  0  0  0  0  0
   -0.9145    2.0132   -1.3091 H   0  0  0  0  0  0  0  0  0  0  0  0
   -2.1837    0.2731    2.0758 H   0  0  0  0  0  0  0  0  0  0  0  0
   -0.4557   -0.0427    1.6549 H   0  0  0  0  0  0  0  0  0  0  0  0
   -1.4610   -2.2602   -0.9499 H   0  0  0  0  0  0  0  0  0  0  0  0
   -0.0334   -1.5166   -0.1628 H   0  0  0  0  0  0  0  0  0  0  0  0
  1  2  1  0
  1  4  1  0
  2  3  2  3
  3  5  1  0
  3 14  1  0
  6  7  1  0
  6 11  1  0
  6 12  1  0
  6 13  1  0
  7  8  1  0
  7 15  1  0
  8  9  1  0
  9 10  1  0
  9 16  1  0
  9 17  1  0
 10 11  1  0
 11 18  1  0
 11 19  1  0
M  RAD  1   7   2
M  END
>  <reaction>  (5) 
rmg_rxn_15423

>  <mol_properties>  (5) 
{"1": {"label": "*4", "atom_type": "N3d"}, "2": {"label": "*3", "atom_type": "Cd"}, "6": {"label": "*1", "atom_type": "Cs"}, "7": {"label": "*0", "atom_type": "O2s"}, "13": {"label": "*2", "atom_type": "H0"}}

>  <type>  (5) 
unop_1

>  <geom_source>  (5) 
crest_best.xyz

$$$$

     RDKit          3D

 19 18  0  0  0  0  0  0  0  0999 V2000
    0.3520   -3.2299    2.6660 O   0  0  0  0  0  0  0  0  0  0  0  0
    0.8575   -2.5963    1.5479 N   0  0  0  0  0  0  0  0  0  0  0  0
   -0.0587   -2.1334    0.8131 C   0  0  0  0  0  0  0  0  0  0  0  0
    1.1387   -3.5281    3.1268 H   0  0  0  0  0  0  0  0  0  0  0  0
   -1.1140   -2.2361    1.0565 H   0  0  0  0  0  0  0  0  0  0  0  0
    0.3215    0.2526   -1.6833 C   0  0  0  0  0  0  0  0  0  0  0  0
    0.3215    0.2526   -0.1612 C   0  0  0  0  0  3  0  0  0  0  0  0
   -0.7268    1.0652    0.3309 O   0  0  0  0  0  0  0  0  0  0  0  0
   -0.6359    2.3648   -0.1684 C   0  0  0  0  0  0  0  0  0  0  0  0
   -0.7268    2.4210   -1.5595 O   0  0  0  0  0  0  0  0  0  0  0  0
    0.3215    1.6943   -2.1714 C   0  0  0  0  0  0  0  0  0  0  0  0
    1.1955   -0.2798   -2.0651 H   0  0  0  0  0  0  0  0  0  0  0  0
   -0.5751   -0.2535   -2.0463 H   0  0  0  0  0  0  0  0  0  0  0  0
    0.1308   -0.9444    0.3276 H   0  0  0  0  0  0  0  0  0  0  0  0
    1.2851    0.6286    0.2155 H   0  0  0  0  0  0  0  0  0  0  0  0
    0.3195    2.8169    0.1558 H   0  0  0  0  0  0  0  0  0  0  0  0
   -1.4769    2.9253    0.2335 H   0  0  0  0  0  0  0  0  0  0  0  0
    1.2851    2.1717   -1.9361 H   0  0  0  0  0  0  0  0  0  0  0  0
    0.1626    1.7602   -3.2468 H   0  0  0  0  0  0  0  0  0  0  0  0
  1  2  1  0
  1  4  1  0
  2  3  2  3
  3  5  1  0
  3 14  1  0
  6  7  1  0
  6 11  1  0
  6 12  1  0
  6 13  1  0
  7  8  1  0
  7 15  1  0
  8  9  1  0
  9 10  1  0
  9 16  1  0
  9 17  1  0
 10 11  1  0
 11 18  1  0
 11 19  1  0
M  RAD  1   7   2
M  END
>  <reaction>  (6) 
rmg_rxn_15423

>  <mol_properties>  (6) 
{"1": {"label": "*4", "atom_type": "N3d"}, "2": {"label": "*3", "atom_type": "Cd"}, "6": {"label": "*1", "atom_type": "Cs"}, "7": {"label": "*0", "atom_type": "O2s"}, "13": {"label": "*2", "atom_type": "H0"}}

>  <type>  (6) 
unop_2

>  <geom_source>  (6) 
Heuristics

$$$$

     RDKit          3D

 19 18  0  0  0  0  0  0  0  0999 V2000
    0.5110   -4.0698    1.2478 O   0  0  0  0  0  0  0  0  0  0  0  0
    0.3928   -2.9123    0.5039 N   0  0  0  0  0  0  0  0  0  0  0  0
   -0.0246   -1.9449    1.1992 C   0  0  0  0  0  0  0  0  0  0  0  0
    0.8305   -4.7116    0.6106 H   0  0  0  0  0  0  0  0  0  0  0  0
   -0.2561   -2.0403    2.2579 H   0  0  0  0  0  0  0  0  0  0  0  0
    0.3556    0.4411   -1.2972 C   0  0  0  0  0  0  0  0  0  0  0  0
    0.3556    0.4411    0.2248 C   0  0  0  0  0  3  0  0  0  0  0  0
   -0.6927    1.2537    0.7170 O   0  0  0  0  0  0  0  0  0  0  0  0
   -0.6018    2.5532    0.2176 C   0  0  0  0  0  0  0  0  0  0  0  0
   -0.6927    2.6094   -1.1734 O   0  0  0  0  0  0  0  0  0  0  0  0
    0.3556    1.8827   -1.7853 C   0  0  0  0  0  0  0  0  0  0  0  0
    1.2296   -0.0914   -1.6791 H   0  0  0  0  0  0  0  0  0  0  0  0
   -0.5410   -0.0651   -1.6602 H   0  0  0  0  0  0  0  0  0  0  0  0
    0.1649   -0.7559    0.7137 H   0  0  0  0  0  0  0  0  0  0  0  0
    1.3192    0.8170    0.6016 H   0  0  0  0  0  0  0  0  0  0  0  0
    0.3536    3.0053    0.5418 H   0  0  0  0  0  0  0  0  0  0  0  0
   -1.4428    3.1137    0.6196 H   0  0  0  0  0  0  0  0  0  0  0  0
    1.3192    2.3601   -1.5500 H   0  0  0  0  0  0  0  0  0  0  0  0
    0.1967    1.9486   -2.8608 H   0  0  0  0  0  0  0  0  0  0  0  0
  1  2  1  0
  1  4  1  0
  2  3  2  3
  3  5  1  0
  3 14  1  0
  6  7  1  0
  6 11  1  0
  6 12  1  0
  6 13  1  0
  7  8  1  0
  7 15  1  0
  8  9  1  0
  9 10  1  0
  9 16  1  0
  9 17  1  0
 10 11  1  0
 11 18  1  0
 11 19  1  0
M  RAD  1   7   2
M  END
>  <reaction>  (7) 
rmg_rxn_15423

>  <mol_properties>  (7) 
{"1": {"label": "*4", "atom_type": "N3d"}, "2": {"label": "*3", "atom_type": "Cd"}, "6": {"label": "*1", "atom_type": "Cs"}, "7": {"label": "*0", "atom_type": "O2s"}, "13": {"label": "*2", "atom_type": "H0"}}

>  <type>  (7) 
unop_3

>  <geom_source>  (7) 
Heuristics

$$$$

     RDKit          3D

 19 18  0  0  0  0  0  0  0  0999 V2000
   -0.1614   -3.2718    2.6425 O   0  0  0  0  0  0  0  0  0  0  0  0
    0.5978   -2.3978    1.8897 N   0  0  0  0  0  0  0  0  0  0  0  0
    0.0654   -2.1525    0.7717 C   0  0  0  0  0  0  0  0  0  0  0  0
    0.3478   -3.3698    3.4495 H   0  0  0  0  0  0  0  0  0  0  0  0
   -0.8809   -2.5920    0.4636 H   0  0  0  0  0  0  0  0  0  0  0  0
    0.4456    0.2335   -1.7246 C   0  0  0  0  0  0  0  0  0  0  0  0
    0.4456    0.2335   -0.2026 C   0  0  0  0  0  3  0  0  0  0  0  0
   -0.6027    1.0462    0.2895 O   0  0  0  0  0  0  0  0  0  0  0  0
   -0.5118    2.3457   -0.2098 C   0  0  0  0  0  0  0  0  0  0  0  0
   -0.6027    2.4019   -1.6009 O   0  0  0  0  0  0  0  0  0  0  0  0
    0.4456    1.6752   -2.2127 C   0  0  0  0  0  0  0  0  0  0  0  0
    1.3196   -0.2989   -2.1065 H   0  0  0  0  0  0  0  0  0  0  0  0
   -0.4510   -0.2726   -2.0876 H   0  0  0  0  0  0  0  0  0  0  0  0
    0.2548   -0.9635    0.2862 H   0  0  0  0  0  0  0  0  0  0  0  0
    1.4092    0.6095    0.1741 H   0  0  0  0  0  0  0  0  0  0  0  0
    0.4435    2.7978    0.1144 H   0  0  0  0  0  0  0  0  0  0  0  0
   -1.3529    2.9062    0.1922 H   0  0  0  0  0  0  0  0  0  0  0  0
    1.4092    2.1526   -1.9774 H   0  0  0  0  0  0  0  0  0  0  0  0
    0.2866    1.7411   -3.2882 H   0  0  0  0  0  0  0  0  0  0  0  0
  1  2  1  0
  1  4  1  0
  2  3  2  3
  3  5  1  0
  3 14  1  0
  6  7  1  0
  6 11  1  0
  6 12  1  0
  6 13  1  0
  7  8  1  0
  7 15  1  0
  8  9  1  0
  9 10  1  0
  9 16  1  0
  9 17  1  0
 10 11  1  0
 11 18  1  0
 11 19  1  0
M  RAD  1   7   2
M  END
>  <reaction>  (8) 
rmg_rxn_15423

>  <mol_properties>  (8) 
{"1": {"label": "*4", "atom_type": "N3d"}, "2": {"label": "*3", "atom_type": "Cd"}, "6": {"label": "*1", "atom_type": "Cs"}, "7": {"label": "*0", "atom_type": "O2s"}, "13": {"label": "*2", "atom_type": "H0"}}

>  <type>  (8) 
unop_4

>  <geom_source>  (8) 
Heuristics

$$$$

     RDKit          3D

 19 18  0  0  0  0  0  0  0  0999 V2000
   -1.1316   -3.4830    1.7684 O   0  0  0  0  0  0  0  0  0  0  0  0
   -0.6770   -2.6538    0.7620 N   0  0  0  0  0  0  0  0  0  0  0  0
    0.4041   -2.0816    1.0741 C   0  0  0  0  0  0  0  0  0  0  0  0
   -1.9425   -3.8464    1.4073 H   0  0  0  0  0  0  0  0  0  0  0  0
    0.8976   -2.2415    2.0304 H   0  0  0  0  0  0  0  0  0  0  0  0
    0.7843    0.3044   -1.4223 C   0  0  0  0  0  0  0  0  0  0  0  0
    0.7843    0.3044    0.0998 C   0  0  0  0  0  3  0  0  0  0  0  0
   -0.2640    1.1170    0.5919 O   0  0  0  0  0  0  0  0  0  0  0  0
   -0.1731    2.4166    0.0926 C   0  0  0  0  0  0  0  0  0  0  0  0
   -0.2640    2.4728   -1.2985 O   0  0  0  0  0  0  0  0  0  0  0  0
    0.7843    1.7460   -1.9104 C   0  0  0  0  0  0  0  0  0  0  0  0
    1.6582   -0.2281   -1.8041 H   0  0  0  0  0  0  0  0  0  0  0  0
   -0.1123   -0.2018   -1.7853 H   0  0  0  0  0  0  0  0  0  0  0  0
    0.5935   -0.8926    0.5886 H   0  0  0  0  0  0  0  0  0  0  0  0
    1.7479    0.6804    0.4765 H   0  0  0  0  0  0  0  0  0  0  0  0
    0.7822    2.8686    0.4168 H   0  0  0  0  0  0  0  0  0  0  0  0
   -1.0142    2.9771    0.4945 H   0  0  0  0  0  0  0  0  0  0  0  0
    1.7479    2.2234   -1.6751 H   0  0  0  0  0  0  0  0  0  0  0  0
    0.6253    1.8120   -2.9858 H   0  0  0  0  0  0  0  0  0  0  0  0
  1  2  1  0
  1  4  1  0
  2  3  2  3
  3  5  1  0
  3 14  1  0
  6  7  1  0
  6 11  1  0
  6 12  1  0
  6 13  1  0
  7  8  1  0
  7 15  1  0
  8  9  1  0
  9 10  1  0
  9 16  1  0
  9 17  1  0
 10 11  1  0
 11 18  1  0
 11 19  1  0
M  RAD  1   7   2
M  END
>  <reaction>  (9) 
rmg_rxn_15423

>  <mol_properties>  (9) 
{"1": {"label": "*4", "atom_type": "N3d"}, "2": {"label": "*3", "atom_type": "Cd"}, "6": {"label": "*1", "atom_type": "Cs"}, "7": {"label": "*0", "atom_type": "O2s"}, "13": {"label": "*2", "atom_type": "H0"}}

>  <type>  (9) 
unop_5

>  <geom_source>  (9) 
Heuristics

$$$$

     RDKit          3D

 19 18  0  0  0  0  0  0  0  0999 V2000
   -0.1027   -3.5319    2.4538 O   0  0  0  0  0  0  0  0  0  0  0  0
    0.1047   -2.2301    2.0425 N   0  0  0  0  0  0  0  0  0  0  0  0
    0.1207   -2.1294    0.7843 C   0  0  0  0  0  0  0  0  0  0  0  0
   -0.0924   -3.4668    3.4107 H   0  0  0  0  0  0  0  0  0  0  0  0
   -0.0155   -2.9845    0.1256 H   0  0  0  0  0  0  0  0  0  0  0  0
    0.5009    0.2566   -1.7121 C   0  0  0  0  0  0  0  0  0  0  0  0
    0.5009    0.2566   -0.1900 C   0  0  0  0  0  3  0  0  0  0  0  0
   -0.5474    1.0692    0.3021 O   0  0  0  0  0  0  0  0  0  0  0  0
   -0.4565    2.3687   -0.1972 C   0  0  0  0  0  0  0  0  0  0  0  0
   -0.5474    2.4249   -1.5883 O   0  0  0  0  0  0  0  0  0  0  0  0
    0.5009    1.6982   -2.2002 C   0  0  0  0  0  0  0  0  0  0  0  0
    1.3749   -0.2759   -2.0939 H   0  0  0  0  0  0  0  0  0  0  0  0
   -0.3957   -0.2496   -2.0751 H   0  0  0  0  0  0  0  0  0  0  0  0
    0.3102   -0.9404    0.2988 H   0  0  0  0  0  0  0  0  0  0  0  0
    1.4645    0.6325    0.1867 H   0  0  0  0  0  0  0  0  0  0  0  0
    0.4989    2.8208    0.1270 H   0  0  0  0  0  0  0  0  0  0  0  0
   -1.2975    2.9293    0.2048 H   0  0  0  0  0  0  0  0  0  0  0  0
    1.4645    2.1756   -1.9649 H   0  0  0  0  0  0  0  0  0  0  0  0
    0.3420    1.7642   -3.2756 H   0  0  0  0  0  0  0  0  0  0  0  0
  1  2  1  0
  1  4  1  0
  2  3  2  3
  3  5  1  0
  3 14  1  0
  6  7  1  0
  6 11  1  0
  6 12  1  0
  6 13  1  0
  7  8  1  0
  7 15  1  0
  8  9  1  0
  9 10  1  0
  9 16  1  0
  9 17  1  0
 10 11  1  0
 11 18  1  0
 11 19  1  0
M  RAD  1   7   2
M  END
>  <reaction>  (10) 
rmg_rxn_15423

>  <mol_properties>  (10) 
{"1": {"label": "*4", "atom_type": "N3d"}, "2": {"label": "*3", "atom_type": "Cd"}, "6": {"label": "*1", "atom_type": "Cs"}, "7": {"label": "*0", "atom_type": "O2s"}, "13": {"label": "*2", "atom_type": "H0"}}

>  <type>  (10) 
unop_6

>  <geom_source>  (10) 
Heuristics

$$$$

     RDKit          3D

 19 18  0  0  0  0  0  0  0  0999 V2000
   -0.9462   -3.1876    2.3246 O   0  0  0  0  0  0  0  0  0  0  0  0
   -0.8080   -2.4942    1.1384 N   0  0  0  0  0  0  0  0  0  0  0  0
    0.3892   -2.1543    0.9271 C   0  0  0  0  0  0  0  0  0  0  0  0
   -1.8850   -3.3811    2.3606 H   0  0  0  0  0  0  0  0  0  0  0  0
    1.1970   -2.3929    1.6156 H   0  0  0  0  0  0  0  0  0  0  0  0
    0.7694    0.2317   -1.5693 C   0  0  0  0  0  0  0  0  0  0  0  0
    0.7694    0.2317   -0.0473 C   0  0  0  0  0  3  0  0  0  0  0  0
   -0.2789    1.0443    0.4448 O   0  0  0  0  0  0  0  0  0  0  0  0
   -0.1880    2.3439   -0.0545 C   0  0  0  0  0  0  0  0  0  0  0  0
   -0.2789    2.4000   -1.4455 O   0  0  0  0  0  0  0  0  0  0  0  0
    0.7694    1.6733   -2.0574 C   0  0  0  0  0  0  0  0  0  0  0  0
    1.6433   -0.3008   -1.9512 H   0  0  0  0  0  0  0  0  0  0  0  0
   -0.1272   -0.2745   -1.9323 H   0  0  0  0  0  0  0  0  0  0  0  0
    0.5786   -0.9653    0.4415 H   0  0  0  0  0  0  0  0  0  0  0  0
    1.7330    0.6077    0.3295 H   0  0  0  0  0  0  0  0  0  0  0  0
    0.7673    2.7959    0.2697 H   0  0  0  0  0  0  0  0  0  0  0  0
   -1.0291    2.9044    0.3475 H   0  0  0  0  0  0  0  0  0  0  0  0
    1.7330    2.1507   -1.8221 H   0  0  0  0  0  0  0  0  0  0  0  0
    0.6104    1.7393   -3.1329 H   0  0  0  0  0  0  0  0  0  0  0  0
  1  2  1  0
  1  4  1  0
  2  3  2  3
  3  5  1  0
  3 14  1  0
  6  7  1  0
  6 11  1  0
  6 12  1  0
  6 13  1  0
  7  8  1  0
  7 15  1  0
  8  9  1  0
  9 10  1  0
  9 16  1  0
  9 17  1  0
 10 11  1  0
 11 18  1  0
 11 19  1  0
M  RAD  1   7   2
M  END
>  <reaction>  (11) 
rmg_rxn_15423

>  <mol_properties>  (11) 
{"1": {"label": "*4", "atom_type": "N3d"}, "2": {"label": "*3", "atom_type": "Cd"}, "6": {"label": "*1", "atom_type": "Cs"}, "7": {"label": "*0", "atom_type": "O2s"}, "13": {"label": "*2", "atom_type": "H0"}}

>  <type>  (11) 
unop_7

>  <geom_source>  (11) 
Heuristics

$$$$

     RDKit          3D

 19 18  0  0  0  0  0  0  0  0999 V2000
    2.4926   -1.0853   -0.4879 O   0  0  0  0  0  0  0  0  0  0  0  0
    3.0166    0.1221   -0.2065 N   0  0  0  0  0  0  0  0  0  0  0  0
    2.3650    1.0677    0.2622 C   0  0  0  0  0  0  0  0  0  0  0  0
    1.5395   -1.1365   -0.2550 H   0  0  0  0  0  0  0  0  0  0  0  0
    2.8595    2.0015    0.4582 H   0  0  0  0  0  0  0  0  0  0  0  0
   -1.0727    1.4061   -0.3389 C   0  0  0  0  0  0  0  0  0  0  0  0
   -0.2110    0.6917    0.6806 C   0  0  0  0  0  3  0  0  0  0  0  0
   -0.2233   -0.7105    0.4699 O   0  0  0  0  0  0  0  0  0  0  0  0
   -1.5280   -1.2222    0.4751 C   0  0  0  0  0  0  0  0  0  0  0  0
   -2.3328   -0.6557   -0.5061 O   0  0  0  0  0  0  0  0  0  0  0  0
   -2.4596    0.7422   -0.3258 C   0  0  0  0  0  0  0  0  0  0  0  0
   -1.1544    2.4664   -0.1045 H   0  0  0  0  0  0  0  0  0  0  0  0
   -0.6406    1.2864   -1.3347 H   0  0  0  0  0  0  0  0  0  0  0  0
    1.0800    0.9758    0.5139 H   0  0  0  0  0  0  0  0  0  0  0  0
   -0.4873    0.9313    1.7152 H   0  0  0  0  0  0  0  0  0  0  0  0
   -1.9782   -1.0652    1.4773 H   0  0  0  0  0  0  0  0  0  0  0  0
   -1.4526   -2.2895    0.2570 H   0  0  0  0  0  0  0  0  0  0  0  0
   -2.9625    0.9476    0.6325 H   0  0  0  0  0  0  0  0  0  0  0  0
   -3.0839    1.0970   -1.1469 H   0  0  0  0  0  0  0  0  0  0  0  0
  1  2  1  0
  1  4  1  0
  2  3  2  3
  3  5  1  0
  3 14  1  0
  6  7  1  0
  6 11  1  0
  6 12  1  0
  6 13  1  0
  7  8  1  0
  7 15  1  0
  8  9  1  0
  9 10  1  0
  9 16  1  0
  9 17  1  0
 10 11  1  0
 11 18  1  0
 11 19  1  0
M  RAD  1   7   2
M  END
>  <reaction>  (12) 
rmg_rxn_15423

>  <mol_properties>  (12) 
{"1": {"label": "*4", "atom_type": "N3d"}, "2": {"label": "*3", "atom_type": "Cd"}, "6": {"label": "*1", "atom_type": "Cs"}, "7": {"label": "*0", "atom_type": "O2s"}, "13": {"label": "*2", "atom_type": "H0"}}

>  <type>  (12) 
unop_8

>  <geom_source>  (12) 
Heuristics

$$$$

     RDKit          3D

 19 18  0  0  0  0  0  0  0  0999 V2000
   -0.4411   -3.1035    2.6660 O   0  0  0  0  0  0  0  0  0  0  0  0
   -0.7246   -2.3442    1.5479 N   0  0  0  0  0  0  0  0  0  0  0  0
    0.2900   -2.1889    0.8131 C   0  0  0  0  0  0  0  0  0  0  0  0
   -1.2815   -3.1425    3.1268 H   0  0  0  0  0  0  0  0  0  0  0  0
    1.2612   -2.6145    1.0565 H   0  0  0  0  0  0  0  0  0  0  0  0
    0.6702    0.1971   -1.6833 C   0  0  0  0  0  0  0  0  0  0  0  0
    0.6702    0.1971   -0.1612 C   0  0  0  0  0  3  0  0  0  0  0  0
   -0.3781    1.0097    0.3309 O   0  0  0  0  0  0  0  0  0  0  0  0
   -0.2872    2.3092   -0.1684 C   0  0  0  0  0  0  0  0  0  0  0  0
   -0.3781    2.3654   -1.5595 O   0  0  0  0  0  0  0  0  0  0  0  0
    0.6702    1.6387   -2.1714 C   0  0  0  0  0  0  0  0  0  0  0  0
    1.5442   -0.3354   -2.0651 H   0  0  0  0  0  0  0  0  0  0  0  0
   -0.2264   -0.3091   -2.0463 H   0  0  0  0  0  0  0  0  0  0  0  0
    0.4795   -0.9999    0.3276 H   0  0  0  0  0  0  0  0  0  0  0  0
    1.6338    0.5730    0.2155 H   0  0  0  0  0  0  0  0  0  0  0  0
    0.6682    2.7613    0.1558 H   0  0  0  0  0  0  0  0  0  0  0  0
   -1.1282    2.8697    0.2335 H   0  0  0  0  0  0  0  0  0  0  0  0
    1.6338    2.1161   -1.9361 H   0  0  0  0  0  0  0  0  0  0  0  0
    0.5113    1.7046   -3.2468 H   0  0  0  0  0  0  0  0  0  0  0  0
  1  2  1  0
  1  4  1  0
  2  3  2  3
  3  5  1  0
  3 14  1  0
  6  7  1  0
  6 11  1  0
  6 12  1  0
  6 13  1  0
  7  8  1  0
  7 15  1  0
  8  9  1  0
  9 10  1  0
  9 16  1  0
  9 17  1  0
 10 11  1  0
 11 18  1  0
 11 19  1  0
M  RAD  1   7   2
M  END
>  <reaction>  (13) 
rmg_rxn_15423

>  <mol_properties>  (13) 
{"1": {"label": "*4", "atom_type": "N3d"}, "2": {"label": "*3", "atom_type": "Cd"}, "6": {"label": "*1", "atom_type": "Cs"}, "7": {"label": "*0", "atom_type": "O2s"}, "13": {"label": "*2", "atom_type": "H0"}}

>  <type>  (13) 
unop_9

>  <geom_source>  (13) 
Heuristics

$$$$

     RDKit          3D

 19 18  0  0  0  0  0  0  0  0999 V2000
    0.8060   -3.4668    2.3246 O   0  0  0  0  0  0  0  0  0  0  0  0
    0.8901   -2.7648    1.1384 N   0  0  0  0  0  0  0  0  0  0  0  0
   -0.1421   -2.0697    0.9271 C   0  0  0  0  0  0  0  0  0  0  0  0
    1.6381   -3.9425    2.3606 H   0  0  0  0  0  0  0  0  0  0  0  0
   -0.9841   -2.0454    1.6156 H   0  0  0  0  0  0  0  0  0  0  0  0
    0.2381    0.3163   -1.5693 C   0  0  0  0  0  0  0  0  0  0  0  0
    0.2381    0.3163   -0.0473 C   0  0  0  0  0  3  0  0  0  0  0  0
   -0.8102    1.1290    0.4448 O   0  0  0  0  0  0  0  0  0  0  0  0
   -0.7193    2.4285   -0.0545 C   0  0  0  0  0  0  0  0  0  0  0  0
   -0.8102    2.4847   -1.4455 O   0  0  0  0  0  0  0  0  0  0  0  0
    0.2381    1.7580   -2.0574 C   0  0  0  0  0  0  0  0  0  0  0  0
    1.1120   -0.2161   -1.9512 H   0  0  0  0  0  0  0  0  0  0  0  0
   -0.6585   -0.1898   -1.9323 H   0  0  0  0  0  0  0  0  0  0  0  0
    0.0473   -0.8807    0.4415 H   0  0  0  0  0  0  0  0  0  0  0  0
    1.2017    0.6923    0.3295 H   0  0  0  0  0  0  0  0  0  0  0  0
    0.2360    2.8806    0.2697 H   0  0  0  0  0  0  0  0  0  0  0  0
   -1.5604    2.9890    0.3475 H   0  0  0  0  0  0  0  0  0  0  0  0
    1.2017    2.2354   -1.8221 H   0  0  0  0  0  0  0  0  0  0  0  0
    0.0791    1.8239   -3.1329 H   0  0  0  0  0  0  0  0  0  0  0  0
  1  2  1  0
  1  4  1  0
  2  3  2  3
  3  5  1  0
  3 14  1  0
  6  7  1  0
  6 11  1  0
  6 12  1  0
  6 13  1  0
  7  8  1  0
  7 15  1  0
  8  9  1  0
  9 10  1  0
  9 16  1  0
  9 17  1  0
 10 11  1  0
 11 18  1  0
 11 19  1  0
M  RAD  1   7   2
M  END
>  <reaction>  (14) 
rmg_rxn_15423

>  <mol_properties>  (14) 
{"1": {"label": "*4", "atom_type": "N3d"}, "2": {"label": "*3", "atom_type": "Cd"}, "6": {"label": "*1", "atom_type": "Cs"}, "7": {"label": "*0", "atom_type": "O2s"}, "13": {"label": "*2", "atom_type": "H0"}}

>  <type>  (14) 
unop_10

>  <geom_source>  (14) 
Heuristics

$$$$

     RDKit          3D

 19 18  0  0  0  0  0  0  0  0999 V2000
    3.5481   -0.4278    0.3151 O   0  0  0  0  0  0  0  0  0  0  0  0
    2.2007   -0.2104   -0.0441 N   0  0  0  0  0  0  0  0  0  0  0  0
    1.7564    0.9480   -0.0550 C   0  0  0  0  0  0  0  0  0  0  0  0
    3.6663   -1.3850    0.2460 H   0  0  0  0  0  0  0  0  0  0  0  0
    2.2692    1.8709    0.1888 H   0  0  0  0  0  0  0  0  0  0  0  0
   -1.0885   -0.1793   -1.4948 C   0  0  0  0  0  0  0  0  0  0  0  0
   -0.7896    1.0975   -0.7338 C   0  0  0  0  0  3  0  0  0  0  0  0
   -1.5073    1.2406    0.4511 O   0  0  0  0  0  0  0  0  0  0  0  0
   -1.4832    0.0923    1.2574 C   0  0  0  0  0  0  0  0  0  0  0  0
   -1.8988   -1.0597    0.6049 O   0  0  0  0  0  0  0  0  0  0  0  0
   -1.0636   -1.3467   -0.5062 C   0  0  0  0  0  0  0  0  0  0  0  0
   -2.0848   -0.1130   -1.9454 H   0  0  0  0  0  0  0  0  0  0  0  0
   -0.3529   -0.3301   -2.2838 H   0  0  0  0  0  0  0  0  0  0  0  0
    0.5121    1.0418   -0.4044 H   0  0  0  0  0  0  0  0  0  0  0  0
   -0.9145    2.0132   -1.3091 H   0  0  0  0  0  0  0  0  0  0  0  0
   -2.1837    0.2731    2.0758 H   0  0  0  0  0  0  0  0  0  0  0  0
   -0.4557   -0.0427    1.6549 H   0  0  0  0  0  0  0  0  0  0  0  0
   -1.4610   -2.2602   -0.9499 H   0  0  0  0  0  0  0  0  0  0  0  0
   -0.0334   -1.5166   -0.1628 H   0  0  0  0  0  0  0  0  0  0  0  0
  1  2  1  0
  1  4  1  0
  2  3  2  3
  3  5  1  0
  3 14  1  0
  6  7  1  0
  6 11  1  0
  6 12  1  0
  6 13  1  0
  7  8  1  0
  7 15  1  0
  8  9  1  0
  9 10  1  0
  9 16  1  0
  9 17  1  0
 10 11  1  0
 11 18  1  0
 11 19  1  0
M  RAD  1   7   2
M  END
>  <reaction>  (15) 
rmg_rxn_15423

>  <mol_properties>  (15) 
{"1": {"label": "*4", "atom_type": "N3d"}, "2": {"label": "*3", "atom_type": "Cd"}, "6": {"label": "*1", "atom_type": "Cs"}, "7": {"label": "*0", "atom_type": "O2s"}, "13": {"label": "*2", "atom_type": "H0"}}

>  <type>  (15) 
unop_11

>  <geom_source>  (15) 
Heuristics

$$$$

     RDKit          3D

 19 18  0  0  0  0  0  0  0  0999 V2000
   -0.8533   -3.8524    1.2478 O   0  0  0  0  0  0  0  0  0  0  0  0
   -0.3812   -2.7890    0.5039 N   0  0  0  0  0  0  0  0  0  0  0  0
    0.3162   -1.9992    1.1992 C   0  0  0  0  0  0  0  0  0  0  0  0
   -1.3564   -4.3631    0.6106 H   0  0  0  0  0  0  0  0  0  0  0  0
    0.5066   -2.1618    2.2579 H   0  0  0  0  0  0  0  0  0  0  0  0
    0.6964    0.3868   -1.2972 C   0  0  0  0  0  0  0  0  0  0  0  0
    0.6964    0.3868    0.2248 C   0  0  0  0  0  3  0  0  0  0  0  0
   -0.3519    1.1994    0.7170 O   0  0  0  0  0  0  0  0  0  0  0  0
   -0.2610    2.4989    0.2176 C   0  0  0  0  0  0  0  0  0  0  0  0
   -0.3519    2.5551   -1.1734 O   0  0  0  0  0  0  0  0  0  0  0  0
    0.6964    1.8284   -1.7853 C   0  0  0  0  0  0  0  0  0  0  0  0
    1.5704   -0.1457   -1.6791 H   0  0  0  0  0  0  0  0  0  0  0  0
   -0.2002   -0.1194   -1.6602 H   0  0  0  0  0  0  0  0  0  0  0  0
    0.5056   -0.8102    0.7137 H   0  0  0  0  0  0  0  0  0  0  0  0
    1.6600    0.7627    0.6016 H   0  0  0  0  0  0  0  0  0  0  0  0
    0.6943    2.9510    0.5418 H   0  0  0  0  0  0  0  0  0  0  0  0
   -1.1021    3.0595    0.6196 H   0  0  0  0  0  0  0  0  0  0  0  0
    1.6600    2.3058   -1.5500 H   0  0  0  0  0  0  0  0  0  0  0  0
    0.5374    1.8944   -2.8608 H   0  0  0  0  0  0  0  0  0  0  0  0
  1  2  1  0
  1  4  1  0
  2  3  2  3
  3  5  1  0
  3 14  1  0
  6  7  1  0
  6 11  1  0
  6 12  1  0
  6 13  1  0
  7  8  1  0
  7 15  1  0
  8  9  1  0
  9 10  1  0
  9 16  1  0
  9 17  1  0
 10 11  1  0
 11 18  1  0
 11 19  1  0
M  RAD  1   7   2
M  END
>  <reaction>  (16) 
rmg_rxn_15423

>  <mol_properties>  (16) 
{"1": {"label": "*4", "atom_type": "N3d"}, "2": {"label": "*3", "atom_type": "Cd"}, "6": {"label": "*1", "atom_type": "Cs"}, "7": {"label": "*0", "atom_type": "O2s"}, "13": {"label": "*2", "atom_type": "H0"}}

>  <type>  (16) 
unop_12

>  <geom_source>  (16) 
Heuristics

$$$$

     RDKit          3D

 19 18  0  0  0  0  0  0  0  0999 V2000
    0.8904   -3.8052    1.7684 O   0  0  0  0  0  0  0  0  0  0  0  0
    0.7160   -2.8757    0.7620 N   0  0  0  0  0  0  0  0  0  0  0  0
   -0.1337   -1.9959    1.0741 C   0  0  0  0  0  0  0  0  0  0  0  0
    1.5482   -4.4026    1.4073 H   0  0  0  0  0  0  0  0  0  0  0  0
   -0.6525   -1.9945    2.0304 H   0  0  0  0  0  0  0  0  0  0  0  0
    0.2465    0.3901   -1.4223 C   0  0  0  0  0  0  0  0  0  0  0  0
    0.2465    0.3901    0.0998 C   0  0  0  0  0  3  0  0  0  0  0  0
   -0.8018    1.2027    0.5919 O   0  0  0  0  0  0  0  0  0  0  0  0
   -0.7109    2.5022    0.0926 C   0  0  0  0  0  0  0  0  0  0  0  0
   -0.8018    2.5584   -1.2985 O   0  0  0  0  0  0  0  0  0  0  0  0
    0.2465    1.8317   -1.9104 C   0  0  0  0  0  0  0  0  0  0  0  0
    1.1205   -0.1424   -1.8041 H   0  0  0  0  0  0  0  0  0  0  0  0
   -0.6501   -0.1161   -1.7853 H   0  0  0  0  0  0  0  0  0  0  0  0
    0.0558   -0.8069    0.5886 H   0  0  0  0  0  0  0  0  0  0  0  0
    1.2101    0.7660    0.4765 H   0  0  0  0  0  0  0  0  0  0  0  0
    0.2444    2.9543    0.4168 H   0  0  0  0  0  0  0  0  0  0  0  0
   -1.5519    3.0628    0.4945 H   0  0  0  0  0  0  0  0  0  0  0  0
    1.2101    2.3091   -1.6751 H   0  0  0  0  0  0  0  0  0  0  0  0
    0.0875    1.8977   -2.9858 H   0  0  0  0  0  0  0  0  0  0  0  0
  1  2  1  0
  1  4  1  0
  2  3  2  3
  3  5  1  0
  3 14  1  0
  6  7  1  0
  6 11  1  0
  6 12  1  0
  6 13  1  0
  7  8  1  0
  7 15  1  0
  8  9  1  0
  9 10  1  0
  9 16  1  0
  9 17  1  0
 10 11  1  0
 11 18  1  0
 11 19  1  0
M  RAD  1   7   2
M  END
>  <reaction>  (17) 
rmg_rxn_15423

>  <mol_properties>  (17) 
{"1": {"label": "*4", "atom_type": "N3d"}, "2": {"label": "*3", "atom_type": "Cd"}, "6": {"label": "*1", "atom_type": "Cs"}, "7": {"label": "*0", "atom_type": "O2s"}, "13": {"label": "*2", "atom_type": "H0"}}

>  <type>  (17) 
unop_13

>  <geom_source>  (17) 
Heuristics

$$$$

     RDKit          3D

 19 18  0  0  0  0  0  0  0  0999 V2000
    0.0338   -3.3029    2.6425 O   0  0  0  0  0  0  0  0  0  0  0  0
   -0.4161   -2.2362    1.8897 N   0  0  0  0  0  0  0  0  0  0  0  0
    0.1662   -2.1685    0.7717 C   0  0  0  0  0  0  0  0  0  0  0  0
   -0.4805   -3.2378    3.4495 H   0  0  0  0  0  0  0  0  0  0  0  0
    0.9290   -2.8804    0.4636 H   0  0  0  0  0  0  0  0  0  0  0  0
    0.5464    0.2175   -1.7246 C   0  0  0  0  0  0  0  0  0  0  0  0
    0.5464    0.2175   -0.2026 C   0  0  0  0  0  3  0  0  0  0  0  0
   -0.5019    1.0301    0.2895 O   0  0  0  0  0  0  0  0  0  0  0  0
   -0.4110    2.3296   -0.2098 C   0  0  0  0  0  0  0  0  0  0  0  0
   -0.5019    2.3858   -1.6009 O   0  0  0  0  0  0  0  0  0  0  0  0
    0.5464    1.6591   -2.2127 C   0  0  0  0  0  0  0  0  0  0  0  0
    1.4204   -0.3150   -2.1065 H   0  0  0  0  0  0  0  0  0  0  0  0
   -0.3502   -0.2887   -2.0876 H   0  0  0  0  0  0  0  0  0  0  0  0
    0.3556   -0.9795    0.2862 H   0  0  0  0  0  0  0  0  0  0  0  0
    1.5100    0.5934    0.1741 H   0  0  0  0  0  0  0  0  0  0  0  0
    0.5443    2.7817    0.1144 H   0  0  0  0  0  0  0  0  0  0  0  0
   -1.2521    2.8901    0.1922 H   0  0  0  0  0  0  0  0  0  0  0  0
    1.5100    2.1365   -1.9774 H   0  0  0  0  0  0  0  0  0  0  0  0
    0.3874    1.7250   -3.2882 H   0  0  0  0  0  0  0  0  0  0  0  0
  1  2  1  0
  1  4  1  0
  2  3  2  3
  3  5  1  0
  3 14  1  0
  6  7  1  0
  6 11  1  0
  6 12  1  0
  6 13  1  0
  7  8  1  0
  7 15  1  0
  8  9  1  0
  9 10  1  0
  9 16  1  0
  9 17  1  0
 10 11  1  0
 11 18  1  0
 11 19  1  0
M  RAD  1   7   2
M  END
>  <reaction>  (18) 
rmg_rxn_15423

>  <mol_properties>  (18) 
{"1": {"label": "*4", "atom_type": "N3d"}, "2": {"label": "*3", "atom_type": "Cd"}, "6": {"label": "*1", "atom_type": "Cs"}, "7": {"label": "*0", "atom_type": "O2s"}, "13": {"label": "*2", "atom_type": "H0"}}

>  <type>  (18) 
unop_14

>  <geom_source>  (18) 
Heuristics

$$$$

     RDKit          3D

 19 18  0  0  0  0  0  0  0  0999 V2000
   -0.1930   -4.0983    1.0317 O   0  0  0  0  0  0  0  0  0  0  0  0
    0.0013   -2.8789    0.4134 N   0  0  0  0  0  0  0  0  0  0  0  0
    0.1502   -1.9444    1.2489 C   0  0  0  0  0  0  0  0  0  0  0  0
   -0.2900   -4.7069    0.2967 H   0  0  0  0  0  0  0  0  0  0  0  0
    0.1240   -2.1090    2.3240 H   0  0  0  0  0  0  0  0  0  0  0  0
    0.5304    0.4416   -1.2475 C   0  0  0  0  0  0  0  0  0  0  0  0
    0.5304    0.4416    0.2746 C   0  0  0  0  0  3  0  0  0  0  0  0
   -0.5179    1.2542    0.7667 O   0  0  0  0  0  0  0  0  0  0  0  0
   -0.4270    2.5538    0.2674 C   0  0  0  0  0  0  0  0  0  0  0  0
   -0.5179    2.6100   -1.1237 O   0  0  0  0  0  0  0  0  0  0  0  0
    0.5304    1.8832   -1.7356 C   0  0  0  0  0  0  0  0  0  0  0  0
    1.4044   -0.0909   -1.6293 H   0  0  0  0  0  0  0  0  0  0  0  0
   -0.3662   -0.0646   -1.6105 H   0  0  0  0  0  0  0  0  0  0  0  0
    0.3397   -0.7554    0.7634 H   0  0  0  0  0  0  0  0  0  0  0  0
    1.4940    0.8176    0.6513 H   0  0  0  0  0  0  0  0  0  0  0  0
    0.5284    3.0058    0.5916 H   0  0  0  0  0  0  0  0  0  0  0  0
   -1.2680    3.1143    0.6693 H   0  0  0  0  0  0  0  0  0  0  0  0
    1.4940    2.3606   -1.5003 H   0  0  0  0  0  0  0  0  0  0  0  0
    0.3715    1.9492   -2.8110 H   0  0  0  0  0  0  0  0  0  0  0  0
  1  2  1  0
  1  4  1  0
  2  3  2  3
  3  5  1  0
  3 14  1  0
  6  7  1  0
  6 11  1  0
  6 12  1  0
  6 13  1  0
  7  8  1  0
  7 15  1  0
  8  9  1  0
  9 10  1  0
  9 16  1  0
  9 17  1  0
 10 11  1  0
 11 18  1  0
 11 19  1  0
M  RAD  1   7   2
M  END
>  <reaction>  (19) 
rmg_rxn_15423

>  <mol_properties>  (19) 
{"1": {"label": "*4", "atom_type": "N3d"}, "2": {"label": "*3", "atom_type": "Cd"}, "6": {"label": "*1", "atom_type": "Cs"}, "7": {"label": "*0", "atom_type": "O2s"}, "13": {"label": "*2", "atom_type": "H0"}}

>  <type>  (19) 
unop_15

>  <geom_source>  (19) 
Heuristics

$$$$

     RDKit          3D

 19 18  0  0  0  0  0  0  0  0999 V2000
   -2.6311   -0.9394   -0.3019 O   0  0  0  0  0  0  0  0  0  0  0  0
   -1.2972    0.7425   -1.2113 O   0  0  0  0  0  0  0  0  0  0  0  0
    4.3747    0.2181   -0.2541 O   0  0  0  0  0  0  0  0  0  0  0  0
    3.0553    0.3134   -0.6300 N   0  0  0  0  0  0  0  0  0  0  0  0
   -0.2709   -0.9050    0.2386 C   0  0  0  0  0  0  0  0  0  0  0  0
   -1.6855   -1.2531    0.7007 C   0  0  0  0  0  0  0  0  0  0  0  0
   -2.5446    0.4388   -0.6153 C   0  0  0  0  0  0  0  0  0  0  0  0
   -0.2685    0.5349   -0.2659 C   0  0  0  0  0  3  0  0  0  0  0  0
    2.2409    1.0757    0.0217 C   0  0  0  0  0  0  0  0  0  0  0  0
    0.4489   -1.0179    1.0770 H   0  0  0  0  0  0  0  0  0  0  0  0
    0.0292   -1.5818   -0.5899 H   0  0  0  0  0  0  0  0  0  0  0  0
   -1.9286   -0.7222    1.6495 H   0  0  0  0  0  0  0  0  0  0  0  0
   -1.7366   -2.3423    0.9103 H   0  0  0  0  0  0  0  0  0  0  0  0
   -2.7450    1.0801    0.2762 H   0  0  0  0  0  0  0  0  0  0  0  0
   -3.3412    0.6728   -1.3510 H   0  0  0  0  0  0  0  0  0  0  0  0
   -0.3384    1.2641    0.5730 H   0  0  0  0  0  0  0  0  0  0  0  0
    2.5848    1.6503    0.8727 H   0  0  0  0  0  0  0  0  0  0  0  0
    1.0478    1.1524   -0.3301 H   0  0  0  0  0  0  0  0  0  0  0  0
    5.0060   -0.3815   -0.7702 H   0  0  0  0  0  0  0  0  0  0  0  0
  1  6  1  0
  1  7  1  0
  2  8  1  0
  2  7  1  0
  3  4  1  0
  3 19  1  0
  4  9  2  3
  5  8  1  0
  5  6  1  0
  5 10  1  0
  5 11  1  0
  6 12  1  0
  6 13  1  0
  7 14  1  0
  7 15  1  0
  8 16  1  0
  9 17  1  0
  9 18  1  0
M  RAD  1   8   2
M  END
>  <reaction>  (20) 
rmg_rxn_15423

>  <mol_properties>  (20) 
{"1": {"label": "*4", "atom_type": "N3d"}, "2": {"label": "*3", "atom_type": "Cd"}, "6": {"label": "*1", "atom_type": "Cs"}, "7": {"label": "*0", "atom_type": "O2s"}, "13": {"label": "*2", "atom_type": "H0"}}

>  <type>  (20) 
unop_16

>  <geom_source>  (20) 
AutoTST

$$$$

     RDKit          3D

 19 18  0  0  0  0  0  0  0  0999 V2000
    0.5110   -4.0698    1.2478 O   0  0  0  0  0  0  0  0  0  0  0  0
    0.3928   -2.9123    0.5039 N   0  0  0  0  0  0  0  0  0  0  0  0
   -0.0246   -1.9449    1.1992 C   0  0  0  0  0  0  0  0  0  0  0  0
    0.8305   -4.7116    0.6106 H   0  0  0  0  0  0  0  0  0  0  0  0
   -0.2561   -2.0403    2.2579 H   0  0  0  0  0  0  0  0  0  0  0  0
    0.3556    0.4411   -1.2972 C   0  0  0  0  0  0  0  0  0  0  0  0
    0.3556    0.4411    0.2248 C   0  0  0  0  0  3  0  0  0  0  0  0
   -0.6927    1.2537    0.7169 O   0  0  0  0  0  0  0  0  0  0  0  0
   -0.6018    2.5532    0.2176 C   0  0  0  0  0  0  0  0  0  0  0  0
   -0.6927    2.6094   -1.1734 O   0  0  0  0  0  0  0  0  0  0  0  0
    0.3556    1.8827   -1.7853 C   0  0  0  0  0  0  0  0  0  0  0  0
    1.2296   -0.0914   -1.6791 H   0  0  0  0  0  0  0  0  0  0  0  0
   -0.5410   -0.0651   -1.6602 H   0  0  0  0  0  0  0  0  0  0  0  0
    0.1649   -0.7559    0.7137 H   0  0  0  0  0  0  0  0  0  0  0  0
    1.3192    0.8170    0.6016 H   0  0  0  0  0  0  0  0  0  0  0  0
    0.3536    3.0053    0.5418 H   0  0  0  0  0  0  0  0  0  0  0  0
   -1.4428    3.1138    0.6196 H   0  0  0  0  0  0  0  0  0  0  0  0
    1.3192    2.3601   -1.5500 H   0  0  0  0  0  0  0  0  0  0  0  0
    0.1967    1.9486   -2.8607 H   0  0  0  0  0  0  0  0  0  0  0  0
  1  2  1  0
  1  4  1  0
  2  3  2  3
  3  5  1  0
  3 14  1  0
  6  7  1  0
  6 11  1  0
  6 12  1  0
  6 13  1  0
  7  8  1  0
  7 15  1  0
  8  9  1  0
  9 10  1  0
  9 16  1  0
  9 17  1  0
 10 11  1  0
 11 18  1  0
 11 19  1  0
M  RAD  1   7   2
M  END
>  <reaction>  (21) 
rmg_rxn_15423

>  <mol_properties>  (21) 
{"1": {"label": "*4", "atom_type": "N3d"}, "2": {"label": "*3", "atom_type": "Cd"}, "6": {"label": "*1", "atom_type": "Cs"}, "7": {"label": "*0", "atom_type": "O2s"}, "13": {"label": "*2", "atom_type": "H0"}}

>  <type>  (21) 
unop_17

>  <geom_source>  (21) 
gaussian_log

$$$$
