
     RDKit          3D

 15 14  0  0  0  0  0  0  0  0999 V2000
   -2.0554    0.0723   -0.4910 C   0  0  0  0  0  0  0  0  0  0  0  0
   -0.7461   -0.6266   -0.8178 C   0  0  0  0  0  0  0  0  0  0  0  0
    0.3249    0.2591   -1.9782 S   0  0  0  0  0  0  0  0  0  0  0  0
   -0.7172    0.3642   -3.4551 C   0  0  0  0  0  0  0  0  0  0  0  0
   -1.1375   -0.9737   -4.0409 C   0  0  0  0  0  0  0  0  0  0  0  0
   -2.7005    0.1427   -1.3684 H   0  0  0  0  0  0  0  0  0  0  0  0
   -2.6016   -0.4848    0.2733 H   0  0  0  0  0  0  0  0  0  0  0  0
   -1.8758    1.0825   -0.1213 H   0  0  0  0  0  0  0  0  0  0  0  0
   -0.1320   -0.7246    0.0789 H   0  0  0  0  0  0  0  0  0  0  0  0
   -0.9254   -1.6374   -1.1879 H   0  0  0  0  0  0  0  0  0  0  0  0
   -1.5873    0.9874   -3.2422 H   0  0  0  0  0  0  0  0  0  0  0  0
   -0.1021    0.9161   -4.1678 H   0  0  0  0  0  0  0  0  0  0  0  0
   -1.7876   -1.5224   -3.3574 H   0  0  0  0  0  0  0  0  0  0  0  0
   -0.2676   -1.5962   -4.2534 H   0  0  0  0  0  0  0  0  0  0  0  0
   -1.6916   -0.8229   -4.9700 H   0  0  0  0  0  0  0  0  0  0  0  0
  1  2  1  0
  1  6  1  0
  1  7  1  0
  1  8  1  0
  2  3  1  0
  2  9  1  0
  2 10  1  0
  3  4  1  0
  4  5  1  0
  4 11  1  0
  4 12  1  0
  5 13  1  0
  5 14  1  0
  5 15  1  0
M  END
>  <reaction>  (1) 
rmg_rxn_218

>  <mol_properties>  (1) 
{"1": {"label": "donator", "atom_type": "Cs"}, "8": {"label": "d_hydrogen", "atom_type": "H0"}}

>  <type>  (1) 
r1h

$$$$

     RDKit          3D

 17 16  0  0  0  0  0  0  0  0999 V2000
    2.3993   -0.7259   -0.8796 C   0  0  0  0  0  0  0  0  0  0  0  0
    1.8173   -0.7170    0.4851 C   0  0  0  0  0  3  0  0  0  0  0  0
    2.6779   -0.5182    1.6852 C   0  0  0  0  0  0  0  0  0  0  0  0
    3.8710   -1.2723    1.6674 O   0  0  0  0  0  0  0  0  0  0  0  0
    3.6589   -2.6587    1.8015 C   0  0  0  0  0  0  0  0  0  0  0  0
    4.9969   -3.3586    1.7556 C   0  0  0  0  0  0  0  0  0  0  0  0
    3.3755   -1.2152   -0.8894 H   0  0  0  0  0  0  0  0  0  0  0  0
    1.7457   -1.2284   -1.5943 H   0  0  0  0  0  0  0  0  0  0  0  0
    2.5578    0.2962   -1.2545 H   0  0  0  0  0  0  0  0  0  0  0  0
    0.7445   -0.6275    0.6059 H   0  0  0  0  0  0  0  0  0  0  0  0
    2.1057   -0.7316    2.5992 H   0  0  0  0  0  0  0  0  0  0  0  0
    3.0103    0.5272    1.7516 H   0  0  0  0  0  0  0  0  0  0  0  0
    3.0050   -3.0235    0.9977 H   0  0  0  0  0  0  0  0  0  0  0  0
    3.1469   -2.8645    2.7531 H   0  0  0  0  0  0  0  0  0  0  0  0
    5.6430   -3.0039    2.5594 H   0  0  0  0  0  0  0  0  0  0  0  0
    4.8641   -4.4360    1.8660 H   0  0  0  0  0  0  0  0  0  0  0  0
    5.4957   -3.1672    0.8046 H   0  0  0  0  0  0  0  0  0  0  0  0
  1  2  1  0
  1  7  1  0
  1  8  1  0
  1  9  1  0
  2  3  1  0
  2 10  1  0
  3  4  1  0
  3 11  1  0
  3 12  1  0
  4  5  1  0
  5  6  1  0
  5 13  1  0
  5 14  1  0
  6 15  1  0
  6 16  1  0
  6 17  1  0
M  RAD  1   2   2
M  END
>  <reaction>  (2) 
rmg_rxn_218

>  <mol_properties>  (2) 
{"1": {"label": "acceptor", "atom_type": "Cs"}}

>  <type>  (2) 
r2

$$$$

     RDKit          3D

 18 17  0  0  0  0  0  0  0  0999 V2000
    2.2026   -0.7213   -0.2612 C   0  0  0  0  0  0  0  0  0  0  0  0
    1.5384    0.2638    0.6915 C   0  0  0  0  0  0  0  0  0  0  0  0
    2.2584    1.5946    0.7694 C   0  0  0  0  0  0  0  0  0  0  0  0
    2.2212    2.2185   -0.4893 O   0  0  0  0  0  0  0  0  0  0  0  0
    2.8988    3.4488   -0.5204 C   0  0  0  0  0  0  0  0  0  0  0  0
    2.7981    4.0296   -1.9118 C   0  0  0  0  0  0  0  0  0  0  0  0
    3.2294   -0.9309    0.0486 H   0  0  0  0  0  0  0  0  0  0  0  0
    2.2338   -0.3181   -1.2734 H   0  0  0  0  0  0  0  0  0  0  0  0
    1.6610   -1.6680   -0.2875 H   0  0  0  0  0  0  0  0  0  0  0  0
    1.4990   -0.1566    1.7002 H   0  0  0  0  0  0  0  0  0  0  0  0
    0.5055    0.4455    0.3835 H   0  0  0  0  0  0  0  0  0  0  0  0
    3.3038    1.4410    1.0808 H   0  0  0  0  0  0  0  0  0  0  0  0
    1.7844    2.2410    1.5226 H   0  0  0  0  0  0  0  0  0  0  0  0
    2.4596    4.1376    0.2164 H   0  0  0  0  0  0  0  0  0  0  0  0
    3.9524    3.3035   -0.2397 H   0  0  0  0  0  0  0  0  0  0  0  0
    1.7543    4.1869   -2.1856 H   0  0  0  0  0  0  0  0  0  0  0  0
    3.2472    3.3545   -2.6411 H   0  0  0  0  0  0  0  0  0  0  0  0
    3.3178    4.9878   -1.9600 H   0  0  0  0  0  0  0  0  0  0  0  0
  1  2  1  0
  1  7  1  0
  1  8  1  0
  1  9  1  0
  2  3  1  0
  2 10  1  0
  2 11  1  0
  3  4  1  0
  3 12  1  0
  3 13  1  0
  4  5  1  0
  5  6  1  0
  5 14  1  0
  5 15  1  0
  6 16  1  0
  6 17  1  0
  6 18  1  0
M  END
>  <reaction>  (3) 
rmg_rxn_218

>  <mol_properties>  (3) 
{"0": {"label": "a_hydrogen", "atom_type": "H0"}, "2": {"label": "acceptor", "atom_type": "Cs"}}

>  <type>  (3) 
r2h

$$$$

     RDKit          3D

 32 30  0  0  0  0  0  0  0  0999 V2000
    0.1299    1.8290   -2.7821 C   0  0  0  0  0  0  0  0  0  0  0  0
    0.9739    1.2957   -1.6487 C   0  0  0  0  0  0  0  0  0  0  0  0
    1.8246    2.5769   -0.7606 S   0  0  0  0  0  0  0  0  0  0  0  0
    3.1317    1.6346    0.0602 C   0  0  0  0  0  0  0  0  0  0  0  0
    2.6511    0.6709    1.1315 C   0  0  0  0  0  0  0  0  0  0  0  0
    0.7410    2.2908   -3.5610 H   0  0  0  0  0  0  0  0  0  0  0  0
   -0.4449    1.0178   -3.2327 H   0  0  0  0  0  0  0  0  0  0  0  0
   -0.5789    2.5779   -2.4219 H   0  0  0  0  0  0  0  0  0  0  0  0
    0.1074    0.6931   -0.8685 H   0  0  0  0  0  0  0  0  0  0  0  0
    1.6619    0.5061   -1.9566 H   0  0  0  0  0  0  0  0  0  0  0  0
    3.7066    1.1116   -0.7071 H   0  0  0  0  0  0  0  0  0  0  0  0
    3.7870    2.3929    0.4915 H   0  0  0  0  0  0  0  0  0  0  0  0
    1.9874   -0.0851    0.7102 H   0  0  0  0  0  0  0  0  0  0  0  0
    2.1059    1.2000    1.9134 H   0  0  0  0  0  0  0  0  0  0  0  0
    3.5001    0.1566    1.5876 H   0  0  0  0  0  0  0  0  0  0  0  0
   -1.0725    0.7790    1.1359 C   0  0  0  0  0  0  0  0  0  0  0  0
   -0.9706    0.1070   -0.2038 C   0  0  0  0  0  3  0  0  0  0  0  0
   -0.6645   -1.3587   -0.2067 C   0  0  0  0  0  0  0  0  0  0  0  0
   -1.7499   -2.0786    0.3387 O   0  0  0  0  0  0  0  0  0  0  0  0
   -1.5223   -3.4649    0.3887 C   0  0  0  0  0  0  0  0  0  0  0  0
   -2.7347   -4.1396    0.9874 C   0  0  0  0  0  0  0  0  0  0  0  0
   -0.2266    0.5152    1.7740 H   0  0  0  0  0  0  0  0  0  0  0  0
   -1.0886    1.8657    1.0335 H   0  0  0  0  0  0  0  0  0  0  0  0
   -1.9853    0.4748    1.6578 H   0  0  0  0  0  0  0  0  0  0  0  0
   -1.7851    0.3615   -0.8826 H   0  0  0  0  0  0  0  0  0  0  0  0
    0.2416   -1.5588    0.3873 H   0  0  0  0  0  0  0  0  0  0  0  0
   -0.4668   -1.7075   -1.2317 H   0  0  0  0  0  0  0  0  0  0  0  0
   -0.6273   -3.6765    0.9925 H   0  0  0  0  0  0  0  0  0  0  0  0
   -1.3283   -3.8502   -0.6234 H   0  0  0  0  0  0  0  0  0  0  0  0
   -3.6198   -3.9422    0.3817 H   0  0  0  0  0  0  0  0  0  0  0  0
   -2.5813   -5.2188    1.0369 H   0  0  0  0  0  0  0  0  0  0  0  0
   -2.9187   -3.7687    1.9963 H   0  0  0  0  0  0  0  0  0  0  0  0
  1  2  1  0
  1  6  1  0
  1  7  1  0
  1  8  1  0
  2  3  1  0
  2  9  1  0
  2 10  1  0
  3  4  1  0
  4  5  1  0
  4 11  1  0
  4 12  1  0
  5 13  1  0
  5 14  1  0
  5 15  1  0
 16 17  1  0
 16 22  1  0
 16 23  1  0
 16 24  1  0
 17 18  1  0
 17 25  1  0
 18 19  1  0
 18 26  1  0
 18 27  1  0
 19 20  1  0
 20 21  1  0
 20 28  1  0
 20 29  1  0
 21 30  1  0
 21 31  1  0
 21 32  1  0
M  RAD  1  17   2
M  END
>  <reaction>  (4) 
rmg_rxn_218

>  <mol_properties>  (4) 
{"1": {"label": "*1", "atom_type": "Cs"}, "2": {"label": "*0", "atom_type": "S2s"}, "8": {"label": "*2", "atom_type": "H0"}, "16": {"label": "*3", "atom_type": "Cs"}, "17": {"label": "*4", "atom_type": "Cs"}}

>  <type>  (4) 
ts

$$$$

     RDKit          3D

 32 30  0  0  0  0  0  0  0  0999 V2000
    1.6834    0.0275   -2.2578 C   0  0  0  0  0  0  0  0  0  0  0  0
    1.6834    0.0275   -0.7381 C   0  0  0  0  0  0  0  0  0  0  0  0
    1.6834    1.6686    0.0268 S   0  0  0  0  0  0  0  0  0  0  0  0
    3.2240    2.3825   -0.6018 C   0  0  0  0  0  0  0  0  0  0  0  0
    4.4849    1.6237   -0.2226 C   0  0  0  0  0  0  0  0  0  0  0  0
    2.6064    0.4511   -2.6572 H   0  0  0  0  0  0  0  0  0  0  0  0
    1.6008   -0.9937   -2.6365 H   0  0  0  0  0  0  0  0  0  0  0  0
    0.8477    0.6100   -2.6472 H   0  0  0  0  0  0  0  0  0  0  0  0
    0.5899   -0.5291   -0.2805 H   0  0  0  0  0  0  0  0  0  0  0  0
    2.5196   -0.5551   -0.3480 H   0  0  0  0  0  0  0  0  0  0  0  0
    3.1528    2.5047   -1.6838 H   0  0  0  0  0  0  0  0  0  0  0  0
    3.2390    3.3857   -0.1725 H   0  0  0  0  0  0  0  0  0  0  0  0
    4.5061    0.6318   -0.6773 H   0  0  0  0  0  0  0  0  0  0  0  0
    4.5556    1.5016    0.8588 H   0  0  0  0  0  0  0  0  0  0  0  0
    5.3696    2.1621   -0.5695 H   0  0  0  0  0  0  0  0  0  0  0  0
   -0.1590   -2.2999    1.0310 C   0  0  0  0  0  0  0  0  0  0  0  0
   -0.5058   -1.0869    0.1780 C   0  0  0  0  0  3  0  0  0  0  0  0
   -1.9359   -1.0997   -0.3219 C   0  0  0  0  0  0  0  0  0  0  0  0
   -2.8130   -1.0410    0.7746 O   0  0  0  0  0  0  0  0  0  0  0  0
   -4.1679   -1.0839    0.4058 C   0  0  0  0  0  0  0  0  0  0  0  0
   -5.0185   -1.0161    1.6530 C   0  0  0  0  0  0  0  0  0  0  0  0
   -0.2915   -3.2252    0.4647 H   0  0  0  0  0  0  0  0  0  0  0  0
    0.8779   -2.2595    1.3679 H   0  0  0  0  0  0  0  0  0  0  0  0
   -0.8015   -2.3502    1.9100 H   0  0  0  0  0  0  0  0  0  0  0  0
   -0.3458   -0.1686    0.7488 H   0  0  0  0  0  0  0  0  0  0  0  0
   -2.1246   -2.0156   -0.9041 H   0  0  0  0  0  0  0  0  0  0  0  0
   -2.1137   -0.2447   -0.9907 H   0  0  0  0  0  0  0  0  0  0  0  0
   -4.3754   -2.0095   -0.1513 H   0  0  0  0  0  0  0  0  0  0  0  0
   -4.4011   -0.2435   -0.2647 H   0  0  0  0  0  0  0  0  0  0  0  0
   -4.8234   -0.0923    2.1988 H   0  0  0  0  0  0  0  0  0  0  0  0
   -6.0772   -1.0474    1.3908 H   0  0  0  0  0  0  0  0  0  0  0  0
   -4.7992   -1.8575    2.3113 H   0  0  0  0  0  0  0  0  0  0  0  0
  1  2  1  0
  1  6  1  0
  1  7  1  0
  1  8  1  0
  2  3  1  0
  2  9  1  0
  2 10  1  0
  3  4  1  0
  4  5  1  0
  4 11  1  0
  4 12  1  0
  5 13  1  0
  5 14  1  0
  5 15  1  0
 16 17  1  0
 16 22  1  0
 16 23  1  0
 16 24  1  0
 17 18  1  0
 17 25  1  0
 18 19  1  0
 18 26  1  0
 18 27  1  0
 19 20  1  0
 20 21  1  0
 20 28  1  0
 20 29  1  0
 21 30  1  0
 21 31  1  0
 21 32  1  0
M  RAD  1  17   2
M  END
>  <reaction>  (5) 
rmg_rxn_218

>  <mol_properties>  (5) 
{"1": {"label": "*1", "atom_type": "Cs"}, "2": {"label": "*0", "atom_type": "S2s"}, "8": {"label": "*2", "atom_type": "H0"}, "16": {"label": "*3", "atom_type": "Cs"}, "17": {"label": "*4", "atom_type": "Cs"}}

>  <type>  (5) 
unop_1

>  <geom_source>  (5) 
Heuristics

$$$$

     RDKit          3D

 32 30  0  0  0  0  0  0  0  0999 V2000
    1.5990   -0.0803   -2.4959 C   0  0  0  0  0  0  0  0  0  0  0  0
    1.5990   -0.0803   -0.9762 C   0  0  0  0  0  0  0  0  0  0  0  0
    1.5990    1.5608   -0.2113 S   0  0  0  0  0  0  0  0  0  0  0  0
    3.1396    2.2747   -0.8399 C   0  0  0  0  0  0  0  0  0  0  0  0
    4.4005    1.5158   -0.4607 C   0  0  0  0  0  0  0  0  0  0  0  0
    2.5221    0.3433   -2.8953 H   0  0  0  0  0  0  0  0  0  0  0  0
    1.5165   -1.1015   -2.8746 H   0  0  0  0  0  0  0  0  0  0  0  0
    0.7633    0.5021   -2.8853 H   0  0  0  0  0  0  0  0  0  0  0  0
    0.5056   -0.6369   -0.5186 H   0  0  0  0  0  0  0  0  0  0  0  0
    2.4352   -0.6630   -0.5861 H   0  0  0  0  0  0  0  0  0  0  0  0
    3.0685    2.3969   -1.9219 H   0  0  0  0  0  0  0  0  0  0  0  0
    3.1547    3.2779   -0.4106 H   0  0  0  0  0  0  0  0  0  0  0  0
    4.4218    0.5240   -0.9154 H   0  0  0  0  0  0  0  0  0  0  0  0
    4.4712    1.3938    0.6207 H   0  0  0  0  0  0  0  0  0  0  0  0
    5.2853    2.0542   -0.8076 H   0  0  0  0  0  0  0  0  0  0  0  0
   -1.0890   -2.2509   -1.0373 C   0  0  0  0  0  0  0  0  0  0  0  0
   -0.5901   -1.1947   -0.0601 C   0  0  0  0  0  3  0  0  0  0  0  0
   -1.7051   -0.3566    0.5313 C   0  0  0  0  0  0  0  0  0  0  0  0
   -2.5579   -1.1811    1.2848 O   0  0  0  0  0  0  0  0  0  0  0  0
   -3.6464   -0.4916    1.8446 C   0  0  0  0  0  0  0  0  0  0  0  0
   -4.4944   -1.4663    2.6284 C   0  0  0  0  0  0  0  0  0  0  0  0
   -1.6194   -1.7886   -1.8735 H   0  0  0  0  0  0  0  0  0  0  0  0
   -0.2599   -2.8303   -1.4463 H   0  0  0  0  0  0  0  0  0  0  0  0
   -1.7756   -2.9392   -0.5446 H   0  0  0  0  0  0  0  0  0  0  0  0
   -0.0414   -1.6693    0.7575 H   0  0  0  0  0  0  0  0  0  0  0  0
   -2.2744    0.1363   -0.2726 H   0  0  0  0  0  0  0  0  0  0  0  0
   -1.2885    0.4358    1.1702 H   0  0  0  0  0  0  0  0  0  0  0  0
   -4.2402   -0.0192    1.0482 H   0  0  0  0  0  0  0  0  0  0  0  0
   -3.2832    0.3147    2.4990 H   0  0  0  0  0  0  0  0  0  0  0  0
   -3.9102   -1.9249    3.4269 H   0  0  0  0  0  0  0  0  0  0  0  0
   -5.3475   -0.9521    3.0738 H   0  0  0  0  0  0  0  0  0  0  0  0
   -4.8678   -2.2575    1.9772 H   0  0  0  0  0  0  0  0  0  0  0  0
  1  2  1  0
  1  6  1  0
  1  7  1  0
  1  8  1  0
  2  3  1  0
  2  9  1  0
  2 10  1  0
  3  4  1  0
  4  5  1  0
  4 11  1  0
  4 12  1  0
  5 13  1  0
  5 14  1  0
  5 15  1  0
 16 17  1  0
 16 22  1  0
 16 23  1  0
 16 24  1  0
 17 18  1  0
 17 25  1  0
 18 19  1  0
 18 26  1  0
 18 27  1  0
 19 20  1  0
 20 21  1  0
 20 28  1  0
 20 29  1  0
 21 30  1  0
 21 31  1  0
 21 32  1  0
M  RAD  1  17   2
M  END
>  <reaction>  (6) 
rmg_rxn_218

>  <mol_properties>  (6) 
{"1": {"label": "*1", "atom_type": "Cs"}, "2": {"label": "*0", "atom_type": "S2s"}, "8": {"label": "*2", "atom_type": "H0"}, "16": {"label": "*3", "atom_type": "Cs"}, "17": {"label": "*4", "atom_type": "Cs"}}

>  <type>  (6) 
unop_2

>  <geom_source>  (6) 
Heuristics

$$$$

     RDKit          3D

 32 30  0  0  0  0  0  0  0  0999 V2000
    1.6420    0.3064   -2.0131 C   0  0  0  0  0  0  0  0  0  0  0  0
    1.6420    0.3064   -0.4934 C   0  0  0  0  0  0  0  0  0  0  0  0
    1.6420    1.9475    0.2715 S   0  0  0  0  0  0  0  0  0  0  0  0
    3.1826    2.6614   -0.3571 C   0  0  0  0  0  0  0  0  0  0  0  0
    4.4435    1.9025    0.0221 C   0  0  0  0  0  0  0  0  0  0  0  0
    2.5651    0.7299   -2.4126 H   0  0  0  0  0  0  0  0  0  0  0  0
    1.5595   -0.7148   -2.3918 H   0  0  0  0  0  0  0  0  0  0  0  0
    0.8063    0.8888   -2.4026 H   0  0  0  0  0  0  0  0  0  0  0  0
    0.5486   -0.2503   -0.0359 H   0  0  0  0  0  0  0  0  0  0  0  0
    2.4782   -0.2763   -0.1034 H   0  0  0  0  0  0  0  0  0  0  0  0
    3.1115    2.7836   -1.4392 H   0  0  0  0  0  0  0  0  0  0  0  0
    3.1977    3.6646    0.0722 H   0  0  0  0  0  0  0  0  0  0  0  0
    4.4648    0.9107   -0.4326 H   0  0  0  0  0  0  0  0  0  0  0  0
    4.5142    1.7805    1.1035 H   0  0  0  0  0  0  0  0  0  0  0  0
    5.3283    2.4409   -0.3248 H   0  0  0  0  0  0  0  0  0  0  0  0
   -0.2748   -1.4717    1.7660 C   0  0  0  0  0  0  0  0  0  0  0  0
   -0.5472   -0.8080    0.4226 C   0  0  0  0  0  3  0  0  0  0  0  0
   -1.6238   -1.5090   -0.3804 C   0  0  0  0  0  0  0  0  0  0  0  0
   -2.8423   -1.4421    0.3164 O   0  0  0  0  0  0  0  0  0  0  0  0
   -3.8954   -2.1004   -0.3404 C   0  0  0  0  0  0  0  0  0  0  0  0
   -5.1508   -1.9686    0.4903 C   0  0  0  0  0  0  0  0  0  0  0  0
    0.0498   -2.5064    1.6308 H   0  0  0  0  0  0  0  0  0  0  0  0
    0.5081   -0.9442    2.3130 H   0  0  0  0  0  0  0  0  0  0  0  0
   -1.1742   -1.4805    2.3817 H   0  0  0  0  0  0  0  0  0  0  0  0
   -0.8474    0.2323    0.5720 H   0  0  0  0  0  0  0  0  0  0  0  0
   -1.3452   -2.5614   -0.5482 H   0  0  0  0  0  0  0  0  0  0  0  0
   -1.7303   -1.0375   -1.3684 H   0  0  0  0  0  0  0  0  0  0  0  0
   -3.6410   -3.1605   -0.4873 H   0  0  0  0  0  0  0  0  0  0  0  0
   -4.0470   -1.6628   -1.3383 H   0  0  0  0  0  0  0  0  0  0  0  0
   -5.4115   -0.9183    0.6248 H   0  0  0  0  0  0  0  0  0  0  0  0
   -5.9842   -2.4729   -0.0014 H   0  0  0  0  0  0  0  0  0  0  0  0
   -5.0066   -2.4161    1.4743 H   0  0  0  0  0  0  0  0  0  0  0  0
  1  2  1  0
  1  6  1  0
  1  7  1  0
  1  8  1  0
  2  3  1  0
  2  9  1  0
  2 10  1  0
  3  4  1  0
  4  5  1  0
  4 11  1  0
  4 12  1  0
  5 13  1  0
  5 14  1  0
  5 15  1  0
 16 17  1  0
 16 22  1  0
 16 23  1  0
 16 24  1  0
 17 18  1  0
 17 25  1  0
 18 19  1  0
 18 26  1  0
 18 27  1  0
 19 20  1  0
 20 21  1  0
 20 28  1  0
 20 29  1  0
 21 30  1  0
 21 31  1  0
 21 32  1  0
M  RAD  1  17   2
M  END
>  <reaction>  (7) 
rmg_rxn_218

>  <mol_properties>  (7) 
{"1": {"label": "*1", "atom_type": "Cs"}, "2": {"label": "*0", "atom_type": "S2s"}, "8": {"label": "*2", "atom_type": "H0"}, "16": {"label": "*3", "atom_type": "Cs"}, "17": {"label": "*4", "atom_type": "Cs"}}

>  <type>  (7) 
unop_3

>  <geom_source>  (7) 
Heuristics

$$$$

     RDKit          3D

 32 30  0  0  0  0  0  0  0  0999 V2000
    0.9030   -0.3286   -2.9774 C   0  0  0  0  0  0  0  0  0  0  0  0
    0.9030   -0.3286   -1.4576 C   0  0  0  0  0  0  0  0  0  0  0  0
    0.9030    1.3125   -0.6928 S   0  0  0  0  0  0  0  0  0  0  0  0
    2.4436    2.0265   -1.3213 C   0  0  0  0  0  0  0  0  0  0  0  0
    3.7045    1.2676   -0.9421 C   0  0  0  0  0  0  0  0  0  0  0  0
    1.8261    0.0950   -3.3768 H   0  0  0  0  0  0  0  0  0  0  0  0
    0.8205   -1.3497   -3.3560 H   0  0  0  0  0  0  0  0  0  0  0  0
    0.0673    0.2539   -3.3668 H   0  0  0  0  0  0  0  0  0  0  0  0
   -0.1904   -0.8852   -1.0001 H   0  0  0  0  0  0  0  0  0  0  0  0
    1.7392   -0.9112   -1.0676 H   0  0  0  0  0  0  0  0  0  0  0  0
    2.3725    2.1487   -2.4034 H   0  0  0  0  0  0  0  0  0  0  0  0
    2.4587    3.0296   -0.8921 H   0  0  0  0  0  0  0  0  0  0  0  0
    3.7258    0.2758   -1.3968 H   0  0  0  0  0  0  0  0  0  0  0  0
    3.7752    1.1456    0.1393 H   0  0  0  0  0  0  0  0  0  0  0  0
    4.5893    1.8060   -1.2891 H   0  0  0  0  0  0  0  0  0  0  0  0
   -2.5081   -0.6755   -1.0284 C   0  0  0  0  0  0  0  0  0  0  0  0
   -1.2861   -1.4430   -0.5416 C   0  0  0  0  0  3  0  0  0  0  0  0
   -0.7368   -0.9186    0.7693 C   0  0  0  0  0  0  0  0  0  0  0  0
   -1.7011   -1.0846    1.7780 O   0  0  0  0  0  0  0  0  0  0  0  0
   -1.2896   -0.5913    3.0274 C   0  0  0  0  0  0  0  0  0  0  0  0
   -2.3946   -0.8183    4.0329 C   0  0  0  0  0  0  0  0  0  0  0  0
   -2.2699    0.3801   -1.1810 H   0  0  0  0  0  0  0  0  0  0  0  0
   -2.8722   -1.0766   -1.9754 H   0  0  0  0  0  0  0  0  0  0  0  0
   -3.3166   -0.7345   -0.2997 H   0  0  0  0  0  0  0  0  0  0  0  0
   -1.5325   -2.5005   -0.4165 H   0  0  0  0  0  0  0  0  0  0  0  0
   -0.4772    0.1474    0.6709 H   0  0  0  0  0  0  0  0  0  0  0  0
    0.1844   -1.4558    1.0388 H   0  0  0  0  0  0  0  0  0  0  0  0
   -1.0558    0.4807    2.9484 H   0  0  0  0  0  0  0  0  0  0  0  0
   -0.3684   -1.1007    3.3470 H   0  0  0  0  0  0  0  0  0  0  0  0
   -2.6176   -1.8820    4.1221 H   0  0  0  0  0  0  0  0  0  0  0  0
   -2.0968   -0.4427    5.0131 H   0  0  0  0  0  0  0  0  0  0  0  0
   -3.3038   -0.3008    3.7249 H   0  0  0  0  0  0  0  0  0  0  0  0
  1  2  1  0
  1  6  1  0
  1  7  1  0
  1  8  1  0
  2  3  1  0
  2  9  1  0
  2 10  1  0
  3  4  1  0
  4  5  1  0
  4 11  1  0
  4 12  1  0
  5 13  1  0
  5 14  1  0
  5 15  1  0
 16 17  1  0
 16 22  1  0
 16 23  1  0
 16 24  1  0
 17 18  1  0
 17 25  1  0
 18 19  1  0
 18 26  1  0
 18 27  1  0
 19 20  1  0
 20 21  1  0
 20 28  1  0
 20 29  1  0
 21 30  1  0
 21 31  1  0
 21 32  1  0
M  RAD  1  17   2
M  END
>  <reaction>  (8) 
rmg_rxn_218

>  <mol_properties>  (8) 
{"1": {"label": "*1", "atom_type": "Cs"}, "2": {"label": "*0", "atom_type": "S2s"}, "8": {"label": "*2", "atom_type": "H0"}, "16": {"label": "*3", "atom_type": "Cs"}, "17": {"label": "*4", "atom_type": "Cs"}}

>  <type>  (8) 
unop_4

>  <geom_source>  (8) 
Heuristics

$$$$

     RDKit          3D

 32 30  0  0  0  0  0  0  0  0999 V2000
    1.1961    0.8103   -2.0162 C   0  0  0  0  0  0  0  0  0  0  0  0
    1.1961    0.8103   -0.4964 C   0  0  0  0  0  0  0  0  0  0  0  0
    1.1961    2.4514    0.2685 S   0  0  0  0  0  0  0  0  0  0  0  0
    2.7367    3.1653   -0.3601 C   0  0  0  0  0  0  0  0  0  0  0  0
    3.9976    2.4065    0.0191 C   0  0  0  0  0  0  0  0  0  0  0  0
    2.1191    1.2339   -2.4156 H   0  0  0  0  0  0  0  0  0  0  0  0
    1.1135   -0.2109   -2.3948 H   0  0  0  0  0  0  0  0  0  0  0  0
    0.3604    1.3928   -2.4056 H   0  0  0  0  0  0  0  0  0  0  0  0
    0.1026    0.2537   -0.0389 H   0  0  0  0  0  0  0  0  0  0  0  0
    2.0323    0.2277   -0.1064 H   0  0  0  0  0  0  0  0  0  0  0  0
    2.6655    3.2875   -1.4422 H   0  0  0  0  0  0  0  0  0  0  0  0
    2.7517    4.1685    0.0691 H   0  0  0  0  0  0  0  0  0  0  0  0
    4.0188    1.4146   -0.4356 H   0  0  0  0  0  0  0  0  0  0  0  0
    4.0683    2.2844    1.1005 H   0  0  0  0  0  0  0  0  0  0  0  0
    4.8823    2.9449   -0.3279 H   0  0  0  0  0  0  0  0  0  0  0  0
   -0.9854   -0.3002    1.9425 C   0  0  0  0  0  0  0  0  0  0  0  0
   -0.9931   -0.3041    0.4196 C   0  0  0  0  0  3  0  0  0  0  0  0
   -1.0901   -1.6955   -0.1718 C   0  0  0  0  0  0  0  0  0  0  0  0
   -2.3133   -2.2769    0.2034 O   0  0  0  0  0  0  0  0  0  0  0  0
   -2.4751   -3.5884   -0.2733 C   0  0  0  0  0  0  0  0  0  0  0  0
   -3.8149   -4.1157    0.1857 C   0  0  0  0  0  0  0  0  0  0  0  0
   -0.1381   -0.8719    2.3293 H   0  0  0  0  0  0  0  0  0  0  0  0
   -0.9093    0.7160    2.3322 H   0  0  0  0  0  0  0  0  0  0  0  0
   -1.8986   -0.7482    2.3343 H   0  0  0  0  0  0  0  0  0  0  0  0
   -1.8311    0.2906    0.0470 H   0  0  0  0  0  0  0  0  0  0  0  0
   -0.2542   -2.3174    0.1859 H   0  0  0  0  0  0  0  0  0  0  0  0
   -1.0173   -1.6496   -1.2684 H   0  0  0  0  0  0  0  0  0  0  0  0
   -1.6616   -4.2266    0.1021 H   0  0  0  0  0  0  0  0  0  0  0  0
   -2.4138   -3.5986   -1.3717 H   0  0  0  0  0  0  0  0  0  0  0  0
   -4.6228   -3.4915   -0.1976 H   0  0  0  0  0  0  0  0  0  0  0  0
   -3.9633   -5.1351   -0.1740 H   0  0  0  0  0  0  0  0  0  0  0  0
   -3.8708   -4.1206    1.2748 H   0  0  0  0  0  0  0  0  0  0  0  0
  1  2  1  0
  1  6  1  0
  1  7  1  0
  1  8  1  0
  2  3  1  0
  2  9  1  0
  2 10  1  0
  3  4  1  0
  4  5  1  0
  4 11  1  0
  4 12  1  0
  5 13  1  0
  5 14  1  0
  5 15  1  0
 16 17  1  0
 16 22  1  0
 16 23  1  0
 16 24  1  0
 17 18  1  0
 17 25  1  0
 18 19  1  0
 18 26  1  0
 18 27  1  0
 19 20  1  0
 20 21  1  0
 20 28  1  0
 20 29  1  0
 21 30  1  0
 21 31  1  0
 21 32  1  0
M  RAD  1  17   2
M  END
>  <reaction>  (9) 
rmg_rxn_218

>  <mol_properties>  (9) 
{"1": {"label": "*1", "atom_type": "Cs"}, "2": {"label": "*0", "atom_type": "S2s"}, "8": {"label": "*2", "atom_type": "H0"}, "16": {"label": "*3", "atom_type": "Cs"}, "17": {"label": "*4", "atom_type": "Cs"}}

>  <type>  (9) 
unop_5

>  <geom_source>  (9) 
Heuristics

$$$$

     RDKit          3D

 32 30  0  0  0  0  0  0  0  0999 V2000
    0.5827   -0.0021   -3.0205 C   0  0  0  0  0  0  0  0  0  0  0  0
    0.5827   -0.0021   -1.5008 C   0  0  0  0  0  0  0  0  0  0  0  0
    0.5827    1.6390   -0.7359 S   0  0  0  0  0  0  0  0  0  0  0  0
    2.1233    2.3529   -1.3645 C   0  0  0  0  0  0  0  0  0  0  0  0
    3.3842    1.5941   -0.9853 C   0  0  0  0  0  0  0  0  0  0  0  0
    1.5057    0.4215   -3.4199 H   0  0  0  0  0  0  0  0  0  0  0  0
    0.5001   -1.0233   -3.3992 H   0  0  0  0  0  0  0  0  0  0  0  0
   -0.2530    0.5804   -3.4099 H   0  0  0  0  0  0  0  0  0  0  0  0
   -0.5108   -0.5587   -1.0432 H   0  0  0  0  0  0  0  0  0  0  0  0
    1.4189   -0.5847   -1.1107 H   0  0  0  0  0  0  0  0  0  0  0  0
    2.0521    2.4751   -2.4465 H   0  0  0  0  0  0  0  0  0  0  0  0
    2.1384    3.3561   -0.9352 H   0  0  0  0  0  0  0  0  0  0  0  0
    3.4054    0.6022   -1.4400 H   0  0  0  0  0  0  0  0  0  0  0  0
    3.4549    1.4720    0.0961 H   0  0  0  0  0  0  0  0  0  0  0  0
    4.2689    2.1325   -1.3322 H   0  0  0  0  0  0  0  0  0  0  0  0
   -2.6927   -0.0650   -0.4016 C   0  0  0  0  0  0  0  0  0  0  0  0
   -1.6065   -1.1165   -0.5847 C   0  0  0  0  0  3  0  0  0  0  0  0
   -0.6274   -1.1687    0.5702 C   0  0  0  0  0  0  0  0  0  0  0  0
   -1.3081   -1.5433    1.7412 O   0  0  0  0  0  0  0  0  0  0  0  0
   -0.4814   -1.5835    2.8763 C   0  0  0  0  0  0  0  0  0  0  0  0
   -1.3091   -1.9938    4.0722 C   0  0  0  0  0  0  0  0  0  0  0  0
   -2.2571    0.9328   -0.3065 H   0  0  0  0  0  0  0  0  0  0  0  0
   -3.3747   -0.0525   -1.2531 H   0  0  0  0  0  0  0  0  0  0  0  0
   -3.2746   -0.2636    0.4984 H   0  0  0  0  0  0  0  0  0  0  0  0
   -2.0574   -2.1053   -0.7025 H   0  0  0  0  0  0  0  0  0  0  0  0
   -0.1552   -0.1833    0.7102 H   0  0  0  0  0  0  0  0  0  0  0  0
    0.1761   -1.8888    0.3567 H   0  0  0  0  0  0  0  0  0  0  0  0
   -0.0269   -0.5959    3.0439 H   0  0  0  0  0  0  0  0  0  0  0  0
    0.3418   -2.2955    2.7160 H   0  0  0  0  0  0  0  0  0  0  0  0
   -1.7489   -2.9789    3.9126 H   0  0  0  0  0  0  0  0  0  0  0  0
   -0.6866   -2.0325    4.9675 H   0  0  0  0  0  0  0  0  0  0  0  0
   -2.1161   -1.2800    4.2414 H   0  0  0  0  0  0  0  0  0  0  0  0
  1  2  1  0
  1  6  1  0
  1  7  1  0
  1  8  1  0
  2  3  1  0
  2  9  1  0
  2 10  1  0
  3  4  1  0
  4  5  1  0
  4 11  1  0
  4 12  1  0
  5 13  1  0
  5 14  1  0
  5 15  1  0
 16 17  1  0
 16 22  1  0
 16 23  1  0
 16 24  1  0
 17 18  1  0
 17 25  1  0
 18 19  1  0
 18 26  1  0
 18 27  1  0
 19 20  1  0
 20 21  1  0
 20 28  1  0
 20 29  1  0
 21 30  1  0
 21 31  1  0
 21 32  1  0
M  RAD  1  17   2
M  END
>  <reaction>  (10) 
rmg_rxn_218

>  <mol_properties>  (10) 
{"1": {"label": "*1", "atom_type": "Cs"}, "2": {"label": "*0", "atom_type": "S2s"}, "8": {"label": "*2", "atom_type": "H0"}, "16": {"label": "*3", "atom_type": "Cs"}, "17": {"label": "*4", "atom_type": "Cs"}}

>  <type>  (10) 
unop_6

>  <geom_source>  (10) 
Heuristics

$$$$

     RDKit          3D

 32 30  0  0  0  0  0  0  0  0999 V2000
    0.4279    0.4389   -2.8458 C   0  0  0  0  0  0  0  0  0  0  0  0
    0.4279    0.4389   -1.3261 C   0  0  0  0  0  0  0  0  0  0  0  0
    0.4279    2.0800   -0.5612 S   0  0  0  0  0  0  0  0  0  0  0  0
    1.9684    2.7939   -1.1898 C   0  0  0  0  0  0  0  0  0  0  0  0
    3.2294    2.0350   -0.8106 C   0  0  0  0  0  0  0  0  0  0  0  0
    1.3509    0.8624   -3.2452 H   0  0  0  0  0  0  0  0  0  0  0  0
    0.3453   -0.5823   -3.2245 H   0  0  0  0  0  0  0  0  0  0  0  0
   -0.4079    1.0213   -3.2352 H   0  0  0  0  0  0  0  0  0  0  0  0
   -0.6656   -0.1178   -0.8685 H   0  0  0  0  0  0  0  0  0  0  0  0
    1.2641   -0.1438   -0.9360 H   0  0  0  0  0  0  0  0  0  0  0  0
    1.8973    2.9161   -2.2718 H   0  0  0  0  0  0  0  0  0  0  0  0
    1.9835    3.7971   -0.7605 H   0  0  0  0  0  0  0  0  0  0  0  0
    3.2506    1.0432   -1.2652 H   0  0  0  0  0  0  0  0  0  0  0  0
    3.3000    1.9130    0.2708 H   0  0  0  0  0  0  0  0  0  0  0  0
    4.1141    2.5734   -1.1575 H   0  0  0  0  0  0  0  0  0  0  0  0
   -2.5380    0.3186    0.4430 C   0  0  0  0  0  0  0  0  0  0  0  0
   -1.7613   -0.6756   -0.4100 C   0  0  0  0  0  3  0  0  0  0  0  0
   -0.6304   -1.3484    0.3407 C   0  0  0  0  0  0  0  0  0  0  0  0
   -1.1601   -2.1068    1.3987 O   0  0  0  0  0  0  0  0  0  0  0  0
   -0.1762   -2.7411    2.1753 C   0  0  0  0  0  0  0  0  0  0  0  0
   -0.8504   -3.5236    3.2783 C   0  0  0  0  0  0  0  0  0  0  0  0
   -1.8824    1.1116    0.8114 H   0  0  0  0  0  0  0  0  0  0  0  0
   -3.3393    0.7865   -0.1309 H   0  0  0  0  0  0  0  0  0  0  0  0
   -2.9816   -0.1773    1.3063 H   0  0  0  0  0  0  0  0  0  0  0  0
   -2.4335   -1.4488   -0.7909 H   0  0  0  0  0  0  0  0  0  0  0  0
    0.0654   -0.5906    0.7345 H   0  0  0  0  0  0  0  0  0  0  0  0
   -0.0569   -1.9983   -0.3363 H   0  0  0  0  0  0  0  0  0  0  0  0
    0.5080   -1.9911    2.5988 H   0  0  0  0  0  0  0  0  0  0  0  0
    0.4274   -3.4094    1.5434 H   0  0  0  0  0  0  0  0  0  0  0  0
   -1.5185   -4.2768    2.8591 H   0  0  0  0  0  0  0  0  0  0  0  0
   -0.1043   -4.0265    3.8956 H   0  0  0  0  0  0  0  0  0  0  0  0
   -1.4365   -2.8596    3.9146 H   0  0  0  0  0  0  0  0  0  0  0  0
  1  2  1  0
  1  6  1  0
  1  7  1  0
  1  8  1  0
  2  3  1  0
  2  9  1  0
  2 10  1  0
  3  4  1  0
  4  5  1  0
  4 11  1  0
  4 12  1  0
  5 13  1  0
  5 14  1  0
  5 15  1  0
 16 17  1  0
 16 22  1  0
 16 23  1  0
 16 24  1  0
 17 18  1  0
 17 25  1  0
 18 19  1  0
 18 26  1  0
 18 27  1  0
 19 20  1  0
 20 21  1  0
 20 28  1  0
 20 29  1  0
 21 30  1  0
 21 31  1  0
 21 32  1  0
M  RAD  1  17   2
M  END
>  <reaction>  (11) 
rmg_rxn_218

>  <mol_properties>  (11) 
{"1": {"label": "*1", "atom_type": "Cs"}, "2": {"label": "*0", "atom_type": "S2s"}, "8": {"label": "*2", "atom_type": "H0"}, "16": {"label": "*3", "atom_type": "Cs"}, "17": {"label": "*4", "atom_type": "Cs"}}

>  <type>  (11) 
unop_7

>  <geom_source>  (11) 
Heuristics

$$$$

     RDKit          3D

 32 30  0  0  0  0  0  0  0  0999 V2000
    1.6267   -0.0060   -2.4349 C   0  0  0  0  0  0  0  0  0  0  0  0
    1.6267   -0.0060   -0.9151 C   0  0  0  0  0  0  0  0  0  0  0  0
    1.6267    1.6351   -0.1502 S   0  0  0  0  0  0  0  0  0  0  0  0
    3.1672    2.3491   -0.7788 C   0  0  0  0  0  0  0  0  0  0  0  0
    4.4282    1.5902   -0.3996 C   0  0  0  0  0  0  0  0  0  0  0  0
    2.5497    0.4176   -2.8343 H   0  0  0  0  0  0  0  0  0  0  0  0
    1.5441   -1.0271   -2.8135 H   0  0  0  0  0  0  0  0  0  0  0  0
    0.7909    0.5765   -2.8243 H   0  0  0  0  0  0  0  0  0  0  0  0
    0.5332   -0.5626   -0.4576 H   0  0  0  0  0  0  0  0  0  0  0  0
    2.4628   -0.5886   -0.5251 H   0  0  0  0  0  0  0  0  0  0  0  0
    3.0961    2.4713   -1.8609 H   0  0  0  0  0  0  0  0  0  0  0  0
    3.1823    3.3522   -0.3495 H   0  0  0  0  0  0  0  0  0  0  0  0
    4.4494    0.5984   -0.8543 H   0  0  0  0  0  0  0  0  0  0  0  0
    4.4988    1.4682    0.6818 H   0  0  0  0  0  0  0  0  0  0  0  0
    5.3129    2.1286   -0.7465 H   0  0  0  0  0  0  0  0  0  0  0  0
   -0.3514   -2.6174    0.1840 C   0  0  0  0  0  0  0  0  0  0  0  0
   -0.5625   -1.1204    0.0009 C   0  0  0  0  0  3  0  0  0  0  0  0
   -2.0240   -0.7318   -0.0898 C   0  0  0  0  0  0  0  0  0  0  0  0
   -2.6660   -1.0484    1.1196 O   0  0  0  0  0  0  0  0  0  0  0  0
   -4.0396   -0.7536    1.1138 C   0  0  0  0  0  0  0  0  0  0  0  0
   -4.6283   -1.1314    2.4533 C   0  0  0  0  0  0  0  0  0  0  0  0
   -0.7796   -3.1764   -0.6518 H   0  0  0  0  0  0  0  0  0  0  0  0
    0.7108   -2.8603    0.2398 H   0  0  0  0  0  0  0  0  0  0  0  0
   -0.8293   -2.9656    1.0997 H   0  0  0  0  0  0  0  0  0  0  0  0
   -0.1087   -0.5731    0.8312 H   0  0  0  0  0  0  0  0  0  0  0  0
   -2.5068   -1.2683   -0.9220 H   0  0  0  0  0  0  0  0  0  0  0  0
   -2.1203    0.3445   -0.2951 H   0  0  0  0  0  0  0  0  0  0  0  0
   -4.5383   -1.3073    0.3047 H   0  0  0  0  0  0  0  0  0  0  0  0
   -4.1926    0.3176    0.9150 H   0  0  0  0  0  0  0  0  0  0  0  0
   -4.1440   -0.5727    3.2549 H   0  0  0  0  0  0  0  0  0  0  0  0
   -5.6967   -0.9104    2.4726 H   0  0  0  0  0  0  0  0  0  0  0  0
   -4.4910   -2.1963    2.6444 H   0  0  0  0  0  0  0  0  0  0  0  0
  1  2  1  0
  1  6  1  0
  1  7  1  0
  1  8  1  0
  2  3  1  0
  2  9  1  0
  2 10  1  0
  3  4  1  0
  4  5  1  0
  4 11  1  0
  4 12  1  0
  5 13  1  0
  5 14  1  0
  5 15  1  0
 16 17  1  0
 16 22  1  0
 16 23  1  0
 16 24  1  0
 17 18  1  0
 17 25  1  0
 18 19  1  0
 18 26  1  0
 18 27  1  0
 19 20  1  0
 20 21  1  0
 20 28  1  0
 20 29  1  0
 21 30  1  0
 21 31  1  0
 21 32  1  0
M  RAD  1  17   2
M  END
>  <reaction>  (12) 
rmg_rxn_218

>  <mol_properties>  (12) 
{"1": {"label": "*1", "atom_type": "Cs"}, "2": {"label": "*0", "atom_type": "S2s"}, "8": {"label": "*2", "atom_type": "H0"}, "16": {"label": "*3", "atom_type": "Cs"}, "17": {"label": "*4", "atom_type": "Cs"}}

>  <type>  (12) 
unop_8

>  <geom_source>  (12) 
Heuristics

$$$$

     RDKit          3D

 32 30  0  0  0  0  0  0  0  0999 V2000
    1.2626   -0.4283   -2.7846 C   0  0  0  0  0  0  0  0  0  0  0  0
    1.2626   -0.4283   -1.2649 C   0  0  0  0  0  0  0  0  0  0  0  0
    1.2626    1.2128   -0.5000 S   0  0  0  0  0  0  0  0  0  0  0  0
    2.8032    1.9267   -1.1286 C   0  0  0  0  0  0  0  0  0  0  0  0
    4.0641    1.1679   -0.7494 C   0  0  0  0  0  0  0  0  0  0  0  0
    2.1856   -0.0047   -3.1840 H   0  0  0  0  0  0  0  0  0  0  0  0
    1.1800   -1.4495   -3.1633 H   0  0  0  0  0  0  0  0  0  0  0  0
    0.4269    0.1542   -3.1740 H   0  0  0  0  0  0  0  0  0  0  0  0
    0.1691   -0.9849   -0.8073 H   0  0  0  0  0  0  0  0  0  0  0  0
    2.0988   -1.0109   -0.8748 H   0  0  0  0  0  0  0  0  0  0  0  0
    2.7320    2.0489   -2.2106 H   0  0  0  0  0  0  0  0  0  0  0  0
    2.8183    2.9299   -0.6993 H   0  0  0  0  0  0  0  0  0  0  0  0
    4.0853    0.1760   -1.2040 H   0  0  0  0  0  0  0  0  0  0  0  0
    4.1348    1.0458    0.3321 H   0  0  0  0  0  0  0  0  0  0  0  0
    4.9488    1.7063   -1.0963 H   0  0  0  0  0  0  0  0  0  0  0  0
   -2.0741   -1.3246   -1.3260 C   0  0  0  0  0  0  0  0  0  0  0  0
   -0.9266   -1.5427   -0.3488 C   0  0  0  0  0  3  0  0  0  0  0  0
   -0.9887   -0.6270    0.8566 C   0  0  0  0  0  0  0  0  0  0  0  0
   -2.1545   -0.9027    1.5912 O   0  0  0  0  0  0  0  0  0  0  0  0
   -2.3141   -0.0726    2.7133 C   0  0  0  0  0  0  0  0  0  0  0  0
   -3.5915   -0.4511    3.4263 C   0  0  0  0  0  0  0  0  0  0  0  0
   -2.0749   -0.2989   -1.7033 H   0  0  0  0  0  0  0  0  0  0  0  0
   -1.9938   -1.9960   -2.1821 H   0  0  0  0  0  0  0  0  0  0  0  0
   -3.0336   -1.5038   -0.8409 H   0  0  0  0  0  0  0  0  0  0  0  0
   -0.9237   -2.5781    0.0016 H   0  0  0  0  0  0  0  0  0  0  0  0
   -0.9904    0.4256    0.5319 H   0  0  0  0  0  0  0  0  0  0  0  0
   -0.1022   -0.7719    1.4914 H   0  0  0  0  0  0  0  0  0  0  0  0
   -2.3472    0.9809    2.3984 H   0  0  0  0  0  0  0  0  0  0  0  0
   -1.4510   -0.1820    3.3867 H   0  0  0  0  0  0  0  0  0  0  0  0
   -3.5540   -1.4915    3.7511 H   0  0  0  0  0  0  0  0  0  0  0  0
   -3.7365    0.1813    4.3036 H   0  0  0  0  0  0  0  0  0  0  0  0
   -4.4495   -0.3281    2.7644 H   0  0  0  0  0  0  0  0  0  0  0  0
  1  2  1  0
  1  6  1  0
  1  7  1  0
  1  8  1  0
  2  3  1  0
  2  9  1  0
  2 10  1  0
  3  4  1  0
  4  5  1  0
  4 11  1  0
  4 12  1  0
  5 13  1  0
  5 14  1  0
  5 15  1  0
 16 17  1  0
 16 22  1  0
 16 23  1  0
 16 24  1  0
 17 18  1  0
 17 25  1  0
 18 19  1  0
 18 26  1  0
 18 27  1  0
 19 20  1  0
 20 21  1  0
 20 28  1  0
 20 29  1  0
 21 30  1  0
 21 31  1  0
 21 32  1  0
M  RAD  1  17   2
M  END
>  <reaction>  (13) 
rmg_rxn_218

>  <mol_properties>  (13) 
{"1": {"label": "*1", "atom_type": "Cs"}, "2": {"label": "*0", "atom_type": "S2s"}, "8": {"label": "*2", "atom_type": "H0"}, "16": {"label": "*3", "atom_type": "Cs"}, "17": {"label": "*4", "atom_type": "Cs"}}

>  <type>  (13) 
unop_9

>  <geom_source>  (13) 
Heuristics

$$$$

     RDKit          3D

 32 30  0  0  0  0  0  0  0  0999 V2000
    1.5993    0.0088   -2.4895 C   0  0  0  0  0  0  0  0  0  0  0  0
    1.5993    0.0088   -0.9698 C   0  0  0  0  0  0  0  0  0  0  0  0
    1.5993    1.6499   -0.2049 S   0  0  0  0  0  0  0  0  0  0  0  0
    3.1399    2.3638   -0.8335 C   0  0  0  0  0  0  0  0  0  0  0  0
    4.4008    1.6050   -0.4543 C   0  0  0  0  0  0  0  0  0  0  0  0
    2.5223    0.4324   -2.8889 H   0  0  0  0  0  0  0  0  0  0  0  0
    1.5167   -1.0123   -2.8682 H   0  0  0  0  0  0  0  0  0  0  0  0
    0.7636    0.5913   -2.8789 H   0  0  0  0  0  0  0  0  0  0  0  0
    0.5058   -0.5478   -0.5122 H   0  0  0  0  0  0  0  0  0  0  0  0
    2.4355   -0.5738   -0.5797 H   0  0  0  0  0  0  0  0  0  0  0  0
    3.0687    2.4861   -1.9155 H   0  0  0  0  0  0  0  0  0  0  0  0
    3.1549    3.3670   -0.4042 H   0  0  0  0  0  0  0  0  0  0  0  0
    4.4220    0.6131   -0.9090 H   0  0  0  0  0  0  0  0  0  0  0  0
    4.4715    1.4830    0.6271 H   0  0  0  0  0  0  0  0  0  0  0  0
    5.2855    2.1434   -0.8012 H   0  0  0  0  0  0  0  0  0  0  0  0
   -0.6883   -2.5452   -0.5405 C   0  0  0  0  0  0  0  0  0  0  0  0
   -0.5899   -1.1056   -0.0537 C   0  0  0  0  0  3  0  0  0  0  0  0
   -1.9404   -0.4757    0.2195 C   0  0  0  0  0  0  0  0  0  0  0  0
   -2.5774   -1.1729    1.2602 O   0  0  0  0  0  0  0  0  0  0  0  0
   -3.8577   -0.6778    1.5592 C   0  0  0  0  0  0  0  0  0  0  0  0
   -4.4495   -1.4947    2.6844 C   0  0  0  0  0  0  0  0  0  0  0  0
   -1.2624   -2.6043   -1.4686 H   0  0  0  0  0  0  0  0  0  0  0  0
    0.3010   -2.9636   -0.7318 H   0  0  0  0  0  0  0  0  0  0  0  0
   -1.1854   -3.1705    0.2012 H   0  0  0  0  0  0  0  0  0  0  0  0
    0.0065   -1.0587    0.8611 H   0  0  0  0  0  0  0  0  0  0  0  0
   -2.5629   -0.5073   -0.6888 H   0  0  0  0  0  0  0  0  0  0  0  0
   -1.8189    0.5819    0.4959 H   0  0  0  0  0  0  0  0  0  0  0  0
   -4.4982   -0.7319    0.6666 H   0  0  0  0  0  0  0  0  0  0  0  0
   -3.7923    0.3821    1.8468 H   0  0  0  0  0  0  0  0  0  0  0  0
   -3.8222   -1.4305    3.5742 H   0  0  0  0  0  0  0  0  0  0  0  0
   -5.4459   -1.1273    2.9349 H   0  0  0  0  0  0  0  0  0  0  0  0
   -4.5292   -2.5431    2.3945 H   0  0  0  0  0  0  0  0  0  0  0  0
  1  2  1  0
  1  6  1  0
  1  7  1  0
  1  8  1  0
  2  3  1  0
  2  9  1  0
  2 10  1  0
  3  4  1  0
  4  5  1  0
  4 11  1  0
  4 12  1  0
  5 13  1  0
  5 14  1  0
  5 15  1  0
 16 17  1  0
 16 22  1  0
 16 23  1  0
 16 24  1  0
 17 18  1  0
 17 25  1  0
 18 19  1  0
 18 26  1  0
 18 27  1  0
 19 20  1  0
 20 21  1  0
 20 28  1  0
 20 29  1  0
 21 30  1  0
 21 31  1  0
 21 32  1  0
M  RAD  1  17   2
M  END
>  <reaction>  (14) 
rmg_rxn_218

>  <mol_properties>  (14) 
{"1": {"label": "*1", "atom_type": "Cs"}, "2": {"label": "*0", "atom_type": "S2s"}, "8": {"label": "*2", "atom_type": "H0"}, "16": {"label": "*3", "atom_type": "Cs"}, "17": {"label": "*4", "atom_type": "Cs"}}

>  <type>  (14) 
unop_10

>  <geom_source>  (14) 
Heuristics

$$$$

     RDKit          3D

 32 30  0  0  0  0  0  0  0  0999 V2000
    0.5934    0.8336   -2.4517 C   0  0  0  0  0  0  0  0  0  0  0  0
    0.5934    0.8336   -0.9320 C   0  0  0  0  0  0  0  0  0  0  0  0
    0.5934    2.4746   -0.1671 S   0  0  0  0  0  0  0  0  0  0  0  0
    2.1339    3.1886   -0.7957 C   0  0  0  0  0  0  0  0  0  0  0  0
    3.3949    2.4297   -0.4165 C   0  0  0  0  0  0  0  0  0  0  0  0
    1.5164    1.2571   -2.8512 H   0  0  0  0  0  0  0  0  0  0  0  0
    0.5108   -0.1876   -2.8304 H   0  0  0  0  0  0  0  0  0  0  0  0
   -0.2424    1.4160   -2.8411 H   0  0  0  0  0  0  0  0  0  0  0  0
   -0.5001    0.2769   -0.4744 H   0  0  0  0  0  0  0  0  0  0  0  0
    1.4296    0.2509   -0.5420 H   0  0  0  0  0  0  0  0  0  0  0  0
    2.0628    3.3108   -1.8778 H   0  0  0  0  0  0  0  0  0  0  0  0
    2.1490    4.1917   -0.3664 H   0  0  0  0  0  0  0  0  0  0  0  0
    3.4161    1.4379   -0.8712 H   0  0  0  0  0  0  0  0  0  0  0  0
    3.4655    2.3077    0.6649 H   0  0  0  0  0  0  0  0  0  0  0  0
    4.2796    2.9681   -0.7634 H   0  0  0  0  0  0  0  0  0  0  0  0
   -1.9721    0.3298    1.3274 C   0  0  0  0  0  0  0  0  0  0  0  0
   -1.5958   -0.2809   -0.0159 C   0  0  0  0  0  3  0  0  0  0  0  0
   -0.7375   -1.5225    0.1138 C   0  0  0  0  0  0  0  0  0  0  0  0
   -1.4639   -2.5230    0.7819 O   0  0  0  0  0  0  0  0  0  0  0  0
   -0.7304   -3.7048    0.9794 C   0  0  0  0  0  0  0  0  0  0  0  0
   -1.5998   -4.7071    1.7026 C   0  0  0  0  0  0  0  0  0  0  0  0
   -1.0794    0.6155    1.8893 H   0  0  0  0  0  0  0  0  0  0  0  0
   -2.5843    1.2231    1.1950 H   0  0  0  0  0  0  0  0  0  0  0  0
   -2.5344   -0.3824    1.9314 H   0  0  0  0  0  0  0  0  0  0  0  0
   -2.4979   -0.5395   -0.5765 H   0  0  0  0  0  0  0  0  0  0  0  0
    0.1819   -1.2895    0.6740 H   0  0  0  0  0  0  0  0  0  0  0  0
   -0.4326   -1.8809   -0.8804 H   0  0  0  0  0  0  0  0  0  0  0  0
    0.1762   -3.4898    1.5640 H   0  0  0  0  0  0  0  0  0  0  0  0
   -0.4022   -4.1091    0.0103 H   0  0  0  0  0  0  0  0  0  0  0  0
   -2.4923   -4.9314    1.1173 H   0  0  0  0  0  0  0  0  0  0  0  0
   -1.0503   -5.6353    1.8669 H   0  0  0  0  0  0  0  0  0  0  0  0
   -1.9129   -4.3135    2.6703 H   0  0  0  0  0  0  0  0  0  0  0  0
  1  2  1  0
  1  6  1  0
  1  7  1  0
  1  8  1  0
  2  3  1  0
  2  9  1  0
  2 10  1  0
  3  4  1  0
  4  5  1  0
  4 11  1  0
  4 12  1  0
  5 13  1  0
  5 14  1  0
  5 15  1  0
 16 17  1  0
 16 22  1  0
 16 23  1  0
 16 24  1  0
 17 18  1  0
 17 25  1  0
 18 19  1  0
 18 26  1  0
 18 27  1  0
 19 20  1  0
 20 21  1  0
 20 28  1  0
 20 29  1  0
 21 30  1  0
 21 31  1  0
 21 32  1  0
M  RAD  1  17   2
M  END
>  <reaction>  (15) 
rmg_rxn_218

>  <mol_properties>  (15) 
{"1": {"label": "*1", "atom_type": "Cs"}, "2": {"label": "*0", "atom_type": "S2s"}, "8": {"label": "*2", "atom_type": "H0"}, "16": {"label": "*3", "atom_type": "Cs"}, "17": {"label": "*4", "atom_type": "Cs"}}

>  <type>  (15) 
unop_11

>  <geom_source>  (15) 
Heuristics

$$$$

     RDKit          3D

 32 30  0  0  0  0  0  0  0  0999 V2000
    1.5181   -0.2877   -2.5825 C   0  0  0  0  0  0  0  0  0  0  0  0
    1.5181   -0.2877   -1.0628 C   0  0  0  0  0  0  0  0  0  0  0  0
    1.5181    1.3533   -0.2979 S   0  0  0  0  0  0  0  0  0  0  0  0
    3.0586    2.0673   -0.9265 C   0  0  0  0  0  0  0  0  0  0  0  0
    4.3196    1.3084   -0.5473 C   0  0  0  0  0  0  0  0  0  0  0  0
    2.4411    0.1358   -2.9820 H   0  0  0  0  0  0  0  0  0  0  0  0
    1.4355   -1.3089   -2.9612 H   0  0  0  0  0  0  0  0  0  0  0  0
    0.6823    0.2947   -2.9719 H   0  0  0  0  0  0  0  0  0  0  0  0
    0.4246   -0.8444   -0.6053 H   0  0  0  0  0  0  0  0  0  0  0  0
    2.3543   -0.8704   -0.6728 H   0  0  0  0  0  0  0  0  0  0  0  0
    2.9875    2.1895   -2.0086 H   0  0  0  0  0  0  0  0  0  0  0  0
    3.0737    3.0704   -0.4972 H   0  0  0  0  0  0  0  0  0  0  0  0
    4.3408    0.3166   -1.0020 H   0  0  0  0  0  0  0  0  0  0  0  0
    4.3902    1.1864    0.5341 H   0  0  0  0  0  0  0  0  0  0  0  0
    5.2043    1.8468   -0.8942 H   0  0  0  0  0  0  0  0  0  0  0  0
   -1.5539   -1.8516   -1.3034 C   0  0  0  0  0  0  0  0  0  0  0  0
   -0.6711   -1.4022   -0.1468 C   0  0  0  0  0  3  0  0  0  0  0  0
   -1.3520   -0.4067    0.7702 C   0  0  0  0  0  0  0  0  0  0  0  0
   -2.4661   -1.0152    1.3730 O   0  0  0  0  0  0  0  0  0  0  0  0
   -3.1828   -0.1509    2.2173 C   0  0  0  0  0  0  0  0  0  0  0  0
   -4.3534   -0.9016    2.8088 C   0  0  0  0  0  0  0  0  0  0  0  0
   -1.8512   -0.9999   -1.9204 H   0  0  0  0  0  0  0  0  0  0  0  0
   -1.0300   -2.5623   -1.9442 H   0  0  0  0  0  0  0  0  0  0  0  0
   -2.4608   -2.3301   -0.9337 H   0  0  0  0  0  0  0  0  0  0  0  0
   -0.3621   -2.2662    0.4472 H   0  0  0  0  0  0  0  0  0  0  0  0
   -1.6724    0.4775    0.1967 H   0  0  0  0  0  0  0  0  0  0  0  0
   -0.6508   -0.0587    1.5429 H   0  0  0  0  0  0  0  0  0  0  0  0
   -3.5340    0.7226    1.6485 H   0  0  0  0  0  0  0  0  0  0  0  0
   -2.5249    0.2254    3.0147 H   0  0  0  0  0  0  0  0  0  0  0  0
   -4.0054   -1.7599    3.3845 H   0  0  0  0  0  0  0  0  0  0  0  0
   -4.9257   -0.2491    3.4701 H   0  0  0  0  0  0  0  0  0  0  0  0
   -5.0145   -1.2617    2.0197 H   0  0  0  0  0  0  0  0  0  0  0  0
  1  2  1  0
  1  6  1  0
  1  7  1  0
  1  8  1  0
  2  3  1  0
  2  9  1  0
  2 10  1  0
  3  4  1  0
  4  5  1  0
  4 11  1  0
  4 12  1  0
  5 13  1  0
  5 14  1  0
  5 15  1  0
 16 17  1  0
 16 22  1  0
 16 23  1  0
 16 24  1  0
 17 18  1  0
 17 25  1  0
 18 19  1  0
 18 26  1  0
 18 27  1  0
 19 20  1  0
 20 21  1  0
 20 28  1  0
 20 29  1  0
 21 30  1  0
 21 31  1  0
 21 32  1  0
M  RAD  1  17   2
M  END
>  <reaction>  (16) 
rmg_rxn_218

>  <mol_properties>  (16) 
{"1": {"label": "*1", "atom_type": "Cs"}, "2": {"label": "*0", "atom_type": "S2s"}, "8": {"label": "*2", "atom_type": "H0"}, "16": {"label": "*3", "atom_type": "Cs"}, "17": {"label": "*4", "atom_type": "Cs"}}

>  <type>  (16) 
unop_12

>  <geom_source>  (16) 
Heuristics

$$$$

     RDKit          3D

 32 30  0  0  0  0  0  0  0  0999 V2000
   -3.6402   -0.5419    0.3370 S   0  0  0  0  0  0  0  0  0  0  0  0
    2.7794    0.0979    0.0427 O   0  0  0  0  0  0  0  0  0  0  0  0
    0.6177   -0.8390   -0.4412 C   0  0  0  0  0  0  0  0  0  0  0  0
    1.4822   -0.0871    0.5701 C   0  0  0  0  0  0  0  0  0  0  0  0
    3.5793    0.7753    0.9878 C   0  0  0  0  0  0  0  0  0  0  0  0
   -3.3768    1.2616    0.3536 C   0  0  0  0  0  0  0  0  0  0  0  0
    1.1275   -2.2573   -0.6838 C   0  0  0  0  0  0  0  0  0  0  0  0
    4.9707    0.9793    0.4085 C   0  0  0  0  0  0  0  0  0  0  0  0
   -4.6195    1.9630    0.8803 C   0  0  0  0  0  0  0  0  0  0  0  0
   -1.9868   -1.0729   -1.7975 C   0  0  0  0  0  0  0  0  0  0  0  0
   -1.9677   -0.9013   -0.2869 C   0  0  0  0  0  3  0  0  0  0  0  0
    0.6000   -0.2824   -1.4034 H   0  0  0  0  0  0  0  0  0  0  0  0
   -0.5921   -0.9044    0.0101 H   0  0  0  0  0  0  0  0  0  0  0  0
    1.5122   -0.6696    1.5198 H   0  0  0  0  0  0  0  0  0  0  0  0
    0.9979    0.8966    0.7648 H   0  0  0  0  0  0  0  0  0  0  0  0
    3.6763    0.1794    1.9240 H   0  0  0  0  0  0  0  0  0  0  0  0
    3.1510    1.7758    1.2260 H   0  0  0  0  0  0  0  0  0  0  0  0
   -2.5130    1.5056    1.0086 H   0  0  0  0  0  0  0  0  0  0  0  0
   -3.1642    1.6197   -0.6761 H   0  0  0  0  0  0  0  0  0  0  0  0
    2.1530   -2.2354   -1.1097 H   0  0  0  0  0  0  0  0  0  0  0  0
    0.4561   -2.7720   -1.4026 H   0  0  0  0  0  0  0  0  0  0  0  0
    1.1352   -2.8312    0.2670 H   0  0  0  0  0  0  0  0  0  0  0  0
    5.6100    1.5113    1.1444 H   0  0  0  0  0  0  0  0  0  0  0  0
    4.9104    1.5850   -0.5207 H   0  0  0  0  0  0  0  0  0  0  0  0
    5.4324   -0.0033    0.1738 H   0  0  0  0  0  0  0  0  0  0  0  0
   -5.4904    1.7385    0.2286 H   0  0  0  0  0  0  0  0  0  0  0  0
   -4.4528    3.0608    0.8890 H   0  0  0  0  0  0  0  0  0  0  0  0
   -4.8390    1.6262    1.9157 H   0  0  0  0  0  0  0  0  0  0  0  0
   -2.3427   -0.1410   -2.2838 H   0  0  0  0  0  0  0  0  0  0  0  0
   -2.6540   -1.9149   -2.0795 H   0  0  0  0  0  0  0  0  0  0  0  0
   -0.9593   -1.2909   -2.1557 H   0  0  0  0  0  0  0  0  0  0  0  0
   -1.5928   -1.8314    0.1894 H   0  0  0  0  0  0  0  0  0  0  0  0
  1 11  1  0
  1  6  1  0
  2  5  1  0
  2  4  1  0
  3  7  1  0
  3  4  1  0
  3 12  1  0
  3 13  1  0
  4 14  1  0
  4 15  1  0
  5  8  1  0
  5 16  1  0
  5 17  1  0
  6  9  1  0
  6 18  1  0
  6 19  1  0
  7 20  1  0
  7 21  1  0
  7 22  1  0
  8 23  1  0
  8 24  1  0
  8 25  1  0
  9 26  1  0
  9 27  1  0
  9 28  1  0
 10 11  1  0
 10 29  1  0
 10 30  1  0
 10 31  1  0
 11 32  1  0
M  RAD  1  11   2
M  END
>  <reaction>  (17) 
rmg_rxn_218

>  <mol_properties>  (17) 
{"1": {"label": "*1", "atom_type": "Cs"}, "2": {"label": "*0", "atom_type": "S2s"}, "8": {"label": "*2", "atom_type": "H0"}, "16": {"label": "*3", "atom_type": "Cs"}, "17": {"label": "*4", "atom_type": "Cs"}}

>  <type>  (17) 
unop_13

>  <geom_source>  (17) 
AutoTST

$$$$

     RDKit          3D

 32 30  0  0  0  0  0  0  0  0999 V2000
    1.5990   -0.0803   -2.4959 C   0  0  0  0  0  0  0  0  0  0  0  0
    1.5990   -0.0803   -0.9762 C   0  0  0  0  0  0  0  0  0  0  0  0
    1.5990    1.5608   -0.2113 S   0  0  0  0  0  0  0  0  0  0  0  0
    3.1396    2.2747   -0.8399 C   0  0  0  0  0  0  0  0  0  0  0  0
    4.4005    1.5158   -0.4607 C   0  0  0  0  0  0  0  0  0  0  0  0
    2.5221    0.3432   -2.8953 H   0  0  0  0  0  0  0  0  0  0  0  0
    1.5165   -1.1015   -2.8746 H   0  0  0  0  0  0  0  0  0  0  0  0
    0.7633    0.5021   -2.8853 H   0  0  0  0  0  0  0  0  0  0  0  0
    0.5056   -0.6370   -0.5186 H   0  0  0  0  0  0  0  0  0  0  0  0
    2.4352   -0.6630   -0.5861 H   0  0  0  0  0  0  0  0  0  0  0  0
    3.0685    2.3969   -1.9219 H   0  0  0  0  0  0  0  0  0  0  0  0
    3.1547    3.2779   -0.4106 H   0  0  0  0  0  0  0  0  0  0  0  0
    4.4218    0.5240   -0.9154 H   0  0  0  0  0  0  0  0  0  0  0  0
    4.4712    1.3938    0.6207 H   0  0  0  0  0  0  0  0  0  0  0  0
    5.2853    2.0542   -0.8076 H   0  0  0  0  0  0  0  0  0  0  0  0
   -1.0890   -2.2509   -1.0373 C   0  0  0  0  0  0  0  0  0  0  0  0
   -0.5901   -1.1947   -0.0601 C   0  0  0  0  0  3  0  0  0  0  0  0
   -1.7051   -0.3567    0.5313 C   0  0  0  0  0  0  0  0  0  0  0  0
   -2.5579   -1.1811    1.2848 O   0  0  0  0  0  0  0  0  0  0  0  0
   -3.6464   -0.4916    1.8446 C   0  0  0  0  0  0  0  0  0  0  0  0
   -4.4944   -1.4663    2.6284 C   0  0  0  0  0  0  0  0  0  0  0  0
   -1.6194   -1.7886   -1.8735 H   0  0  0  0  0  0  0  0  0  0  0  0
   -0.2599   -2.8303   -1.4463 H   0  0  0  0  0  0  0  0  0  0  0  0
   -1.7756   -2.9392   -0.5445 H   0  0  0  0  0  0  0  0  0  0  0  0
   -0.0414   -1.6693    0.7575 H   0  0  0  0  0  0  0  0  0  0  0  0
   -2.2744    0.1363   -0.2726 H   0  0  0  0  0  0  0  0  0  0  0  0
   -1.2886    0.4359    1.1702 H   0  0  0  0  0  0  0  0  0  0  0  0
   -4.2402   -0.0192    1.0482 H   0  0  0  0  0  0  0  0  0  0  0  0
   -3.2832    0.3147    2.4990 H   0  0  0  0  0  0  0  0  0  0  0  0
   -3.9102   -1.9249    3.4269 H   0  0  0  0  0  0  0  0  0  0  0  0
   -5.3475   -0.9521    3.0738 H   0  0  0  0  0  0  0  0  0  0  0  0
   -4.8678   -2.2575    1.9772 H   0  0  0  0  0  0  0  0  0  0  0  0
  1  2  1  0
  1  6  1  0
  1  7  1  0
  1  8  1  0
  2  3  1  0
  2  9  1  0
  2 10  1  0
  3  4  1  0
  4  5  1  0
  4 11  1  0
  4 12  1  0
  5 13  1  0
  5 14  1  0
  5 15  1  0
 16 17  1  0
 16 22  1  0
 16 23  1  0
 16 24  1  0
 17 18  1  0
 17 25  1  0
 18 19  1  0
 18 26  1  0
 18 27  1  0
 19 20  1  0
 20 21  1  0
 20 28  1  0
 20 29  1  0
 21 30  1  0
 21 31  1  0
 21 32  1  0
M  RAD  1  17   2
M  END
>  <reaction>  (18) 
rmg_rxn_218

>  <mol_properties>  (18) 
{"1": {"label": "*1", "atom_type": "Cs"}, "2": {"label": "*0", "atom_type": "S2s"}, "8": {"label": "*2", "atom_type": "H0"}, "16": {"label": "*3", "atom_type": "Cs"}, "17": {"label": "*4", "atom_type": "Cs"}}

>  <type>  (18) 
unop_14

>  <geom_source>  (18) 
gaussian_log

$$$$
