
     RDKit          3D

 14 14  0  0  0  0  0  0  0  0999 V2000
   -1.1778    0.2241    0.1818 C   0  0  0  0  0  0  0  0  0  0  0  0
   -0.5633   -1.1636    0.0678 C   0  0  0  0  0  0  0  0  0  0  0  0
    0.6943   -1.1996    0.7146 O   0  0  0  0  0  0  0  0  0  0  0  0
    1.5547   -0.2288    0.2011 C   0  0  0  0  0  0  0  0  0  0  0  0
    1.0729    1.0696    0.3698 O   0  0  0  0  0  0  0  0  0  0  0  0
   -0.1607    1.2493   -0.2989 C   0  0  0  0  0  0  0  0  0  0  0  0
   -2.0927    0.2866   -0.4117 H   0  0  0  0  0  0  0  0  0  0  0  0
   -1.4303    0.4248    1.2248 H   0  0  0  0  0  0  0  0  0  0  0  0
   -1.1822   -1.9235    0.5431 H   0  0  0  0  0  0  0  0  0  0  0  0
   -0.4389   -1.4347   -0.9919 H   0  0  0  0  0  0  0  0  0  0  0  0
    1.7250   -0.4207   -0.8742 H   0  0  0  0  0  0  0  0  0  0  0  0
    2.4896   -0.3010    0.7524 H   0  0  0  0  0  0  0  0  0  0  0  0
   -0.0080    1.1481   -1.3844 H   0  0  0  0  0  0  0  0  0  0  0  0
   -0.4826    2.2695   -0.0942 H   0  0  0  0  0  0  0  0  0  0  0  0
  1  2  1  0
  1  6  1  0
  1  7  1  0
  1  8  1  0
  2  3  1  0
  2  9  1  0
  2 10  1  0
  3  4  1  0
  4  5  1  0
  4 11  1  0
  4 12  1  0
  5  6  1  0
  6 13  1  0
  6 14  1  0
M  END
>  <reaction>  (1) 
rmg_rxn_206

>  <mol_properties>  (1) 
{"0": {"label": "donator", "atom_type": "Cs"}, "6": {"label": "d_hydrogen", "atom_type": "H0"}}

>  <type>  (1) 
r1h

$$$$

     RDKit          3D

  8  7  0  0  0  0  0  0  0  0999 V2000
   -1.0336    0.3440   -0.0356 C   0  0  0  0  0  3  0  0  0  0  0  0
    0.1991   -0.4326   -0.0698 C   0  0  0  0  0  0  0  0  0  0  0  0
    0.9631   -0.0368    1.2269 N   0  0  0  0  0  0  0  0  0  0  0  0
    0.8138   -0.8074    2.1160 O   0  0  0  0  0  0  0  0  0  0  0  0
   -1.0668    1.3490   -0.4321 H   0  0  0  0  0  0  0  0  0  0  0  0
   -1.8598    0.0102    0.5774 H   0  0  0  0  0  0  0  0  0  0  0  0
    0.0447   -1.5108   -0.0264 H   0  0  0  0  0  0  0  0  0  0  0  0
    0.8639   -0.1518   -0.8851 H   0  0  0  0  0  0  0  0  0  0  0  0
  1  2  1  0
  1  5  1  0
  1  6  1  0
  2  3  1  0
  2  7  1  0
  2  8  1  0
  3  4  2  0
M  RAD  1   1   2
M  END
>  <reaction>  (2) 
rmg_rxn_206

>  <mol_properties>  (2) 
{"0": {"label": "acceptor", "atom_type": "Cs"}}

>  <type>  (2) 
r2

$$$$

     RDKit          3D

  9  8  0  0  0  0  0  0  0  0999 V2000
   -1.0314    0.2323   -0.1227 C   0  0  0  0  0  0  0  0  0  0  0  0
    0.3094   -0.4511    0.0063 C   0  0  0  0  0  0  0  0  0  0  0  0
    0.3197   -1.7698    0.6841 N   0  0  0  0  0  0  0  0  0  0  0  0
   -0.7498   -2.1455    1.0557 O   0  0  0  0  0  0  0  0  0  0  0  0
   -1.4744    0.4198    0.8552 H   0  0  0  0  0  0  0  0  0  0  0  0
   -0.9073    1.1865   -0.6350 H   0  0  0  0  0  0  0  0  0  0  0  0
   -1.7319   -0.3778   -0.6927 H   0  0  0  0  0  0  0  0  0  0  0  0
    1.0375    0.1401    0.5713 H   0  0  0  0  0  0  0  0  0  0  0  0
    0.7826   -0.6494   -0.9609 H   0  0  0  0  0  0  0  0  0  0  0  0
  1  2  1  0
  1  5  1  0
  1  6  1  0
  1  7  1  0
  2  3  1  0
  2  8  1  0
  2  9  1  0
  3  4  2  0
M  END
>  <reaction>  (3) 
rmg_rxn_206

>  <mol_properties>  (3) 
{"0": {"label": "acceptor", "atom_type": "Cs"}, "8": {"label": "a_hydrogen", "atom_type": "H0"}}

>  <type>  (3) 
r2h

$$$$

     RDKit          3D

 22 21  0  0  0  0  0  0  0  0999 V2000
    0.7277   -1.3397    1.1664 C   0  0  0  0  0  3  0  0  0  0  0  0
   -0.2487   -2.2331    0.4753 C   0  0  0  0  0  0  0  0  0  0  0  0
   -0.1042   -3.7071    0.7014 N   0  0  0  0  0  0  0  0  0  0  0  0
    0.7902   -4.0151    1.4238 O   0  0  0  0  0  0  0  0  0  0  0  0
    0.6360   -1.3098    2.2492 H   0  0  0  0  0  0  0  0  0  0  0  0
    1.7615   -1.4674    0.8544 H   0  0  0  0  0  0  0  0  0  0  0  0
   -1.2870   -2.0334    0.7595 H   0  0  0  0  0  0  0  0  0  0  0  0
   -0.2152   -2.1398   -0.6155 H   0  0  0  0  0  0  0  0  0  0  0  0
    0.1339    1.1373    0.3128 C   0  0  0  0  0  0  0  0  0  0  0  0
    0.8660    1.2872   -0.9975 C   0  0  0  0  0  0  0  0  0  0  0  0
    0.3910    2.4300   -1.6934 O   0  0  0  0  0  0  0  0  0  0  0  0
   -0.9920    2.3717   -1.8723 C   0  0  0  0  0  0  0  0  0  0  0  0
   -1.6978    2.3372   -0.6683 O   0  0  0  0  0  0  0  0  0  0  0  0
   -1.3572    1.1861    0.0902 C   0  0  0  0  0  0  0  0  0  0  0  0
    0.4306   -0.0817    0.7784 H   0  0  0  0  0  0  0  0  0  0  0  0
    0.4791    1.8244    1.0833 H   0  0  0  0  0  0  0  0  0  0  0  0
    1.9369    1.4261   -0.8595 H   0  0  0  0  0  0  0  0  0  0  0  0
    0.7108    0.3930   -1.6218 H   0  0  0  0  0  0  0  0  0  0  0  0
   -1.2474    1.4796   -2.4730 H   0  0  0  0  0  0  0  0  0  0  0  0
   -1.2884    3.2788   -2.3940 H   0  0  0  0  0  0  0  0  0  0  0  0
   -1.6894    0.2870   -0.4524 H   0  0  0  0  0  0  0  0  0  0  0  0
   -1.9142    1.2491    1.0236 H   0  0  0  0  0  0  0  0  0  0  0  0
  1  2  1  0
  1  5  1  0
  1  6  1  0
  2  3  1  0
  2  7  1  0
  2  8  1  0
  3  4  2  0
  9 10  1  0
  9 14  1  0
  9 15  1  0
  9 16  1  0
 10 11  1  0
 10 17  1  0
 10 18  1  0
 11 12  1  0
 12 13  1  0
 12 19  1  0
 12 20  1  0
 13 14  1  0
 14 21  1  0
 14 22  1  0
M  RAD  1   1   2
M  END
>  <reaction>  (4) 
rmg_rxn_206

>  <mol_properties>  (4) 
{"0": {"label": "*3", "atom_type": "Cs"}, "1": {"label": "*4", "atom_type": "Cs"}, "8": {"label": "*1", "atom_type": "Cs"}, "9": {"label": "*0", "atom_type": "Cs"}, "14": {"label": "*2", "atom_type": "H0"}}

>  <type>  (4) 
ts

$$$$

     RDKit          3D

 22 21  0  0  0  0  0  0  0  0999 V2000
   -0.0098   -1.8214    0.5031 C   0  0  0  0  0  0  0  0  0  0  0  0
    1.1897   -2.1835    1.3467 C   0  0  0  0  0  0  0  0  0  0  0  0
    0.9243   -2.9729    2.5735 N   0  0  0  0  0  0  0  0  0  0  0  0
   -0.2249   -3.2356    2.7561 O   0  0  0  0  0  0  0  0  0  0  0  0
   -0.5288   -2.7131    0.1521 H   0  0  0  0  0  0  0  0  0  0  0  0
   -0.7237   -1.2231    1.0687 H   0  0  0  0  0  0  0  0  0  0  0  0
    1.9286   -2.7822    0.8041 H   0  0  0  0  0  0  0  0  0  0  0  0
    1.7356   -1.3072    1.7114 H   0  0  0  0  0  0  0  0  0  0  0  0
    0.2651    0.6169   -0.4125 C   0  0  0  0  0  3  0  0  0  0  0  0
    0.2651    0.6169   -1.9345 C   0  0  0  0  0  0  0  0  0  0  0  0
    0.2651    1.9432   -2.4266 O   0  0  0  0  0  0  0  0  0  0  0  0
   -0.8177    2.6676   -1.9273 C   0  0  0  0  0  0  0  0  0  0  0  0
   -0.8064    2.7738   -0.5362 O   0  0  0  0  0  0  0  0  0  0  0  0
   -0.8743    1.5001    0.0756 C   0  0  0  0  0  0  0  0  0  0  0  0
    0.1275   -0.6035    0.0458 H   0  0  0  0  0  0  0  0  0  0  0  0
    1.2144    1.0154   -0.0494 H   0  0  0  0  0  0  0  0  0  0  0  0
    1.1508    0.1314   -2.3418 H   0  0  0  0  0  0  0  0  0  0  0  0
   -0.6224    0.0856   -2.3112 H   0  0  0  0  0  0  0  0  0  0  0  0
   -1.7603    2.1895   -2.2515 H   0  0  0  0  0  0  0  0  0  0  0  0
   -0.7455    3.6757   -2.3293 H   0  0  0  0  0  0  0  0  0  0  0  0
   -1.8420    1.0310   -0.1596 H   0  0  0  0  0  0  0  0  0  0  0  0
   -0.8291    1.6661    1.1511 H   0  0  0  0  0  0  0  0  0  0  0  0
  1  2  1  0
  1  5  1  0
  1  6  1  0
  1 15  1  0
  2  3  1  0
  2  7  1  0
  2  8  1  0
  3  4  2  0
  9 10  1  0
  9 14  1  0
  9 16  1  0
 10 11  1  0
 10 17  1  0
 10 18  1  0
 11 12  1  0
 12 13  1  0
 12 19  1  0
 12 20  1  0
 13 14  1  0
 14 21  1  0
 14 22  1  0
M  RAD  1   9   2
M  END
>  <reaction>  (5) 
rmg_rxn_206

>  <mol_properties>  (5) 
{"0": {"label": "*3", "atom_type": "Cs"}, "1": {"label": "*4", "atom_type": "Cs"}, "8": {"label": "*1", "atom_type": "Cs"}, "9": {"label": "*0", "atom_type": "Cs"}, "14": {"label": "*2", "atom_type": "H0"}}

>  <type>  (5) 
unop_1

>  <geom_source>  (5) 
Heuristics

$$$$

     RDKit          3D

 22 21  0  0  0  0  0  0  0  0999 V2000
   -0.0453   -1.5307    1.0912 C   0  0  0  0  0  0  0  0  0  0  0  0
    0.5604   -2.5097    0.1134 C   0  0  0  0  0  0  0  0  0  0  0  0
    0.8707   -3.8625    0.6351 N   0  0  0  0  0  0  0  0  0  0  0  0
    0.6017   -4.0248    1.7859 O   0  0  0  0  0  0  0  0  0  0  0  0
   -0.9923   -1.9002    1.4839 H   0  0  0  0  0  0  0  0  0  0  0  0
    0.6191   -1.3559    1.9372 H   0  0  0  0  0  0  0  0  0  0  0  0
   -0.0827   -2.7029   -0.7514 H   0  0  0  0  0  0  0  0  0  0  0  0
    1.5124   -2.1642   -0.3027 H   0  0  0  0  0  0  0  0  0  0  0  0
    0.2295    0.9077    0.1756 C   0  0  0  0  0  3  0  0  0  0  0  0
    0.2295    0.9077   -1.3464 C   0  0  0  0  0  0  0  0  0  0  0  0
    0.2295    2.2340   -1.8385 O   0  0  0  0  0  0  0  0  0  0  0  0
   -0.8533    2.9584   -1.3392 C   0  0  0  0  0  0  0  0  0  0  0  0
   -0.8420    3.0646    0.0519 O   0  0  0  0  0  0  0  0  0  0  0  0
   -0.9099    1.7909    0.6637 C   0  0  0  0  0  0  0  0  0  0  0  0
    0.0920   -0.3127    0.6339 H   0  0  0  0  0  0  0  0  0  0  0  0
    1.1789    1.3062    0.5387 H   0  0  0  0  0  0  0  0  0  0  0  0
    1.1153    0.4221   -1.7537 H   0  0  0  0  0  0  0  0  0  0  0  0
   -0.6580    0.3764   -1.7231 H   0  0  0  0  0  0  0  0  0  0  0  0
   -1.7958    2.4803   -1.6634 H   0  0  0  0  0  0  0  0  0  0  0  0
   -0.7810    3.9665   -1.7412 H   0  0  0  0  0  0  0  0  0  0  0  0
   -1.8775    1.3218    0.4285 H   0  0  0  0  0  0  0  0  0  0  0  0
   -0.8646    1.9569    1.7392 H   0  0  0  0  0  0  0  0  0  0  0  0
  1  2  1  0
  1  5  1  0
  1  6  1  0
  1 15  1  0
  2  3  1  0
  2  7  1  0
  2  8  1  0
  3  4  2  0
  9 10  1  0
  9 14  1  0
  9 16  1  0
 10 11  1  0
 10 17  1  0
 10 18  1  0
 11 12  1  0
 12 13  1  0
 12 19  1  0
 12 20  1  0
 13 14  1  0
 14 21  1  0
 14 22  1  0
M  RAD  1   9   2
M  END
>  <reaction>  (6) 
rmg_rxn_206

>  <mol_properties>  (6) 
{"0": {"label": "*3", "atom_type": "Cs"}, "1": {"label": "*4", "atom_type": "Cs"}, "8": {"label": "*1", "atom_type": "Cs"}, "9": {"label": "*0", "atom_type": "Cs"}, "14": {"label": "*2", "atom_type": "H0"}}

>  <type>  (6) 
unop_2

>  <geom_source>  (6) 
Heuristics

$$$$

     RDKit          3D

 22 21  0  0  0  0  0  0  0  0999 V2000
    0.1734   -1.8106    0.4787 C   0  0  0  0  0  0  0  0  0  0  0  0
    0.8757   -1.9333    1.8104 C   0  0  0  0  0  0  0  0  0  0  0  0
    0.3375   -2.9425    2.7539 N   0  0  0  0  0  0  0  0  0  0  0  0
   -0.6038   -3.5515    2.3461 O   0  0  0  0  0  0  0  0  0  0  0  0
    0.2057   -2.7502   -0.0724 H   0  0  0  0  0  0  0  0  0  0  0  0
   -0.8737   -1.5379    0.6086 H   0  0  0  0  0  0  0  0  0  0  0  0
    1.9325   -2.2025    1.7128 H   0  0  0  0  0  0  0  0  0  0  0  0
    0.8640   -1.0025    2.3869 H   0  0  0  0  0  0  0  0  0  0  0  0
    0.4483    0.6278   -0.4368 C   0  0  0  0  0  3  0  0  0  0  0  0
    0.4483    0.6278   -1.9589 C   0  0  0  0  0  0  0  0  0  0  0  0
    0.4483    1.9541   -2.4510 O   0  0  0  0  0  0  0  0  0  0  0  0
   -0.6345    2.6785   -1.9517 C   0  0  0  0  0  0  0  0  0  0  0  0
   -0.6232    2.7847   -0.5606 O   0  0  0  0  0  0  0  0  0  0  0  0
   -0.6911    1.5110    0.0513 C   0  0  0  0  0  0  0  0  0  0  0  0
    0.3107   -0.5926    0.0214 H   0  0  0  0  0  0  0  0  0  0  0  0
    1.3976    1.0263   -0.0738 H   0  0  0  0  0  0  0  0  0  0  0  0
    1.3340    0.1422   -2.3662 H   0  0  0  0  0  0  0  0  0  0  0  0
   -0.4392    0.0965   -2.3356 H   0  0  0  0  0  0  0  0  0  0  0  0
   -1.5771    2.2004   -2.2759 H   0  0  0  0  0  0  0  0  0  0  0  0
   -0.5622    3.6866   -2.3536 H   0  0  0  0  0  0  0  0  0  0  0  0
   -1.6588    1.0419   -0.1840 H   0  0  0  0  0  0  0  0  0  0  0  0
   -0.6459    1.6770    1.1267 H   0  0  0  0  0  0  0  0  0  0  0  0
  1  2  1  0
  1  5  1  0
  1  6  1  0
  1 15  1  0
  2  3  1  0
  2  7  1  0
  2  8  1  0
  3  4  2  0
  9 10  1  0
  9 14  1  0
  9 16  1  0
 10 11  1  0
 10 17  1  0
 10 18  1  0
 11 12  1  0
 12 13  1  0
 12 19  1  0
 12 20  1  0
 13 14  1  0
 14 21  1  0
 14 22  1  0
M  RAD  1   9   2
M  END
>  <reaction>  (7) 
rmg_rxn_206

>  <mol_properties>  (7) 
{"0": {"label": "*3", "atom_type": "Cs"}, "1": {"label": "*4", "atom_type": "Cs"}, "8": {"label": "*1", "atom_type": "Cs"}, "9": {"label": "*0", "atom_type": "Cs"}, "14": {"label": "*2", "atom_type": "H0"}}

>  <type>  (7) 
unop_3

>  <geom_source>  (7) 
Heuristics

$$$$

     RDKit          3D

 22 21  0  0  0  0  0  0  0  0999 V2000
    0.6412   -1.7249    0.8804 C   0  0  0  0  0  0  0  0  0  0  0  0
   -0.6645   -2.3052    0.3907 C   0  0  0  0  0  0  0  0  0  0  0  0
   -1.3400   -3.2715    1.2899 N   0  0  0  0  0  0  0  0  0  0  0  0
   -0.7651   -3.4829    2.3136 O   0  0  0  0  0  0  0  0  0  0  0  0
    0.5060   -1.1842    1.8169 H   0  0  0  0  0  0  0  0  0  0  0  0
    1.3805   -2.5069    1.0526 H   0  0  0  0  0  0  0  0  0  0  0  0
   -1.4276   -1.5426    0.2041 H   0  0  0  0  0  0  0  0  0  0  0  0
   -0.5620   -2.8518   -0.5525 H   0  0  0  0  0  0  0  0  0  0  0  0
    0.9160    0.7134   -0.0352 C   0  0  0  0  0  3  0  0  0  0  0  0
    0.9160    0.7134   -1.5572 C   0  0  0  0  0  0  0  0  0  0  0  0
    0.9160    2.0398   -2.0493 O   0  0  0  0  0  0  0  0  0  0  0  0
   -0.1668    2.7641   -1.5500 C   0  0  0  0  0  0  0  0  0  0  0  0
   -0.1555    2.8704   -0.1589 O   0  0  0  0  0  0  0  0  0  0  0  0
   -0.2234    1.5966    0.4529 C   0  0  0  0  0  0  0  0  0  0  0  0
    0.7785   -0.5070    0.4231 H   0  0  0  0  0  0  0  0  0  0  0  0
    1.8654    1.1119    0.3279 H   0  0  0  0  0  0  0  0  0  0  0  0
    1.8018    0.2279   -1.9645 H   0  0  0  0  0  0  0  0  0  0  0  0
    0.0285    0.1822   -1.9339 H   0  0  0  0  0  0  0  0  0  0  0  0
   -1.1093    2.2860   -1.8742 H   0  0  0  0  0  0  0  0  0  0  0  0
   -0.0945    3.7722   -1.9520 H   0  0  0  0  0  0  0  0  0  0  0  0
   -1.1910    1.1275    0.2177 H   0  0  0  0  0  0  0  0  0  0  0  0
   -0.1781    1.7627    1.5284 H   0  0  0  0  0  0  0  0  0  0  0  0
  1  2  1  0
  1  5  1  0
  1  6  1  0
  1 15  1  0
  2  3  1  0
  2  7  1  0
  2  8  1  0
  3  4  2  0
  9 10  1  0
  9 14  1  0
  9 16  1  0
 10 11  1  0
 10 17  1  0
 10 18  1  0
 11 12  1  0
 12 13  1  0
 12 19  1  0
 12 20  1  0
 13 14  1  0
 14 21  1  0
 14 22  1  0
M  RAD  1   9   2
M  END
>  <reaction>  (8) 
rmg_rxn_206

>  <mol_properties>  (8) 
{"0": {"label": "*3", "atom_type": "Cs"}, "1": {"label": "*4", "atom_type": "Cs"}, "8": {"label": "*1", "atom_type": "Cs"}, "9": {"label": "*0", "atom_type": "Cs"}, "14": {"label": "*2", "atom_type": "H0"}}

>  <type>  (8) 
unop_4

>  <geom_source>  (8) 
Heuristics

$$$$

     RDKit          3D

 22 21  0  0  0  0  0  0  0  0999 V2000
    0.2127   -1.7577    0.5138 C   0  0  0  0  0  0  0  0  0  0  0  0
    0.2153   -1.7345    2.0241 C   0  0  0  0  0  0  0  0  0  0  0  0
    0.0679   -3.0417    2.7081 N   0  0  0  0  0  0  0  0  0  0  0  0
   -0.0375   -3.9768    1.9749 O   0  0  0  0  0  0  0  0  0  0  0  0
    1.0297   -2.3664    0.1272 H   0  0  0  0  0  0  0  0  0  0  0  0
   -0.7194   -2.1693    0.1272 H   0  0  0  0  0  0  0  0  0  0  0  0
    1.1385   -1.3214    2.4433 H   0  0  0  0  0  0  0  0  0  0  0  0
   -0.5929   -1.1262    2.4433 H   0  0  0  0  0  0  0  0  0  0  0  0
    0.4875    0.6807   -0.4018 C   0  0  0  0  0  3  0  0  0  0  0  0
    0.4875    0.6807   -1.9238 C   0  0  0  0  0  0  0  0  0  0  0  0
    0.4875    2.0070   -2.4159 O   0  0  0  0  0  0  0  0  0  0  0  0
   -0.5953    2.7314   -1.9166 C   0  0  0  0  0  0  0  0  0  0  0  0
   -0.5840    2.8376   -0.5256 O   0  0  0  0  0  0  0  0  0  0  0  0
   -0.6519    1.5639    0.0863 C   0  0  0  0  0  0  0  0  0  0  0  0
    0.3499   -0.5397    0.0564 H   0  0  0  0  0  0  0  0  0  0  0  0
    1.4368    1.0792   -0.0388 H   0  0  0  0  0  0  0  0  0  0  0  0
    1.3733    0.1951   -2.3312 H   0  0  0  0  0  0  0  0  0  0  0  0
   -0.4000    0.1494   -2.3006 H   0  0  0  0  0  0  0  0  0  0  0  0
   -1.5379    2.2533   -2.2408 H   0  0  0  0  0  0  0  0  0  0  0  0
   -0.5230    3.7395   -2.3186 H   0  0  0  0  0  0  0  0  0  0  0  0
   -1.6196    1.0948   -0.1490 H   0  0  0  0  0  0  0  0  0  0  0  0
   -0.6066    1.7299    1.1618 H   0  0  0  0  0  0  0  0  0  0  0  0
  1  2  1  0
  1  5  1  0
  1  6  1  0
  1 15  1  0
  2  3  1  0
  2  7  1  0
  2  8  1  0
  3  4  2  0
  9 10  1  0
  9 14  1  0
  9 16  1  0
 10 11  1  0
 10 17  1  0
 10 18  1  0
 11 12  1  0
 12 13  1  0
 12 19  1  0
 12 20  1  0
 13 14  1  0
 14 21  1  0
 14 22  1  0
M  RAD  1   9   2
M  END
>  <reaction>  (9) 
rmg_rxn_206

>  <mol_properties>  (9) 
{"0": {"label": "*3", "atom_type": "Cs"}, "1": {"label": "*4", "atom_type": "Cs"}, "8": {"label": "*1", "atom_type": "Cs"}, "9": {"label": "*0", "atom_type": "Cs"}, "14": {"label": "*2", "atom_type": "H0"}}

>  <type>  (9) 
unop_5

>  <geom_source>  (9) 
Heuristics

$$$$

     RDKit          3D

 22 21  0  0  0  0  0  0  0  0999 V2000
    0.5898   -1.8324    0.6532 C   0  0  0  0  0  0  0  0  0  0  0  0
   -0.8775   -2.1442    0.8302 C   0  0  0  0  0  0  0  0  0  0  0  0
   -1.2484   -2.9328    2.0297 N   0  0  0  0  0  0  0  0  0  0  0  0
   -0.3302   -3.2353    2.7286 O   0  0  0  0  0  0  0  0  0  0  0  0
    0.9747   -1.2557    1.4940 H   0  0  0  0  0  0  0  0  0  0  0  0
    1.1808   -2.7450    0.5786 H   0  0  0  0  0  0  0  0  0  0  0  0
   -1.4992   -1.2459    0.9040 H   0  0  0  0  0  0  0  0  0  0  0  0
   -1.2952   -2.7201   -0.0021 H   0  0  0  0  0  0  0  0  0  0  0  0
    0.8646    0.6059   -0.2623 C   0  0  0  0  0  3  0  0  0  0  0  0
    0.8646    0.6059   -1.7844 C   0  0  0  0  0  0  0  0  0  0  0  0
    0.8646    1.9323   -2.2765 O   0  0  0  0  0  0  0  0  0  0  0  0
   -0.2182    2.6566   -1.7772 C   0  0  0  0  0  0  0  0  0  0  0  0
   -0.2069    2.7629   -0.3861 O   0  0  0  0  0  0  0  0  0  0  0  0
   -0.2748    1.4892    0.2258 C   0  0  0  0  0  0  0  0  0  0  0  0
    0.7271   -0.6144    0.1959 H   0  0  0  0  0  0  0  0  0  0  0  0
    1.8140    1.0044    0.1007 H   0  0  0  0  0  0  0  0  0  0  0  0
    1.7504    0.1204   -2.1917 H   0  0  0  0  0  0  0  0  0  0  0  0
   -0.0229    0.0747   -2.1611 H   0  0  0  0  0  0  0  0  0  0  0  0
   -1.1607    2.1785   -2.1014 H   0  0  0  0  0  0  0  0  0  0  0  0
   -0.1459    3.6647   -2.1791 H   0  0  0  0  0  0  0  0  0  0  0  0
   -1.2424    1.0200   -0.0095 H   0  0  0  0  0  0  0  0  0  0  0  0
   -0.2295    1.6552    1.3012 H   0  0  0  0  0  0  0  0  0  0  0  0
  1  2  1  0
  1  5  1  0
  1  6  1  0
  1 15  1  0
  2  3  1  0
  2  7  1  0
  2  8  1  0
  3  4  2  0
  9 10  1  0
  9 14  1  0
  9 16  1  0
 10 11  1  0
 10 17  1  0
 10 18  1  0
 11 12  1  0
 12 13  1  0
 12 19  1  0
 12 20  1  0
 13 14  1  0
 14 21  1  0
 14 22  1  0
M  RAD  1   9   2
M  END
>  <reaction>  (10) 
rmg_rxn_206

>  <mol_properties>  (10) 
{"0": {"label": "*3", "atom_type": "Cs"}, "1": {"label": "*4", "atom_type": "Cs"}, "8": {"label": "*1", "atom_type": "Cs"}, "9": {"label": "*0", "atom_type": "Cs"}, "14": {"label": "*2", "atom_type": "H0"}}

>  <type>  (10) 
unop_6

>  <geom_source>  (10) 
Heuristics

$$$$

     RDKit          3D

 22 21  0  0  0  0  0  0  0  0999 V2000
    0.4153   -1.8694    0.5031 C   0  0  0  0  0  0  0  0  0  0  0  0
   -0.8347   -1.9553    1.3467 C   0  0  0  0  0  0  0  0  0  0  0  0
   -0.7517   -2.7840    2.5735 N   0  0  0  0  0  0  0  0  0  0  0  0
    0.3103   -3.2959    2.7561 O   0  0  0  0  0  0  0  0  0  0  0  0
    1.2445   -1.4449    1.0687 H   0  0  0  0  0  0  0  0  0  0  0  0
    0.7228   -2.8542    0.1521 H   0  0  0  0  0  0  0  0  0  0  0  0
   -1.1718   -0.9795    1.7114 H   0  0  0  0  0  0  0  0  0  0  0  0
   -1.6883   -2.3745    0.8041 H   0  0  0  0  0  0  0  0  0  0  0  0
    0.6902    0.5690   -0.4125 C   0  0  0  0  0  3  0  0  0  0  0  0
    0.6902    0.5690   -1.9345 C   0  0  0  0  0  0  0  0  0  0  0  0
    0.6902    1.8953   -2.4266 O   0  0  0  0  0  0  0  0  0  0  0  0
   -0.3926    2.6197   -1.9273 C   0  0  0  0  0  0  0  0  0  0  0  0
   -0.3814    2.7259   -0.5362 O   0  0  0  0  0  0  0  0  0  0  0  0
   -0.4493    1.4522    0.0756 C   0  0  0  0  0  0  0  0  0  0  0  0
    0.5526   -0.6514    0.0458 H   0  0  0  0  0  0  0  0  0  0  0  0
    1.6395    0.9675   -0.0494 H   0  0  0  0  0  0  0  0  0  0  0  0
    1.5759    0.0834   -2.3418 H   0  0  0  0  0  0  0  0  0  0  0  0
   -0.1974    0.0377   -2.3112 H   0  0  0  0  0  0  0  0  0  0  0  0
   -1.3352    2.1416   -2.2515 H   0  0  0  0  0  0  0  0  0  0  0  0
   -0.3204    3.6278   -2.3293 H   0  0  0  0  0  0  0  0  0  0  0  0
   -1.4169    0.9831   -0.1596 H   0  0  0  0  0  0  0  0  0  0  0  0
   -0.4040    1.6182    1.1511 H   0  0  0  0  0  0  0  0  0  0  0  0
  1  2  1  0
  1  5  1  0
  1  6  1  0
  1 15  1  0
  2  3  1  0
  2  7  1  0
  2  8  1  0
  3  4  2  0
  9 10  1  0
  9 14  1  0
  9 16  1  0
 10 11  1  0
 10 17  1  0
 10 18  1  0
 11 12  1  0
 12 13  1  0
 12 19  1  0
 12 20  1  0
 13 14  1  0
 14 21  1  0
 14 22  1  0
M  RAD  1   9   2
M  END
>  <reaction>  (11) 
rmg_rxn_206

>  <mol_properties>  (11) 
{"0": {"label": "*3", "atom_type": "Cs"}, "1": {"label": "*4", "atom_type": "Cs"}, "8": {"label": "*1", "atom_type": "Cs"}, "9": {"label": "*0", "atom_type": "Cs"}, "14": {"label": "*2", "atom_type": "H0"}}

>  <type>  (11) 
unop_7

>  <geom_source>  (11) 
Heuristics

$$$$

     RDKit          3D

 22 21  0  0  0  0  0  0  0  0999 V2000
   -0.1717   -1.7466    0.6532 C   0  0  0  0  0  0  0  0  0  0  0  0
    1.1894   -2.3772    0.8302 C   0  0  0  0  0  0  0  0  0  0  0  0
    1.3755   -3.2286    2.0297 N   0  0  0  0  0  0  0  0  0  0  0  0
    0.4129   -3.3191    2.7286 O   0  0  0  0  0  0  0  0  0  0  0  0
   -0.9510   -2.5047    0.5786 H   0  0  0  0  0  0  0  0  0  0  0  0
   -0.4185   -1.0986    1.4940 H   0  0  0  0  0  0  0  0  0  0  0  0
    1.4684   -3.0316   -0.0021 H   0  0  0  0  0  0  0  0  0  0  0  0
    1.9955   -1.6398    0.9040 H   0  0  0  0  0  0  0  0  0  0  0  0
    0.1032    0.6918   -0.2623 C   0  0  0  0  0  3  0  0  0  0  0  0
    0.1032    0.6918   -1.7844 C   0  0  0  0  0  0  0  0  0  0  0  0
    0.1032    2.0181   -2.2765 O   0  0  0  0  0  0  0  0  0  0  0  0
   -0.9796    2.7425   -1.7772 C   0  0  0  0  0  0  0  0  0  0  0  0
   -0.9683    2.8487   -0.3861 O   0  0  0  0  0  0  0  0  0  0  0  0
   -1.0362    1.5750    0.2258 C   0  0  0  0  0  0  0  0  0  0  0  0
   -0.0344   -0.5286    0.1959 H   0  0  0  0  0  0  0  0  0  0  0  0
    1.0525    1.0903    0.1007 H   0  0  0  0  0  0  0  0  0  0  0  0
    0.9889    0.2062   -2.1917 H   0  0  0  0  0  0  0  0  0  0  0  0
   -0.7843    0.1605   -2.1611 H   0  0  0  0  0  0  0  0  0  0  0  0
   -1.9222    2.2644   -2.1014 H   0  0  0  0  0  0  0  0  0  0  0  0
   -0.9073    3.7506   -2.1791 H   0  0  0  0  0  0  0  0  0  0  0  0
   -2.0039    1.1059   -0.0095 H   0  0  0  0  0  0  0  0  0  0  0  0
   -0.9909    1.7410    1.3012 H   0  0  0  0  0  0  0  0  0  0  0  0
  1  2  1  0
  1  5  1  0
  1  6  1  0
  1 15  1  0
  2  3  1  0
  2  7  1  0
  2  8  1  0
  3  4  2  0
  9 10  1  0
  9 14  1  0
  9 16  1  0
 10 11  1  0
 10 17  1  0
 10 18  1  0
 11 12  1  0
 12 13  1  0
 12 19  1  0
 12 20  1  0
 13 14  1  0
 14 21  1  0
 14 22  1  0
M  RAD  1   9   2
M  END
>  <reaction>  (12) 
rmg_rxn_206

>  <mol_properties>  (12) 
{"0": {"label": "*3", "atom_type": "Cs"}, "1": {"label": "*4", "atom_type": "Cs"}, "8": {"label": "*1", "atom_type": "Cs"}, "9": {"label": "*0", "atom_type": "Cs"}, "14": {"label": "*2", "atom_type": "H0"}}

>  <type>  (12) 
unop_8

>  <geom_source>  (12) 
Heuristics

$$$$

     RDKit          3D

 22 21  0  0  0  0  0  0  0  0999 V2000
    0.5147   -1.5938    1.0912 C   0  0  0  0  0  0  0  0  0  0  0  0
   -0.2938   -2.4134    0.1134 C   0  0  0  0  0  0  0  0  0  0  0  0
   -0.8974   -3.6632    0.6351 N   0  0  0  0  0  0  0  0  0  0  0  0
   -0.6713   -3.8813    1.7859 O   0  0  0  0  0  0  0  0  0  0  0  0
   -0.0942   -1.2755    1.9372 H   0  0  0  0  0  0  0  0  0  0  0  0
    1.3557   -2.1649    1.4839 H   0  0  0  0  0  0  0  0  0  0  0  0
   -1.1450   -1.8646   -0.3027 H   0  0  0  0  0  0  0  0  0  0  0  0
    0.2902   -2.7450   -0.7514 H   0  0  0  0  0  0  0  0  0  0  0  0
    0.7895    0.8445    0.1756 C   0  0  0  0  0  3  0  0  0  0  0  0
    0.7895    0.8445   -1.3464 C   0  0  0  0  0  0  0  0  0  0  0  0
    0.7895    2.1709   -1.8385 O   0  0  0  0  0  0  0  0  0  0  0  0
   -0.2933    2.8952   -1.3392 C   0  0  0  0  0  0  0  0  0  0  0  0
   -0.2820    3.0015    0.0519 O   0  0  0  0  0  0  0  0  0  0  0  0
   -0.3499    1.7278    0.6637 C   0  0  0  0  0  0  0  0  0  0  0  0
    0.6520   -0.3758    0.6339 H   0  0  0  0  0  0  0  0  0  0  0  0
    1.7389    1.2431    0.5387 H   0  0  0  0  0  0  0  0  0  0  0  0
    1.6753    0.3590   -1.7537 H   0  0  0  0  0  0  0  0  0  0  0  0
   -0.0980    0.3133   -1.7231 H   0  0  0  0  0  0  0  0  0  0  0  0
   -1.2359    2.4172   -1.6634 H   0  0  0  0  0  0  0  0  0  0  0  0
   -0.2210    3.9034   -1.7412 H   0  0  0  0  0  0  0  0  0  0  0  0
   -1.3176    1.2587    0.4285 H   0  0  0  0  0  0  0  0  0  0  0  0
   -0.3046    1.8938    1.7392 H   0  0  0  0  0  0  0  0  0  0  0  0
  1  2  1  0
  1  5  1  0
  1  6  1  0
  1 15  1  0
  2  3  1  0
  2  7  1  0
  2  8  1  0
  3  4  2  0
  9 10  1  0
  9 14  1  0
  9 16  1  0
 10 11  1  0
 10 17  1  0
 10 18  1  0
 11 12  1  0
 12 13  1  0
 12 19  1  0
 12 20  1  0
 13 14  1  0
 14 21  1  0
 14 22  1  0
M  RAD  1   9   2
M  END
>  <reaction>  (13) 
rmg_rxn_206

>  <mol_properties>  (13) 
{"0": {"label": "*3", "atom_type": "Cs"}, "1": {"label": "*4", "atom_type": "Cs"}, "8": {"label": "*1", "atom_type": "Cs"}, "9": {"label": "*0", "atom_type": "Cs"}, "14": {"label": "*2", "atom_type": "H0"}}

>  <type>  (13) 
unop_9

>  <geom_source>  (13) 
Heuristics

$$$$

     RDKit          3D

 22 21  0  0  0  0  0  0  0  0999 V2000
   -0.1978   -1.6303    0.8804 C   0  0  0  0  0  0  0  0  0  0  0  0
    0.9459   -2.4868    0.3907 C   0  0  0  0  0  0  0  0  0  0  0  0
    1.3894   -3.5791    1.2899 N   0  0  0  0  0  0  0  0  0  0  0  0
    0.7818   -3.6572    2.3136 O   0  0  0  0  0  0  0  0  0  0  0  0
   -1.0927   -2.2281    1.0526 H   0  0  0  0  0  0  0  0  0  0  0  0
    0.0544   -1.1333    1.8169 H   0  0  0  0  0  0  0  0  0  0  0  0
    0.7243   -2.9968   -0.5525 H   0  0  0  0  0  0  0  0  0  0  0  0
    1.8597   -1.9131    0.2041 H   0  0  0  0  0  0  0  0  0  0  0  0
    0.0770    0.8080   -0.0352 C   0  0  0  0  0  3  0  0  0  0  0  0
    0.0770    0.8080   -1.5572 C   0  0  0  0  0  0  0  0  0  0  0  0
    0.0770    2.1344   -2.0493 O   0  0  0  0  0  0  0  0  0  0  0  0
   -1.0058    2.8587   -1.5500 C   0  0  0  0  0  0  0  0  0  0  0  0
   -0.9945    2.9650   -0.1589 O   0  0  0  0  0  0  0  0  0  0  0  0
   -1.0624    1.6912    0.4529 C   0  0  0  0  0  0  0  0  0  0  0  0
   -0.0606   -0.4124    0.4231 H   0  0  0  0  0  0  0  0  0  0  0  0
    1.0263    1.2065    0.3279 H   0  0  0  0  0  0  0  0  0  0  0  0
    0.9628    0.3225   -1.9645 H   0  0  0  0  0  0  0  0  0  0  0  0
   -0.8105    0.2767   -1.9339 H   0  0  0  0  0  0  0  0  0  0  0  0
   -1.9484    2.3806   -1.8742 H   0  0  0  0  0  0  0  0  0  0  0  0
   -0.9335    3.8668   -1.9520 H   0  0  0  0  0  0  0  0  0  0  0  0
   -2.0301    1.2221    0.2177 H   0  0  0  0  0  0  0  0  0  0  0  0
   -1.0171    1.8572    1.5284 H   0  0  0  0  0  0  0  0  0  0  0  0
  1  2  1  0
  1  5  1  0
  1  6  1  0
  1 15  1  0
  2  3  1  0
  2  7  1  0
  2  8  1  0
  3  4  2  0
  9 10  1  0
  9 14  1  0
  9 16  1  0
 10 11  1  0
 10 17  1  0
 10 18  1  0
 11 12  1  0
 12 13  1  0
 12 19  1  0
 12 20  1  0
 13 14  1  0
 14 21  1  0
 14 22  1  0
M  RAD  1   9   2
M  END
>  <reaction>  (14) 
rmg_rxn_206

>  <mol_properties>  (14) 
{"0": {"label": "*3", "atom_type": "Cs"}, "1": {"label": "*4", "atom_type": "Cs"}, "8": {"label": "*1", "atom_type": "Cs"}, "9": {"label": "*0", "atom_type": "Cs"}, "14": {"label": "*2", "atom_type": "H0"}}

>  <type>  (14) 
unop_10

>  <geom_source>  (14) 
Heuristics

$$$$

     RDKit          3D

 22 21  0  0  0  0  0  0  0  0999 V2000
    0.2391   -1.8180    0.4787 C   0  0  0  0  0  0  0  0  0  0  0  0
   -0.4728   -1.7813    1.8104 C   0  0  0  0  0  0  0  0  0  0  0  0
   -0.1728   -2.8850    2.7539 N   0  0  0  0  0  0  0  0  0  0  0  0
    0.6093   -3.6882    2.3461 O   0  0  0  0  0  0  0  0  0  0  0  0
    1.3207   -1.7853    0.6086 H   0  0  0  0  0  0  0  0  0  0  0  0
   -0.0015   -2.7268   -0.0724 H   0  0  0  0  0  0  0  0  0  0  0  0
   -0.2543   -0.8764    2.3869 H   0  0  0  0  0  0  0  0  0  0  0  0
   -1.5630   -1.8085    1.7128 H   0  0  0  0  0  0  0  0  0  0  0  0
    0.5140    0.6204   -0.4368 C   0  0  0  0  0  3  0  0  0  0  0  0
    0.5140    0.6204   -1.9589 C   0  0  0  0  0  0  0  0  0  0  0  0
    0.5140    1.9467   -2.4510 O   0  0  0  0  0  0  0  0  0  0  0  0
   -0.5688    2.6711   -1.9517 C   0  0  0  0  0  0  0  0  0  0  0  0
   -0.5576    2.7773   -0.5606 O   0  0  0  0  0  0  0  0  0  0  0  0
   -0.6254    1.5036    0.0513 C   0  0  0  0  0  0  0  0  0  0  0  0
    0.3764   -0.6000    0.0214 H   0  0  0  0  0  0  0  0  0  0  0  0
    1.4633    1.0189   -0.0738 H   0  0  0  0  0  0  0  0  0  0  0  0
    1.3997    0.1348   -2.3662 H   0  0  0  0  0  0  0  0  0  0  0  0
   -0.3736    0.0891   -2.3356 H   0  0  0  0  0  0  0  0  0  0  0  0
   -1.5114    2.1930   -2.2759 H   0  0  0  0  0  0  0  0  0  0  0  0
   -0.4966    3.6792   -2.3536 H   0  0  0  0  0  0  0  0  0  0  0  0
   -1.5931    1.0345   -0.1840 H   0  0  0  0  0  0  0  0  0  0  0  0
   -0.5802    1.6696    1.1267 H   0  0  0  0  0  0  0  0  0  0  0  0
  1  2  1  0
  1  5  1  0
  1  6  1  0
  1 15  1  0
  2  3  1  0
  2  7  1  0
  2  8  1  0
  3  4  2  0
  9 10  1  0
  9 14  1  0
  9 16  1  0
 10 11  1  0
 10 17  1  0
 10 18  1  0
 11 12  1  0
 12 13  1  0
 12 19  1  0
 12 20  1  0
 13 14  1  0
 14 21  1  0
 14 22  1  0
M  RAD  1   9   2
M  END
>  <reaction>  (15) 
rmg_rxn_206

>  <mol_properties>  (15) 
{"0": {"label": "*3", "atom_type": "Cs"}, "1": {"label": "*4", "atom_type": "Cs"}, "8": {"label": "*1", "atom_type": "Cs"}, "9": {"label": "*0", "atom_type": "Cs"}, "14": {"label": "*2", "atom_type": "H0"}}

>  <type>  (15) 
unop_11

>  <geom_source>  (15) 
Heuristics

$$$$

     RDKit          3D

 22 21  0  0  0  0  0  0  0  0999 V2000
    0.2405   -1.5109    1.1792 C   0  0  0  0  0  0  0  0  0  0  0  0
    0.1316   -2.4765    0.0228 C   0  0  0  0  0  0  0  0  0  0  0  0
   -0.0299   -3.9095    0.3677 N   0  0  0  0  0  0  0  0  0  0  0  0
   -0.0557   -4.1387    1.5382 O   0  0  0  0  0  0  0  0  0  0  0  0
   -0.6492   -1.5462    1.8077 H   0  0  0  0  0  0  0  0  0  0  0  0
    1.1000   -1.7433    1.8077 H   0  0  0  0  0  0  0  0  0  0  0  0
   -0.7214   -2.2660   -0.6306 H   0  0  0  0  0  0  0  0  0  0  0  0
    1.0101   -2.4612   -0.6306 H   0  0  0  0  0  0  0  0  0  0  0  0
    0.5153    0.9274    0.2637 C   0  0  0  0  0  3  0  0  0  0  0  0
    0.5153    0.9274   -1.2584 C   0  0  0  0  0  0  0  0  0  0  0  0
    0.5153    2.2538   -1.7505 O   0  0  0  0  0  0  0  0  0  0  0  0
   -0.5675    2.9781   -1.2512 C   0  0  0  0  0  0  0  0  0  0  0  0
   -0.5562    3.0844    0.1399 O   0  0  0  0  0  0  0  0  0  0  0  0
   -0.6241    1.8106    0.7518 C   0  0  0  0  0  0  0  0  0  0  0  0
    0.3778   -0.2930    0.7219 H   0  0  0  0  0  0  0  0  0  0  0  0
    1.4647    1.3259    0.6267 H   0  0  0  0  0  0  0  0  0  0  0  0
    1.4011    0.4419   -1.6657 H   0  0  0  0  0  0  0  0  0  0  0  0
   -0.3722    0.3961   -1.6351 H   0  0  0  0  0  0  0  0  0  0  0  0
   -1.5101    2.5000   -1.5754 H   0  0  0  0  0  0  0  0  0  0  0  0
   -0.4952    3.9862   -1.6531 H   0  0  0  0  0  0  0  0  0  0  0  0
   -1.5918    1.3415    0.5165 H   0  0  0  0  0  0  0  0  0  0  0  0
   -0.5788    1.9766    1.8272 H   0  0  0  0  0  0  0  0  0  0  0  0
  1  2  1  0
  1  5  1  0
  1  6  1  0
  1 15  1  0
  2  3  1  0
  2  7  1  0
  2  8  1  0
  3  4  2  0
  9 10  1  0
  9 14  1  0
  9 16  1  0
 10 11  1  0
 10 17  1  0
 10 18  1  0
 11 12  1  0
 12 13  1  0
 12 19  1  0
 12 20  1  0
 13 14  1  0
 14 21  1  0
 14 22  1  0
M  RAD  1   9   2
M  END
>  <reaction>  (16) 
rmg_rxn_206

>  <mol_properties>  (16) 
{"0": {"label": "*3", "atom_type": "Cs"}, "1": {"label": "*4", "atom_type": "Cs"}, "8": {"label": "*1", "atom_type": "Cs"}, "9": {"label": "*0", "atom_type": "Cs"}, "14": {"label": "*2", "atom_type": "H0"}}

>  <type>  (16) 
unop_12

>  <geom_source>  (16) 
Heuristics

$$$$

     RDKit          3D

 22 21  0  0  0  0  0  0  0  0999 V2000
    2.4473    0.7515   -0.9313 O   0  0  0  0  0  0  0  0  0  0  0  0
    2.6794   -0.7502    0.9246 O   0  0  0  0  0  0  0  0  0  0  0  0
   -4.4776    1.4516    0.6371 O   0  0  0  0  0  0  0  0  0  0  0  0
   -4.2536    0.6129   -0.1827 N   0  0  0  0  0  0  0  0  0  0  0  0
   -2.9082    0.3739   -0.6440 C   0  0  0  0  0  0  0  0  0  0  0  0
    1.3372   -0.0700   -1.2186 C   0  0  0  0  0  0  0  0  0  0  0  0
    1.4106   -0.2338    1.2620 C   0  0  0  0  0  0  0  0  0  0  0  0
   -2.0592   -0.2341    0.4657 C   0  0  0  0  0  0  0  0  0  0  0  0
    3.3264    0.0975   -0.0205 C   0  0  0  0  0  0  0  0  0  0  0  0
    0.4954   -0.2622    0.0403 C   0  0  0  0  0  3  0  0  0  0  0  0
   -2.9411   -0.3307   -1.5013 H   0  0  0  0  0  0  0  0  0  0  0  0
   -2.4524    1.3271   -0.9886 H   0  0  0  0  0  0  0  0  0  0  0  0
   -2.5110   -1.1869    0.8150 H   0  0  0  0  0  0  0  0  0  0  0  0
   -1.9807    0.4704    1.3209 H   0  0  0  0  0  0  0  0  0  0  0  0
   -0.8653   -0.4761    0.0121 H   0  0  0  0  0  0  0  0  0  0  0  0
    0.7124    0.4223   -1.9919 H   0  0  0  0  0  0  0  0  0  0  0  0
    1.6698   -1.0529   -1.6259 H   0  0  0  0  0  0  0  0  0  0  0  0
    1.4973    0.8072    1.6480 H   0  0  0  0  0  0  0  0  0  0  0  0
    0.9681   -0.8536    2.0699 H   0  0  0  0  0  0  0  0  0  0  0  0
    4.0560   -0.5085   -0.5985 H   0  0  0  0  0  0  0  0  0  0  0  0
    3.9061    0.8697    0.5282 H   0  0  0  0  0  0  0  0  0  0  0  0
   -0.0570   -1.2250   -0.0203 H   0  0  0  0  0  0  0  0  0  0  0  0
  1  6  1  0
  1  9  1  0
  2  7  1  0
  2  9  1  0
  3  4  2  0
  4  5  1  0
  5  8  1  0
  5 11  1  0
  5 12  1  0
  6 10  1  0
  6 16  1  0
  6 17  1  0
  7 10  1  0
  7 18  1  0
  7 19  1  0
  8 13  1  0
  8 14  1  0
  8 15  1  0
  9 20  1  0
  9 21  1  0
 10 22  1  0
M  RAD  1  10   2
M  END
>  <reaction>  (17) 
rmg_rxn_206

>  <mol_properties>  (17) 
{"0": {"label": "*3", "atom_type": "Cs"}, "1": {"label": "*4", "atom_type": "Cs"}, "8": {"label": "*1", "atom_type": "Cs"}, "9": {"label": "*0", "atom_type": "Cs"}, "14": {"label": "*2", "atom_type": "H0"}}

>  <type>  (17) 
unop_13

>  <geom_source>  (17) 
AutoTST

$$$$

     RDKit          3D

 22 21  0  0  0  0  0  0  0  0999 V2000
   -0.0453   -1.5307    1.0912 C   0  0  0  0  0  0  0  0  0  0  0  0
    0.5604   -2.5097    0.1134 C   0  0  0  0  0  0  0  0  0  0  0  0
    0.8707   -3.8625    0.6351 N   0  0  0  0  0  0  0  0  0  0  0  0
    0.6017   -4.0248    1.7859 O   0  0  0  0  0  0  0  0  0  0  0  0
   -0.9923   -1.9002    1.4839 H   0  0  0  0  0  0  0  0  0  0  0  0
    0.6191   -1.3559    1.9372 H   0  0  0  0  0  0  0  0  0  0  0  0
   -0.0827   -2.7029   -0.7514 H   0  0  0  0  0  0  0  0  0  0  0  0
    1.5124   -2.1641   -0.3027 H   0  0  0  0  0  0  0  0  0  0  0  0
    0.2295    0.9077    0.1756 C   0  0  0  0  0  3  0  0  0  0  0  0
    0.2295    0.9077   -1.3464 C   0  0  0  0  0  0  0  0  0  0  0  0
    0.2295    2.2340   -1.8385 O   0  0  0  0  0  0  0  0  0  0  0  0
   -0.8532    2.9584   -1.3392 C   0  0  0  0  0  0  0  0  0  0  0  0
   -0.8420    3.0646    0.0519 O   0  0  0  0  0  0  0  0  0  0  0  0
   -0.9099    1.7909    0.6637 C   0  0  0  0  0  0  0  0  0  0  0  0
    0.0920   -0.3127    0.6339 H   0  0  0  0  0  0  0  0  0  0  0  0
    1.1789    1.3062    0.5386 H   0  0  0  0  0  0  0  0  0  0  0  0
    1.1153    0.4222   -1.7537 H   0  0  0  0  0  0  0  0  0  0  0  0
   -0.6580    0.3764   -1.7231 H   0  0  0  0  0  0  0  0  0  0  0  0
   -1.7958    2.4803   -1.6634 H   0  0  0  0  0  0  0  0  0  0  0  0
   -0.7810    3.9665   -1.7412 H   0  0  0  0  0  0  0  0  0  0  0  0
   -1.8775    1.3218    0.4284 H   0  0  0  0  0  0  0  0  0  0  0  0
   -0.8646    1.9569    1.7392 H   0  0  0  0  0  0  0  0  0  0  0  0
  1  2  1  0
  1  5  1  0
  1  6  1  0
  1 15  1  0
  2  3  1  0
  2  7  1  0
  2  8  1  0
  3  4  2  0
  9 10  1  0
  9 14  1  0
  9 16  1  0
 10 11  1  0
 10 17  1  0
 10 18  1  0
 11 12  1  0
 12 13  1  0
 12 19  1  0
 12 20  1  0
 13 14  1  0
 14 21  1  0
 14 22  1  0
M  RAD  1   9   2
M  END
>  <reaction>  (18) 
rmg_rxn_206

>  <mol_properties>  (18) 
{"0": {"label": "*3", "atom_type": "Cs"}, "1": {"label": "*4", "atom_type": "Cs"}, "8": {"label": "*1", "atom_type": "Cs"}, "9": {"label": "*0", "atom_type": "Cs"}, "14": {"label": "*2", "atom_type": "H0"}}

>  <type>  (18) 
unop_14

>  <geom_source>  (18) 
gaussian_log

$$$$
