
     RDKit          3D

 12 11  0  0  0  0  0  0  0  0999 V2000
    1.4428    0.2441    1.3554 C   0  0  0  0  0  0  0  0  0  0  0  0
    0.3166    0.4887    0.4026 C   0  0  0  0  0  0  0  0  0  0  0  0
   -0.8306    1.0759    0.7113 C   0  0  0  0  0  0  0  0  0  0  0  0
   -1.9569    1.3205   -0.2415 C   0  0  0  0  0  0  0  0  0  0  0  0
    1.6690   -0.8228    1.4301 H   0  0  0  0  0  0  0  0  0  0  0  0
    2.3573    0.7388    1.0175 H   0  0  0  0  0  0  0  0  0  0  0  0
    1.2058    0.6125    2.3545 H   0  0  0  0  0  0  0  0  0  0  0  0
    0.4700    0.1508   -0.6205 H   0  0  0  0  0  0  0  0  0  0  0  0
   -0.9840    1.4138    1.7343 H   0  0  0  0  0  0  0  0  0  0  0  0
   -2.8714    0.8258    0.0963 H   0  0  0  0  0  0  0  0  0  0  0  0
   -2.1831    2.3874   -0.3163 H   0  0  0  0  0  0  0  0  0  0  0  0
   -1.7199    0.9521   -1.2407 H   0  0  0  0  0  0  0  0  0  0  0  0
  1  2  1  0
  1  5  1  0
  1  6  1  0
  1  7  1  0
  2  3  2  3
  2  8  1  0
  3  4  1  0
  3  9  1  0
  4 10  1  0
  4 11  1  0
  4 12  1  0
M  END
>  <reaction>  (1) 
rmg_rxn_16738

>  <mol_properties>  (1) 
{"2": {"label": "donator", "atom_type": "Cd"}, "8": {"label": "d_hydrogen", "atom_type": "H0"}}

>  <type>  (1) 
r1h

$$$$

     RDKit          3D

  7  6  0  0  0  0  0  0  0  0999 V2000
   -0.8570   -0.1273   -0.1355 C   0  0  0  0  0  0  0  0  0  0  0  0
    0.5149   -0.3703    0.3747 C   0  0  0  0  0  3  0  0  0  0  0  0
    1.4485    0.4169    0.5315 N   0  0  0  0  0  0  0  0  0  0  0  0
   -1.0355   -0.7472   -1.0151 H   0  0  0  0  0  0  0  0  0  0  0  0
   -1.5861   -0.4201    0.6211 H   0  0  0  0  0  0  0  0  0  0  0  0
   -0.9996    0.9259   -0.3940 H   0  0  0  0  0  0  0  0  0  0  0  0
    2.3199    0.0433    0.8994 H   0  0  0  0  0  0  0  0  0  0  0  0
  1  2  1  0
  1  4  1  0
  1  5  1  0
  1  6  1  0
  2  3  2  3
  3  7  1  0
M  RAD  1   2   2
M  END
>  <reaction>  (2) 
rmg_rxn_16738

>  <mol_properties>  (2) 
{"1": {"label": "acceptor", "atom_type": "Cd"}}

>  <type>  (2) 
r2

$$$$

     RDKit          3D

  8  7  0  0  0  0  0  0  0  0999 V2000
    0.9548    0.1194   -0.0790 C   0  0  0  0  0  0  0  0  0  0  0  0
   -0.4838   -0.2649    0.0193 C   0  0  0  0  0  0  0  0  0  0  0  0
   -0.8933   -1.1081    0.8664 N   0  0  0  0  0  0  0  0  0  0  0  0
    1.3360   -0.0983   -1.0800 H   0  0  0  0  0  0  0  0  0  0  0  0
    1.0698    1.1948    0.0786 H   0  0  0  0  0  0  0  0  0  0  0  0
    1.5426   -0.4219    0.6602 H   0  0  0  0  0  0  0  0  0  0  0  0
   -1.1575    0.2324   -0.6905 H   0  0  0  0  0  0  0  0  0  0  0  0
   -1.8989   -1.2455    0.7886 H   0  0  0  0  0  0  0  0  0  0  0  0
  1  2  1  0
  1  4  1  0
  1  5  1  0
  1  6  1  0
  2  3  2  3
  2  7  1  0
  3  8  1  0
M  END
>  <reaction>  (3) 
rmg_rxn_16738

>  <mol_properties>  (3) 
{"1": {"label": "acceptor", "atom_type": "Cd"}, "7": {"label": "a_hydrogen", "atom_type": "H0"}}

>  <type>  (3) 
r2h

$$$$

     RDKit          3D

 19 17  0  0  0  0  0  0  0  0999 V2000
   -1.3349    2.0907   -0.6521 C   0  0  0  0  0  0  0  0  0  0  0  0
   -0.0099    1.4304   -0.4900 C   0  0  0  0  0  0  0  0  0  0  0  0
    1.0849    1.9111   -0.8576 N   0  0  0  0  0  0  0  0  0  0  0  0
   -1.9967    1.4485   -1.2374 H   0  0  0  0  0  0  0  0  0  0  0  0
   -1.8028    2.2257    0.3256 H   0  0  0  0  0  0  0  0  0  0  0  0
   -1.2295    3.0579   -1.1443 H   0  0  0  0  0  0  0  0  0  0  0  0
    1.8683    1.2916   -0.6520 H   0  0  0  0  0  0  0  0  0  0  0  0
    0.6889   -1.9733   -1.4797 C   0  0  0  0  0  0  0  0  0  0  0  0
    0.3156   -2.0204   -0.0287 C   0  0  0  0  0  0  0  0  0  0  0  0
   -0.0519   -0.9993    0.7156 C   0  0  0  0  0  3  0  0  0  0  0  0
   -0.4420   -0.9292    2.1438 C   0  0  0  0  0  0  0  0  0  0  0  0
    1.7077   -2.3388   -1.6306 H   0  0  0  0  0  0  0  0  0  0  0  0
    0.0303   -2.6150   -2.0702 H   0  0  0  0  0  0  0  0  0  0  0  0
    0.6263   -0.9610   -1.8787 H   0  0  0  0  0  0  0  0  0  0  0  0
    0.3578   -3.0073    0.4407 H   0  0  0  0  0  0  0  0  0  0  0  0
   -0.0651    0.2802    0.0718 H   0  0  0  0  0  0  0  0  0  0  0  0
    0.2096   -0.2486    2.6972 H   0  0  0  0  0  0  0  0  0  0  0  0
   -1.4643   -0.5590    2.2555 H   0  0  0  0  0  0  0  0  0  0  0  0
   -0.3850   -1.9151    2.6167 H   0  0  0  0  0  0  0  0  0  0  0  0
  1  2  1  0
  1  4  1  0
  1  5  1  0
  1  6  1  0
  2  3  2  3
  2 16  1  0
  3  7  1  0
  8  9  1  0
  8 12  1  0
  8 13  1  0
  8 14  1  0
  9 10  2  3
  9 15  1  0
 10 11  1  0
 11 17  1  0
 11 18  1  0
 11 19  1  0
M  RAD  1  10   2
M  END
>  <reaction>  (4) 
rmg_rxn_16738

>  <mol_properties>  (4) 
{"1": {"label": "*1", "atom_type": "Cd"}, "2": {"label": "*0", "atom_type": "N3d"}, "8": {"label": "*4", "atom_type": "Cd"}, "9": {"label": "*3", "atom_type": "Cd"}, "15": {"label": "*2", "atom_type": "H0"}}

>  <type>  (4) 
ts

$$$$

     RDKit          3D

 19 17  0  0  0  0  0  0  0  0999 V2000
   -2.1702   -0.3419    1.1553 C   0  0  0  0  0  0  0  0  0  0  0  0
   -1.5195   -0.0296   -0.1365 C   0  0  0  0  0  3  0  0  0  0  0  0
   -2.0970    0.5127   -1.0956 N   0  0  0  0  0  0  0  0  0  0  0  0
   -1.6371    0.1707    1.9550 H   0  0  0  0  0  0  0  0  0  0  0  0
   -3.2183   -0.0421    1.1617 H   0  0  0  0  0  0  0  0  0  0  0  0
   -2.0968   -1.4124    1.3426 H   0  0  0  0  0  0  0  0  0  0  0  0
   -1.5681    0.6924   -1.9429 H   0  0  0  0  0  0  0  0  0  0  0  0
    1.4809    1.8989    0.2446 C   0  0  0  0  0  0  0  0  0  0  0  0
    1.8974    0.4698    0.0954 C   0  0  0  0  0  0  0  0  0  0  0  0
    1.0768   -0.5442   -0.0741 C   0  0  0  0  0  0  0  0  0  0  0  0
    1.4314   -1.9794   -0.2247 C   0  0  0  0  0  0  0  0  0  0  0  0
    0.3994    2.0007    0.1919 H   0  0  0  0  0  0  0  0  0  0  0  0
    1.8239    2.2938    1.2012 H   0  0  0  0  0  0  0  0  0  0  0  0
    1.9291    2.5068   -0.5415 H   0  0  0  0  0  0  0  0  0  0  0  0
    2.9753    0.3081    0.1379 H   0  0  0  0  0  0  0  0  0  0  0  0
   -0.1904   -0.3100   -0.1190 H   0  0  0  0  0  0  0  0  0  0  0  0
    0.9828   -2.5660    0.5778 H   0  0  0  0  0  0  0  0  0  0  0  0
    1.0501   -2.3666   -1.1702 H   0  0  0  0  0  0  0  0  0  0  0  0
    2.5126   -2.1271   -0.1991 H   0  0  0  0  0  0  0  0  0  0  0  0
  1  2  1  0
  1  4  1  0
  1  5  1  0
  1  6  1  0
  2  3  2  3
  3  7  1  0
  8  9  1  0
  8 12  1  0
  8 13  1  0
  8 14  1  0
  9 10  2  3
  9 15  1  0
 10 11  1  0
 10 16  1  0
 11 17  1  0
 11 18  1  0
 11 19  1  0
M  RAD  1   2   2
M  END
>  <reaction>  (5) 
rmg_rxn_16738

>  <mol_properties>  (5) 
{"1": {"label": "*1", "atom_type": "Cd"}, "2": {"label": "*0", "atom_type": "N3d"}, "8": {"label": "*4", "atom_type": "Cd"}, "9": {"label": "*3", "atom_type": "Cd"}, "15": {"label": "*2", "atom_type": "H0"}}

>  <type>  (5) 
unop_1

>  <geom_source>  (5) 
crest_best.xyz

$$$$

     RDKit          3D

 19 17  0  0  0  0  0  0  0  0999 V2000
   -1.1646    2.3261   -0.1646 C   0  0  0  0  0  0  0  0  0  0  0  0
    0.0007    1.4499   -0.4829 C   0  0  0  0  0  3  0  0  0  0  0  0
    1.1788    1.9021   -0.5452 N   0  0  0  0  0  0  0  0  0  0  0  0
   -1.8927    2.2965   -0.9793 H   0  0  0  0  0  0  0  0  0  0  0  0
   -1.6749    1.9647    0.7318 H   0  0  0  0  0  0  0  0  0  0  0  0
   -0.8353    3.3518   -0.0077 H   0  0  0  0  0  0  0  0  0  0  0  0
    1.8420    1.1642   -0.7726 H   0  0  0  0  0  0  0  0  0  0  0  0
    0.0007   -1.9862   -1.5821 C   0  0  0  0  0  0  0  0  0  0  0  0
    0.0007   -1.9862   -0.0867 C   0  0  0  0  0  0  0  0  0  0  0  0
    0.0007   -0.9030    0.6767 C   0  0  0  0  0  0  0  0  0  0  0  0
    0.0007   -0.9030    2.1720 C   0  0  0  0  0  0  0  0  0  0  0  0
    0.8786   -2.5062   -1.9746 H   0  0  0  0  0  0  0  0  0  0  0  0
   -0.8772   -2.5062   -1.9746 H   0  0  0  0  0  0  0  0  0  0  0  0
    0.0007   -0.9704   -1.9800 H   0  0  0  0  0  0  0  0  0  0  0  0
    0.0007   -2.9624    0.3943 H   0  0  0  0  0  0  0  0  0  0  0  0
    0.0007    0.2684    0.0994 H   0  0  0  0  0  0  0  0  0  0  0  0
    0.8786   -0.3830    2.5646 H   0  0  0  0  0  0  0  0  0  0  0  0
   -0.8772   -0.3830    2.5646 H   0  0  0  0  0  0  0  0  0  0  0  0
    0.0007   -1.9189    2.5699 H   0  0  0  0  0  0  0  0  0  0  0  0
  1  2  1  0
  1  4  1  0
  1  5  1  0
  1  6  1  0
  2  3  2  3
  3  7  1  0
  8  9  1  0
  8 12  1  0
  8 13  1  0
  8 14  1  0
  9 10  2  3
  9 15  1  0
 10 11  1  0
 10 16  1  0
 11 17  1  0
 11 18  1  0
 11 19  1  0
M  RAD  1   2   2
M  END
>  <reaction>  (6) 
rmg_rxn_16738

>  <mol_properties>  (6) 
{"1": {"label": "*1", "atom_type": "Cd"}, "2": {"label": "*0", "atom_type": "N3d"}, "8": {"label": "*4", "atom_type": "Cd"}, "9": {"label": "*3", "atom_type": "Cd"}, "15": {"label": "*2", "atom_type": "H0"}}

>  <type>  (6) 
unop_2

>  <geom_source>  (6) 
Heuristics

$$$$

     RDKit          3D

 19 17  0  0  0  0  0  0  0  0999 V2000
   -0.6058    1.5495   -1.6726 C   0  0  0  0  0  0  0  0  0  0  0  0
    0.0670    1.4858   -0.3421 C   0  0  0  0  0  3  0  0  0  0  0  0
    0.3057    2.5249    0.3358 N   0  0  0  0  0  0  0  0  0  0  0  0
    0.0371    1.1141   -2.4419 H   0  0  0  0  0  0  0  0  0  0  0  0
   -1.5275    0.9621   -1.6580 H   0  0  0  0  0  0  0  0  0  0  0  0
   -0.8358    2.5815   -1.9315 H   0  0  0  0  0  0  0  0  0  0  0  0
    0.7675    2.2912    1.2124 H   0  0  0  0  0  0  0  0  0  0  0  0
    0.0670   -1.9504   -1.4413 C   0  0  0  0  0  0  0  0  0  0  0  0
    0.0670   -1.9504    0.0540 C   0  0  0  0  0  0  0  0  0  0  0  0
    0.0670   -0.8672    0.8174 C   0  0  0  0  0  0  0  0  0  0  0  0
    0.0670   -0.8672    2.3128 C   0  0  0  0  0  0  0  0  0  0  0  0
    0.9449   -2.4704   -1.8339 H   0  0  0  0  0  0  0  0  0  0  0  0
   -0.8109   -2.4704   -1.8339 H   0  0  0  0  0  0  0  0  0  0  0  0
    0.0670   -0.9345   -1.8392 H   0  0  0  0  0  0  0  0  0  0  0  0
    0.0670   -2.9266    0.5351 H   0  0  0  0  0  0  0  0  0  0  0  0
    0.0670    0.3043    0.2401 H   0  0  0  0  0  0  0  0  0  0  0  0
    0.9449   -0.3472    2.7053 H   0  0  0  0  0  0  0  0  0  0  0  0
   -0.8109   -0.3472    2.7053 H   0  0  0  0  0  0  0  0  0  0  0  0
    0.0670   -1.8830    2.7107 H   0  0  0  0  0  0  0  0  0  0  0  0
  1  2  1  0
  1  4  1  0
  1  5  1  0
  1  6  1  0
  2  3  2  3
  3  7  1  0
  8  9  1  0
  8 12  1  0
  8 13  1  0
  8 14  1  0
  9 10  2  3
  9 15  1  0
 10 11  1  0
 10 16  1  0
 11 17  1  0
 11 18  1  0
 11 19  1  0
M  RAD  1   2   2
M  END
>  <reaction>  (7) 
rmg_rxn_16738

>  <mol_properties>  (7) 
{"1": {"label": "*1", "atom_type": "Cd"}, "2": {"label": "*0", "atom_type": "N3d"}, "8": {"label": "*4", "atom_type": "Cd"}, "9": {"label": "*3", "atom_type": "Cd"}, "15": {"label": "*2", "atom_type": "H0"}}

>  <type>  (7) 
unop_3

>  <geom_source>  (7) 
Heuristics

$$$$

     RDKit          3D

 19 17  0  0  0  0  0  0  0  0999 V2000
   -0.7184    2.5452    0.3146 C   0  0  0  0  0  0  0  0  0  0  0  0
   -0.0456    1.4512   -0.4454 C   0  0  0  0  0  3  0  0  0  0  0  0
    0.9396    1.6737   -1.2046 N   0  0  0  0  0  0  0  0  0  0  0  0
   -1.7750    2.6006    0.0405 H   0  0  0  0  0  0  0  0  0  0  0  0
   -0.6781    2.3395    1.3873 H   0  0  0  0  0  0  0  0  0  0  0  0
   -0.2381    3.5001    0.1086 H   0  0  0  0  0  0  0  0  0  0  0  0
    1.2679    0.8135   -1.6387 H   0  0  0  0  0  0  0  0  0  0  0  0
   -0.0456   -1.9849   -1.5446 C   0  0  0  0  0  0  0  0  0  0  0  0
   -0.0456   -1.9849   -0.0493 C   0  0  0  0  0  0  0  0  0  0  0  0
   -0.0456   -0.9017    0.7141 C   0  0  0  0  0  0  0  0  0  0  0  0
   -0.0456   -0.9017    2.2095 C   0  0  0  0  0  0  0  0  0  0  0  0
    0.8323   -2.5049   -1.9372 H   0  0  0  0  0  0  0  0  0  0  0  0
   -0.9235   -2.5049   -1.9372 H   0  0  0  0  0  0  0  0  0  0  0  0
   -0.0456   -0.9691   -1.9425 H   0  0  0  0  0  0  0  0  0  0  0  0
   -0.0456   -2.9611    0.4318 H   0  0  0  0  0  0  0  0  0  0  0  0
   -0.0456    0.2697    0.1368 H   0  0  0  0  0  0  0  0  0  0  0  0
    0.8323   -0.3817    2.6020 H   0  0  0  0  0  0  0  0  0  0  0  0
   -0.9235   -0.3817    2.6020 H   0  0  0  0  0  0  0  0  0  0  0  0
   -0.0456   -1.9175    2.6074 H   0  0  0  0  0  0  0  0  0  0  0  0
  1  2  1  0
  1  4  1  0
  1  5  1  0
  1  6  1  0
  2  3  2  3
  3  7  1  0
  8  9  1  0
  8 12  1  0
  8 13  1  0
  8 14  1  0
  9 10  2  3
  9 15  1  0
 10 11  1  0
 10 16  1  0
 11 17  1  0
 11 18  1  0
 11 19  1  0
M  RAD  1   2   2
M  END
>  <reaction>  (8) 
rmg_rxn_16738

>  <mol_properties>  (8) 
{"1": {"label": "*1", "atom_type": "Cd"}, "2": {"label": "*0", "atom_type": "N3d"}, "8": {"label": "*4", "atom_type": "Cd"}, "9": {"label": "*3", "atom_type": "Cd"}, "15": {"label": "*2", "atom_type": "H0"}}

>  <type>  (8) 
unop_4

>  <geom_source>  (8) 
Heuristics

$$$$

     RDKit          3D

 19 17  0  0  0  0  0  0  0  0999 V2000
    1.0746    1.7526   -1.2940 C   0  0  0  0  0  0  0  0  0  0  0  0
   -0.0907    1.4711   -0.4053 C   0  0  0  0  0  3  0  0  0  0  0  0
   -0.6723    2.3864    0.2430 N   0  0  0  0  0  0  0  0  0  0  0  0
    1.9456    1.1784   -0.9676 H   0  0  0  0  0  0  0  0  0  0  0  0
    0.8527    1.4402   -2.3176 H   0  0  0  0  0  0  0  0  0  0  0  0
    1.3129    2.8147   -1.2810 H   0  0  0  0  0  0  0  0  0  0  0  0
   -1.4422    2.0116    0.7936 H   0  0  0  0  0  0  0  0  0  0  0  0
   -0.0907   -1.9650   -1.5045 C   0  0  0  0  0  0  0  0  0  0  0  0
   -0.0907   -1.9650   -0.0091 C   0  0  0  0  0  0  0  0  0  0  0  0
   -0.0907   -0.8818    0.7543 C   0  0  0  0  0  0  0  0  0  0  0  0
   -0.0907   -0.8818    2.2496 C   0  0  0  0  0  0  0  0  0  0  0  0
    0.7872   -2.4850   -1.8970 H   0  0  0  0  0  0  0  0  0  0  0  0
   -0.9686   -2.4850   -1.8970 H   0  0  0  0  0  0  0  0  0  0  0  0
   -0.0907   -0.9492   -1.9024 H   0  0  0  0  0  0  0  0  0  0  0  0
   -0.0907   -2.9412    0.4719 H   0  0  0  0  0  0  0  0  0  0  0  0
   -0.0907    0.2896    0.1770 H   0  0  0  0  0  0  0  0  0  0  0  0
    0.7872   -0.3618    2.6422 H   0  0  0  0  0  0  0  0  0  0  0  0
   -0.9686   -0.3618    2.6422 H   0  0  0  0  0  0  0  0  0  0  0  0
   -0.0907   -1.8976    2.6475 H   0  0  0  0  0  0  0  0  0  0  0  0
  1  2  1  0
  1  4  1  0
  1  5  1  0
  1  6  1  0
  2  3  2  3
  3  7  1  0
  8  9  1  0
  8 12  1  0
  8 13  1  0
  8 14  1  0
  9 10  2  3
  9 15  1  0
 10 11  1  0
 10 16  1  0
 11 17  1  0
 11 18  1  0
 11 19  1  0
M  RAD  1   2   2
M  END
>  <reaction>  (9) 
rmg_rxn_16738

>  <mol_properties>  (9) 
{"1": {"label": "*1", "atom_type": "Cd"}, "2": {"label": "*0", "atom_type": "N3d"}, "8": {"label": "*4", "atom_type": "Cd"}, "9": {"label": "*3", "atom_type": "Cd"}, "15": {"label": "*2", "atom_type": "H0"}}

>  <type>  (9) 
unop_5

>  <geom_source>  (9) 
Heuristics

$$$$

     RDKit          3D

 19 17  0  0  0  0  0  0  0  0999 V2000
    0.0000    2.6255    0.5265 C   0  0  0  0  0  0  0  0  0  0  0  0
    0.0000    1.4518   -0.3952 C   0  0  0  0  0  3  0  0  0  0  0  0
   -0.0000    1.5892   -1.6512 N   0  0  0  0  0  0  0  0  0  0  0  0
   -0.8783    2.5950    1.1764 H   0  0  0  0  0  0  0  0  0  0  0  0
    0.8783    2.5950    1.1764 H   0  0  0  0  0  0  0  0  0  0  0  0
    0.0000    3.5536   -0.0424 H   0  0  0  0  0  0  0  0  0  0  0  0
   -0.0000    0.6846   -2.1178 H   0  0  0  0  0  0  0  0  0  0  0  0
   -0.0000   -1.9843   -1.4945 C   0  0  0  0  0  0  0  0  0  0  0  0
   -0.0000   -1.9843    0.0009 C   0  0  0  0  0  0  0  0  0  0  0  0
   -0.0000   -0.9011    0.7643 C   0  0  0  0  0  0  0  0  0  0  0  0
   -0.0000   -0.9011    2.2597 C   0  0  0  0  0  0  0  0  0  0  0  0
    0.8779   -2.5043   -1.8870 H   0  0  0  0  0  0  0  0  0  0  0  0
   -0.8779   -2.5043   -1.8870 H   0  0  0  0  0  0  0  0  0  0  0  0
   -0.0000   -0.9685   -1.8923 H   0  0  0  0  0  0  0  0  0  0  0  0
   -0.0000   -2.9605    0.4820 H   0  0  0  0  0  0  0  0  0  0  0  0
    0.0000    0.2704    0.1870 H   0  0  0  0  0  0  0  0  0  0  0  0
    0.8779   -0.3811    2.6522 H   0  0  0  0  0  0  0  0  0  0  0  0
   -0.8779   -0.3811    2.6522 H   0  0  0  0  0  0  0  0  0  0  0  0
   -0.0000   -1.9169    2.6575 H   0  0  0  0  0  0  0  0  0  0  0  0
  1  2  1  0
  1  4  1  0
  1  5  1  0
  1  6  1  0
  2  3  2  3
  3  7  1  0
  8  9  1  0
  8 12  1  0
  8 13  1  0
  8 14  1  0
  9 10  2  3
  9 15  1  0
 10 11  1  0
 10 16  1  0
 11 17  1  0
 11 18  1  0
 11 19  1  0
M  RAD  1   2   2
M  END
>  <reaction>  (10) 
rmg_rxn_16738

>  <mol_properties>  (10) 
{"1": {"label": "*1", "atom_type": "Cd"}, "2": {"label": "*0", "atom_type": "N3d"}, "8": {"label": "*4", "atom_type": "Cd"}, "9": {"label": "*3", "atom_type": "Cd"}, "15": {"label": "*2", "atom_type": "H0"}}

>  <type>  (10) 
unop_6

>  <geom_source>  (10) 
Heuristics

$$$$

     RDKit          3D

 19 17  0  0  0  0  0  0  0  0999 V2000
    1.2839    2.0354   -0.7485 C   0  0  0  0  0  0  0  0  0  0  0  0
   -0.0617    1.4565   -0.4633 C   0  0  0  0  0  3  0  0  0  0  0  0
   -1.0185    2.1665   -0.0429 N   0  0  0  0  0  0  0  0  0  0  0  0
    2.0441    1.5424   -0.1372 H   0  0  0  0  0  0  0  0  0  0  0  0
    1.5549    1.8635   -1.7934 H   0  0  0  0  0  0  0  0  0  0  0  0
    1.2877    3.1043   -0.5424 H   0  0  0  0  0  0  0  0  0  0  0  0
   -1.8564    1.6055    0.0958 H   0  0  0  0  0  0  0  0  0  0  0  0
   -0.0617   -1.9796   -1.5625 C   0  0  0  0  0  0  0  0  0  0  0  0
   -0.0617   -1.9796   -0.0671 C   0  0  0  0  0  0  0  0  0  0  0  0
   -0.0617   -0.8964    0.6963 C   0  0  0  0  0  0  0  0  0  0  0  0
   -0.0617   -0.8964    2.1916 C   0  0  0  0  0  0  0  0  0  0  0  0
    0.8162   -2.4996   -1.9550 H   0  0  0  0  0  0  0  0  0  0  0  0
   -0.9396   -2.4996   -1.9550 H   0  0  0  0  0  0  0  0  0  0  0  0
   -0.0617   -0.9638   -1.9604 H   0  0  0  0  0  0  0  0  0  0  0  0
   -0.0617   -2.9558    0.4139 H   0  0  0  0  0  0  0  0  0  0  0  0
   -0.0617    0.2751    0.1190 H   0  0  0  0  0  0  0  0  0  0  0  0
    0.8162   -0.3764    2.5842 H   0  0  0  0  0  0  0  0  0  0  0  0
   -0.9396   -0.3764    2.5842 H   0  0  0  0  0  0  0  0  0  0  0  0
   -0.0617   -1.9122    2.5895 H   0  0  0  0  0  0  0  0  0  0  0  0
  1  2  1  0
  1  4  1  0
  1  5  1  0
  1  6  1  0
  2  3  2  3
  3  7  1  0
  8  9  1  0
  8 12  1  0
  8 13  1  0
  8 14  1  0
  9 10  2  3
  9 15  1  0
 10 11  1  0
 10 16  1  0
 11 17  1  0
 11 18  1  0
 11 19  1  0
M  RAD  1   2   2
M  END
>  <reaction>  (11) 
rmg_rxn_16738

>  <mol_properties>  (11) 
{"1": {"label": "*1", "atom_type": "Cd"}, "2": {"label": "*0", "atom_type": "N3d"}, "8": {"label": "*4", "atom_type": "Cd"}, "9": {"label": "*3", "atom_type": "Cd"}, "15": {"label": "*2", "atom_type": "H0"}}

>  <type>  (11) 
unop_7

>  <geom_source>  (11) 
Heuristics

$$$$

     RDKit          3D

 19 17  0  0  0  0  0  0  0  0999 V2000
    1.1646    2.3261   -0.1646 C   0  0  0  0  0  0  0  0  0  0  0  0
   -0.0007    1.4499   -0.4829 C   0  0  0  0  0  3  0  0  0  0  0  0
   -1.1788    1.9021   -0.5452 N   0  0  0  0  0  0  0  0  0  0  0  0
    1.6749    1.9647    0.7318 H   0  0  0  0  0  0  0  0  0  0  0  0
    1.8927    2.2965   -0.9793 H   0  0  0  0  0  0  0  0  0  0  0  0
    0.8353    3.3518   -0.0077 H   0  0  0  0  0  0  0  0  0  0  0  0
   -1.8420    1.1642   -0.7726 H   0  0  0  0  0  0  0  0  0  0  0  0
   -0.0007   -1.9862   -1.5821 C   0  0  0  0  0  0  0  0  0  0  0  0
   -0.0007   -1.9862   -0.0867 C   0  0  0  0  0  0  0  0  0  0  0  0
   -0.0007   -0.9030    0.6767 C   0  0  0  0  0  0  0  0  0  0  0  0
   -0.0007   -0.9030    2.1720 C   0  0  0  0  0  0  0  0  0  0  0  0
    0.8772   -2.5062   -1.9746 H   0  0  0  0  0  0  0  0  0  0  0  0
   -0.8786   -2.5062   -1.9746 H   0  0  0  0  0  0  0  0  0  0  0  0
   -0.0007   -0.9704   -1.9800 H   0  0  0  0  0  0  0  0  0  0  0  0
   -0.0007   -2.9624    0.3943 H   0  0  0  0  0  0  0  0  0  0  0  0
   -0.0007    0.2684    0.0994 H   0  0  0  0  0  0  0  0  0  0  0  0
    0.8772   -0.3830    2.5646 H   0  0  0  0  0  0  0  0  0  0  0  0
   -0.8786   -0.3830    2.5646 H   0  0  0  0  0  0  0  0  0  0  0  0
   -0.0007   -1.9189    2.5699 H   0  0  0  0  0  0  0  0  0  0  0  0
  1  2  1  0
  1  4  1  0
  1  5  1  0
  1  6  1  0
  2  3  2  3
  3  7  1  0
  8  9  1  0
  8 12  1  0
  8 13  1  0
  8 14  1  0
  9 10  2  3
  9 15  1  0
 10 11  1  0
 10 16  1  0
 11 17  1  0
 11 18  1  0
 11 19  1  0
M  RAD  1   2   2
M  END
>  <reaction>  (12) 
rmg_rxn_16738

>  <mol_properties>  (12) 
{"1": {"label": "*1", "atom_type": "Cd"}, "2": {"label": "*0", "atom_type": "N3d"}, "8": {"label": "*4", "atom_type": "Cd"}, "9": {"label": "*3", "atom_type": "Cd"}, "15": {"label": "*2", "atom_type": "H0"}}

>  <type>  (12) 
unop_8

>  <geom_source>  (12) 
Heuristics

$$$$

     RDKit          3D

 19 17  0  0  0  0  0  0  0  0999 V2000
   -1.2839    2.0354   -0.7485 C   0  0  0  0  0  0  0  0  0  0  0  0
    0.0617    1.4565   -0.4633 C   0  0  0  0  0  3  0  0  0  0  0  0
    1.0185    2.1665   -0.0430 N   0  0  0  0  0  0  0  0  0  0  0  0
   -1.5549    1.8635   -1.7934 H   0  0  0  0  0  0  0  0  0  0  0  0
   -2.0441    1.5424   -0.1372 H   0  0  0  0  0  0  0  0  0  0  0  0
   -1.2877    3.1043   -0.5424 H   0  0  0  0  0  0  0  0  0  0  0  0
    1.8564    1.6055    0.0958 H   0  0  0  0  0  0  0  0  0  0  0  0
    0.0617   -1.9796   -1.5625 C   0  0  0  0  0  0  0  0  0  0  0  0
    0.0617   -1.9796   -0.0671 C   0  0  0  0  0  0  0  0  0  0  0  0
    0.0617   -0.8964    0.6963 C   0  0  0  0  0  0  0  0  0  0  0  0
    0.0617   -0.8964    2.1916 C   0  0  0  0  0  0  0  0  0  0  0  0
    0.9396   -2.4996   -1.9550 H   0  0  0  0  0  0  0  0  0  0  0  0
   -0.8162   -2.4996   -1.9550 H   0  0  0  0  0  0  0  0  0  0  0  0
    0.0617   -0.9638   -1.9604 H   0  0  0  0  0  0  0  0  0  0  0  0
    0.0617   -2.9558    0.4139 H   0  0  0  0  0  0  0  0  0  0  0  0
    0.0617    0.2750    0.1190 H   0  0  0  0  0  0  0  0  0  0  0  0
    0.9396   -0.3764    2.5842 H   0  0  0  0  0  0  0  0  0  0  0  0
   -0.8162   -0.3764    2.5842 H   0  0  0  0  0  0  0  0  0  0  0  0
    0.0617   -1.9122    2.5895 H   0  0  0  0  0  0  0  0  0  0  0  0
  1  2  1  0
  1  4  1  0
  1  5  1  0
  1  6  1  0
  2  3  2  3
  3  7  1  0
  8  9  1  0
  8 12  1  0
  8 13  1  0
  8 14  1  0
  9 10  2  3
  9 15  1  0
 10 11  1  0
 10 16  1  0
 11 17  1  0
 11 18  1  0
 11 19  1  0
M  RAD  1   2   2
M  END
>  <reaction>  (13) 
rmg_rxn_16738

>  <mol_properties>  (13) 
{"1": {"label": "*1", "atom_type": "Cd"}, "2": {"label": "*0", "atom_type": "N3d"}, "8": {"label": "*4", "atom_type": "Cd"}, "9": {"label": "*3", "atom_type": "Cd"}, "15": {"label": "*2", "atom_type": "H0"}}

>  <type>  (13) 
unop_9

>  <geom_source>  (13) 
Heuristics

$$$$

     RDKit          3D

 19 17  0  0  0  0  0  0  0  0999 V2000
   -2.1702   -0.3419    1.1553 C   0  0  0  0  0  0  0  0  0  0  0  0
   -1.5195   -0.0296   -0.1365 C   0  0  0  0  0  3  0  0  0  0  0  0
   -2.0970    0.5127   -1.0956 N   0  0  0  0  0  0  0  0  0  0  0  0
   -1.6371    0.1707    1.9550 H   0  0  0  0  0  0  0  0  0  0  0  0
   -3.2183   -0.0421    1.1617 H   0  0  0  0  0  0  0  0  0  0  0  0
   -2.0968   -1.4124    1.3426 H   0  0  0  0  0  0  0  0  0  0  0  0
   -1.5681    0.6924   -1.9429 H   0  0  0  0  0  0  0  0  0  0  0  0
    1.4809    1.8989    0.2446 C   0  0  0  0  0  0  0  0  0  0  0  0
    1.8974    0.4698    0.0954 C   0  0  0  0  0  0  0  0  0  0  0  0
    1.0768   -0.5442   -0.0741 C   0  0  0  0  0  0  0  0  0  0  0  0
    1.4314   -1.9794   -0.2247 C   0  0  0  0  0  0  0  0  0  0  0  0
    0.3994    2.0007    0.1919 H   0  0  0  0  0  0  0  0  0  0  0  0
    1.8239    2.2938    1.2012 H   0  0  0  0  0  0  0  0  0  0  0  0
    1.9291    2.5068   -0.5415 H   0  0  0  0  0  0  0  0  0  0  0  0
    2.9753    0.3081    0.1379 H   0  0  0  0  0  0  0  0  0  0  0  0
   -0.1904   -0.3100   -0.1190 H   0  0  0  0  0  0  0  0  0  0  0  0
    0.9828   -2.5660    0.5778 H   0  0  0  0  0  0  0  0  0  0  0  0
    1.0501   -2.3666   -1.1702 H   0  0  0  0  0  0  0  0  0  0  0  0
    2.5126   -2.1271   -0.1991 H   0  0  0  0  0  0  0  0  0  0  0  0
  1  2  1  0
  1  4  1  0
  1  5  1  0
  1  6  1  0
  2  3  2  3
  3  7  1  0
  8  9  1  0
  8 12  1  0
  8 13  1  0
  8 14  1  0
  9 10  2  3
  9 15  1  0
 10 11  1  0
 10 16  1  0
 11 17  1  0
 11 18  1  0
 11 19  1  0
M  RAD  1   2   2
M  END
>  <reaction>  (14) 
rmg_rxn_16738

>  <mol_properties>  (14) 
{"1": {"label": "*1", "atom_type": "Cd"}, "2": {"label": "*0", "atom_type": "N3d"}, "8": {"label": "*4", "atom_type": "Cd"}, "9": {"label": "*3", "atom_type": "Cd"}, "15": {"label": "*2", "atom_type": "H0"}}

>  <type>  (14) 
unop_10

>  <geom_source>  (14) 
Heuristics

$$$$

     RDKit          3D

 19 17  0  0  0  0  0  0  0  0999 V2000
    0.6058    1.5495   -1.6726 C   0  0  0  0  0  0  0  0  0  0  0  0
   -0.0670    1.4858   -0.3421 C   0  0  0  0  0  3  0  0  0  0  0  0
   -0.3057    2.5249    0.3358 N   0  0  0  0  0  0  0  0  0  0  0  0
    1.5275    0.9621   -1.6580 H   0  0  0  0  0  0  0  0  0  0  0  0
   -0.0371    1.1141   -2.4419 H   0  0  0  0  0  0  0  0  0  0  0  0
    0.8358    2.5815   -1.9315 H   0  0  0  0  0  0  0  0  0  0  0  0
   -0.7675    2.2912    1.2124 H   0  0  0  0  0  0  0  0  0  0  0  0
   -0.0670   -1.9504   -1.4413 C   0  0  0  0  0  0  0  0  0  0  0  0
   -0.0670   -1.9504    0.0540 C   0  0  0  0  0  0  0  0  0  0  0  0
   -0.0670   -0.8672    0.8174 C   0  0  0  0  0  0  0  0  0  0  0  0
   -0.0670   -0.8672    2.3128 C   0  0  0  0  0  0  0  0  0  0  0  0
    0.8109   -2.4704   -1.8339 H   0  0  0  0  0  0  0  0  0  0  0  0
   -0.9449   -2.4704   -1.8339 H   0  0  0  0  0  0  0  0  0  0  0  0
   -0.0670   -0.9345   -1.8392 H   0  0  0  0  0  0  0  0  0  0  0  0
   -0.0670   -2.9266    0.5351 H   0  0  0  0  0  0  0  0  0  0  0  0
   -0.0670    0.3043    0.2401 H   0  0  0  0  0  0  0  0  0  0  0  0
    0.8109   -0.3472    2.7053 H   0  0  0  0  0  0  0  0  0  0  0  0
   -0.9449   -0.3472    2.7053 H   0  0  0  0  0  0  0  0  0  0  0  0
   -0.0670   -1.8830    2.7107 H   0  0  0  0  0  0  0  0  0  0  0  0
  1  2  1  0
  1  4  1  0
  1  5  1  0
  1  6  1  0
  2  3  2  3
  3  7  1  0
  8  9  1  0
  8 12  1  0
  8 13  1  0
  8 14  1  0
  9 10  2  3
  9 15  1  0
 10 11  1  0
 10 16  1  0
 11 17  1  0
 11 18  1  0
 11 19  1  0
M  RAD  1   2   2
M  END
>  <reaction>  (15) 
rmg_rxn_16738

>  <mol_properties>  (15) 
{"1": {"label": "*1", "atom_type": "Cd"}, "2": {"label": "*0", "atom_type": "N3d"}, "8": {"label": "*4", "atom_type": "Cd"}, "9": {"label": "*3", "atom_type": "Cd"}, "15": {"label": "*2", "atom_type": "H0"}}

>  <type>  (15) 
unop_11

>  <geom_source>  (15) 
Heuristics

$$$$

     RDKit          3D

 19 17  0  0  0  0  0  0  0  0999 V2000
   -1.0746    1.7526   -1.2940 C   0  0  0  0  0  0  0  0  0  0  0  0
    0.0907    1.4711   -0.4053 C   0  0  0  0  0  3  0  0  0  0  0  0
    0.6723    2.3864    0.2430 N   0  0  0  0  0  0  0  0  0  0  0  0
   -0.8527    1.4402   -2.3176 H   0  0  0  0  0  0  0  0  0  0  0  0
   -1.9456    1.1784   -0.9676 H   0  0  0  0  0  0  0  0  0  0  0  0
   -1.3129    2.8147   -1.2810 H   0  0  0  0  0  0  0  0  0  0  0  0
    1.4422    2.0116    0.7936 H   0  0  0  0  0  0  0  0  0  0  0  0
    0.0907   -1.9650   -1.5045 C   0  0  0  0  0  0  0  0  0  0  0  0
    0.0907   -1.9650   -0.0091 C   0  0  0  0  0  0  0  0  0  0  0  0
    0.0907   -0.8818    0.7543 C   0  0  0  0  0  0  0  0  0  0  0  0
    0.0907   -0.8818    2.2496 C   0  0  0  0  0  0  0  0  0  0  0  0
    0.9686   -2.4850   -1.8970 H   0  0  0  0  0  0  0  0  0  0  0  0
   -0.7872   -2.4850   -1.8970 H   0  0  0  0  0  0  0  0  0  0  0  0
    0.0907   -0.9492   -1.9024 H   0  0  0  0  0  0  0  0  0  0  0  0
    0.0907   -2.9412    0.4719 H   0  0  0  0  0  0  0  0  0  0  0  0
    0.0907    0.2896    0.1770 H   0  0  0  0  0  0  0  0  0  0  0  0
    0.9686   -0.3618    2.6422 H   0  0  0  0  0  0  0  0  0  0  0  0
   -0.7872   -0.3618    2.6422 H   0  0  0  0  0  0  0  0  0  0  0  0
    0.0907   -1.8976    2.6475 H   0  0  0  0  0  0  0  0  0  0  0  0
  1  2  1  0
  1  4  1  0
  1  5  1  0
  1  6  1  0
  2  3  2  3
  3  7  1  0
  8  9  1  0
  8 12  1  0
  8 13  1  0
  8 14  1  0
  9 10  2  3
  9 15  1  0
 10 11  1  0
 10 16  1  0
 11 17  1  0
 11 18  1  0
 11 19  1  0
M  RAD  1   2   2
M  END
>  <reaction>  (16) 
rmg_rxn_16738

>  <mol_properties>  (16) 
{"1": {"label": "*1", "atom_type": "Cd"}, "2": {"label": "*0", "atom_type": "N3d"}, "8": {"label": "*4", "atom_type": "Cd"}, "9": {"label": "*3", "atom_type": "Cd"}, "15": {"label": "*2", "atom_type": "H0"}}

>  <type>  (16) 
unop_12

>  <geom_source>  (16) 
Heuristics

$$$$

     RDKit          3D

 19 17  0  0  0  0  0  0  0  0999 V2000
    0.7184    2.5452    0.3146 C   0  0  0  0  0  0  0  0  0  0  0  0
    0.0456    1.4512   -0.4454 C   0  0  0  0  0  3  0  0  0  0  0  0
   -0.9396    1.6737   -1.2046 N   0  0  0  0  0  0  0  0  0  0  0  0
    0.6781    2.3395    1.3873 H   0  0  0  0  0  0  0  0  0  0  0  0
    1.7750    2.6006    0.0405 H   0  0  0  0  0  0  0  0  0  0  0  0
    0.2381    3.5001    0.1086 H   0  0  0  0  0  0  0  0  0  0  0  0
   -1.2679    0.8135   -1.6387 H   0  0  0  0  0  0  0  0  0  0  0  0
    0.0456   -1.9849   -1.5446 C   0  0  0  0  0  0  0  0  0  0  0  0
    0.0456   -1.9849   -0.0493 C   0  0  0  0  0  0  0  0  0  0  0  0
    0.0456   -0.9017    0.7141 C   0  0  0  0  0  0  0  0  0  0  0  0
    0.0456   -0.9017    2.2095 C   0  0  0  0  0  0  0  0  0  0  0  0
    0.9235   -2.5049   -1.9372 H   0  0  0  0  0  0  0  0  0  0  0  0
   -0.8323   -2.5049   -1.9372 H   0  0  0  0  0  0  0  0  0  0  0  0
    0.0456   -0.9691   -1.9425 H   0  0  0  0  0  0  0  0  0  0  0  0
    0.0456   -2.9611    0.4318 H   0  0  0  0  0  0  0  0  0  0  0  0
    0.0456    0.2697    0.1368 H   0  0  0  0  0  0  0  0  0  0  0  0
    0.9235   -0.3817    2.6020 H   0  0  0  0  0  0  0  0  0  0  0  0
   -0.8323   -0.3817    2.6020 H   0  0  0  0  0  0  0  0  0  0  0  0
    0.0456   -1.9175    2.6074 H   0  0  0  0  0  0  0  0  0  0  0  0
  1  2  1  0
  1  4  1  0
  1  5  1  0
  1  6  1  0
  2  3  2  3
  3  7  1  0
  8  9  1  0
  8 12  1  0
  8 13  1  0
  8 14  1  0
  9 10  2  3
  9 15  1  0
 10 11  1  0
 10 16  1  0
 11 17  1  0
 11 18  1  0
 11 19  1  0
M  RAD  1   2   2
M  END
>  <reaction>  (17) 
rmg_rxn_16738

>  <mol_properties>  (17) 
{"1": {"label": "*1", "atom_type": "Cd"}, "2": {"label": "*0", "atom_type": "N3d"}, "8": {"label": "*4", "atom_type": "Cd"}, "9": {"label": "*3", "atom_type": "Cd"}, "15": {"label": "*2", "atom_type": "H0"}}

>  <type>  (17) 
unop_13

>  <geom_source>  (17) 
Heuristics

$$$$

     RDKit          3D

 19 17  0  0  0  0  0  0  0  0999 V2000
    0.0000    1.4759   -1.8063 C   0  0  0  0  0  0  0  0  0  0  0  0
    0.0000    1.4918   -0.3141 C   0  0  0  0  0  3  0  0  0  0  0  0
    0.0000    2.5715    0.3421 N   0  0  0  0  0  0  0  0  0  0  0  0
    0.8783    0.9419   -2.1780 H   0  0  0  0  0  0  0  0  0  0  0  0
   -0.8783    0.9419   -2.1780 H   0  0  0  0  0  0  0  0  0  0  0  0
    0.0000    2.4924   -2.1958 H   0  0  0  0  0  0  0  0  0  0  0  0
    0.0000    2.3904    1.3438 H   0  0  0  0  0  0  0  0  0  0  0  0
   -0.0000   -1.9443   -1.4133 C   0  0  0  0  0  0  0  0  0  0  0  0
   -0.0000   -1.9443    0.0821 C   0  0  0  0  0  0  0  0  0  0  0  0
   -0.0000   -0.8611    0.8455 C   0  0  0  0  0  0  0  0  0  0  0  0
   -0.0000   -0.8611    2.3408 C   0  0  0  0  0  0  0  0  0  0  0  0
    0.8779   -2.4643   -1.8058 H   0  0  0  0  0  0  0  0  0  0  0  0
   -0.8779   -2.4643   -1.8058 H   0  0  0  0  0  0  0  0  0  0  0  0
   -0.0000   -0.9285   -1.8112 H   0  0  0  0  0  0  0  0  0  0  0  0
   -0.0000   -2.9205    0.5631 H   0  0  0  0  0  0  0  0  0  0  0  0
   -0.0000    0.3104    0.2682 H   0  0  0  0  0  0  0  0  0  0  0  0
    0.8779   -0.3411    2.7334 H   0  0  0  0  0  0  0  0  0  0  0  0
   -0.8779   -0.3411    2.7334 H   0  0  0  0  0  0  0  0  0  0  0  0
   -0.0000   -1.8769    2.7387 H   0  0  0  0  0  0  0  0  0  0  0  0
  1  2  1  0
  1  4  1  0
  1  5  1  0
  1  6  1  0
  2  3  2  3
  3  7  1  0
  8  9  1  0
  8 12  1  0
  8 13  1  0
  8 14  1  0
  9 10  2  3
  9 15  1  0
 10 11  1  0
 10 16  1  0
 11 17  1  0
 11 18  1  0
 11 19  1  0
M  RAD  1   2   2
M  END
>  <reaction>  (18) 
rmg_rxn_16738

>  <mol_properties>  (18) 
{"1": {"label": "*1", "atom_type": "Cd"}, "2": {"label": "*0", "atom_type": "N3d"}, "8": {"label": "*4", "atom_type": "Cd"}, "9": {"label": "*3", "atom_type": "Cd"}, "15": {"label": "*2", "atom_type": "H0"}}

>  <type>  (18) 
unop_14

>  <geom_source>  (18) 
Heuristics

$$$$

     RDKit          3D

 19 17  0  0  0  0  0  0  0  0999 V2000
    2.0134    1.7928   -0.0039 N   0  0  0  0  0  0  0  0  0  0  0  0
    2.1108   -0.5988    0.2581 C   0  0  0  0  0  0  0  0  0  0  0  0
   -1.8585    1.0212    1.2555 C   0  0  0  0  0  0  0  0  0  0  0  0
   -0.5954   -1.2714   -1.5692 C   0  0  0  0  0  0  0  0  0  0  0  0
   -1.5127   -0.1968    0.4610 C   0  0  0  0  0  0  0  0  0  0  0  0
    1.3879    0.6742   -0.0331 C   0  0  0  0  0  0  0  0  0  0  0  0
   -0.9546   -0.0758   -0.7465 C   0  0  0  0  0  3  0  0  0  0  0  0
    2.9314   -0.7425   -0.4758 H   0  0  0  0  0  0  0  0  0  0  0  0
    1.4044   -1.4513    0.1839 H   0  0  0  0  0  0  0  0  0  0  0  0
    2.5333   -0.5659    1.2843 H   0  0  0  0  0  0  0  0  0  0  0  0
   -2.3096    0.7205    2.2242 H   0  0  0  0  0  0  0  0  0  0  0  0
   -2.5894    1.6436    0.6970 H   0  0  0  0  0  0  0  0  0  0  0  0
   -0.9426    1.6165    1.4554 H   0  0  0  0  0  0  0  0  0  0  0  0
   -1.5047   -1.8712   -1.7853 H   0  0  0  0  0  0  0  0  0  0  0  0
    0.1433   -1.8983   -1.0263 H   0  0  0  0  0  0  0  0  0  0  0  0
   -0.1488   -0.9338   -2.5269 H   0  0  0  0  0  0  0  0  0  0  0  0
    0.0960    0.6461   -0.3224 H   0  0  0  0  0  0  0  0  0  0  0  0
   -1.7193   -1.1804    0.8745 H   0  0  0  0  0  0  0  0  0  0  0  0
    1.5151    2.6712   -0.2047 H   0  0  0  0  0  0  0  0  0  0  0  0
  1  6  2  3
  1 19  1  0
  2  6  1  0
  2  8  1  0
  2  9  1  0
  2 10  1  0
  3  5  1  0
  3 11  1  0
  3 12  1  0
  3 13  1  0
  4  7  1  0
  4 14  1  0
  4 15  1  0
  4 16  1  0
  5  7  2  3
  5 18  1  0
  6 17  1  0
M  RAD  1   7   2
M  END
>  <reaction>  (19) 
rmg_rxn_16738

>  <mol_properties>  (19) 
{"1": {"label": "*1", "atom_type": "Cd"}, "2": {"label": "*0", "atom_type": "N3d"}, "8": {"label": "*4", "atom_type": "Cd"}, "9": {"label": "*3", "atom_type": "Cd"}, "15": {"label": "*2", "atom_type": "H0"}}

>  <type>  (19) 
unop_15

>  <geom_source>  (19) 
AutoTST

$$$$

     RDKit          3D

 19 17  0  0  0  0  0  0  0  0999 V2000
   -0.6058    1.5495   -1.6726 C   0  0  0  0  0  0  0  0  0  0  0  0
    0.0670    1.4858   -0.3421 C   0  0  0  0  0  3  0  0  0  0  0  0
    0.3057    2.5249    0.3358 N   0  0  0  0  0  0  0  0  0  0  0  0
    0.0371    1.1141   -2.4419 H   0  0  0  0  0  0  0  0  0  0  0  0
   -1.5274    0.9621   -1.6581 H   0  0  0  0  0  0  0  0  0  0  0  0
   -0.8357    2.5815   -1.9316 H   0  0  0  0  0  0  0  0  0  0  0  0
    0.7675    2.2912    1.2124 H   0  0  0  0  0  0  0  0  0  0  0  0
    0.0670   -1.9504   -1.4413 C   0  0  0  0  0  0  0  0  0  0  0  0
    0.0670   -1.9504    0.0540 C   0  0  0  0  0  0  0  0  0  0  0  0
    0.0670   -0.8672    0.8174 C   0  0  0  0  0  0  0  0  0  0  0  0
    0.0670   -0.8672    2.3128 C   0  0  0  0  0  0  0  0  0  0  0  0
    0.9449   -2.4703   -1.8339 H   0  0  0  0  0  0  0  0  0  0  0  0
   -0.8109   -2.4704   -1.8339 H   0  0  0  0  0  0  0  0  0  0  0  0
    0.0670   -0.9345   -1.8392 H   0  0  0  0  0  0  0  0  0  0  0  0
    0.0670   -2.9266    0.5351 H   0  0  0  0  0  0  0  0  0  0  0  0
    0.0670    0.3043    0.2401 H   0  0  0  0  0  0  0  0  0  0  0  0
    0.9449   -0.3472    2.7053 H   0  0  0  0  0  0  0  0  0  0  0  0
   -0.8109   -0.3472    2.7053 H   0  0  0  0  0  0  0  0  0  0  0  0
    0.0670   -1.8830    2.7107 H   0  0  0  0  0  0  0  0  0  0  0  0
  1  2  1  0
  1  4  1  0
  1  5  1  0
  1  6  1  0
  2  3  2  3
  3  7  1  0
  8  9  1  0
  8 12  1  0
  8 13  1  0
  8 14  1  0
  9 10  2  3
  9 15  1  0
 10 11  1  0
 10 16  1  0
 11 17  1  0
 11 18  1  0
 11 19  1  0
M  RAD  1   2   2
M  END
>  <reaction>  (20) 
rmg_rxn_16738

>  <mol_properties>  (20) 
{"1": {"label": "*1", "atom_type": "Cd"}, "2": {"label": "*0", "atom_type": "N3d"}, "8": {"label": "*4", "atom_type": "Cd"}, "9": {"label": "*3", "atom_type": "Cd"}, "15": {"label": "*2", "atom_type": "H0"}}

>  <type>  (20) 
unop_16

>  <geom_source>  (20) 
gaussian_log

$$$$
