
     RDKit          3D

 15 14  0  0  0  0  0  0  0  0999 V2000
   -1.2811   -0.4129    1.0228 C   0  0  0  0  0  0  0  0  0  0  0  0
   -1.0023   -0.5809   -0.4650 C   0  0  0  0  0  0  0  0  0  0  0  0
   -2.0576    0.0568   -1.3449 C   0  0  0  0  0  0  0  0  0  0  0  0
   -2.0663    1.4464   -1.1307 O   0  0  0  0  0  0  0  0  0  0  0  0
   -3.0424    2.1072   -1.8849 C   0  0  0  0  0  0  0  0  0  0  0  0
   -2.2382   -0.8657    1.2935 H   0  0  0  0  0  0  0  0  0  0  0  0
   -1.3219    0.6426    1.2914 H   0  0  0  0  0  0  0  0  0  0  0  0
   -0.5042   -0.8881    1.6236 H   0  0  0  0  0  0  0  0  0  0  0  0
   -0.0316   -0.1460   -0.7167 H   0  0  0  0  0  0  0  0  0  0  0  0
   -0.9494   -1.6429   -0.7203 H   0  0  0  0  0  0  0  0  0  0  0  0
   -1.8518   -0.1570   -2.4041 H   0  0  0  0  0  0  0  0  0  0  0  0
   -3.0491   -0.3636   -1.1124 H   0  0  0  0  0  0  0  0  0  0  0  0
   -4.0521    1.7545   -1.6343 H   0  0  0  0  0  0  0  0  0  0  0  0
   -2.8850    1.9634   -2.9626 H   0  0  0  0  0  0  0  0  0  0  0  0
   -2.9730    3.1700   -1.6570 H   0  0  0  0  0  0  0  0  0  0  0  0
  1  2  1  0
  1  6  1  0
  1  7  1  0
  1  8  1  0
  2  3  1  0
  2  9  1  0
  2 10  1  0
  3  4  1  0
  3 11  1  0
  3 12  1  0
  4  5  1  0
  5 13  1  0
  5 14  1  0
  5 15  1  0
M  END
>  <reaction>  (1) 
rmg_rxn_678

>  <mol_properties>  (1) 
{"4": {"label": "donator", "atom_type": "Cs"}, "12": {"label": "d_hydrogen", "atom_type": "H0"}}

>  <type>  (1) 
r1h

$$$$

     RDKit          3D

  9  8  0  0  0  0  0  0  0  0999 V2000
    1.3246   -0.8124   -0.0809 C   0  0  0  0  0  2  0  0  0  0  0  0
    0.4082    0.3080    0.1518 C   0  0  0  0  0  0  0  0  0  0  0  0
   -1.0545   -0.0277   -0.1520 C   0  0  0  0  0  0  0  0  0  0  0  0
    2.3933   -0.9471    0.0203 H   0  0  0  0  0  0  0  0  0  0  0  0
    0.4898    0.6406    1.1970 H   0  0  0  0  0  0  0  0  0  0  0  0
    0.7134    1.1680   -0.4624 H   0  0  0  0  0  0  0  0  0  0  0  0
   -1.4014   -0.8515    0.4727 H   0  0  0  0  0  0  0  0  0  0  0  0
   -1.1767   -0.3214   -1.1952 H   0  0  0  0  0  0  0  0  0  0  0  0
   -1.6915    0.8372    0.0370 H   0  0  0  0  0  0  0  0  0  0  0  0
  1  2  1  0
  1  4  1  0
  2  3  1  0
  2  5  1  0
  2  6  1  0
  3  7  1  0
  3  8  1  0
  3  9  1  0
M  RAD  1   1   3
M  END
>  <reaction>  (2) 
rmg_rxn_678

>  <mol_properties>  (2) 
{"0": {"label": "acceptor", "atom_type": "Cs"}}

>  <type>  (2) 
r2

$$$$

     RDKit          3D

 10  9  0  0  0  0  0  0  0  0999 V2000
    1.4352    0.2660   -0.1351 C   0  0  0  0  0  3  0  0  0  0  0  0
    0.2236   -0.3243    0.4850 C   0  0  0  0  0  0  0  0  0  0  0  0
   -0.8893    0.6872    0.7364 C   0  0  0  0  0  0  0  0  0  0  0  0
    2.3577   -0.2958   -0.1940 H   0  0  0  0  0  0  0  0  0  0  0  0
    1.3935    1.2286   -0.6287 H   0  0  0  0  0  0  0  0  0  0  0  0
   -0.1633   -1.1318   -0.1556 H   0  0  0  0  0  0  0  0  0  0  0  0
    0.4945   -0.8215    1.4240 H   0  0  0  0  0  0  0  0  0  0  0  0
   -1.1991    1.1627   -0.1967 H   0  0  0  0  0  0  0  0  0  0  0  0
   -1.7660    0.2103    1.1768 H   0  0  0  0  0  0  0  0  0  0  0  0
   -0.5545    1.4732    1.4159 H   0  0  0  0  0  0  0  0  0  0  0  0
  1  2  1  0
  1  4  1  0
  1  5  1  0
  2  3  1  0
  2  6  1  0
  2  7  1  0
  3  8  1  0
  3  9  1  0
  3 10  1  0
M  RAD  1   1   2
M  END
>  <reaction>  (3) 
rmg_rxn_678

>  <mol_properties>  (3) 
{"0": {"label": "acceptor", "atom_type": "Cs"}, "9": {"label": "a_hydrogen", "atom_type": "H0"}}

>  <type>  (3) 
r2h

$$$$

     RDKit          3D

 24 22  0  0  0  0  0  0  0  0999 V2000
    1.2495    1.9582    0.7778 C   0  0  0  0  0  2  0  0  0  0  0  0
    1.8264    1.8579   -0.5798 C   0  0  0  0  0  0  0  0  0  0  0  0
    0.7770    1.7628   -1.6872 C   0  0  0  0  0  0  0  0  0  0  0  0
    1.7910    2.2778    1.6620 H   0  0  0  0  0  0  0  0  0  0  0  0
    2.4827    2.7180   -0.7679 H   0  0  0  0  0  0  0  0  0  0  0  0
    2.4823    0.9752   -0.6359 H   0  0  0  0  0  0  0  0  0  0  0  0
    0.1507    2.6566   -1.7030 H   0  0  0  0  0  0  0  0  0  0  0  0
    0.1262    0.9017   -1.5306 H   0  0  0  0  0  0  0  0  0  0  0  0
    1.2507    1.6624   -2.6647 H   0  0  0  0  0  0  0  0  0  0  0  0
    0.0919   -2.1737   -1.2603 C   0  0  0  0  0  0  0  0  0  0  0  0
   -0.4721   -2.3968    0.1366 C   0  0  0  0  0  0  0  0  0  0  0  0
   -0.4563   -1.1475    0.9906 C   0  0  0  0  0  0  0  0  0  0  0  0
   -1.2882   -0.1681    0.4029 O   0  0  0  0  0  0  0  0  0  0  0  0
   -1.2676    1.0392    1.0658 C   0  0  0  0  0  0  0  0  0  0  0  0
    1.1142   -1.7903   -1.2118 H   0  0  0  0  0  0  0  0  0  0  0  0
   -0.5100   -1.4509   -1.8111 H   0  0  0  0  0  0  0  0  0  0  0  0
    0.1087   -3.1040   -1.8299 H   0  0  0  0  0  0  0  0  0  0  0  0
   -1.4984   -2.7676    0.0730 H   0  0  0  0  0  0  0  0  0  0  0  0
    0.1089   -3.1621    0.6586 H   0  0  0  0  0  0  0  0  0  0  0  0
   -0.8112   -1.3666    2.0069 H   0  0  0  0  0  0  0  0  0  0  0  0
    0.5655   -0.7508    1.0721 H   0  0  0  0  0  0  0  0  0  0  0  0
   -0.0927    1.5419    0.9732 H   0  0  0  0  0  0  0  0  0  0  0  0
   -1.4549    0.9534    2.1430 H   0  0  0  0  0  0  0  0  0  0  0  0
   -1.9466    1.7352    0.5781 H   0  0  0  0  0  0  0  0  0  0  0  0
  1  2  1  0
  1  4  1  0
  2  3  1  0
  2  5  1  0
  2  6  1  0
  3  7  1  0
  3  8  1  0
  3  9  1  0
 10 11  1  0
 10 15  1  0
 10 16  1  0
 10 17  1  0
 11 12  1  0
 11 18  1  0
 11 19  1  0
 12 13  1  0
 12 20  1  0
 12 21  1  0
 13 14  1  0
 14 22  1  0
 14 23  1  0
 14 24  1  0
M  RAD  1   1   3
M  END
>  <reaction>  (4) 
rmg_rxn_678

>  <mol_properties>  (4) 
{"0": {"label": "*3", "atom_type": "Cs"}, "1": {"label": "*4", "atom_type": "Cs"}, "12": {"label": "*0", "atom_type": "O2s"}, "13": {"label": "*1", "atom_type": "Cs"}, "21": {"label": "*2", "atom_type": "H0"}}

>  <type>  (4) 
ts

$$$$

     RDKit          3D

 24 22  0  0  0  0  0  0  0  0999 V2000
    0.7549    1.7099   -0.0144 C   0  0  0  0  0  3  0  0  0  0  0  0
    0.4828    2.9255   -0.8202 C   0  0  0  0  0  0  0  0  0  0  0  0
    1.1051    4.1928   -0.2443 C   0  0  0  0  0  0  0  0  0  0  0  0
    1.5585    1.6928    0.7108 H   0  0  0  0  0  0  0  0  0  0  0  0
    0.8524    2.7787   -1.8468 H   0  0  0  0  0  0  0  0  0  0  0  0
   -0.5996    3.0595   -0.9320 H   0  0  0  0  0  0  0  0  0  0  0  0
    2.1895    4.0905   -0.1644 H   0  0  0  0  0  0  0  0  0  0  0  0
    0.7152    4.3987    0.7543 H   0  0  0  0  0  0  0  0  0  0  0  0
    0.8957    5.0585   -0.8742 H   0  0  0  0  0  0  0  0  0  0  0  0
    0.0384   -3.1162   -1.3240 C   0  0  0  0  0  0  0  0  0  0  0  0
    0.0384   -3.1162    0.1989 C   0  0  0  0  0  0  0  0  0  0  0  0
    0.0384   -1.7236    0.7950 C   0  0  0  0  0  0  0  0  0  0  0  0
   -1.1466   -1.0601    0.4308 O   0  0  0  0  0  0  0  0  0  0  0  0
   -1.2074    0.2510    0.9160 C   0  0  0  0  0  3  0  0  0  0  0  0
    0.9208   -2.6025   -1.7137 H   0  0  0  0  0  0  0  0  0  0  0  0
   -0.8440   -2.6063   -1.7104 H   0  0  0  0  0  0  0  0  0  0  0  0
    0.0433   -4.1341   -1.7163 H   0  0  0  0  0  0  0  0  0  0  0  0
   -0.8357   -3.6543    0.5746 H   0  0  0  0  0  0  0  0  0  0  0  0
    0.9202   -3.6423    0.5752 H   0  0  0  0  0  0  0  0  0  0  0  0
    0.1153   -1.7773    1.8910 H   0  0  0  0  0  0  0  0  0  0  0  0
    0.9108   -1.1565    0.4328 H   0  0  0  0  0  0  0  0  0  0  0  0
   -0.2187    0.9860    0.4472 H   0  0  0  0  0  0  0  0  0  0  0  0
   -1.1654    0.2771    2.0135 H   0  0  0  0  0  0  0  0  0  0  0  0
   -2.1531    0.6811    0.5889 H   0  0  0  0  0  0  0  0  0  0  0  0
  1  2  1  0
  1  4  1  0
  1 22  1  0
  2  3  1  0
  2  5  1  0
  2  6  1  0
  3  7  1  0
  3  8  1  0
  3  9  1  0
 10 11  1  0
 10 15  1  0
 10 16  1  0
 10 17  1  0
 11 12  1  0
 11 18  1  0
 11 19  1  0
 12 13  1  0
 12 20  1  0
 12 21  1  0
 13 14  1  0
 14 23  1  0
 14 24  1  0
M  RAD  2   1   2  14   2
M  END
>  <reaction>  (5) 
rmg_rxn_678

>  <mol_properties>  (5) 
{"0": {"label": "*3", "atom_type": "Cs"}, "1": {"label": "*4", "atom_type": "Cs"}, "12": {"label": "*0", "atom_type": "O2s"}, "13": {"label": "*1", "atom_type": "Cs"}, "21": {"label": "*2", "atom_type": "H0"}}

>  <type>  (5) 
unop_1

>  <geom_source>  (5) 
Heuristics

$$$$

     RDKit          3D

 24 22  0  0  0  0  0  0  0  0999 V2000
    0.5463    2.0896    0.2863 C   0  0  0  0  0  3  0  0  0  0  0  0
    1.1337    1.8125   -1.0476 C   0  0  0  0  0  0  0  0  0  0  0  0
    1.6973    3.0504   -1.7366 C   0  0  0  0  0  0  0  0  0  0  0  0
    0.7834    3.0018    0.8188 H   0  0  0  0  0  0  0  0  0  0  0  0
    1.9321    1.0607   -0.9508 H   0  0  0  0  0  0  0  0  0  0  0  0
    0.3827    1.3378   -1.6901 H   0  0  0  0  0  0  0  0  0  0  0  0
    2.4766    3.5126   -1.1268 H   0  0  0  0  0  0  0  0  0  0  0  0
    0.9159    3.7950   -1.8994 H   0  0  0  0  0  0  0  0  0  0  0  0
    2.1335    2.8008   -2.7049 H   0  0  0  0  0  0  0  0  0  0  0  0
   -0.1702   -2.7365   -1.0233 C   0  0  0  0  0  0  0  0  0  0  0  0
   -0.1702   -2.7365    0.4996 C   0  0  0  0  0  0  0  0  0  0  0  0
   -0.1702   -1.3439    1.0956 C   0  0  0  0  0  0  0  0  0  0  0  0
   -1.3552   -0.6805    0.7315 O   0  0  0  0  0  0  0  0  0  0  0  0
   -1.4160    0.6306    1.2167 C   0  0  0  0  0  3  0  0  0  0  0  0
    0.7122   -2.2228   -1.4130 H   0  0  0  0  0  0  0  0  0  0  0  0
   -1.0526   -2.2266   -1.4097 H   0  0  0  0  0  0  0  0  0  0  0  0
   -0.1652   -3.7545   -1.4156 H   0  0  0  0  0  0  0  0  0  0  0  0
   -1.0443   -3.2746    0.8752 H   0  0  0  0  0  0  0  0  0  0  0  0
    0.7116   -3.2626    0.8759 H   0  0  0  0  0  0  0  0  0  0  0  0
   -0.0933   -1.3976    2.1917 H   0  0  0  0  0  0  0  0  0  0  0  0
    0.7022   -0.7769    0.7335 H   0  0  0  0  0  0  0  0  0  0  0  0
   -0.4273    1.3657    0.7479 H   0  0  0  0  0  0  0  0  0  0  0  0
   -1.3740    0.6567    2.3141 H   0  0  0  0  0  0  0  0  0  0  0  0
   -2.3617    1.0608    0.8895 H   0  0  0  0  0  0  0  0  0  0  0  0
  1  2  1  0
  1  4  1  0
  1 22  1  0
  2  3  1  0
  2  5  1  0
  2  6  1  0
  3  7  1  0
  3  8  1  0
  3  9  1  0
 10 11  1  0
 10 15  1  0
 10 16  1  0
 10 17  1  0
 11 12  1  0
 11 18  1  0
 11 19  1  0
 12 13  1  0
 12 20  1  0
 12 21  1  0
 13 14  1  0
 14 23  1  0
 14 24  1  0
M  RAD  2   1   2  14   2
M  END
>  <reaction>  (6) 
rmg_rxn_678

>  <mol_properties>  (6) 
{"0": {"label": "*3", "atom_type": "Cs"}, "1": {"label": "*4", "atom_type": "Cs"}, "12": {"label": "*0", "atom_type": "O2s"}, "13": {"label": "*1", "atom_type": "Cs"}, "21": {"label": "*2", "atom_type": "H0"}}

>  <type>  (6) 
unop_2

>  <geom_source>  (6) 
Heuristics

$$$$

     RDKit          3D

 24 22  0  0  0  0  0  0  0  0999 V2000
    0.6602    1.7066   -0.1661 C   0  0  0  0  0  3  0  0  0  0  0  0
    0.4924    3.1667   -0.3685 C   0  0  0  0  0  0  0  0  0  0  0  0
    1.6300    3.9992    0.2128 C   0  0  0  0  0  0  0  0  0  0  0  0
    1.6270    1.2880    0.0829 H   0  0  0  0  0  0  0  0  0  0  0  0
    0.4028    3.3828   -1.4442 H   0  0  0  0  0  0  0  0  0  0  0  0
   -0.4634    3.4912    0.0597 H   0  0  0  0  0  0  0  0  0  0  0  0
    2.5854    3.7157   -0.2340 H   0  0  0  0  0  0  0  0  0  0  0  0
    1.7092    3.8508    1.2913 H   0  0  0  0  0  0  0  0  0  0  0  0
    1.4764    5.0634    0.0283 H   0  0  0  0  0  0  0  0  0  0  0  0
   -0.0563   -3.1194   -1.4757 C   0  0  0  0  0  0  0  0  0  0  0  0
   -0.0563   -3.1194    0.0472 C   0  0  0  0  0  0  0  0  0  0  0  0
   -0.0563   -1.7269    0.6433 C   0  0  0  0  0  0  0  0  0  0  0  0
   -1.2413   -1.0634    0.2791 O   0  0  0  0  0  0  0  0  0  0  0  0
   -1.3021    0.2477    0.7643 C   0  0  0  0  0  3  0  0  0  0  0  0
    0.8261   -2.6058   -1.8654 H   0  0  0  0  0  0  0  0  0  0  0  0
   -0.9387   -2.6095   -1.8621 H   0  0  0  0  0  0  0  0  0  0  0  0
   -0.0514   -4.1374   -1.8680 H   0  0  0  0  0  0  0  0  0  0  0  0
   -0.9304   -3.6576    0.4228 H   0  0  0  0  0  0  0  0  0  0  0  0
    0.8254   -3.6456    0.4235 H   0  0  0  0  0  0  0  0  0  0  0  0
    0.0205   -1.7806    1.7393 H   0  0  0  0  0  0  0  0  0  0  0  0
    0.8161   -1.1598    0.2811 H   0  0  0  0  0  0  0  0  0  0  0  0
   -0.3134    0.9828    0.2955 H   0  0  0  0  0  0  0  0  0  0  0  0
   -1.2601    0.2738    1.8618 H   0  0  0  0  0  0  0  0  0  0  0  0
   -2.2478    0.6778    0.4372 H   0  0  0  0  0  0  0  0  0  0  0  0
  1  2  1  0
  1  4  1  0
  1 22  1  0
  2  3  1  0
  2  5  1  0
  2  6  1  0
  3  7  1  0
  3  8  1  0
  3  9  1  0
 10 11  1  0
 10 15  1  0
 10 16  1  0
 10 17  1  0
 11 12  1  0
 11 18  1  0
 11 19  1  0
 12 13  1  0
 12 20  1  0
 12 21  1  0
 13 14  1  0
 14 23  1  0
 14 24  1  0
M  RAD  2   1   2  14   2
M  END
>  <reaction>  (7) 
rmg_rxn_678

>  <mol_properties>  (7) 
{"0": {"label": "*3", "atom_type": "Cs"}, "1": {"label": "*4", "atom_type": "Cs"}, "12": {"label": "*0", "atom_type": "O2s"}, "13": {"label": "*1", "atom_type": "Cs"}, "21": {"label": "*2", "atom_type": "H0"}}

>  <type>  (7) 
unop_3

>  <geom_source>  (7) 
Heuristics

$$$$

     RDKit          3D

 24 22  0  0  0  0  0  0  0  0999 V2000
    0.2860    2.1215   -0.1887 C   0  0  0  0  0  3  0  0  0  0  0  0
    1.6986    1.7540    0.0763 C   0  0  0  0  0  0  0  0  0  0  0  0
    2.6731    2.9158   -0.0840 C   0  0  0  0  0  0  0  0  0  0  0  0
   -0.0287    3.1574   -0.1836 H   0  0  0  0  0  0  0  0  0  0  0  0
    1.7897    1.3471    1.0951 H   0  0  0  0  0  0  0  0  0  0  0  0
    1.9940    0.9267   -0.5798 H   0  0  0  0  0  0  0  0  0  0  0  0
    2.4163    3.7334    0.5930 H   0  0  0  0  0  0  0  0  0  0  0  0
    2.6485    3.3066   -1.1030 H   0  0  0  0  0  0  0  0  0  0  0  0
    3.6963    2.6078    0.1354 H   0  0  0  0  0  0  0  0  0  0  0  0
   -0.4305   -2.7046   -1.4983 C   0  0  0  0  0  0  0  0  0  0  0  0
   -0.4305   -2.7046    0.0246 C   0  0  0  0  0  0  0  0  0  0  0  0
   -0.4305   -1.3120    0.6206 C   0  0  0  0  0  0  0  0  0  0  0  0
   -1.6155   -0.6485    0.2565 O   0  0  0  0  0  0  0  0  0  0  0  0
   -1.6763    0.6626    0.7417 C   0  0  0  0  0  3  0  0  0  0  0  0
    0.4519   -2.1909   -1.8880 H   0  0  0  0  0  0  0  0  0  0  0  0
   -1.3130   -2.1947   -1.8847 H   0  0  0  0  0  0  0  0  0  0  0  0
   -0.4256   -3.7225   -1.8906 H   0  0  0  0  0  0  0  0  0  0  0  0
   -1.3046   -3.2427    0.4002 H   0  0  0  0  0  0  0  0  0  0  0  0
    0.4512   -3.2307    0.4008 H   0  0  0  0  0  0  0  0  0  0  0  0
   -0.3537   -1.3657    1.7167 H   0  0  0  0  0  0  0  0  0  0  0  0
    0.4419   -0.7449    0.2584 H   0  0  0  0  0  0  0  0  0  0  0  0
   -0.6877    1.3977    0.2729 H   0  0  0  0  0  0  0  0  0  0  0  0
   -1.6343    0.6887    1.8391 H   0  0  0  0  0  0  0  0  0  0  0  0
   -2.6220    1.0927    0.4145 H   0  0  0  0  0  0  0  0  0  0  0  0
  1  2  1  0
  1  4  1  0
  1 22  1  0
  2  3  1  0
  2  5  1  0
  2  6  1  0
  3  7  1  0
  3  8  1  0
  3  9  1  0
 10 11  1  0
 10 15  1  0
 10 16  1  0
 10 17  1  0
 11 12  1  0
 11 18  1  0
 11 19  1  0
 12 13  1  0
 12 20  1  0
 12 21  1  0
 13 14  1  0
 14 23  1  0
 14 24  1  0
M  RAD  2   1   2  14   2
M  END
>  <reaction>  (8) 
rmg_rxn_678

>  <mol_properties>  (8) 
{"0": {"label": "*3", "atom_type": "Cs"}, "1": {"label": "*4", "atom_type": "Cs"}, "12": {"label": "*0", "atom_type": "O2s"}, "13": {"label": "*1", "atom_type": "Cs"}, "21": {"label": "*2", "atom_type": "H0"}}

>  <type>  (8) 
unop_4

>  <geom_source>  (8) 
Heuristics

$$$$

     RDKit          3D

 24 22  0  0  0  0  0  0  0  0999 V2000
    0.5598    1.7431   -0.1814 C   0  0  0  0  0  3  0  0  0  0  0  0
    0.6941    3.1701    0.2015 C   0  0  0  0  0  0  0  0  0  0  0  0
    2.0300    3.7872   -0.1980 C   0  0  0  0  0  0  0  0  0  0  0  0
    1.2094    1.3050   -0.9283 H   0  0  0  0  0  0  0  0  0  0  0  0
   -0.1211    3.7532   -0.2538 H   0  0  0  0  0  0  0  0  0  0  0  0
    0.5419    3.2782    1.2819 H   0  0  0  0  0  0  0  0  0  0  0  0
    2.1787    3.7239   -1.2782 H   0  0  0  0  0  0  0  0  0  0  0  0
    2.8592    3.2657    0.2838 H   0  0  0  0  0  0  0  0  0  0  0  0
    2.0812    4.8391    0.0863 H   0  0  0  0  0  0  0  0  0  0  0  0
   -0.1567   -3.0830   -1.4909 C   0  0  0  0  0  0  0  0  0  0  0  0
   -0.1567   -3.0830    0.0320 C   0  0  0  0  0  0  0  0  0  0  0  0
   -0.1567   -1.6904    0.6280 C   0  0  0  0  0  0  0  0  0  0  0  0
   -1.3417   -1.0270    0.2639 O   0  0  0  0  0  0  0  0  0  0  0  0
   -1.4025    0.2841    0.7491 C   0  0  0  0  0  3  0  0  0  0  0  0
    0.7257   -2.5693   -1.8806 H   0  0  0  0  0  0  0  0  0  0  0  0
   -1.0391   -2.5731   -1.8773 H   0  0  0  0  0  0  0  0  0  0  0  0
   -0.1518   -4.1010   -1.8832 H   0  0  0  0  0  0  0  0  0  0  0  0
   -1.0308   -3.6212    0.4076 H   0  0  0  0  0  0  0  0  0  0  0  0
    0.7250   -3.6091    0.4082 H   0  0  0  0  0  0  0  0  0  0  0  0
   -0.0799   -1.7441    1.7241 H   0  0  0  0  0  0  0  0  0  0  0  0
    0.7157   -1.1234    0.2658 H   0  0  0  0  0  0  0  0  0  0  0  0
   -0.4139    1.0192    0.2803 H   0  0  0  0  0  0  0  0  0  0  0  0
   -1.3605    0.3102    1.8465 H   0  0  0  0  0  0  0  0  0  0  0  0
   -2.3482    0.7143    0.4219 H   0  0  0  0  0  0  0  0  0  0  0  0
  1  2  1  0
  1  4  1  0
  1 22  1  0
  2  3  1  0
  2  5  1  0
  2  6  1  0
  3  7  1  0
  3  8  1  0
  3  9  1  0
 10 11  1  0
 10 15  1  0
 10 16  1  0
 10 17  1  0
 11 12  1  0
 11 18  1  0
 11 19  1  0
 12 13  1  0
 12 20  1  0
 12 21  1  0
 13 14  1  0
 14 23  1  0
 14 24  1  0
M  RAD  2   1   2  14   2
M  END
>  <reaction>  (9) 
rmg_rxn_678

>  <mol_properties>  (9) 
{"0": {"label": "*3", "atom_type": "Cs"}, "1": {"label": "*4", "atom_type": "Cs"}, "12": {"label": "*0", "atom_type": "O2s"}, "13": {"label": "*1", "atom_type": "Cs"}, "21": {"label": "*2", "atom_type": "H0"}}

>  <type>  (9) 
unop_5

>  <geom_source>  (9) 
Heuristics

$$$$

     RDKit          3D

 24 22  0  0  0  0  0  0  0  0999 V2000
    0.3519    1.9834   -0.2999 C   0  0  0  0  0  3  0  0  0  0  0  0
    1.6432    2.0725    0.4251 C   0  0  0  0  0  0  0  0  0  0  0  0
    2.3615    3.4038    0.2334 C   0  0  0  0  0  0  0  0  0  0  0  0
   -0.1486    2.8755   -0.6542 H   0  0  0  0  0  0  0  0  0  0  0  0
    1.4755    1.9068    1.5005 H   0  0  0  0  0  0  0  0  0  0  0  0
    2.2973    1.2484    0.1166 H   0  0  0  0  0  0  0  0  0  0  0  0
    1.7381    4.2333    0.5743 H   0  0  0  0  0  0  0  0  0  0  0  0
    2.5940    3.5724   -0.8198 H   0  0  0  0  0  0  0  0  0  0  0  0
    3.2962    3.4341    0.7950 H   0  0  0  0  0  0  0  0  0  0  0  0
   -0.3646   -2.8427   -1.6094 C   0  0  0  0  0  0  0  0  0  0  0  0
   -0.3646   -2.8427   -0.0865 C   0  0  0  0  0  0  0  0  0  0  0  0
   -0.3646   -1.4501    0.5095 C   0  0  0  0  0  0  0  0  0  0  0  0
   -1.5496   -0.7866    0.1454 O   0  0  0  0  0  0  0  0  0  0  0  0
   -1.6104    0.5245    0.6306 C   0  0  0  0  0  3  0  0  0  0  0  0
    0.5178   -2.3290   -1.9991 H   0  0  0  0  0  0  0  0  0  0  0  0
   -1.2470   -2.3328   -1.9958 H   0  0  0  0  0  0  0  0  0  0  0  0
   -0.3596   -3.8606   -2.0017 H   0  0  0  0  0  0  0  0  0  0  0  0
   -1.2387   -3.3808    0.2891 H   0  0  0  0  0  0  0  0  0  0  0  0
    0.5172   -3.3688    0.2897 H   0  0  0  0  0  0  0  0  0  0  0  0
   -0.2877   -1.5038    1.6056 H   0  0  0  0  0  0  0  0  0  0  0  0
    0.5078   -0.8830    0.1473 H   0  0  0  0  0  0  0  0  0  0  0  0
   -0.6217    1.2596    0.1618 H   0  0  0  0  0  0  0  0  0  0  0  0
   -1.5684    0.5506    1.7280 H   0  0  0  0  0  0  0  0  0  0  0  0
   -2.5561    0.9546    0.3034 H   0  0  0  0  0  0  0  0  0  0  0  0
  1  2  1  0
  1  4  1  0
  1 22  1  0
  2  3  1  0
  2  5  1  0
  2  6  1  0
  3  7  1  0
  3  8  1  0
  3  9  1  0
 10 11  1  0
 10 15  1  0
 10 16  1  0
 10 17  1  0
 11 12  1  0
 11 18  1  0
 11 19  1  0
 12 13  1  0
 12 20  1  0
 12 21  1  0
 13 14  1  0
 14 23  1  0
 14 24  1  0
M  RAD  2   1   2  14   2
M  END
>  <reaction>  (10) 
rmg_rxn_678

>  <mol_properties>  (10) 
{"0": {"label": "*3", "atom_type": "Cs"}, "1": {"label": "*4", "atom_type": "Cs"}, "12": {"label": "*0", "atom_type": "O2s"}, "13": {"label": "*1", "atom_type": "Cs"}, "21": {"label": "*2", "atom_type": "H0"}}

>  <type>  (10) 
unop_6

>  <geom_source>  (10) 
Heuristics

$$$$

     RDKit          3D

 24 22  0  0  0  0  0  0  0  0999 V2000
    0.4594    1.8433   -0.3073 C   0  0  0  0  0  3  0  0  0  0  0  0
    1.4361    2.4788    0.6110 C   0  0  0  0  0  0  0  0  0  0  0  0
    1.9495    3.8277    0.1193 C   0  0  0  0  0  0  0  0  0  0  0  0
   -0.0493    2.4247   -1.0656 H   0  0  0  0  0  0  0  0  0  0  0  0
    0.9791    2.6089    1.6040 H   0  0  0  0  0  0  0  0  0  0  0  0
    2.2792    1.7987    0.7811 H   0  0  0  0  0  0  0  0  0  0  0  0
    1.1245    4.5304   -0.0164 H   0  0  0  0  0  0  0  0  0  0  0  0
    2.4600    3.7237   -0.8399 H   0  0  0  0  0  0  0  0  0  0  0  0
    2.6509    4.2675    0.8297 H   0  0  0  0  0  0  0  0  0  0  0  0
   -0.2571   -2.9828   -1.6169 C   0  0  0  0  0  0  0  0  0  0  0  0
   -0.2571   -2.9828   -0.0940 C   0  0  0  0  0  0  0  0  0  0  0  0
   -0.2571   -1.5902    0.5021 C   0  0  0  0  0  0  0  0  0  0  0  0
   -1.4421   -0.9268    0.1380 O   0  0  0  0  0  0  0  0  0  0  0  0
   -1.5029    0.3843    0.6231 C   0  0  0  0  0  3  0  0  0  0  0  0
    0.6253   -2.4691   -2.0066 H   0  0  0  0  0  0  0  0  0  0  0  0
   -1.1395   -2.4729   -2.0033 H   0  0  0  0  0  0  0  0  0  0  0  0
   -0.2521   -4.0008   -2.0092 H   0  0  0  0  0  0  0  0  0  0  0  0
   -1.1312   -3.5209    0.2817 H   0  0  0  0  0  0  0  0  0  0  0  0
    0.6247   -3.5089    0.2823 H   0  0  0  0  0  0  0  0  0  0  0  0
   -0.1802   -1.6439    1.5982 H   0  0  0  0  0  0  0  0  0  0  0  0
    0.6153   -1.0232    0.1399 H   0  0  0  0  0  0  0  0  0  0  0  0
   -0.5142    1.1194    0.1544 H   0  0  0  0  0  0  0  0  0  0  0  0
   -1.4609    0.4105    1.7206 H   0  0  0  0  0  0  0  0  0  0  0  0
   -2.4486    0.8145    0.2960 H   0  0  0  0  0  0  0  0  0  0  0  0
  1  2  1  0
  1  4  1  0
  1 22  1  0
  2  3  1  0
  2  5  1  0
  2  6  1  0
  3  7  1  0
  3  8  1  0
  3  9  1  0
 10 11  1  0
 10 15  1  0
 10 16  1  0
 10 17  1  0
 11 12  1  0
 11 18  1  0
 11 19  1  0
 12 13  1  0
 12 20  1  0
 12 21  1  0
 13 14  1  0
 14 23  1  0
 14 24  1  0
M  RAD  2   1   2  14   2
M  END
>  <reaction>  (11) 
rmg_rxn_678

>  <mol_properties>  (11) 
{"0": {"label": "*3", "atom_type": "Cs"}, "1": {"label": "*4", "atom_type": "Cs"}, "12": {"label": "*0", "atom_type": "O2s"}, "13": {"label": "*1", "atom_type": "Cs"}, "21": {"label": "*2", "atom_type": "H0"}}

>  <type>  (11) 
unop_7

>  <geom_source>  (11) 
Heuristics

$$$$

     RDKit          3D

 24 22  0  0  0  0  0  0  0  0999 V2000
    0.7635    1.7959    0.1602 C   0  0  0  0  0  3  0  0  0  0  0  0
    0.6128    2.5549   -1.1056 C   0  0  0  0  0  0  0  0  0  0  0  0
    0.9419    4.0377   -0.9723 C   0  0  0  0  0  0  0  0  0  0  0  0
    1.3397    2.1983    0.9836 H   0  0  0  0  0  0  0  0  0  0  0  0
    1.2573    2.1124   -1.8807 H   0  0  0  0  0  0  0  0  0  0  0  0
   -0.4067    2.4325   -1.4902 H   0  0  0  0  0  0  0  0  0  0  0  0
    1.9691    4.1775   -0.6285 H   0  0  0  0  0  0  0  0  0  0  0  0
    0.2802    4.5198   -0.2504 H   0  0  0  0  0  0  0  0  0  0  0  0
    0.8347    4.5547   -1.9270 H   0  0  0  0  0  0  0  0  0  0  0  0
    0.0470   -3.0302   -1.1494 C   0  0  0  0  0  0  0  0  0  0  0  0
    0.0470   -3.0302    0.3735 C   0  0  0  0  0  0  0  0  0  0  0  0
    0.0470   -1.6376    0.9696 C   0  0  0  0  0  0  0  0  0  0  0  0
   -1.1380   -0.9741    0.6054 O   0  0  0  0  0  0  0  0  0  0  0  0
   -1.1988    0.3370    1.0906 C   0  0  0  0  0  3  0  0  0  0  0  0
    0.9294   -2.5165   -1.5391 H   0  0  0  0  0  0  0  0  0  0  0  0
   -0.8354   -2.5203   -1.5358 H   0  0  0  0  0  0  0  0  0  0  0  0
    0.0519   -4.0482   -1.5417 H   0  0  0  0  0  0  0  0  0  0  0  0
   -0.8271   -3.5683    0.7491 H   0  0  0  0  0  0  0  0  0  0  0  0
    0.9287   -3.5563    0.7498 H   0  0  0  0  0  0  0  0  0  0  0  0
    0.1238   -1.6913    2.0656 H   0  0  0  0  0  0  0  0  0  0  0  0
    0.9194   -1.0706    0.6074 H   0  0  0  0  0  0  0  0  0  0  0  0
   -0.2101    1.0720    0.6218 H   0  0  0  0  0  0  0  0  0  0  0  0
   -1.1568    0.3631    2.1881 H   0  0  0  0  0  0  0  0  0  0  0  0
   -2.1445    0.7671    0.7634 H   0  0  0  0  0  0  0  0  0  0  0  0
  1  2  1  0
  1  4  1  0
  1 22  1  0
  2  3  1  0
  2  5  1  0
  2  6  1  0
  3  7  1  0
  3  8  1  0
  3  9  1  0
 10 11  1  0
 10 15  1  0
 10 16  1  0
 10 17  1  0
 11 12  1  0
 11 18  1  0
 11 19  1  0
 12 13  1  0
 12 20  1  0
 12 21  1  0
 13 14  1  0
 14 23  1  0
 14 24  1  0
M  RAD  2   1   2  14   2
M  END
>  <reaction>  (12) 
rmg_rxn_678

>  <mol_properties>  (12) 
{"0": {"label": "*3", "atom_type": "Cs"}, "1": {"label": "*4", "atom_type": "Cs"}, "12": {"label": "*0", "atom_type": "O2s"}, "13": {"label": "*1", "atom_type": "Cs"}, "21": {"label": "*2", "atom_type": "H0"}}

>  <type>  (12) 
unop_8

>  <geom_source>  (12) 
Heuristics

$$$$

     RDKit          3D

 24 22  0  0  0  0  0  0  0  0999 V2000
    0.2984    2.2031   -0.0065 C   0  0  0  0  0  3  0  0  0  0  0  0
    1.6068    1.5910   -0.3449 C   0  0  0  0  0  0  0  0  0  0  0  0
    2.6758    2.6076   -0.7307 C   0  0  0  0  0  0  0  0  0  0  0  0
    0.2240    3.2552    0.2371 H   0  0  0  0  0  0  0  0  0  0  0  0
    1.9682    0.9963    0.5080 H   0  0  0  0  0  0  0  0  0  0  0  0
    1.4754    0.8631   -1.1543 H   0  0  0  0  0  0  0  0  0  0  0  0
    2.8479    3.3165    0.0820 H   0  0  0  0  0  0  0  0  0  0  0  0
    2.3718    3.1769   -1.6111 H   0  0  0  0  0  0  0  0  0  0  0  0
    3.6247    2.1185   -0.9555 H   0  0  0  0  0  0  0  0  0  0  0  0
   -0.4180   -2.6230   -1.3161 C   0  0  0  0  0  0  0  0  0  0  0  0
   -0.4180   -2.6230    0.2068 C   0  0  0  0  0  0  0  0  0  0  0  0
   -0.4180   -1.2304    0.8029 C   0  0  0  0  0  0  0  0  0  0  0  0
   -1.6031   -0.5670    0.4387 O   0  0  0  0  0  0  0  0  0  0  0  0
   -1.6639    0.7441    0.9239 C   0  0  0  0  0  3  0  0  0  0  0  0
    0.4643   -2.1094   -1.7058 H   0  0  0  0  0  0  0  0  0  0  0  0
   -1.3005   -2.1131   -1.7025 H   0  0  0  0  0  0  0  0  0  0  0  0
   -0.4131   -3.6410   -1.7084 H   0  0  0  0  0  0  0  0  0  0  0  0
   -1.2922   -3.1612    0.5825 H   0  0  0  0  0  0  0  0  0  0  0  0
    0.4637   -3.1491    0.5831 H   0  0  0  0  0  0  0  0  0  0  0  0
   -0.3412   -1.2841    1.8989 H   0  0  0  0  0  0  0  0  0  0  0  0
    0.4543   -0.6634    0.4407 H   0  0  0  0  0  0  0  0  0  0  0  0
   -0.6752    1.4792    0.4552 H   0  0  0  0  0  0  0  0  0  0  0  0
   -1.6219    0.7702    2.0214 H   0  0  0  0  0  0  0  0  0  0  0  0
   -2.6096    1.1743    0.5968 H   0  0  0  0  0  0  0  0  0  0  0  0
  1  2  1  0
  1  4  1  0
  1 22  1  0
  2  3  1  0
  2  5  1  0
  2  6  1  0
  3  7  1  0
  3  8  1  0
  3  9  1  0
 10 11  1  0
 10 15  1  0
 10 16  1  0
 10 17  1  0
 11 12  1  0
 11 18  1  0
 11 19  1  0
 12 13  1  0
 12 20  1  0
 12 21  1  0
 13 14  1  0
 14 23  1  0
 14 24  1  0
M  RAD  2   1   2  14   2
M  END
>  <reaction>  (13) 
rmg_rxn_678

>  <mol_properties>  (13) 
{"0": {"label": "*3", "atom_type": "Cs"}, "1": {"label": "*4", "atom_type": "Cs"}, "12": {"label": "*0", "atom_type": "O2s"}, "13": {"label": "*1", "atom_type": "Cs"}, "21": {"label": "*2", "atom_type": "H0"}}

>  <type>  (13) 
unop_9

>  <geom_source>  (13) 
Heuristics

$$$$

     RDKit          3D

 24 22  0  0  0  0  0  0  0  0999 V2000
    0.6856    1.9388    0.2765 C   0  0  0  0  0  3  0  0  0  0  0  0
    0.8495    2.1514   -1.1826 C   0  0  0  0  0  0  0  0  0  0  0  0
    1.1684    3.5944   -1.5582 C   0  0  0  0  0  0  0  0  0  0  0  0
    1.0620    2.6620    0.9888 H   0  0  0  0  0  0  0  0  0  0  0  0
    1.6479    1.4964   -1.5641 H   0  0  0  0  0  0  0  0  0  0  0  0
   -0.0545    1.8207   -1.7075 H   0  0  0  0  0  0  0  0  0  0  0  0
    2.0897    3.9263   -1.0747 H   0  0  0  0  0  0  0  0  0  0  0  0
    0.3665    4.2648   -1.2434 H   0  0  0  0  0  0  0  0  0  0  0  0
    1.2972    3.7040   -2.6359 H   0  0  0  0  0  0  0  0  0  0  0  0
   -0.0309   -2.8873   -1.0331 C   0  0  0  0  0  0  0  0  0  0  0  0
   -0.0309   -2.8873    0.4898 C   0  0  0  0  0  0  0  0  0  0  0  0
   -0.0309   -1.4947    1.0859 C   0  0  0  0  0  0  0  0  0  0  0  0
   -1.2159   -0.8313    0.7217 O   0  0  0  0  0  0  0  0  0  0  0  0
   -1.2767    0.4798    1.2069 C   0  0  0  0  0  3  0  0  0  0  0  0
    0.8515   -2.3736   -1.4228 H   0  0  0  0  0  0  0  0  0  0  0  0
   -0.9133   -2.3774   -1.4195 H   0  0  0  0  0  0  0  0  0  0  0  0
   -0.0259   -3.9053   -1.4254 H   0  0  0  0  0  0  0  0  0  0  0  0
   -0.9050   -3.4254    0.8655 H   0  0  0  0  0  0  0  0  0  0  0  0
    0.8509   -3.4134    0.8661 H   0  0  0  0  0  0  0  0  0  0  0  0
    0.0460   -1.5484    2.1819 H   0  0  0  0  0  0  0  0  0  0  0  0
    0.8415   -0.9277    0.7237 H   0  0  0  0  0  0  0  0  0  0  0  0
   -0.2880    1.2149    0.7381 H   0  0  0  0  0  0  0  0  0  0  0  0
   -1.2347    0.5060    2.3044 H   0  0  0  0  0  0  0  0  0  0  0  0
   -2.2224    0.9100    0.8798 H   0  0  0  0  0  0  0  0  0  0  0  0
  1  2  1  0
  1  4  1  0
  1 22  1  0
  2  3  1  0
  2  5  1  0
  2  6  1  0
  3  7  1  0
  3  8  1  0
  3  9  1  0
 10 11  1  0
 10 15  1  0
 10 16  1  0
 10 17  1  0
 11 12  1  0
 11 18  1  0
 11 19  1  0
 12 13  1  0
 12 20  1  0
 12 21  1  0
 13 14  1  0
 14 23  1  0
 14 24  1  0
M  RAD  2   1   2  14   2
M  END
>  <reaction>  (14) 
rmg_rxn_678

>  <mol_properties>  (14) 
{"0": {"label": "*3", "atom_type": "Cs"}, "1": {"label": "*4", "atom_type": "Cs"}, "12": {"label": "*0", "atom_type": "O2s"}, "13": {"label": "*1", "atom_type": "Cs"}, "21": {"label": "*2", "atom_type": "H0"}}

>  <type>  (14) 
unop_10

>  <geom_source>  (14) 
Heuristics

$$$$

     RDKit          3D

 24 22  0  0  0  0  0  0  0  0999 V2000
    0.5466    1.7562   -0.2261 C   0  0  0  0  0  3  0  0  0  0  0  0
    1.0998    2.8813    0.5669 C   0  0  0  0  0  0  0  0  0  0  0  0
    1.7600    3.9617   -0.2827 C   0  0  0  0  0  0  0  0  0  0  0  0
    0.3638    1.8622   -1.2879 H   0  0  0  0  0  0  0  0  0  0  0  0
    0.2993    3.3376    1.1692 H   0  0  0  0  0  0  0  0  0  0  0  0
    1.8156    2.4970    1.3032 H   0  0  0  0  0  0  0  0  0  0  0  0
    1.0478    4.3839   -0.9950 H   0  0  0  0  0  0  0  0  0  0  0  0
    2.5971    3.5524   -0.8512 H   0  0  0  0  0  0  0  0  0  0  0  0
    2.1379    4.7766    0.3363 H   0  0  0  0  0  0  0  0  0  0  0  0
   -0.1699   -3.0699   -1.5357 C   0  0  0  0  0  0  0  0  0  0  0  0
   -0.1699   -3.0699   -0.0128 C   0  0  0  0  0  0  0  0  0  0  0  0
   -0.1699   -1.6774    0.5832 C   0  0  0  0  0  0  0  0  0  0  0  0
   -1.3549   -1.0139    0.2191 O   0  0  0  0  0  0  0  0  0  0  0  0
   -1.4157    0.2972    0.7043 C   0  0  0  0  0  3  0  0  0  0  0  0
    0.7125   -2.5563   -1.9254 H   0  0  0  0  0  0  0  0  0  0  0  0
   -1.0524   -2.5600   -1.9221 H   0  0  0  0  0  0  0  0  0  0  0  0
   -0.1650   -4.0879   -1.9280 H   0  0  0  0  0  0  0  0  0  0  0  0
   -1.0440   -3.6081    0.3628 H   0  0  0  0  0  0  0  0  0  0  0  0
    0.7118   -3.5961    0.3634 H   0  0  0  0  0  0  0  0  0  0  0  0
   -0.0931   -1.7311    1.6793 H   0  0  0  0  0  0  0  0  0  0  0  0
    0.7025   -1.1103    0.2211 H   0  0  0  0  0  0  0  0  0  0  0  0
   -0.4271    1.0323    0.2355 H   0  0  0  0  0  0  0  0  0  0  0  0
   -1.3737    0.3233    1.8017 H   0  0  0  0  0  0  0  0  0  0  0  0
   -2.3614    0.7273    0.3771 H   0  0  0  0  0  0  0  0  0  0  0  0
  1  2  1  0
  1  4  1  0
  1 22  1  0
  2  3  1  0
  2  5  1  0
  2  6  1  0
  3  7  1  0
  3  8  1  0
  3  9  1  0
 10 11  1  0
 10 15  1  0
 10 16  1  0
 10 17  1  0
 11 12  1  0
 11 18  1  0
 11 19  1  0
 12 13  1  0
 12 20  1  0
 12 21  1  0
 13 14  1  0
 14 23  1  0
 14 24  1  0
M  RAD  2   1   2  14   2
M  END
>  <reaction>  (15) 
rmg_rxn_678

>  <mol_properties>  (15) 
{"0": {"label": "*3", "atom_type": "Cs"}, "1": {"label": "*4", "atom_type": "Cs"}, "12": {"label": "*0", "atom_type": "O2s"}, "13": {"label": "*1", "atom_type": "Cs"}, "21": {"label": "*2", "atom_type": "H0"}}

>  <type>  (15) 
unop_11

>  <geom_source>  (15) 
Heuristics

$$$$

     RDKit          3D

 24 22  0  0  0  0  0  0  0  0999 V2000
    0.3967    2.1916    0.1781 C   0  0  0  0  0  3  0  0  0  0  0  0
    1.4030    1.6127   -0.7456 C   0  0  0  0  0  0  0  0  0  0  0  0
    2.2995    2.6553   -1.4045 C   0  0  0  0  0  0  0  0  0  0  0  0
    0.5101    3.1970    0.5633 H   0  0  0  0  0  0  0  0  0  0  0  0
    2.0317    0.8909   -0.2018 H   0  0  0  0  0  0  0  0  0  0  0  0
    0.8980    1.0160   -1.5144 H   0  0  0  0  0  0  0  0  0  0  0  0
    2.8414    3.2320   -0.6518 H   0  0  0  0  0  0  0  0  0  0  0  0
    1.7100    3.3550   -1.9999 H   0  0  0  0  0  0  0  0  0  0  0  0
    3.0342    2.1877   -2.0615 H   0  0  0  0  0  0  0  0  0  0  0  0
   -0.3198   -2.6345   -1.1315 C   0  0  0  0  0  0  0  0  0  0  0  0
   -0.3198   -2.6345    0.3914 C   0  0  0  0  0  0  0  0  0  0  0  0
   -0.3198   -1.2419    0.9875 C   0  0  0  0  0  0  0  0  0  0  0  0
   -1.5048   -0.5784    0.6233 O   0  0  0  0  0  0  0  0  0  0  0  0
   -1.5656    0.7327    1.1085 C   0  0  0  0  0  3  0  0  0  0  0  0
    0.5626   -2.1208   -1.5212 H   0  0  0  0  0  0  0  0  0  0  0  0
   -1.2022   -2.1246   -1.5179 H   0  0  0  0  0  0  0  0  0  0  0  0
   -0.3148   -3.6525   -1.5238 H   0  0  0  0  0  0  0  0  0  0  0  0
   -1.1939   -3.1726    0.7671 H   0  0  0  0  0  0  0  0  0  0  0  0
    0.5620   -3.1606    0.7677 H   0  0  0  0  0  0  0  0  0  0  0  0
   -0.2429   -1.2956    2.0835 H   0  0  0  0  0  0  0  0  0  0  0  0
    0.5526   -0.6749    0.6253 H   0  0  0  0  0  0  0  0  0  0  0  0
   -0.5769    1.4677    0.6397 H   0  0  0  0  0  0  0  0  0  0  0  0
   -1.5236    0.7588    2.2060 H   0  0  0  0  0  0  0  0  0  0  0  0
   -2.5113    1.1628    0.7814 H   0  0  0  0  0  0  0  0  0  0  0  0
  1  2  1  0
  1  4  1  0
  1 22  1  0
  2  3  1  0
  2  5  1  0
  2  6  1  0
  3  7  1  0
  3  8  1  0
  3  9  1  0
 10 11  1  0
 10 15  1  0
 10 16  1  0
 10 17  1  0
 11 12  1  0
 11 18  1  0
 11 19  1  0
 12 13  1  0
 12 20  1  0
 12 21  1  0
 13 14  1  0
 14 23  1  0
 14 24  1  0
M  RAD  2   1   2  14   2
M  END
>  <reaction>  (16) 
rmg_rxn_678

>  <mol_properties>  (16) 
{"0": {"label": "*3", "atom_type": "Cs"}, "1": {"label": "*4", "atom_type": "Cs"}, "12": {"label": "*0", "atom_type": "O2s"}, "13": {"label": "*1", "atom_type": "Cs"}, "21": {"label": "*2", "atom_type": "H0"}}

>  <type>  (16) 
unop_12

>  <geom_source>  (16) 
Heuristics

$$$$

     RDKit          3D

 24 22  0  0  0  0  0  0  0  0999 V2000
    0.6298    0.6085   -0.8062 O   0  0  0  0  0  0  0  0  0  0  0  0
    2.6295    0.4670    0.5454 C   0  0  0  0  0  0  0  0  0  0  0  0
   -3.3585   -0.6962    0.5502 C   0  0  0  0  0  0  0  0  0  0  0  0
    2.0179    0.3375   -0.8532 C   0  0  0  0  0  0  0  0  0  0  0  0
    4.1420    0.2675    0.5100 C   0  0  0  0  0  0  0  0  0  0  0  0
   -3.6251    0.8047    0.5897 C   0  0  0  0  0  0  0  0  0  0  0  0
   -2.6051   -1.0884   -0.7130 C   0  0  0  0  0  2  0  0  0  0  0  0
   -0.0990   -0.5948   -0.7112 C   0  0  0  0  0  0  0  0  0  0  0  0
    2.4059    1.4762    0.9544 H   0  0  0  0  0  0  0  0  0  0  0  0
    2.1827   -0.2915    1.2229 H   0  0  0  0  0  0  0  0  0  0  0  0
   -2.7545   -0.9876    1.4353 H   0  0  0  0  0  0  0  0  0  0  0  0
   -4.3233   -1.2457    0.5846 H   0  0  0  0  0  0  0  0  0  0  0  0
    2.4861    1.0972   -1.5153 H   0  0  0  0  0  0  0  0  0  0  0  0
    2.2638   -0.6584   -1.2952 H   0  0  0  0  0  0  0  0  0  0  0  0
   -2.6674    1.3674    0.5758 H   0  0  0  0  0  0  0  0  0  0  0  0
   -4.2432    1.1100   -0.2814 H   0  0  0  0  0  0  0  0  0  0  0  0
   -4.1734    1.0598    1.5210 H   0  0  0  0  0  0  0  0  0  0  0  0
    4.3885   -0.7450    0.1251 H   0  0  0  0  0  0  0  0  0  0  0  0
    4.5540    0.3671    1.5363 H   0  0  0  0  0  0  0  0  0  0  0  0
    4.6176    1.0331   -0.1393 H   0  0  0  0  0  0  0  0  0  0  0  0
   -3.2019   -0.8475   -1.6185 H   0  0  0  0  0  0  0  0  0  0  0  0
   -1.4219   -0.4629   -0.7649 H   0  0  0  0  0  0  0  0  0  0  0  0
   -0.0199   -1.1948   -1.6443 H   0  0  0  0  0  0  0  0  0  0  0  0
    0.1753   -1.1831    0.1919 H   0  0  0  0  0  0  0  0  0  0  0  0
  1  8  1  0
  1  4  1  0
  2  5  1  0
  2  4  1  0
  2  9  1  0
  2 10  1  0
  3  7  1  0
  3  6  1  0
  3 11  1  0
  3 12  1  0
  4 13  1  0
  4 14  1  0
  5 18  1  0
  5 19  1  0
  5 20  1  0
  6 15  1  0
  6 16  1  0
  6 17  1  0
  7 21  1  0
  8 22  1  0
  8 23  1  0
  8 24  1  0
M  RAD  1   7   3
M  END
>  <reaction>  (17) 
rmg_rxn_678

>  <mol_properties>  (17) 
{"0": {"label": "*3", "atom_type": "Cs"}, "1": {"label": "*4", "atom_type": "Cs"}, "12": {"label": "*0", "atom_type": "O2s"}, "13": {"label": "*1", "atom_type": "Cs"}, "21": {"label": "*2", "atom_type": "H0"}}

>  <type>  (17) 
unop_13

>  <geom_source>  (17) 
AutoTST

$$$$

     RDKit          3D

 24 22  0  0  0  0  0  0  0  0999 V2000
    0.5463    2.0896    0.2863 C   0  0  0  0  0  3  0  0  0  0  0  0
    1.1337    1.8125   -1.0476 C   0  0  0  0  0  0  0  0  0  0  0  0
    1.6973    3.0504   -1.7366 C   0  0  0  0  0  0  0  0  0  0  0  0
    0.7834    3.0018    0.8188 H   0  0  0  0  0  0  0  0  0  0  0  0
    1.9321    1.0607   -0.9508 H   0  0  0  0  0  0  0  0  0  0  0  0
    0.3827    1.3377   -1.6901 H   0  0  0  0  0  0  0  0  0  0  0  0
    2.4766    3.5126   -1.1268 H   0  0  0  0  0  0  0  0  0  0  0  0
    0.9159    3.7950   -1.8994 H   0  0  0  0  0  0  0  0  0  0  0  0
    2.1334    2.8008   -2.7049 H   0  0  0  0  0  0  0  0  0  0  0  0
   -0.1701   -2.7365   -1.0233 C   0  0  0  0  0  0  0  0  0  0  0  0
   -0.1701   -2.7365    0.4996 C   0  0  0  0  0  0  0  0  0  0  0  0
   -0.1701   -1.3439    1.0957 C   0  0  0  0  0  0  0  0  0  0  0  0
   -1.3552   -0.6805    0.7315 O   0  0  0  0  0  0  0  0  0  0  0  0
   -1.4160    0.6306    1.2167 C   0  0  0  0  0  3  0  0  0  0  0  0
    0.7122   -2.2228   -1.4130 H   0  0  0  0  0  0  0  0  0  0  0  0
   -1.0526   -2.2266   -1.4097 H   0  0  0  0  0  0  0  0  0  0  0  0
   -0.1652   -3.7545   -1.4156 H   0  0  0  0  0  0  0  0  0  0  0  0
   -1.0443   -3.2746    0.8752 H   0  0  0  0  0  0  0  0  0  0  0  0
    0.7116   -3.2626    0.8759 H   0  0  0  0  0  0  0  0  0  0  0  0
   -0.0933   -1.3976    2.1917 H   0  0  0  0  0  0  0  0  0  0  0  0
    0.7022   -0.7769    0.7335 H   0  0  0  0  0  0  0  0  0  0  0  0
   -0.4273    1.3657    0.7479 H   0  0  0  0  0  0  0  0  0  0  0  0
   -1.3740    0.6567    2.3142 H   0  0  0  0  0  0  0  0  0  0  0  0
   -2.3617    1.0608    0.8895 H   0  0  0  0  0  0  0  0  0  0  0  0
  1  2  1  0
  1  4  1  0
  1 22  1  0
  2  3  1  0
  2  5  1  0
  2  6  1  0
  3  7  1  0
  3  8  1  0
  3  9  1  0
 10 11  1  0
 10 15  1  0
 10 16  1  0
 10 17  1  0
 11 12  1  0
 11 18  1  0
 11 19  1  0
 12 13  1  0
 12 20  1  0
 12 21  1  0
 13 14  1  0
 14 23  1  0
 14 24  1  0
M  RAD  2   1   2  14   2
M  END
>  <reaction>  (18) 
rmg_rxn_678

>  <mol_properties>  (18) 
{"0": {"label": "*3", "atom_type": "Cs"}, "1": {"label": "*4", "atom_type": "Cs"}, "12": {"label": "*0", "atom_type": "O2s"}, "13": {"label": "*1", "atom_type": "Cs"}, "21": {"label": "*2", "atom_type": "H0"}}

>  <type>  (18) 
unop_14

>  <geom_source>  (18) 
gaussian_log

$$$$
