
     RDKit          3D

  6  5  0  0  0  0  0  0  0  0999 V2000
    1.2314    0.0428    0.5088 O   0  0  0  0  0  0  0  0  0  0  0  0
    0.2987    0.2341   -0.4915 N   0  0  0  0  0  0  0  0  0  0  0  0
   -0.8599   -0.1122   -0.1290 C   0  0  0  0  0  0  0  0  0  0  0  0
    2.0507    0.3401    0.1082 H   0  0  0  0  0  0  0  0  0  0  0  0
   -1.0700   -0.5112    0.8610 H   0  0  0  0  0  0  0  0  0  0  0  0
   -1.6509    0.0064   -0.8574 H   0  0  0  0  0  0  0  0  0  0  0  0
  1  2  1  0
  1  4  1  0
  2  3  2  3
  3  5  1  0
  3  6  1  0
M  END
>  <reaction>  (1) 
rmg_rxn_15440

>  <mol_properties>  (1) 
{"2": {"label": "donator", "atom_type": "Cd"}, "4": {"label": "d_hydrogen", "atom_type": "H0"}}

>  <type>  (1) 
r1h

$$$$

     RDKit          3D

  1  0  0  0  0  0  0  0  0  0999 V2000
    0.0000    0.0000    0.0000 O   0  0  0  0  0 15  0  0  0  0  0  0
M  END
>  <reaction>  (2) 
rmg_rxn_15440

>  <mol_properties>  (2) 
{"0": {"label": "acceptor", "atom_type": "O2s"}}

>  <type>  (2) 
r2

$$$$

     RDKit          3D

  2  1  0  0  0  0  0  0  0  0999 V2000
    0.0000    0.0000    0.4855 O   0  0  0  0  0  1  0  0  0  0  0  0
    0.0000    0.0000   -0.4855 H   0  0  0  0  0  0  0  0  0  0  0  0
  1  2  1  0
M  RAD  1   1   2
M  END
>  <reaction>  (3) 
rmg_rxn_15440

>  <mol_properties>  (3) 
{"0": {"label": "acceptor", "atom_type": "O2s"}, "1": {"label": "a_hydrogen", "atom_type": "H0"}}

>  <type>  (3) 
r2h

$$$$

     RDKit          3D

  7  5  0  0  0  0  0  0  0  0999 V2000
    0.0000    2.1335   -0.3907 O   0  0  0  0  0  1  0  0  0  0  0  0
    0.0000   -1.1498   -0.8805 O   0  0  0  0  0  0  0  0  0  0  0  0
    0.0000   -1.0841    0.4880 N   0  0  0  0  0  0  0  0  0  0  0  0
    0.0000    0.0481    0.9952 C   0  0  0  0  0  3  0  0  0  0  0  0
    0.0000   -2.0929   -1.0633 H   0  0  0  0  0  0  0  0  0  0  0  0
    0.0000    1.1145    0.2606 H   0  0  0  0  0  0  0  0  0  0  0  0
    0.0000    0.1946    2.0692 H   0  0  0  0  0  0  0  0  0  0  0  0
  1  6  1  0
  2  3  1  0
  2  5  1  0
  3  4  2  3
  4  7  1  0
M  RAD  2   1   2   4   2
M  END
>  <reaction>  (4) 
rmg_rxn_15440

>  <mol_properties>  (4) 
{"0": {"label": "*1", "atom_type": "O2s"}, "2": {"label": "*4", "atom_type": "N3d"}, "3": {"label": "*3", "atom_type": "Cd"}, "5": {"label": "*2", "atom_type": "H0"}}

>  <type>  (4) 
ts

$$$$

     RDKit          3D

  7  6  0  0  0  0  0  0  0  0999 V2000
   -1.4693   -0.5333    0.0000 O   0  0  0  0  0  0  0  0  0  0  0  0
    1.2953   -0.5767   -0.0001 O   0  0  0  0  0  0  0  0  0  0  0  0
    0.6612    0.6761   -0.0000 N   0  0  0  0  0  0  0  0  0  0  0  0
   -0.5908    0.6589    0.0000 C   0  0  0  0  0  0  0  0  0  0  0  0
    2.2387   -0.3702    0.0013 H   0  0  0  0  0  0  0  0  0  0  0  0
   -0.5201   -0.8628    0.0002 H   0  0  0  0  0  0  0  0  0  0  0  0
   -1.1050    1.6062    0.0000 H   0  0  0  0  0  0  0  0  0  0  0  0
  1  4  1  0
  1  6  1  0
  2  3  1  0
  2  5  1  0
  3  4  2  3
  4  7  1  0
M  END
>  <reaction>  (5) 
rmg_rxn_15440

>  <mol_properties>  (5) 
{"0": {"label": "*1", "atom_type": "O2s"}, "2": {"label": "*4", "atom_type": "N3d"}, "3": {"label": "*3", "atom_type": "Cd"}, "5": {"label": "*2", "atom_type": "H0"}}

>  <type>  (5) 
unop_1

>  <geom_source>  (5) 
crest_best.xyz

$$$$

     RDKit          3D

  7  6  0  0  0  0  0  0  0  0999 V2000
   -1.4693   -0.5333    0.0000 O   0  0  0  0  0  0  0  0  0  0  0  0
    1.2953   -0.5767   -0.0001 O   0  0  0  0  0  0  0  0  0  0  0  0
    0.6612    0.6761   -0.0000 N   0  0  0  0  0  0  0  0  0  0  0  0
   -0.5908    0.6589    0.0000 C   0  0  0  0  0  0  0  0  0  0  0  0
    2.2387   -0.3702    0.0013 H   0  0  0  0  0  0  0  0  0  0  0  0
   -0.5201   -0.8628    0.0002 H   0  0  0  0  0  0  0  0  0  0  0  0
   -1.1050    1.6062    0.0000 H   0  0  0  0  0  0  0  0  0  0  0  0
  1  4  1  0
  1  6  1  0
  2  3  1  0
  2  5  1  0
  3  4  2  3
  4  7  1  0
M  END
>  <reaction>  (6) 
rmg_rxn_15440

>  <mol_properties>  (6) 
{"0": {"label": "*1", "atom_type": "O2s"}, "2": {"label": "*4", "atom_type": "N3d"}, "3": {"label": "*3", "atom_type": "Cd"}, "5": {"label": "*2", "atom_type": "H0"}}

>  <type>  (6) 
unop_2

>  <geom_source>  (6) 
Heuristics

$$$$

     RDKit          3D

  7  5  0  0  0  0  0  0  0  0999 V2000
    0.0000    2.0771   -0.4334 O   0  0  0  0  0  1  0  0  0  0  0  0
   -0.0000   -1.1073   -0.8546 O   0  0  0  0  0  0  0  0  0  0  0  0
   -0.0000   -1.1073    0.5263 N   0  0  0  0  0  0  0  0  0  0  0  0
   -0.0000    0.0635    0.9983 C   0  0  0  0  0  3  0  0  0  0  0  0
   -0.0000   -2.0404   -1.0766 H   0  0  0  0  0  0  0  0  0  0  0  0
    0.0000    1.1275    0.2418 H   0  0  0  0  0  0  0  0  0  0  0  0
   -0.0000    0.1509    2.0766 H   0  0  0  0  0  0  0  0  0  0  0  0
  1  6  1  0
  2  3  1  0
  2  5  1  0
  3  4  2  3
  4  7  1  0
M  RAD  2   1   2   4   2
M  END
>  <reaction>  (7) 
rmg_rxn_15440

>  <mol_properties>  (7) 
{"0": {"label": "*1", "atom_type": "O2s"}, "2": {"label": "*4", "atom_type": "N3d"}, "3": {"label": "*3", "atom_type": "Cd"}, "5": {"label": "*2", "atom_type": "H0"}}

>  <type>  (7) 
unop_3

>  <geom_source>  (7) 
Heuristics

$$$$

     RDKit          3D

  7  5  0  0  0  0  0  0  0  0999 V2000
   -1.5882    0.3631   -0.1057 O   0  0  0  0  0  0  0  0  0  0  0  0
    2.1919    0.7536   -0.3678 O   0  0  0  0  0 15  0  0  0  0  0  0
   -0.6314   -0.5942   -0.3489 N   0  0  0  0  0  0  0  0  0  0  0  0
    0.4224   -0.6720    0.3945 C   0  0  0  0  0  0  0  0  0  0  0  0
   -2.4108    0.4172   -0.6929 H   0  0  0  0  0  0  0  0  0  0  0  0
    0.5701    0.0133    1.2197 H   0  0  0  0  0  0  0  0  0  0  0  0
    1.4461   -0.2811   -0.0988 H   0  0  0  0  0  0  0  0  0  0  0  0
  1  3  1  0
  1  5  1  0
  3  4  2  3
  4  6  1  0
  4  7  1  0
M  END
>  <reaction>  (8) 
rmg_rxn_15440

>  <mol_properties>  (8) 
{"0": {"label": "*1", "atom_type": "O2s"}, "2": {"label": "*4", "atom_type": "N3d"}, "3": {"label": "*3", "atom_type": "Cd"}, "5": {"label": "*2", "atom_type": "H0"}}

>  <type>  (8) 
unop_4

>  <geom_source>  (8) 
AutoTST

$$$$

     RDKit          3D

  7  6  0  0  0  0  0  0  0  0999 V2000
   -1.4693   -0.5333    0.0000 O   0  0  0  0  0  0  0  0  0  0  0  0
    1.2953   -0.5767   -0.0001 O   0  0  0  0  0  0  0  0  0  0  0  0
    0.6612    0.6761   -0.0000 N   0  0  0  0  0  0  0  0  0  0  0  0
   -0.5908    0.6589    0.0000 C   0  0  0  0  0  0  0  0  0  0  0  0
    2.2387   -0.3702    0.0013 H   0  0  0  0  0  0  0  0  0  0  0  0
   -0.5201   -0.8628    0.0001 H   0  0  0  0  0  0  0  0  0  0  0  0
   -1.1050    1.6062    0.0000 H   0  0  0  0  0  0  0  0  0  0  0  0
  1  4  1  0
  1  6  1  0
  2  3  1  0
  2  5  1  0
  3  4  2  3
  4  7  1  0
M  END
>  <reaction>  (9) 
rmg_rxn_15440

>  <mol_properties>  (9) 
{"0": {"label": "*1", "atom_type": "O2s"}, "2": {"label": "*4", "atom_type": "N3d"}, "3": {"label": "*3", "atom_type": "Cd"}, "5": {"label": "*2", "atom_type": "H0"}}

>  <type>  (9) 
unop_5

>  <geom_source>  (9) 
gaussian_log

$$$$
