
     RDKit          3D

  4  3  0  0  0  0  0  0  0  0999 V2000
   -0.5192    0.5067    0.5114 O   0  0  0  0  0  0  0  0  0  0  0  0
    0.5296    0.4929   -0.3599 N   0  0  0  0  0  0  0  0  0  0  0  0
    0.7996   -0.5796   -0.7553 O   0  0  0  0  0  0  0  0  0  0  0  0
   -0.8100   -0.4200    0.6039 H   0  0  0  0  0  0  0  0  0  0  0  0
  1  2  1  0
  1  4  1  0
  2  3  2  0
M  END
>  <reaction>  (1) 
rmg_rxn_16480

>  <mol_properties>  (1) 
{"0": {"label": "donator", "atom_type": "O2s"}, "3": {"label": "d_hydrogen", "atom_type": "H0"}}

>  <type>  (1) 
r1h

$$$$

     RDKit          3D

  7  6  0  0  0  0  0  0  0  0999 V2000
   -0.6441   -0.1356    0.0624 C   0  0  0  0  0  0  0  0  0  0  0  0
    0.8523    0.0148   -0.0333 C   0  0  0  0  0  0  0  0  0  0  0  0
    1.6700   -0.6077    0.6603 N   0  0  0  0  0  2  0  0  0  0  0  0
   -1.0940    0.8275    0.3091 H   0  0  0  0  0  0  0  0  0  0  0  0
   -0.9104   -0.8656    0.8237 H   0  0  0  0  0  0  0  0  0  0  0  0
   -1.0427   -0.4545   -0.9022 H   0  0  0  0  0  0  0  0  0  0  0  0
    1.2362    0.7308   -0.7748 H   0  0  0  0  0  0  0  0  0  0  0  0
  1  2  1  0
  1  4  1  0
  1  5  1  0
  1  6  1  0
  2  3  2  0
  2  7  1  0
M  RAD  1   3   2
M  END
>  <reaction>  (2) 
rmg_rxn_16480

>  <mol_properties>  (2) 
{"2": {"label": "acceptor", "atom_type": "N3d"}}

>  <type>  (2) 
r2

$$$$

     RDKit          3D

  8  7  0  0  0  0  0  0  0  0999 V2000
    0.9548    0.1194   -0.0790 C   0  0  0  0  0  0  0  0  0  0  0  0
   -0.4838   -0.2649    0.0193 C   0  0  0  0  0  0  0  0  0  0  0  0
   -0.8933   -1.1081    0.8664 N   0  0  0  0  0  0  0  0  0  0  0  0
    1.3360   -0.0983   -1.0800 H   0  0  0  0  0  0  0  0  0  0  0  0
    1.0698    1.1948    0.0786 H   0  0  0  0  0  0  0  0  0  0  0  0
    1.5426   -0.4219    0.6602 H   0  0  0  0  0  0  0  0  0  0  0  0
   -1.1575    0.2324   -0.6905 H   0  0  0  0  0  0  0  0  0  0  0  0
   -1.8989   -1.2455    0.7886 H   0  0  0  0  0  0  0  0  0  0  0  0
  1  2  1  0
  1  4  1  0
  1  5  1  0
  1  6  1  0
  2  3  2  3
  2  7  1  0
  3  8  1  0
M  END
>  <reaction>  (3) 
rmg_rxn_16480

>  <mol_properties>  (3) 
{"0": {"label": "a_hydrogen", "atom_type": "H0"}, "3": {"label": "acceptor", "atom_type": "N3d"}}

>  <type>  (3) 
r2h

$$$$

     RDKit          3D

 11  9  0  0  0  0  0  0  0  0999 V2000
    0.9455   -0.8039   -1.0313 O   0  0  0  0  0  0  0  0  0  0  0  0
    1.7581   -0.0635   -0.3923 N   0  0  0  0  0  0  0  0  0  0  0  0
    1.4077    0.4323    0.6349 O   0  0  0  0  0  1  0  0  0  0  0  0
   -0.1165   -1.0130   -0.3743 H   0  0  0  0  0  0  0  0  0  0  0  0
   -1.6276    1.3070   -0.0154 C   0  0  0  0  0  0  0  0  0  0  0  0
   -1.8964   -0.1163    0.3749 C   0  0  0  0  0  0  0  0  0  0  0  0
   -1.1679   -1.1106    0.2006 N   0  0  0  0  0  0  0  0  0  0  0  0
   -0.7773    1.3779   -0.6879 H   0  0  0  0  0  0  0  0  0  0  0  0
   -1.4151    1.8805    0.8892 H   0  0  0  0  0  0  0  0  0  0  0  0
   -2.5154    1.7326   -0.4846 H   0  0  0  0  0  0  0  0  0  0  0  0
   -2.8494   -0.3077    0.8846 H   0  0  0  0  0  0  0  0  0  0  0  0
  1  2  2  0
  2  3  1  0
  4  7  1  0
  5  6  1  0
  5  8  1  0
  5  9  1  0
  5 10  1  0
  6  7  2  3
  6 11  1  0
M  RAD  1   3   2
M  END
>  <reaction>  (4) 
rmg_rxn_16480

>  <mol_properties>  (4) 
{"0": {"label": "*3", "atom_type": "O2d"}, "1": {"label": "*4", "atom_type": "N3d"}, "3": {"label": "*2", "atom_type": "H0"}, "5": {"label": "*0", "atom_type": "Cd"}, "6": {"label": "*1", "atom_type": "N3d"}}

>  <type>  (4) 
ts

$$$$

     RDKit          3D

 11  9  0  0  0  0  0  0  0  0999 V2000
    1.1693   -1.0382   -0.0005 O   0  0  0  0  0  0  0  0  0  0  0  0
    1.8845   -0.0395   -0.0001 N   0  0  0  0  0  0  0  0  0  0  0  0
    1.5146    1.1012    0.0005 O   0  0  0  0  0  1  0  0  0  0  0  0
   -0.0958   -1.0984   -0.0001 H   0  0  0  0  0  0  0  0  0  0  0  0
   -1.6529    1.2643   -0.0005 C   0  0  0  0  0  0  0  0  0  0  0  0
   -1.9859   -0.1942    0.0002 C   0  0  0  0  0  0  0  0  0  0  0  0
   -1.2597   -1.1960    0.0004 N   0  0  0  0  0  0  0  0  0  0  0  0
   -2.0933    1.7314   -0.8804 H   0  0  0  0  0  0  0  0  0  0  0  0
   -0.5767    1.4344   -0.0007 H   0  0  0  0  0  0  0  0  0  0  0  0
   -2.0931    1.7323    0.8790 H   0  0  0  0  0  0  0  0  0  0  0  0
   -3.0652   -0.3821    0.0007 H   0  0  0  0  0  0  0  0  0  0  0  0
  1  2  2  0
  2  3  1  0
  4  7  1  0
  5  6  1  0
  5  8  1  0
  5  9  1  0
  5 10  1  0
  6  7  2  3
  6 11  1  0
M  RAD  1   3   2
M  END
>  <reaction>  (5) 
rmg_rxn_16480

>  <mol_properties>  (5) 
{"0": {"label": "*3", "atom_type": "O2d"}, "1": {"label": "*4", "atom_type": "N3d"}, "3": {"label": "*2", "atom_type": "H0"}, "5": {"label": "*0", "atom_type": "Cd"}, "6": {"label": "*1", "atom_type": "N3d"}}

>  <type>  (5) 
unop_1

>  <geom_source>  (5) 
crest_best.xyz

$$$$

     RDKit          3D

 11  9  0  0  0  0  0  0  0  0999 V2000
    0.3192   -0.8013    1.3110 O   0  0  0  0  0  0  0  0  0  0  0  0
    0.3192   -2.0504    0.7640 N   0  0  0  0  0  0  0  0  0  0  0  0
    0.3192   -2.0504   -0.4105 O   0  0  0  0  0  0  0  0  0  0  0  0
    0.3192   -0.0500    0.4130 H   0  0  0  0  0  0  0  0  0  0  0  0
   -0.6227    2.9386   -0.7848 C   0  0  0  0  0  0  0  0  0  0  0  0
   -0.7020    1.4771   -0.4934 C   0  0  0  0  0  0  0  0  0  0  0  0
    0.3192    0.7339   -0.5238 N   0  0  0  0  0  2  0  0  0  0  0  0
   -1.2681    3.1904   -1.6303 H   0  0  0  0  0  0  0  0  0  0  0  0
    0.4029    3.2243   -1.0118 H   0  0  0  0  0  0  0  0  0  0  0  0
   -0.9815    3.5143    0.0722 H   0  0  0  0  0  0  0  0  0  0  0  0
   -1.7023    1.0948   -0.2522 H   0  0  0  0  0  0  0  0  0  0  0  0
  1  2  1  0
  1  4  1  0
  2  3  2  0
  5  6  1  0
  5  8  1  0
  5  9  1  0
  5 10  1  0
  6  7  2  0
  6 11  1  0
M  RAD  1   7   2
M  END
>  <reaction>  (6) 
rmg_rxn_16480

>  <mol_properties>  (6) 
{"0": {"label": "*3", "atom_type": "O2d"}, "1": {"label": "*4", "atom_type": "N3d"}, "3": {"label": "*2", "atom_type": "H0"}, "5": {"label": "*0", "atom_type": "Cd"}, "6": {"label": "*1", "atom_type": "N3d"}}

>  <type>  (6) 
unop_2

>  <geom_source>  (6) 
Heuristics

$$$$

     RDKit          3D

 11  9  0  0  0  0  0  0  0  0999 V2000
    0.2782   -0.2964    1.7862 O   0  0  0  0  0  0  0  0  0  0  0  0
    0.2782   -1.5455    1.2393 N   0  0  0  0  0  0  0  0  0  0  0  0
    0.2782   -1.5455    0.0647 O   0  0  0  0  0  0  0  0  0  0  0  0
    0.2782    0.4550    0.8883 H   0  0  0  0  0  0  0  0  0  0  0  0
   -0.8219    1.6007   -2.1640 C   0  0  0  0  0  0  0  0  0  0  0  0
   -0.3114    0.7466   -1.0518 C   0  0  0  0  0  0  0  0  0  0  0  0
    0.2782    1.2388   -0.0486 N   0  0  0  0  0  2  0  0  0  0  0  0
   -0.3590    1.3059   -3.1092 H   0  0  0  0  0  0  0  0  0  0  0  0
   -0.6076    2.6493   -1.9650 H   0  0  0  0  0  0  0  0  0  0  0  0
   -1.8999    1.4636   -2.2809 H   0  0  0  0  0  0  0  0  0  0  0  0
   -0.4823   -0.3317   -1.1646 H   0  0  0  0  0  0  0  0  0  0  0  0
  1  2  1  0
  1  4  1  0
  2  3  2  0
  5  6  1  0
  5  8  1  0
  5  9  1  0
  5 10  1  0
  6  7  2  0
  6 11  1  0
M  RAD  1   7   2
M  END
>  <reaction>  (7) 
rmg_rxn_16480

>  <mol_properties>  (7) 
{"0": {"label": "*3", "atom_type": "O2d"}, "1": {"label": "*4", "atom_type": "N3d"}, "3": {"label": "*2", "atom_type": "H0"}, "5": {"label": "*0", "atom_type": "Cd"}, "6": {"label": "*1", "atom_type": "N3d"}}

>  <type>  (7) 
unop_3

>  <geom_source>  (7) 
Heuristics

$$$$

     RDKit          3D

 11  9  0  0  0  0  0  0  0  0999 V2000
    0.1256   -0.8840    1.2714 O   0  0  0  0  0  0  0  0  0  0  0  0
    0.1256   -2.1331    0.7244 N   0  0  0  0  0  0  0  0  0  0  0  0
    0.1256   -2.1331   -0.4501 O   0  0  0  0  0  0  0  0  0  0  0  0
    0.1256   -0.1326    0.3734 H   0  0  0  0  0  0  0  0  0  0  0  0
   -0.0707    3.0381   -0.8472 C   0  0  0  0  0  0  0  0  0  0  0  0
   -0.4640    1.7255   -0.2560 C   0  0  0  0  0  0  0  0  0  0  0  0
    0.1256    0.6512   -0.5634 N   0  0  0  0  0  2  0  0  0  0  0  0
   -0.9194    3.4857   -1.3706 H   0  0  0  0  0  0  0  0  0  0  0  0
    0.7576    2.9076   -1.5414 H   0  0  0  0  0  0  0  0  0  0  0  0
    0.2204    3.7356   -0.0577 H   0  0  0  0  0  0  0  0  0  0  0  0
   -1.2955    1.7575    0.4598 H   0  0  0  0  0  0  0  0  0  0  0  0
  1  2  1  0
  1  4  1  0
  2  3  2  0
  5  6  1  0
  5  8  1  0
  5  9  1  0
  5 10  1  0
  6  7  2  0
  6 11  1  0
M  RAD  1   7   2
M  END
>  <reaction>  (8) 
rmg_rxn_16480

>  <mol_properties>  (8) 
{"0": {"label": "*3", "atom_type": "O2d"}, "1": {"label": "*4", "atom_type": "N3d"}, "3": {"label": "*2", "atom_type": "H0"}, "5": {"label": "*0", "atom_type": "Cd"}, "6": {"label": "*1", "atom_type": "N3d"}}

>  <type>  (8) 
unop_4

>  <geom_source>  (8) 
Heuristics

$$$$

     RDKit          3D

 11  9  0  0  0  0  0  0  0  0999 V2000
   -0.4433   -0.4527    1.6270 O   0  0  0  0  0  0  0  0  0  0  0  0
   -0.4433   -1.7018    1.0800 N   0  0  0  0  0  0  0  0  0  0  0  0
   -0.4433   -1.7018   -0.0945 O   0  0  0  0  0  0  0  0  0  0  0  0
   -0.4433    0.2987    0.7290 H   0  0  0  0  0  0  0  0  0  0  0  0
    1.2336    2.0627   -1.6373 C   0  0  0  0  0  0  0  0  0  0  0  0
    0.5779    0.9214   -0.9341 C   0  0  0  0  0  0  0  0  0  0  0  0
   -0.4433    1.0825   -0.2078 N   0  0  0  0  0  2  0  0  0  0  0  0
    2.2760    2.1521   -1.3210 H   0  0  0  0  0  0  0  0  0  0  0  0
    0.7074    2.9914   -1.4240 H   0  0  0  0  0  0  0  0  0  0  0  0
    1.2421    1.8867   -2.7160 H   0  0  0  0  0  0  0  0  0  0  0  0
    1.0409   -0.0615   -1.0902 H   0  0  0  0  0  0  0  0  0  0  0  0
  1  2  1  0
  1  4  1  0
  2  3  2  0
  5  6  1  0
  5  8  1  0
  5  9  1  0
  5 10  1  0
  6  7  2  0
  6 11  1  0
M  RAD  1   7   2
M  END
>  <reaction>  (9) 
rmg_rxn_16480

>  <mol_properties>  (9) 
{"0": {"label": "*3", "atom_type": "O2d"}, "1": {"label": "*4", "atom_type": "N3d"}, "3": {"label": "*2", "atom_type": "H0"}, "5": {"label": "*0", "atom_type": "Cd"}, "6": {"label": "*1", "atom_type": "N3d"}}

>  <type>  (9) 
unop_5

>  <geom_source>  (9) 
Heuristics

$$$$

     RDKit          3D

 11  9  0  0  0  0  0  0  0  0999 V2000
    0.0000   -0.8970    1.2979 O   0  0  0  0  0  0  0  0  0  0  0  0
    0.0000   -2.1461    0.7509 N   0  0  0  0  0  0  0  0  0  0  0  0
    0.0000   -2.1461   -0.4236 O   0  0  0  0  0  0  0  0  0  0  0  0
    0.0000   -0.1457    0.3999 H   0  0  0  0  0  0  0  0  0  0  0  0
   -0.0000    2.9898   -1.0717 C   0  0  0  0  0  0  0  0  0  0  0  0
   -0.0000    1.8336   -0.1281 C   0  0  0  0  0  0  0  0  0  0  0  0
   -0.0000    0.6381   -0.5369 N   0  0  0  0  0  2  0  0  0  0  0  0
   -0.8783    3.6173   -0.8997 H   0  0  0  0  0  0  0  0  0  0  0  0
   -0.0000    2.6377   -2.1018 H   0  0  0  0  0  0  0  0  0  0  0  0
    0.8783    3.6173   -0.8997 H   0  0  0  0  0  0  0  0  0  0  0  0
   -0.0000    2.0917    0.9388 H   0  0  0  0  0  0  0  0  0  0  0  0
  1  2  1  0
  1  4  1  0
  2  3  2  0
  5  6  1  0
  5  8  1  0
  5  9  1  0
  5 10  1  0
  6  7  2  0
  6 11  1  0
M  RAD  1   7   2
M  END
>  <reaction>  (10) 
rmg_rxn_16480

>  <mol_properties>  (10) 
{"0": {"label": "*3", "atom_type": "O2d"}, "1": {"label": "*4", "atom_type": "N3d"}, "3": {"label": "*2", "atom_type": "H0"}, "5": {"label": "*0", "atom_type": "Cd"}, "6": {"label": "*1", "atom_type": "N3d"}}

>  <type>  (10) 
unop_6

>  <geom_source>  (10) 
Heuristics

$$$$

     RDKit          3D

 11  9  0  0  0  0  0  0  0  0999 V2000
   -0.4506   -0.6424    1.4463 O   0  0  0  0  0  0  0  0  0  0  0  0
   -0.4506   -1.8915    0.8993 N   0  0  0  0  0  0  0  0  0  0  0  0
   -0.4506   -1.8915   -0.2753 O   0  0  0  0  0  0  0  0  0  0  0  0
   -0.4506    0.1089    0.5483 H   0  0  0  0  0  0  0  0  0  0  0  0
    1.1227    2.5767   -1.0993 C   0  0  0  0  0  0  0  0  0  0  0  0
    0.7286    1.1838   -0.7364 C   0  0  0  0  0  0  0  0  0  0  0  0
   -0.4506    0.8927   -0.3885 N   0  0  0  0  0  2  0  0  0  0  0  0
    1.9258    2.9243   -0.4445 H   0  0  0  0  0  0  0  0  0  0  0  0
    0.2684    3.2460   -1.0147 H   0  0  0  0  0  0  0  0  0  0  0  0
    1.5100    2.6053   -2.1210 H   0  0  0  0  0  0  0  0  0  0  0  0
    1.5286    0.4344   -0.7923 H   0  0  0  0  0  0  0  0  0  0  0  0
  1  2  1  0
  1  4  1  0
  2  3  2  0
  5  6  1  0
  5  8  1  0
  5  9  1  0
  5 10  1  0
  6  7  2  0
  6 11  1  0
M  RAD  1   7   2
M  END
>  <reaction>  (11) 
rmg_rxn_16480

>  <mol_properties>  (11) 
{"0": {"label": "*3", "atom_type": "O2d"}, "1": {"label": "*4", "atom_type": "N3d"}, "3": {"label": "*2", "atom_type": "H0"}, "5": {"label": "*0", "atom_type": "Cd"}, "6": {"label": "*1", "atom_type": "N3d"}}

>  <type>  (11) 
unop_7

>  <geom_source>  (11) 
Heuristics

$$$$

     RDKit          3D

 11  9  0  0  0  0  0  0  0  0999 V2000
   -0.3192   -0.8013    1.3110 O   0  0  0  0  0  0  0  0  0  0  0  0
   -0.3192   -2.0504    0.7640 N   0  0  0  0  0  0  0  0  0  0  0  0
   -0.3192   -2.0504   -0.4105 O   0  0  0  0  0  0  0  0  0  0  0  0
   -0.3192   -0.0500    0.4130 H   0  0  0  0  0  0  0  0  0  0  0  0
    0.6227    2.9386   -0.7848 C   0  0  0  0  0  0  0  0  0  0  0  0
    0.7020    1.4771   -0.4934 C   0  0  0  0  0  0  0  0  0  0  0  0
   -0.3192    0.7339   -0.5238 N   0  0  0  0  0  2  0  0  0  0  0  0
    0.9815    3.5144    0.0722 H   0  0  0  0  0  0  0  0  0  0  0  0
   -0.4029    3.2243   -1.0118 H   0  0  0  0  0  0  0  0  0  0  0  0
    1.2681    3.1904   -1.6303 H   0  0  0  0  0  0  0  0  0  0  0  0
    1.7023    1.0948   -0.2522 H   0  0  0  0  0  0  0  0  0  0  0  0
  1  2  1  0
  1  4  1  0
  2  3  2  0
  5  6  1  0
  5  8  1  0
  5  9  1  0
  5 10  1  0
  6  7  2  0
  6 11  1  0
M  RAD  1   7   2
M  END
>  <reaction>  (12) 
rmg_rxn_16480

>  <mol_properties>  (12) 
{"0": {"label": "*3", "atom_type": "O2d"}, "1": {"label": "*4", "atom_type": "N3d"}, "3": {"label": "*2", "atom_type": "H0"}, "5": {"label": "*0", "atom_type": "Cd"}, "6": {"label": "*1", "atom_type": "N3d"}}

>  <type>  (12) 
unop_8

>  <geom_source>  (12) 
Heuristics

$$$$

     RDKit          3D

 11  9  0  0  0  0  0  0  0  0999 V2000
    0.4506   -0.6424    1.4463 O   0  0  0  0  0  0  0  0  0  0  0  0
    0.4506   -1.8915    0.8993 N   0  0  0  0  0  0  0  0  0  0  0  0
    0.4506   -1.8915   -0.2753 O   0  0  0  0  0  0  0  0  0  0  0  0
    0.4506    0.1089    0.5483 H   0  0  0  0  0  0  0  0  0  0  0  0
   -1.1227    2.5767   -1.0993 C   0  0  0  0  0  0  0  0  0  0  0  0
   -0.7286    1.1838   -0.7364 C   0  0  0  0  0  0  0  0  0  0  0  0
    0.4506    0.8927   -0.3885 N   0  0  0  0  0  2  0  0  0  0  0  0
   -1.5100    2.6053   -2.1210 H   0  0  0  0  0  0  0  0  0  0  0  0
   -0.2684    3.2460   -1.0147 H   0  0  0  0  0  0  0  0  0  0  0  0
   -1.9259    2.9243   -0.4445 H   0  0  0  0  0  0  0  0  0  0  0  0
   -1.5286    0.4344   -0.7923 H   0  0  0  0  0  0  0  0  0  0  0  0
  1  2  1  0
  1  4  1  0
  2  3  2  0
  5  6  1  0
  5  8  1  0
  5  9  1  0
  5 10  1  0
  6  7  2  0
  6 11  1  0
M  RAD  1   7   2
M  END
>  <reaction>  (13) 
rmg_rxn_16480

>  <mol_properties>  (13) 
{"0": {"label": "*3", "atom_type": "O2d"}, "1": {"label": "*4", "atom_type": "N3d"}, "3": {"label": "*2", "atom_type": "H0"}, "5": {"label": "*0", "atom_type": "Cd"}, "6": {"label": "*1", "atom_type": "N3d"}}

>  <type>  (13) 
unop_9

>  <geom_source>  (13) 
Heuristics

$$$$

     RDKit          3D

 11  9  0  0  0  0  0  0  0  0999 V2000
    1.1693   -1.0382   -0.0005 O   0  0  0  0  0  0  0  0  0  0  0  0
    1.8845   -0.0395   -0.0001 N   0  0  0  0  0  0  0  0  0  0  0  0
    1.5146    1.1012    0.0005 O   0  0  0  0  0  1  0  0  0  0  0  0
   -0.0958   -1.0984   -0.0001 H   0  0  0  0  0  0  0  0  0  0  0  0
   -1.6529    1.2643   -0.0005 C   0  0  0  0  0  0  0  0  0  0  0  0
   -1.9859   -0.1942    0.0002 C   0  0  0  0  0  0  0  0  0  0  0  0
   -1.2597   -1.1960    0.0004 N   0  0  0  0  0  0  0  0  0  0  0  0
   -2.0933    1.7314   -0.8804 H   0  0  0  0  0  0  0  0  0  0  0  0
   -0.5767    1.4344   -0.0007 H   0  0  0  0  0  0  0  0  0  0  0  0
   -2.0931    1.7323    0.8790 H   0  0  0  0  0  0  0  0  0  0  0  0
   -3.0652   -0.3821    0.0007 H   0  0  0  0  0  0  0  0  0  0  0  0
  1  2  2  0
  2  3  1  0
  4  7  1  0
  5  6  1  0
  5  8  1  0
  5  9  1  0
  5 10  1  0
  6  7  2  3
  6 11  1  0
M  RAD  1   3   2
M  END
>  <reaction>  (14) 
rmg_rxn_16480

>  <mol_properties>  (14) 
{"0": {"label": "*3", "atom_type": "O2d"}, "1": {"label": "*4", "atom_type": "N3d"}, "3": {"label": "*2", "atom_type": "H0"}, "5": {"label": "*0", "atom_type": "Cd"}, "6": {"label": "*1", "atom_type": "N3d"}}

>  <type>  (14) 
unop_10

>  <geom_source>  (14) 
Heuristics

$$$$

     RDKit          3D

 11  9  0  0  0  0  0  0  0  0999 V2000
   -0.2782   -0.2964    1.7862 O   0  0  0  0  0  0  0  0  0  0  0  0
   -0.2782   -1.5455    1.2393 N   0  0  0  0  0  0  0  0  0  0  0  0
   -0.2782   -1.5455    0.0647 O   0  0  0  0  0  0  0  0  0  0  0  0
   -0.2782    0.4550    0.8883 H   0  0  0  0  0  0  0  0  0  0  0  0
    0.8218    1.6007   -2.1640 C   0  0  0  0  0  0  0  0  0  0  0  0
    0.3114    0.7466   -1.0518 C   0  0  0  0  0  0  0  0  0  0  0  0
   -0.2782    1.2388   -0.0486 N   0  0  0  0  0  2  0  0  0  0  0  0
    1.8999    1.4636   -2.2809 H   0  0  0  0  0  0  0  0  0  0  0  0
    0.6076    2.6493   -1.9650 H   0  0  0  0  0  0  0  0  0  0  0  0
    0.3590    1.3059   -3.1092 H   0  0  0  0  0  0  0  0  0  0  0  0
    0.4823   -0.3317   -1.1646 H   0  0  0  0  0  0  0  0  0  0  0  0
  1  2  1  0
  1  4  1  0
  2  3  2  0
  5  6  1  0
  5  8  1  0
  5  9  1  0
  5 10  1  0
  6  7  2  0
  6 11  1  0
M  RAD  1   7   2
M  END
>  <reaction>  (15) 
rmg_rxn_16480

>  <mol_properties>  (15) 
{"0": {"label": "*3", "atom_type": "O2d"}, "1": {"label": "*4", "atom_type": "N3d"}, "3": {"label": "*2", "atom_type": "H0"}, "5": {"label": "*0", "atom_type": "Cd"}, "6": {"label": "*1", "atom_type": "N3d"}}

>  <type>  (15) 
unop_11

>  <geom_source>  (15) 
Heuristics

$$$$

     RDKit          3D

 11  9  0  0  0  0  0  0  0  0999 V2000
    0.4433   -0.4527    1.6270 O   0  0  0  0  0  0  0  0  0  0  0  0
    0.4433   -1.7018    1.0800 N   0  0  0  0  0  0  0  0  0  0  0  0
    0.4433   -1.7018   -0.0945 O   0  0  0  0  0  0  0  0  0  0  0  0
    0.4433    0.2987    0.7290 H   0  0  0  0  0  0  0  0  0  0  0  0
   -1.2336    2.0627   -1.6373 C   0  0  0  0  0  0  0  0  0  0  0  0
   -0.5779    0.9214   -0.9341 C   0  0  0  0  0  0  0  0  0  0  0  0
    0.4433    1.0825   -0.2078 N   0  0  0  0  0  2  0  0  0  0  0  0
   -1.2421    1.8867   -2.7160 H   0  0  0  0  0  0  0  0  0  0  0  0
   -0.7074    2.9914   -1.4240 H   0  0  0  0  0  0  0  0  0  0  0  0
   -2.2760    2.1521   -1.3210 H   0  0  0  0  0  0  0  0  0  0  0  0
   -1.0409   -0.0615   -1.0902 H   0  0  0  0  0  0  0  0  0  0  0  0
  1  2  1  0
  1  4  1  0
  2  3  2  0
  5  6  1  0
  5  8  1  0
  5  9  1  0
  5 10  1  0
  6  7  2  0
  6 11  1  0
M  RAD  1   7   2
M  END
>  <reaction>  (16) 
rmg_rxn_16480

>  <mol_properties>  (16) 
{"0": {"label": "*3", "atom_type": "O2d"}, "1": {"label": "*4", "atom_type": "N3d"}, "3": {"label": "*2", "atom_type": "H0"}, "5": {"label": "*0", "atom_type": "Cd"}, "6": {"label": "*1", "atom_type": "N3d"}}

>  <type>  (16) 
unop_12

>  <geom_source>  (16) 
Heuristics

$$$$

     RDKit          3D

 11  9  0  0  0  0  0  0  0  0999 V2000
   -0.1256   -0.8840    1.2714 O   0  0  0  0  0  0  0  0  0  0  0  0
   -0.1256   -2.1331    0.7244 N   0  0  0  0  0  0  0  0  0  0  0  0
   -0.1256   -2.1331   -0.4501 O   0  0  0  0  0  0  0  0  0  0  0  0
   -0.1256   -0.1326    0.3734 H   0  0  0  0  0  0  0  0  0  0  0  0
    0.0707    3.0381   -0.8472 C   0  0  0  0  0  0  0  0  0  0  0  0
    0.4640    1.7255   -0.2560 C   0  0  0  0  0  0  0  0  0  0  0  0
   -0.1256    0.6512   -0.5634 N   0  0  0  0  0  2  0  0  0  0  0  0
   -0.2204    3.7356   -0.0577 H   0  0  0  0  0  0  0  0  0  0  0  0
   -0.7576    2.9076   -1.5414 H   0  0  0  0  0  0  0  0  0  0  0  0
    0.9194    3.4857   -1.3706 H   0  0  0  0  0  0  0  0  0  0  0  0
    1.2955    1.7575    0.4598 H   0  0  0  0  0  0  0  0  0  0  0  0
  1  2  1  0
  1  4  1  0
  2  3  2  0
  5  6  1  0
  5  8  1  0
  5  9  1  0
  5 10  1  0
  6  7  2  0
  6 11  1  0
M  RAD  1   7   2
M  END
>  <reaction>  (17) 
rmg_rxn_16480

>  <mol_properties>  (17) 
{"0": {"label": "*3", "atom_type": "O2d"}, "1": {"label": "*4", "atom_type": "N3d"}, "3": {"label": "*2", "atom_type": "H0"}, "5": {"label": "*0", "atom_type": "Cd"}, "6": {"label": "*1", "atom_type": "N3d"}}

>  <type>  (17) 
unop_13

>  <geom_source>  (17) 
Heuristics

$$$$

     RDKit          3D

 11  9  0  0  0  0  0  0  0  0999 V2000
    0.0000   -0.2351    1.8517 O   0  0  0  0  0  0  0  0  0  0  0  0
    0.0000   -1.4842    1.3048 N   0  0  0  0  0  0  0  0  0  0  0  0
    0.0000   -1.4842    0.1302 O   0  0  0  0  0  0  0  0  0  0  0  0
    0.0000    0.5163    0.9538 H   0  0  0  0  0  0  0  0  0  0  0  0
   -0.0000    1.4116   -2.3922 C   0  0  0  0  0  0  0  0  0  0  0  0
   -0.0000    0.6868   -1.0877 C   0  0  0  0  0  0  0  0  0  0  0  0
   -0.0000    1.3001    0.0169 N   0  0  0  0  0  2  0  0  0  0  0  0
    0.8783    1.1316   -2.9795 H   0  0  0  0  0  0  0  0  0  0  0  0
   -0.0000    2.4876   -2.2274 H   0  0  0  0  0  0  0  0  0  0  0  0
   -0.8783    1.1316   -2.9795 H   0  0  0  0  0  0  0  0  0  0  0  0
    0.0000   -0.4089   -1.1534 H   0  0  0  0  0  0  0  0  0  0  0  0
  1  2  1  0
  1  4  1  0
  2  3  2  0
  5  6  1  0
  5  8  1  0
  5  9  1  0
  5 10  1  0
  6  7  2  0
  6 11  1  0
M  RAD  1   7   2
M  END
>  <reaction>  (18) 
rmg_rxn_16480

>  <mol_properties>  (18) 
{"0": {"label": "*3", "atom_type": "O2d"}, "1": {"label": "*4", "atom_type": "N3d"}, "3": {"label": "*2", "atom_type": "H0"}, "5": {"label": "*0", "atom_type": "Cd"}, "6": {"label": "*1", "atom_type": "N3d"}}

>  <type>  (18) 
unop_14

>  <geom_source>  (18) 
Heuristics

$$$$

     RDKit          3D

 11  9  0  0  0  0  0  0  0  0999 V2000
    0.2782   -0.2964    1.7862 O   0  0  0  0  0  0  0  0  0  0  0  0
    0.2782   -1.5455    1.2393 N   0  0  0  0  0  0  0  0  0  0  0  0
    0.2782   -1.5455    0.0647 O   0  0  0  0  0  0  0  0  0  0  0  0
    0.2782    0.4550    0.8883 H   0  0  0  0  0  0  0  0  0  0  0  0
   -0.8218    1.6007   -2.1640 C   0  0  0  0  0  0  0  0  0  0  0  0
   -0.3114    0.7466   -1.0518 C   0  0  0  0  0  0  0  0  0  0  0  0
    0.2782    1.2388   -0.0486 N   0  0  0  0  0  2  0  0  0  0  0  0
   -0.3590    1.3059   -3.1092 H   0  0  0  0  0  0  0  0  0  0  0  0
   -0.6077    2.6493   -1.9650 H   0  0  0  0  0  0  0  0  0  0  0  0
   -1.8999    1.4635   -2.2809 H   0  0  0  0  0  0  0  0  0  0  0  0
   -0.4823   -0.3317   -1.1646 H   0  0  0  0  0  0  0  0  0  0  0  0
  1  2  1  0
  1  4  1  0
  2  3  2  0
  5  6  1  0
  5  8  1  0
  5  9  1  0
  5 10  1  0
  6  7  2  0
  6 11  1  0
M  RAD  1   7   2
M  END
>  <reaction>  (19) 
rmg_rxn_16480

>  <mol_properties>  (19) 
{"0": {"label": "*3", "atom_type": "O2d"}, "1": {"label": "*4", "atom_type": "N3d"}, "3": {"label": "*2", "atom_type": "H0"}, "5": {"label": "*0", "atom_type": "Cd"}, "6": {"label": "*1", "atom_type": "N3d"}}

>  <type>  (19) 
unop_15

>  <geom_source>  (19) 
gaussian_log

$$$$
