
     RDKit          3D

  6  5  0  0  0  0  0  0  0  0999 V2000
    1.2314    0.0428    0.5088 O   0  0  0  0  0  0  0  0  0  0  0  0
    0.2987    0.2341   -0.4915 N   0  0  0  0  0  0  0  0  0  0  0  0
   -0.8599   -0.1122   -0.1290 C   0  0  0  0  0  0  0  0  0  0  0  0
    2.0507    0.3401    0.1082 H   0  0  0  0  0  0  0  0  0  0  0  0
   -1.0700   -0.5112    0.8610 H   0  0  0  0  0  0  0  0  0  0  0  0
   -1.6509    0.0064   -0.8574 H   0  0  0  0  0  0  0  0  0  0  0  0
  1  2  1  0
  1  4  1  0
  2  3  2  3
  3  5  1  0
  3  6  1  0
M  END
>  <reaction>  (1) 
rmg_rxn_15401

>  <mol_properties>  (1) 
{"2": {"label": "donator", "atom_type": "Cd"}, "4": {"label": "d_hydrogen", "atom_type": "H0"}}

>  <type>  (1) 
r1h

$$$$

     RDKit          3D

  1  0  0  0  0  0  0  0  0  0999 V2000
    0.0000    0.0000    0.0000 H   0  0  0  0  0 15  0  0  0  0  0  0
M  END
>  <reaction>  (2) 
rmg_rxn_15401

>  <mol_properties>  (2) 
{"0": {"label": "acceptor", "atom_type": "H0"}}

>  <type>  (2) 
r2

$$$$

     RDKit          3D

  2  1  0  0  0  0  0  0  0  0999 V2000
    0.0000    0.0000    0.3721 H   0  0  0  0  0  0  0  0  0  0  0  0
    0.0000    0.0000   -0.3721 H   0  0  0  0  0  0  0  0  0  0  0  0
  1  2  1  0
M  END
>  <reaction>  (3) 
rmg_rxn_15401

>  <mol_properties>  (3) 
{"0": {"label": "acceptor", "atom_type": "H0"}, "1": {"label": "a_hydrogen", "atom_type": "H0"}}

>  <type>  (3) 
r2h

$$$$

     RDKit          3D

  7  5  0  0  0  0  0  0  0  0999 V2000
    0.0000    2.5715   -0.4459 H   0  0  0  0  0 15  0  0  0  0  0  0
    0.0000   -0.4384   -1.0145 O   0  0  0  0  0  0  0  0  0  0  0  0
    0.0000   -0.4224    0.3666 N   0  0  0  0  0  0  0  0  0  0  0  0
    0.0000    0.7100    0.8823 C   0  0  0  0  0  0  0  0  0  0  0  0
    0.0000   -1.3754   -1.2235 H   0  0  0  0  0  0  0  0  0  0  0  0
    0.0000    1.8285    0.1004 H   0  0  0  0  0  0  0  0  0  0  0  0
    0.0000    0.8365    1.9588 H   0  0  0  0  0  0  0  0  0  0  0  0
  2  3  1  0
  2  5  1  0
  3  4  2  3
  4  6  1  0
  4  7  1  0
M  END
>  <reaction>  (4) 
rmg_rxn_15401

>  <mol_properties>  (4) 
{"0": {"label": "*1", "atom_type": "H0"}, "2": {"label": "*4", "atom_type": "N3d"}, "3": {"label": "*3", "atom_type": "Cd"}, "5": {"label": "*2", "atom_type": "H0"}}

>  <type>  (4) 
ts

$$$$

     RDKit          3D

  7  5  0  0  0  0  0  0  0  0999 V2000
    1.3074    2.3135    0.0003 H   0  0  0  0  0 15  0  0  0  0  0  0
   -1.1307    0.1530    0.0000 O   0  0  0  0  0  0  0  0  0  0  0  0
    0.0431   -0.5139    0.0000 N   0  0  0  0  0  0  0  0  0  0  0  0
    1.1510    0.0405   -0.0000 C   0  0  0  0  0  0  0  0  0  0  0  0
   -1.0025    1.1212   -0.0004 H   0  0  0  0  0  0  0  0  0  0  0  0
    1.2842    1.3514   -0.0000 H   0  0  0  0  0  0  0  0  0  0  0  0
    2.0439   -0.5564    0.0002 H   0  0  0  0  0  0  0  0  0  0  0  0
  2  3  1  0
  2  5  1  0
  3  4  2  3
  4  6  1  0
  4  7  1  0
M  END
>  <reaction>  (5) 
rmg_rxn_15401

>  <mol_properties>  (5) 
{"0": {"label": "*1", "atom_type": "H0"}, "2": {"label": "*4", "atom_type": "N3d"}, "3": {"label": "*3", "atom_type": "Cd"}, "5": {"label": "*2", "atom_type": "H0"}}

>  <type>  (5) 
unop_1

>  <geom_source>  (5) 
crest_best.xyz

$$$$

     RDKit          3D

  7  5  0  0  0  0  0  0  0  0999 V2000
    1.3074    2.3135    0.0003 H   0  0  0  0  0 15  0  0  0  0  0  0
   -1.1307    0.1530    0.0000 O   0  0  0  0  0  0  0  0  0  0  0  0
    0.0431   -0.5139    0.0000 N   0  0  0  0  0  0  0  0  0  0  0  0
    1.1510    0.0405   -0.0000 C   0  0  0  0  0  0  0  0  0  0  0  0
   -1.0025    1.1212   -0.0004 H   0  0  0  0  0  0  0  0  0  0  0  0
    1.2842    1.3514   -0.0000 H   0  0  0  0  0  0  0  0  0  0  0  0
    2.0439   -0.5564    0.0002 H   0  0  0  0  0  0  0  0  0  0  0  0
  2  3  1  0
  2  5  1  0
  3  4  2  3
  4  6  1  0
  4  7  1  0
M  END
>  <reaction>  (6) 
rmg_rxn_15401

>  <mol_properties>  (6) 
{"0": {"label": "*1", "atom_type": "H0"}, "2": {"label": "*4", "atom_type": "N3d"}, "3": {"label": "*3", "atom_type": "Cd"}, "5": {"label": "*2", "atom_type": "H0"}}

>  <type>  (6) 
unop_2

>  <geom_source>  (6) 
Heuristics

$$$$

     RDKit          3D

  7  5  0  0  0  0  0  0  0  0999 V2000
    0.0000    2.5364   -0.4202 H   0  0  0  0  0 15  0  0  0  0  0  0
   -0.0000   -0.4261   -0.9992 O   0  0  0  0  0  0  0  0  0  0  0  0
   -0.0000   -0.4261    0.3818 N   0  0  0  0  0  0  0  0  0  0  0  0
   -0.0000    0.7446    0.8538 C   0  0  0  0  0  0  0  0  0  0  0  0
   -0.0000   -1.3593   -1.2212 H   0  0  0  0  0  0  0  0  0  0  0  0
    0.0000    1.8086    0.0973 H   0  0  0  0  0  0  0  0  0  0  0  0
   -0.0000    0.8321    1.9321 H   0  0  0  0  0  0  0  0  0  0  0  0
  2  3  1  0
  2  5  1  0
  3  4  2  3
  4  6  1  0
  4  7  1  0
M  END
>  <reaction>  (7) 
rmg_rxn_15401

>  <mol_properties>  (7) 
{"0": {"label": "*1", "atom_type": "H0"}, "2": {"label": "*4", "atom_type": "N3d"}, "3": {"label": "*3", "atom_type": "Cd"}, "5": {"label": "*2", "atom_type": "H0"}}

>  <type>  (7) 
unop_3

>  <geom_source>  (7) 
Heuristics

$$$$

     RDKit          3D

  7  5  0  0  0  0  0  0  0  0999 V2000
    1.2266    0.4400    0.0198 O   0  0  0  0  0  0  0  0  0  0  0  0
    0.3971   -0.5946   -0.3443 N   0  0  0  0  0  0  0  0  0  0  0  0
   -0.6361   -0.8904    0.3728 C   0  0  0  0  0  0  0  0  0  0  0  0
    2.0340    0.6651   -0.5476 H   0  0  0  0  0  0  0  0  0  0  0  0
   -0.8662   -0.3303    1.2705 H   0  0  0  0  0  0  0  0  0  0  0  0
   -1.1418    1.0081   -0.5642 H   0  0  0  0  0 15  0  0  0  0  0  0
   -1.0137   -0.2979   -0.2070 H   0  0  0  0  0  0  0  0  0  0  0  0
  1  2  1  0
  1  4  1  0
  2  3  2  3
  3  5  1  0
  3  7  1  0
M  END
>  <reaction>  (8) 
rmg_rxn_15401

>  <mol_properties>  (8) 
{"0": {"label": "*1", "atom_type": "H0"}, "2": {"label": "*4", "atom_type": "N3d"}, "3": {"label": "*3", "atom_type": "Cd"}, "5": {"label": "*2", "atom_type": "H0"}}

>  <type>  (8) 
unop_4

>  <geom_source>  (8) 
AutoTST

$$$$

     RDKit          3D

  7  5  0  0  0  0  0  0  0  0999 V2000
    1.3074    2.3135    0.0003 H   0  0  0  0  0 15  0  0  0  0  0  0
   -1.1307    0.1530    0.0000 O   0  0  0  0  0  0  0  0  0  0  0  0
    0.0431   -0.5139    0.0000 N   0  0  0  0  0  0  0  0  0  0  0  0
    1.1510    0.0405   -0.0001 C   0  0  0  0  0  0  0  0  0  0  0  0
   -1.0025    1.1212   -0.0004 H   0  0  0  0  0  0  0  0  0  0  0  0
    1.2842    1.3514   -0.0000 H   0  0  0  0  0  0  0  0  0  0  0  0
    2.0439   -0.5564    0.0002 H   0  0  0  0  0  0  0  0  0  0  0  0
  2  3  1  0
  2  5  1  0
  3  4  2  3
  4  6  1  0
  4  7  1  0
M  END
>  <reaction>  (9) 
rmg_rxn_15401

>  <mol_properties>  (9) 
{"0": {"label": "*1", "atom_type": "H0"}, "2": {"label": "*4", "atom_type": "N3d"}, "3": {"label": "*3", "atom_type": "Cd"}, "5": {"label": "*2", "atom_type": "H0"}}

>  <type>  (9) 
unop_5

>  <geom_source>  (9) 
gaussian_log

$$$$
