
     RDKit          3D

  5  4  0  0  0  0  0  0  0  0999 V2000
   -0.4583    0.0384    0.1517 N   0  0  0  0  0  0  0  0  0  0  0  0
    0.7454   -0.3487    0.5322 N   0  0  0  0  0  0  0  0  0  0  0  0
    0.7566   -1.0388    1.5193 O   0  0  0  0  0  0  0  0  0  0  0  0
   -1.2688   -0.2521    0.6850 H   0  0  0  0  0  0  0  0  0  0  0  0
   -0.5137    0.6154   -0.6670 H   0  0  0  0  0  0  0  0  0  0  0  0
  1  2  1  0
  1  4  1  0
  1  5  1  0
  2  3  2  0
M  END
>  <reaction>  (1) 
rmg_rxn_1479

>  <mol_properties>  (1) 
{"0": {"label": "donator", "atom_type": "N3s"}, "3": {"label": "d_hydrogen", "atom_type": "H0"}}

>  <type>  (1) 
r1h

$$$$

     RDKit          3D

 17 16  0  0  0  0  0  0  0  0999 V2000
    3.3619    0.3511   -1.0290 C   0  0  0  0  0  3  0  0  0  0  0  0
    2.1806    1.0643   -0.5073 C   0  0  0  0  0  0  0  0  0  0  0  0
    1.4028    0.1998    0.2757 O   0  0  0  0  0  0  0  0  0  0  0  0
    0.2433    0.8081    0.7885 C   0  0  0  0  0  0  0  0  0  0  0  0
   -0.5040   -0.1878    1.6510 C   0  0  0  0  0  0  0  0  0  0  0  0
    0.2852   -0.6298    2.8762 C   0  0  0  0  0  0  0  0  0  0  0  0
    4.1174    0.8902   -1.5820 H   0  0  0  0  0  0  0  0  0  0  0  0
    3.4399   -0.7198   -0.9141 H   0  0  0  0  0  0  0  0  0  0  0  0
    1.5724    1.4684   -1.3398 H   0  0  0  0  0  0  0  0  0  0  0  0
    2.4896    1.9442    0.0856 H   0  0  0  0  0  0  0  0  0  0  0  0
    0.5169    1.6937    1.3835 H   0  0  0  0  0  0  0  0  0  0  0  0
   -0.3954    1.1528   -0.0379 H   0  0  0  0  0  0  0  0  0  0  0  0
   -0.7611   -1.0545    1.0367 H   0  0  0  0  0  0  0  0  0  0  0  0
   -1.4466    0.2743    1.9571 H   0  0  0  0  0  0  0  0  0  0  0  0
    0.5263    0.2245    3.5136 H   0  0  0  0  0  0  0  0  0  0  0  0
    1.2220   -1.1033    2.5825 H   0  0  0  0  0  0  0  0  0  0  0  0
   -0.2849   -1.3427    3.4737 H   0  0  0  0  0  0  0  0  0  0  0  0
  1  2  1  0
  1  7  1  0
  1  8  1  0
  2  3  1  0
  2  9  1  0
  2 10  1  0
  3  4  1  0
  4  5  1  0
  4 11  1  0
  4 12  1  0
  5  6  1  0
  5 13  1  0
  5 14  1  0
  6 15  1  0
  6 16  1  0
  6 17  1  0
M  RAD  1   1   2
M  END
>  <reaction>  (2) 
rmg_rxn_1479

>  <mol_properties>  (2) 
{"0": {"label": "acceptor", "atom_type": "Cs"}}

>  <type>  (2) 
r2

$$$$

     RDKit          3D

 18 17  0  0  0  0  0  0  0  0999 V2000
    2.2026   -0.7213   -0.2612 C   0  0  0  0  0  0  0  0  0  0  0  0
    1.5384    0.2638    0.6915 C   0  0  0  0  0  0  0  0  0  0  0  0
    2.2584    1.5946    0.7694 C   0  0  0  0  0  0  0  0  0  0  0  0
    2.2212    2.2185   -0.4893 O   0  0  0  0  0  0  0  0  0  0  0  0
    2.8988    3.4488   -0.5204 C   0  0  0  0  0  0  0  0  0  0  0  0
    2.7981    4.0296   -1.9118 C   0  0  0  0  0  0  0  0  0  0  0  0
    3.2294   -0.9309    0.0486 H   0  0  0  0  0  0  0  0  0  0  0  0
    2.2338   -0.3181   -1.2734 H   0  0  0  0  0  0  0  0  0  0  0  0
    1.6610   -1.6680   -0.2875 H   0  0  0  0  0  0  0  0  0  0  0  0
    1.4990   -0.1566    1.7002 H   0  0  0  0  0  0  0  0  0  0  0  0
    0.5055    0.4455    0.3835 H   0  0  0  0  0  0  0  0  0  0  0  0
    3.3038    1.4410    1.0808 H   0  0  0  0  0  0  0  0  0  0  0  0
    1.7844    2.2410    1.5226 H   0  0  0  0  0  0  0  0  0  0  0  0
    2.4596    4.1376    0.2164 H   0  0  0  0  0  0  0  0  0  0  0  0
    3.9524    3.3035   -0.2397 H   0  0  0  0  0  0  0  0  0  0  0  0
    1.7543    4.1869   -2.1856 H   0  0  0  0  0  0  0  0  0  0  0  0
    3.2472    3.3545   -2.6411 H   0  0  0  0  0  0  0  0  0  0  0  0
    3.3178    4.9878   -1.9600 H   0  0  0  0  0  0  0  0  0  0  0  0
  1  2  1  0
  1  7  1  0
  1  8  1  0
  1  9  1  0
  2  3  1  0
  2 10  1  0
  2 11  1  0
  3  4  1  0
  3 12  1  0
  3 13  1  0
  4  5  1  0
  5  6  1  0
  5 14  1  0
  5 15  1  0
  6 16  1  0
  6 17  1  0
  6 18  1  0
M  END
>  <reaction>  (3) 
rmg_rxn_1479

>  <mol_properties>  (3) 
{"0": {"label": "a_hydrogen", "atom_type": "H0"}, "1": {"label": "acceptor", "atom_type": "Cs"}}

>  <type>  (3) 
r2h

$$$$

     RDKit          3D

 22 20  0  0  0  0  0  0  0  0999 V2000
    1.5112    0.1747    0.7179 N   0  0  0  0  0  0  0  0  0  0  0  0
    2.1229    0.9126   -0.1467 N   0  0  0  0  0  0  0  0  0  0  0  0
    2.6987    0.3820   -1.0626 O   0  0  0  0  0  0  0  0  0  0  0  0
    1.1838   -0.9397    0.3037 H   0  0  0  0  0  0  0  0  0  0  0  0
    0.8265    0.6943    1.2564 H   0  0  0  0  0  0  0  0  0  0  0  0
    0.5835   -2.0279   -0.2908 C   0  0  0  0  0  3  0  0  0  0  0  0
   -0.7763   -2.0581    0.3563 C   0  0  0  0  0  0  0  0  0  0  0  0
   -1.3790   -0.7926    0.4994 O   0  0  0  0  0  0  0  0  0  0  0  0
   -1.6924   -0.1473   -0.7158 C   0  0  0  0  0  0  0  0  0  0  0  0
   -2.4442    1.1326   -0.4138 C   0  0  0  0  0  0  0  0  0  0  0  0
   -1.6313    2.1252    0.4072 C   0  0  0  0  0  0  0  0  0  0  0  0
    1.2303   -2.8654   -0.0426 H   0  0  0  0  0  0  0  0  0  0  0  0
    0.6188   -1.7747   -1.3466 H   0  0  0  0  0  0  0  0  0  0  0  0
   -0.7063   -2.4641    1.3659 H   0  0  0  0  0  0  0  0  0  0  0  0
   -1.4407   -2.7221   -0.2216 H   0  0  0  0  0  0  0  0  0  0  0  0
   -0.7762    0.0878   -1.2748 H   0  0  0  0  0  0  0  0  0  0  0  0
   -2.3029   -0.8130   -1.3417 H   0  0  0  0  0  0  0  0  0  0  0  0
   -3.3703    0.8829    0.1096 H   0  0  0  0  0  0  0  0  0  0  0  0
   -2.7287    1.5836   -1.3681 H   0  0  0  0  0  0  0  0  0  0  0  0
   -2.1821    3.0544    0.5572 H   0  0  0  0  0  0  0  0  0  0  0  0
   -0.6914    2.3721   -0.0934 H   0  0  0  0  0  0  0  0  0  0  0  0
   -1.4009    1.7150    1.3918 H   0  0  0  0  0  0  0  0  0  0  0  0
  1  2  1  0
  1  4  1  0
  1  5  1  0
  2  3  2  0
  6  7  1  0
  6 12  1  0
  6 13  1  0
  7  8  1  0
  7 14  1  0
  7 15  1  0
  8  9  1  0
  9 10  1  0
  9 16  1  0
  9 17  1  0
 10 11  1  0
 10 18  1  0
 10 19  1  0
 11 20  1  0
 11 21  1  0
 11 22  1  0
M  RAD  1   6   2
M  END
>  <reaction>  (4) 
rmg_rxn_1479

>  <mol_properties>  (4) 
{"0": {"label": "*1", "atom_type": "N3s"}, "1": {"label": "*0", "atom_type": "N3d"}, "3": {"label": "*2", "atom_type": "H0"}, "5": {"label": "*3", "atom_type": "Cs"}, "6": {"label": "*4", "atom_type": "Cs"}}

>  <type>  (4) 
ts

$$$$

     RDKit          3D

 22 20  0  0  0  0  0  0  0  0999 V2000
    1.5088   -0.1060    0.5720 N   0  0  0  0  0  0  0  0  0  0  0  0
    2.3932   -0.9078    0.2095 N   0  0  0  0  0  0  0  0  0  0  0  0
    3.3369   -0.6679   -0.5062 O   0  0  0  0  0  0  0  0  0  0  0  0
    1.1673    0.9821    0.0985 H   0  0  0  0  0  0  0  0  0  0  0  0
    0.7495   -0.5136    1.1111 H   0  0  0  0  0  0  0  0  0  0  0  0
    0.5639    2.0385   -0.3678 C   0  0  0  0  0  3  0  0  0  0  0  0
   -0.7744    2.0437    0.3404 C   0  0  0  0  0  0  0  0  0  0  0  0
   -1.3383    0.7549    0.4984 O   0  0  0  0  0  0  0  0  0  0  0  0
   -1.7789    0.1527   -0.7013 C   0  0  0  0  0  0  0  0  0  0  0  0
   -2.5353   -1.1290   -0.3645 C   0  0  0  0  0  0  0  0  0  0  0  0
   -1.6384   -2.1633    0.3048 C   0  0  0  0  0  0  0  0  0  0  0  0
    0.4899    1.9050   -1.4415 H   0  0  0  0  0  0  0  0  0  0  0  0
    1.1682    2.9023   -0.1223 H   0  0  0  0  0  0  0  0  0  0  0  0
   -1.4932    2.6949   -0.1870 H   0  0  0  0  0  0  0  0  0  0  0  0
   -0.6586    2.4149    1.3622 H   0  0  0  0  0  0  0  0  0  0  0  0
   -2.4402    0.8465   -1.2432 H   0  0  0  0  0  0  0  0  0  0  0  0
   -0.9243   -0.0823   -1.3527 H   0  0  0  0  0  0  0  0  0  0  0  0
   -2.9479   -1.5354   -1.2894 H   0  0  0  0  0  0  0  0  0  0  0  0
   -3.3619   -0.8800    0.3022 H   0  0  0  0  0  0  0  0  0  0  0  0
   -1.2749   -1.7783    1.2542 H   0  0  0  0  0  0  0  0  0  0  0  0
   -0.7883   -2.4037   -0.3308 H   0  0  0  0  0  0  0  0  0  0  0  0
   -2.1938   -3.0780    0.4963 H   0  0  0  0  0  0  0  0  0  0  0  0
  1  2  1  0
  1  4  1  0
  1  5  1  0
  2  3  2  0
  6  7  1  0
  6 12  1  0
  6 13  1  0
  7  8  1  0
  7 14  1  0
  7 15  1  0
  8  9  1  0
  9 10  1  0
  9 16  1  0
  9 17  1  0
 10 11  1  0
 10 18  1  0
 10 19  1  0
 11 20  1  0
 11 21  1  0
 11 22  1  0
M  RAD  1   6   2
M  END
>  <reaction>  (5) 
rmg_rxn_1479

>  <mol_properties>  (5) 
{"0": {"label": "*1", "atom_type": "N3s"}, "1": {"label": "*0", "atom_type": "N3d"}, "3": {"label": "*2", "atom_type": "H0"}, "5": {"label": "*3", "atom_type": "Cs"}, "6": {"label": "*4", "atom_type": "Cs"}}

>  <type>  (5) 
unop_1

>  <geom_source>  (5) 
crest_best.xyz

$$$$

     RDKit          3D

 22 20  0  0  0  0  0  0  0  0999 V2000
    0.7091   -2.7759    1.2109 N   0  0  0  0  0  0  0  0  0  0  0  0
    0.7091   -3.9787    0.6662 N   0  0  0  0  0  0  0  0  0  0  0  0
    0.7091   -3.9787   -0.5383 O   0  0  0  0  0  0  0  0  0  0  0  0
    0.7091   -1.7933    0.4957 H   0  0  0  0  0  0  0  0  0  0  0  0
    0.7091   -2.7296    2.2130 H   0  0  0  0  0  0  0  0  0  0  0  0
    0.7091   -0.7346   -0.2748 C   0  0  0  0  0  3  0  0  0  0  0  0
   -0.5185    0.1058   -0.0099 C   0  0  0  0  0  0  0  0  0  0  0  0
   -0.1594    1.4634   -0.0497 O   0  0  0  0  0  0  0  0  0  0  0  0
   -1.2392    2.3316    0.1854 C   0  0  0  0  0  0  0  0  0  0  0  0
   -0.7617    3.7657    0.0835 C   0  0  0  0  0  0  0  0  0  0  0  0
   -0.2527    4.1299   -1.3049 C   0  0  0  0  0  0  0  0  0  0  0  0
    1.1267   -0.5028   -1.2553 H   0  0  0  0  0  0  0  0  0  0  0  0
    1.4736   -0.5427    0.4789 H   0  0  0  0  0  0  0  0  0  0  0  0
   -0.9480   -0.1401    0.9726 H   0  0  0  0  0  0  0  0  0  0  0  0
   -1.2943   -0.0988   -0.7625 H   0  0  0  0  0  0  0  0  0  0  0  0
   -2.0369    2.1456   -0.5512 H   0  0  0  0  0  0  0  0  0  0  0  0
   -1.6637    2.1410    1.1821 H   0  0  0  0  0  0  0  0  0  0  0  0
    0.0258    3.9230    0.8251 H   0  0  0  0  0  0  0  0  0  0  0  0
   -1.5941    4.4178    0.3621 H   0  0  0  0  0  0  0  0  0  0  0  0
   -1.0377    4.0003   -2.0541 H   0  0  0  0  0  0  0  0  0  0  0  0
    0.5875    3.4954   -1.5868 H   0  0  0  0  0  0  0  0  0  0  0  0
    0.0770    5.1693   -1.3421 H   0  0  0  0  0  0  0  0  0  0  0  0
  1  2  1  0
  1  4  1  0
  1  5  1  0
  2  3  2  0
  6  7  1  0
  6 12  1  0
  6 13  1  0
  7  8  1  0
  7 14  1  0
  7 15  1  0
  8  9  1  0
  9 10  1  0
  9 16  1  0
  9 17  1  0
 10 11  1  0
 10 18  1  0
 10 19  1  0
 11 20  1  0
 11 21  1  0
 11 22  1  0
M  RAD  1   6   2
M  END
>  <reaction>  (6) 
rmg_rxn_1479

>  <mol_properties>  (6) 
{"0": {"label": "*1", "atom_type": "N3s"}, "1": {"label": "*0", "atom_type": "N3d"}, "3": {"label": "*2", "atom_type": "H0"}, "5": {"label": "*3", "atom_type": "Cs"}, "6": {"label": "*4", "atom_type": "Cs"}}

>  <type>  (6) 
unop_2

>  <geom_source>  (6) 
Heuristics

$$$$

     RDKit          3D

 22 20  0  0  0  0  0  0  0  0999 V2000
   -1.5080    0.0995    0.5775 N   0  0  0  0  0  0  0  0  0  0  0  0
   -2.3873    0.9048    0.2109 N   0  0  0  0  0  0  0  0  0  0  0  0
   -3.3278    0.6694   -0.5106 O   0  0  0  0  0  0  0  0  0  0  0  0
   -1.1658   -0.9875    0.1018 H   0  0  0  0  0  0  0  0  0  0  0  0
   -0.7498    0.5042    1.1204 H   0  0  0  0  0  0  0  0  0  0  0  0
   -0.5612   -2.0421   -0.3669 C   0  0  0  0  0  3  0  0  0  0  0  0
    0.7791   -2.0449    0.3377 C   0  0  0  0  0  0  0  0  0  0  0  0
    1.3395   -0.7548    0.4969 O   0  0  0  0  0  0  0  0  0  0  0  0
    1.7749   -0.1485   -0.7027 C   0  0  0  0  0  0  0  0  0  0  0  0
    2.5262    1.1360   -0.3654 C   0  0  0  0  0  0  0  0  0  0  0  0
    1.6265    2.1652    0.3079 C   0  0  0  0  0  0  0  0  0  0  0  0
   -0.4904   -1.9076   -1.4407 H   0  0  0  0  0  0  0  0  0  0  0  0
   -1.1629   -2.9073   -0.1203 H   0  0  0  0  0  0  0  0  0  0  0  0
    1.4984   -2.6929   -0.1930 H   0  0  0  0  0  0  0  0  0  0  0  0
    0.6673   -2.4186    1.3591 H   0  0  0  0  0  0  0  0  0  0  0  0
    2.4379   -0.8386   -1.2473 H   0  0  0  0  0  0  0  0  0  0  0  0
    0.9177    0.0838   -1.3518 H   0  0  0  0  0  0  0  0  0  0  0  0
    2.9348    1.5458   -1.2907 H   0  0  0  0  0  0  0  0  0  0  0  0
    3.3555    0.8895    0.2988 H   0  0  0  0  0  0  0  0  0  0  0  0
    2.1782    3.0822    0.4990 H   0  0  0  0  0  0  0  0  0  0  0  0
    1.2674    1.7773    1.2577 H   0  0  0  0  0  0  0  0  0  0  0  0
    0.7736    2.4024   -0.3251 H   0  0  0  0  0  0  0  0  0  0  0  0
  1  2  1  0
  1  4  1  0
  1  5  1  0
  2  3  2  0
  6  7  1  0
  6 12  1  0
  6 13  1  0
  7  8  1  0
  7 14  1  0
  7 15  1  0
  8  9  1  0
  9 10  1  0
  9 16  1  0
  9 17  1  0
 10 11  1  0
 10 18  1  0
 10 19  1  0
 11 20  1  0
 11 21  1  0
 11 22  1  0
M  RAD  1   6   2
M  END
>  <reaction>  (7) 
rmg_rxn_1479

>  <mol_properties>  (7) 
{"0": {"label": "*1", "atom_type": "N3s"}, "1": {"label": "*0", "atom_type": "N3d"}, "3": {"label": "*2", "atom_type": "H0"}, "5": {"label": "*3", "atom_type": "Cs"}, "6": {"label": "*4", "atom_type": "Cs"}}

>  <type>  (7) 
unop_3

>  <geom_source>  (7) 
Heuristics

$$$$

     RDKit          3D

 22 20  0  0  0  0  0  0  0  0999 V2000
    0.6910   -1.7747    2.7979 N   0  0  0  0  0  0  0  0  0  0  0  0
    0.6910   -2.9775    2.2532 N   0  0  0  0  0  0  0  0  0  0  0  0
    0.6910   -2.9775    1.0487 O   0  0  0  0  0  0  0  0  0  0  0  0
    0.6910   -0.7920    2.0827 H   0  0  0  0  0  0  0  0  0  0  0  0
    0.6910   -1.7283    3.8000 H   0  0  0  0  0  0  0  0  0  0  0  0
    0.6910    0.2666    1.3122 C   0  0  0  0  0  3  0  0  0  0  0  0
   -0.0178   -0.0325    0.0115 C   0  0  0  0  0  0  0  0  0  0  0  0
   -0.3715    1.1795   -0.6046 O   0  0  0  0  0  0  0  0  0  0  0  0
   -1.0392    1.0070   -1.8291 C   0  0  0  0  0  0  0  0  0  0  0  0
   -1.3420    2.3638   -2.4313 C   0  0  0  0  0  0  0  0  0  0  0  0
   -0.0897    3.1617   -2.7693 C   0  0  0  0  0  0  0  0  0  0  0  0
    1.5924    0.8528    1.1302 H   0  0  0  0  0  0  0  0  0  0  0  0
    0.0411    0.8333    1.9800 H   0  0  0  0  0  0  0  0  0  0  0  0
   -0.9185   -0.6371    0.1947 H   0  0  0  0  0  0  0  0  0  0  0  0
    0.6334   -0.6160   -0.6559 H   0  0  0  0  0  0  0  0  0  0  0  0
   -0.4123    0.4191   -2.5182 H   0  0  0  0  0  0  0  0  0  0  0  0
   -1.9704    0.4429   -1.6725 H   0  0  0  0  0  0  0  0  0  0  0  0
   -1.9657    2.9236   -1.7296 H   0  0  0  0  0  0  0  0  0  0  0  0
   -1.9419    2.2056   -3.3319 H   0  0  0  0  0  0  0  0  0  0  0  0
    0.5324    2.6240   -3.4892 H   0  0  0  0  0  0  0  0  0  0  0  0
    0.5086    3.3381   -1.8755 H   0  0  0  0  0  0  0  0  0  0  0  0
   -0.3459    4.1286   -3.2049 H   0  0  0  0  0  0  0  0  0  0  0  0
  1  2  1  0
  1  4  1  0
  1  5  1  0
  2  3  2  0
  6  7  1  0
  6 12  1  0
  6 13  1  0
  7  8  1  0
  7 14  1  0
  7 15  1  0
  8  9  1  0
  9 10  1  0
  9 16  1  0
  9 17  1  0
 10 11  1  0
 10 18  1  0
 10 19  1  0
 11 20  1  0
 11 21  1  0
 11 22  1  0
M  RAD  1   6   2
M  END
>  <reaction>  (8) 
rmg_rxn_1479

>  <mol_properties>  (8) 
{"0": {"label": "*1", "atom_type": "N3s"}, "1": {"label": "*0", "atom_type": "N3d"}, "3": {"label": "*2", "atom_type": "H0"}, "5": {"label": "*3", "atom_type": "Cs"}, "6": {"label": "*4", "atom_type": "Cs"}}

>  <type>  (8) 
unop_4

>  <geom_source>  (8) 
Heuristics

$$$$

     RDKit          3D

 22 20  0  0  0  0  0  0  0  0999 V2000
    1.5084    0.1021    0.5746 N   0  0  0  0  0  0  0  0  0  0  0  0
    2.3899    0.9061    0.2106 N   0  0  0  0  0  0  0  0  0  0  0  0
    3.3319    0.6691   -0.5084 O   0  0  0  0  0  0  0  0  0  0  0  0
    1.1663   -0.9852    0.0996 H   0  0  0  0  0  0  0  0  0  0  0  0
    0.7496    0.5075    1.1162 H   0  0  0  0  0  0  0  0  0  0  0  0
    0.5623   -2.0407   -0.3680 C   0  0  0  0  0  3  0  0  0  0  0  0
   -0.7766   -2.0442    0.3391 C   0  0  0  0  0  0  0  0  0  0  0  0
   -1.3385   -0.7546    0.4978 O   0  0  0  0  0  0  0  0  0  0  0  0
   -1.7772   -0.1505   -0.7017 C   0  0  0  0  0  0  0  0  0  0  0  0
   -2.5307    1.1327   -0.3645 C   0  0  0  0  0  0  0  0  0  0  0  0
   -1.6315    2.1643    0.3058 C   0  0  0  0  0  0  0  0  0  0  0  0
    1.1650   -2.9055   -0.1225 H   0  0  0  0  0  0  0  0  0  0  0  0
    0.4892   -1.9063   -1.4417 H   0  0  0  0  0  0  0  0  0  0  0  0
   -0.6622   -2.4165    1.3607 H   0  0  0  0  0  0  0  0  0  0  0  0
   -1.4959   -2.6939   -0.1895 H   0  0  0  0  0  0  0  0  0  0  0  0
   -0.9217    0.0824   -1.3527 H   0  0  0  0  0  0  0  0  0  0  0  0
   -2.4400   -0.8424   -1.2440 H   0  0  0  0  0  0  0  0  0  0  0  0
   -3.3584    0.8857    0.3016 H   0  0  0  0  0  0  0  0  0  0  0  0
   -2.9418    1.5408   -1.2894 H   0  0  0  0  0  0  0  0  0  0  0  0
   -2.1847    3.0804    0.4967 H   0  0  0  0  0  0  0  0  0  0  0  0
   -0.7802    2.4023   -0.3289 H   0  0  0  0  0  0  0  0  0  0  0  0
   -1.2700    1.7783    1.2555 H   0  0  0  0  0  0  0  0  0  0  0  0
  1  2  1  0
  1  4  1  0
  1  5  1  0
  2  3  2  0
  6  7  1  0
  6 12  1  0
  6 13  1  0
  7  8  1  0
  7 14  1  0
  7 15  1  0
  8  9  1  0
  9 10  1  0
  9 16  1  0
  9 17  1  0
 10 11  1  0
 10 18  1  0
 10 19  1  0
 11 20  1  0
 11 21  1  0
 11 22  1  0
M  RAD  1   6   2
M  END
>  <reaction>  (9) 
rmg_rxn_1479

>  <mol_properties>  (9) 
{"0": {"label": "*1", "atom_type": "N3s"}, "1": {"label": "*0", "atom_type": "N3d"}, "3": {"label": "*2", "atom_type": "H0"}, "5": {"label": "*3", "atom_type": "Cs"}, "6": {"label": "*4", "atom_type": "Cs"}}

>  <type>  (9) 
unop_5

>  <geom_source>  (9) 
Heuristics

$$$$

     RDKit          3D

 22 20  0  0  0  0  0  0  0  0999 V2000
    0.2434   -2.9006    1.1761 N   0  0  0  0  0  0  0  0  0  0  0  0
    0.2434   -4.1034    0.6314 N   0  0  0  0  0  0  0  0  0  0  0  0
    0.2434   -4.1034   -0.5731 O   0  0  0  0  0  0  0  0  0  0  0  0
    0.2434   -1.9180    0.4609 H   0  0  0  0  0  0  0  0  0  0  0  0
    0.2434   -2.8543    2.1782 H   0  0  0  0  0  0  0  0  0  0  0  0
    0.2434   -0.8594   -0.3096 C   0  0  0  0  0  3  0  0  0  0  0  0
   -0.4654    0.2864    0.3748 C   0  0  0  0  0  0  0  0  0  0  0  0
    0.0695    1.4984   -0.0927 O   0  0  0  0  0  0  0  0  0  0  0  0
   -0.5282    2.6306    0.4870 C   0  0  0  0  0  0  0  0  0  0  0  0
    0.0857    3.8818   -0.1069 C   0  0  0  0  0  0  0  0  0  0  0  0
   -0.1660    4.0203   -1.6025 C   0  0  0  0  0  0  0  0  0  0  0  0
    0.1086   -0.8012   -1.3903 H   0  0  0  0  0  0  0  0  0  0  0  0
    1.3120   -0.8310   -0.0941 H   0  0  0  0  0  0  0  0  0  0  0  0
   -0.3421    0.2180    1.4659 H   0  0  0  0  0  0  0  0  0  0  0  0
   -1.5452    0.2489    0.1683 H   0  0  0  0  0  0  0  0  0  0  0  0
   -1.6139    2.6176    0.3015 H   0  0  0  0  0  0  0  0  0  0  0  0
   -0.3825    2.6149    1.5771 H   0  0  0  0  0  0  0  0  0  0  0  0
    1.1602    3.8700    0.0933 H   0  0  0  0  0  0  0  0  0  0  0  0
   -0.3263    4.7437    0.4253 H   0  0  0  0  0  0  0  0  0  0  0  0
   -1.2372    4.0576   -1.8155 H   0  0  0  0  0  0  0  0  0  0  0  0
    0.2541    3.1731   -2.1447 H   0  0  0  0  0  0  0  0  0  0  0  0
    0.2850    4.9334   -1.9937 H   0  0  0  0  0  0  0  0  0  0  0  0
  1  2  1  0
  1  4  1  0
  1  5  1  0
  2  3  2  0
  6  7  1  0
  6 12  1  0
  6 13  1  0
  7  8  1  0
  7 14  1  0
  7 15  1  0
  8  9  1  0
  9 10  1  0
  9 16  1  0
  9 17  1  0
 10 11  1  0
 10 18  1  0
 10 19  1  0
 11 20  1  0
 11 21  1  0
 11 22  1  0
M  RAD  1   6   2
M  END
>  <reaction>  (10) 
rmg_rxn_1479

>  <mol_properties>  (10) 
{"0": {"label": "*1", "atom_type": "N3s"}, "1": {"label": "*0", "atom_type": "N3d"}, "3": {"label": "*2", "atom_type": "H0"}, "5": {"label": "*3", "atom_type": "Cs"}, "6": {"label": "*4", "atom_type": "Cs"}}

>  <type>  (10) 
unop_6

>  <geom_source>  (10) 
Heuristics

$$$$

     RDKit          3D

 22 20  0  0  0  0  0  0  0  0999 V2000
   -1.3376   -2.0991    1.9874 N   0  0  0  0  0  0  0  0  0  0  0  0
   -1.3376   -3.3019    1.4427 N   0  0  0  0  0  0  0  0  0  0  0  0
   -1.3376   -3.3019    0.2382 O   0  0  0  0  0  0  0  0  0  0  0  0
   -1.3376   -1.1164    1.2722 H   0  0  0  0  0  0  0  0  0  0  0  0
   -1.3376   -2.0527    2.9895 H   0  0  0  0  0  0  0  0  0  0  0  0
   -1.3376   -0.0578    0.5017 C   0  0  0  0  0  3  0  0  0  0  0  0
   -0.1100   -0.0515   -0.3795 C   0  0  0  0  0  0  0  0  0  0  0  0
    0.2703    1.2788   -0.6228 O   0  0  0  0  0  0  0  0  0  0  0  0
    1.4100    1.3915   -1.4373 C   0  0  0  0  0  0  0  0  0  0  0  0
    1.7620    2.8551   -1.6085 C   0  0  0  0  0  0  0  0  0  0  0  0
    2.1384    3.5373   -0.3001 C   0  0  0  0  0  0  0  0  0  0  0  0
   -1.1284    0.4348    1.4519 H   0  0  0  0  0  0  0  0  0  0  0  0
   -2.1599    0.4681    0.0152 H   0  0  0  0  0  0  0  0  0  0  0  0
   -0.3175   -0.5625   -1.3314 H   0  0  0  0  0  0  0  0  0  0  0  0
    0.7146   -0.5941    0.1060 H   0  0  0  0  0  0  0  0  0  0  0  0
    2.2533    0.8511   -0.9788 H   0  0  0  0  0  0  0  0  0  0  0  0
    1.2186    0.9283   -2.4164 H   0  0  0  0  0  0  0  0  0  0  0  0
    0.9108    3.3655   -2.0666 H   0  0  0  0  0  0  0  0  0  0  0  0
    2.5906    2.9206   -2.3191 H   0  0  0  0  0  0  0  0  0  0  0  0
    3.0040    3.0516    0.1576 H   0  0  0  0  0  0  0  0  0  0  0  0
    1.3135    3.4908    0.4109 H   0  0  0  0  0  0  0  0  0  0  0  0
    2.3904    4.5863   -0.4625 H   0  0  0  0  0  0  0  0  0  0  0  0
  1  2  1  0
  1  4  1  0
  1  5  1  0
  2  3  2  0
  6  7  1  0
  6 12  1  0
  6 13  1  0
  7  8  1  0
  7 14  1  0
  7 15  1  0
  8  9  1  0
  9 10  1  0
  9 16  1  0
  9 17  1  0
 10 11  1  0
 10 18  1  0
 10 19  1  0
 11 20  1  0
 11 21  1  0
 11 22  1  0
M  RAD  1   6   2
M  END
>  <reaction>  (11) 
rmg_rxn_1479

>  <mol_properties>  (11) 
{"0": {"label": "*1", "atom_type": "N3s"}, "1": {"label": "*0", "atom_type": "N3d"}, "3": {"label": "*2", "atom_type": "H0"}, "5": {"label": "*3", "atom_type": "Cs"}, "6": {"label": "*4", "atom_type": "Cs"}}

>  <type>  (11) 
unop_7

>  <geom_source>  (11) 
Heuristics

$$$$

     RDKit          3D

 22 20  0  0  0  0  0  0  0  0999 V2000
    1.5083    0.1048   -0.5744 N   0  0  0  0  0  0  0  0  0  0  0  0
    2.3903    0.9079   -0.2093 N   0  0  0  0  0  0  0  0  0  0  0  0
    3.3331    0.6691    0.5079 O   0  0  0  0  0  0  0  0  0  0  0  0
    1.1672   -0.9835   -0.1010 H   0  0  0  0  0  0  0  0  0  0  0  0
    0.7490    0.5117   -1.1141 H   0  0  0  0  0  0  0  0  0  0  0  0
    0.5644   -2.0399    0.3659 C   0  0  0  0  0  3  0  0  0  0  0  0
   -0.7754   -2.0443   -0.3396 C   0  0  0  0  0  0  0  0  0  0  0  0
   -1.3386   -0.7553   -0.4972 O   0  0  0  0  0  0  0  0  0  0  0  0
   -1.7752   -0.1512    0.7030 C   0  0  0  0  0  0  0  0  0  0  0  0
   -2.5320    1.1304    0.3667 C   0  0  0  0  0  0  0  0  0  0  0  0
   -1.6370    2.1627   -0.3082 C   0  0  0  0  0  0  0  0  0  0  0  0
    0.4926   -1.9067    1.4398 H   0  0  0  0  0  0  0  0  0  0  0  0
    1.1679   -2.9037    0.1187 H   0  0  0  0  0  0  0  0  0  0  0  0
   -1.4936   -2.6947    0.1899 H   0  0  0  0  0  0  0  0  0  0  0  0
   -0.6622   -2.4165   -1.3613 H   0  0  0  0  0  0  0  0  0  0  0  0
   -2.4351   -0.8440    1.2478 H   0  0  0  0  0  0  0  0  0  0  0  0
   -0.9185    0.0842    1.3515 H   0  0  0  0  0  0  0  0  0  0  0  0
   -2.9407    1.5390    1.2924 H   0  0  0  0  0  0  0  0  0  0  0  0
   -3.3615    0.8808   -0.2962 H   0  0  0  0  0  0  0  0  0  0  0  0
   -0.7845    2.4041    0.3237 H   0  0  0  0  0  0  0  0  0  0  0  0
   -2.1927    3.0772   -0.4998 H   0  0  0  0  0  0  0  0  0  0  0  0
   -1.2772    1.7753   -1.2580 H   0  0  0  0  0  0  0  0  0  0  0  0
  1  2  1  0
  1  4  1  0
  1  5  1  0
  2  3  2  0
  6  7  1  0
  6 12  1  0
  6 13  1  0
  7  8  1  0
  7 14  1  0
  7 15  1  0
  8  9  1  0
  9 10  1  0
  9 16  1  0
  9 17  1  0
 10 11  1  0
 10 18  1  0
 10 19  1  0
 11 20  1  0
 11 21  1  0
 11 22  1  0
M  RAD  1   6   2
M  END
>  <reaction>  (12) 
rmg_rxn_1479

>  <mol_properties>  (12) 
{"0": {"label": "*1", "atom_type": "N3s"}, "1": {"label": "*0", "atom_type": "N3d"}, "3": {"label": "*2", "atom_type": "H0"}, "5": {"label": "*3", "atom_type": "Cs"}, "6": {"label": "*4", "atom_type": "Cs"}}

>  <type>  (12) 
unop_8

>  <geom_source>  (12) 
Heuristics

$$$$

     RDKit          3D

 22 20  0  0  0  0  0  0  0  0999 V2000
    0.1516   -2.9115    1.2417 N   0  0  0  0  0  0  0  0  0  0  0  0
    0.1516   -4.1144    0.6970 N   0  0  0  0  0  0  0  0  0  0  0  0
    0.1516   -4.1144   -0.5075 O   0  0  0  0  0  0  0  0  0  0  0  0
    0.1516   -1.9289    0.5265 H   0  0  0  0  0  0  0  0  0  0  0  0
    0.1516   -2.8652    2.2438 H   0  0  0  0  0  0  0  0  0  0  0  0
    0.1516   -0.8703   -0.2440 C   0  0  0  0  0  3  0  0  0  0  0  0
    0.1516    0.3873    0.5939 C   0  0  0  0  0  0  0  0  0  0  0  0
    0.1523    1.5038   -0.2587 O   0  0  0  0  0  0  0  0  0  0  0  0
    0.1514    2.7292    0.4294 C   0  0  0  0  0  0  0  0  0  0  0  0
    0.1127    3.8665   -0.5708 C   0  0  0  0  0  0  0  0  0  0  0  0
   -1.1568    3.8810   -1.4119 C   0  0  0  0  0  0  0  0  0  0  0  0
   -0.7330   -0.9050   -0.8810 H   0  0  0  0  0  0  0  0  0  0  0  0
    1.0360   -0.9049   -0.8811 H   0  0  0  0  0  0  0  0  0  0  0  0
    1.0361    0.4137    1.2476 H   0  0  0  0  0  0  0  0  0  0  0  0
   -0.7337    0.4146    1.2463 H   0  0  0  0  0  0  0  0  0  0  0  0
   -0.7228    2.7833    1.0973 H   0  0  0  0  0  0  0  0  0  0  0  0
    1.0496    2.8061    1.0596 H   0  0  0  0  0  0  0  0  0  0  0  0
    0.9906    3.7900   -1.2175 H   0  0  0  0  0  0  0  0  0  0  0  0
    0.2079    4.8046   -0.0169 H   0  0  0  0  0  0  0  0  0  0  0  0
   -2.0422    3.9812   -0.7792 H   0  0  0  0  0  0  0  0  0  0  0  0
   -1.2541    2.9559   -1.9800 H   0  0  0  0  0  0  0  0  0  0  0  0
   -1.1521    4.7147   -2.1155 H   0  0  0  0  0  0  0  0  0  0  0  0
  1  2  1  0
  1  4  1  0
  1  5  1  0
  2  3  2  0
  6  7  1  0
  6 12  1  0
  6 13  1  0
  7  8  1  0
  7 14  1  0
  7 15  1  0
  8  9  1  0
  9 10  1  0
  9 16  1  0
  9 17  1  0
 10 11  1  0
 10 18  1  0
 10 19  1  0
 11 20  1  0
 11 21  1  0
 11 22  1  0
M  RAD  1   6   2
M  END
>  <reaction>  (13) 
rmg_rxn_1479

>  <mol_properties>  (13) 
{"0": {"label": "*1", "atom_type": "N3s"}, "1": {"label": "*0", "atom_type": "N3d"}, "3": {"label": "*2", "atom_type": "H0"}, "5": {"label": "*3", "atom_type": "Cs"}, "6": {"label": "*4", "atom_type": "Cs"}}

>  <type>  (13) 
unop_9

>  <geom_source>  (13) 
Heuristics

$$$$

     RDKit          3D

 22 20  0  0  0  0  0  0  0  0999 V2000
    1.5082   -0.1105   -0.5670 N   0  0  0  0  0  0  0  0  0  0  0  0
    2.3966   -0.9095   -0.2082 N   0  0  0  0  0  0  0  0  0  0  0  0
    3.3434   -0.6661    0.5022 O   0  0  0  0  0  0  0  0  0  0  0  0
    1.1675    0.9789   -0.0957 H   0  0  0  0  0  0  0  0  0  0  0  0
    0.7475   -0.5203   -1.1024 H   0  0  0  0  0  0  0  0  0  0  0  0
    0.5650    2.0369    0.3678 C   0  0  0  0  0  3  0  0  0  0  0  0
   -0.7721    2.0429   -0.3425 C   0  0  0  0  0  0  0  0  0  0  0  0
   -1.3378    0.7548   -0.4992 O   0  0  0  0  0  0  0  0  0  0  0  0
   -1.7809    0.1549    0.7007 C   0  0  0  0  0  0  0  0  0  0  0  0
   -2.5400   -1.1253    0.3645 C   0  0  0  0  0  0  0  0  0  0  0  0
   -1.6452   -2.1621   -0.3037 C   0  0  0  0  0  0  0  0  0  0  0  0
    1.1710    2.8993    0.1219 H   0  0  0  0  0  0  0  0  0  0  0  0
    0.4890    1.9051    1.4417 H   0  0  0  0  0  0  0  0  0  0  0  0
   -0.6542    2.4123   -1.3647 H   0  0  0  0  0  0  0  0  0  0  0  0
   -1.4907    2.6962    0.1827 H   0  0  0  0  0  0  0  0  0  0  0  0
   -0.9273   -0.0814    1.3531 H   0  0  0  0  0  0  0  0  0  0  0  0
   -2.4409    0.8509    1.2413 H   0  0  0  0  0  0  0  0  0  0  0  0
   -3.3658   -0.8749   -0.3026 H   0  0  0  0  0  0  0  0  0  0  0  0
   -2.9540   -1.5301    1.2896 H   0  0  0  0  0  0  0  0  0  0  0  0
   -0.7963   -2.4043    0.3326 H   0  0  0  0  0  0  0  0  0  0  0  0
   -1.2801   -1.7784   -1.2530 H   0  0  0  0  0  0  0  0  0  0  0  0
   -2.2029   -3.0754   -0.4952 H   0  0  0  0  0  0  0  0  0  0  0  0
  1  2  1  0
  1  4  1  0
  1  5  1  0
  2  3  2  0
  6  7  1  0
  6 12  1  0
  6 13  1  0
  7  8  1  0
  7 14  1  0
  7 15  1  0
  8  9  1  0
  9 10  1  0
  9 16  1  0
  9 17  1  0
 10 11  1  0
 10 18  1  0
 10 19  1  0
 11 20  1  0
 11 21  1  0
 11 22  1  0
M  RAD  1   6   2
M  END
>  <reaction>  (14) 
rmg_rxn_1479

>  <mol_properties>  (14) 
{"0": {"label": "*1", "atom_type": "N3s"}, "1": {"label": "*0", "atom_type": "N3d"}, "3": {"label": "*2", "atom_type": "H0"}, "5": {"label": "*3", "atom_type": "Cs"}, "6": {"label": "*4", "atom_type": "Cs"}}

>  <type>  (14) 
unop_10

>  <geom_source>  (14) 
Heuristics

$$$$

     RDKit          3D

 22 20  0  0  0  0  0  0  0  0999 V2000
   -1.1917   -2.4792    1.3169 N   0  0  0  0  0  0  0  0  0  0  0  0
   -1.1917   -3.6820    0.7721 N   0  0  0  0  0  0  0  0  0  0  0  0
   -1.1917   -3.6820   -0.4324 O   0  0  0  0  0  0  0  0  0  0  0  0
   -1.1917   -1.4966    0.6017 H   0  0  0  0  0  0  0  0  0  0  0  0
   -1.1917   -2.4329    2.3190 H   0  0  0  0  0  0  0  0  0  0  0  0
   -1.1917   -0.4380   -0.1689 C   0  0  0  0  0  3  0  0  0  0  0  0
    0.2258   -0.0146   -0.4770 C   0  0  0  0  0  0  0  0  0  0  0  0
    0.2967    1.3884   -0.4613 O   0  0  0  0  0  0  0  0  0  0  0  0
    1.5827    1.8835   -0.7374 C   0  0  0  0  0  0  0  0  0  0  0  0
    1.5656    3.3964   -0.6590 C   0  0  0  0  0  0  0  0  0  0  0  0
    1.2269    3.9200    0.7304 C   0  0  0  0  0  0  0  0  0  0  0  0
   -1.4939   -0.0746    0.8140 H   0  0  0  0  0  0  0  0  0  0  0  0
   -1.8809   -0.0347   -0.9116 H   0  0  0  0  0  0  0  0  0  0  0  0
    0.5351   -0.3949   -1.4619 H   0  0  0  0  0  0  0  0  0  0  0  0
    0.9220   -0.4333    0.2647 H   0  0  0  0  0  0  0  0  0  0  0  0
    2.3049    1.4756   -0.0126 H   0  0  0  0  0  0  0  0  0  0  0  0
    1.9035    1.5572   -1.7376 H   0  0  0  0  0  0  0  0  0  0  0  0
    0.8442    3.7737   -1.3884 H   0  0  0  0  0  0  0  0  0  0  0  0
    2.5492    3.7602   -0.9687 H   0  0  0  0  0  0  0  0  0  0  0  0
    1.9545    3.5698    1.4668 H   0  0  0  0  0  0  0  0  0  0  0  0
    0.2413    3.5753    1.0432 H   0  0  0  0  0  0  0  0  0  0  0  0
    1.2292    5.0108    0.7503 H   0  0  0  0  0  0  0  0  0  0  0  0
  1  2  1  0
  1  4  1  0
  1  5  1  0
  2  3  2  0
  6  7  1  0
  6 12  1  0
  6 13  1  0
  7  8  1  0
  7 14  1  0
  7 15  1  0
  8  9  1  0
  9 10  1  0
  9 16  1  0
  9 17  1  0
 10 11  1  0
 10 18  1  0
 10 19  1  0
 11 20  1  0
 11 21  1  0
 11 22  1  0
M  RAD  1   6   2
M  END
>  <reaction>  (15) 
rmg_rxn_1479

>  <mol_properties>  (15) 
{"0": {"label": "*1", "atom_type": "N3s"}, "1": {"label": "*0", "atom_type": "N3d"}, "3": {"label": "*2", "atom_type": "H0"}, "5": {"label": "*3", "atom_type": "Cs"}, "6": {"label": "*4", "atom_type": "Cs"}}

>  <type>  (15) 
unop_11

>  <geom_source>  (15) 
Heuristics

$$$$

     RDKit          3D

 22 20  0  0  0  0  0  0  0  0999 V2000
    1.5075   -0.1133   -0.5633 N   0  0  0  0  0  0  0  0  0  0  0  0
    2.3989   -0.9101   -0.2072 N   0  0  0  0  0  0  0  0  0  0  0  0
    3.3481   -0.6640    0.4991 O   0  0  0  0  0  0  0  0  0  0  0  0
    1.1671    0.9769   -0.0937 H   0  0  0  0  0  0  0  0  0  0  0  0
    0.7457   -0.5248   -1.0958 H   0  0  0  0  0  0  0  0  0  0  0  0
    0.5650    2.0358    0.3684 C   0  0  0  0  0  3  0  0  0  0  0  0
   -0.7711    2.0423   -0.3439 C   0  0  0  0  0  0  0  0  0  0  0  0
   -1.3378    0.7545   -0.5001 O   0  0  0  0  0  0  0  0  0  0  0  0
   -1.7834    0.1564    0.6998 C   0  0  0  0  0  0  0  0  0  0  0  0
   -2.5427   -1.1238    0.3639 C   0  0  0  0  0  0  0  0  0  0  0  0
   -1.6476   -2.1618   -0.3021 C   0  0  0  0  0  0  0  0  0  0  0  0
    1.1719    2.8976    0.1225 H   0  0  0  0  0  0  0  0  0  0  0  0
    0.4875    1.9051    1.4423 H   0  0  0  0  0  0  0  0  0  0  0  0
   -0.6514    2.4105   -1.3663 H   0  0  0  0  0  0  0  0  0  0  0  0
   -1.4899    2.6968    0.1796 H   0  0  0  0  0  0  0  0  0  0  0  0
   -0.9312   -0.0797    1.3540 H   0  0  0  0  0  0  0  0  0  0  0  0
   -2.4440    0.8534    1.2384 H   0  0  0  0  0  0  0  0  0  0  0  0
   -3.3674   -0.8736   -0.3047 H   0  0  0  0  0  0  0  0  0  0  0  0
   -2.9583   -1.5275    1.2887 H   0  0  0  0  0  0  0  0  0  0  0  0
   -1.2811   -1.7793   -1.2514 H   0  0  0  0  0  0  0  0  0  0  0  0
   -2.2054   -3.0751   -0.4933 H   0  0  0  0  0  0  0  0  0  0  0  0
   -0.7995   -2.4037    0.3356 H   0  0  0  0  0  0  0  0  0  0  0  0
  1  2  1  0
  1  4  1  0
  1  5  1  0
  2  3  2  0
  6  7  1  0
  6 12  1  0
  6 13  1  0
  7  8  1  0
  7 14  1  0
  7 15  1  0
  8  9  1  0
  9 10  1  0
  9 16  1  0
  9 17  1  0
 10 11  1  0
 10 18  1  0
 10 19  1  0
 11 20  1  0
 11 21  1  0
 11 22  1  0
M  RAD  1   6   2
M  END
>  <reaction>  (16) 
rmg_rxn_1479

>  <mol_properties>  (16) 
{"0": {"label": "*1", "atom_type": "N3s"}, "1": {"label": "*0", "atom_type": "N3d"}, "3": {"label": "*2", "atom_type": "H0"}, "5": {"label": "*3", "atom_type": "Cs"}, "6": {"label": "*4", "atom_type": "Cs"}}

>  <type>  (16) 
unop_12

>  <geom_source>  (16) 
Heuristics

$$$$

     RDKit          3D

 22 20  0  0  0  0  0  0  0  0999 V2000
   -0.6497   -2.7691    0.9138 N   0  0  0  0  0  0  0  0  0  0  0  0
   -0.6497   -3.9719    0.3690 N   0  0  0  0  0  0  0  0  0  0  0  0
   -0.6497   -3.9719   -0.8355 O   0  0  0  0  0  0  0  0  0  0  0  0
   -0.6497   -1.7864    0.1985 H   0  0  0  0  0  0  0  0  0  0  0  0
   -0.6497   -2.7227    1.9159 H   0  0  0  0  0  0  0  0  0  0  0  0
   -0.6497   -0.7278   -0.5720 C   0  0  0  0  0  3  0  0  0  0  0  0
    0.5779    0.1127   -0.3071 C   0  0  0  0  0  0  0  0  0  0  0  0
    0.2191    1.4703   -0.3483 O   0  0  0  0  0  0  0  0  0  0  0  0
    1.2986    2.3384   -0.1115 C   0  0  0  0  0  0  0  0  0  0  0  0
    0.8059    3.7708   -0.1375 C   0  0  0  0  0  0  0  0  0  0  0  0
   -0.2009    4.0776    0.9632 C   0  0  0  0  0  0  0  0  0  0  0  0
   -1.4141   -0.5359    0.1818 H   0  0  0  0  0  0  0  0  0  0  0  0
   -1.0673   -0.4958   -1.5523 H   0  0  0  0  0  0  0  0  0  0  0  0
    1.3543   -0.0932   -1.0588 H   0  0  0  0  0  0  0  0  0  0  0  0
    1.0065   -0.1319    0.6760 H   0  0  0  0  0  0  0  0  0  0  0  0
    1.7534    2.1129    0.8661 H   0  0  0  0  0  0  0  0  0  0  0  0
    2.0752    2.1884   -0.8758 H   0  0  0  0  0  0  0  0  0  0  0  0
    0.3627    3.9678   -1.1171 H   0  0  0  0  0  0  0  0  0  0  0  0
    1.6756    4.4272   -0.0455 H   0  0  0  0  0  0  0  0  0  0  0  0
    0.2369    3.9079    1.9500 H   0  0  0  0  0  0  0  0  0  0  0  0
   -1.0793    3.4387    0.8720 H   0  0  0  0  0  0  0  0  0  0  0  0
   -0.5288    5.1172    0.9168 H   0  0  0  0  0  0  0  0  0  0  0  0
  1  2  1  0
  1  4  1  0
  1  5  1  0
  2  3  2  0
  6  7  1  0
  6 12  1  0
  6 13  1  0
  7  8  1  0
  7 14  1  0
  7 15  1  0
  8  9  1  0
  9 10  1  0
  9 16  1  0
  9 17  1  0
 10 11  1  0
 10 18  1  0
 10 19  1  0
 11 20  1  0
 11 21  1  0
 11 22  1  0
M  RAD  1   6   2
M  END
>  <reaction>  (17) 
rmg_rxn_1479

>  <mol_properties>  (17) 
{"0": {"label": "*1", "atom_type": "N3s"}, "1": {"label": "*0", "atom_type": "N3d"}, "3": {"label": "*2", "atom_type": "H0"}, "5": {"label": "*3", "atom_type": "Cs"}, "6": {"label": "*4", "atom_type": "Cs"}}

>  <type>  (17) 
unop_13

>  <geom_source>  (17) 
Heuristics

$$$$

     RDKit          3D

 22 20  0  0  0  0  0  0  0  0999 V2000
    1.1254   -2.4860    1.6126 N   0  0  0  0  0  0  0  0  0  0  0  0
    1.1254   -3.6889    1.0678 N   0  0  0  0  0  0  0  0  0  0  0  0
    1.1254   -3.6889   -0.1367 O   0  0  0  0  0  0  0  0  0  0  0  0
    1.1254   -1.5034    0.8973 H   0  0  0  0  0  0  0  0  0  0  0  0
    1.1254   -2.4397    2.6147 H   0  0  0  0  0  0  0  0  0  0  0  0
    1.1254   -0.4448    0.1268 C   0  0  0  0  0  3  0  0  0  0  0  0
   -0.2921   -0.0214   -0.1813 C   0  0  0  0  0  0  0  0  0  0  0  0
   -0.3634    1.3815   -0.1642 O   0  0  0  0  0  0  0  0  0  0  0  0
   -1.6489    1.8767   -0.4420 C   0  0  0  0  0  0  0  0  0  0  0  0
   -1.6149    3.3913   -0.4391 C   0  0  0  0  0  0  0  0  0  0  0  0
   -0.7207    3.9721   -1.5265 C   0  0  0  0  0  0  0  0  0  0  0  0
    1.8146   -0.0417   -0.6160 H   0  0  0  0  0  0  0  0  0  0  0  0
    1.4276   -0.0814    1.1096 H   0  0  0  0  0  0  0  0  0  0  0  0
   -0.9885   -0.4415    0.5596 H   0  0  0  0  0  0  0  0  0  0  0  0
   -0.6010   -0.4002   -1.1668 H   0  0  0  0  0  0  0  0  0  0  0  0
   -1.9886    1.5081   -1.4229 H   0  0  0  0  0  0  0  0  0  0  0  0
   -2.3628    1.5100    0.3102 H   0  0  0  0  0  0  0  0  0  0  0  0
   -1.2776    3.7291    0.5442 H   0  0  0  0  0  0  0  0  0  0  0  0
   -2.6402    3.7509   -0.5632 H   0  0  0  0  0  0  0  0  0  0  0  0
   -1.0609    3.6617   -2.5176 H   0  0  0  0  0  0  0  0  0  0  0  0
    0.3074    3.6318   -1.4035 H   0  0  0  0  0  0  0  0  0  0  0  0
   -0.7251    5.0627   -1.4975 H   0  0  0  0  0  0  0  0  0  0  0  0
  1  2  1  0
  1  4  1  0
  1  5  1  0
  2  3  2  0
  6  7  1  0
  6 12  1  0
  6 13  1  0
  7  8  1  0
  7 14  1  0
  7 15  1  0
  8  9  1  0
  9 10  1  0
  9 16  1  0
  9 17  1  0
 10 11  1  0
 10 18  1  0
 10 19  1  0
 11 20  1  0
 11 21  1  0
 11 22  1  0
M  RAD  1   6   2
M  END
>  <reaction>  (18) 
rmg_rxn_1479

>  <mol_properties>  (18) 
{"0": {"label": "*1", "atom_type": "N3s"}, "1": {"label": "*0", "atom_type": "N3d"}, "3": {"label": "*2", "atom_type": "H0"}, "5": {"label": "*3", "atom_type": "Cs"}, "6": {"label": "*4", "atom_type": "Cs"}}

>  <type>  (18) 
unop_14

>  <geom_source>  (18) 
Heuristics

$$$$

     RDKit          3D

 22 20  0  0  0  0  0  0  0  0999 V2000
    1.5088   -0.1060    0.5720 N   0  0  0  0  0  0  0  0  0  0  0  0
    2.3932   -0.9078    0.2095 N   0  0  0  0  0  0  0  0  0  0  0  0
    3.3369   -0.6679   -0.5062 O   0  0  0  0  0  0  0  0  0  0  0  0
    1.1673    0.9821    0.0985 H   0  0  0  0  0  0  0  0  0  0  0  0
    0.7495   -0.5136    1.1111 H   0  0  0  0  0  0  0  0  0  0  0  0
    0.5639    2.0385   -0.3678 C   0  0  0  0  0  3  0  0  0  0  0  0
   -0.7744    2.0437    0.3404 C   0  0  0  0  0  0  0  0  0  0  0  0
   -1.3383    0.7549    0.4984 O   0  0  0  0  0  0  0  0  0  0  0  0
   -1.7789    0.1527   -0.7013 C   0  0  0  0  0  0  0  0  0  0  0  0
   -2.5353   -1.1290   -0.3645 C   0  0  0  0  0  0  0  0  0  0  0  0
   -1.6384   -2.1633    0.3048 C   0  0  0  0  0  0  0  0  0  0  0  0
    0.4899    1.9050   -1.4415 H   0  0  0  0  0  0  0  0  0  0  0  0
    1.1682    2.9023   -0.1223 H   0  0  0  0  0  0  0  0  0  0  0  0
   -1.4932    2.6949   -0.1870 H   0  0  0  0  0  0  0  0  0  0  0  0
   -0.6586    2.4149    1.3622 H   0  0  0  0  0  0  0  0  0  0  0  0
   -2.4402    0.8465   -1.2432 H   0  0  0  0  0  0  0  0  0  0  0  0
   -0.9243   -0.0823   -1.3527 H   0  0  0  0  0  0  0  0  0  0  0  0
   -2.9479   -1.5354   -1.2894 H   0  0  0  0  0  0  0  0  0  0  0  0
   -3.3619   -0.8800    0.3022 H   0  0  0  0  0  0  0  0  0  0  0  0
   -1.2749   -1.7783    1.2542 H   0  0  0  0  0  0  0  0  0  0  0  0
   -0.7883   -2.4037   -0.3308 H   0  0  0  0  0  0  0  0  0  0  0  0
   -2.1938   -3.0780    0.4963 H   0  0  0  0  0  0  0  0  0  0  0  0
  1  2  1  0
  1  4  1  0
  1  5  1  0
  2  3  2  0
  6  7  1  0
  6 12  1  0
  6 13  1  0
  7  8  1  0
  7 14  1  0
  7 15  1  0
  8  9  1  0
  9 10  1  0
  9 16  1  0
  9 17  1  0
 10 11  1  0
 10 18  1  0
 10 19  1  0
 11 20  1  0
 11 21  1  0
 11 22  1  0
M  RAD  1   6   2
M  END
>  <reaction>  (19) 
rmg_rxn_1479

>  <mol_properties>  (19) 
{"0": {"label": "*1", "atom_type": "N3s"}, "1": {"label": "*0", "atom_type": "N3d"}, "3": {"label": "*2", "atom_type": "H0"}, "5": {"label": "*3", "atom_type": "Cs"}, "6": {"label": "*4", "atom_type": "Cs"}}

>  <type>  (19) 
unop_15

>  <geom_source>  (19) 
Heuristics

$$$$

     RDKit          3D

 22 20  0  0  0  0  0  0  0  0999 V2000
   -0.9568   -1.7713    2.6523 N   0  0  0  0  0  0  0  0  0  0  0  0
   -0.9568   -2.9741    2.1076 N   0  0  0  0  0  0  0  0  0  0  0  0
   -0.9568   -2.9741    0.9031 O   0  0  0  0  0  0  0  0  0  0  0  0
   -0.9568   -0.7887    1.9371 H   0  0  0  0  0  0  0  0  0  0  0  0
   -0.9568   -1.7250    3.6544 H   0  0  0  0  0  0  0  0  0  0  0  0
   -0.9568    0.2700    1.1666 C   0  0  0  0  0  3  0  0  0  0  0  0
   -0.2480   -0.0291   -0.1341 C   0  0  0  0  0  0  0  0  0  0  0  0
    0.1044    1.1829   -0.7510 O   0  0  0  0  0  0  0  0  0  0  0  0
    0.7736    1.0103   -1.9746 C   0  0  0  0  0  0  0  0  0  0  0  0
    1.1444    2.3663   -2.5396 C   0  0  0  0  0  0  0  0  0  0  0  0
    2.1186    3.1361   -1.6579 C   0  0  0  0  0  0  0  0  0  0  0  0
   -0.3068    0.8365    1.8344 H   0  0  0  0  0  0  0  0  0  0  0  0
   -1.8581    0.8562    0.9846 H   0  0  0  0  0  0  0  0  0  0  0  0
   -0.8988   -0.6141   -0.8008 H   0  0  0  0  0  0  0  0  0  0  0  0
    0.6535   -0.6323    0.0491 H   0  0  0  0  0  0  0  0  0  0  0  0
    1.6801    0.4031   -1.8237 H   0  0  0  0  0  0  0  0  0  0  0  0
    0.1295    0.4662   -2.6809 H   0  0  0  0  0  0  0  0  0  0  0  0
    0.2283    2.9456   -2.6814 H   0  0  0  0  0  0  0  0  0  0  0  0
    1.5773    2.2102   -3.5316 H   0  0  0  0  0  0  0  0  0  0  0  0
    3.0495    2.5788   -1.5270 H   0  0  0  0  0  0  0  0  0  0  0  0
    1.6909    3.3103   -0.6706 H   0  0  0  0  0  0  0  0  0  0  0  0
    2.3666    4.1031   -2.0979 H   0  0  0  0  0  0  0  0  0  0  0  0
  1  2  1  0
  1  4  1  0
  1  5  1  0
  2  3  2  0
  6  7  1  0
  6 12  1  0
  6 13  1  0
  7  8  1  0
  7 14  1  0
  7 15  1  0
  8  9  1  0
  9 10  1  0
  9 16  1  0
  9 17  1  0
 10 11  1  0
 10 18  1  0
 10 19  1  0
 11 20  1  0
 11 21  1  0
 11 22  1  0
M  RAD  1   6   2
M  END
>  <reaction>  (20) 
rmg_rxn_1479

>  <mol_properties>  (20) 
{"0": {"label": "*1", "atom_type": "N3s"}, "1": {"label": "*0", "atom_type": "N3d"}, "3": {"label": "*2", "atom_type": "H0"}, "5": {"label": "*3", "atom_type": "Cs"}, "6": {"label": "*4", "atom_type": "Cs"}}

>  <type>  (20) 
unop_16

>  <geom_source>  (20) 
Heuristics

$$$$

     RDKit          3D

 22 20  0  0  0  0  0  0  0  0999 V2000
    1.1609   -2.1047    2.2336 N   0  0  0  0  0  0  0  0  0  0  0  0
    1.1609   -3.3075    1.6889 N   0  0  0  0  0  0  0  0  0  0  0  0
    1.1609   -3.3075    0.4844 O   0  0  0  0  0  0  0  0  0  0  0  0
    1.1609   -1.1221    1.5184 H   0  0  0  0  0  0  0  0  0  0  0  0
    1.1609   -2.0584    3.2357 H   0  0  0  0  0  0  0  0  0  0  0  0
    1.1609   -0.0635    0.7479 C   0  0  0  0  0  3  0  0  0  0  0  0
   -0.0667   -0.0572   -0.1333 C   0  0  0  0  0  0  0  0  0  0  0  0
   -0.4480    1.2731   -0.3754 O   0  0  0  0  0  0  0  0  0  0  0  0
   -1.5866    1.3858   -1.1913 C   0  0  0  0  0  0  0  0  0  0  0  0
   -1.8934    2.8508   -1.4255 C   0  0  0  0  0  0  0  0  0  0  0  0
   -0.7894    3.5806   -2.1791 C   0  0  0  0  0  0  0  0  0  0  0  0
    1.9832    0.4623    0.2613 H   0  0  0  0  0  0  0  0  0  0  0  0
    0.9517    0.4293    1.6980 H   0  0  0  0  0  0  0  0  0  0  0  0
   -0.8908   -0.6013    0.3516 H   0  0  0  0  0  0  0  0  0  0  0  0
    0.1411   -0.5667   -1.0858 H   0  0  0  0  0  0  0  0  0  0  0  0
   -1.4103    0.8782   -2.1529 H   0  0  0  0  0  0  0  0  0  0  0  0
   -2.4426    0.8890   -0.7115 H   0  0  0  0  0  0  0  0  0  0  0  0
   -2.0660    3.3284   -0.4575 H   0  0  0  0  0  0  0  0  0  0  0  0
   -2.8330    2.9129   -1.9814 H   0  0  0  0  0  0  0  0  0  0  0  0
   -0.6224    3.1282   -3.1598 H   0  0  0  0  0  0  0  0  0  0  0  0
    0.1489    3.5377   -1.6262 H   0  0  0  0  0  0  0  0  0  0  0  0
   -1.0468    4.6294   -2.3339 H   0  0  0  0  0  0  0  0  0  0  0  0
  1  2  1  0
  1  4  1  0
  1  5  1  0
  2  3  2  0
  6  7  1  0
  6 12  1  0
  6 13  1  0
  7  8  1  0
  7 14  1  0
  7 15  1  0
  8  9  1  0
  9 10  1  0
  9 16  1  0
  9 17  1  0
 10 11  1  0
 10 18  1  0
 10 19  1  0
 11 20  1  0
 11 21  1  0
 11 22  1  0
M  RAD  1   6   2
M  END
>  <reaction>  (21) 
rmg_rxn_1479

>  <mol_properties>  (21) 
{"0": {"label": "*1", "atom_type": "N3s"}, "1": {"label": "*0", "atom_type": "N3d"}, "3": {"label": "*2", "atom_type": "H0"}, "5": {"label": "*3", "atom_type": "Cs"}, "6": {"label": "*4", "atom_type": "Cs"}}

>  <type>  (21) 
unop_17

>  <geom_source>  (21) 
Heuristics

$$$$

     RDKit          3D

 22 20  0  0  0  0  0  0  0  0999 V2000
   -0.0372   -2.8955    0.9540 N   0  0  0  0  0  0  0  0  0  0  0  0
   -0.0372   -4.0983    0.4093 N   0  0  0  0  0  0  0  0  0  0  0  0
   -0.0372   -4.0983   -0.7952 O   0  0  0  0  0  0  0  0  0  0  0  0
   -0.0372   -1.9129    0.2388 H   0  0  0  0  0  0  0  0  0  0  0  0
   -0.0372   -2.8492    1.9561 H   0  0  0  0  0  0  0  0  0  0  0  0
   -0.0372   -0.8543   -0.5317 C   0  0  0  0  0  3  0  0  0  0  0  0
    0.6716    0.2915    0.1527 C   0  0  0  0  0  0  0  0  0  0  0  0
    0.1378    1.5035   -0.3160 O   0  0  0  0  0  0  0  0  0  0  0  0
    0.7342    2.6357    0.2650 C   0  0  0  0  0  0  0  0  0  0  0  0
    0.0676    3.8857   -0.2721 C   0  0  0  0  0  0  0  0  0  0  0  0
   -1.4079    3.9812    0.0928 C   0  0  0  0  0  0  0  0  0  0  0  0
   -1.1059   -0.8260   -0.3161 H   0  0  0  0  0  0  0  0  0  0  0  0
    0.0974   -0.7960   -1.6123 H   0  0  0  0  0  0  0  0  0  0  0  0
    1.7517    0.2530   -0.0526 H   0  0  0  0  0  0  0  0  0  0  0  0
    0.5470    0.2241    1.2435 H   0  0  0  0  0  0  0  0  0  0  0  0
    0.6305    2.5932    1.3609 H   0  0  0  0  0  0  0  0  0  0  0  0
    1.8105    2.6504    0.0389 H   0  0  0  0  0  0  0  0  0  0  0  0
    0.1874    3.9035   -1.3584 H   0  0  0  0  0  0  0  0  0  0  0  0
    0.6091    4.7507    0.1207 H   0  0  0  0  0  0  0  0  0  0  0  0
   -1.5413    3.9885    1.1775 H   0  0  0  0  0  0  0  0  0  0  0  0
   -1.9602    3.1308   -0.3068 H   0  0  0  0  0  0  0  0  0  0  0  0
   -1.8525    4.8945   -0.3052 H   0  0  0  0  0  0  0  0  0  0  0  0
  1  2  1  0
  1  4  1  0
  1  5  1  0
  2  3  2  0
  6  7  1  0
  6 12  1  0
  6 13  1  0
  7  8  1  0
  7 14  1  0
  7 15  1  0
  8  9  1  0
  9 10  1  0
  9 16  1  0
  9 17  1  0
 10 11  1  0
 10 18  1  0
 10 19  1  0
 11 20  1  0
 11 21  1  0
 11 22  1  0
M  RAD  1   6   2
M  END
>  <reaction>  (22) 
rmg_rxn_1479

>  <mol_properties>  (22) 
{"0": {"label": "*1", "atom_type": "N3s"}, "1": {"label": "*0", "atom_type": "N3d"}, "3": {"label": "*2", "atom_type": "H0"}, "5": {"label": "*3", "atom_type": "Cs"}, "6": {"label": "*4", "atom_type": "Cs"}}

>  <type>  (22) 
unop_18

>  <geom_source>  (22) 
Heuristics

$$$$

     RDKit          3D

 22 20  0  0  0  0  0  0  0  0999 V2000
   -0.1515   -1.6417    2.9864 N   0  0  0  0  0  0  0  0  0  0  0  0
   -0.1515   -2.8445    2.4416 N   0  0  0  0  0  0  0  0  0  0  0  0
   -0.1515   -2.8445    1.2371 O   0  0  0  0  0  0  0  0  0  0  0  0
   -0.1516   -0.6591    2.2711 H   0  0  0  0  0  0  0  0  0  0  0  0
   -0.1516   -1.5954    3.9885 H   0  0  0  0  0  0  0  0  0  0  0  0
   -0.1516    0.3995    1.5006 C   0  0  0  0  0  3  0  0  0  0  0  0
   -0.1516   -0.0113    0.0464 C   0  0  0  0  0  0  0  0  0  0  0  0
   -0.1523    1.1432   -0.7540 O   0  0  0  0  0  0  0  0  0  0  0  0
   -0.1514    0.8652   -2.1315 C   0  0  0  0  0  0  0  0  0  0  0  0
   -0.1127    2.1665   -2.9063 C   0  0  0  0  0  0  0  0  0  0  0  0
    1.1568    2.9714   -2.6616 C   0  0  0  0  0  0  0  0  0  0  0  0
    0.7330    0.9951    1.7295 H   0  0  0  0  0  0  0  0  0  0  0  0
   -1.0360    0.9952    1.7294 H   0  0  0  0  0  0  0  0  0  0  0  0
   -1.0361   -0.6251   -0.1797 H   0  0  0  0  0  0  0  0  0  0  0  0
    0.7337   -0.6237   -0.1802 H   0  0  0  0  0  0  0  0  0  0  0  0
    0.7228    0.2462   -2.3884 H   0  0  0  0  0  0  0  0  0  0  0  0
   -1.0496    0.2891   -2.3985 H   0  0  0  0  0  0  0  0  0  0  0  0
   -0.9906    2.7585   -2.6348 H   0  0  0  0  0  0  0  0  0  0  0  0
   -0.2079    1.9279   -3.9693 H   0  0  0  0  0  0  0  0  0  0  0  0
    2.0422    2.4001   -2.9515 H   0  0  0  0  0  0  0  0  0  0  0  0
    1.2541    3.2276   -1.6067 H   0  0  0  0  0  0  0  0  0  0  0  0
    1.1521    3.8972   -3.2387 H   0  0  0  0  0  0  0  0  0  0  0  0
  1  2  1  0
  1  4  1  0
  1  5  1  0
  2  3  2  0
  6  7  1  0
  6 12  1  0
  6 13  1  0
  7  8  1  0
  7 14  1  0
  7 15  1  0
  8  9  1  0
  9 10  1  0
  9 16  1  0
  9 17  1  0
 10 11  1  0
 10 18  1  0
 10 19  1  0
 11 20  1  0
 11 21  1  0
 11 22  1  0
M  RAD  1   6   2
M  END
>  <reaction>  (23) 
rmg_rxn_1479

>  <mol_properties>  (23) 
{"0": {"label": "*1", "atom_type": "N3s"}, "1": {"label": "*0", "atom_type": "N3d"}, "3": {"label": "*2", "atom_type": "H0"}, "5": {"label": "*3", "atom_type": "Cs"}, "6": {"label": "*4", "atom_type": "Cs"}}

>  <type>  (23) 
unop_19

>  <geom_source>  (23) 
Heuristics

$$$$

     RDKit          3D

 22 20  0  0  0  0  0  0  0  0999 V2000
    0.6909   -1.7747    2.7980 N   0  0  0  0  0  0  0  0  0  0  0  0
    0.6909   -2.9775    2.2532 N   0  0  0  0  0  0  0  0  0  0  0  0
    0.6909   -2.9775    1.0487 O   0  0  0  0  0  0  0  0  0  0  0  0
    0.6909   -0.7920    2.0827 H   0  0  0  0  0  0  0  0  0  0  0  0
    0.6909   -1.7283    3.8001 H   0  0  0  0  0  0  0  0  0  0  0  0
    0.6909    0.2666    1.3122 C   0  0  0  0  0  3  0  0  0  0  0  0
   -0.0178   -0.0325    0.0115 C   0  0  0  0  0  0  0  0  0  0  0  0
   -0.3715    1.1795   -0.6046 O   0  0  0  0  0  0  0  0  0  0  0  0
   -1.0392    1.0070   -1.8291 C   0  0  0  0  0  0  0  0  0  0  0  0
   -1.3420    2.3638   -2.4313 C   0  0  0  0  0  0  0  0  0  0  0  0
   -0.0897    3.1617   -2.7693 C   0  0  0  0  0  0  0  0  0  0  0  0
    1.5924    0.8528    1.1302 H   0  0  0  0  0  0  0  0  0  0  0  0
    0.0411    0.8333    1.9800 H   0  0  0  0  0  0  0  0  0  0  0  0
   -0.9185   -0.6371    0.1947 H   0  0  0  0  0  0  0  0  0  0  0  0
    0.6334   -0.6160   -0.6559 H   0  0  0  0  0  0  0  0  0  0  0  0
   -0.4123    0.4191   -2.5182 H   0  0  0  0  0  0  0  0  0  0  0  0
   -1.9704    0.4429   -1.6725 H   0  0  0  0  0  0  0  0  0  0  0  0
   -1.9657    2.9236   -1.7296 H   0  0  0  0  0  0  0  0  0  0  0  0
   -1.9419    2.2056   -3.3319 H   0  0  0  0  0  0  0  0  0  0  0  0
    0.5324    2.6240   -3.4892 H   0  0  0  0  0  0  0  0  0  0  0  0
    0.5086    3.3381   -1.8755 H   0  0  0  0  0  0  0  0  0  0  0  0
   -0.3458    4.1286   -3.2049 H   0  0  0  0  0  0  0  0  0  0  0  0
  1  2  1  0
  1  4  1  0
  1  5  1  0
  2  3  2  0
  6  7  1  0
  6 12  1  0
  6 13  1  0
  7  8  1  0
  7 14  1  0
  7 15  1  0
  8  9  1  0
  9 10  1  0
  9 16  1  0
  9 17  1  0
 10 11  1  0
 10 18  1  0
 10 19  1  0
 11 20  1  0
 11 21  1  0
 11 22  1  0
M  RAD  1   6   2
M  END
>  <reaction>  (24) 
rmg_rxn_1479

>  <mol_properties>  (24) 
{"0": {"label": "*1", "atom_type": "N3s"}, "1": {"label": "*0", "atom_type": "N3d"}, "3": {"label": "*2", "atom_type": "H0"}, "5": {"label": "*3", "atom_type": "Cs"}, "6": {"label": "*4", "atom_type": "Cs"}}

>  <type>  (24) 
unop_20

>  <geom_source>  (24) 
gaussian_log

$$$$
