
     RDKit          3D

 14 14  0  0  0  0  0  0  0  0999 V2000
   -1.1778    0.2241    0.1818 C   0  0  0  0  0  0  0  0  0  0  0  0
   -0.5633   -1.1636    0.0678 C   0  0  0  0  0  0  0  0  0  0  0  0
    0.6943   -1.1996    0.7146 O   0  0  0  0  0  0  0  0  0  0  0  0
    1.5547   -0.2288    0.2011 C   0  0  0  0  0  0  0  0  0  0  0  0
    1.0729    1.0696    0.3698 O   0  0  0  0  0  0  0  0  0  0  0  0
   -0.1607    1.2493   -0.2989 C   0  0  0  0  0  0  0  0  0  0  0  0
   -2.0927    0.2866   -0.4117 H   0  0  0  0  0  0  0  0  0  0  0  0
   -1.4303    0.4248    1.2248 H   0  0  0  0  0  0  0  0  0  0  0  0
   -1.1822   -1.9235    0.5431 H   0  0  0  0  0  0  0  0  0  0  0  0
   -0.4389   -1.4347   -0.9919 H   0  0  0  0  0  0  0  0  0  0  0  0
    1.7250   -0.4207   -0.8742 H   0  0  0  0  0  0  0  0  0  0  0  0
    2.4896   -0.3010    0.7524 H   0  0  0  0  0  0  0  0  0  0  0  0
   -0.0080    1.1481   -1.3844 H   0  0  0  0  0  0  0  0  0  0  0  0
   -0.4826    2.2695   -0.0942 H   0  0  0  0  0  0  0  0  0  0  0  0
  1  2  1  0
  1  6  1  0
  1  7  1  0
  1  8  1  0
  2  3  1  0
  2  9  1  0
  2 10  1  0
  3  4  1  0
  4  5  1  0
  4 11  1  0
  4 12  1  0
  5  6  1  0
  6 13  1  0
  6 14  1  0
M  END
>  <reaction>  (1) 
rmg_rxn_198

>  <mol_properties>  (1) 
{"3": {"label": "donator", "atom_type": "Cs"}, "10": {"label": "d_hydrogen", "atom_type": "H0"}}

>  <type>  (1) 
r1h

$$$$

     RDKit          3D

 13 13  0  0  0  0  0  0  0  0999 V2000
   -1.1371    0.3608    0.3110 C   0  0  0  0  0  3  0  0  0  0  0  0
   -0.0045    1.3224    0.2943 C   0  0  0  0  0  0  0  0  0  0  0  0
    1.2245    0.6965    0.6137 O   0  0  0  0  0  0  0  0  0  0  0  0
    1.3926   -0.4921   -0.0955 C   0  0  0  0  0  0  0  0  0  0  0  0
    0.4387   -1.4537    0.2351 O   0  0  0  0  0  0  0  0  0  0  0  0
   -0.8659   -1.0349   -0.1206 C   0  0  0  0  0  0  0  0  0  0  0  0
   -2.1544    0.7285    0.3341 H   0  0  0  0  0  0  0  0  0  0  0  0
   -0.1488    2.1272    1.0165 H   0  0  0  0  0  0  0  0  0  0  0  0
    0.0825    1.7949   -0.7036 H   0  0  0  0  0  0  0  0  0  0  0  0
    1.3549   -0.2872   -1.1815 H   0  0  0  0  0  0  0  0  0  0  0  0
    2.3646   -0.8956    0.1787 H   0  0  0  0  0  0  0  0  0  0  0  0
   -1.5620   -1.7401    0.3358 H   0  0  0  0  0  0  0  0  0  0  0  0
   -0.9852   -1.1268   -1.2179 H   0  0  0  0  0  0  0  0  0  0  0  0
  1  2  1  0
  1  6  1  0
  1  7  1  0
  2  3  1  0
  2  8  1  0
  2  9  1  0
  3  4  1  0
  4  5  1  0
  4 10  1  0
  4 11  1  0
  5  6  1  0
  6 12  1  0
  6 13  1  0
M  RAD  1   1   2
M  END
>  <reaction>  (2) 
rmg_rxn_198

>  <mol_properties>  (2) 
{"0": {"label": "acceptor", "atom_type": "Cs"}}

>  <type>  (2) 
r2

$$$$

     RDKit          3D

 14 14  0  0  0  0  0  0  0  0999 V2000
   -1.1778    0.2241    0.1818 C   0  0  0  0  0  0  0  0  0  0  0  0
   -0.5633   -1.1636    0.0678 C   0  0  0  0  0  0  0  0  0  0  0  0
    0.6943   -1.1996    0.7146 O   0  0  0  0  0  0  0  0  0  0  0  0
    1.5547   -0.2288    0.2011 C   0  0  0  0  0  0  0  0  0  0  0  0
    1.0729    1.0696    0.3698 O   0  0  0  0  0  0  0  0  0  0  0  0
   -0.1607    1.2493   -0.2989 C   0  0  0  0  0  0  0  0  0  0  0  0
   -2.0927    0.2866   -0.4117 H   0  0  0  0  0  0  0  0  0  0  0  0
   -1.4303    0.4248    1.2248 H   0  0  0  0  0  0  0  0  0  0  0  0
   -1.1822   -1.9235    0.5431 H   0  0  0  0  0  0  0  0  0  0  0  0
   -0.4389   -1.4347   -0.9919 H   0  0  0  0  0  0  0  0  0  0  0  0
    1.7250   -0.4207   -0.8742 H   0  0  0  0  0  0  0  0  0  0  0  0
    2.4896   -0.3010    0.7524 H   0  0  0  0  0  0  0  0  0  0  0  0
   -0.0080    1.1481   -1.3844 H   0  0  0  0  0  0  0  0  0  0  0  0
   -0.4826    2.2695   -0.0942 H   0  0  0  0  0  0  0  0  0  0  0  0
  1  2  1  0
  1  6  1  0
  1  7  1  0
  1  8  1  0
  2  3  1  0
  2  9  1  0
  2 10  1  0
  3  4  1  0
  4  5  1  0
  4 11  1  0
  4 12  1  0
  5  6  1  0
  6 13  1  0
  6 14  1  0
M  END
>  <reaction>  (3) 
rmg_rxn_198

>  <mol_properties>  (3) 
{"0": {"label": "acceptor", "atom_type": "Cs"}, "13": {"label": "a_hydrogen", "atom_type": "H0"}}

>  <type>  (3) 
r2h

$$$$

     RDKit          3D

 27 27  0  0  0  0  0  0  0  0999 V2000
    0.3014    1.1966    0.6476 C   0  0  0  0  0  3  0  0  0  0  0  0
    0.8764    0.5106    1.8578 C   0  0  0  0  0  0  0  0  0  0  0  0
    2.1682    1.0340    2.1522 O   0  0  0  0  0  0  0  0  0  0  0  0
    3.0095    0.9384    1.0447 C   0  0  0  0  0  0  0  0  0  0  0  0
    2.5485    1.6564   -0.0609 O   0  0  0  0  0  0  0  0  0  0  0  0
    1.2838    1.1673   -0.4921 C   0  0  0  0  0  0  0  0  0  0  0  0
   -0.0872    2.1920    0.8553 H   0  0  0  0  0  0  0  0  0  0  0  0
    0.2690    0.6611    2.7484 H   0  0  0  0  0  0  0  0  0  0  0  0
    0.9615   -0.5726    1.6806 H   0  0  0  0  0  0  0  0  0  0  0  0
    3.1292   -0.1251    0.7648 H   0  0  0  0  0  0  0  0  0  0  0  0
    3.9691    1.3652    1.3287 H   0  0  0  0  0  0  0  0  0  0  0  0
    1.4133    0.1383   -0.8646 H   0  0  0  0  0  0  0  0  0  0  0  0
    0.9739    1.7964   -1.3256 H   0  0  0  0  0  0  0  0  0  0  0  0
   -1.3412   -2.0686   -1.8085 C   0  0  0  0  0  0  0  0  0  0  0  0
   -0.8552   -2.1855   -0.3736 C   0  0  0  0  0  0  0  0  0  0  0  0
   -1.7488   -1.5248    0.5075 O   0  0  0  0  0  0  0  0  0  0  0  0
   -1.9879   -0.2146    0.1471 C   0  0  0  0  0  0  0  0  0  0  0  0
   -2.4458   -0.0297   -1.1389 O   0  0  0  0  0  0  0  0  0  0  0  0
   -1.5948   -0.6026   -2.1188 C   0  0  0  0  0  0  0  0  0  0  0  0
   -0.5980   -2.4787   -2.4954 H   0  0  0  0  0  0  0  0  0  0  0  0
   -2.2675   -2.6337   -1.9281 H   0  0  0  0  0  0  0  0  0  0  0  0
   -0.8062   -3.2209   -0.0411 H   0  0  0  0  0  0  0  0  0  0  0  0
    0.1457   -1.7438   -0.2741 H   0  0  0  0  0  0  0  0  0  0  0  0
   -0.8791    0.4601    0.3095 H   0  0  0  0  0  0  0  0  0  0  0  0
   -2.7061    0.2155    0.8419 H   0  0  0  0  0  0  0  0  0  0  0  0
   -0.6473   -0.0491   -2.1460 H   0  0  0  0  0  0  0  0  0  0  0  0
   -2.0965   -0.4688   -3.0755 H   0  0  0  0  0  0  0  0  0  0  0  0
  1  2  1  0
  1  6  1  0
  1  7  1  0
  2  3  1  0
  2  8  1  0
  2  9  1  0
  3  4  1  0
  4  5  1  0
  4 10  1  0
  4 11  1  0
  5  6  1  0
  6 12  1  0
  6 13  1  0
 14 15  1  0
 14 19  1  0
 14 20  1  0
 14 21  1  0
 15 16  1  0
 15 22  1  0
 15 23  1  0
 16 17  1  0
 17 18  1  0
 17 24  1  0
 17 25  1  0
 18 19  1  0
 19 26  1  0
 19 27  1  0
M  RAD  1   1   2
M  END
>  <reaction>  (4) 
rmg_rxn_198

>  <mol_properties>  (4) 
{"0": {"label": "*3", "atom_type": "Cs"}, "1": {"label": "*4", "atom_type": "Cs"}, "15": {"label": "*0", "atom_type": "O2s"}, "16": {"label": "*1", "atom_type": "Cs"}, "23": {"label": "*2", "atom_type": "H0"}}

>  <type>  (4) 
ts

$$$$

     RDKit          3D

 27 27  0  0  0  0  0  0  0  0999 V2000
    0.8215    0.3488    0.9619 C   0  0  0  0  0  0  0  0  0  0  0  0
    1.6629    0.7378   -0.2453 C   0  0  0  0  0  0  0  0  0  0  0  0
    2.1907    2.0397   -0.0784 O   0  0  0  0  0  0  0  0  0  0  0  0
    1.1766    2.9715    0.1447 C   0  0  0  0  0  0  0  0  0  0  0  0
    0.4373    2.7058    1.2977 O   0  0  0  0  0  0  0  0  0  0  0  0
   -0.2017    1.4461    1.2178 C   0  0  0  0  0  0  0  0  0  0  0  0
    1.4674    0.2436    1.8358 H   0  0  0  0  0  0  0  0  0  0  0  0
    2.5125    0.0702   -0.3819 H   0  0  0  0  0  0  0  0  0  0  0  0
    1.0491    0.7050   -1.1586 H   0  0  0  0  0  0  0  0  0  0  0  0
    0.4994    2.9936   -0.7289 H   0  0  0  0  0  0  0  0  0  0  0  0
    1.6518    3.9403    0.2813 H   0  0  0  0  0  0  0  0  0  0  0  0
   -0.9466    1.4631    0.4075 H   0  0  0  0  0  0  0  0  0  0  0  0
   -0.7274    1.3010    2.1606 H   0  0  0  0  0  0  0  0  0  0  0  0
   -0.5003   -2.8419   -1.3264 C   0  0  0  0  0  0  0  0  0  0  0  0
   -0.5003   -2.8419    0.1956 C   0  0  0  0  0  0  0  0  0  0  0  0
   -1.5485   -2.0292    0.6877 O   0  0  0  0  0  0  0  0  0  0  0  0
   -1.4576   -0.7297    0.1884 C   0  0  0  0  0  3  0  0  0  0  0  0
   -1.5485   -0.6735   -1.2026 O   0  0  0  0  0  0  0  0  0  0  0  0
   -0.5003   -1.4002   -1.8145 C   0  0  0  0  0  0  0  0  0  0  0  0
    0.3737   -3.3743   -1.7083 H   0  0  0  0  0  0  0  0  0  0  0  0
   -1.3968   -3.3480   -1.6894 H   0  0  0  0  0  0  0  0  0  0  0  0
   -0.6592   -3.8394    0.6030 H   0  0  0  0  0  0  0  0  0  0  0  0
    0.4634   -2.4659    0.5723 H   0  0  0  0  0  0  0  0  0  0  0  0
   -0.3112   -0.1872    0.5775 H   0  0  0  0  0  0  0  0  0  0  0  0
   -2.2987   -0.1692    0.5904 H   0  0  0  0  0  0  0  0  0  0  0  0
    0.4634   -0.9228   -1.5792 H   0  0  0  0  0  0  0  0  0  0  0  0
   -0.6592   -1.3343   -2.8900 H   0  0  0  0  0  0  0  0  0  0  0  0
  1  2  1  0
  1  6  1  0
  1  7  1  0
  1 24  1  0
  2  3  1  0
  2  8  1  0
  2  9  1  0
  3  4  1  0
  4  5  1  0
  4 10  1  0
  4 11  1  0
  5  6  1  0
  6 12  1  0
  6 13  1  0
 14 15  1  0
 14 19  1  0
 14 20  1  0
 14 21  1  0
 15 16  1  0
 15 22  1  0
 15 23  1  0
 16 17  1  0
 17 18  1  0
 17 25  1  0
 18 19  1  0
 19 26  1  0
 19 27  1  0
M  RAD  1  17   2
M  END
>  <reaction>  (5) 
rmg_rxn_198

>  <mol_properties>  (5) 
{"0": {"label": "*3", "atom_type": "Cs"}, "1": {"label": "*4", "atom_type": "Cs"}, "15": {"label": "*0", "atom_type": "O2s"}, "16": {"label": "*1", "atom_type": "Cs"}, "23": {"label": "*2", "atom_type": "H0"}}

>  <type>  (5) 
unop_1

>  <geom_source>  (5) 
Heuristics

$$$$

     RDKit          3D

 27 27  0  0  0  0  0  0  0  0999 V2000
    0.2570    1.0032    1.0659 C   0  0  0  0  0  0  0  0  0  0  0  0
    1.3246   -0.0692    1.2298 C   0  0  0  0  0  0  0  0  0  0  0  0
    2.6143    0.4942    1.0859 O   0  0  0  0  0  0  0  0  0  0  0  0
    2.7466    1.1473   -0.1399 C   0  0  0  0  0  0  0  0  0  0  0  0
    1.8469    2.2023   -0.2944 O   0  0  0  0  0  0  0  0  0  0  0  0
    0.5086    1.7471   -0.2378 C   0  0  0  0  0  0  0  0  0  0  0  0
    0.3154    1.7041    1.9009 H   0  0  0  0  0  0  0  0  0  0  0  0
    1.2918   -0.5292    2.2165 H   0  0  0  0  0  0  0  0  0  0  0  0
    1.1833   -0.8597    0.4768 H   0  0  0  0  0  0  0  0  0  0  0  0
    2.6045    0.4203   -0.9606 H   0  0  0  0  0  0  0  0  0  0  0  0
    3.7486    1.5689   -0.1753 H   0  0  0  0  0  0  0  0  0  0  0  0
    0.3098    1.0845   -1.0941 H   0  0  0  0  0  0  0  0  0  0  0  0
   -0.1261    2.6270   -0.3338 H   0  0  0  0  0  0  0  0  0  0  0  0
   -1.0647   -2.1875   -1.2223 C   0  0  0  0  0  0  0  0  0  0  0  0
   -1.0647   -2.1875    0.2997 C   0  0  0  0  0  0  0  0  0  0  0  0
   -2.1130   -1.3748    0.7918 O   0  0  0  0  0  0  0  0  0  0  0  0
   -2.0221   -0.0753    0.2925 C   0  0  0  0  0  3  0  0  0  0  0  0
   -2.1130   -0.0191   -1.0986 O   0  0  0  0  0  0  0  0  0  0  0  0
   -1.0647   -0.7458   -1.7105 C   0  0  0  0  0  0  0  0  0  0  0  0
   -0.1907   -2.7199   -1.6042 H   0  0  0  0  0  0  0  0  0  0  0  0
   -1.9613   -2.6936   -1.5854 H   0  0  0  0  0  0  0  0  0  0  0  0
   -1.2237   -3.1850    0.7070 H   0  0  0  0  0  0  0  0  0  0  0  0
   -0.1011   -1.8115    0.6764 H   0  0  0  0  0  0  0  0  0  0  0  0
   -0.8757    0.4672    0.6815 H   0  0  0  0  0  0  0  0  0  0  0  0
   -2.8632    0.4852    0.6945 H   0  0  0  0  0  0  0  0  0  0  0  0
   -0.1011   -0.2684   -1.4752 H   0  0  0  0  0  0  0  0  0  0  0  0
   -1.2237   -0.6799   -2.7859 H   0  0  0  0  0  0  0  0  0  0  0  0
  1  2  1  0
  1  6  1  0
  1  7  1  0
  1 24  1  0
  2  3  1  0
  2  8  1  0
  2  9  1  0
  3  4  1  0
  4  5  1  0
  4 10  1  0
  4 11  1  0
  5  6  1  0
  6 12  1  0
  6 13  1  0
 14 15  1  0
 14 19  1  0
 14 20  1  0
 14 21  1  0
 15 16  1  0
 15 22  1  0
 15 23  1  0
 16 17  1  0
 17 18  1  0
 17 25  1  0
 18 19  1  0
 19 26  1  0
 19 27  1  0
M  RAD  1  17   2
M  END
>  <reaction>  (6) 
rmg_rxn_198

>  <mol_properties>  (6) 
{"0": {"label": "*3", "atom_type": "Cs"}, "1": {"label": "*4", "atom_type": "Cs"}, "15": {"label": "*0", "atom_type": "O2s"}, "16": {"label": "*1", "atom_type": "Cs"}, "23": {"label": "*2", "atom_type": "H0"}}

>  <type>  (6) 
unop_2

>  <geom_source>  (6) 
Heuristics

$$$$

     RDKit          3D

 27 27  0  0  0  0  0  0  0  0999 V2000
    0.8333    0.3322    0.5996 C   0  0  0  0  0  0  0  0  0  0  0  0
    1.3196    1.3433   -0.4289 C   0  0  0  0  0  0  0  0  0  0  0  0
    1.9706    2.4233    0.2124 O   0  0  0  0  0  0  0  0  0  0  0  0
    1.1372    3.0293    1.1529 C   0  0  0  0  0  0  0  0  0  0  0  0
    0.7421    2.1601    2.1702 O   0  0  0  0  0  0  0  0  0  0  0  0
    0.0133    1.0634    1.6530 C   0  0  0  0  0  0  0  0  0  0  0  0
    1.6929   -0.1442    1.0750 H   0  0  0  0  0  0  0  0  0  0  0  0
    2.0409    0.9076   -1.1189 H   0  0  0  0  0  0  0  0  0  0  0  0
    0.4689    1.7234   -1.0150 H   0  0  0  0  0  0  0  0  0  0  0  0
    0.2414    3.4314    0.6449 H   0  0  0  0  0  0  0  0  0  0  0  0
    1.7039    3.8336    1.6167 H   0  0  0  0  0  0  0  0  0  0  0  0
   -0.9294    1.4238    1.2133 H   0  0  0  0  0  0  0  0  0  0  0  0
   -0.2291    0.4212    2.4986 H   0  0  0  0  0  0  0  0  0  0  0  0
   -0.4885   -2.8584   -1.6887 C   0  0  0  0  0  0  0  0  0  0  0  0
   -0.4885   -2.8584   -0.1666 C   0  0  0  0  0  0  0  0  0  0  0  0
   -1.5368   -2.0458    0.3255 O   0  0  0  0  0  0  0  0  0  0  0  0
   -1.4459   -0.7463   -0.1738 C   0  0  0  0  0  3  0  0  0  0  0  0
   -1.5368   -0.6901   -1.5649 O   0  0  0  0  0  0  0  0  0  0  0  0
   -0.4885   -1.4168   -2.1768 C   0  0  0  0  0  0  0  0  0  0  0  0
    0.3855   -3.3909   -2.0705 H   0  0  0  0  0  0  0  0  0  0  0  0
   -1.3851   -3.3646   -2.0517 H   0  0  0  0  0  0  0  0  0  0  0  0
   -0.6474   -3.8559    0.2407 H   0  0  0  0  0  0  0  0  0  0  0  0
    0.4751   -2.4825    0.2101 H   0  0  0  0  0  0  0  0  0  0  0  0
   -0.2995   -0.2038    0.2152 H   0  0  0  0  0  0  0  0  0  0  0  0
   -2.2869   -0.1858    0.2281 H   0  0  0  0  0  0  0  0  0  0  0  0
    0.4751   -0.9394   -1.9415 H   0  0  0  0  0  0  0  0  0  0  0  0
   -0.6474   -1.3509   -3.2522 H   0  0  0  0  0  0  0  0  0  0  0  0
  1  2  1  0
  1  6  1  0
  1  7  1  0
  1 24  1  0
  2  3  1  0
  2  8  1  0
  2  9  1  0
  3  4  1  0
  4  5  1  0
  4 10  1  0
  4 11  1  0
  5  6  1  0
  6 12  1  0
  6 13  1  0
 14 15  1  0
 14 19  1  0
 14 20  1  0
 14 21  1  0
 15 16  1  0
 15 22  1  0
 15 23  1  0
 16 17  1  0
 17 18  1  0
 17 25  1  0
 18 19  1  0
 19 26  1  0
 19 27  1  0
M  RAD  1  17   2
M  END
>  <reaction>  (7) 
rmg_rxn_198

>  <mol_properties>  (7) 
{"0": {"label": "*3", "atom_type": "Cs"}, "1": {"label": "*4", "atom_type": "Cs"}, "15": {"label": "*0", "atom_type": "O2s"}, "16": {"label": "*1", "atom_type": "Cs"}, "23": {"label": "*2", "atom_type": "H0"}}

>  <type>  (7) 
unop_3

>  <geom_source>  (7) 
Heuristics

$$$$

     RDKit          3D

 27 27  0  0  0  0  0  0  0  0999 V2000
    0.3353    0.7900    0.3877 C   0  0  0  0  0  0  0  0  0  0  0  0
    0.4136    0.8361    1.9071 C   0  0  0  0  0  0  0  0  0  0  0  0
    1.2811    1.8729    2.3239 O   0  0  0  0  0  0  0  0  0  0  0  0
    2.5500    1.7264    1.7627 C   0  0  0  0  0  0  0  0  0  0  0  0
    2.5372    1.7734    0.3684 O   0  0  0  0  0  0  0  0  0  0  0  0
    1.7493    0.7302   -0.1723 C   0  0  0  0  0  0  0  0  0  0  0  0
   -0.1621    1.6905    0.0224 H   0  0  0  0  0  0  0  0  0  0  0  0
   -0.5565    1.0383    2.3590 H   0  0  0  0  0  0  0  0  0  0  0  0
    0.7797   -0.1269    2.2948 H   0  0  0  0  0  0  0  0  0  0  0  0
    2.9896    0.7677    2.0940 H   0  0  0  0  0  0  0  0  0  0  0  0
    3.1551    2.5614    2.1089 H   0  0  0  0  0  0  0  0  0  0  0  0
    2.2094   -0.2403    0.0692 H   0  0  0  0  0  0  0  0  0  0  0  0
    1.7645    0.8544   -1.2542 H   0  0  0  0  0  0  0  0  0  0  0  0
   -0.9865   -2.4007   -1.9005 C   0  0  0  0  0  0  0  0  0  0  0  0
   -0.9865   -2.4007   -0.3785 C   0  0  0  0  0  0  0  0  0  0  0  0
   -2.0348   -1.5881    0.1136 O   0  0  0  0  0  0  0  0  0  0  0  0
   -1.9439   -0.2885   -0.3857 C   0  0  0  0  0  3  0  0  0  0  0  0
   -2.0348   -0.2323   -1.7768 O   0  0  0  0  0  0  0  0  0  0  0  0
   -0.9865   -0.9590   -2.3887 C   0  0  0  0  0  0  0  0  0  0  0  0
   -0.1125   -2.9331   -2.2824 H   0  0  0  0  0  0  0  0  0  0  0  0
   -1.8831   -2.9068   -2.2636 H   0  0  0  0  0  0  0  0  0  0  0  0
   -1.1454   -3.3982    0.0288 H   0  0  0  0  0  0  0  0  0  0  0  0
   -0.0229   -2.0247   -0.0018 H   0  0  0  0  0  0  0  0  0  0  0  0
   -0.7975    0.2540    0.0033 H   0  0  0  0  0  0  0  0  0  0  0  0
   -2.7849    0.2720    0.0163 H   0  0  0  0  0  0  0  0  0  0  0  0
   -0.0229   -0.4816   -2.1534 H   0  0  0  0  0  0  0  0  0  0  0  0
   -1.1454   -0.8931   -3.4641 H   0  0  0  0  0  0  0  0  0  0  0  0
  1  2  1  0
  1  6  1  0
  1  7  1  0
  1 24  1  0
  2  3  1  0
  2  8  1  0
  2  9  1  0
  3  4  1  0
  4  5  1  0
  4 10  1  0
  4 11  1  0
  5  6  1  0
  6 12  1  0
  6 13  1  0
 14 15  1  0
 14 19  1  0
 14 20  1  0
 14 21  1  0
 15 16  1  0
 15 22  1  0
 15 23  1  0
 16 17  1  0
 17 18  1  0
 17 25  1  0
 18 19  1  0
 19 26  1  0
 19 27  1  0
M  RAD  1  17   2
M  END
>  <reaction>  (8) 
rmg_rxn_198

>  <mol_properties>  (8) 
{"0": {"label": "*3", "atom_type": "Cs"}, "1": {"label": "*4", "atom_type": "Cs"}, "15": {"label": "*0", "atom_type": "O2s"}, "16": {"label": "*1", "atom_type": "Cs"}, "23": {"label": "*2", "atom_type": "H0"}}

>  <type>  (8) 
unop_4

>  <geom_source>  (8) 
Heuristics

$$$$

     RDKit          3D

 27 27  0  0  0  0  0  0  0  0999 V2000
    0.5806    0.5094    0.3819 C   0  0  0  0  0  0  0  0  0  0  0  0
    0.7048    1.9299   -0.1504 C   0  0  0  0  0  0  0  0  0  0  0  0
    1.8544    2.5572    0.3846 O   0  0  0  0  0  0  0  0  0  0  0  0
    1.8328    2.5468    1.7796 C   0  0  0  0  0  0  0  0  0  0  0  0
    1.8143    1.2583    2.3141 O   0  0  0  0  0  0  0  0  0  0  0  0
    0.6621    0.5487    1.9013 C   0  0  0  0  0  0  0  0  0  0  0  0
    1.3987   -0.0980   -0.0099 H   0  0  0  0  0  0  0  0  0  0  0  0
    0.8119    1.9508   -1.2341 H   0  0  0  0  0  0  0  0  0  0  0  0
   -0.1898    2.5125    0.1182 H   0  0  0  0  0  0  0  0  0  0  0  0
    0.9486    3.1057    2.1373 H   0  0  0  0  0  0  0  0  0  0  0  0
    2.7480    3.0254    2.1208 H   0  0  0  0  0  0  0  0  0  0  0  0
   -0.2355    1.0341    2.3143 H   0  0  0  0  0  0  0  0  0  0  0  0
    0.7377   -0.4492    2.3311 H   0  0  0  0  0  0  0  0  0  0  0  0
   -0.7412   -2.6812   -1.9064 C   0  0  0  0  0  0  0  0  0  0  0  0
   -0.7412   -2.6812   -0.3843 C   0  0  0  0  0  0  0  0  0  0  0  0
   -1.7895   -1.8686    0.1078 O   0  0  0  0  0  0  0  0  0  0  0  0
   -1.6986   -0.5691   -0.3915 C   0  0  0  0  0  3  0  0  0  0  0  0
   -1.7895   -0.5129   -1.7826 O   0  0  0  0  0  0  0  0  0  0  0  0
   -0.7412   -1.2396   -2.3945 C   0  0  0  0  0  0  0  0  0  0  0  0
    0.1328   -3.2137   -2.2882 H   0  0  0  0  0  0  0  0  0  0  0  0
   -1.6378   -3.1874   -2.2694 H   0  0  0  0  0  0  0  0  0  0  0  0
   -0.9002   -3.6788    0.0230 H   0  0  0  0  0  0  0  0  0  0  0  0
    0.2224   -2.3053   -0.0076 H   0  0  0  0  0  0  0  0  0  0  0  0
   -0.5522   -0.0266   -0.0025 H   0  0  0  0  0  0  0  0  0  0  0  0
   -2.5396   -0.0086    0.0104 H   0  0  0  0  0  0  0  0  0  0  0  0
    0.2224   -0.7622   -2.1592 H   0  0  0  0  0  0  0  0  0  0  0  0
   -0.9002   -1.1737   -3.4699 H   0  0  0  0  0  0  0  0  0  0  0  0
  1  2  1  0
  1  6  1  0
  1  7  1  0
  1 24  1  0
  2  3  1  0
  2  8  1  0
  2  9  1  0
  3  4  1  0
  4  5  1  0
  4 10  1  0
  4 11  1  0
  5  6  1  0
  6 12  1  0
  6 13  1  0
 14 15  1  0
 14 19  1  0
 14 20  1  0
 14 21  1  0
 15 16  1  0
 15 22  1  0
 15 23  1  0
 16 17  1  0
 17 18  1  0
 17 25  1  0
 18 19  1  0
 19 26  1  0
 19 27  1  0
M  RAD  1  17   2
M  END
>  <reaction>  (9) 
rmg_rxn_198

>  <mol_properties>  (9) 
{"0": {"label": "*3", "atom_type": "Cs"}, "1": {"label": "*4", "atom_type": "Cs"}, "15": {"label": "*0", "atom_type": "O2s"}, "16": {"label": "*1", "atom_type": "Cs"}, "23": {"label": "*2", "atom_type": "H0"}}

>  <type>  (9) 
unop_5

>  <geom_source>  (9) 
Heuristics

$$$$

     RDKit          3D

 27 27  0  0  0  0  0  0  0  0999 V2000
    0.3888    0.6468    0.4385 C   0  0  0  0  0  0  0  0  0  0  0  0
    0.2143    1.3609    1.7712 C   0  0  0  0  0  0  0  0  0  0  0  0
    1.0662    2.4883    1.8407 O   0  0  0  0  0  0  0  0  0  0  0  0
    2.3987    2.1282    1.6378 C   0  0  0  0  0  0  0  0  0  0  0  0
    2.6228    1.5539    0.3863 O   0  0  0  0  0  0  0  0  0  0  0  0
    1.8696    0.3673    0.2247 C   0  0  0  0  0  0  0  0  0  0  0  0
    0.0200    1.2855   -0.3665 H   0  0  0  0  0  0  0  0  0  0  0  0
   -0.8023    1.7273    1.9070 H   0  0  0  0  0  0  0  0  0  0  0  0
    0.4461    0.6742    2.5998 H   0  0  0  0  0  0  0  0  0  0  0  0
    2.7125    1.4215    2.4279 H   0  0  0  0  0  0  0  0  0  0  0  0
    2.9909    3.0393    1.6863 H   0  0  0  0  0  0  0  0  0  0  0  0
    2.2179   -0.3894    0.9444 H   0  0  0  0  0  0  0  0  0  0  0  0
    2.0740    0.0006   -0.7803 H   0  0  0  0  0  0  0  0  0  0  0  0
   -0.9330   -2.5438   -1.8498 C   0  0  0  0  0  0  0  0  0  0  0  0
   -0.9330   -2.5438   -0.3278 C   0  0  0  0  0  0  0  0  0  0  0  0
   -1.9813   -1.7312    0.1643 O   0  0  0  0  0  0  0  0  0  0  0  0
   -1.8903   -0.4316   -0.3350 C   0  0  0  0  0  3  0  0  0  0  0  0
   -1.9813   -0.3755   -1.7260 O   0  0  0  0  0  0  0  0  0  0  0  0
   -0.9330   -1.1022   -2.3379 C   0  0  0  0  0  0  0  0  0  0  0  0
   -0.0590   -3.0763   -2.2317 H   0  0  0  0  0  0  0  0  0  0  0  0
   -1.8295   -3.0500   -2.2128 H   0  0  0  0  0  0  0  0  0  0  0  0
   -1.0919   -3.5413    0.0796 H   0  0  0  0  0  0  0  0  0  0  0  0
    0.0307   -2.1678    0.0489 H   0  0  0  0  0  0  0  0  0  0  0  0
   -0.7439    0.1108    0.0541 H   0  0  0  0  0  0  0  0  0  0  0  0
   -2.7314    0.1289    0.0670 H   0  0  0  0  0  0  0  0  0  0  0  0
    0.0307   -0.6248   -2.1026 H   0  0  0  0  0  0  0  0  0  0  0  0
   -1.0919   -1.0362   -3.4134 H   0  0  0  0  0  0  0  0  0  0  0  0
  1  2  1  0
  1  6  1  0
  1  7  1  0
  1 24  1  0
  2  3  1  0
  2  8  1  0
  2  9  1  0
  3  4  1  0
  4  5  1  0
  4 10  1  0
  4 11  1  0
  5  6  1  0
  6 12  1  0
  6 13  1  0
 14 15  1  0
 14 19  1  0
 14 20  1  0
 14 21  1  0
 15 16  1  0
 15 22  1  0
 15 23  1  0
 16 17  1  0
 17 18  1  0
 17 25  1  0
 18 19  1  0
 19 26  1  0
 19 27  1  0
M  RAD  1  17   2
M  END
>  <reaction>  (10) 
rmg_rxn_198

>  <mol_properties>  (10) 
{"0": {"label": "*3", "atom_type": "Cs"}, "1": {"label": "*4", "atom_type": "Cs"}, "15": {"label": "*0", "atom_type": "O2s"}, "16": {"label": "*1", "atom_type": "Cs"}, "23": {"label": "*2", "atom_type": "H0"}}

>  <type>  (10) 
unop_6

>  <geom_source>  (10) 
Heuristics

$$$$

     RDKit          3D

 27 27  0  0  0  0  0  0  0  0999 V2000
    0.3827    0.6027    0.5190 C   0  0  0  0  0  0  0  0  0  0  0  0
    0.1255    1.8517    1.3499 C   0  0  0  0  0  0  0  0  0  0  0  0
    1.1519    2.8023    1.1401 O   0  0  0  0  0  0  0  0  0  0  0  0
    2.4065    2.2627    1.4251 C   0  0  0  0  0  0  0  0  0  0  0  0
    2.7247    1.1694    0.6189 O   0  0  0  0  0  0  0  0  0  0  0  0
    1.7979    0.1153    0.7956 C   0  0  0  0  0  0  0  0  0  0  0  0
    0.2828    0.8448   -0.5409 H   0  0  0  0  0  0  0  0  0  0  0  0
   -0.8111    2.3363    1.0775 H   0  0  0  0  0  0  0  0  0  0  0  0
    0.0797    1.5906    2.4183 H   0  0  0  0  0  0  0  0  0  0  0  0
    2.4429    1.9586    2.4874 H   0  0  0  0  0  0  0  0  0  0  0  0
    3.1443    3.0368    1.2263 H   0  0  0  0  0  0  0  0  0  0  0  0
    1.8698   -0.2679    1.8250 H   0  0  0  0  0  0  0  0  0  0  0  0
    2.0949   -0.6808    0.1144 H   0  0  0  0  0  0  0  0  0  0  0  0
   -0.9390   -2.5880   -1.7693 C   0  0  0  0  0  0  0  0  0  0  0  0
   -0.9390   -2.5880   -0.2473 C   0  0  0  0  0  0  0  0  0  0  0  0
   -1.9873   -1.7754    0.2448 O   0  0  0  0  0  0  0  0  0  0  0  0
   -1.8964   -0.4758   -0.2545 C   0  0  0  0  0  3  0  0  0  0  0  0
   -1.9873   -0.4196   -1.6456 O   0  0  0  0  0  0  0  0  0  0  0  0
   -0.9390   -1.1463   -2.2574 C   0  0  0  0  0  0  0  0  0  0  0  0
   -0.0651   -3.1204   -2.1512 H   0  0  0  0  0  0  0  0  0  0  0  0
   -1.8356   -3.0942   -2.1323 H   0  0  0  0  0  0  0  0  0  0  0  0
   -1.0980   -3.5855    0.1600 H   0  0  0  0  0  0  0  0  0  0  0  0
    0.0246   -2.2120    0.1294 H   0  0  0  0  0  0  0  0  0  0  0  0
   -0.7500    0.0667    0.1345 H   0  0  0  0  0  0  0  0  0  0  0  0
   -2.7375    0.0847    0.1475 H   0  0  0  0  0  0  0  0  0  0  0  0
    0.0246   -0.6689   -2.0221 H   0  0  0  0  0  0  0  0  0  0  0  0
   -1.0980   -1.0804   -3.3329 H   0  0  0  0  0  0  0  0  0  0  0  0
  1  2  1  0
  1  6  1  0
  1  7  1  0
  1 24  1  0
  2  3  1  0
  2  8  1  0
  2  9  1  0
  3  4  1  0
  4  5  1  0
  4 10  1  0
  4 11  1  0
  5  6  1  0
  6 12  1  0
  6 13  1  0
 14 15  1  0
 14 19  1  0
 14 20  1  0
 14 21  1  0
 15 16  1  0
 15 22  1  0
 15 23  1  0
 16 17  1  0
 17 18  1  0
 17 25  1  0
 18 19  1  0
 19 26  1  0
 19 27  1  0
M  RAD  1  17   2
M  END
>  <reaction>  (11) 
rmg_rxn_198

>  <mol_properties>  (11) 
{"0": {"label": "*3", "atom_type": "Cs"}, "1": {"label": "*4", "atom_type": "Cs"}, "15": {"label": "*0", "atom_type": "O2s"}, "16": {"label": "*1", "atom_type": "Cs"}, "23": {"label": "*2", "atom_type": "H0"}}

>  <type>  (11) 
unop_7

>  <geom_source>  (11) 
Heuristics

$$$$

     RDKit          3D

 27 27  0  0  0  0  0  0  0  0999 V2000
    0.6514    0.5304    1.2010 C   0  0  0  0  0  0  0  0  0  0  0  0
    1.7455    0.2515    0.1803 C   0  0  0  0  0  0  0  0  0  0  0  0
    2.4835    1.4291   -0.0842 O   0  0  0  0  0  0  0  0  0  0  0  0
    1.6501    2.4617   -0.5151 C   0  0  0  0  0  0  0  0  0  0  0  0
    0.6881    2.8156    0.4313 O   0  0  0  0  0  0  0  0  0  0  0  0
   -0.1636    1.7258    0.7285 C   0  0  0  0  0  0  0  0  0  0  0  0
    1.1058    0.7597    2.1668 H   0  0  0  0  0  0  0  0  0  0  0  0
    2.4574   -0.4908    0.5388 H   0  0  0  0  0  0  0  0  0  0  0  0
    1.3016   -0.1215   -0.7555 H   0  0  0  0  0  0  0  0  0  0  0  0
    1.1490    2.1618   -1.4538 H   0  0  0  0  0  0  0  0  0  0  0  0
    2.2768    3.3350   -0.6815 H   0  0  0  0  0  0  0  0  0  0  0  0
   -0.7419    1.4566   -0.1687 H   0  0  0  0  0  0  0  0  0  0  0  0
   -0.8600    2.0712    1.4914 H   0  0  0  0  0  0  0  0  0  0  0  0
   -0.6704   -2.6603   -1.0873 C   0  0  0  0  0  0  0  0  0  0  0  0
   -0.6704   -2.6603    0.4347 C   0  0  0  0  0  0  0  0  0  0  0  0
   -1.7187   -1.8477    0.9268 O   0  0  0  0  0  0  0  0  0  0  0  0
   -1.6277   -0.5481    0.4275 C   0  0  0  0  0  3  0  0  0  0  0  0
   -1.7186   -0.4919   -0.9636 O   0  0  0  0  0  0  0  0  0  0  0  0
   -0.6704   -1.2186   -1.5754 C   0  0  0  0  0  0  0  0  0  0  0  0
    0.2036   -3.1927   -1.4692 H   0  0  0  0  0  0  0  0  0  0  0  0
   -1.5669   -3.1664   -1.4503 H   0  0  0  0  0  0  0  0  0  0  0  0
   -0.8293   -3.6578    0.8420 H   0  0  0  0  0  0  0  0  0  0  0  0
    0.2933   -2.2843    0.8114 H   0  0  0  0  0  0  0  0  0  0  0  0
   -0.4813   -0.0056    0.8166 H   0  0  0  0  0  0  0  0  0  0  0  0
   -2.4688    0.0124    0.8295 H   0  0  0  0  0  0  0  0  0  0  0  0
    0.2933   -0.7412   -1.3401 H   0  0  0  0  0  0  0  0  0  0  0  0
   -0.8293   -1.1527   -2.6509 H   0  0  0  0  0  0  0  0  0  0  0  0
  1  2  1  0
  1  6  1  0
  1  7  1  0
  1 24  1  0
  2  3  1  0
  2  8  1  0
  2  9  1  0
  3  4  1  0
  4  5  1  0
  4 10  1  0
  4 11  1  0
  5  6  1  0
  6 12  1  0
  6 13  1  0
 14 15  1  0
 14 19  1  0
 14 20  1  0
 14 21  1  0
 15 16  1  0
 15 22  1  0
 15 23  1  0
 16 17  1  0
 17 18  1  0
 17 25  1  0
 18 19  1  0
 19 26  1  0
 19 27  1  0
M  RAD  1  17   2
M  END
>  <reaction>  (12) 
rmg_rxn_198

>  <mol_properties>  (12) 
{"0": {"label": "*3", "atom_type": "Cs"}, "1": {"label": "*4", "atom_type": "Cs"}, "15": {"label": "*0", "atom_type": "O2s"}, "16": {"label": "*1", "atom_type": "Cs"}, "23": {"label": "*2", "atom_type": "H0"}}

>  <type>  (12) 
unop_8

>  <geom_source>  (12) 
Heuristics

$$$$

     RDKit          3D

 27 27  0  0  0  0  0  0  0  0999 V2000
    0.2390    0.9735    0.4849 C   0  0  0  0  0  0  0  0  0  0  0  0
    0.6723    0.3976    1.8255 C   0  0  0  0  0  0  0  0  0  0  0  0
    1.7378    1.1556    2.3655 O   0  0  0  0  0  0  0  0  0  0  0  0
    2.8128    1.2195    1.4786 C   0  0  0  0  0  0  0  0  0  0  0  0
    2.4836    1.8282    0.2672 O   0  0  0  0  0  0  0  0  0  0  0  0
    1.4653    1.1128   -0.4058 C   0  0  0  0  0  0  0  0  0  0  0  0
   -0.2104    1.9563    0.6402 H   0  0  0  0  0  0  0  0  0  0  0  0
   -0.1328    0.4219    2.5587 H   0  0  0  0  0  0  0  0  0  0  0  0
    0.9923   -0.6482    1.7005 H   0  0  0  0  0  0  0  0  0  0  0  0
    3.1912    0.1988    1.2859 H   0  0  0  0  0  0  0  0  0  0  0  0
    3.5831    1.8278    1.9473 H   0  0  0  0  0  0  0  0  0  0  0  0
    1.8412    0.1173   -0.6877 H   0  0  0  0  0  0  0  0  0  0  0  0
    1.2452    1.6647   -1.3185 H   0  0  0  0  0  0  0  0  0  0  0  0
   -1.0828   -2.2171   -1.8034 C   0  0  0  0  0  0  0  0  0  0  0  0
   -1.0828   -2.2171   -0.2813 C   0  0  0  0  0  0  0  0  0  0  0  0
   -2.1311   -1.4045    0.2108 O   0  0  0  0  0  0  0  0  0  0  0  0
   -2.0402   -0.1050   -0.2885 C   0  0  0  0  0  3  0  0  0  0  0  0
   -2.1311   -0.0488   -1.6796 O   0  0  0  0  0  0  0  0  0  0  0  0
   -1.0828   -0.7755   -2.2915 C   0  0  0  0  0  0  0  0  0  0  0  0
   -0.2088   -2.7496   -2.1852 H   0  0  0  0  0  0  0  0  0  0  0  0
   -1.9793   -2.7233   -2.1664 H   0  0  0  0  0  0  0  0  0  0  0  0
   -1.2417   -3.2147    0.1260 H   0  0  0  0  0  0  0  0  0  0  0  0
   -0.1191   -1.8412    0.0954 H   0  0  0  0  0  0  0  0  0  0  0  0
   -0.8937    0.4375    0.1005 H   0  0  0  0  0  0  0  0  0  0  0  0
   -2.8812    0.4555    0.1134 H   0  0  0  0  0  0  0  0  0  0  0  0
   -0.1191   -0.2981   -2.0562 H   0  0  0  0  0  0  0  0  0  0  0  0
   -1.2417   -0.7096   -3.3669 H   0  0  0  0  0  0  0  0  0  0  0  0
  1  2  1  0
  1  6  1  0
  1  7  1  0
  1 24  1  0
  2  3  1  0
  2  8  1  0
  2  9  1  0
  3  4  1  0
  4  5  1  0
  4 10  1  0
  4 11  1  0
  5  6  1  0
  6 12  1  0
  6 13  1  0
 14 15  1  0
 14 19  1  0
 14 20  1  0
 14 21  1  0
 15 16  1  0
 15 22  1  0
 15 23  1  0
 16 17  1  0
 17 18  1  0
 17 25  1  0
 18 19  1  0
 19 26  1  0
 19 27  1  0
M  RAD  1  17   2
M  END
>  <reaction>  (13) 
rmg_rxn_198

>  <mol_properties>  (13) 
{"0": {"label": "*3", "atom_type": "Cs"}, "1": {"label": "*4", "atom_type": "Cs"}, "15": {"label": "*0", "atom_type": "O2s"}, "16": {"label": "*1", "atom_type": "Cs"}, "23": {"label": "*2", "atom_type": "H0"}}

>  <type>  (13) 
unop_9

>  <geom_source>  (13) 
Heuristics

$$$$

     RDKit          3D

 27 27  0  0  0  0  0  0  0  0999 V2000
    0.4365    0.7848    1.2395 C   0  0  0  0  0  0  0  0  0  0  0  0
    1.6134   -0.0290    0.7207 C   0  0  0  0  0  0  0  0  0  0  0  0
    2.6706    0.8271    0.3322 O   0  0  0  0  0  0  0  0  0  0  0  0
    2.2462    1.7542   -0.6200 C   0  0  0  0  0  0  0  0  0  0  0  0
    1.2290    2.5872   -0.1531 O   0  0  0  0  0  0  0  0  0  0  0  0
    0.0806    1.8426    0.2046 C   0  0  0  0  0  0  0  0  0  0  0  0
    0.7167    1.2723    2.1753 H   0  0  0  0  0  0  0  0  0  0  0  0
    2.0143   -0.6965    1.4822 H   0  0  0  0  0  0  0  0  0  0  0  0
    1.2995   -0.6386   -0.1405 H   0  0  0  0  0  0  0  0  0  0  0  0
    1.8980    1.2200   -1.5231 H   0  0  0  0  0  0  0  0  0  0  0  0
    3.0985    2.3867   -0.8580 H   0  0  0  0  0  0  0  0  0  0  0  0
   -0.3413    1.3647   -0.6928 H   0  0  0  0  0  0  0  0  0  0  0  0
   -0.6493    2.5557    0.5855 H   0  0  0  0  0  0  0  0  0  0  0  0
   -0.8852   -2.4058   -1.0488 C   0  0  0  0  0  0  0  0  0  0  0  0
   -0.8852   -2.4058    0.4733 C   0  0  0  0  0  0  0  0  0  0  0  0
   -1.9335   -1.5932    0.9654 O   0  0  0  0  0  0  0  0  0  0  0  0
   -1.8426   -0.2937    0.4660 C   0  0  0  0  0  3  0  0  0  0  0  0
   -1.9335   -0.2375   -0.9250 O   0  0  0  0  0  0  0  0  0  0  0  0
   -0.8852   -0.9642   -1.5369 C   0  0  0  0  0  0  0  0  0  0  0  0
   -0.0112   -2.9383   -1.4307 H   0  0  0  0  0  0  0  0  0  0  0  0
   -1.7818   -2.9120   -1.4118 H   0  0  0  0  0  0  0  0  0  0  0  0
   -1.0442   -3.4034    0.8806 H   0  0  0  0  0  0  0  0  0  0  0  0
    0.0784   -2.0299    0.8500 H   0  0  0  0  0  0  0  0  0  0  0  0
   -0.6962    0.2488    0.8551 H   0  0  0  0  0  0  0  0  0  0  0  0
   -2.6837    0.2668    0.8680 H   0  0  0  0  0  0  0  0  0  0  0  0
    0.0784   -0.4868   -1.3016 H   0  0  0  0  0  0  0  0  0  0  0  0
   -1.0442   -0.8983   -2.6123 H   0  0  0  0  0  0  0  0  0  0  0  0
  1  2  1  0
  1  6  1  0
  1  7  1  0
  1 24  1  0
  2  3  1  0
  2  8  1  0
  2  9  1  0
  3  4  1  0
  4  5  1  0
  4 10  1  0
  4 11  1  0
  5  6  1  0
  6 12  1  0
  6 13  1  0
 14 15  1  0
 14 19  1  0
 14 20  1  0
 14 21  1  0
 15 16  1  0
 15 22  1  0
 15 23  1  0
 16 17  1  0
 17 18  1  0
 17 25  1  0
 18 19  1  0
 19 26  1  0
 19 27  1  0
M  RAD  1  17   2
M  END
>  <reaction>  (14) 
rmg_rxn_198

>  <mol_properties>  (14) 
{"0": {"label": "*3", "atom_type": "Cs"}, "1": {"label": "*4", "atom_type": "Cs"}, "15": {"label": "*0", "atom_type": "O2s"}, "16": {"label": "*1", "atom_type": "Cs"}, "23": {"label": "*2", "atom_type": "H0"}}

>  <type>  (14) 
unop_10

>  <geom_source>  (14) 
Heuristics

$$$$

     RDKit          3D

 27 27  0  0  0  0  0  0  0  0999 V2000
    0.3852    0.6159    0.4901 C   0  0  0  0  0  0  0  0  0  0  0  0
    0.2373    2.1235    0.6383 C   0  0  0  0  0  0  0  0  0  0  0  0
    1.5014    2.7528    0.5525 O   0  0  0  0  0  0  0  0  0  0  0  0
    2.3857    2.2420    1.5030 C   0  0  0  0  0  0  0  0  0  0  0  0
    2.6248    0.8765    1.3457 O   0  0  0  0  0  0  0  0  0  0  0  0
    1.4319    0.1284    1.4817 C   0  0  0  0  0  0  0  0  0  0  0  0
    0.7100    0.3811   -0.5254 H   0  0  0  0  0  0  0  0  0  0  0  0
   -0.3802    2.5516   -0.1501 H   0  0  0  0  0  0  0  0  0  0  0  0
   -0.2270    2.3630    1.6073 H   0  0  0  0  0  0  0  0  0  0  0  0
    1.9852    2.4304    2.5161 H   0  0  0  0  0  0  0  0  0  0  0  0
    3.3359    2.7543    1.3690 H   0  0  0  0  0  0  0  0  0  0  0  0
    1.0517    0.2275    2.5100 H   0  0  0  0  0  0  0  0  0  0  0  0
    1.6956   -0.9152    1.3154 H   0  0  0  0  0  0  0  0  0  0  0  0
   -0.9366   -2.5747   -1.7982 C   0  0  0  0  0  0  0  0  0  0  0  0
   -0.9366   -2.5747   -0.2762 C   0  0  0  0  0  0  0  0  0  0  0  0
   -1.9849   -1.7621    0.2159 O   0  0  0  0  0  0  0  0  0  0  0  0
   -1.8940   -0.4626   -0.2834 C   0  0  0  0  0  3  0  0  0  0  0  0
   -1.9849   -0.4064   -1.6744 O   0  0  0  0  0  0  0  0  0  0  0  0
   -0.9366   -1.1331   -2.2863 C   0  0  0  0  0  0  0  0  0  0  0  0
   -0.0626   -3.1072   -2.1801 H   0  0  0  0  0  0  0  0  0  0  0  0
   -1.8332   -3.0809   -2.1612 H   0  0  0  0  0  0  0  0  0  0  0  0
   -1.0955   -3.5723    0.1312 H   0  0  0  0  0  0  0  0  0  0  0  0
    0.0270   -2.1988    0.1005 H   0  0  0  0  0  0  0  0  0  0  0  0
   -0.7476    0.0799    0.1057 H   0  0  0  0  0  0  0  0  0  0  0  0
   -2.7350    0.0979    0.1186 H   0  0  0  0  0  0  0  0  0  0  0  0
    0.0270   -0.6557   -2.0510 H   0  0  0  0  0  0  0  0  0  0  0  0
   -1.0955   -1.0672   -3.3618 H   0  0  0  0  0  0  0  0  0  0  0  0
  1  2  1  0
  1  6  1  0
  1  7  1  0
  1 24  1  0
  2  3  1  0
  2  8  1  0
  2  9  1  0
  3  4  1  0
  4  5  1  0
  4 10  1  0
  4 11  1  0
  5  6  1  0
  6 12  1  0
  6 13  1  0
 14 15  1  0
 14 19  1  0
 14 20  1  0
 14 21  1  0
 15 16  1  0
 15 22  1  0
 15 23  1  0
 16 17  1  0
 17 18  1  0
 17 25  1  0
 18 19  1  0
 19 26  1  0
 19 27  1  0
M  RAD  1  17   2
M  END
>  <reaction>  (15) 
rmg_rxn_198

>  <mol_properties>  (15) 
{"0": {"label": "*3", "atom_type": "Cs"}, "1": {"label": "*4", "atom_type": "Cs"}, "15": {"label": "*0", "atom_type": "O2s"}, "16": {"label": "*1", "atom_type": "Cs"}, "23": {"label": "*2", "atom_type": "H0"}}

>  <type>  (15) 
unop_11

>  <geom_source>  (15) 
Heuristics

$$$$

     RDKit          3D

 27 27  0  0  0  0  0  0  0  0999 V2000
    0.1856    1.0762    0.7553 C   0  0  0  0  0  0  0  0  0  0  0  0
    0.9810    0.0909    1.5998 C   0  0  0  0  0  0  0  0  0  0  0  0
    2.2630    0.6143    1.8899 O   0  0  0  0  0  0  0  0  0  0  0  0
    2.9520    0.9404    0.7215 C   0  0  0  0  0  0  0  0  0  0  0  0
    2.3031    1.9132   -0.0396 O   0  0  0  0  0  0  0  0  0  0  0  0
    1.0237    1.4721   -0.4520 C   0  0  0  0  0  0  0  0  0  0  0  0
   -0.0384    1.9647    1.3487 H   0  0  0  0  0  0  0  0  0  0  0  0
    0.4994   -0.1072    2.5563 H   0  0  0  0  0  0  0  0  0  0  0  0
    1.0874   -0.8646    1.0636 H   0  0  0  0  0  0  0  0  0  0  0  0
    3.0919    0.0294    0.1111 H   0  0  0  0  0  0  0  0  0  0  0  0
    3.9149    1.3506    1.0176 H   0  0  0  0  0  0  0  0  0  0  0  0
    1.1331    0.6137   -1.1324 H   0  0  0  0  0  0  0  0  0  0  0  0
    0.5737    2.2928   -1.0089 H   0  0  0  0  0  0  0  0  0  0  0  0
   -1.1361   -2.1144   -1.5330 C   0  0  0  0  0  0  0  0  0  0  0  0
   -1.1361   -2.1144   -0.0110 C   0  0  0  0  0  0  0  0  0  0  0  0
   -2.1844   -1.3018    0.4811 O   0  0  0  0  0  0  0  0  0  0  0  0
   -2.0935   -0.0022   -0.0182 C   0  0  0  0  0  3  0  0  0  0  0  0
   -2.1844    0.0539   -1.4092 O   0  0  0  0  0  0  0  0  0  0  0  0
   -1.1361   -0.6728   -2.0211 C   0  0  0  0  0  0  0  0  0  0  0  0
   -0.2621   -2.6469   -1.9149 H   0  0  0  0  0  0  0  0  0  0  0  0
   -2.0327   -2.6206   -1.8960 H   0  0  0  0  0  0  0  0  0  0  0  0
   -1.2951   -3.1119    0.3964 H   0  0  0  0  0  0  0  0  0  0  0  0
   -0.1725   -1.7384    0.3657 H   0  0  0  0  0  0  0  0  0  0  0  0
   -0.9471    0.5402    0.3709 H   0  0  0  0  0  0  0  0  0  0  0  0
   -2.9346    0.5583    0.3838 H   0  0  0  0  0  0  0  0  0  0  0  0
   -0.1725   -0.1954   -1.7858 H   0  0  0  0  0  0  0  0  0  0  0  0
   -1.2951   -0.6068   -3.0966 H   0  0  0  0  0  0  0  0  0  0  0  0
  1  2  1  0
  1  6  1  0
  1  7  1  0
  1 24  1  0
  2  3  1  0
  2  8  1  0
  2  9  1  0
  3  4  1  0
  4  5  1  0
  4 10  1  0
  4 11  1  0
  5  6  1  0
  6 12  1  0
  6 13  1  0
 14 15  1  0
 14 19  1  0
 14 20  1  0
 14 21  1  0
 15 16  1  0
 15 22  1  0
 15 23  1  0
 16 17  1  0
 17 18  1  0
 17 25  1  0
 18 19  1  0
 19 26  1  0
 19 27  1  0
M  RAD  1  17   2
M  END
>  <reaction>  (16) 
rmg_rxn_198

>  <mol_properties>  (16) 
{"0": {"label": "*3", "atom_type": "Cs"}, "1": {"label": "*4", "atom_type": "Cs"}, "15": {"label": "*0", "atom_type": "O2s"}, "16": {"label": "*1", "atom_type": "Cs"}, "23": {"label": "*2", "atom_type": "H0"}}

>  <type>  (16) 
unop_12

>  <geom_source>  (16) 
Heuristics

$$$$

     RDKit          3D

 27 25  0  0  0  0  0  0  0  0999 V2000
    2.8927    1.3722   -0.1657 O   0  0  0  0  0  0  0  0  0  0  0  0
    3.7712   -0.8594   -0.1631 O   0  0  0  0  0  0  0  0  0  0  0  0
   -1.7789   -0.4537   -1.2093 O   0  0  0  0  0  1  0  0  0  0  0  0
   -1.8150    0.1069    1.1253 O   0  0  0  0  0  1  0  0  0  0  0  0
    1.4996   -0.4633    0.5274 C   0  0  0  0  0  0  0  0  0  0  0  0
   -3.8573    0.1385   -0.1522 C   0  0  0  0  0  0  0  0  0  0  0  0
    2.1313    0.8744    0.9124 C   0  0  0  0  0  0  0  0  0  0  0  0
    2.4289   -1.1891   -0.4454 C   0  0  0  0  0  0  0  0  0  0  0  0
   -3.0817   -0.9196   -0.9400 C   0  0  0  0  0  0  0  0  0  0  0  0
   -2.8734    0.9389    0.7040 C   0  0  0  0  0  0  0  0  0  0  0  0
    4.0075    0.5221   -0.4199 C   0  0  0  0  0  0  0  0  0  0  0  0
   -1.0498   -0.3334    0.0067 C   0  0  0  0  0  1  0  0  0  0  0  0
    1.3418   -1.0757    1.4418 H   0  0  0  0  0  0  0  0  0  0  0  0
    0.3561   -0.2658   -0.0429 H   0  0  0  0  0  0  0  0  0  0  0  0
   -4.6119   -0.3607    0.4938 H   0  0  0  0  0  0  0  0  0  0  0  0
   -4.3855    0.8267   -0.8473 H   0  0  0  0  0  0  0  0  0  0  0  0
    2.7658    0.7626    1.8221 H   0  0  0  0  0  0  0  0  0  0  0  0
    1.3273    1.6003    1.1544 H   0  0  0  0  0  0  0  0  0  0  0  0
    2.1726   -0.9251   -1.4971 H   0  0  0  0  0  0  0  0  0  0  0  0
    2.2934   -2.2858   -0.3365 H   0  0  0  0  0  0  0  0  0  0  0  0
   -3.0466   -1.8815   -0.3773 H   0  0  0  0  0  0  0  0  0  0  0  0
   -3.6015   -1.1184   -1.9010 H   0  0  0  0  0  0  0  0  0  0  0  0
   -3.4005    1.3359    1.5972 H   0  0  0  0  0  0  0  0  0  0  0  0
   -2.4794    1.8126    0.1349 H   0  0  0  0  0  0  0  0  0  0  0  0
    4.8635    0.8568    0.2035 H   0  0  0  0  0  0  0  0  0  0  0  0
    4.3103    0.6431   -1.4815 H   0  0  0  0  0  0  0  0  0  0  0  0
   -0.1806    0.3406   -0.1442 H   0  0  0  0  0  0  0  0  0  0  0  0
  1  7  1  0
  1 11  1  0
  2  8  1  0
  2 11  1  0
  3  9  1  0
  4 10  1  0
  5  7  1  0
  5  8  1  0
  5 13  1  0
  5 14  1  0
  6  9  1  0
  6 10  1  0
  6 15  1  0
  6 16  1  0
  7 17  1  0
  7 18  1  0
  8 19  1  0
  8 20  1  0
  9 21  1  0
  9 22  1  0
 10 23  1  0
 10 24  1  0
 11 25  1  0
 11 26  1  0
 12 27  1  0
M  RAD  3   3   2   4   2  12   2
M  END
>  <reaction>  (17) 
rmg_rxn_198

>  <mol_properties>  (17) 
{"0": {"label": "*3", "atom_type": "Cs"}, "1": {"label": "*4", "atom_type": "Cs"}, "15": {"label": "*0", "atom_type": "O2s"}, "16": {"label": "*1", "atom_type": "Cs"}, "23": {"label": "*2", "atom_type": "H0"}}

>  <type>  (17) 
unop_13

>  <geom_source>  (17) 
AutoTST

$$$$

     RDKit          3D

 27 27  0  0  0  0  0  0  0  0999 V2000
    0.2571    1.0032    1.0659 C   0  0  0  0  0  0  0  0  0  0  0  0
    1.3246   -0.0692    1.2298 C   0  0  0  0  0  0  0  0  0  0  0  0
    2.6143    0.4942    1.0858 O   0  0  0  0  0  0  0  0  0  0  0  0
    2.7466    1.1473   -0.1399 C   0  0  0  0  0  0  0  0  0  0  0  0
    1.8469    2.2023   -0.2944 O   0  0  0  0  0  0  0  0  0  0  0  0
    0.5086    1.7471   -0.2378 C   0  0  0  0  0  0  0  0  0  0  0  0
    0.3154    1.7041    1.9009 H   0  0  0  0  0  0  0  0  0  0  0  0
    1.2918   -0.5292    2.2165 H   0  0  0  0  0  0  0  0  0  0  0  0
    1.1833   -0.8597    0.4768 H   0  0  0  0  0  0  0  0  0  0  0  0
    2.6045    0.4203   -0.9606 H   0  0  0  0  0  0  0  0  0  0  0  0
    3.7486    1.5689   -0.1753 H   0  0  0  0  0  0  0  0  0  0  0  0
    0.3098    1.0845   -1.0941 H   0  0  0  0  0  0  0  0  0  0  0  0
   -0.1261    2.6270   -0.3338 H   0  0  0  0  0  0  0  0  0  0  0  0
   -1.0647   -2.1875   -1.2224 C   0  0  0  0  0  0  0  0  0  0  0  0
   -1.0647   -2.1875    0.2997 C   0  0  0  0  0  0  0  0  0  0  0  0
   -2.1130   -1.3748    0.7918 O   0  0  0  0  0  0  0  0  0  0  0  0
   -2.0221   -0.0753    0.2925 C   0  0  0  0  0  3  0  0  0  0  0  0
   -2.1130   -0.0191   -1.0986 O   0  0  0  0  0  0  0  0  0  0  0  0
   -1.0647   -0.7458   -1.7105 C   0  0  0  0  0  0  0  0  0  0  0  0
   -0.1907   -2.7199   -1.6042 H   0  0  0  0  0  0  0  0  0  0  0  0
   -1.9613   -2.6936   -1.5854 H   0  0  0  0  0  0  0  0  0  0  0  0
   -1.2237   -3.1850    0.7070 H   0  0  0  0  0  0  0  0  0  0  0  0
   -0.1011   -1.8115    0.6764 H   0  0  0  0  0  0  0  0  0  0  0  0
   -0.8757    0.4672    0.6815 H   0  0  0  0  0  0  0  0  0  0  0  0
   -2.8632    0.4852    0.6945 H   0  0  0  0  0  0  0  0  0  0  0  0
   -0.1011   -0.2684   -1.4752 H   0  0  0  0  0  0  0  0  0  0  0  0
   -1.2237   -0.6799   -2.7859 H   0  0  0  0  0  0  0  0  0  0  0  0
  1  2  1  0
  1  6  1  0
  1  7  1  0
  1 24  1  0
  2  3  1  0
  2  8  1  0
  2  9  1  0
  3  4  1  0
  4  5  1  0
  4 10  1  0
  4 11  1  0
  5  6  1  0
  6 12  1  0
  6 13  1  0
 14 15  1  0
 14 19  1  0
 14 20  1  0
 14 21  1  0
 15 16  1  0
 15 22  1  0
 15 23  1  0
 16 17  1  0
 17 18  1  0
 17 25  1  0
 18 19  1  0
 19 26  1  0
 19 27  1  0
M  RAD  1  17   2
M  END
>  <reaction>  (18) 
rmg_rxn_198

>  <mol_properties>  (18) 
{"0": {"label": "*3", "atom_type": "Cs"}, "1": {"label": "*4", "atom_type": "Cs"}, "15": {"label": "*0", "atom_type": "O2s"}, "16": {"label": "*1", "atom_type": "Cs"}, "23": {"label": "*2", "atom_type": "H0"}}

>  <type>  (18) 
unop_14

>  <geom_source>  (18) 
gaussian_log

$$$$
