
     RDKit          3D

  9  8  0  0  0  0  0  0  0  0999 V2000
   -1.5470   -0.0755   -0.1976 C   0  0  0  0  0  0  0  0  0  0  0  0
   -0.2885    0.4507    0.1749 O   0  0  0  0  0  0  0  0  0  0  0  0
   -0.1502    1.7216   -0.3294 N   0  0  0  0  0  0  0  0  0  0  0  0
    0.9626    2.2353   -0.0219 C   0  0  0  0  0  0  0  0  0  0  0  0
   -1.6392   -0.1356   -1.2844 H   0  0  0  0  0  0  0  0  0  0  0  0
   -2.3597    0.5337    0.2044 H   0  0  0  0  0  0  0  0  0  0  0  0
   -1.5879   -1.0750    0.2318 H   0  0  0  0  0  0  0  0  0  0  0  0
    1.1497    3.2381   -0.3820 H   0  0  0  0  0  0  0  0  0  0  0  0
    1.7060    1.7101    0.5739 H   0  0  0  0  0  0  0  0  0  0  0  0
  1  2  1  0
  1  5  1  0
  1  6  1  0
  1  7  1  0
  2  3  1  0
  3  4  2  3
  4  8  1  0
  4  9  1  0
M  END
>  <reaction>  (1) 
rmg_rxn_15622

>  <mol_properties>  (1) 
{"0": {"label": "donator", "atom_type": "Cs"}, "4": {"label": "d_hydrogen", "atom_type": "H0"}}

>  <type>  (1) 
r1h

$$$$

     RDKit          3D

  8  7  0  0  0  0  0  0  0  0999 V2000
    1.3778   -0.6812    0.2772 C   0  0  0  0  0  3  0  0  0  0  0  0
    0.4890    0.2108   -0.0590 C   0  0  0  0  0  0  0  0  0  0  0  0
   -1.0010    0.0286   -0.0323 C   0  0  0  0  0  0  0  0  0  0  0  0
    2.4535   -0.7507    0.3287 H   0  0  0  0  0  0  0  0  0  0  0  0
    0.8447    1.1899   -0.3945 H   0  0  0  0  0  0  0  0  0  0  0  0
   -1.4635    0.7638    0.6301 H   0  0  0  0  0  0  0  0  0  0  0  0
   -1.2709   -0.9687    0.3117 H   0  0  0  0  0  0  0  0  0  0  0  0
   -1.4218    0.1801   -1.0289 H   0  0  0  0  0  0  0  0  0  0  0  0
  1  2  2  3
  1  4  1  0
  2  3  1  0
  2  5  1  0
  3  6  1  0
  3  7  1  0
  3  8  1  0
M  RAD  1   1   2
M  END
>  <reaction>  (2) 
rmg_rxn_15622

>  <mol_properties>  (2) 
{"0": {"label": "acceptor", "atom_type": "Cd"}}

>  <type>  (2) 
r2

$$$$

     RDKit          3D

  9  8  0  0  0  0  0  0  0  0999 V2000
    1.1303   -0.2933   -0.7510 C   0  0  0  0  0  0  0  0  0  0  0  0
    0.2866    0.4560   -0.0588 C   0  0  0  0  0  0  0  0  0  0  0  0
   -0.9719   -0.0331    0.5823 C   0  0  0  0  0  0  0  0  0  0  0  0
    2.0274    0.1230   -1.1916 H   0  0  0  0  0  0  0  0  0  0  0  0
    0.9532   -1.3530   -0.9023 H   0  0  0  0  0  0  0  0  0  0  0  0
    0.5065    1.5132    0.0659 H   0  0  0  0  0  0  0  0  0  0  0  0
   -0.9526    0.1426    1.6610 H   0  0  0  0  0  0  0  0  0  0  0  0
   -1.1182   -1.1002    0.4106 H   0  0  0  0  0  0  0  0  0  0  0  0
   -1.8412    0.5010    0.1901 H   0  0  0  0  0  0  0  0  0  0  0  0
  1  2  2  3
  1  4  1  0
  1  5  1  0
  2  3  1  0
  2  6  1  0
  3  7  1  0
  3  8  1  0
  3  9  1  0
M  END
>  <reaction>  (3) 
rmg_rxn_15622

>  <mol_properties>  (3) 
{"0": {"label": "a_hydrogen", "atom_type": "H0"}, "1": {"label": "acceptor", "atom_type": "Cd"}}

>  <type>  (3) 
r2h

$$$$

     RDKit          3D

 17 15  0  0  0  0  0  0  0  0999 V2000
   -0.9098    1.5749   -0.3162 C   0  0  0  0  0  0  0  0  0  0  0  0
   -1.7271    0.6437    0.3186 O   0  0  0  0  0  0  0  0  0  0  0  0
   -1.6110   -0.5900   -0.2824 N   0  0  0  0  0  0  0  0  0  0  0  0
   -2.2806   -1.4723    0.3255 C   0  0  0  0  0  0  0  0  0  0  0  0
    0.3044    1.3487   -0.0267 H   0  0  0  0  0  0  0  0  0  0  0  0
   -1.1546    2.5553    0.0859 H   0  0  0  0  0  0  0  0  0  0  0  0
   -0.9774    1.5224   -1.4032 H   0  0  0  0  0  0  0  0  0  0  0  0
   -2.2530   -2.4711   -0.0890 H   0  0  0  0  0  0  0  0  0  0  0  0
   -2.8604   -1.2560    1.2198 H   0  0  0  0  0  0  0  0  0  0  0  0
    1.6409    0.9348    0.2561 C   0  0  0  0  0  3  0  0  0  0  0  0
    1.9813   -0.2411   -0.2228 C   0  0  0  0  0  0  0  0  0  0  0  0
    3.3233   -0.8936   -0.0560 C   0  0  0  0  0  0  0  0  0  0  0  0
    2.2428    1.6242    0.8392 H   0  0  0  0  0  0  0  0  0  0  0  0
    1.2389   -0.8049   -0.7856 H   0  0  0  0  0  0  0  0  0  0  0  0
    4.0047   -0.2673    0.5202 H   0  0  0  0  0  0  0  0  0  0  0  0
    3.7769   -1.0934   -1.0301 H   0  0  0  0  0  0  0  0  0  0  0  0
    3.2216   -1.8548    0.4542 H   0  0  0  0  0  0  0  0  0  0  0  0
  1  2  1  0
  1  5  1  0
  1  6  1  0
  1  7  1  0
  2  3  1  0
  3  4  2  3
  4  8  1  0
  4  9  1  0
 10 11  2  3
 10 13  1  0
 11 12  1  0
 11 14  1  0
 12 15  1  0
 12 16  1  0
 12 17  1  0
M  RAD  1  10   2
M  END
>  <reaction>  (4) 
rmg_rxn_15622

>  <mol_properties>  (4) 
{"0": {"label": "*1", "atom_type": "Cs"}, "1": {"label": "*0", "atom_type": "O2s"}, "4": {"label": "*2", "atom_type": "H0"}, "9": {"label": "*3", "atom_type": "Cd"}, "10": {"label": "*4", "atom_type": "Cd"}}

>  <type>  (4) 
ts

$$$$

     RDKit          3D

 17 15  0  0  0  0  0  0  0  0999 V2000
   -0.8846    1.5595   -0.2320 C   0  0  0  0  0  3  0  0  0  0  0  0
   -1.6558    0.5976    0.3873 O   0  0  0  0  0  0  0  0  0  0  0  0
   -1.8533   -0.5184   -0.3986 N   0  0  0  0  0  0  0  0  0  0  0  0
   -2.4910   -1.4664    0.1416 C   0  0  0  0  0  0  0  0  0  0  0  0
    0.4264    1.2587   -0.0463 H   0  0  0  0  0  0  0  0  0  0  0  0
   -1.0521    2.5076    0.2659 H   0  0  0  0  0  0  0  0  0  0  0  0
   -1.0005    1.5858   -1.3120 H   0  0  0  0  0  0  0  0  0  0  0  0
   -2.6572   -2.3381   -0.4653 H   0  0  0  0  0  0  0  0  0  0  0  0
   -2.8728   -1.4473    1.1579 H   0  0  0  0  0  0  0  0  0  0  0  0
    1.6450    0.9196    0.1168 C   0  0  0  0  0  0  0  0  0  0  0  0
    2.0233   -0.3147   -0.1128 C   0  0  0  0  0  0  0  0  0  0  0  0
    3.4234   -0.8319    0.0471 C   0  0  0  0  0  0  0  0  0  0  0  0
    2.2900    1.7138    0.4521 H   0  0  0  0  0  0  0  0  0  0  0  0
    1.3036   -1.0522   -0.4468 H   0  0  0  0  0  0  0  0  0  0  0  0
    4.0939   -0.0457    0.3850 H   0  0  0  0  0  0  0  0  0  0  0  0
    3.7849   -1.2223   -0.9036 H   0  0  0  0  0  0  0  0  0  0  0  0
    3.4378   -1.6459    0.7710 H   0  0  0  0  0  0  0  0  0  0  0  0
  1  2  1  0
  1  6  1  0
  1  7  1  0
  2  3  1  0
  3  4  2  3
  4  8  1  0
  4  9  1  0
  5 10  1  0
 10 11  2  3
 10 13  1  0
 11 12  1  0
 11 14  1  0
 12 15  1  0
 12 16  1  0
 12 17  1  0
M  RAD  1   1   2
M  END
>  <reaction>  (5) 
rmg_rxn_15622

>  <mol_properties>  (5) 
{"0": {"label": "*1", "atom_type": "Cs"}, "1": {"label": "*0", "atom_type": "O2s"}, "4": {"label": "*2", "atom_type": "H0"}, "9": {"label": "*3", "atom_type": "Cd"}, "10": {"label": "*4", "atom_type": "Cd"}}

>  <type>  (5) 
unop_1

>  <geom_source>  (5) 
crest_best.xyz

$$$$

     RDKit          3D

 17 15  0  0  0  0  0  0  0  0999 V2000
   -1.2106    0.7561    0.1598 C   0  0  0  0  0  3  0  0  0  0  0  0
   -1.2106    0.8140   -1.2531 O   0  0  0  0  0  0  0  0  0  0  0  0
   -1.2106   -0.4598   -1.7689 N   0  0  0  0  0  0  0  0  0  0  0  0
   -1.2106   -0.4598   -3.0325 C   0  0  0  0  0  0  0  0  0  0  0  0
   -0.1400    0.1440    0.6039 H   0  0  0  0  0  0  0  0  0  0  0  0
   -2.1027    0.2459    0.5299 H   0  0  0  0  0  0  0  0  0  0  0  0
   -1.2106    1.7910    0.4976 H   0  0  0  0  0  0  0  0  0  0  0  0
   -1.2106   -1.4269   -3.5173 H   0  0  0  0  0  0  0  0  0  0  0  0
   -1.2106    0.4567   -3.6186 H   0  0  0  0  0  0  0  0  0  0  0  0
    0.9212   -0.4629    1.0441 C   0  0  0  0  0  0  0  0  0  0  0  0
    1.7841    0.1436    1.8441 C   0  0  0  0  0  0  0  0  0  0  0  0
    2.3728   -0.4501    3.0831 C   0  0  0  0  0  0  0  0  0  0  0  0
    0.5733   -1.4703    1.2466 H   0  0  0  0  0  0  0  0  0  0  0  0
    2.1037    1.1535    1.6000 H   0  0  0  0  0  0  0  0  0  0  0  0
    3.4630   -0.4901    3.0151 H   0  0  0  0  0  0  0  0  0  0  0  0
    2.0020   -1.4612    3.2557 H   0  0  0  0  0  0  0  0  0  0  0  0
    2.1324    0.1590    3.9583 H   0  0  0  0  0  0  0  0  0  0  0  0
  1  2  1  0
  1  6  1  0
  1  7  1  0
  2  3  1  0
  3  4  2  3
  4  8  1  0
  4  9  1  0
  5 10  1  0
 10 11  2  3
 10 13  1  0
 11 12  1  0
 11 14  1  0
 12 15  1  0
 12 16  1  0
 12 17  1  0
M  RAD  1   1   2
M  END
>  <reaction>  (6) 
rmg_rxn_15622

>  <mol_properties>  (6) 
{"0": {"label": "*1", "atom_type": "Cs"}, "1": {"label": "*0", "atom_type": "O2s"}, "4": {"label": "*2", "atom_type": "H0"}, "9": {"label": "*3", "atom_type": "Cd"}, "10": {"label": "*4", "atom_type": "Cd"}}

>  <type>  (6) 
unop_2

>  <geom_source>  (6) 
Heuristics

$$$$

     RDKit          3D

 17 15  0  0  0  0  0  0  0  0999 V2000
   -1.1992    1.3626    0.2703 C   0  0  0  0  0  3  0  0  0  0  0  0
   -1.7500    0.4943   -0.6529 O   0  0  0  0  0  0  0  0  0  0  0  0
   -1.9469   -0.8106   -0.3720 N   0  0  0  0  0  0  0  0  0  0  0  0
   -1.5447   -1.3450    0.7000 C   0  0  0  0  0  0  0  0  0  0  0  0
    0.1343    1.1376    0.3805 H   0  0  0  0  0  0  0  0  0  0  0  0
   -1.5926    1.2633    1.2817 H   0  0  0  0  0  0  0  0  0  0  0  0
   -1.2947    2.3632   -0.1347 H   0  0  0  0  0  0  0  0  0  0  0  0
   -1.7722   -2.3904    0.8115 H   0  0  0  0  0  0  0  0  0  0  0  0
   -0.9863   -0.8617    1.4973 H   0  0  0  0  0  0  0  0  0  0  0  0
    1.3789    0.8684    0.4749 C   0  0  0  0  0  0  0  0  0  0  0  0
    1.8943   -0.1104   -0.2287 C   0  0  0  0  0  0  0  0  0  0  0  0
    3.3365   -0.5235   -0.2050 C   0  0  0  0  0  0  0  0  0  0  0  0
    1.9199    1.4994    1.1589 H   0  0  0  0  0  0  0  0  0  0  0  0
    1.2685   -0.6928   -0.8947 H   0  0  0  0  0  0  0  0  0  0  0  0
    3.4181   -1.5669    0.0970 H   0  0  0  0  0  0  0  0  0  0  0  0
    3.9085    0.0920    0.4848 H   0  0  0  0  0  0  0  0  0  0  0  0
    3.7631   -0.4292   -1.2028 H   0  0  0  0  0  0  0  0  0  0  0  0
  1  2  1  0
  1  6  1  0
  1  7  1  0
  2  3  1  0
  3  4  2  3
  4  8  1  0
  4  9  1  0
  5 10  1  0
 10 11  2  3
 10 13  1  0
 11 12  1  0
 11 14  1  0
 12 15  1  0
 12 16  1  0
 12 17  1  0
M  RAD  1   1   2
M  END
>  <reaction>  (7) 
rmg_rxn_15622

>  <mol_properties>  (7) 
{"0": {"label": "*1", "atom_type": "Cs"}, "1": {"label": "*0", "atom_type": "O2s"}, "4": {"label": "*2", "atom_type": "H0"}, "9": {"label": "*3", "atom_type": "Cd"}, "10": {"label": "*4", "atom_type": "Cd"}}

>  <type>  (7) 
unop_3

>  <geom_source>  (7) 
Heuristics

$$$$

     RDKit          3D

 17 15  0  0  0  0  0  0  0  0999 V2000
   -1.1980   -1.3631    0.2696 C   0  0  0  0  0  3  0  0  0  0  0  0
   -1.7473   -0.4947   -0.6545 O   0  0  0  0  0  0  0  0  0  0  0  0
   -1.9467    0.8098   -0.3730 N   0  0  0  0  0  0  0  0  0  0  0  0
   -1.5493    1.3436    0.7011 C   0  0  0  0  0  0  0  0  0  0  0  0
    0.1350   -1.1365    0.3829 H   0  0  0  0  0  0  0  0  0  0  0  0
   -1.2909   -2.3634   -0.1367 H   0  0  0  0  0  0  0  0  0  0  0  0
   -1.5944   -1.2653    1.2799 H   0  0  0  0  0  0  0  0  0  0  0  0
   -1.7788    2.3885    0.8129 H   0  0  0  0  0  0  0  0  0  0  0  0
   -0.9939    0.8601    1.5004 H   0  0  0  0  0  0  0  0  0  0  0  0
    1.3795   -0.8671    0.4770 C   0  0  0  0  0  0  0  0  0  0  0  0
    1.8940    0.1122   -0.2266 C   0  0  0  0  0  0  0  0  0  0  0  0
    3.3367    0.5239   -0.2064 C   0  0  0  0  0  0  0  0  0  0  0  0
    1.9218   -1.5002    1.1582 H   0  0  0  0  0  0  0  0  0  0  0  0
    1.2668    0.6963   -0.8897 H   0  0  0  0  0  0  0  0  0  0  0  0
    3.7578    0.4392   -1.2073 H   0  0  0  0  0  0  0  0  0  0  0  0
    3.9118   -0.0988    0.4744 H   0  0  0  0  0  0  0  0  0  0  0  0
    3.4206    1.5643    0.1056 H   0  0  0  0  0  0  0  0  0  0  0  0
  1  2  1  0
  1  6  1  0
  1  7  1  0
  2  3  1  0
  3  4  2  3
  4  8  1  0
  4  9  1  0
  5 10  1  0
 10 11  2  3
 10 13  1  0
 11 12  1  0
 11 14  1  0
 12 15  1  0
 12 16  1  0
 12 17  1  0
M  RAD  1   1   2
M  END
>  <reaction>  (8) 
rmg_rxn_15622

>  <mol_properties>  (8) 
{"0": {"label": "*1", "atom_type": "Cs"}, "1": {"label": "*0", "atom_type": "O2s"}, "4": {"label": "*2", "atom_type": "H0"}, "9": {"label": "*3", "atom_type": "Cd"}, "10": {"label": "*4", "atom_type": "Cd"}}

>  <type>  (8) 
unop_4

>  <geom_source>  (8) 
Heuristics

$$$$

     RDKit          3D

 17 15  0  0  0  0  0  0  0  0999 V2000
   -1.1963    1.3633    0.2689 C   0  0  0  0  0  3  0  0  0  0  0  0
   -1.7450    0.4952   -0.6558 O   0  0  0  0  0  0  0  0  0  0  0  0
   -1.9482   -0.8084   -0.3737 N   0  0  0  0  0  0  0  0  0  0  0  0
   -1.5549   -1.3424    0.7019 C   0  0  0  0  0  0  0  0  0  0  0  0
    0.1363    1.1353    0.3842 H   0  0  0  0  0  0  0  0  0  0  0  0
   -1.5944    1.2663    1.2786 H   0  0  0  0  0  0  0  0  0  0  0  0
   -1.2875    2.3636   -0.1377 H   0  0  0  0  0  0  0  0  0  0  0  0
   -1.7871   -2.3868    0.8137 H   0  0  0  0  0  0  0  0  0  0  0  0
   -1.0002   -0.8597    1.5021 H   0  0  0  0  0  0  0  0  0  0  0  0
    1.3800    0.8632    0.4814 C   0  0  0  0  0  0  0  0  0  0  0  0
    1.8957   -0.1106   -0.2288 C   0  0  0  0  0  0  0  0  0  0  0  0
    3.3376   -0.5250   -0.2064 C   0  0  0  0  0  0  0  0  0  0  0  0
    1.9205    1.4893    1.1703 H   0  0  0  0  0  0  0  0  0  0  0  0
    1.2703   -0.6872   -0.9001 H   0  0  0  0  0  0  0  0  0  0  0  0
    3.4181   -1.5695    0.0918 H   0  0  0  0  0  0  0  0  0  0  0  0
    3.9100    0.0874    0.4858 H   0  0  0  0  0  0  0  0  0  0  0  0
    3.7644   -0.4273   -1.2036 H   0  0  0  0  0  0  0  0  0  0  0  0
  1  2  1  0
  1  6  1  0
  1  7  1  0
  2  3  1  0
  3  4  2  3
  4  8  1  0
  4  9  1  0
  5 10  1  0
 10 11  2  3
 10 13  1  0
 11 12  1  0
 11 14  1  0
 12 15  1  0
 12 16  1  0
 12 17  1  0
M  RAD  1   1   2
M  END
>  <reaction>  (9) 
rmg_rxn_15622

>  <mol_properties>  (9) 
{"0": {"label": "*1", "atom_type": "Cs"}, "1": {"label": "*0", "atom_type": "O2s"}, "4": {"label": "*2", "atom_type": "H0"}, "9": {"label": "*3", "atom_type": "Cd"}, "10": {"label": "*4", "atom_type": "Cd"}}

>  <type>  (9) 
unop_5

>  <geom_source>  (9) 
Heuristics

$$$$

     RDKit          3D

 17 15  0  0  0  0  0  0  0  0999 V2000
   -1.4080    0.8734    0.6743 C   0  0  0  0  0  3  0  0  0  0  0  0
   -1.4081    0.9313   -0.7385 O   0  0  0  0  0  0  0  0  0  0  0  0
   -1.4081   -0.3426   -1.2543 N   0  0  0  0  0  0  0  0  0  0  0  0
   -1.4081   -0.3426   -2.5179 C   0  0  0  0  0  0  0  0  0  0  0  0
   -0.3374    0.2612    1.1185 H   0  0  0  0  0  0  0  0  0  0  0  0
   -2.3002    0.3632    1.0445 H   0  0  0  0  0  0  0  0  0  0  0  0
   -1.4081    1.9083    1.0122 H   0  0  0  0  0  0  0  0  0  0  0  0
   -1.4081   -1.3097   -3.0027 H   0  0  0  0  0  0  0  0  0  0  0  0
   -1.4081    0.5739   -3.1040 H   0  0  0  0  0  0  0  0  0  0  0  0
    0.7238   -0.3456    1.5587 C   0  0  0  0  0  0  0  0  0  0  0  0
    1.8685   -0.3081    0.8950 C   0  0  0  0  0  0  0  0  0  0  0  0
    3.2085   -0.6343    1.4715 C   0  0  0  0  0  0  0  0  0  0  0  0
    0.6855   -0.6272    2.6057 H   0  0  0  0  0  0  0  0  0  0  0  0
    1.8568   -0.0199   -0.1530 H   0  0  0  0  0  0  0  0  0  0  0  0
    3.6742   -1.4612    0.9292 H   0  0  0  0  0  0  0  0  0  0  0  0
    3.1329   -0.9126    2.5234 H   0  0  0  0  0  0  0  0  0  0  0  0
    3.8857    0.2197    1.3890 H   0  0  0  0  0  0  0  0  0  0  0  0
  1  2  1  0
  1  6  1  0
  1  7  1  0
  2  3  1  0
  3  4  2  3
  4  8  1  0
  4  9  1  0
  5 10  1  0
 10 11  2  3
 10 13  1  0
 11 12  1  0
 11 14  1  0
 12 15  1  0
 12 16  1  0
 12 17  1  0
M  RAD  1   1   2
M  END
>  <reaction>  (10) 
rmg_rxn_15622

>  <mol_properties>  (10) 
{"0": {"label": "*1", "atom_type": "Cs"}, "1": {"label": "*0", "atom_type": "O2s"}, "4": {"label": "*2", "atom_type": "H0"}, "9": {"label": "*3", "atom_type": "Cd"}, "10": {"label": "*4", "atom_type": "Cd"}}

>  <type>  (10) 
unop_6

>  <geom_source>  (10) 
Heuristics

$$$$

     RDKit          3D

 17 15  0  0  0  0  0  0  0  0999 V2000
   -1.1989    1.3617   -0.2729 C   0  0  0  0  0  3  0  0  0  0  0  0
   -1.7538    0.4958    0.6501 O   0  0  0  0  0  0  0  0  0  0  0  0
   -1.9501   -0.8097    0.3715 N   0  0  0  0  0  0  0  0  0  0  0  0
   -1.5432   -1.3471   -0.6972 C   0  0  0  0  0  0  0  0  0  0  0  0
    0.1355    1.1383   -0.3762 H   0  0  0  0  0  0  0  0  0  0  0  0
   -1.2971    2.3635    0.1286 H   0  0  0  0  0  0  0  0  0  0  0  0
   -1.5872    1.2593   -1.2859 H   0  0  0  0  0  0  0  0  0  0  0  0
   -1.7714   -2.3925   -0.8074 H   0  0  0  0  0  0  0  0  0  0  0  0
   -0.9810   -0.8659   -1.4932 H   0  0  0  0  0  0  0  0  0  0  0  0
    1.3814    0.8740   -0.4655 C   0  0  0  0  0  0  0  0  0  0  0  0
    1.8948   -0.1161    0.2238 C   0  0  0  0  0  0  0  0  0  0  0  0
    3.3388   -0.5232    0.2041 C   0  0  0  0  0  0  0  0  0  0  0  0
    1.9260    1.5199   -1.1326 H   0  0  0  0  0  0  0  0  0  0  0  0
    1.2658   -0.7135    0.8733 H   0  0  0  0  0  0  0  0  0  0  0  0
    3.4271   -1.5591   -0.1214 H   0  0  0  0  0  0  0  0  0  0  0  0
    3.7556   -0.4507    1.2078 H   0  0  0  0  0  0  0  0  0  0  0  0
    3.9148    0.1102   -0.4660 H   0  0  0  0  0  0  0  0  0  0  0  0
  1  2  1  0
  1  6  1  0
  1  7  1  0
  2  3  1  0
  3  4  2  3
  4  8  1  0
  4  9  1  0
  5 10  1  0
 10 11  2  3
 10 13  1  0
 11 12  1  0
 11 14  1  0
 12 15  1  0
 12 16  1  0
 12 17  1  0
M  RAD  1   1   2
M  END
>  <reaction>  (11) 
rmg_rxn_15622

>  <mol_properties>  (11) 
{"0": {"label": "*1", "atom_type": "Cs"}, "1": {"label": "*0", "atom_type": "O2s"}, "4": {"label": "*2", "atom_type": "H0"}, "9": {"label": "*3", "atom_type": "Cd"}, "10": {"label": "*4", "atom_type": "Cd"}}

>  <type>  (11) 
unop_7

>  <geom_source>  (11) 
Heuristics

$$$$

     RDKit          3D

 17 15  0  0  0  0  0  0  0  0999 V2000
   -1.1216    0.9031    0.1013 C   0  0  0  0  0  3  0  0  0  0  0  0
   -1.1216    0.9610   -1.3116 O   0  0  0  0  0  0  0  0  0  0  0  0
   -1.1216   -0.3129   -1.8273 N   0  0  0  0  0  0  0  0  0  0  0  0
   -1.1216   -0.3129   -3.0909 C   0  0  0  0  0  0  0  0  0  0  0  0
   -0.0510    0.2909    0.5454 H   0  0  0  0  0  0  0  0  0  0  0  0
   -2.0137    0.3929    0.4714 H   0  0  0  0  0  0  0  0  0  0  0  0
   -1.1216    1.9380    0.4391 H   0  0  0  0  0  0  0  0  0  0  0  0
   -1.1216   -1.2799   -3.5758 H   0  0  0  0  0  0  0  0  0  0  0  0
   -1.1216    0.6036   -3.6771 H   0  0  0  0  0  0  0  0  0  0  0  0
    1.0102   -0.3159    0.9856 C   0  0  0  0  0  0  0  0  0  0  0  0
    1.5437   -0.0145    2.1590 C   0  0  0  0  0  0  0  0  0  0  0  0
    2.1532   -0.9980    3.1053 C   0  0  0  0  0  0  0  0  0  0  0  0
    0.9810   -1.3380    0.6229 H   0  0  0  0  0  0  0  0  0  0  0  0
    1.5500    1.0240    2.4800 H   0  0  0  0  0  0  0  0  0  0  0  0
    3.2001   -0.7522    3.3008 H   0  0  0  0  0  0  0  0  0  0  0  0
    2.1068   -2.0134    2.7096 H   0  0  0  0  0  0  0  0  0  0  0  0
    1.6385   -0.9804    4.0694 H   0  0  0  0  0  0  0  0  0  0  0  0
  1  2  1  0
  1  6  1  0
  1  7  1  0
  2  3  1  0
  3  4  2  3
  4  8  1  0
  4  9  1  0
  5 10  1  0
 10 11  2  3
 10 13  1  0
 11 12  1  0
 11 14  1  0
 12 15  1  0
 12 16  1  0
 12 17  1  0
M  RAD  1   1   2
M  END
>  <reaction>  (12) 
rmg_rxn_15622

>  <mol_properties>  (12) 
{"0": {"label": "*1", "atom_type": "Cs"}, "1": {"label": "*0", "atom_type": "O2s"}, "4": {"label": "*2", "atom_type": "H0"}, "9": {"label": "*3", "atom_type": "Cd"}, "10": {"label": "*4", "atom_type": "Cd"}}

>  <type>  (12) 
unop_8

>  <geom_source>  (12) 
Heuristics

$$$$

     RDKit          3D

 17 15  0  0  0  0  0  0  0  0999 V2000
   -1.0616    1.3397    0.5340 C   0  0  0  0  0  3  0  0  0  0  0  0
   -1.0617    1.3976   -0.8788 O   0  0  0  0  0  0  0  0  0  0  0  0
   -1.0617    0.1237   -1.3946 N   0  0  0  0  0  0  0  0  0  0  0  0
   -1.0617    0.1237   -2.6582 C   0  0  0  0  0  0  0  0  0  0  0  0
    0.0090    0.7275    0.9782 H   0  0  0  0  0  0  0  0  0  0  0  0
   -1.9538    0.8295    0.9042 H   0  0  0  0  0  0  0  0  0  0  0  0
   -1.0617    2.3746    0.8719 H   0  0  0  0  0  0  0  0  0  0  0  0
   -1.0617   -0.8434   -3.1430 H   0  0  0  0  0  0  0  0  0  0  0  0
   -1.0617    1.0402   -3.2443 H   0  0  0  0  0  0  0  0  0  0  0  0
    1.0702    0.1207    1.4184 C   0  0  0  0  0  0  0  0  0  0  0  0
    1.3386   -1.1327    1.0878 C   0  0  0  0  0  0  0  0  0  0  0  0
    2.0389   -2.1222    1.9622 C   0  0  0  0  0  0  0  0  0  0  0  0
    1.3536    0.5243    2.3848 H   0  0  0  0  0  0  0  0  0  0  0  0
    1.0349   -1.4922    0.1079 H   0  0  0  0  0  0  0  0  0  0  0  0
    1.4063   -2.9942    2.1469 H   0  0  0  0  0  0  0  0  0  0  0  0
    2.3089   -1.6837    2.9237 H   0  0  0  0  0  0  0  0  0  0  0  0
    2.9504   -2.4883    1.4826 H   0  0  0  0  0  0  0  0  0  0  0  0
  1  2  1  0
  1  6  1  0
  1  7  1  0
  2  3  1  0
  3  4  2  3
  4  8  1  0
  4  9  1  0
  5 10  1  0
 10 11  2  3
 10 13  1  0
 11 12  1  0
 11 14  1  0
 12 15  1  0
 12 16  1  0
 12 17  1  0
M  RAD  1   1   2
M  END
>  <reaction>  (13) 
rmg_rxn_15622

>  <mol_properties>  (13) 
{"0": {"label": "*1", "atom_type": "Cs"}, "1": {"label": "*0", "atom_type": "O2s"}, "4": {"label": "*2", "atom_type": "H0"}, "9": {"label": "*3", "atom_type": "Cd"}, "10": {"label": "*4", "atom_type": "Cd"}}

>  <type>  (13) 
unop_9

>  <geom_source>  (13) 
Heuristics

$$$$

     RDKit          3D

 17 15  0  0  0  0  0  0  0  0999 V2000
   -0.8839    1.5590    0.2314 C   0  0  0  0  0  3  0  0  0  0  0  0
   -1.6544    0.5970   -0.3885 O   0  0  0  0  0  0  0  0  0  0  0  0
   -1.8568   -0.5169    0.3993 N   0  0  0  0  0  0  0  0  0  0  0  0
   -2.4934   -1.4653   -0.1416 C   0  0  0  0  0  0  0  0  0  0  0  0
    0.4273    1.2578    0.0472 H   0  0  0  0  0  0  0  0  0  0  0  0
   -1.0012    1.5858    1.3113 H   0  0  0  0  0  0  0  0  0  0  0  0
   -1.0502    2.5070   -0.2671 H   0  0  0  0  0  0  0  0  0  0  0  0
   -2.6643   -2.3349    0.4671 H   0  0  0  0  0  0  0  0  0  0  0  0
   -2.8712   -1.4479   -1.1593 H   0  0  0  0  0  0  0  0  0  0  0  0
    1.6460    0.9190   -0.1156 C   0  0  0  0  0  0  0  0  0  0  0  0
    2.0247   -0.3153    0.1134 C   0  0  0  0  0  0  0  0  0  0  0  0
    3.4248   -0.8322   -0.0477 C   0  0  0  0  0  0  0  0  0  0  0  0
    2.2907    1.7134   -0.4511 H   0  0  0  0  0  0  0  0  0  0  0  0
    1.3053   -1.0530    0.4480 H   0  0  0  0  0  0  0  0  0  0  0  0
    4.0955   -0.0451   -0.3834 H   0  0  0  0  0  0  0  0  0  0  0  0
    3.4391   -1.6441   -0.7739 H   0  0  0  0  0  0  0  0  0  0  0  0
    3.7862   -1.2255    0.9019 H   0  0  0  0  0  0  0  0  0  0  0  0
  1  2  1  0
  1  6  1  0
  1  7  1  0
  2  3  1  0
  3  4  2  3
  4  8  1  0
  4  9  1  0
  5 10  1  0
 10 11  2  3
 10 13  1  0
 11 12  1  0
 11 14  1  0
 12 15  1  0
 12 16  1  0
 12 17  1  0
M  RAD  1   1   2
M  END
>  <reaction>  (14) 
rmg_rxn_15622

>  <mol_properties>  (14) 
{"0": {"label": "*1", "atom_type": "Cs"}, "1": {"label": "*0", "atom_type": "O2s"}, "4": {"label": "*2", "atom_type": "H0"}, "9": {"label": "*3", "atom_type": "Cd"}, "10": {"label": "*4", "atom_type": "Cd"}}

>  <type>  (14) 
unop_10

>  <geom_source>  (14) 
Heuristics

$$$$

     RDKit          3D

 17 15  0  0  0  0  0  0  0  0999 V2000
   -1.1231    0.9883    0.1227 C   0  0  0  0  0  3  0  0  0  0  0  0
   -1.1231    1.0462   -1.2902 O   0  0  0  0  0  0  0  0  0  0  0  0
   -1.1231   -0.2277   -1.8059 N   0  0  0  0  0  0  0  0  0  0  0  0
   -1.1231   -0.2277   -3.0695 C   0  0  0  0  0  0  0  0  0  0  0  0
   -0.0525    0.3761    0.5668 H   0  0  0  0  0  0  0  0  0  0  0  0
   -2.0152    0.4781    0.4928 H   0  0  0  0  0  0  0  0  0  0  0  0
   -1.1231    2.0232    0.4605 H   0  0  0  0  0  0  0  0  0  0  0  0
   -1.1231   -1.1948   -3.5543 H   0  0  0  0  0  0  0  0  0  0  0  0
   -1.1231    0.6888   -3.6557 H   0  0  0  0  0  0  0  0  0  0  0  0
    1.0087   -0.2307    1.0071 C   0  0  0  0  0  0  0  0  0  0  0  0
    1.2215   -0.4019    2.3024 C   0  0  0  0  0  0  0  0  0  0  0  0
    2.4105   -1.0859    2.8961 C   0  0  0  0  0  0  0  0  0  0  0  0
    1.7135   -0.5913    0.2652 H   0  0  0  0  0  0  0  0  0  0  0  0
    0.4866   -0.0231    3.0081 H   0  0  0  0  0  0  0  0  0  0  0  0
    2.9554   -0.4111    3.5613 H   0  0  0  0  0  0  0  0  0  0  0  0
    3.0967   -1.4349    2.1235 H   0  0  0  0  0  0  0  0  0  0  0  0
    2.1043   -1.9451    3.4984 H   0  0  0  0  0  0  0  0  0  0  0  0
  1  2  1  0
  1  6  1  0
  1  7  1  0
  2  3  1  0
  3  4  2  3
  4  8  1  0
  4  9  1  0
  5 10  1  0
 10 11  2  3
 10 13  1  0
 11 12  1  0
 11 14  1  0
 12 15  1  0
 12 16  1  0
 12 17  1  0
M  RAD  1   1   2
M  END
>  <reaction>  (15) 
rmg_rxn_15622

>  <mol_properties>  (15) 
{"0": {"label": "*1", "atom_type": "Cs"}, "1": {"label": "*0", "atom_type": "O2s"}, "4": {"label": "*2", "atom_type": "H0"}, "9": {"label": "*3", "atom_type": "Cd"}, "10": {"label": "*4", "atom_type": "Cd"}}

>  <type>  (15) 
unop_11

>  <geom_source>  (15) 
Heuristics

$$$$

     RDKit          3D

 17 15  0  0  0  0  0  0  0  0999 V2000
   -1.1992    1.3623   -0.2715 C   0  0  0  0  0  3  0  0  0  0  0  0
   -1.7516    0.4949    0.6517 O   0  0  0  0  0  0  0  0  0  0  0  0
   -1.9478   -0.8103    0.3719 N   0  0  0  0  0  0  0  0  0  0  0  0
   -1.5438   -1.3459   -0.6989 C   0  0  0  0  0  0  0  0  0  0  0  0
    0.1348    1.1383   -0.3784 H   0  0  0  0  0  0  0  0  0  0  0  0
   -1.2960    2.3633    0.1321 H   0  0  0  0  0  0  0  0  0  0  0  0
   -1.5904    1.2617   -1.2835 H   0  0  0  0  0  0  0  0  0  0  0  0
   -1.7712   -2.3915   -0.8096 H   0  0  0  0  0  0  0  0  0  0  0  0
   -0.9842   -0.8634   -1.4959 H   0  0  0  0  0  0  0  0  0  0  0  0
    1.3801    0.8717   -0.4700 C   0  0  0  0  0  0  0  0  0  0  0  0
    1.8940   -0.1137    0.2254 C   0  0  0  0  0  0  0  0  0  0  0  0
    3.3372   -0.5234    0.2049 C   0  0  0  0  0  0  0  0  0  0  0  0
    1.9236    1.5118   -1.1436 H   0  0  0  0  0  0  0  0  0  0  0  0
    1.2658   -0.7052    0.8812 H   0  0  0  0  0  0  0  0  0  0  0  0
    3.9130    0.1059   -0.4696 H   0  0  0  0  0  0  0  0  0  0  0  0
    3.4232   -1.5611   -0.1158 H   0  0  0  0  0  0  0  0  0  0  0  0
    3.7562   -0.4465    1.2075 H   0  0  0  0  0  0  0  0  0  0  0  0
  1  2  1  0
  1  6  1  0
  1  7  1  0
  2  3  1  0
  3  4  2  3
  4  8  1  0
  4  9  1  0
  5 10  1  0
 10 11  2  3
 10 13  1  0
 11 12  1  0
 11 14  1  0
 12 15  1  0
 12 16  1  0
 12 17  1  0
M  RAD  1   1   2
M  END
>  <reaction>  (16) 
rmg_rxn_15622

>  <mol_properties>  (16) 
{"0": {"label": "*1", "atom_type": "Cs"}, "1": {"label": "*0", "atom_type": "O2s"}, "4": {"label": "*2", "atom_type": "H0"}, "9": {"label": "*3", "atom_type": "Cd"}, "10": {"label": "*4", "atom_type": "Cd"}}

>  <type>  (16) 
unop_12

>  <geom_source>  (16) 
Heuristics

$$$$

     RDKit          3D

 17 15  0  0  0  0  0  0  0  0999 V2000
   -0.9786    1.3076    0.3395 C   0  0  0  0  0  3  0  0  0  0  0  0
   -0.9786    1.3655   -1.0734 O   0  0  0  0  0  0  0  0  0  0  0  0
   -0.9786    0.0917   -1.5891 N   0  0  0  0  0  0  0  0  0  0  0  0
   -0.9786    0.0917   -2.8527 C   0  0  0  0  0  0  0  0  0  0  0  0
    0.0920    0.6954    0.7836 H   0  0  0  0  0  0  0  0  0  0  0  0
   -1.8707    0.7974    0.7096 H   0  0  0  0  0  0  0  0  0  0  0  0
   -0.9786    2.3425    0.6773 H   0  0  0  0  0  0  0  0  0  0  0  0
   -0.9786   -0.8754   -3.3375 H   0  0  0  0  0  0  0  0  0  0  0  0
   -0.9786    1.0081   -3.4389 H   0  0  0  0  0  0  0  0  0  0  0  0
    1.1532    0.0886    1.2239 C   0  0  0  0  0  0  0  0  0  0  0  0
    1.1719   -1.2207    1.4181 C   0  0  0  0  0  0  0  0  0  0  0  0
    1.7893   -1.9075    2.5934 C   0  0  0  0  0  0  0  0  0  0  0  0
    1.6035    0.7729    1.9353 H   0  0  0  0  0  0  0  0  0  0  0  0
    0.7076   -1.8665    0.6773 H   0  0  0  0  0  0  0  0  0  0  0  0
    1.0445   -2.4961    3.1352 H   0  0  0  0  0  0  0  0  0  0  0  0
    2.2316   -1.1911    3.2868 H   0  0  0  0  0  0  0  0  0  0  0  0
    2.5694   -2.6024    2.2722 H   0  0  0  0  0  0  0  0  0  0  0  0
  1  2  1  0
  1  6  1  0
  1  7  1  0
  2  3  1  0
  3  4  2  3
  4  8  1  0
  4  9  1  0
  5 10  1  0
 10 11  2  3
 10 13  1  0
 11 12  1  0
 11 14  1  0
 12 15  1  0
 12 16  1  0
 12 17  1  0
M  RAD  1   1   2
M  END
>  <reaction>  (17) 
rmg_rxn_15622

>  <mol_properties>  (17) 
{"0": {"label": "*1", "atom_type": "Cs"}, "1": {"label": "*0", "atom_type": "O2s"}, "4": {"label": "*2", "atom_type": "H0"}, "9": {"label": "*3", "atom_type": "Cd"}, "10": {"label": "*4", "atom_type": "Cd"}}

>  <type>  (17) 
unop_13

>  <geom_source>  (17) 
Heuristics

$$$$

     RDKit          3D

 17 15  0  0  0  0  0  0  0  0999 V2000
   -1.1987   -1.3621   -0.2717 C   0  0  0  0  0  3  0  0  0  0  0  0
   -1.7522   -0.4954    0.6515 O   0  0  0  0  0  0  0  0  0  0  0  0
   -1.9494    0.8097    0.3718 N   0  0  0  0  0  0  0  0  0  0  0  0
   -1.5451    1.3459   -0.6985 C   0  0  0  0  0  0  0  0  0  0  0  0
    0.1351   -1.1370   -0.3785 H   0  0  0  0  0  0  0  0  0  0  0  0
   -1.5897   -1.2616   -1.2838 H   0  0  0  0  0  0  0  0  0  0  0  0
   -1.2947   -2.3633    0.1316 H   0  0  0  0  0  0  0  0  0  0  0  0
   -1.7730    2.3913   -0.8091 H   0  0  0  0  0  0  0  0  0  0  0  0
   -0.9844    0.8640   -1.4951 H   0  0  0  0  0  0  0  0  0  0  0  0
    1.3803   -0.8701   -0.4707 C   0  0  0  0  0  0  0  0  0  0  0  0
    1.8954    0.1133    0.2267 C   0  0  0  0  0  0  0  0  0  0  0  0
    3.3386    0.5231    0.2045 C   0  0  0  0  0  0  0  0  0  0  0  0
    1.9228   -1.5084   -1.1467 H   0  0  0  0  0  0  0  0  0  0  0  0
    1.2683    0.7031    0.8850 H   0  0  0  0  0  0  0  0  0  0  0  0
    3.7587    0.4469    1.2065 H   0  0  0  0  0  0  0  0  0  0  0  0
    3.4240    1.5606   -0.1167 H   0  0  0  0  0  0  0  0  0  0  0  0
    3.9136   -0.1063   -0.4703 H   0  0  0  0  0  0  0  0  0  0  0  0
  1  2  1  0
  1  6  1  0
  1  7  1  0
  2  3  1  0
  3  4  2  3
  4  8  1  0
  4  9  1  0
  5 10  1  0
 10 11  2  3
 10 13  1  0
 11 12  1  0
 11 14  1  0
 12 15  1  0
 12 16  1  0
 12 17  1  0
M  RAD  1   1   2
M  END
>  <reaction>  (18) 
rmg_rxn_15622

>  <mol_properties>  (18) 
{"0": {"label": "*1", "atom_type": "Cs"}, "1": {"label": "*0", "atom_type": "O2s"}, "4": {"label": "*2", "atom_type": "H0"}, "9": {"label": "*3", "atom_type": "Cd"}, "10": {"label": "*4", "atom_type": "Cd"}}

>  <type>  (18) 
unop_14

>  <geom_source>  (18) 
Heuristics

$$$$

     RDKit          3D

 17 15  0  0  0  0  0  0  0  0999 V2000
   -0.9740    1.1825    0.1772 C   0  0  0  0  0  3  0  0  0  0  0  0
   -0.9741    1.2404   -1.2356 O   0  0  0  0  0  0  0  0  0  0  0  0
   -0.9741   -0.0335   -1.7514 N   0  0  0  0  0  0  0  0  0  0  0  0
   -0.9741   -0.0335   -3.0150 C   0  0  0  0  0  0  0  0  0  0  0  0
    0.0965    0.5703    0.6214 H   0  0  0  0  0  0  0  0  0  0  0  0
   -1.8662    0.6723    0.5474 H   0  0  0  0  0  0  0  0  0  0  0  0
   -0.9741    2.2174    0.5150 H   0  0  0  0  0  0  0  0  0  0  0  0
   -0.9741   -1.0005   -3.4998 H   0  0  0  0  0  0  0  0  0  0  0  0
   -0.9741    0.8830   -3.6012 H   0  0  0  0  0  0  0  0  0  0  0  0
    1.1577   -0.0365    1.0616 C   0  0  0  0  0  0  0  0  0  0  0  0
    1.0733   -1.1375    1.7916 C   0  0  0  0  0  0  0  0  0  0  0  0
    1.8453   -1.4009    3.0441 C   0  0  0  0  0  0  0  0  0  0  0  0
    1.8201    0.7769    1.3387 H   0  0  0  0  0  0  0  0  0  0  0  0
    0.3954   -1.9256    1.4738 H   0  0  0  0  0  0  0  0  0  0  0  0
    1.1714   -1.5731    3.8873 H   0  0  0  0  0  0  0  0  0  0  0  0
    2.4996   -0.5643    3.2925 H   0  0  0  0  0  0  0  0  0  0  0  0
    2.4592   -2.2993    2.9409 H   0  0  0  0  0  0  0  0  0  0  0  0
  1  2  1  0
  1  6  1  0
  1  7  1  0
  2  3  1  0
  3  4  2  3
  4  8  1  0
  4  9  1  0
  5 10  1  0
 10 11  2  3
 10 13  1  0
 11 12  1  0
 11 14  1  0
 12 15  1  0
 12 16  1  0
 12 17  1  0
M  RAD  1   1   2
M  END
>  <reaction>  (19) 
rmg_rxn_15622

>  <mol_properties>  (19) 
{"0": {"label": "*1", "atom_type": "Cs"}, "1": {"label": "*0", "atom_type": "O2s"}, "4": {"label": "*2", "atom_type": "H0"}, "9": {"label": "*3", "atom_type": "Cd"}, "10": {"label": "*4", "atom_type": "Cd"}}

>  <type>  (19) 
unop_15

>  <geom_source>  (19) 
Heuristics

$$$$

     RDKit          3D

 17 15  0  0  0  0  0  0  0  0999 V2000
   -1.1984    1.3629   -0.2696 C   0  0  0  0  0  3  0  0  0  0  0  0
   -1.7482    0.4945    0.6541 O   0  0  0  0  0  0  0  0  0  0  0  0
   -1.9468   -0.8101    0.3726 N   0  0  0  0  0  0  0  0  0  0  0  0
   -1.5479   -1.3439   -0.7009 C   0  0  0  0  0  0  0  0  0  0  0  0
    0.1347    1.1364   -0.3824 H   0  0  0  0  0  0  0  0  0  0  0  0
   -1.2917    2.3632    0.1366 H   0  0  0  0  0  0  0  0  0  0  0  0
   -1.5941    1.2652   -1.2801 H   0  0  0  0  0  0  0  0  0  0  0  0
   -1.7764   -2.3890   -0.8127 H   0  0  0  0  0  0  0  0  0  0  0  0
   -0.9914   -0.8602   -1.4994 H   0  0  0  0  0  0  0  0  0  0  0  0
    1.3790    0.8664   -0.4776 C   0  0  0  0  0  0  0  0  0  0  0  0
    1.8944   -0.1108    0.2283 C   0  0  0  0  0  0  0  0  0  0  0  0
    3.3367   -0.5236    0.2060 C   0  0  0  0  0  0  0  0  0  0  0  0
    1.9201    1.4964   -1.1625 H   0  0  0  0  0  0  0  0  0  0  0  0
    1.2684   -0.6919    0.8952 H   0  0  0  0  0  0  0  0  0  0  0  0
    3.9095    0.0925   -0.4828 H   0  0  0  0  0  0  0  0  0  0  0  0
    3.4189   -1.5668   -0.0967 H   0  0  0  0  0  0  0  0  0  0  0  0
    3.7620   -0.4299    1.2043 H   0  0  0  0  0  0  0  0  0  0  0  0
  1  2  1  0
  1  6  1  0
  1  7  1  0
  2  3  1  0
  3  4  2  3
  4  8  1  0
  4  9  1  0
  5 10  1  0
 10 11  2  3
 10 13  1  0
 11 12  1  0
 11 14  1  0
 12 15  1  0
 12 16  1  0
 12 17  1  0
M  RAD  1   1   2
M  END
>  <reaction>  (20) 
rmg_rxn_15622

>  <mol_properties>  (20) 
{"0": {"label": "*1", "atom_type": "Cs"}, "1": {"label": "*0", "atom_type": "O2s"}, "4": {"label": "*2", "atom_type": "H0"}, "9": {"label": "*3", "atom_type": "Cd"}, "10": {"label": "*4", "atom_type": "Cd"}}

>  <type>  (20) 
unop_16

>  <geom_source>  (20) 
Heuristics

$$$$

     RDKit          3D

 17 15  0  0  0  0  0  0  0  0999 V2000
   -1.3247    0.6838    0.3140 C   0  0  0  0  0  3  0  0  0  0  0  0
   -1.3247    0.7417   -1.0989 O   0  0  0  0  0  0  0  0  0  0  0  0
   -1.3247   -0.5321   -1.6147 N   0  0  0  0  0  0  0  0  0  0  0  0
   -1.3247   -0.5321   -2.8783 C   0  0  0  0  0  0  0  0  0  0  0  0
   -0.2541    0.0717    0.7581 H   0  0  0  0  0  0  0  0  0  0  0  0
   -2.2168    0.1736    0.6841 H   0  0  0  0  0  0  0  0  0  0  0  0
   -1.3247    1.7187    0.6518 H   0  0  0  0  0  0  0  0  0  0  0  0
   -1.3247   -1.4992   -3.3631 H   0  0  0  0  0  0  0  0  0  0  0  0
   -1.3247    0.3844   -3.4644 H   0  0  0  0  0  0  0  0  0  0  0  0
    0.8071   -0.5352    1.1983 C   0  0  0  0  0  0  0  0  0  0  0  0
    1.9197    0.1272    1.4734 C   0  0  0  0  0  0  0  0  0  0  0  0
    2.7880   -0.1073    2.6672 C   0  0  0  0  0  0  0  0  0  0  0  0
    0.4412   -1.3221    1.8494 H   0  0  0  0  0  0  0  0  0  0  0  0
    2.2467    0.9076    0.7910 H   0  0  0  0  0  0  0  0  0  0  0  0
    3.8014   -0.3818    2.3632 H   0  0  0  0  0  0  0  0  0  0  0  0
    2.3913   -0.9033    3.2986 H   0  0  0  0  0  0  0  0  0  0  0  0
    2.8734    0.8003    3.2703 H   0  0  0  0  0  0  0  0  0  0  0  0
  1  2  1  0
  1  6  1  0
  1  7  1  0
  2  3  1  0
  3  4  2  3
  4  8  1  0
  4  9  1  0
  5 10  1  0
 10 11  2  3
 10 13  1  0
 11 12  1  0
 11 14  1  0
 12 15  1  0
 12 16  1  0
 12 17  1  0
M  RAD  1   1   2
M  END
>  <reaction>  (21) 
rmg_rxn_15622

>  <mol_properties>  (21) 
{"0": {"label": "*1", "atom_type": "Cs"}, "1": {"label": "*0", "atom_type": "O2s"}, "4": {"label": "*2", "atom_type": "H0"}, "9": {"label": "*3", "atom_type": "Cd"}, "10": {"label": "*4", "atom_type": "Cd"}}

>  <type>  (21) 
unop_17

>  <geom_source>  (21) 
Heuristics

$$$$

     RDKit          3D

 17 15  0  0  0  0  0  0  0  0999 V2000
   -0.8846    1.5595   -0.2320 C   0  0  0  0  0  3  0  0  0  0  0  0
   -1.6558    0.5976    0.3873 O   0  0  0  0  0  0  0  0  0  0  0  0
   -1.8533   -0.5184   -0.3986 N   0  0  0  0  0  0  0  0  0  0  0  0
   -2.4910   -1.4664    0.1416 C   0  0  0  0  0  0  0  0  0  0  0  0
    0.4264    1.2587   -0.0463 H   0  0  0  0  0  0  0  0  0  0  0  0
   -1.0521    2.5076    0.2659 H   0  0  0  0  0  0  0  0  0  0  0  0
   -1.0005    1.5858   -1.3120 H   0  0  0  0  0  0  0  0  0  0  0  0
   -2.6572   -2.3381   -0.4653 H   0  0  0  0  0  0  0  0  0  0  0  0
   -2.8728   -1.4473    1.1579 H   0  0  0  0  0  0  0  0  0  0  0  0
    1.6450    0.9196    0.1168 C   0  0  0  0  0  0  0  0  0  0  0  0
    2.0233   -0.3147   -0.1128 C   0  0  0  0  0  0  0  0  0  0  0  0
    3.4234   -0.8319    0.0471 C   0  0  0  0  0  0  0  0  0  0  0  0
    2.2900    1.7138    0.4521 H   0  0  0  0  0  0  0  0  0  0  0  0
    1.3036   -1.0522   -0.4468 H   0  0  0  0  0  0  0  0  0  0  0  0
    4.0939   -0.0457    0.3850 H   0  0  0  0  0  0  0  0  0  0  0  0
    3.7849   -1.2223   -0.9036 H   0  0  0  0  0  0  0  0  0  0  0  0
    3.4378   -1.6459    0.7710 H   0  0  0  0  0  0  0  0  0  0  0  0
  1  2  1  0
  1  6  1  0
  1  7  1  0
  2  3  1  0
  3  4  2  3
  4  8  1  0
  4  9  1  0
  5 10  1  0
 10 11  2  3
 10 13  1  0
 11 12  1  0
 11 14  1  0
 12 15  1  0
 12 16  1  0
 12 17  1  0
M  RAD  1   1   2
M  END
>  <reaction>  (22) 
rmg_rxn_15622

>  <mol_properties>  (22) 
{"0": {"label": "*1", "atom_type": "Cs"}, "1": {"label": "*0", "atom_type": "O2s"}, "4": {"label": "*2", "atom_type": "H0"}, "9": {"label": "*3", "atom_type": "Cd"}, "10": {"label": "*4", "atom_type": "Cd"}}

>  <type>  (22) 
unop_18

>  <geom_source>  (22) 
Heuristics

$$$$

     RDKit          3D

 17 15  0  0  0  0  0  0  0  0999 V2000
   -1.1959    1.2558    0.6900 C   0  0  0  0  0  3  0  0  0  0  0  0
   -1.1959    1.3137   -0.7229 O   0  0  0  0  0  0  0  0  0  0  0  0
   -1.1959    0.0398   -1.2386 N   0  0  0  0  0  0  0  0  0  0  0  0
   -1.1959    0.0398   -2.5022 C   0  0  0  0  0  0  0  0  0  0  0  0
   -0.1253    0.6436    1.1341 H   0  0  0  0  0  0  0  0  0  0  0  0
   -2.0880    0.7456    1.0601 H   0  0  0  0  0  0  0  0  0  0  0  0
   -1.1959    2.2907    1.0278 H   0  0  0  0  0  0  0  0  0  0  0  0
   -1.1959   -0.9273   -2.9870 H   0  0  0  0  0  0  0  0  0  0  0  0
   -1.1959    0.9563   -3.0884 H   0  0  0  0  0  0  0  0  0  0  0  0
    0.9359    0.0368    1.5744 C   0  0  0  0  0  0  0  0  0  0  0  0
    1.5337   -0.9115    0.8703 C   0  0  0  0  0  0  0  0  0  0  0  0
    2.5001   -1.9110    1.4191 C   0  0  0  0  0  0  0  0  0  0  0  0
    1.1179    0.1521    2.6377 H   0  0  0  0  0  0  0  0  0  0  0  0
    1.3197   -0.9880   -0.1927 H   0  0  0  0  0  0  0  0  0  0  0  0
    2.1382   -2.9300    1.2599 H   0  0  0  0  0  0  0  0  0  0  0  0
    2.6594   -1.7661    2.4884 H   0  0  0  0  0  0  0  0  0  0  0  0
    3.4664   -1.8357    0.9138 H   0  0  0  0  0  0  0  0  0  0  0  0
  1  2  1  0
  1  6  1  0
  1  7  1  0
  2  3  1  0
  3  4  2  3
  4  8  1  0
  4  9  1  0
  5 10  1  0
 10 11  2  3
 10 13  1  0
 11 12  1  0
 11 14  1  0
 12 15  1  0
 12 16  1  0
 12 17  1  0
M  RAD  1   1   2
M  END
>  <reaction>  (23) 
rmg_rxn_15622

>  <mol_properties>  (23) 
{"0": {"label": "*1", "atom_type": "Cs"}, "1": {"label": "*0", "atom_type": "O2s"}, "4": {"label": "*2", "atom_type": "H0"}, "9": {"label": "*3", "atom_type": "Cd"}, "10": {"label": "*4", "atom_type": "Cd"}}

>  <type>  (23) 
unop_19

>  <geom_source>  (23) 
Heuristics

$$$$

     RDKit          3D

 17 15  0  0  0  0  0  0  0  0999 V2000
   -1.4026    0.7251    0.5089 C   0  0  0  0  0  3  0  0  0  0  0  0
   -1.4026    0.7831   -0.9040 O   0  0  0  0  0  0  0  0  0  0  0  0
   -1.4026   -0.4908   -1.4198 N   0  0  0  0  0  0  0  0  0  0  0  0
   -1.4026   -0.4908   -2.6834 C   0  0  0  0  0  0  0  0  0  0  0  0
   -0.3320    0.1130    0.9530 H   0  0  0  0  0  0  0  0  0  0  0  0
   -2.2947    0.2149    0.8790 H   0  0  0  0  0  0  0  0  0  0  0  0
   -1.4026    1.7600    0.8467 H   0  0  0  0  0  0  0  0  0  0  0  0
   -1.4026   -1.4579   -3.1682 H   0  0  0  0  0  0  0  0  0  0  0  0
   -1.4026    0.4257   -3.2695 H   0  0  0  0  0  0  0  0  0  0  0  0
    0.7292   -0.4939    1.3932 C   0  0  0  0  0  0  0  0  0  0  0  0
    1.9450   -0.0397    1.1325 C   0  0  0  0  0  0  0  0  0  0  0  0
    3.1242   -0.1661    2.0423 C   0  0  0  0  0  0  0  0  0  0  0  0
    0.5039   -1.0074    2.3220 H   0  0  0  0  0  0  0  0  0  0  0  0
    2.1227    0.4685    0.1883 H   0  0  0  0  0  0  0  0  0  0  0  0
    3.9340   -0.7154    1.5553 H   0  0  0  0  0  0  0  0  0  0  0  0
    2.8623   -0.6863    2.9645 H   0  0  0  0  0  0  0  0  0  0  0  0
    3.5215    0.8182    2.3031 H   0  0  0  0  0  0  0  0  0  0  0  0
  1  2  1  0
  1  6  1  0
  1  7  1  0
  2  3  1  0
  3  4  2  3
  4  8  1  0
  4  9  1  0
  5 10  1  0
 10 11  2  3
 10 13  1  0
 11 12  1  0
 11 14  1  0
 12 15  1  0
 12 16  1  0
 12 17  1  0
M  RAD  1   1   2
M  END
>  <reaction>  (24) 
rmg_rxn_15622

>  <mol_properties>  (24) 
{"0": {"label": "*1", "atom_type": "Cs"}, "1": {"label": "*0", "atom_type": "O2s"}, "4": {"label": "*2", "atom_type": "H0"}, "9": {"label": "*3", "atom_type": "Cd"}, "10": {"label": "*4", "atom_type": "Cd"}}

>  <type>  (24) 
unop_20

>  <geom_source>  (24) 
Heuristics

$$$$

     RDKit          3D

 17 15  0  0  0  0  0  0  0  0999 V2000
   -1.0494    1.0332    0.1066 C   0  0  0  0  0  3  0  0  0  0  0  0
   -1.0494    1.0912   -1.3063 O   0  0  0  0  0  0  0  0  0  0  0  0
   -1.0494   -0.1827   -1.8220 N   0  0  0  0  0  0  0  0  0  0  0  0
   -1.0494   -0.1827   -3.0856 C   0  0  0  0  0  0  0  0  0  0  0  0
    0.0212    0.4211    0.5507 H   0  0  0  0  0  0  0  0  0  0  0  0
   -1.9415    0.5230    0.4767 H   0  0  0  0  0  0  0  0  0  0  0  0
   -1.0494    2.0681    0.4444 H   0  0  0  0  0  0  0  0  0  0  0  0
   -1.0494   -1.1498   -3.5704 H   0  0  0  0  0  0  0  0  0  0  0  0
   -1.0494    0.7338   -3.6718 H   0  0  0  0  0  0  0  0  0  0  0  0
    1.0824   -0.1858    0.9910 C   0  0  0  0  0  0  0  0  0  0  0  0
    1.0690   -0.8702    2.1240 C   0  0  0  0  0  0  0  0  0  0  0  0
    2.1925   -0.9273    3.1082 C   0  0  0  0  0  0  0  0  0  0  0  0
    1.9456    0.4007    0.6941 H   0  0  0  0  0  0  0  0  0  0  0  0
    0.1812   -1.4432    2.3789 H   0  0  0  0  0  0  0  0  0  0  0  0
    1.8713   -0.5608    4.0866 H   0  0  0  0  0  0  0  0  0  0  0  0
    3.0420   -0.3278    2.7787 H   0  0  0  0  0  0  0  0  0  0  0  0
    2.5321   -1.9563    3.2514 H   0  0  0  0  0  0  0  0  0  0  0  0
  1  2  1  0
  1  6  1  0
  1  7  1  0
  2  3  1  0
  3  4  2  3
  4  8  1  0
  4  9  1  0
  5 10  1  0
 10 11  2  3
 10 13  1  0
 11 12  1  0
 11 14  1  0
 12 15  1  0
 12 16  1  0
 12 17  1  0
M  RAD  1   1   2
M  END
>  <reaction>  (25) 
rmg_rxn_15622

>  <mol_properties>  (25) 
{"0": {"label": "*1", "atom_type": "Cs"}, "1": {"label": "*0", "atom_type": "O2s"}, "4": {"label": "*2", "atom_type": "H0"}, "9": {"label": "*3", "atom_type": "Cd"}, "10": {"label": "*4", "atom_type": "Cd"}}

>  <type>  (25) 
unop_21

>  <geom_source>  (25) 
Heuristics

$$$$

     RDKit          3D

 17 15  0  0  0  0  0  0  0  0999 V2000
   -1.3301    1.0776    0.7449 C   0  0  0  0  0  3  0  0  0  0  0  0
   -1.3301    1.1355   -0.6679 O   0  0  0  0  0  0  0  0  0  0  0  0
   -1.3301   -0.1383   -1.1837 N   0  0  0  0  0  0  0  0  0  0  0  0
   -1.3301   -0.1383   -2.4473 C   0  0  0  0  0  0  0  0  0  0  0  0
   -0.2595    0.4654    1.1891 H   0  0  0  0  0  0  0  0  0  0  0  0
   -2.2222    0.5674    1.1151 H   0  0  0  0  0  0  0  0  0  0  0  0
   -1.3301    2.1125    1.0827 H   0  0  0  0  0  0  0  0  0  0  0  0
   -1.3301   -1.1054   -2.9321 H   0  0  0  0  0  0  0  0  0  0  0  0
   -1.3301    0.7781   -3.0334 H   0  0  0  0  0  0  0  0  0  0  0  0
    0.8017   -0.1414    1.6293 C   0  0  0  0  0  0  0  0  0  0  0  0
    1.7202   -0.6171    0.8033 C   0  0  0  0  0  0  0  0  0  0  0  0
    2.9680   -1.3265    1.2205 C   0  0  0  0  0  0  0  0  0  0  0  0
    0.9017   -0.2409    2.7050 H   0  0  0  0  0  0  0  0  0  0  0  0
    1.5763   -0.4934   -0.2670 H   0  0  0  0  0  0  0  0  0  0  0  0
    3.0034   -2.3332    0.7961 H   0  0  0  0  0  0  0  0  0  0  0  0
    3.0360   -1.4087    2.3059 H   0  0  0  0  0  0  0  0  0  0  0  0
    3.8545   -0.7992    0.8589 H   0  0  0  0  0  0  0  0  0  0  0  0
  1  2  1  0
  1  6  1  0
  1  7  1  0
  2  3  1  0
  3  4  2  3
  4  8  1  0
  4  9  1  0
  5 10  1  0
 10 11  2  3
 10 13  1  0
 11 12  1  0
 11 14  1  0
 12 15  1  0
 12 16  1  0
 12 17  1  0
M  RAD  1   1   2
M  END
>  <reaction>  (26) 
rmg_rxn_15622

>  <mol_properties>  (26) 
{"0": {"label": "*1", "atom_type": "Cs"}, "1": {"label": "*0", "atom_type": "O2s"}, "4": {"label": "*2", "atom_type": "H0"}, "9": {"label": "*3", "atom_type": "Cd"}, "10": {"label": "*4", "atom_type": "Cd"}}

>  <type>  (26) 
unop_22

>  <geom_source>  (26) 
Heuristics

$$$$

     RDKit          3D

 17 15  0  0  0  0  0  0  0  0999 V2000
   -1.1977    1.3618    0.2724 C   0  0  0  0  0  3  0  0  0  0  0  0
   -1.7529    0.4965   -0.6509 O   0  0  0  0  0  0  0  0  0  0  0  0
   -1.9518   -0.8086   -0.3720 N   0  0  0  0  0  0  0  0  0  0  0  0
   -1.5473   -1.3461    0.6976 C   0  0  0  0  0  0  0  0  0  0  0  0
    0.1362    1.1363    0.3774 H   0  0  0  0  0  0  0  0  0  0  0  0
   -1.5873    1.2605    1.2850 H   0  0  0  0  0  0  0  0  0  0  0  0
   -1.2937    2.3635   -0.1297 H   0  0  0  0  0  0  0  0  0  0  0  0
   -1.7772   -2.3911    0.8078 H   0  0  0  0  0  0  0  0  0  0  0  0
   -0.9852   -0.8657    1.4940 H   0  0  0  0  0  0  0  0  0  0  0  0
    1.3816    0.8703    0.4689 C   0  0  0  0  0  0  0  0  0  0  0  0
    1.8965   -0.1155   -0.2253 C   0  0  0  0  0  0  0  0  0  0  0  0
    3.3403   -0.5232   -0.2043 C   0  0  0  0  0  0  0  0  0  0  0  0
    1.9247    1.5117    1.1415 H   0  0  0  0  0  0  0  0  0  0  0  0
    1.2691   -0.7082   -0.8805 H   0  0  0  0  0  0  0  0  0  0  0  0
    3.4273   -1.5627    0.1096 H   0  0  0  0  0  0  0  0  0  0  0  0
    3.9137    0.1025    0.4752 H   0  0  0  0  0  0  0  0  0  0  0  0
    3.7613   -0.4391   -1.2054 H   0  0  0  0  0  0  0  0  0  0  0  0
  1  2  1  0
  1  6  1  0
  1  7  1  0
  2  3  1  0
  3  4  2  3
  4  8  1  0
  4  9  1  0
  5 10  1  0
 10 11  2  3
 10 13  1  0
 11 12  1  0
 11 14  1  0
 12 15  1  0
 12 16  1  0
 12 17  1  0
M  RAD  1   1   2
M  END
>  <reaction>  (27) 
rmg_rxn_15622

>  <mol_properties>  (27) 
{"0": {"label": "*1", "atom_type": "Cs"}, "1": {"label": "*0", "atom_type": "O2s"}, "4": {"label": "*2", "atom_type": "H0"}, "9": {"label": "*3", "atom_type": "Cd"}, "10": {"label": "*4", "atom_type": "Cd"}}

>  <type>  (27) 
unop_23

>  <geom_source>  (27) 
Heuristics

$$$$

     RDKit          3D

 17 15  0  0  0  0  0  0  0  0999 V2000
    1.5628   -0.5382    0.4163 O   0  0  0  0  0  0  0  0  0  0  0  0
    2.2711   -0.5874   -0.7733 N   0  0  0  0  0  0  0  0  0  0  0  0
   -2.9779   -0.7233   -0.4452 C   0  0  0  0  0  0  0  0  0  0  0  0
   -1.7211    0.0821   -0.3310 C   0  0  0  0  0  0  0  0  0  0  0  0
   -0.8978   -0.0660    0.7087 C   0  0  0  0  0  0  0  0  0  0  0  0
    1.5086    0.6181    1.2449 C   0  0  0  0  0  3  0  0  0  0  0  0
    2.9154    0.4162   -1.2845 C   0  0  0  0  0  0  0  0  0  0  0  0
   -3.5149   -0.4488   -1.3772 H   0  0  0  0  0  0  0  0  0  0  0  0
   -2.7329   -1.8060   -0.4775 H   0  0  0  0  0  0  0  0  0  0  0  0
   -3.6391   -0.5196    0.4235 H   0  0  0  0  0  0  0  0  0  0  0  0
   -1.4741    0.7998   -1.1072 H   0  0  0  0  0  0  0  0  0  0  0  0
   -1.1193   -0.7762    1.4998 H   0  0  0  0  0  0  0  0  0  0  0  0
    0.1327    0.6106    0.7792 H   0  0  0  0  0  0  0  0  0  0  0  0
    0.7935    0.4428    2.0745 H   0  0  0  0  0  0  0  0  0  0  0  0
    2.5137    0.8220    1.6703 H   0  0  0  0  0  0  0  0  0  0  0  0
    3.4439    0.2898   -2.2193 H   0  0  0  0  0  0  0  0  0  0  0  0
    2.9356    1.3841   -0.8020 H   0  0  0  0  0  0  0  0  0  0  0  0
  1  6  1  0
  1  2  1  0
  2  7  2  3
  3  4  1  0
  3  8  1  0
  3  9  1  0
  3 10  1  0
  4  5  2  3
  4 11  1  0
  5 12  1  0
  5 13  1  0
  6 14  1  0
  6 15  1  0
  7 16  1  0
  7 17  1  0
M  RAD  1   6   2
M  END
>  <reaction>  (28) 
rmg_rxn_15622

>  <mol_properties>  (28) 
{"0": {"label": "*1", "atom_type": "Cs"}, "1": {"label": "*0", "atom_type": "O2s"}, "4": {"label": "*2", "atom_type": "H0"}, "9": {"label": "*3", "atom_type": "Cd"}, "10": {"label": "*4", "atom_type": "Cd"}}

>  <type>  (28) 
unop_24

>  <geom_source>  (28) 
AutoTST

$$$$

     RDKit          3D

 17 15  0  0  0  0  0  0  0  0999 V2000
   -1.4080    0.8734    0.6744 C   0  0  0  0  0  3  0  0  0  0  0  0
   -1.4081    0.9313   -0.7385 O   0  0  0  0  0  0  0  0  0  0  0  0
   -1.4081   -0.3426   -1.2543 N   0  0  0  0  0  0  0  0  0  0  0  0
   -1.4081   -0.3426   -2.5179 C   0  0  0  0  0  0  0  0  0  0  0  0
   -0.3374    0.2612    1.1185 H   0  0  0  0  0  0  0  0  0  0  0  0
   -2.3002    0.3632    1.0445 H   0  0  0  0  0  0  0  0  0  0  0  0
   -1.4081    1.9083    1.0122 H   0  0  0  0  0  0  0  0  0  0  0  0
   -1.4081   -1.3097   -3.0027 H   0  0  0  0  0  0  0  0  0  0  0  0
   -1.4081    0.5739   -3.1040 H   0  0  0  0  0  0  0  0  0  0  0  0
    0.7238   -0.3456    1.5587 C   0  0  0  0  0  0  0  0  0  0  0  0
    1.8685   -0.3081    0.8950 C   0  0  0  0  0  0  0  0  0  0  0  0
    3.2085   -0.6343    1.4714 C   0  0  0  0  0  0  0  0  0  0  0  0
    0.6855   -0.6272    2.6058 H   0  0  0  0  0  0  0  0  0  0  0  0
    1.8568   -0.0199   -0.1530 H   0  0  0  0  0  0  0  0  0  0  0  0
    3.6742   -1.4612    0.9292 H   0  0  0  0  0  0  0  0  0  0  0  0
    3.1329   -0.9126    2.5234 H   0  0  0  0  0  0  0  0  0  0  0  0
    3.8857    0.2197    1.3890 H   0  0  0  0  0  0  0  0  0  0  0  0
  1  2  1  0
  1  6  1  0
  1  7  1  0
  2  3  1  0
  3  4  2  3
  4  8  1  0
  4  9  1  0
  5 10  1  0
 10 11  2  3
 10 13  1  0
 11 12  1  0
 11 14  1  0
 12 15  1  0
 12 16  1  0
 12 17  1  0
M  RAD  1   1   2
M  END
>  <reaction>  (29) 
rmg_rxn_15622

>  <mol_properties>  (29) 
{"0": {"label": "*1", "atom_type": "Cs"}, "1": {"label": "*0", "atom_type": "O2s"}, "4": {"label": "*2", "atom_type": "H0"}, "9": {"label": "*3", "atom_type": "Cd"}, "10": {"label": "*4", "atom_type": "Cd"}}

>  <type>  (29) 
unop_25

>  <geom_source>  (29) 
gaussian_log

$$$$
