
     RDKit          3D

  7  6  0  0  0  0  0  0  0  0999 V2000
   -0.8548    0.0121    0.2120 C   0  0  0  0  0  0  0  0  0  0  0  0
    0.1921   -0.9637    0.4698 N   0  0  0  0  0  0  0  0  0  0  0  0
    0.8785   -1.2092   -0.5201 N   0  0  0  0  0  0  0  0  0  0  0  0
   -1.8110   -0.4522    0.4600 H   0  0  0  0  0  0  0  0  0  0  0  0
   -0.7101    0.8457    0.9015 H   0  0  0  0  0  0  0  0  0  0  0  0
   -0.8478    0.3585   -0.8239 H   0  0  0  0  0  0  0  0  0  0  0  0
    1.5811   -1.9033   -0.2318 H   0  0  0  0  0  0  0  0  0  0  0  0
  1  2  1  0
  1  4  1  0
  1  5  1  0
  1  6  1  0
  2  3  2  3
  3  7  1  0
M  END
>  <reaction>  (1) 
rmg_rxn_15664

>  <mol_properties>  (1) 
{"2": {"label": "donator", "atom_type": "N3d"}, "6": {"label": "d_hydrogen", "atom_type": "H0"}}

>  <type>  (1) 
r1h

$$$$

     RDKit          3D

  8  7  0  0  0  0  0  0  0  0999 V2000
    1.7077   -0.1964   -0.0607 C   0  0  0  0  0  3  0  0  0  0  0  0
    0.4209   -0.4565    0.2808 O   0  0  0  0  0  0  0  0  0  0  0  0
   -0.4607    0.4385   -0.2968 N   0  0  0  0  0  0  0  0  0  0  0  0
   -1.6584    0.1416   -0.0244 C   0  0  0  0  0  0  0  0  0  0  0  0
    2.4163   -0.7685    0.5170 H   0  0  0  0  0  0  0  0  0  0  0  0
    1.9214    0.7645   -0.5045 H   0  0  0  0  0  0  0  0  0  0  0  0
   -2.4185    0.7953   -0.4307 H   0  0  0  0  0  0  0  0  0  0  0  0
   -1.9286   -0.7185    0.5831 H   0  0  0  0  0  0  0  0  0  0  0  0
  1  2  1  0
  1  5  1  0
  1  6  1  0
  2  3  1  0
  3  4  2  3
  4  7  1  0
  4  8  1  0
M  RAD  1   1   2
M  END
>  <reaction>  (2) 
rmg_rxn_15664

>  <mol_properties>  (2) 
{"0": {"label": "acceptor", "atom_type": "Cs"}}

>  <type>  (2) 
r2

$$$$

     RDKit          3D

  9  8  0  0  0  0  0  0  0  0999 V2000
   -1.5470   -0.0755   -0.1976 C   0  0  0  0  0  0  0  0  0  0  0  0
   -0.2885    0.4507    0.1749 O   0  0  0  0  0  0  0  0  0  0  0  0
   -0.1502    1.7216   -0.3294 N   0  0  0  0  0  0  0  0  0  0  0  0
    0.9626    2.2353   -0.0219 C   0  0  0  0  0  0  0  0  0  0  0  0
   -1.6392   -0.1356   -1.2844 H   0  0  0  0  0  0  0  0  0  0  0  0
   -2.3597    0.5337    0.2044 H   0  0  0  0  0  0  0  0  0  0  0  0
   -1.5879   -1.0750    0.2318 H   0  0  0  0  0  0  0  0  0  0  0  0
    1.1497    3.2381   -0.3820 H   0  0  0  0  0  0  0  0  0  0  0  0
    1.7060    1.7101    0.5739 H   0  0  0  0  0  0  0  0  0  0  0  0
  1  2  1  0
  1  5  1  0
  1  6  1  0
  1  7  1  0
  2  3  1  0
  3  4  2  3
  4  8  1  0
  4  9  1  0
M  END
>  <reaction>  (3) 
rmg_rxn_15664

>  <mol_properties>  (3) 
{"0": {"label": "a_hydrogen", "atom_type": "H0"}, "1": {"label": "acceptor", "atom_type": "Cs"}}

>  <type>  (3) 
r2h

$$$$

     RDKit          3D

 15 13  0  0  0  0  0  0  0  0999 V2000
    0.5255   -0.9095   -3.4642 C   0  0  0  0  0  0  0  0  0  0  0  0
    0.4433   -1.0187   -2.0068 N   0  0  0  0  0  0  0  0  0  0  0  0
   -0.5423   -0.5148   -1.5158 N   0  0  0  0  0  0  0  0  0  0  0  0
    1.4549   -0.3914   -3.7041 H   0  0  0  0  0  0  0  0  0  0  0  0
    0.5947   -1.9203   -3.8683 H   0  0  0  0  0  0  0  0  0  0  0  0
   -0.3330   -0.3812   -3.8841 H   0  0  0  0  0  0  0  0  0  0  0  0
   -0.4580   -0.6865   -0.3598 H   0  0  0  0  0  0  0  0  0  0  0  0
   -0.1319   -0.9920    1.0734 C   0  0  0  0  0  3  0  0  0  0  0  0
   -0.5707    0.0365    1.8724 O   0  0  0  0  0  0  0  0  0  0  0  0
    0.2971    1.1109    1.8280 N   0  0  0  0  0  0  0  0  0  0  0  0
   -0.1509    2.0920    2.4860 C   0  0  0  0  0  0  0  0  0  0  0  0
    0.9502   -1.0868    1.0103 H   0  0  0  0  0  0  0  0  0  0  0  0
   -0.6949   -1.8913    1.3026 H   0  0  0  0  0  0  0  0  0  0  0  0
    0.4720    2.9760    2.5149 H   0  0  0  0  0  0  0  0  0  0  0  0
   -1.1079    2.0667    3.0015 H   0  0  0  0  0  0  0  0  0  0  0  0
  1  2  1  0
  1  4  1  0
  1  5  1  0
  1  6  1  0
  2  3  2  3
  3  7  1  0
  8  9  1  0
  8 12  1  0
  8 13  1  0
  9 10  1  0
 10 11  2  3
 11 14  1  0
 11 15  1  0
M  RAD  1   8   2
M  END
>  <reaction>  (4) 
rmg_rxn_15664

>  <mol_properties>  (4) 
{"1": {"label": "*0", "atom_type": "N3d"}, "2": {"label": "*1", "atom_type": "N3d"}, "6": {"label": "*2", "atom_type": "H0"}, "7": {"label": "*3", "atom_type": "Cs"}, "8": {"label": "*4", "atom_type": "O2s"}}

>  <type>  (4) 
ts

$$$$

     RDKit          3D

 15 13  0  0  0  0  0  0  0  0999 V2000
   -2.0577   -0.2244    1.0966 C   0  0  0  0  0  0  0  0  0  0  0  0
   -1.9176   -0.4238   -0.3127 N   0  0  0  0  0  0  0  0  0  0  0  0
   -1.3706    0.2437   -1.1204 N   0  0  0  0  0  2  0  0  0  0  0  0
   -1.6174   -1.0912    1.5912 H   0  0  0  0  0  0  0  0  0  0  0  0
   -1.5750    0.6914    1.4515 H   0  0  0  0  0  0  0  0  0  0  0  0
   -3.1237   -0.2080    1.3221 H   0  0  0  0  0  0  0  0  0  0  0  0
   -0.3169    0.9405   -0.7723 H   0  0  0  0  0  0  0  0  0  0  0  0
    0.7774    1.4149   -0.3563 C   0  0  0  0  0  0  0  0  0  0  0  0
    1.2687    0.6417    0.7073 O   0  0  0  0  0  0  0  0  0  0  0  0
    1.6687   -0.6328    0.5041 N   0  0  0  0  0  0  0  0  0  0  0  0
    1.5985   -1.1981   -0.6200 C   0  0  0  0  0  0  0  0  0  0  0  0
    0.5875    2.4011    0.0554 H   0  0  0  0  0  0  0  0  0  0  0  0
    1.4585    1.4565   -1.2075 H   0  0  0  0  0  0  0  0  0  0  0  0
    1.9484   -2.2154   -0.6494 H   0  0  0  0  0  0  0  0  0  0  0  0
    1.2120   -0.7717   -1.5419 H   0  0  0  0  0  0  0  0  0  0  0  0
  1  2  1  0
  1  4  1  0
  1  5  1  0
  1  6  1  0
  2  3  2  0
  7  8  1  0
  8  9  1  0
  8 12  1  0
  8 13  1  0
  9 10  1  0
 10 11  2  3
 11 14  1  0
 11 15  1  0
M  RAD  1   3   2
M  END
>  <reaction>  (5) 
rmg_rxn_15664

>  <mol_properties>  (5) 
{"1": {"label": "*0", "atom_type": "N3d"}, "2": {"label": "*1", "atom_type": "N3d"}, "6": {"label": "*2", "atom_type": "H0"}, "7": {"label": "*3", "atom_type": "Cs"}, "8": {"label": "*4", "atom_type": "O2s"}}

>  <type>  (5) 
unop_1

>  <geom_source>  (5) 
crest_best.xyz

$$$$

     RDKit          3D

 15 13  0  0  0  0  0  0  0  0999 V2000
   -0.5779   -1.1837   -3.6174 C   0  0  0  0  0  0  0  0  0  0  0  0
   -0.5779   -1.1837   -2.1632 N   0  0  0  0  0  0  0  0  0  0  0  0
   -0.5779   -0.0534   -1.6798 N   0  0  0  0  0  0  0  0  0  0  0  0
    0.3012   -1.7384   -3.9503 H   0  0  0  0  0  0  0  0  0  0  0  0
   -1.4570   -1.7384   -3.9503 H   0  0  0  0  0  0  0  0  0  0  0  0
   -0.5779   -0.1717   -4.0285 H   0  0  0  0  0  0  0  0  0  0  0  0
   -0.5779   -0.1884   -0.4526 H   0  0  0  0  0  0  0  0  0  0  0  0
   -0.5779   -0.3312    0.8459 C   0  0  0  0  0  3  0  0  0  0  0  0
    0.6009    0.3033    1.3014 O   0  0  0  0  0  0  0  0  0  0  0  0
    0.3511    0.9459    2.4903 N   0  0  0  0  0  0  0  0  0  0  0  0
    1.3781    1.5299    2.9386 C   0  0  0  0  0  0  0  0  0  0  0  0
   -0.9215   -1.0791    1.5641 H   0  0  0  0  0  0  0  0  0  0  0  0
   -1.3717    0.3984    0.6709 H   0  0  0  0  0  0  0  0  0  0  0  0
    1.2644    2.0609    3.8742 H   0  0  0  0  0  0  0  0  0  0  0  0
    2.3358    1.5099    2.4228 H   0  0  0  0  0  0  0  0  0  0  0  0
  1  2  1  0
  1  4  1  0
  1  5  1  0
  1  6  1  0
  2  3  2  3
  3  7  1  0
  8  9  1  0
  8 12  1  0
  8 13  1  0
  9 10  1  0
 10 11  2  3
 11 14  1  0
 11 15  1  0
M  RAD  1   8   2
M  END
>  <reaction>  (6) 
rmg_rxn_15664

>  <mol_properties>  (6) 
{"1": {"label": "*0", "atom_type": "N3d"}, "2": {"label": "*1", "atom_type": "N3d"}, "6": {"label": "*2", "atom_type": "H0"}, "7": {"label": "*3", "atom_type": "Cs"}, "8": {"label": "*4", "atom_type": "O2s"}}

>  <type>  (6) 
unop_2

>  <geom_source>  (6) 
Heuristics

$$$$

     RDKit          3D

 15 13  0  0  0  0  0  0  0  0999 V2000
   -2.0573   -0.2178    1.0976 C   0  0  0  0  0  0  0  0  0  0  0  0
   -1.9175   -0.4265   -0.3104 N   0  0  0  0  0  0  0  0  0  0  0  0
   -1.3703    0.2355   -1.1225 N   0  0  0  0  0  2  0  0  0  0  0  0
   -1.5733    0.6995    1.4467 H   0  0  0  0  0  0  0  0  0  0  0  0
   -3.1234   -0.1982    1.3229 H   0  0  0  0  0  0  0  0  0  0  0  0
   -1.6184   -1.0821    1.5979 H   0  0  0  0  0  0  0  0  0  0  0  0
   -0.3173    0.9352   -0.7782 H   0  0  0  0  0  0  0  0  0  0  0  0
    0.7761    1.4131   -0.3634 C   0  0  0  0  0  0  0  0  0  0  0  0
    1.2671    0.6455    0.7044 O   0  0  0  0  0  0  0  0  0  0  0  0
    1.6686   -0.6295    0.5077 N   0  0  0  0  0  0  0  0  0  0  0  0
    1.6008   -1.2000   -0.6139 C   0  0  0  0  0  0  0  0  0  0  0  0
    0.5844    2.4010    0.0435 H   0  0  0  0  0  0  0  0  0  0  0  0
    1.4580    1.4517   -1.2141 H   0  0  0  0  0  0  0  0  0  0  0  0
    1.9522   -2.2169   -0.6382 H   0  0  0  0  0  0  0  0  0  0  0  0
    1.2157   -0.7781   -1.5384 H   0  0  0  0  0  0  0  0  0  0  0  0
  1  2  1  0
  1  4  1  0
  1  5  1  0
  1  6  1  0
  2  3  2  0
  7  8  1  0
  8  9  1  0
  8 12  1  0
  8 13  1  0
  9 10  1  0
 10 11  2  3
 11 14  1  0
 11 15  1  0
M  RAD  1   3   2
M  END
>  <reaction>  (7) 
rmg_rxn_15664

>  <mol_properties>  (7) 
{"1": {"label": "*0", "atom_type": "N3d"}, "2": {"label": "*1", "atom_type": "N3d"}, "6": {"label": "*2", "atom_type": "H0"}, "7": {"label": "*3", "atom_type": "Cs"}, "8": {"label": "*4", "atom_type": "O2s"}}

>  <type>  (7) 
unop_3

>  <geom_source>  (7) 
Heuristics

$$$$

     RDKit          3D

 15 13  0  0  0  0  0  0  0  0999 V2000
   -0.4941    0.0308   -3.5404 C   0  0  0  0  0  0  0  0  0  0  0  0
   -0.4941    0.0308   -2.0861 N   0  0  0  0  0  0  0  0  0  0  0  0
   -0.4941    1.1612   -1.6028 N   0  0  0  0  0  0  0  0  0  0  0  0
    0.3850   -0.5238   -3.8733 H   0  0  0  0  0  0  0  0  0  0  0  0
   -1.3733   -0.5238   -3.8733 H   0  0  0  0  0  0  0  0  0  0  0  0
   -0.4941    1.0429   -3.9515 H   0  0  0  0  0  0  0  0  0  0  0  0
   -0.4941    1.0262   -0.3755 H   0  0  0  0  0  0  0  0  0  0  0  0
   -0.4941    0.8833    0.9230 C   0  0  0  0  0  3  0  0  0  0  0  0
    0.1864   -0.3303    1.1752 O   0  0  0  0  0  0  0  0  0  0  0  0
    0.5990   -0.3663    2.4856 N   0  0  0  0  0  0  0  0  0  0  0  0
    1.2142   -1.4354    2.7599 C   0  0  0  0  0  0  0  0  0  0  0  0
   -1.3807    0.9727    1.5549 H   0  0  0  0  0  0  0  0  0  0  0  0
    0.1613    1.7409    1.0904 H   0  0  0  0  0  0  0  0  0  0  0  0
    1.5729   -1.5416    3.7749 H   0  0  0  0  0  0  0  0  0  0  0  0
    1.3834   -2.2193    2.0248 H   0  0  0  0  0  0  0  0  0  0  0  0
  1  2  1  0
  1  4  1  0
  1  5  1  0
  1  6  1  0
  2  3  2  3
  3  7  1  0
  8  9  1  0
  8 12  1  0
  8 13  1  0
  9 10  1  0
 10 11  2  3
 11 14  1  0
 11 15  1  0
M  RAD  1   8   2
M  END
>  <reaction>  (8) 
rmg_rxn_15664

>  <mol_properties>  (8) 
{"1": {"label": "*0", "atom_type": "N3d"}, "2": {"label": "*1", "atom_type": "N3d"}, "6": {"label": "*2", "atom_type": "H0"}, "7": {"label": "*3", "atom_type": "Cs"}, "8": {"label": "*4", "atom_type": "O2s"}}

>  <type>  (8) 
unop_4

>  <geom_source>  (8) 
Heuristics

$$$$

     RDKit          3D

 15 13  0  0  0  0  0  0  0  0999 V2000
   -2.0556   -0.2279    1.0969 C   0  0  0  0  0  0  0  0  0  0  0  0
   -1.9187   -0.4228   -0.3134 N   0  0  0  0  0  0  0  0  0  0  0  0
   -1.3718    0.2464   -1.1197 N   0  0  0  0  0  2  0  0  0  0  0  0
   -3.1212   -0.2079    1.3242 H   0  0  0  0  0  0  0  0  0  0  0  0
   -1.6181   -1.0982    1.5877 H   0  0  0  0  0  0  0  0  0  0  0  0
   -1.5687    0.6847    1.4542 H   0  0  0  0  0  0  0  0  0  0  0  0
   -0.3177    0.9418   -0.7702 H   0  0  0  0  0  0  0  0  0  0  0  0
    0.7767    1.4156   -0.3534 C   0  0  0  0  0  0  0  0  0  0  0  0
    1.2686    0.6402    0.7084 O   0  0  0  0  0  0  0  0  0  0  0  0
    1.6690   -0.6336    0.5023 N   0  0  0  0  0  0  0  0  0  0  0  0
    1.5989   -1.1965   -0.6229 C   0  0  0  0  0  0  0  0  0  0  0  0
    0.5866    2.4009    0.0605 H   0  0  0  0  0  0  0  0  0  0  0  0
    1.4576    1.4593   -1.2047 H   0  0  0  0  0  0  0  0  0  0  0  0
    1.9502   -2.2132   -0.6548 H   0  0  0  0  0  0  0  0  0  0  0  0
    1.2125   -0.7681   -1.5440 H   0  0  0  0  0  0  0  0  0  0  0  0
  1  2  1  0
  1  4  1  0
  1  5  1  0
  1  6  1  0
  2  3  2  0
  7  8  1  0
  8  9  1  0
  8 12  1  0
  8 13  1  0
  9 10  1  0
 10 11  2  3
 11 14  1  0
 11 15  1  0
M  RAD  1   3   2
M  END
>  <reaction>  (9) 
rmg_rxn_15664

>  <mol_properties>  (9) 
{"1": {"label": "*0", "atom_type": "N3d"}, "2": {"label": "*1", "atom_type": "N3d"}, "6": {"label": "*2", "atom_type": "H0"}, "7": {"label": "*3", "atom_type": "Cs"}, "8": {"label": "*4", "atom_type": "O2s"}}

>  <type>  (9) 
unop_5

>  <geom_source>  (9) 
Heuristics

$$$$

     RDKit          3D

 15 13  0  0  0  0  0  0  0  0999 V2000
   -0.2521   -1.3461   -3.6738 C   0  0  0  0  0  0  0  0  0  0  0  0
   -0.2521   -1.3461   -2.2196 N   0  0  0  0  0  0  0  0  0  0  0  0
   -0.2521   -0.2158   -1.7362 N   0  0  0  0  0  0  0  0  0  0  0  0
    0.6270   -1.9008   -4.0068 H   0  0  0  0  0  0  0  0  0  0  0  0
   -1.1313   -1.9008   -4.0068 H   0  0  0  0  0  0  0  0  0  0  0  0
   -0.2521   -0.3341   -4.0849 H   0  0  0  0  0  0  0  0  0  0  0  0
   -0.2521   -0.3508   -0.5090 H   0  0  0  0  0  0  0  0  0  0  0  0
   -0.2521   -0.4936    0.7895 C   0  0  0  0  0  3  0  0  0  0  0  0
    0.4284    0.6361    1.2995 O   0  0  0  0  0  0  0  0  0  0  0  0
    0.0015    0.8950    2.5799 N   0  0  0  0  0  0  0  0  0  0  0  0
    0.5832    1.8993    3.0798 C   0  0  0  0  0  0  0  0  0  0  0  0
   -0.0476   -1.3793    1.3952 H   0  0  0  0  0  0  0  0  0  0  0  0
   -1.3295   -0.3172    0.7532 H   0  0  0  0  0  0  0  0  0  0  0  0
    0.3021    2.1699    4.0888 H   0  0  0  0  0  0  0  0  0  0  0  0
    1.3309    2.4738    2.5372 H   0  0  0  0  0  0  0  0  0  0  0  0
  1  2  1  0
  1  4  1  0
  1  5  1  0
  1  6  1  0
  2  3  2  3
  3  7  1  0
  8  9  1  0
  8 12  1  0
  8 13  1  0
  9 10  1  0
 10 11  2  3
 11 14  1  0
 11 15  1  0
M  RAD  1   8   2
M  END
>  <reaction>  (10) 
rmg_rxn_15664

>  <mol_properties>  (10) 
{"1": {"label": "*0", "atom_type": "N3d"}, "2": {"label": "*1", "atom_type": "N3d"}, "6": {"label": "*2", "atom_type": "H0"}, "7": {"label": "*3", "atom_type": "Cs"}, "8": {"label": "*4", "atom_type": "O2s"}}

>  <type>  (10) 
unop_6

>  <geom_source>  (10) 
Heuristics

$$$$

     RDKit          3D

 15 13  0  0  0  0  0  0  0  0999 V2000
    0.7853   -0.3636   -3.5480 C   0  0  0  0  0  0  0  0  0  0  0  0
    0.7853   -0.3636   -2.0938 N   0  0  0  0  0  0  0  0  0  0  0  0
    0.7853    0.7667   -1.6104 N   0  0  0  0  0  0  0  0  0  0  0  0
    1.6644   -0.9183   -3.8809 H   0  0  0  0  0  0  0  0  0  0  0  0
   -0.0939   -0.9183   -3.8809 H   0  0  0  0  0  0  0  0  0  0  0  0
    0.7853    0.6484   -3.9591 H   0  0  0  0  0  0  0  0  0  0  0  0
    0.7853    0.6317   -0.3832 H   0  0  0  0  0  0  0  0  0  0  0  0
    0.7853    0.4889    0.9153 C   0  0  0  0  0  3  0  0  0  0  0  0
   -0.3935   -0.2295    1.2220 O   0  0  0  0  0  0  0  0  0  0  0  0
   -0.8631    0.1557    2.4548 N   0  0  0  0  0  0  0  0  0  0  0  0
   -1.9189   -0.4609    2.7739 C   0  0  0  0  0  0  0  0  0  0  0  0
    0.5896    1.5629    0.8775 H   0  0  0  0  0  0  0  0  0  0  0  0
    1.5684    0.2862    1.6494 H   0  0  0  0  0  0  0  0  0  0  0  0
   -2.3534   -0.2140    3.7333 H   0  0  0  0  0  0  0  0  0  0  0  0
   -2.3808   -1.2051    2.1287 H   0  0  0  0  0  0  0  0  0  0  0  0
  1  2  1  0
  1  4  1  0
  1  5  1  0
  1  6  1  0
  2  3  2  3
  3  7  1  0
  8  9  1  0
  8 12  1  0
  8 13  1  0
  9 10  1  0
 10 11  2  3
 11 14  1  0
 11 15  1  0
M  RAD  1   8   2
M  END
>  <reaction>  (11) 
rmg_rxn_15664

>  <mol_properties>  (11) 
{"1": {"label": "*0", "atom_type": "N3d"}, "2": {"label": "*1", "atom_type": "N3d"}, "6": {"label": "*2", "atom_type": "H0"}, "7": {"label": "*3", "atom_type": "Cs"}, "8": {"label": "*4", "atom_type": "O2s"}}

>  <type>  (11) 
unop_7

>  <geom_source>  (11) 
Heuristics

$$$$

     RDKit          3D

 15 13  0  0  0  0  0  0  0  0999 V2000
   -1.6053    1.4356    0.2706 C   0  0  0  0  0  0  0  0  0  0  0  0
   -2.3248    0.2467   -0.0684 N   0  0  0  0  0  0  0  0  0  0  0  0
   -1.9206   -0.7944   -0.4535 N   0  0  0  0  0  2  0  0  0  0  0  0
   -2.0018    1.7997    1.2186 H   0  0  0  0  0  0  0  0  0  0  0  0
   -0.5210    1.2734    0.3380 H   0  0  0  0  0  0  0  0  0  0  0  0
   -1.8254    2.1798   -0.4957 H   0  0  0  0  0  0  0  0  0  0  0  0
   -0.7305   -1.1918   -0.0859 H   0  0  0  0  0  0  0  0  0  0  0  0
    0.3680   -1.5541    0.4286 C   0  0  0  0  0  0  0  0  0  0  0  0
    1.4368   -0.8714   -0.1643 O   0  0  0  0  0  0  0  0  0  0  0  0
    1.4752    0.4568    0.2027 N   0  0  0  0  0  0  0  0  0  0  0  0
    2.4357    1.1348   -0.2579 C   0  0  0  0  0  0  0  0  0  0  0  0
    0.5016   -2.6036    0.1891 H   0  0  0  0  0  0  0  0  0  0  0  0
    0.3059   -1.3791    1.5027 H   0  0  0  0  0  0  0  0  0  0  0  0
    2.4698    2.1730    0.0214 H   0  0  0  0  0  0  0  0  0  0  0  0
    3.2104    0.7336   -0.9028 H   0  0  0  0  0  0  0  0  0  0  0  0
  1  2  1  0
  1  4  1  0
  1  5  1  0
  1  6  1  0
  2  3  2  0
  7  8  1  0
  8  9  1  0
  8 12  1  0
  8 13  1  0
  9 10  1  0
 10 11  2  3
 11 14  1  0
 11 15  1  0
M  RAD  1   3   2
M  END
>  <reaction>  (12) 
rmg_rxn_15664

>  <mol_properties>  (12) 
{"1": {"label": "*0", "atom_type": "N3d"}, "2": {"label": "*1", "atom_type": "N3d"}, "6": {"label": "*2", "atom_type": "H0"}, "7": {"label": "*3", "atom_type": "Cs"}, "8": {"label": "*4", "atom_type": "O2s"}}

>  <type>  (12) 
unop_8

>  <geom_source>  (12) 
Heuristics

$$$$

     RDKit          3D

 15 13  0  0  0  0  0  0  0  0999 V2000
   -0.0000   -1.3554   -3.7116 C   0  0  0  0  0  0  0  0  0  0  0  0
   -0.0000   -1.3554   -2.2574 N   0  0  0  0  0  0  0  0  0  0  0  0
   -0.0000   -0.2251   -1.7740 N   0  0  0  0  0  0  0  0  0  0  0  0
    0.8791   -1.9101   -4.0445 H   0  0  0  0  0  0  0  0  0  0  0  0
   -0.8791   -1.9101   -4.0445 H   0  0  0  0  0  0  0  0  0  0  0  0
   -0.0000   -0.3434   -4.1227 H   0  0  0  0  0  0  0  0  0  0  0  0
   -0.0000   -0.3601   -0.5467 H   0  0  0  0  0  0  0  0  0  0  0  0
   -0.0000   -0.5029    0.7518 C   0  0  0  0  0  3  0  0  0  0  0  0
   -0.0000    0.8081    1.2817 O   0  0  0  0  0  0  0  0  0  0  0  0
    0.0000    0.7526    2.6549 N   0  0  0  0  0  0  0  0  0  0  0  0
    0.0000    1.9037    3.1760 C   0  0  0  0  0  0  0  0  0  0  0  0
    0.8921   -1.0505    1.0639 H   0  0  0  0  0  0  0  0  0  0  0  0
   -0.8921   -1.0505    1.0639 H   0  0  0  0  0  0  0  0  0  0  0  0
    0.0000    1.9466    4.2569 H   0  0  0  0  0  0  0  0  0  0  0  0
   -0.0000    2.8157    2.5828 H   0  0  0  0  0  0  0  0  0  0  0  0
  1  2  1  0
  1  4  1  0
  1  5  1  0
  1  6  1  0
  2  3  2  3
  3  7  1  0
  8  9  1  0
  8 12  1  0
  8 13  1  0
  9 10  1  0
 10 11  2  3
 11 14  1  0
 11 15  1  0
M  RAD  1   8   2
M  END
>  <reaction>  (13) 
rmg_rxn_15664

>  <mol_properties>  (13) 
{"1": {"label": "*0", "atom_type": "N3d"}, "2": {"label": "*1", "atom_type": "N3d"}, "6": {"label": "*2", "atom_type": "H0"}, "7": {"label": "*3", "atom_type": "Cs"}, "8": {"label": "*4", "atom_type": "O2s"}}

>  <type>  (13) 
unop_9

>  <geom_source>  (13) 
Heuristics

$$$$

     RDKit          3D

 15 13  0  0  0  0  0  0  0  0999 V2000
   -1.6066   -1.4351    0.2720 C   0  0  0  0  0  0  0  0  0  0  0  0
   -2.3248   -0.2459   -0.0690 N   0  0  0  0  0  0  0  0  0  0  0  0
   -1.9195    0.7945   -0.4550 N   0  0  0  0  0  2  0  0  0  0  0  0
   -0.5219   -1.2748    0.3359 H   0  0  0  0  0  0  0  0  0  0  0  0
   -2.0012   -1.7950    1.2223 H   0  0  0  0  0  0  0  0  0  0  0  0
   -1.8307   -2.1814   -0.4911 H   0  0  0  0  0  0  0  0  0  0  0  0
   -0.7296    1.1919   -0.0863 H   0  0  0  0  0  0  0  0  0  0  0  0
    0.3684    1.5538    0.4293 C   0  0  0  0  0  0  0  0  0  0  0  0
    1.4375    0.8714   -0.1633 O   0  0  0  0  0  0  0  0  0  0  0  0
    1.4749   -0.4573    0.2022 N   0  0  0  0  0  0  0  0  0  0  0  0
    2.4351   -1.1354   -0.2587 C   0  0  0  0  0  0  0  0  0  0  0  0
    0.3055    1.3783    1.5032 H   0  0  0  0  0  0  0  0  0  0  0  0
    0.5024    2.6035    0.1905 H   0  0  0  0  0  0  0  0  0  0  0  0
    2.4684   -2.1740    0.0193 H   0  0  0  0  0  0  0  0  0  0  0  0
    3.2105   -0.7339   -0.9026 H   0  0  0  0  0  0  0  0  0  0  0  0
  1  2  1  0
  1  4  1  0
  1  5  1  0
  1  6  1  0
  2  3  2  0
  7  8  1  0
  8  9  1  0
  8 12  1  0
  8 13  1  0
  9 10  1  0
 10 11  2  3
 11 14  1  0
 11 15  1  0
M  RAD  1   3   2
M  END
>  <reaction>  (14) 
rmg_rxn_15664

>  <mol_properties>  (14) 
{"1": {"label": "*0", "atom_type": "N3d"}, "2": {"label": "*1", "atom_type": "N3d"}, "6": {"label": "*2", "atom_type": "H0"}, "7": {"label": "*3", "atom_type": "Cs"}, "8": {"label": "*4", "atom_type": "O2s"}}

>  <type>  (14) 
unop_10

>  <geom_source>  (14) 
Heuristics

$$$$

     RDKit          3D

 15 13  0  0  0  0  0  0  0  0999 V2000
    0.7998   -0.8216   -3.5743 C   0  0  0  0  0  0  0  0  0  0  0  0
    0.7998   -0.8216   -2.1201 N   0  0  0  0  0  0  0  0  0  0  0  0
    0.7998    0.3087   -1.6367 N   0  0  0  0  0  0  0  0  0  0  0  0
    1.6789   -1.3763   -3.9073 H   0  0  0  0  0  0  0  0  0  0  0  0
   -0.0793   -1.3763   -3.9073 H   0  0  0  0  0  0  0  0  0  0  0  0
    0.7998    0.1904   -3.9854 H   0  0  0  0  0  0  0  0  0  0  0  0
    0.7998    0.1737   -0.4095 H   0  0  0  0  0  0  0  0  0  0  0  0
    0.7998    0.0309    0.8890 C   0  0  0  0  0  3  0  0  0  0  0  0
   -0.5613   -0.0110    1.2701 O   0  0  0  0  0  0  0  0  0  0  0  0
   -0.7326    0.6692    2.4519 N   0  0  0  0  0  0  0  0  0  0  0  0
   -1.9369    0.6595    2.8344 C   0  0  0  0  0  0  0  0  0  0  0  0
    1.1302    1.0602    0.7328 H   0  0  0  0  0  0  0  0  0  0  0  0
    1.4313   -0.4448    1.6427 H   0  0  0  0  0  0  0  0  0  0  0  0
   -2.1558    1.1752    3.7598 H   0  0  0  0  0  0  0  0  0  0  0  0
   -2.7259    0.1628    2.2739 H   0  0  0  0  0  0  0  0  0  0  0  0
  1  2  1  0
  1  4  1  0
  1  5  1  0
  1  6  1  0
  2  3  2  3
  3  7  1  0
  8  9  1  0
  8 12  1  0
  8 13  1  0
  9 10  1  0
 10 11  2  3
 11 14  1  0
 11 15  1  0
M  RAD  1   8   2
M  END
>  <reaction>  (15) 
rmg_rxn_15664

>  <mol_properties>  (15) 
{"1": {"label": "*0", "atom_type": "N3d"}, "2": {"label": "*1", "atom_type": "N3d"}, "6": {"label": "*2", "atom_type": "H0"}, "7": {"label": "*3", "atom_type": "Cs"}, "8": {"label": "*4", "atom_type": "O2s"}}

>  <type>  (15) 
unop_11

>  <geom_source>  (15) 
Heuristics

$$$$

     RDKit          3D

 15 13  0  0  0  0  0  0  0  0999 V2000
   -2.0584    0.2193    1.0974 C   0  0  0  0  0  0  0  0  0  0  0  0
   -1.9184    0.4262   -0.3109 N   0  0  0  0  0  0  0  0  0  0  0  0
   -1.3709   -0.2367   -1.1220 N   0  0  0  0  0  2  0  0  0  0  0  0
   -3.1245    0.1983    1.3224 H   0  0  0  0  0  0  0  0  0  0  0  0
   -1.5730   -0.6968    1.4480 H   0  0  0  0  0  0  0  0  0  0  0  0
   -1.6211    1.0850    1.5965 H   0  0  0  0  0  0  0  0  0  0  0  0
   -0.3177   -0.9356   -0.7769 H   0  0  0  0  0  0  0  0  0  0  0  0
    0.7759   -1.4131   -0.3622 C   0  0  0  0  0  0  0  0  0  0  0  0
    1.2676   -0.6450    0.7049 O   0  0  0  0  0  0  0  0  0  0  0  0
    1.6701    0.6295    0.5070 N   0  0  0  0  0  0  0  0  0  0  0  0
    1.6018    1.1994   -0.6148 C   0  0  0  0  0  0  0  0  0  0  0  0
    1.4573   -1.4522   -1.2132 H   0  0  0  0  0  0  0  0  0  0  0  0
    0.5843   -2.4008    0.0453 H   0  0  0  0  0  0  0  0  0  0  0  0
    1.9543    2.2159   -0.6400 H   0  0  0  0  0  0  0  0  0  0  0  0
    1.2156    0.7773   -1.5388 H   0  0  0  0  0  0  0  0  0  0  0  0
  1  2  1  0
  1  4  1  0
  1  5  1  0
  1  6  1  0
  2  3  2  0
  7  8  1  0
  8  9  1  0
  8 12  1  0
  8 13  1  0
  9 10  1  0
 10 11  2  3
 11 14  1  0
 11 15  1  0
M  RAD  1   3   2
M  END
>  <reaction>  (16) 
rmg_rxn_15664

>  <mol_properties>  (16) 
{"1": {"label": "*0", "atom_type": "N3d"}, "2": {"label": "*1", "atom_type": "N3d"}, "6": {"label": "*2", "atom_type": "H0"}, "7": {"label": "*3", "atom_type": "Cs"}, "8": {"label": "*4", "atom_type": "O2s"}}

>  <type>  (16) 
unop_12

>  <geom_source>  (16) 
Heuristics

$$$$

     RDKit          3D

 15 13  0  0  0  0  0  0  0  0999 V2000
    0.5779   -1.1837   -3.6174 C   0  0  0  0  0  0  0  0  0  0  0  0
    0.5779   -1.1837   -2.1632 N   0  0  0  0  0  0  0  0  0  0  0  0
    0.5779   -0.0534   -1.6798 N   0  0  0  0  0  0  0  0  0  0  0  0
    1.4570   -1.7384   -3.9503 H   0  0  0  0  0  0  0  0  0  0  0  0
   -0.3012   -1.7384   -3.9503 H   0  0  0  0  0  0  0  0  0  0  0  0
    0.5779   -0.1717   -4.0285 H   0  0  0  0  0  0  0  0  0  0  0  0
    0.5779   -0.1884   -0.4526 H   0  0  0  0  0  0  0  0  0  0  0  0
    0.5779   -0.3312    0.8460 C   0  0  0  0  0  3  0  0  0  0  0  0
   -0.6009    0.3033    1.3014 O   0  0  0  0  0  0  0  0  0  0  0  0
   -0.3511    0.9460    2.4903 N   0  0  0  0  0  0  0  0  0  0  0  0
   -1.3781    1.5299    2.9386 C   0  0  0  0  0  0  0  0  0  0  0  0
    1.3717    0.3984    0.6709 H   0  0  0  0  0  0  0  0  0  0  0  0
    0.9215   -1.0791    1.5641 H   0  0  0  0  0  0  0  0  0  0  0  0
   -1.2644    2.0609    3.8742 H   0  0  0  0  0  0  0  0  0  0  0  0
   -2.3358    1.5099    2.4228 H   0  0  0  0  0  0  0  0  0  0  0  0
  1  2  1  0
  1  4  1  0
  1  5  1  0
  1  6  1  0
  2  3  2  3
  3  7  1  0
  8  9  1  0
  8 12  1  0
  8 13  1  0
  9 10  1  0
 10 11  2  3
 11 14  1  0
 11 15  1  0
M  RAD  1   8   2
M  END
>  <reaction>  (17) 
rmg_rxn_15664

>  <mol_properties>  (17) 
{"1": {"label": "*0", "atom_type": "N3d"}, "2": {"label": "*1", "atom_type": "N3d"}, "6": {"label": "*2", "atom_type": "H0"}, "7": {"label": "*3", "atom_type": "Cs"}, "8": {"label": "*4", "atom_type": "O2s"}}

>  <type>  (17) 
unop_13

>  <geom_source>  (17) 
Heuristics

$$$$

     RDKit          3D

 15 13  0  0  0  0  0  0  0  0999 V2000
   -1.6052   -1.4355   -0.2709 C   0  0  0  0  0  0  0  0  0  0  0  0
   -2.3248   -0.2468    0.0687 N   0  0  0  0  0  0  0  0  0  0  0  0
   -1.9206    0.7943    0.4538 N   0  0  0  0  0  2  0  0  0  0  0  0
   -0.5206   -1.2740   -0.3349 H   0  0  0  0  0  0  0  0  0  0  0  0
   -1.8284   -2.1814    0.4928 H   0  0  0  0  0  0  0  0  0  0  0  0
   -1.9991   -1.7969   -1.2211 H   0  0  0  0  0  0  0  0  0  0  0  0
   -0.7306    1.1918    0.0859 H   0  0  0  0  0  0  0  0  0  0  0  0
    0.3678    1.5539   -0.4289 C   0  0  0  0  0  0  0  0  0  0  0  0
    1.4366    0.8715    0.1643 O   0  0  0  0  0  0  0  0  0  0  0  0
    1.4755   -0.4567   -0.2029 N   0  0  0  0  0  0  0  0  0  0  0  0
    2.4356   -1.1347    0.2583 C   0  0  0  0  0  0  0  0  0  0  0  0
    0.5016    2.6035   -0.1899 H   0  0  0  0  0  0  0  0  0  0  0  0
    0.3057    1.3784   -1.5029 H   0  0  0  0  0  0  0  0  0  0  0  0
    2.4699   -2.1729   -0.0211 H   0  0  0  0  0  0  0  0  0  0  0  0
    3.2101   -0.7335    0.9036 H   0  0  0  0  0  0  0  0  0  0  0  0
  1  2  1  0
  1  4  1  0
  1  5  1  0
  1  6  1  0
  2  3  2  0
  7  8  1  0
  8  9  1  0
  8 12  1  0
  8 13  1  0
  9 10  1  0
 10 11  2  3
 11 14  1  0
 11 15  1  0
M  RAD  1   3   2
M  END
>  <reaction>  (18) 
rmg_rxn_15664

>  <mol_properties>  (18) 
{"1": {"label": "*0", "atom_type": "N3d"}, "2": {"label": "*1", "atom_type": "N3d"}, "6": {"label": "*2", "atom_type": "H0"}, "7": {"label": "*3", "atom_type": "Cs"}, "8": {"label": "*4", "atom_type": "O2s"}}

>  <type>  (18) 
unop_14

>  <geom_source>  (18) 
Heuristics

$$$$

     RDKit          3D

 15 13  0  0  0  0  0  0  0  0999 V2000
   -0.7998   -0.8216   -3.5744 C   0  0  0  0  0  0  0  0  0  0  0  0
   -0.7998   -0.8216   -2.1201 N   0  0  0  0  0  0  0  0  0  0  0  0
   -0.7998    0.3087   -1.6368 N   0  0  0  0  0  0  0  0  0  0  0  0
    0.0793   -1.3763   -3.9073 H   0  0  0  0  0  0  0  0  0  0  0  0
   -1.6789   -1.3763   -3.9073 H   0  0  0  0  0  0  0  0  0  0  0  0
   -0.7998    0.1904   -3.9854 H   0  0  0  0  0  0  0  0  0  0  0  0
   -0.7998    0.1737   -0.4095 H   0  0  0  0  0  0  0  0  0  0  0  0
   -0.7998    0.0309    0.8890 C   0  0  0  0  0  3  0  0  0  0  0  0
    0.5613   -0.0110    1.2701 O   0  0  0  0  0  0  0  0  0  0  0  0
    0.7326    0.6692    2.4519 N   0  0  0  0  0  0  0  0  0  0  0  0
    1.9368    0.6595    2.8344 C   0  0  0  0  0  0  0  0  0  0  0  0
   -1.4313   -0.4448    1.6427 H   0  0  0  0  0  0  0  0  0  0  0  0
   -1.1302    1.0602    0.7328 H   0  0  0  0  0  0  0  0  0  0  0  0
    2.1558    1.1752    3.7599 H   0  0  0  0  0  0  0  0  0  0  0  0
    2.7259    0.1628    2.2739 H   0  0  0  0  0  0  0  0  0  0  0  0
  1  2  1  0
  1  4  1  0
  1  5  1  0
  1  6  1  0
  2  3  2  3
  3  7  1  0
  8  9  1  0
  8 12  1  0
  8 13  1  0
  9 10  1  0
 10 11  2  3
 11 14  1  0
 11 15  1  0
M  RAD  1   8   2
M  END
>  <reaction>  (19) 
rmg_rxn_15664

>  <mol_properties>  (19) 
{"1": {"label": "*0", "atom_type": "N3d"}, "2": {"label": "*1", "atom_type": "N3d"}, "6": {"label": "*2", "atom_type": "H0"}, "7": {"label": "*3", "atom_type": "Cs"}, "8": {"label": "*4", "atom_type": "O2s"}}

>  <type>  (19) 
unop_15

>  <geom_source>  (19) 
Heuristics

$$$$

     RDKit          3D

 15 13  0  0  0  0  0  0  0  0999 V2000
   -2.0577   -0.2244    1.0966 C   0  0  0  0  0  0  0  0  0  0  0  0
   -1.9176   -0.4238   -0.3127 N   0  0  0  0  0  0  0  0  0  0  0  0
   -1.3706    0.2437   -1.1204 N   0  0  0  0  0  2  0  0  0  0  0  0
   -1.6174   -1.0912    1.5912 H   0  0  0  0  0  0  0  0  0  0  0  0
   -1.5750    0.6914    1.4515 H   0  0  0  0  0  0  0  0  0  0  0  0
   -3.1237   -0.2080    1.3221 H   0  0  0  0  0  0  0  0  0  0  0  0
   -0.3169    0.9405   -0.7723 H   0  0  0  0  0  0  0  0  0  0  0  0
    0.7774    1.4149   -0.3563 C   0  0  0  0  0  0  0  0  0  0  0  0
    1.2687    0.6417    0.7073 O   0  0  0  0  0  0  0  0  0  0  0  0
    1.6687   -0.6328    0.5041 N   0  0  0  0  0  0  0  0  0  0  0  0
    1.5985   -1.1981   -0.6200 C   0  0  0  0  0  0  0  0  0  0  0  0
    0.5875    2.4011    0.0554 H   0  0  0  0  0  0  0  0  0  0  0  0
    1.4585    1.4565   -1.2075 H   0  0  0  0  0  0  0  0  0  0  0  0
    1.9484   -2.2154   -0.6494 H   0  0  0  0  0  0  0  0  0  0  0  0
    1.2120   -0.7717   -1.5419 H   0  0  0  0  0  0  0  0  0  0  0  0
  1  2  1  0
  1  4  1  0
  1  5  1  0
  1  6  1  0
  2  3  2  0
  7  8  1  0
  8  9  1  0
  8 12  1  0
  8 13  1  0
  9 10  1  0
 10 11  2  3
 11 14  1  0
 11 15  1  0
M  RAD  1   3   2
M  END
>  <reaction>  (20) 
rmg_rxn_15664

>  <mol_properties>  (20) 
{"1": {"label": "*0", "atom_type": "N3d"}, "2": {"label": "*1", "atom_type": "N3d"}, "6": {"label": "*2", "atom_type": "H0"}, "7": {"label": "*3", "atom_type": "Cs"}, "8": {"label": "*4", "atom_type": "O2s"}}

>  <type>  (20) 
unop_16

>  <geom_source>  (20) 
Heuristics

$$$$

     RDKit          3D

 15 13  0  0  0  0  0  0  0  0999 V2000
    0.4942    0.0308   -3.5404 C   0  0  0  0  0  0  0  0  0  0  0  0
    0.4942    0.0308   -2.0861 N   0  0  0  0  0  0  0  0  0  0  0  0
    0.4942    1.1612   -1.6028 N   0  0  0  0  0  0  0  0  0  0  0  0
    1.3733   -0.5238   -3.8733 H   0  0  0  0  0  0  0  0  0  0  0  0
   -0.3850   -0.5238   -3.8733 H   0  0  0  0  0  0  0  0  0  0  0  0
    0.4942    1.0429   -3.9515 H   0  0  0  0  0  0  0  0  0  0  0  0
    0.4942    1.0262   -0.3755 H   0  0  0  0  0  0  0  0  0  0  0  0
    0.4942    0.8833    0.9230 C   0  0  0  0  0  3  0  0  0  0  0  0
   -0.1864   -0.3303    1.1752 O   0  0  0  0  0  0  0  0  0  0  0  0
   -0.5990   -0.3662    2.4856 N   0  0  0  0  0  0  0  0  0  0  0  0
   -1.2142   -1.4354    2.7599 C   0  0  0  0  0  0  0  0  0  0  0  0
   -0.1613    1.7409    1.0904 H   0  0  0  0  0  0  0  0  0  0  0  0
    1.3807    0.9727    1.5549 H   0  0  0  0  0  0  0  0  0  0  0  0
   -1.5729   -1.5416    3.7749 H   0  0  0  0  0  0  0  0  0  0  0  0
   -1.3834   -2.2194    2.0248 H   0  0  0  0  0  0  0  0  0  0  0  0
  1  2  1  0
  1  4  1  0
  1  5  1  0
  1  6  1  0
  2  3  2  3
  3  7  1  0
  8  9  1  0
  8 12  1  0
  8 13  1  0
  9 10  1  0
 10 11  2  3
 11 14  1  0
 11 15  1  0
M  RAD  1   8   2
M  END
>  <reaction>  (21) 
rmg_rxn_15664

>  <mol_properties>  (21) 
{"1": {"label": "*0", "atom_type": "N3d"}, "2": {"label": "*1", "atom_type": "N3d"}, "6": {"label": "*2", "atom_type": "H0"}, "7": {"label": "*3", "atom_type": "Cs"}, "8": {"label": "*4", "atom_type": "O2s"}}

>  <type>  (21) 
unop_17

>  <geom_source>  (21) 
Heuristics

$$$$

     RDKit          3D

 15 13  0  0  0  0  0  0  0  0999 V2000
   -0.7853   -0.3636   -3.5480 C   0  0  0  0  0  0  0  0  0  0  0  0
   -0.7853   -0.3636   -2.0938 N   0  0  0  0  0  0  0  0  0  0  0  0
   -0.7853    0.7667   -1.6104 N   0  0  0  0  0  0  0  0  0  0  0  0
    0.0939   -0.9183   -3.8809 H   0  0  0  0  0  0  0  0  0  0  0  0
   -1.6644   -0.9183   -3.8809 H   0  0  0  0  0  0  0  0  0  0  0  0
   -0.7853    0.6484   -3.9591 H   0  0  0  0  0  0  0  0  0  0  0  0
   -0.7853    0.6317   -0.3832 H   0  0  0  0  0  0  0  0  0  0  0  0
   -0.7853    0.4889    0.9153 C   0  0  0  0  0  3  0  0  0  0  0  0
    0.3935   -0.2295    1.2220 O   0  0  0  0  0  0  0  0  0  0  0  0
    0.8631    0.1557    2.4548 N   0  0  0  0  0  0  0  0  0  0  0  0
    1.9189   -0.4609    2.7739 C   0  0  0  0  0  0  0  0  0  0  0  0
   -1.5684    0.2862    1.6494 H   0  0  0  0  0  0  0  0  0  0  0  0
   -0.5896    1.5629    0.8775 H   0  0  0  0  0  0  0  0  0  0  0  0
    2.3534   -0.2140    3.7333 H   0  0  0  0  0  0  0  0  0  0  0  0
    2.3808   -1.2051    2.1286 H   0  0  0  0  0  0  0  0  0  0  0  0
  1  2  1  0
  1  4  1  0
  1  5  1  0
  1  6  1  0
  2  3  2  3
  3  7  1  0
  8  9  1  0
  8 12  1  0
  8 13  1  0
  9 10  1  0
 10 11  2  3
 11 14  1  0
 11 15  1  0
M  RAD  1   8   2
M  END
>  <reaction>  (22) 
rmg_rxn_15664

>  <mol_properties>  (22) 
{"1": {"label": "*0", "atom_type": "N3d"}, "2": {"label": "*1", "atom_type": "N3d"}, "6": {"label": "*2", "atom_type": "H0"}, "7": {"label": "*3", "atom_type": "Cs"}, "8": {"label": "*4", "atom_type": "O2s"}}

>  <type>  (22) 
unop_18

>  <geom_source>  (22) 
Heuristics

$$$$

     RDKit          3D

 15 13  0  0  0  0  0  0  0  0999 V2000
    0.2521   -1.3461   -3.6738 C   0  0  0  0  0  0  0  0  0  0  0  0
    0.2521   -1.3461   -2.2196 N   0  0  0  0  0  0  0  0  0  0  0  0
    0.2521   -0.2158   -1.7362 N   0  0  0  0  0  0  0  0  0  0  0  0
    1.1313   -1.9008   -4.0067 H   0  0  0  0  0  0  0  0  0  0  0  0
   -0.6270   -1.9008   -4.0067 H   0  0  0  0  0  0  0  0  0  0  0  0
    0.2521   -0.3341   -4.0849 H   0  0  0  0  0  0  0  0  0  0  0  0
    0.2521   -0.3508   -0.5090 H   0  0  0  0  0  0  0  0  0  0  0  0
    0.2521   -0.4936    0.7895 C   0  0  0  0  0  3  0  0  0  0  0  0
   -0.4284    0.6361    1.2995 O   0  0  0  0  0  0  0  0  0  0  0  0
   -0.0015    0.8950    2.5799 N   0  0  0  0  0  0  0  0  0  0  0  0
   -0.5832    1.8993    3.0798 C   0  0  0  0  0  0  0  0  0  0  0  0
    1.3295   -0.3172    0.7532 H   0  0  0  0  0  0  0  0  0  0  0  0
    0.0476   -1.3793    1.3952 H   0  0  0  0  0  0  0  0  0  0  0  0
   -0.3020    2.1699    4.0887 H   0  0  0  0  0  0  0  0  0  0  0  0
   -1.3309    2.4738    2.5372 H   0  0  0  0  0  0  0  0  0  0  0  0
  1  2  1  0
  1  4  1  0
  1  5  1  0
  1  6  1  0
  2  3  2  3
  3  7  1  0
  8  9  1  0
  8 12  1  0
  8 13  1  0
  9 10  1  0
 10 11  2  3
 11 14  1  0
 11 15  1  0
M  RAD  1   8   2
M  END
>  <reaction>  (23) 
rmg_rxn_15664

>  <mol_properties>  (23) 
{"1": {"label": "*0", "atom_type": "N3d"}, "2": {"label": "*1", "atom_type": "N3d"}, "6": {"label": "*2", "atom_type": "H0"}, "7": {"label": "*3", "atom_type": "Cs"}, "8": {"label": "*4", "atom_type": "O2s"}}

>  <type>  (23) 
unop_19

>  <geom_source>  (23) 
Heuristics

$$$$

     RDKit          3D

 15 13  0  0  0  0  0  0  0  0999 V2000
    0.0000    0.1908   -3.5415 C   0  0  0  0  0  0  0  0  0  0  0  0
    0.0000    0.1908   -2.0873 N   0  0  0  0  0  0  0  0  0  0  0  0
    0.0000    1.3212   -1.6039 N   0  0  0  0  0  0  0  0  0  0  0  0
    0.8791   -0.3638   -3.8744 H   0  0  0  0  0  0  0  0  0  0  0  0
   -0.8791   -0.3638   -3.8744 H   0  0  0  0  0  0  0  0  0  0  0  0
    0.0000    1.2029   -3.9526 H   0  0  0  0  0  0  0  0  0  0  0  0
    0.0000    1.1862   -0.3766 H   0  0  0  0  0  0  0  0  0  0  0  0
    0.0000    1.0433    0.9219 C   0  0  0  0  0  3  0  0  0  0  0  0
    0.0000   -0.3515    1.1541 O   0  0  0  0  0  0  0  0  0  0  0  0
   -0.0000   -0.5959    2.5065 N   0  0  0  0  0  0  0  0  0  0  0  0
   -0.0000   -1.8328    2.7649 C   0  0  0  0  0  0  0  0  0  0  0  0
   -0.8921    1.5099    1.3456 H   0  0  0  0  0  0  0  0  0  0  0  0
    0.8921    1.5099    1.3456 H   0  0  0  0  0  0  0  0  0  0  0  0
   -0.0000   -2.1096    3.8107 H   0  0  0  0  0  0  0  0  0  0  0  0
    0.0000   -2.5940    1.9877 H   0  0  0  0  0  0  0  0  0  0  0  0
  1  2  1  0
  1  4  1  0
  1  5  1  0
  1  6  1  0
  2  3  2  3
  3  7  1  0
  8  9  1  0
  8 12  1  0
  8 13  1  0
  9 10  1  0
 10 11  2  3
 11 14  1  0
 11 15  1  0
M  RAD  1   8   2
M  END
>  <reaction>  (24) 
rmg_rxn_15664

>  <mol_properties>  (24) 
{"1": {"label": "*0", "atom_type": "N3d"}, "2": {"label": "*1", "atom_type": "N3d"}, "6": {"label": "*2", "atom_type": "H0"}, "7": {"label": "*3", "atom_type": "Cs"}, "8": {"label": "*4", "atom_type": "O2s"}}

>  <type>  (24) 
unop_20

>  <geom_source>  (24) 
Heuristics

$$$$

     RDKit          3D

 15 13  0  0  0  0  0  0  0  0999 V2000
   -0.4941    0.0308   -3.5404 C   0  0  0  0  0  0  0  0  0  0  0  0
   -0.4941    0.0308   -2.0861 N   0  0  0  0  0  0  0  0  0  0  0  0
   -0.4941    1.1612   -1.6028 N   0  0  0  0  0  0  0  0  0  0  0  0
    0.3850   -0.5238   -3.8733 H   0  0  0  0  0  0  0  0  0  0  0  0
   -1.3733   -0.5238   -3.8733 H   0  0  0  0  0  0  0  0  0  0  0  0
   -0.4941    1.0429   -3.9514 H   0  0  0  0  0  0  0  0  0  0  0  0
   -0.4941    1.0262   -0.3755 H   0  0  0  0  0  0  0  0  0  0  0  0
   -0.4941    0.8833    0.9230 C   0  0  0  0  0  3  0  0  0  0  0  0
    0.1864   -0.3303    1.1752 O   0  0  0  0  0  0  0  0  0  0  0  0
    0.5990   -0.3663    2.4856 N   0  0  0  0  0  0  0  0  0  0  0  0
    1.2142   -1.4354    2.7599 C   0  0  0  0  0  0  0  0  0  0  0  0
   -1.3807    0.9727    1.5549 H   0  0  0  0  0  0  0  0  0  0  0  0
    0.1613    1.7409    1.0904 H   0  0  0  0  0  0  0  0  0  0  0  0
    1.5729   -1.5416    3.7749 H   0  0  0  0  0  0  0  0  0  0  0  0
    1.3834   -2.2193    2.0248 H   0  0  0  0  0  0  0  0  0  0  0  0
  1  2  1  0
  1  4  1  0
  1  5  1  0
  1  6  1  0
  2  3  2  3
  3  7  1  0
  8  9  1  0
  8 12  1  0
  8 13  1  0
  9 10  1  0
 10 11  2  3
 11 14  1  0
 11 15  1  0
M  RAD  1   8   2
M  END
>  <reaction>  (25) 
rmg_rxn_15664

>  <mol_properties>  (25) 
{"1": {"label": "*0", "atom_type": "N3d"}, "2": {"label": "*1", "atom_type": "N3d"}, "6": {"label": "*2", "atom_type": "H0"}, "7": {"label": "*3", "atom_type": "Cs"}, "8": {"label": "*4", "atom_type": "O2s"}}

>  <type>  (25) 
unop_21

>  <geom_source>  (25) 
gaussian_log

$$$$
