
     RDKit          3D

 15 14  0  0  0  0  0  0  0  0999 V2000
    2.4145    0.0817    0.4065 C   0  0  0  0  0  0  0  0  0  0  0  0
    1.1257   -0.2220   -0.3219 C   0  0  0  0  0  0  0  0  0  0  0  0
    1.0983   -1.5879   -0.6512 O   0  0  0  0  0  0  0  0  0  0  0  0
   -0.0685   -1.9694   -1.3352 C   0  0  0  0  0  0  0  0  0  0  0  0
    0.0024   -3.4478   -1.6403 C   0  0  0  0  0  0  0  0  0  0  0  0
    3.2736   -0.1534   -0.2229 H   0  0  0  0  0  0  0  0  0  0  0  0
    2.4581    1.1389    0.6728 H   0  0  0  0  0  0  0  0  0  0  0  0
    2.4855   -0.5095    1.3201 H   0  0  0  0  0  0  0  0  0  0  0  0
    0.2597    0.0294    0.3083 H   0  0  0  0  0  0  0  0  0  0  0  0
    1.0482    0.3858   -1.2356 H   0  0  0  0  0  0  0  0  0  0  0  0
   -0.9535   -1.7457   -0.7211 H   0  0  0  0  0  0  0  0  0  0  0  0
   -0.1650   -1.3894   -2.2650 H   0  0  0  0  0  0  0  0  0  0  0  0
    0.0831   -4.0247   -0.7183 H   0  0  0  0  0  0  0  0  0  0  0  0
   -0.8950   -3.7674   -2.1724 H   0  0  0  0  0  0  0  0  0  0  0  0
    0.8712   -3.6686   -2.2613 H   0  0  0  0  0  0  0  0  0  0  0  0
  1  2  1  0
  1  6  1  0
  1  7  1  0
  1  8  1  0
  2  3  1  0
  2  9  1  0
  2 10  1  0
  3  4  1  0
  4  5  1  0
  4 11  1  0
  4 12  1  0
  5 13  1  0
  5 14  1  0
  5 15  1  0
M  END
>  <reaction>  (1) 
rmg_rxn_15425

>  <mol_properties>  (1) 
{"0": {"label": "donator", "atom_type": "Cs"}, "5": {"label": "d_hydrogen", "atom_type": "H0"}}

>  <type>  (1) 
r1h

$$$$

     RDKit          3D

  5  4  0  0  0  0  0  0  0  0999 V2000
    0.8934    0.3742    0.4948 O   0  0  0  0  0  0  0  0  0  0  0  0
    0.1582   -0.1610   -0.5904 N   0  0  0  0  0  0  0  0  0  0  0  0
   -1.0297   -0.3739   -0.4689 C   0  0  0  0  0  3  0  0  0  0  0  0
    1.7804    0.4382    0.1306 H   0  0  0  0  0  0  0  0  0  0  0  0
   -1.8023   -0.2775    0.2859 H   0  0  0  0  0  0  0  0  0  0  0  0
  1  2  1  0
  1  4  1  0
  2  3  2  3
  3  5  1  0
M  RAD  1   3   2
M  END
>  <reaction>  (2) 
rmg_rxn_15425

>  <mol_properties>  (2) 
{"2": {"label": "acceptor", "atom_type": "Cd"}}

>  <type>  (2) 
r2

$$$$

     RDKit          3D

  6  5  0  0  0  0  0  0  0  0999 V2000
    1.2314    0.0428    0.5088 O   0  0  0  0  0  0  0  0  0  0  0  0
    0.2987    0.2341   -0.4915 N   0  0  0  0  0  0  0  0  0  0  0  0
   -0.8599   -0.1122   -0.1290 C   0  0  0  0  0  0  0  0  0  0  0  0
    2.0507    0.3401    0.1082 H   0  0  0  0  0  0  0  0  0  0  0  0
   -1.0700   -0.5112    0.8610 H   0  0  0  0  0  0  0  0  0  0  0  0
   -1.6509    0.0064   -0.8574 H   0  0  0  0  0  0  0  0  0  0  0  0
  1  2  1  0
  1  4  1  0
  2  3  2  3
  3  5  1  0
  3  6  1  0
M  END
>  <reaction>  (3) 
rmg_rxn_15425

>  <mol_properties>  (3) 
{"2": {"label": "acceptor", "atom_type": "Cd"}, "5": {"label": "a_hydrogen", "atom_type": "H0"}}

>  <type>  (3) 
r2h

$$$$

     RDKit          3D

 20 18  0  0  0  0  0  0  0  0999 V2000
   -3.0591    1.8051    0.0179 O   0  0  0  0  0  0  0  0  0  0  0  0
   -1.9441    1.3465    0.7328 N   0  0  0  0  0  0  0  0  0  0  0  0
   -0.8642    1.8300    0.3477 C   0  0  0  0  0  3  0  0  0  0  0  0
   -3.7865    1.3442    0.4418 H   0  0  0  0  0  0  0  0  0  0  0  0
   -0.7011    2.5379   -0.4641 H   0  0  0  0  0  0  0  0  0  0  0  0
    1.1442    0.6692    1.6574 C   0  0  0  0  0  0  0  0  0  0  0  0
    1.0105   -0.7459    1.1880 C   0  0  0  0  0  0  0  0  0  0  0  0
    1.3171   -0.8011   -0.1810 O   0  0  0  0  0  0  0  0  0  0  0  0
    1.1393   -2.0803   -0.7384 C   0  0  0  0  0  0  0  0  0  0  0  0
    1.4851   -2.0252   -2.2080 C   0  0  0  0  0  0  0  0  0  0  0  0
    0.2332    1.3240    1.0316 H   0  0  0  0  0  0  0  0  0  0  0  0
    0.9032    0.8076    2.7093 H   0  0  0  0  0  0  0  0  0  0  0  0
    2.0833    1.1421    1.3759 H   0  0  0  0  0  0  0  0  0  0  0  0
    1.6884   -1.4059    1.7547 H   0  0  0  0  0  0  0  0  0  0  0  0
   -0.0140   -1.1045    1.3653 H   0  0  0  0  0  0  0  0  0  0  0  0
    1.7803   -2.8076   -0.2188 H   0  0  0  0  0  0  0  0  0  0  0  0
    0.0984   -2.4058   -0.5998 H   0  0  0  0  0  0  0  0  0  0  0  0
    2.5211   -1.7140   -2.3462 H   0  0  0  0  0  0  0  0  0  0  0  0
    1.3542   -3.0079   -2.6637 H   0  0  0  0  0  0  0  0  0  0  0  0
    0.8396   -1.3144   -2.7251 H   0  0  0  0  0  0  0  0  0  0  0  0
  1  2  1  0
  1  4  1  0
  2  3  2  3
  3  5  1  0
  6  7  1  0
  6 11  1  0
  6 12  1  0
  6 13  1  0
  7  8  1  0
  7 14  1  0
  7 15  1  0
  8  9  1  0
  9 10  1  0
  9 16  1  0
  9 17  1  0
 10 18  1  0
 10 19  1  0
 10 20  1  0
M  RAD  1   3   2
M  END
>  <reaction>  (4) 
rmg_rxn_15425

>  <mol_properties>  (4) 
{"1": {"label": "*4", "atom_type": "N3d"}, "2": {"label": "*3", "atom_type": "Cd"}, "5": {"label": "*1", "atom_type": "Cs"}, "6": {"label": "*0", "atom_type": "Cs"}, "10": {"label": "*2", "atom_type": "H0"}}

>  <type>  (4) 
ts

$$$$

     RDKit          3D

 20 18  0  0  0  0  0  0  0  0999 V2000
   -3.2179    0.4414   -0.1321 O   0  0  0  0  0  0  0  0  0  0  0  0
   -1.9492   -0.1591   -0.2614 N   0  0  0  0  0  0  0  0  0  0  0  0
   -1.5109   -0.9026    0.6227 C   0  0  0  0  0  3  0  0  0  0  0  0
   -3.3245    0.9617   -0.9404 H   0  0  0  0  0  0  0  0  0  0  0  0
   -1.9532   -1.2122    1.5611 H   0  0  0  0  0  0  0  0  0  0  0  0
    0.8601   -1.8836    0.0689 C   0  0  0  0  0  0  0  0  0  0  0  0
    1.6531   -0.8703   -0.7215 C   0  0  0  0  0  0  0  0  0  0  0  0
    2.2851    0.1181    0.0617 O   0  0  0  0  0  0  0  0  0  0  0  0
    1.4416    1.0579    0.6963 C   0  0  0  0  0  0  0  0  0  0  0  0
    0.7112    1.9937   -0.2641 C   0  0  0  0  0  0  0  0  0  0  0  0
   -0.3177   -1.3900    0.3548 H   0  0  0  0  0  0  0  0  0  0  0  0
    0.6389   -2.7713   -0.5118 H   0  0  0  0  0  0  0  0  0  0  0  0
    1.3177   -2.1248    1.0220 H   0  0  0  0  0  0  0  0  0  0  0  0
    2.4885   -1.3724   -1.2282 H   0  0  0  0  0  0  0  0  0  0  0  0
    1.0178   -0.4177   -1.4961 H   0  0  0  0  0  0  0  0  0  0  0  0
    0.7120    0.5510    1.3429 H   0  0  0  0  0  0  0  0  0  0  0  0
    2.1225    1.6342    1.3286 H   0  0  0  0  0  0  0  0  0  0  0  0
    1.4138    2.4170   -0.9777 H   0  0  0  0  0  0  0  0  0  0  0  0
   -0.0710    1.4633   -0.8014 H   0  0  0  0  0  0  0  0  0  0  0  0
    0.2531    2.8001    0.3018 H   0  0  0  0  0  0  0  0  0  0  0  0
  1  2  1  0
  1  4  1  0
  2  3  2  3
  3  5  1  0
  6  7  1  0
  6 11  1  0
  6 12  1  0
  6 13  1  0
  7  8  1  0
  7 14  1  0
  7 15  1  0
  8  9  1  0
  9 10  1  0
  9 16  1  0
  9 17  1  0
 10 18  1  0
 10 19  1  0
 10 20  1  0
M  RAD  1   3   2
M  END
>  <reaction>  (5) 
rmg_rxn_15425

>  <mol_properties>  (5) 
{"1": {"label": "*4", "atom_type": "N3d"}, "2": {"label": "*3", "atom_type": "Cd"}, "5": {"label": "*1", "atom_type": "Cs"}, "6": {"label": "*0", "atom_type": "Cs"}, "10": {"label": "*2", "atom_type": "H0"}}

>  <type>  (5) 
unop_1

>  <geom_source>  (5) 
crest_best.xyz

$$$$

     RDKit          3D

 20 18  0  0  0  0  0  0  0  0999 V2000
   -2.2669    3.3034    0.7015 O   0  0  0  0  0  0  0  0  0  0  0  0
   -1.8318    2.0586    1.1118 N   0  0  0  0  0  0  0  0  0  0  0  0
   -1.0556    1.5286    0.2690 C   0  0  0  0  0  0  0  0  0  0  0  0
   -2.8369    3.5869    1.4190 H   0  0  0  0  0  0  0  0  0  0  0  0
   -0.7791    2.0176   -0.6626 H   0  0  0  0  0  0  0  0  0  0  0  0
    1.0584    0.3351    1.2188 C   0  0  0  0  0  3  0  0  0  0  0  0
    1.0584   -1.1266    0.8352 C   0  0  0  0  0  0  0  0  0  0  0  0
    1.0584   -1.2308   -0.5664 O   0  0  0  0  0  0  0  0  0  0  0  0
    1.0584   -2.5600   -1.0229 C   0  0  0  0  0  0  0  0  0  0  0  0
    1.0584   -2.5600   -2.5341 C   0  0  0  0  0  0  0  0  0  0  0  0
   -0.0028    0.9342    0.7420 H   0  0  0  0  0  0  0  0  0  0  0  0
    1.0584    0.4408    2.3047 H   0  0  0  0  0  0  0  0  0  0  0  0
    1.9428    0.8343    0.8215 H   0  0  0  0  0  0  0  0  0  0  0  0
    1.9433   -1.6326    1.2489 H   0  0  0  0  0  0  0  0  0  0  0  0
    0.1735   -1.6326    1.2489 H   0  0  0  0  0  0  0  0  0  0  0  0
    1.9433   -3.0886   -0.6386 H   0  0  0  0  0  0  0  0  0  0  0  0
    0.1735   -3.0886   -0.6386 H   0  0  0  0  0  0  0  0  0  0  0  0
    1.9428   -2.0489   -2.9162 H   0  0  0  0  0  0  0  0  0  0  0  0
    1.0584   -3.5835   -2.9121 H   0  0  0  0  0  0  0  0  0  0  0  0
    0.1740   -2.0489   -2.9162 H   0  0  0  0  0  0  0  0  0  0  0  0
  1  2  1  0
  1  4  1  0
  2  3  2  3
  3  5  1  0
  3 11  1  0
  6  7  1  0
  6 12  1  0
  6 13  1  0
  7  8  1  0
  7 14  1  0
  7 15  1  0
  8  9  1  0
  9 10  1  0
  9 16  1  0
  9 17  1  0
 10 18  1  0
 10 19  1  0
 10 20  1  0
M  RAD  1   6   2
M  END
>  <reaction>  (6) 
rmg_rxn_15425

>  <mol_properties>  (6) 
{"1": {"label": "*4", "atom_type": "N3d"}, "2": {"label": "*3", "atom_type": "Cd"}, "5": {"label": "*1", "atom_type": "Cs"}, "6": {"label": "*0", "atom_type": "Cs"}, "10": {"label": "*2", "atom_type": "H0"}}

>  <type>  (6) 
unop_2

>  <geom_source>  (6) 
Heuristics

$$$$

     RDKit          3D

 20 18  0  0  0  0  0  0  0  0999 V2000
   -3.2174   -0.4407   -0.1310 O   0  0  0  0  0  0  0  0  0  0  0  0
   -1.9492    0.1606   -0.2621 N   0  0  0  0  0  0  0  0  0  0  0  0
   -1.5096    0.9028    0.6223 C   0  0  0  0  0  3  0  0  0  0  0  0
   -3.3255   -0.9599   -0.9399 H   0  0  0  0  0  0  0  0  0  0  0  0
   -1.9504    1.2105    1.5620 H   0  0  0  0  0  0  0  0  0  0  0  0
    0.8613    1.8836    0.0677 C   0  0  0  0  0  0  0  0  0  0  0  0
    1.6547    0.8694   -0.7210 C   0  0  0  0  0  0  0  0  0  0  0  0
    2.2844   -0.1192    0.0638 O   0  0  0  0  0  0  0  0  0  0  0  0
    1.4390   -1.0586    0.6965 C   0  0  0  0  0  0  0  0  0  0  0  0
    0.7097   -1.9933   -0.2659 C   0  0  0  0  0  0  0  0  0  0  0  0
   -0.3166    1.3903    0.3538 H   0  0  0  0  0  0  0  0  0  0  0  0
    1.3184    2.1261    1.0207 H   0  0  0  0  0  0  0  0  0  0  0  0
    0.6403    2.7706   -0.5142 H   0  0  0  0  0  0  0  0  0  0  0  0
    1.0202    0.4170   -1.4963 H   0  0  0  0  0  0  0  0  0  0  0  0
    2.4913    1.3705   -1.2266 H   0  0  0  0  0  0  0  0  0  0  0  0
    2.1183   -1.6357    1.3298 H   0  0  0  0  0  0  0  0  0  0  0  0
    0.7086   -0.5515    1.3419 H   0  0  0  0  0  0  0  0  0  0  0  0
    0.2514   -2.8007    0.2985 H   0  0  0  0  0  0  0  0  0  0  0  0
   -0.0721   -1.4624   -0.8032 H   0  0  0  0  0  0  0  0  0  0  0  0
    1.4131   -2.4155   -0.9795 H   0  0  0  0  0  0  0  0  0  0  0  0
  1  2  1  0
  1  4  1  0
  2  3  2  3
  3  5  1  0
  6  7  1  0
  6 11  1  0
  6 12  1  0
  6 13  1  0
  7  8  1  0
  7 14  1  0
  7 15  1  0
  8  9  1  0
  9 10  1  0
  9 16  1  0
  9 17  1  0
 10 18  1  0
 10 19  1  0
 10 20  1  0
M  RAD  1   3   2
M  END
>  <reaction>  (7) 
rmg_rxn_15425

>  <mol_properties>  (7) 
{"1": {"label": "*4", "atom_type": "N3d"}, "2": {"label": "*3", "atom_type": "Cd"}, "5": {"label": "*1", "atom_type": "Cs"}, "6": {"label": "*0", "atom_type": "Cs"}, "10": {"label": "*2", "atom_type": "H0"}}

>  <type>  (7) 
unop_3

>  <geom_source>  (7) 
Heuristics

$$$$

     RDKit          3D

 20 18  0  0  0  0  0  0  0  0999 V2000
   -3.0583    1.9883    0.2294 O   0  0  0  0  0  0  0  0  0  0  0  0
   -1.9192    1.2171    0.3507 N   0  0  0  0  0  0  0  0  0  0  0  0
   -0.8820    1.9245    0.4820 C   0  0  0  0  0  0  0  0  0  0  0  0
   -3.7578    1.3383    0.1383 H   0  0  0  0  0  0  0  0  0  0  0  0
   -0.9114    3.0120    0.4948 H   0  0  0  0  0  0  0  0  0  0  0  0
    1.2320    0.7310    1.4317 C   0  0  0  0  0  3  0  0  0  0  0  0
    1.2320   -0.7306    1.0481 C   0  0  0  0  0  0  0  0  0  0  0  0
    1.2320   -0.8348   -0.3534 O   0  0  0  0  0  0  0  0  0  0  0  0
    1.2320   -2.1640   -0.8099 C   0  0  0  0  0  0  0  0  0  0  0  0
    1.2320   -2.1640   -2.3211 C   0  0  0  0  0  0  0  0  0  0  0  0
    0.1708    1.3302    0.9550 H   0  0  0  0  0  0  0  0  0  0  0  0
    1.2320    0.8368    2.5177 H   0  0  0  0  0  0  0  0  0  0  0  0
    2.1164    1.2303    1.0345 H   0  0  0  0  0  0  0  0  0  0  0  0
    2.1169   -1.2366    1.4619 H   0  0  0  0  0  0  0  0  0  0  0  0
    0.3471   -1.2366    1.4619 H   0  0  0  0  0  0  0  0  0  0  0  0
    2.1169   -2.6927   -0.4256 H   0  0  0  0  0  0  0  0  0  0  0  0
    0.3471   -2.6927   -0.4256 H   0  0  0  0  0  0  0  0  0  0  0  0
    2.1164   -1.6530   -2.7032 H   0  0  0  0  0  0  0  0  0  0  0  0
    1.2320   -3.1875   -2.6991 H   0  0  0  0  0  0  0  0  0  0  0  0
    0.3476   -1.6530   -2.7032 H   0  0  0  0  0  0  0  0  0  0  0  0
  1  2  1  0
  1  4  1  0
  2  3  2  3
  3  5  1  0
  3 11  1  0
  6  7  1  0
  6 12  1  0
  6 13  1  0
  7  8  1  0
  7 14  1  0
  7 15  1  0
  8  9  1  0
  9 10  1  0
  9 16  1  0
  9 17  1  0
 10 18  1  0
 10 19  1  0
 10 20  1  0
M  RAD  1   6   2
M  END
>  <reaction>  (8) 
rmg_rxn_15425

>  <mol_properties>  (8) 
{"1": {"label": "*4", "atom_type": "N3d"}, "2": {"label": "*3", "atom_type": "Cd"}, "5": {"label": "*1", "atom_type": "Cs"}, "6": {"label": "*0", "atom_type": "Cs"}, "10": {"label": "*2", "atom_type": "H0"}}

>  <type>  (8) 
unop_4

>  <geom_source>  (8) 
Heuristics

$$$$

     RDKit          3D

 20 18  0  0  0  0  0  0  0  0999 V2000
   -2.1291    3.3951    0.2282 O   0  0  0  0  0  0  0  0  0  0  0  0
   -1.5683    2.4295    1.0408 N   0  0  0  0  0  0  0  0  0  0  0  0
   -1.1242    1.4528    0.3758 C   0  0  0  0  0  0  0  0  0  0  0  0
   -2.4204    4.0658    0.8489 H   0  0  0  0  0  0  0  0  0  0  0  0
   -1.1890    1.4037   -0.7091 H   0  0  0  0  0  0  0  0  0  0  0  0
    0.9898    0.2592    1.3255 C   0  0  0  0  0  3  0  0  0  0  0  0
    0.9898   -1.2024    0.9419 C   0  0  0  0  0  0  0  0  0  0  0  0
    0.9898   -1.3066   -0.4596 O   0  0  0  0  0  0  0  0  0  0  0  0
    0.9898   -2.6358   -0.9162 C   0  0  0  0  0  0  0  0  0  0  0  0
    0.9898   -2.6358   -2.4273 C   0  0  0  0  0  0  0  0  0  0  0  0
   -0.0714    0.8584    0.8487 H   0  0  0  0  0  0  0  0  0  0  0  0
    0.9898    0.3650    2.4115 H   0  0  0  0  0  0  0  0  0  0  0  0
    1.8742    0.7585    0.9282 H   0  0  0  0  0  0  0  0  0  0  0  0
    1.8748   -1.7084    1.3557 H   0  0  0  0  0  0  0  0  0  0  0  0
    0.1049   -1.7084    1.3557 H   0  0  0  0  0  0  0  0  0  0  0  0
    1.8748   -3.1644   -0.5318 H   0  0  0  0  0  0  0  0  0  0  0  0
    0.1049   -3.1644   -0.5318 H   0  0  0  0  0  0  0  0  0  0  0  0
    1.8742   -2.1247   -2.8094 H   0  0  0  0  0  0  0  0  0  0  0  0
    0.9898   -3.6593   -2.8053 H   0  0  0  0  0  0  0  0  0  0  0  0
    0.1055   -2.1247   -2.8094 H   0  0  0  0  0  0  0  0  0  0  0  0
  1  2  1  0
  1  4  1  0
  2  3  2  3
  3  5  1  0
  3 11  1  0
  6  7  1  0
  6 12  1  0
  6 13  1  0
  7  8  1  0
  7 14  1  0
  7 15  1  0
  8  9  1  0
  9 10  1  0
  9 16  1  0
  9 17  1  0
 10 18  1  0
 10 19  1  0
 10 20  1  0
M  RAD  1   6   2
M  END
>  <reaction>  (9) 
rmg_rxn_15425

>  <mol_properties>  (9) 
{"1": {"label": "*4", "atom_type": "N3d"}, "2": {"label": "*3", "atom_type": "Cd"}, "5": {"label": "*1", "atom_type": "Cs"}, "6": {"label": "*0", "atom_type": "Cs"}, "10": {"label": "*2", "atom_type": "H0"}}

>  <type>  (9) 
unop_5

>  <geom_source>  (9) 
Heuristics

$$$$

     RDKit          3D

 20 18  0  0  0  0  0  0  0  0999 V2000
   -1.9670    2.8122   -0.8867 O   0  0  0  0  0  0  0  0  0  0  0  0
   -1.3336    1.6746   -0.4266 N   0  0  0  0  0  0  0  0  0  0  0  0
   -1.1932    1.6872    0.8278 C   0  0  0  0  0  0  0  0  0  0  0  0
   -2.0082    2.6751   -1.8352 H   0  0  0  0  0  0  0  0  0  0  0  0
   -1.5400    2.5105    1.4487 H   0  0  0  0  0  0  0  0  0  0  0  0
    0.9208    0.4937    1.7776 C   0  0  0  0  0  3  0  0  0  0  0  0
    0.9208   -0.9680    1.3940 C   0  0  0  0  0  0  0  0  0  0  0  0
    0.9208   -1.0722   -0.0075 O   0  0  0  0  0  0  0  0  0  0  0  0
    0.9208   -2.4013   -0.4641 C   0  0  0  0  0  0  0  0  0  0  0  0
    0.9208   -2.4013   -1.9753 C   0  0  0  0  0  0  0  0  0  0  0  0
   -0.1404    1.0929    1.3008 H   0  0  0  0  0  0  0  0  0  0  0  0
    0.9208    0.5995    2.8635 H   0  0  0  0  0  0  0  0  0  0  0  0
    1.8052    0.9930    1.3803 H   0  0  0  0  0  0  0  0  0  0  0  0
    1.8057   -1.4739    1.8077 H   0  0  0  0  0  0  0  0  0  0  0  0
    0.0359   -1.4739    1.8077 H   0  0  0  0  0  0  0  0  0  0  0  0
    1.8057   -2.9300   -0.0798 H   0  0  0  0  0  0  0  0  0  0  0  0
    0.0359   -2.9300   -0.0798 H   0  0  0  0  0  0  0  0  0  0  0  0
    1.8052   -1.8903   -2.3574 H   0  0  0  0  0  0  0  0  0  0  0  0
    0.9208   -3.4249   -2.3533 H   0  0  0  0  0  0  0  0  0  0  0  0
    0.0365   -1.8903   -2.3574 H   0  0  0  0  0  0  0  0  0  0  0  0
  1  2  1  0
  1  4  1  0
  2  3  2  3
  3  5  1  0
  3 11  1  0
  6  7  1  0
  6 12  1  0
  6 13  1  0
  7  8  1  0
  7 14  1  0
  7 15  1  0
  8  9  1  0
  9 10  1  0
  9 16  1  0
  9 17  1  0
 10 18  1  0
 10 19  1  0
 10 20  1  0
M  RAD  1   6   2
M  END
>  <reaction>  (10) 
rmg_rxn_15425

>  <mol_properties>  (10) 
{"1": {"label": "*4", "atom_type": "N3d"}, "2": {"label": "*3", "atom_type": "Cd"}, "5": {"label": "*1", "atom_type": "Cs"}, "6": {"label": "*0", "atom_type": "Cs"}, "10": {"label": "*2", "atom_type": "H0"}}

>  <type>  (10) 
unop_6

>  <geom_source>  (10) 
Heuristics

$$$$

     RDKit          3D

 20 18  0  0  0  0  0  0  0  0999 V2000
   -3.2176    0.4417   -0.1324 O   0  0  0  0  0  0  0  0  0  0  0  0
   -1.9505   -0.1620   -0.2627 N   0  0  0  0  0  0  0  0  0  0  0  0
   -1.5090   -0.8982    0.6259 C   0  0  0  0  0  3  0  0  0  0  0  0
   -3.3281    0.9539   -0.9452 H   0  0  0  0  0  0  0  0  0  0  0  0
   -1.9471   -1.1982    1.5694 H   0  0  0  0  0  0  0  0  0  0  0  0
    0.8591   -1.8841    0.0689 C   0  0  0  0  0  0  0  0  0  0  0  0
    1.6521   -0.8710   -0.7217 C   0  0  0  0  0  0  0  0  0  0  0  0
    2.2845    0.1171    0.0615 O   0  0  0  0  0  0  0  0  0  0  0  0
    1.4415    1.0574    0.6960 C   0  0  0  0  0  0  0  0  0  0  0  0
    0.7130    1.9946   -0.2646 C   0  0  0  0  0  0  0  0  0  0  0  0
   -0.3176   -1.3891    0.3568 H   0  0  0  0  0  0  0  0  0  0  0  0
    0.6360   -2.7710   -0.5123 H   0  0  0  0  0  0  0  0  0  0  0  0
    1.3177   -2.1267    1.0211 H   0  0  0  0  0  0  0  0  0  0  0  0
    2.4871   -1.3731   -1.2290 H   0  0  0  0  0  0  0  0  0  0  0  0
    1.0164   -0.4180   -1.4958 H   0  0  0  0  0  0  0  0  0  0  0  0
    0.7106    0.5510    1.3415 H   0  0  0  0  0  0  0  0  0  0  0  0
    2.1223    1.6326    1.3293 H   0  0  0  0  0  0  0  0  0  0  0  0
   -0.0681    1.4651   -0.8043 H   0  0  0  0  0  0  0  0  0  0  0  0
    0.2539    2.8004    0.3014 H   0  0  0  0  0  0  0  0  0  0  0  0
    1.4171    2.4188   -0.9763 H   0  0  0  0  0  0  0  0  0  0  0  0
  1  2  1  0
  1  4  1  0
  2  3  2  3
  3  5  1  0
  6  7  1  0
  6 11  1  0
  6 12  1  0
  6 13  1  0
  7  8  1  0
  7 14  1  0
  7 15  1  0
  8  9  1  0
  9 10  1  0
  9 16  1  0
  9 17  1  0
 10 18  1  0
 10 19  1  0
 10 20  1  0
M  RAD  1   3   2
M  END
>  <reaction>  (11) 
rmg_rxn_15425

>  <mol_properties>  (11) 
{"1": {"label": "*4", "atom_type": "N3d"}, "2": {"label": "*3", "atom_type": "Cd"}, "5": {"label": "*1", "atom_type": "Cs"}, "6": {"label": "*0", "atom_type": "Cs"}, "10": {"label": "*2", "atom_type": "H0"}}

>  <type>  (11) 
unop_7

>  <geom_source>  (11) 
Heuristics

$$$$

     RDKit          3D

 20 18  0  0  0  0  0  0  0  0999 V2000
   -2.3885    3.2154    0.1512 O   0  0  0  0  0  0  0  0  0  0  0  0
   -1.2384    2.6814    0.6981 N   0  0  0  0  0  0  0  0  0  0  0  0
   -1.1226    1.4503    0.4442 C   0  0  0  0  0  0  0  0  0  0  0  0
   -2.3524    4.1370    0.4146 H   0  0  0  0  0  0  0  0  0  0  0  0
   -1.8576    0.8999   -0.1393 H   0  0  0  0  0  0  0  0  0  0  0  0
    0.9914    0.2567    1.3939 C   0  0  0  0  0  3  0  0  0  0  0  0
    0.9914   -1.2049    1.0103 C   0  0  0  0  0  0  0  0  0  0  0  0
    0.9914   -1.3091   -0.3912 O   0  0  0  0  0  0  0  0  0  0  0  0
    0.9914   -2.6383   -0.8477 C   0  0  0  0  0  0  0  0  0  0  0  0
    0.9914   -2.6383   -2.3589 C   0  0  0  0  0  0  0  0  0  0  0  0
   -0.0698    0.8559    0.9172 H   0  0  0  0  0  0  0  0  0  0  0  0
    0.9914    0.3625    2.4799 H   0  0  0  0  0  0  0  0  0  0  0  0
    1.8758    0.7560    0.9966 H   0  0  0  0  0  0  0  0  0  0  0  0
    1.8763   -1.7109    1.4241 H   0  0  0  0  0  0  0  0  0  0  0  0
    0.1065   -1.7109    1.4241 H   0  0  0  0  0  0  0  0  0  0  0  0
    1.8763   -3.1669   -0.4634 H   0  0  0  0  0  0  0  0  0  0  0  0
    0.1065   -3.1669   -0.4634 H   0  0  0  0  0  0  0  0  0  0  0  0
    1.8758   -2.1272   -2.7410 H   0  0  0  0  0  0  0  0  0  0  0  0
    0.9914   -3.6618   -2.7369 H   0  0  0  0  0  0  0  0  0  0  0  0
    0.1071   -2.1272   -2.7410 H   0  0  0  0  0  0  0  0  0  0  0  0
  1  2  1  0
  1  4  1  0
  2  3  2  3
  3  5  1  0
  3 11  1  0
  6  7  1  0
  6 12  1  0
  6 13  1  0
  7  8  1  0
  7 14  1  0
  7 15  1  0
  8  9  1  0
  9 10  1  0
  9 16  1  0
  9 17  1  0
 10 18  1  0
 10 19  1  0
 10 20  1  0
M  RAD  1   6   2
M  END
>  <reaction>  (12) 
rmg_rxn_15425

>  <mol_properties>  (12) 
{"1": {"label": "*4", "atom_type": "N3d"}, "2": {"label": "*3", "atom_type": "Cd"}, "5": {"label": "*1", "atom_type": "Cs"}, "6": {"label": "*0", "atom_type": "Cs"}, "10": {"label": "*2", "atom_type": "H0"}}

>  <type>  (12) 
unop_8

>  <geom_source>  (12) 
Heuristics

$$$$

     RDKit          3D

 20 18  0  0  0  0  0  0  0  0999 V2000
   -3.2185   -0.4395    0.1304 O   0  0  0  0  0  0  0  0  0  0  0  0
   -1.9490    0.1592    0.2618 N   0  0  0  0  0  0  0  0  0  0  0  0
   -1.5103    0.9052   -0.6200 C   0  0  0  0  0  3  0  0  0  0  0  0
   -3.3256   -0.9627    0.9369 H   0  0  0  0  0  0  0  0  0  0  0  0
   -1.9526    1.2181   -1.5572 H   0  0  0  0  0  0  0  0  0  0  0  0
    0.8628    1.8824   -0.0683 C   0  0  0  0  0  0  0  0  0  0  0  0
    1.6569    0.8689    0.7206 C   0  0  0  0  0  0  0  0  0  0  0  0
    2.2856   -0.1209   -0.0636 O   0  0  0  0  0  0  0  0  0  0  0  0
    1.4391   -1.0593   -0.6965 C   0  0  0  0  0  0  0  0  0  0  0  0
    0.7066   -1.9917    0.2656 C   0  0  0  0  0  0  0  0  0  0  0  0
   -0.3161    1.3901   -0.3522 H   0  0  0  0  0  0  0  0  0  0  0  0
    0.6435    2.7704    0.5127 H   0  0  0  0  0  0  0  0  0  0  0  0
    1.3186    2.1232   -1.0224 H   0  0  0  0  0  0  0  0  0  0  0  0
    2.4943    1.3704    1.2244 H   0  0  0  0  0  0  0  0  0  0  0  0
    1.0234    0.4175    1.4973 H   0  0  0  0  0  0  0  0  0  0  0  0
    0.7106   -0.5513   -1.3434 H   0  0  0  0  0  0  0  0  0  0  0  0
    2.1181   -1.6383   -1.3283 H   0  0  0  0  0  0  0  0  0  0  0  0
    0.2464   -2.7979   -0.2989 H   0  0  0  0  0  0  0  0  0  0  0  0
    1.4082   -2.4156    0.9799 H   0  0  0  0  0  0  0  0  0  0  0  0
   -0.0742   -1.4584    0.8021 H   0  0  0  0  0  0  0  0  0  0  0  0
  1  2  1  0
  1  4  1  0
  2  3  2  3
  3  5  1  0
  6  7  1  0
  6 11  1  0
  6 12  1  0
  6 13  1  0
  7  8  1  0
  7 14  1  0
  7 15  1  0
  8  9  1  0
  9 10  1  0
  9 16  1  0
  9 17  1  0
 10 18  1  0
 10 19  1  0
 10 20  1  0
M  RAD  1   3   2
M  END
>  <reaction>  (13) 
rmg_rxn_15425

>  <mol_properties>  (13) 
{"1": {"label": "*4", "atom_type": "N3d"}, "2": {"label": "*3", "atom_type": "Cd"}, "5": {"label": "*1", "atom_type": "Cs"}, "6": {"label": "*0", "atom_type": "Cs"}, "10": {"label": "*2", "atom_type": "H0"}}

>  <type>  (13) 
unop_9

>  <geom_source>  (13) 
Heuristics

$$$$

     RDKit          3D

 20 18  0  0  0  0  0  0  0  0999 V2000
   -1.7769    3.2730   -0.4895 O   0  0  0  0  0  0  0  0  0  0  0  0
   -1.1530    2.0438   -0.4068 N   0  0  0  0  0  0  0  0  0  0  0  0
   -1.2595    1.5370    0.7444 C   0  0  0  0  0  0  0  0  0  0  0  0
   -1.6224    3.5397   -1.3978 H   0  0  0  0  0  0  0  0  0  0  0  0
   -1.7865    2.0325    1.5571 H   0  0  0  0  0  0  0  0  0  0  0  0
    0.8545    0.3435    1.6941 C   0  0  0  0  0  3  0  0  0  0  0  0
    0.8545   -1.1182    1.3105 C   0  0  0  0  0  0  0  0  0  0  0  0
    0.8545   -1.2224   -0.0910 O   0  0  0  0  0  0  0  0  0  0  0  0
    0.8545   -2.5515   -0.5475 C   0  0  0  0  0  0  0  0  0  0  0  0
    0.8545   -2.5515   -2.0587 C   0  0  0  0  0  0  0  0  0  0  0  0
   -0.2068    0.9426    1.2174 H   0  0  0  0  0  0  0  0  0  0  0  0
    0.8545    0.4493    2.7801 H   0  0  0  0  0  0  0  0  0  0  0  0
    1.7389    0.8428    1.2968 H   0  0  0  0  0  0  0  0  0  0  0  0
    1.7394   -1.6241    1.7243 H   0  0  0  0  0  0  0  0  0  0  0  0
   -0.0304   -1.6241    1.7243 H   0  0  0  0  0  0  0  0  0  0  0  0
    1.7394   -3.0802   -0.1632 H   0  0  0  0  0  0  0  0  0  0  0  0
   -0.0304   -3.0802   -0.1632 H   0  0  0  0  0  0  0  0  0  0  0  0
    1.7389   -2.0405   -2.4408 H   0  0  0  0  0  0  0  0  0  0  0  0
    0.8545   -3.5751   -2.4367 H   0  0  0  0  0  0  0  0  0  0  0  0
   -0.0299   -2.0405   -2.4408 H   0  0  0  0  0  0  0  0  0  0  0  0
  1  2  1  0
  1  4  1  0
  2  3  2  3
  3  5  1  0
  3 11  1  0
  6  7  1  0
  6 12  1  0
  6 13  1  0
  7  8  1  0
  7 14  1  0
  7 15  1  0
  8  9  1  0
  9 10  1  0
  9 16  1  0
  9 17  1  0
 10 18  1  0
 10 19  1  0
 10 20  1  0
M  RAD  1   6   2
M  END
>  <reaction>  (14) 
rmg_rxn_15425

>  <mol_properties>  (14) 
{"1": {"label": "*4", "atom_type": "N3d"}, "2": {"label": "*3", "atom_type": "Cd"}, "5": {"label": "*1", "atom_type": "Cs"}, "6": {"label": "*0", "atom_type": "Cs"}, "10": {"label": "*2", "atom_type": "H0"}}

>  <type>  (14) 
unop_10

>  <geom_source>  (14) 
Heuristics

$$$$

     RDKit          3D

 20 18  0  0  0  0  0  0  0  0999 V2000
   -3.2190   -0.4403   -0.1315 O   0  0  0  0  0  0  0  0  0  0  0  0
   -1.9490    0.1575   -0.2608 N   0  0  0  0  0  0  0  0  0  0  0  0
   -1.5115    0.9040    0.6210 C   0  0  0  0  0  3  0  0  0  0  0  0
   -3.3248   -0.9643   -0.9376 H   0  0  0  0  0  0  0  0  0  0  0  0
   -1.9553    1.2182    1.5571 H   0  0  0  0  0  0  0  0  0  0  0  0
    0.8607    1.8829    0.0683 C   0  0  0  0  0  0  0  0  0  0  0  0
    1.6549    0.8698   -0.7210 C   0  0  0  0  0  0  0  0  0  0  0  0
    2.2858   -0.1188    0.0628 O   0  0  0  0  0  0  0  0  0  0  0  0
    1.4416   -1.0585    0.6965 C   0  0  0  0  0  0  0  0  0  0  0  0
    0.7097   -1.9922   -0.2649 C   0  0  0  0  0  0  0  0  0  0  0  0
   -0.3173    1.3892    0.3536 H   0  0  0  0  0  0  0  0  0  0  0  0
    1.3174    2.1248    1.0217 H   0  0  0  0  0  0  0  0  0  0  0  0
    0.6395    2.7702   -0.5129 H   0  0  0  0  0  0  0  0  0  0  0  0
    1.0208    0.4173   -1.4967 H   0  0  0  0  0  0  0  0  0  0  0  0
    2.4910    1.3721   -1.2263 H   0  0  0  0  0  0  0  0  0  0  0  0
    2.1221   -1.6364    1.3277 H   0  0  0  0  0  0  0  0  0  0  0  0
    0.7128   -0.5517    1.3440 H   0  0  0  0  0  0  0  0  0  0  0  0
    1.4114   -2.4147   -0.9800 H   0  0  0  0  0  0  0  0  0  0  0  0
    0.2517   -2.7994    0.3000 H   0  0  0  0  0  0  0  0  0  0  0  0
   -0.0726   -1.4604   -0.8005 H   0  0  0  0  0  0  0  0  0  0  0  0
  1  2  1  0
  1  4  1  0
  2  3  2  3
  3  5  1  0
  6  7  1  0
  6 11  1  0
  6 12  1  0
  6 13  1  0
  7  8  1  0
  7 14  1  0
  7 15  1  0
  8  9  1  0
  9 10  1  0
  9 16  1  0
  9 17  1  0
 10 18  1  0
 10 19  1  0
 10 20  1  0
M  RAD  1   3   2
M  END
>  <reaction>  (15) 
rmg_rxn_15425

>  <mol_properties>  (15) 
{"1": {"label": "*4", "atom_type": "N3d"}, "2": {"label": "*3", "atom_type": "Cd"}, "5": {"label": "*1", "atom_type": "Cs"}, "6": {"label": "*0", "atom_type": "Cs"}, "10": {"label": "*2", "atom_type": "H0"}}

>  <type>  (15) 
unop_11

>  <geom_source>  (15) 
Heuristics

$$$$

     RDKit          3D

 20 18  0  0  0  0  0  0  0  0999 V2000
   -1.8860    3.4707    0.0639 O   0  0  0  0  0  0  0  0  0  0  0  0
   -1.0511    2.4016   -0.1949 N   0  0  0  0  0  0  0  0  0  0  0  0
   -1.2532    1.4418    0.5997 C   0  0  0  0  0  0  0  0  0  0  0  0
   -1.6317    4.1163   -0.5984 H   0  0  0  0  0  0  0  0  0  0  0  0
   -2.0034    1.4797    1.3867 H   0  0  0  0  0  0  0  0  0  0  0  0
    0.8608    0.2483    1.5495 C   0  0  0  0  0  3  0  0  0  0  0  0
    0.8608   -1.2134    1.1659 C   0  0  0  0  0  0  0  0  0  0  0  0
    0.8608   -1.3176   -0.2356 O   0  0  0  0  0  0  0  0  0  0  0  0
    0.8608   -2.6467   -0.6922 C   0  0  0  0  0  0  0  0  0  0  0  0
    0.8608   -2.6467   -2.2034 C   0  0  0  0  0  0  0  0  0  0  0  0
   -0.2004    0.8474    1.0727 H   0  0  0  0  0  0  0  0  0  0  0  0
    0.8608    0.3541    2.6354 H   0  0  0  0  0  0  0  0  0  0  0  0
    1.7452    0.7476    1.1522 H   0  0  0  0  0  0  0  0  0  0  0  0
    1.7458   -1.7194    1.5796 H   0  0  0  0  0  0  0  0  0  0  0  0
   -0.0241   -1.7193    1.5796 H   0  0  0  0  0  0  0  0  0  0  0  0
    1.7458   -3.1754   -0.3079 H   0  0  0  0  0  0  0  0  0  0  0  0
   -0.0241   -3.1754   -0.3079 H   0  0  0  0  0  0  0  0  0  0  0  0
    1.7452   -2.1357   -2.5855 H   0  0  0  0  0  0  0  0  0  0  0  0
    0.8608   -3.6703   -2.5814 H   0  0  0  0  0  0  0  0  0  0  0  0
   -0.0235   -2.1357   -2.5855 H   0  0  0  0  0  0  0  0  0  0  0  0
  1  2  1  0
  1  4  1  0
  2  3  2  3
  3  5  1  0
  3 11  1  0
  6  7  1  0
  6 12  1  0
  6 13  1  0
  7  8  1  0
  7 14  1  0
  7 15  1  0
  8  9  1  0
  9 10  1  0
  9 16  1  0
  9 17  1  0
 10 18  1  0
 10 19  1  0
 10 20  1  0
M  RAD  1   6   2
M  END
>  <reaction>  (16) 
rmg_rxn_15425

>  <mol_properties>  (16) 
{"1": {"label": "*4", "atom_type": "N3d"}, "2": {"label": "*3", "atom_type": "Cd"}, "5": {"label": "*1", "atom_type": "Cs"}, "6": {"label": "*0", "atom_type": "Cs"}, "10": {"label": "*2", "atom_type": "H0"}}

>  <type>  (16) 
unop_12

>  <geom_source>  (16) 
Heuristics

$$$$

     RDKit          3D

 20 18  0  0  0  0  0  0  0  0999 V2000
   -2.6327    2.8971    0.9430 O   0  0  0  0  0  0  0  0  0  0  0  0
   -1.9815    1.6799    0.9800 N   0  0  0  0  0  0  0  0  0  0  0  0
   -0.9585    1.6692    0.2405 C   0  0  0  0  0  0  0  0  0  0  0  0
   -3.3754    2.7696    1.5365 H   0  0  0  0  0  0  0  0  0  0  0  0
   -0.6496    2.5319   -0.3460 H   0  0  0  0  0  0  0  0  0  0  0  0
    1.1555    0.4757    1.1902 C   0  0  0  0  0  3  0  0  0  0  0  0
    1.1555   -0.9859    0.8066 C   0  0  0  0  0  0  0  0  0  0  0  0
    1.1555   -1.0901   -0.5949 O   0  0  0  0  0  0  0  0  0  0  0  0
    1.1555   -2.4193   -1.0514 C   0  0  0  0  0  0  0  0  0  0  0  0
    1.1555   -2.4193   -2.5626 C   0  0  0  0  0  0  0  0  0  0  0  0
    0.0943    1.0749    0.7135 H   0  0  0  0  0  0  0  0  0  0  0  0
    1.1555    0.5815    2.2762 H   0  0  0  0  0  0  0  0  0  0  0  0
    2.0399    0.9750    0.7929 H   0  0  0  0  0  0  0  0  0  0  0  0
    2.0405   -1.4919    1.2204 H   0  0  0  0  0  0  0  0  0  0  0  0
    0.2706   -1.4919    1.2204 H   0  0  0  0  0  0  0  0  0  0  0  0
    2.0405   -2.9480   -0.6671 H   0  0  0  0  0  0  0  0  0  0  0  0
    0.2706   -2.9479   -0.6671 H   0  0  0  0  0  0  0  0  0  0  0  0
    2.0399   -1.9082   -2.9447 H   0  0  0  0  0  0  0  0  0  0  0  0
    1.1555   -3.4428   -2.9406 H   0  0  0  0  0  0  0  0  0  0  0  0
    0.2712   -1.9082   -2.9447 H   0  0  0  0  0  0  0  0  0  0  0  0
  1  2  1  0
  1  4  1  0
  2  3  2  3
  3  5  1  0
  3 11  1  0
  6  7  1  0
  6 12  1  0
  6 13  1  0
  7  8  1  0
  7 14  1  0
  7 15  1  0
  8  9  1  0
  9 10  1  0
  9 16  1  0
  9 17  1  0
 10 18  1  0
 10 19  1  0
 10 20  1  0
M  RAD  1   6   2
M  END
>  <reaction>  (17) 
rmg_rxn_15425

>  <mol_properties>  (17) 
{"1": {"label": "*4", "atom_type": "N3d"}, "2": {"label": "*3", "atom_type": "Cd"}, "5": {"label": "*1", "atom_type": "Cs"}, "6": {"label": "*0", "atom_type": "Cs"}, "10": {"label": "*2", "atom_type": "H0"}}

>  <type>  (17) 
unop_13

>  <geom_source>  (17) 
Heuristics

$$$$

     RDKit          3D

 20 18  0  0  0  0  0  0  0  0999 V2000
   -3.2179    0.4414   -0.1321 O   0  0  0  0  0  0  0  0  0  0  0  0
   -1.9492   -0.1591   -0.2614 N   0  0  0  0  0  0  0  0  0  0  0  0
   -1.5109   -0.9026    0.6227 C   0  0  0  0  0  3  0  0  0  0  0  0
   -3.3245    0.9617   -0.9404 H   0  0  0  0  0  0  0  0  0  0  0  0
   -1.9532   -1.2122    1.5611 H   0  0  0  0  0  0  0  0  0  0  0  0
    0.8601   -1.8836    0.0689 C   0  0  0  0  0  0  0  0  0  0  0  0
    1.6531   -0.8703   -0.7215 C   0  0  0  0  0  0  0  0  0  0  0  0
    2.2851    0.1181    0.0617 O   0  0  0  0  0  0  0  0  0  0  0  0
    1.4416    1.0579    0.6963 C   0  0  0  0  0  0  0  0  0  0  0  0
    0.7112    1.9937   -0.2641 C   0  0  0  0  0  0  0  0  0  0  0  0
   -0.3177   -1.3900    0.3548 H   0  0  0  0  0  0  0  0  0  0  0  0
    0.6389   -2.7713   -0.5118 H   0  0  0  0  0  0  0  0  0  0  0  0
    1.3177   -2.1248    1.0220 H   0  0  0  0  0  0  0  0  0  0  0  0
    2.4885   -1.3724   -1.2282 H   0  0  0  0  0  0  0  0  0  0  0  0
    1.0178   -0.4177   -1.4961 H   0  0  0  0  0  0  0  0  0  0  0  0
    0.7120    0.5510    1.3429 H   0  0  0  0  0  0  0  0  0  0  0  0
    2.1225    1.6342    1.3286 H   0  0  0  0  0  0  0  0  0  0  0  0
    1.4138    2.4170   -0.9777 H   0  0  0  0  0  0  0  0  0  0  0  0
   -0.0710    1.4633   -0.8014 H   0  0  0  0  0  0  0  0  0  0  0  0
    0.2531    2.8001    0.3018 H   0  0  0  0  0  0  0  0  0  0  0  0
  1  2  1  0
  1  4  1  0
  2  3  2  3
  3  5  1  0
  6  7  1  0
  6 11  1  0
  6 12  1  0
  6 13  1  0
  7  8  1  0
  7 14  1  0
  7 15  1  0
  8  9  1  0
  9 10  1  0
  9 16  1  0
  9 17  1  0
 10 18  1  0
 10 19  1  0
 10 20  1  0
M  RAD  1   3   2
M  END
>  <reaction>  (18) 
rmg_rxn_15425

>  <mol_properties>  (18) 
{"1": {"label": "*4", "atom_type": "N3d"}, "2": {"label": "*3", "atom_type": "Cd"}, "5": {"label": "*1", "atom_type": "Cs"}, "6": {"label": "*0", "atom_type": "Cs"}, "10": {"label": "*2", "atom_type": "H0"}}

>  <type>  (18) 
unop_14

>  <geom_source>  (18) 
Heuristics

$$$$

     RDKit          3D

 20 18  0  0  0  0  0  0  0  0999 V2000
   -2.3876    2.2830   -0.8933 O   0  0  0  0  0  0  0  0  0  0  0  0
   -1.5475    1.3804   -0.2715 N   0  0  0  0  0  0  0  0  0  0  0  0
   -1.0751    1.8397    0.8052 C   0  0  0  0  0  0  0  0  0  0  0  0
   -2.6703    1.8161   -1.6821 H   0  0  0  0  0  0  0  0  0  0  0  0
   -1.3182    2.8333    1.1758 H   0  0  0  0  0  0  0  0  0  0  0  0
    1.0389    0.6462    1.7549 C   0  0  0  0  0  3  0  0  0  0  0  0
    1.0389   -0.8155    1.3713 C   0  0  0  0  0  0  0  0  0  0  0  0
    1.0389   -0.9197   -0.0302 O   0  0  0  0  0  0  0  0  0  0  0  0
    1.0389   -2.2488   -0.4867 C   0  0  0  0  0  0  0  0  0  0  0  0
    1.0389   -2.2488   -1.9979 C   0  0  0  0  0  0  0  0  0  0  0  0
   -0.0223    1.2453    1.2782 H   0  0  0  0  0  0  0  0  0  0  0  0
    1.0389    0.7520    2.8409 H   0  0  0  0  0  0  0  0  0  0  0  0
    1.9233    1.1455    1.3576 H   0  0  0  0  0  0  0  0  0  0  0  0
    1.9239   -1.3214    1.7851 H   0  0  0  0  0  0  0  0  0  0  0  0
    0.1540   -1.3214    1.7851 H   0  0  0  0  0  0  0  0  0  0  0  0
    1.9239   -2.7775   -0.1024 H   0  0  0  0  0  0  0  0  0  0  0  0
    0.1540   -2.7775   -0.1024 H   0  0  0  0  0  0  0  0  0  0  0  0
    1.9233   -1.7378   -2.3800 H   0  0  0  0  0  0  0  0  0  0  0  0
    1.0389   -3.2724   -2.3759 H   0  0  0  0  0  0  0  0  0  0  0  0
    0.1546   -1.7378   -2.3800 H   0  0  0  0  0  0  0  0  0  0  0  0
  1  2  1  0
  1  4  1  0
  2  3  2  3
  3  5  1  0
  3 11  1  0
  6  7  1  0
  6 12  1  0
  6 13  1  0
  7  8  1  0
  7 14  1  0
  7 15  1  0
  8  9  1  0
  9 10  1  0
  9 16  1  0
  9 17  1  0
 10 18  1  0
 10 19  1  0
 10 20  1  0
M  RAD  1   6   2
M  END
>  <reaction>  (19) 
rmg_rxn_15425

>  <mol_properties>  (19) 
{"1": {"label": "*4", "atom_type": "N3d"}, "2": {"label": "*3", "atom_type": "Cd"}, "5": {"label": "*1", "atom_type": "Cs"}, "6": {"label": "*0", "atom_type": "Cs"}, "10": {"label": "*2", "atom_type": "H0"}}

>  <type>  (19) 
unop_15

>  <geom_source>  (19) 
Heuristics

$$$$

     RDKit          3D

 20 18  0  0  0  0  0  0  0  0999 V2000
   -2.9592    2.3763    0.7740 O   0  0  0  0  0  0  0  0  0  0  0  0
   -2.0071    1.3787    0.7008 N   0  0  0  0  0  0  0  0  0  0  0  0
   -0.8885    1.8211    0.3178 C   0  0  0  0  0  0  0  0  0  0  0  0
   -3.7444    1.9124    1.0711 H   0  0  0  0  0  0  0  0  0  0  0  0
   -0.7225    2.8697    0.0802 H   0  0  0  0  0  0  0  0  0  0  0  0
    1.2255    0.6276    1.2675 C   0  0  0  0  0  3  0  0  0  0  0  0
    1.2255   -0.8341    0.8839 C   0  0  0  0  0  0  0  0  0  0  0  0
    1.2255   -0.9383   -0.5176 O   0  0  0  0  0  0  0  0  0  0  0  0
    1.2255   -2.2674   -0.9741 C   0  0  0  0  0  0  0  0  0  0  0  0
    1.2255   -2.2674   -2.4853 C   0  0  0  0  0  0  0  0  0  0  0  0
    0.1643    1.2267    0.7908 H   0  0  0  0  0  0  0  0  0  0  0  0
    1.2255    0.7334    2.3535 H   0  0  0  0  0  0  0  0  0  0  0  0
    2.1099    1.1269    0.8702 H   0  0  0  0  0  0  0  0  0  0  0  0
    2.1104   -1.3400    1.2977 H   0  0  0  0  0  0  0  0  0  0  0  0
    0.3406   -1.3400    1.2977 H   0  0  0  0  0  0  0  0  0  0  0  0
    2.1104   -2.7961   -0.5898 H   0  0  0  0  0  0  0  0  0  0  0  0
    0.3406   -2.7961   -0.5898 H   0  0  0  0  0  0  0  0  0  0  0  0
    2.1099   -1.7564   -2.8674 H   0  0  0  0  0  0  0  0  0  0  0  0
    1.2255   -3.2910   -2.8633 H   0  0  0  0  0  0  0  0  0  0  0  0
    0.3412   -1.7564   -2.8674 H   0  0  0  0  0  0  0  0  0  0  0  0
  1  2  1  0
  1  4  1  0
  2  3  2  3
  3  5  1  0
  3 11  1  0
  6  7  1  0
  6 12  1  0
  6 13  1  0
  7  8  1  0
  7 14  1  0
  7 15  1  0
  8  9  1  0
  9 10  1  0
  9 16  1  0
  9 17  1  0
 10 18  1  0
 10 19  1  0
 10 20  1  0
M  RAD  1   6   2
M  END
>  <reaction>  (20) 
rmg_rxn_15425

>  <mol_properties>  (20) 
{"1": {"label": "*4", "atom_type": "N3d"}, "2": {"label": "*3", "atom_type": "Cd"}, "5": {"label": "*1", "atom_type": "Cs"}, "6": {"label": "*0", "atom_type": "Cs"}, "10": {"label": "*2", "atom_type": "H0"}}

>  <type>  (20) 
unop_16

>  <geom_source>  (20) 
Heuristics

$$$$

     RDKit          3D

 20 18  0  0  0  0  0  0  0  0999 V2000
   -2.2340    3.3490    0.4038 O   0  0  0  0  0  0  0  0  0  0  0  0
   -1.0606    2.6525    0.1910 N   0  0  0  0  0  0  0  0  0  0  0  0
   -1.1813    1.4277    0.4714 C   0  0  0  0  0  0  0  0  0  0  0  0
   -2.0068    4.2475    0.1566 H   0  0  0  0  0  0  0  0  0  0  0  0
   -2.1121    0.9982    0.8359 H   0  0  0  0  0  0  0  0  0  0  0  0
    0.9327    0.2341    1.4211 C   0  0  0  0  0  3  0  0  0  0  0  0
    0.9327   -1.2275    1.0375 C   0  0  0  0  0  0  0  0  0  0  0  0
    0.9327   -1.3317   -0.3640 O   0  0  0  0  0  0  0  0  0  0  0  0
    0.9327   -2.6609   -0.8206 C   0  0  0  0  0  0  0  0  0  0  0  0
    0.9327   -2.6609   -2.3317 C   0  0  0  0  0  0  0  0  0  0  0  0
   -0.1285    0.8333    0.9443 H   0  0  0  0  0  0  0  0  0  0  0  0
    0.9327    0.3399    2.5071 H   0  0  0  0  0  0  0  0  0  0  0  0
    1.8171    0.7334    1.0238 H   0  0  0  0  0  0  0  0  0  0  0  0
    1.8176   -1.7335    1.4513 H   0  0  0  0  0  0  0  0  0  0  0  0
    0.0478   -1.7335    1.4513 H   0  0  0  0  0  0  0  0  0  0  0  0
    1.8176   -3.1895   -0.4362 H   0  0  0  0  0  0  0  0  0  0  0  0
    0.0478   -3.1895   -0.4362 H   0  0  0  0  0  0  0  0  0  0  0  0
    1.8171   -2.1498   -2.7138 H   0  0  0  0  0  0  0  0  0  0  0  0
    0.9327   -3.6844   -2.7097 H   0  0  0  0  0  0  0  0  0  0  0  0
    0.0483   -2.1498   -2.7138 H   0  0  0  0  0  0  0  0  0  0  0  0
  1  2  1  0
  1  4  1  0
  2  3  2  3
  3  5  1  0
  3 11  1  0
  6  7  1  0
  6 12  1  0
  6 13  1  0
  7  8  1  0
  7 14  1  0
  7 15  1  0
  8  9  1  0
  9 10  1  0
  9 16  1  0
  9 17  1  0
 10 18  1  0
 10 19  1  0
 10 20  1  0
M  RAD  1   6   2
M  END
>  <reaction>  (21) 
rmg_rxn_15425

>  <mol_properties>  (21) 
{"1": {"label": "*4", "atom_type": "N3d"}, "2": {"label": "*3", "atom_type": "Cd"}, "5": {"label": "*1", "atom_type": "Cs"}, "6": {"label": "*0", "atom_type": "Cs"}, "10": {"label": "*2", "atom_type": "H0"}}

>  <type>  (21) 
unop_17

>  <geom_source>  (21) 
Heuristics

$$$$

     RDKit          3D

 20 18  0  0  0  0  0  0  0  0999 V2000
   -2.8357    1.9455   -0.4492 O   0  0  0  0  0  0  0  0  0  0  0  0
   -1.7533    1.2192    0.0068 N   0  0  0  0  0  0  0  0  0  0  0  0
   -0.9527    1.9329    0.6724 C   0  0  0  0  0  0  0  0  0  0  0  0
   -3.3530    1.2956   -0.9288 H   0  0  0  0  0  0  0  0  0  0  0  0
   -1.1206    2.9929    0.8503 H   0  0  0  0  0  0  0  0  0  0  0  0
    1.1614    0.7393    1.6221 C   0  0  0  0  0  3  0  0  0  0  0  0
    1.1614   -0.7223    1.2385 C   0  0  0  0  0  0  0  0  0  0  0  0
    1.1614   -0.8265   -0.1630 O   0  0  0  0  0  0  0  0  0  0  0  0
    1.1614   -2.1557   -0.6195 C   0  0  0  0  0  0  0  0  0  0  0  0
    1.1614   -2.1557   -2.1307 C   0  0  0  0  0  0  0  0  0  0  0  0
    0.1001    1.3385    1.1454 H   0  0  0  0  0  0  0  0  0  0  0  0
    1.1614    0.8451    2.7081 H   0  0  0  0  0  0  0  0  0  0  0  0
    2.0458    1.2386    1.2248 H   0  0  0  0  0  0  0  0  0  0  0  0
    2.0463   -1.2283    1.6523 H   0  0  0  0  0  0  0  0  0  0  0  0
    0.2765   -1.2283    1.6523 H   0  0  0  0  0  0  0  0  0  0  0  0
    2.0463   -2.6843   -0.2352 H   0  0  0  0  0  0  0  0  0  0  0  0
    0.2765   -2.6843   -0.2352 H   0  0  0  0  0  0  0  0  0  0  0  0
    2.0458   -1.6446   -2.5128 H   0  0  0  0  0  0  0  0  0  0  0  0
    1.1614   -3.1792   -2.5087 H   0  0  0  0  0  0  0  0  0  0  0  0
    0.2770   -1.6446   -2.5128 H   0  0  0  0  0  0  0  0  0  0  0  0
  1  2  1  0
  1  4  1  0
  2  3  2  3
  3  5  1  0
  3 11  1  0
  6  7  1  0
  6 12  1  0
  6 13  1  0
  7  8  1  0
  7 14  1  0
  7 15  1  0
  8  9  1  0
  9 10  1  0
  9 16  1  0
  9 17  1  0
 10 18  1  0
 10 19  1  0
 10 20  1  0
M  RAD  1   6   2
M  END
>  <reaction>  (22) 
rmg_rxn_15425

>  <mol_properties>  (22) 
{"1": {"label": "*4", "atom_type": "N3d"}, "2": {"label": "*3", "atom_type": "Cd"}, "5": {"label": "*1", "atom_type": "Cs"}, "6": {"label": "*0", "atom_type": "Cs"}, "10": {"label": "*2", "atom_type": "H0"}}

>  <type>  (22) 
unop_18

>  <geom_source>  (22) 
Heuristics

$$$$

     RDKit          3D

 20 18  0  0  0  0  0  0  0  0999 V2000
   -0.9824   -0.6015    0.8182 O   0  0  0  0  0  0  0  0  0  0  0  0
    4.7873    0.1352    0.0515 O   0  0  0  0  0  0  0  0  0  0  0  0
    3.5823   -0.2571   -0.4825 N   0  0  0  0  0  0  0  0  0  0  0  0
   -2.3361   -0.6321    0.4046 C   0  0  0  0  0  0  0  0  0  0  0  0
   -0.2071    0.2408   -0.0148 C   0  0  0  0  0  0  0  0  0  0  0  0
   -3.1469    0.4140    1.1622 C   0  0  0  0  0  0  0  0  0  0  0  0
    0.4341   -0.5649   -1.1367 C   0  0  0  0  0  3  0  0  0  0  0  0
    2.6868    0.6199   -0.7955 C   0  0  0  0  0  0  0  0  0  0  0  0
   -2.7473   -1.6334    0.6521 H   0  0  0  0  0  0  0  0  0  0  0  0
   -2.4685   -0.5002   -0.6948 H   0  0  0  0  0  0  0  0  0  0  0  0
   -2.7879    1.4350    0.9157 H   0  0  0  0  0  0  0  0  0  0  0  0
   -4.2176    0.3343    0.8790 H   0  0  0  0  0  0  0  0  0  0  0  0
   -3.0512    0.2492    2.2563 H   0  0  0  0  0  0  0  0  0  0  0  0
   -0.7786    1.0986   -0.4390 H   0  0  0  0  0  0  0  0  0  0  0  0
    0.6073    0.6783    0.5993 H   0  0  0  0  0  0  0  0  0  0  0  0
   -0.3398   -0.9805   -1.8152 H   0  0  0  0  0  0  0  0  0  0  0  0
    1.0472   -1.3908   -0.7177 H   0  0  0  0  0  0  0  0  0  0  0  0
    2.8716    1.6758   -0.6420 H   0  0  0  0  0  0  0  0  0  0  0  0
    1.5635    0.2380   -1.2944 H   0  0  0  0  0  0  0  0  0  0  0  0
    5.4834   -0.5585    0.2938 H   0  0  0  0  0  0  0  0  0  0  0  0
  1  5  1  0
  1  4  1  0
  2  3  1  0
  2 20  1  0
  3  8  2  3
  4  6  1  0
  4  9  1  0
  4 10  1  0
  5  7  1  0
  5 14  1  0
  5 15  1  0
  6 11  1  0
  6 12  1  0
  6 13  1  0
  7 16  1  0
  7 17  1  0
  8 18  1  0
  8 19  1  0
M  RAD  1   7   2
M  END
>  <reaction>  (23) 
rmg_rxn_15425

>  <mol_properties>  (23) 
{"1": {"label": "*4", "atom_type": "N3d"}, "2": {"label": "*3", "atom_type": "Cd"}, "5": {"label": "*1", "atom_type": "Cs"}, "6": {"label": "*0", "atom_type": "Cs"}, "10": {"label": "*2", "atom_type": "H0"}}

>  <type>  (23) 
unop_19

>  <geom_source>  (23) 
AutoTST

$$$$

     RDKit          3D

 20 18  0  0  0  0  0  0  0  0999 V2000
   -3.0583    1.9883    0.2294 O   0  0  0  0  0  0  0  0  0  0  0  0
   -1.9192    1.2171    0.3507 N   0  0  0  0  0  0  0  0  0  0  0  0
   -0.8820    1.9245    0.4820 C   0  0  0  0  0  0  0  0  0  0  0  0
   -3.7578    1.3383    0.1383 H   0  0  0  0  0  0  0  0  0  0  0  0
   -0.9114    3.0120    0.4948 H   0  0  0  0  0  0  0  0  0  0  0  0
    1.2320    0.7310    1.4318 C   0  0  0  0  0  3  0  0  0  0  0  0
    1.2320   -0.7306    1.0481 C   0  0  0  0  0  0  0  0  0  0  0  0
    1.2320   -0.8348   -0.3534 O   0  0  0  0  0  0  0  0  0  0  0  0
    1.2320   -2.1640   -0.8099 C   0  0  0  0  0  0  0  0  0  0  0  0
    1.2320   -2.1640   -2.3211 C   0  0  0  0  0  0  0  0  0  0  0  0
    0.1708    1.3302    0.9550 H   0  0  0  0  0  0  0  0  0  0  0  0
    1.2320    0.8368    2.5177 H   0  0  0  0  0  0  0  0  0  0  0  0
    2.1164    1.2303    1.0345 H   0  0  0  0  0  0  0  0  0  0  0  0
    2.1169   -1.2366    1.4619 H   0  0  0  0  0  0  0  0  0  0  0  0
    0.3471   -1.2366    1.4619 H   0  0  0  0  0  0  0  0  0  0  0  0
    2.1169   -2.6926   -0.4256 H   0  0  0  0  0  0  0  0  0  0  0  0
    0.3471   -2.6926   -0.4256 H   0  0  0  0  0  0  0  0  0  0  0  0
    2.1164   -1.6529   -2.7032 H   0  0  0  0  0  0  0  0  0  0  0  0
    1.2320   -3.1875   -2.6991 H   0  0  0  0  0  0  0  0  0  0  0  0
    0.3477   -1.6529   -2.7032 H   0  0  0  0  0  0  0  0  0  0  0  0
  1  2  1  0
  1  4  1  0
  2  3  2  3
  3  5  1  0
  3 11  1  0
  6  7  1  0
  6 12  1  0
  6 13  1  0
  7  8  1  0
  7 14  1  0
  7 15  1  0
  8  9  1  0
  9 10  1  0
  9 16  1  0
  9 17  1  0
 10 18  1  0
 10 19  1  0
 10 20  1  0
M  RAD  1   6   2
M  END
>  <reaction>  (24) 
rmg_rxn_15425

>  <mol_properties>  (24) 
{"1": {"label": "*4", "atom_type": "N3d"}, "2": {"label": "*3", "atom_type": "Cd"}, "5": {"label": "*1", "atom_type": "Cs"}, "6": {"label": "*0", "atom_type": "Cs"}, "10": {"label": "*2", "atom_type": "H0"}}

>  <type>  (24) 
unop_20

>  <geom_source>  (24) 
gaussian_log

$$$$
