
     RDKit          3D

  6  5  0  0  0  0  0  0  0  0999 V2000
    1.2314    0.0428    0.5088 O   0  0  0  0  0  0  0  0  0  0  0  0
    0.2987    0.2341   -0.4915 N   0  0  0  0  0  0  0  0  0  0  0  0
   -0.8599   -0.1122   -0.1290 C   0  0  0  0  0  0  0  0  0  0  0  0
    2.0507    0.3401    0.1082 H   0  0  0  0  0  0  0  0  0  0  0  0
   -1.0700   -0.5112    0.8610 H   0  0  0  0  0  0  0  0  0  0  0  0
   -1.6509    0.0064   -0.8574 H   0  0  0  0  0  0  0  0  0  0  0  0
  1  2  1  0
  1  4  1  0
  2  3  2  3
  3  5  1  0
  3  6  1  0
M  END
>  <reaction>  (1) 
rmg_rxn_15469

>  <mol_properties>  (1) 
{"2": {"label": "donator", "atom_type": "Cd"}, "4": {"label": "d_hydrogen", "atom_type": "H0"}}

>  <type>  (1) 
r1h

$$$$

     RDKit          3D

  3  2  0  0  0  0  0  0  0  0999 V2000
    0.0000    0.0000    0.1037 C   0  0  0  0  0  2  0  0  0  0  0  0
    0.0000    0.9954   -0.3147 H   0  0  0  0  0  0  0  0  0  0  0  0
    0.0000   -0.9954   -0.3147 H   0  0  0  0  0  0  0  0  0  0  0  0
  1  2  1  0
  1  3  1  0
M  RAD  1   1   3
M  END
>  <reaction>  (2) 
rmg_rxn_15469

>  <mol_properties>  (2) 
{"0": {"label": "acceptor", "atom_type": "Cs"}}

>  <type>  (2) 
r2

$$$$

     RDKit          3D

  4  3  0  0  0  0  0  0  0  0999 V2000
    0.0000    0.0000    0.0000 C   0  0  0  0  0  3  0  0  0  0  0  0
    1.0638   -0.1747    0.0540 H   0  0  0  0  0  0  0  0  0  0  0  0
   -0.6833   -0.8351   -0.0280 H   0  0  0  0  0  0  0  0  0  0  0  0
   -0.3805    1.0098   -0.0260 H   0  0  0  0  0  0  0  0  0  0  0  0
  1  2  1  0
  1  3  1  0
  1  4  1  0
M  RAD  1   1   2
M  END
>  <reaction>  (3) 
rmg_rxn_15469

>  <mol_properties>  (3) 
{"0": {"label": "acceptor", "atom_type": "Cs"}, "3": {"label": "a_hydrogen", "atom_type": "H0"}}

>  <type>  (3) 
r2h

$$$$

     RDKit          3D

  9  7  0  0  0  0  0  0  0  0999 V2000
    0.0110    2.2941   -0.3710 C   0  0  0  0  0  2  0  0  0  0  0  0
   -0.1599    3.2418    0.1228 H   0  0  0  0  0  0  0  0  0  0  0  0
    0.2640    2.1648   -1.4140 H   0  0  0  0  0  0  0  0  0  0  0  0
    0.3099   -0.9817   -0.8366 O   0  0  0  0  0  0  0  0  0  0  0  0
   -0.0033   -1.0521    0.5109 N   0  0  0  0  0  0  0  0  0  0  0  0
   -0.1942    0.0589    1.0490 C   0  0  0  0  0  0  0  0  0  0  0  0
    0.4210   -1.9025   -1.0829 H   0  0  0  0  0  0  0  0  0  0  0  0
   -0.0985    1.1659    0.3713 H   0  0  0  0  0  0  0  0  0  0  0  0
   -0.4450    0.1066    2.1029 H   0  0  0  0  0  0  0  0  0  0  0  0
  1  2  1  0
  1  3  1  0
  4  5  1  0
  4  7  1  0
  5  6  2  3
  6  8  1  0
  6  9  1  0
M  RAD  1   1   3
M  END
>  <reaction>  (4) 
rmg_rxn_15469

>  <mol_properties>  (4) 
{"0": {"label": "*3", "atom_type": "Cs"}, "1": {"label": "*4", "atom_type": "H0"}, "4": {"label": "*0", "atom_type": "N3d"}, "5": {"label": "*1", "atom_type": "Cd"}, "7": {"label": "*2", "atom_type": "H0"}}

>  <type>  (4) 
ts

$$$$

     RDKit          3D

  9  7  0  0  0  0  0  0  0  0999 V2000
   -2.0059   -0.2403    0.0000 C   0  0  0  0  0  3  0  0  0  0  0  0
   -1.8040   -0.8445   -0.8940 H   0  0  0  0  0  0  0  0  0  0  0  0
   -1.8041   -0.8449    0.8938 H   0  0  0  0  0  0  0  0  0  0  0  0
    0.8951   -0.9663    0.0000 O   0  0  0  0  0  0  0  0  0  0  0  0
    1.0060    0.3526   -0.0000 N   0  0  0  0  0  0  0  0  0  0  0  0
    0.0411    1.1162   -0.0000 C   0  0  0  0  0  3  0  0  0  0  0  0
   -0.0722   -1.2379    0.0001 H   0  0  0  0  0  0  0  0  0  0  0  0
   -1.2256    0.7471    0.0002 H   0  0  0  0  0  0  0  0  0  0  0  0
    0.1316    2.1823    0.0004 H   0  0  0  0  0  0  0  0  0  0  0  0
  1  2  1  0
  1  3  1  0
  1  8  1  0
  4  5  1  0
  4  7  1  0
  5  6  2  3
  6  9  1  0
M  RAD  2   1   2   6   2
M  END
>  <reaction>  (5) 
rmg_rxn_15469

>  <mol_properties>  (5) 
{"0": {"label": "*3", "atom_type": "Cs"}, "1": {"label": "*4", "atom_type": "H0"}, "4": {"label": "*0", "atom_type": "N3d"}, "5": {"label": "*1", "atom_type": "Cd"}, "7": {"label": "*2", "atom_type": "H0"}}

>  <type>  (5) 
unop_1

>  <geom_source>  (5) 
crest_best.xyz

$$$$

     RDKit          3D

  9  7  0  0  0  0  0  0  0  0999 V2000
   -0.0021    2.2062   -0.5061 C   0  0  0  0  0  3  0  0  0  0  0  0
   -0.8117    2.9169   -0.4379 H   0  0  0  0  0  0  0  0  0  0  0  0
    0.9315    2.7474   -0.5312 H   0  0  0  0  0  0  0  0  0  0  0  0
   -0.0021   -1.0842   -0.8520 O   0  0  0  0  0  0  0  0  0  0  0  0
   -0.0021   -1.0842    0.5290 N   0  0  0  0  0  0  0  0  0  0  0  0
   -0.0021    0.0866    1.0009 C   0  0  0  0  0  3  0  0  0  0  0  0
   -0.0021   -2.0174   -1.0740 H   0  0  0  0  0  0  0  0  0  0  0  0
   -0.0021    1.1506    0.2444 H   0  0  0  0  0  0  0  0  0  0  0  0
   -0.0021    0.1740    2.0792 H   0  0  0  0  0  0  0  0  0  0  0  0
  1  2  1  0
  1  3  1  0
  1  8  1  0
  4  5  1  0
  4  7  1  0
  5  6  2  3
  6  9  1  0
M  RAD  2   1   2   6   2
M  END
>  <reaction>  (6) 
rmg_rxn_15469

>  <mol_properties>  (6) 
{"0": {"label": "*3", "atom_type": "Cs"}, "1": {"label": "*4", "atom_type": "H0"}, "4": {"label": "*0", "atom_type": "N3d"}, "5": {"label": "*1", "atom_type": "Cd"}, "7": {"label": "*2", "atom_type": "H0"}}

>  <type>  (6) 
unop_2

>  <geom_source>  (6) 
Heuristics

$$$$

     RDKit          3D

  9  7  0  0  0  0  0  0  0  0999 V2000
    0.0011    2.2195   -0.5035 C   0  0  0  0  0  3  0  0  0  0  0  0
   -0.4663    2.1902   -1.4761 H   0  0  0  0  0  0  0  0  0  0  0  0
    0.4066    2.7256    0.3593 H   0  0  0  0  0  0  0  0  0  0  0  0
    0.0011   -1.0710   -0.8494 O   0  0  0  0  0  0  0  0  0  0  0  0
    0.0011   -1.0710    0.5316 N   0  0  0  0  0  0  0  0  0  0  0  0
    0.0011    0.0998    1.0036 C   0  0  0  0  0  3  0  0  0  0  0  0
    0.0011   -2.0041   -1.0714 H   0  0  0  0  0  0  0  0  0  0  0  0
    0.0011    1.1638    0.2471 H   0  0  0  0  0  0  0  0  0  0  0  0
    0.0011    0.1872    2.0819 H   0  0  0  0  0  0  0  0  0  0  0  0
  1  2  1  0
  1  3  1  0
  1  8  1  0
  4  5  1  0
  4  7  1  0
  5  6  2  3
  6  9  1  0
M  RAD  2   1   2   6   2
M  END
>  <reaction>  (7) 
rmg_rxn_15469

>  <mol_properties>  (7) 
{"0": {"label": "*3", "atom_type": "Cs"}, "1": {"label": "*4", "atom_type": "H0"}, "4": {"label": "*0", "atom_type": "N3d"}, "5": {"label": "*1", "atom_type": "Cd"}, "7": {"label": "*2", "atom_type": "H0"}}

>  <type>  (7) 
unop_3

>  <geom_source>  (7) 
Heuristics

$$$$

     RDKit          3D

  9  7  0  0  0  0  0  0  0  0999 V2000
   -0.0053    2.2025   -0.5029 C   0  0  0  0  0  3  0  0  0  0  0  0
   -0.4727    3.1115   -0.1558 H   0  0  0  0  0  0  0  0  0  0  0  0
    0.7730    2.7622   -0.9991 H   0  0  0  0  0  0  0  0  0  0  0  0
   -0.0053   -1.0879   -0.8487 O   0  0  0  0  0  0  0  0  0  0  0  0
   -0.0053   -1.0879    0.5322 N   0  0  0  0  0  0  0  0  0  0  0  0
   -0.0053    0.0829    1.0042 C   0  0  0  0  0  3  0  0  0  0  0  0
   -0.0053   -2.0211   -1.0707 H   0  0  0  0  0  0  0  0  0  0  0  0
   -0.0053    1.1469    0.2477 H   0  0  0  0  0  0  0  0  0  0  0  0
   -0.0053    0.1703    2.0825 H   0  0  0  0  0  0  0  0  0  0  0  0
  1  2  1  0
  1  3  1  0
  1  8  1  0
  4  5  1  0
  4  7  1  0
  5  6  2  3
  6  9  1  0
M  RAD  2   1   2   6   2
M  END
>  <reaction>  (8) 
rmg_rxn_15469

>  <mol_properties>  (8) 
{"0": {"label": "*3", "atom_type": "Cs"}, "1": {"label": "*4", "atom_type": "H0"}, "4": {"label": "*0", "atom_type": "N3d"}, "5": {"label": "*1", "atom_type": "Cd"}, "7": {"label": "*2", "atom_type": "H0"}}

>  <type>  (8) 
unop_4

>  <geom_source>  (8) 
Heuristics

$$$$

     RDKit          3D

  9  7  0  0  0  0  0  0  0  0999 V2000
   -0.0017    2.2159   -0.5043 C   0  0  0  0  0  3  0  0  0  0  0  0
    0.8078    2.3849   -1.1980 H   0  0  0  0  0  0  0  0  0  0  0  0
   -0.7090    2.7312    0.1277 H   0  0  0  0  0  0  0  0  0  0  0  0
   -0.0017   -1.0745   -0.8502 O   0  0  0  0  0  0  0  0  0  0  0  0
   -0.0017   -1.0745    0.5308 N   0  0  0  0  0  0  0  0  0  0  0  0
   -0.0017    0.0963    1.0027 C   0  0  0  0  0  3  0  0  0  0  0  0
   -0.0017   -2.0077   -1.0722 H   0  0  0  0  0  0  0  0  0  0  0  0
   -0.0017    1.1603    0.2462 H   0  0  0  0  0  0  0  0  0  0  0  0
   -0.0017    0.1837    2.0810 H   0  0  0  0  0  0  0  0  0  0  0  0
  1  2  1  0
  1  3  1  0
  1  8  1  0
  4  5  1  0
  4  7  1  0
  5  6  2  3
  6  9  1  0
M  RAD  2   1   2   6   2
M  END
>  <reaction>  (9) 
rmg_rxn_15469

>  <mol_properties>  (9) 
{"0": {"label": "*3", "atom_type": "Cs"}, "1": {"label": "*4", "atom_type": "H0"}, "4": {"label": "*0", "atom_type": "N3d"}, "5": {"label": "*1", "atom_type": "Cd"}, "7": {"label": "*2", "atom_type": "H0"}}

>  <type>  (9) 
unop_5

>  <geom_source>  (9) 
Heuristics

$$$$

     RDKit          3D

  9  7  0  0  0  0  0  0  0  0999 V2000
    0.0000    2.2010   -0.4975 C   0  0  0  0  0  3  0  0  0  0  0  0
    0.0000    3.1826   -0.0484 H   0  0  0  0  0  0  0  0  0  0  0  0
    0.0000    2.7771   -1.4103 H   0  0  0  0  0  0  0  0  0  0  0  0
   -0.0000   -1.0894   -0.8433 O   0  0  0  0  0  0  0  0  0  0  0  0
   -0.0000   -1.0894    0.5376 N   0  0  0  0  0  0  0  0  0  0  0  0
   -0.0000    0.0813    1.0096 C   0  0  0  0  0  3  0  0  0  0  0  0
   -0.0000   -2.0226   -1.0653 H   0  0  0  0  0  0  0  0  0  0  0  0
    0.0000    1.1453    0.2531 H   0  0  0  0  0  0  0  0  0  0  0  0
   -0.0000    0.1688    2.0879 H   0  0  0  0  0  0  0  0  0  0  0  0
  1  2  1  0
  1  3  1  0
  1  8  1  0
  4  5  1  0
  4  7  1  0
  5  6  2  3
  6  9  1  0
M  RAD  2   1   2   6   2
M  END
>  <reaction>  (10) 
rmg_rxn_15469

>  <mol_properties>  (10) 
{"0": {"label": "*3", "atom_type": "Cs"}, "1": {"label": "*4", "atom_type": "H0"}, "4": {"label": "*0", "atom_type": "N3d"}, "5": {"label": "*1", "atom_type": "Cd"}, "7": {"label": "*2", "atom_type": "H0"}}

>  <type>  (10) 
unop_6

>  <geom_source>  (10) 
Heuristics

$$$$

     RDKit          3D

  9  7  0  0  0  0  0  0  0  0999 V2000
   -2.0058    0.2407    0.0000 C   0  0  0  0  0  3  0  0  0  0  0  0
   -1.8038    0.8449   -0.8937 H   0  0  0  0  0  0  0  0  0  0  0  0
   -1.8039    0.8445    0.8940 H   0  0  0  0  0  0  0  0  0  0  0  0
    0.8954    0.9662   -0.0000 O   0  0  0  0  0  0  0  0  0  0  0  0
    1.0059   -0.3528    0.0001 N   0  0  0  0  0  0  0  0  0  0  0  0
    0.0408   -1.1161   -0.0002 C   0  0  0  0  0  3  0  0  0  0  0  0
   -0.0719    1.2379   -0.0003 H   0  0  0  0  0  0  0  0  0  0  0  0
   -1.2263   -0.7471   -0.0001 H   0  0  0  0  0  0  0  0  0  0  0  0
    0.1310   -2.1823    0.0003 H   0  0  0  0  0  0  0  0  0  0  0  0
  1  2  1  0
  1  3  1  0
  1  8  1  0
  4  5  1  0
  4  7  1  0
  5  6  2  3
  6  9  1  0
M  RAD  2   1   2   6   2
M  END
>  <reaction>  (11) 
rmg_rxn_15469

>  <mol_properties>  (11) 
{"0": {"label": "*3", "atom_type": "Cs"}, "1": {"label": "*4", "atom_type": "H0"}, "4": {"label": "*0", "atom_type": "N3d"}, "5": {"label": "*1", "atom_type": "Cd"}, "7": {"label": "*2", "atom_type": "H0"}}

>  <type>  (11) 
unop_7

>  <geom_source>  (11) 
Heuristics

$$$$

     RDKit          3D

  9  7  0  0  0  0  0  0  0  0999 V2000
   -0.0009    2.2111   -0.5057 C   0  0  0  0  0  3  0  0  0  0  0  0
    0.9339    2.6510   -0.8185 H   0  0  0  0  0  0  0  0  0  0  0  0
   -0.8825    2.7382   -0.1737 H   0  0  0  0  0  0  0  0  0  0  0  0
   -0.0009   -1.0793   -0.8516 O   0  0  0  0  0  0  0  0  0  0  0  0
   -0.0009   -1.0793    0.5294 N   0  0  0  0  0  0  0  0  0  0  0  0
   -0.0009    0.0914    1.0014 C   0  0  0  0  0  3  0  0  0  0  0  0
   -0.0009   -2.0125   -1.0736 H   0  0  0  0  0  0  0  0  0  0  0  0
   -0.0009    1.1554    0.2449 H   0  0  0  0  0  0  0  0  0  0  0  0
   -0.0009    0.1789    2.0797 H   0  0  0  0  0  0  0  0  0  0  0  0
  1  2  1  0
  1  3  1  0
  1  8  1  0
  4  5  1  0
  4  7  1  0
  5  6  2  3
  6  9  1  0
M  RAD  2   1   2   6   2
M  END
>  <reaction>  (12) 
rmg_rxn_15469

>  <mol_properties>  (12) 
{"0": {"label": "*3", "atom_type": "Cs"}, "1": {"label": "*4", "atom_type": "H0"}, "4": {"label": "*0", "atom_type": "N3d"}, "5": {"label": "*1", "atom_type": "Cd"}, "7": {"label": "*2", "atom_type": "H0"}}

>  <type>  (12) 
unop_8

>  <geom_source>  (12) 
Heuristics

$$$$

     RDKit          3D

  9  8  0  0  0  0  0  0  0  0999 V2000
   -1.4924   -0.5317    0.0002 C   0  0  0  0  0  0  0  0  0  0  0  0
   -1.2233   -1.2233   -0.7689 H   0  0  0  0  0  0  0  0  0  0  0  0
   -1.2244   -1.2221    0.7673 H   0  0  0  0  0  0  0  0  0  0  0  0
    1.2588   -0.5892    0.0001 O   0  0  0  0  0  0  0  0  0  0  0  0
    0.6469    0.6692   -0.0001 N   0  0  0  0  0  0  0  0  0  0  0  0
   -0.6155    0.6612   -0.0000 C   0  0  0  0  0  0  0  0  0  0  0  0
    2.2043   -0.3894   -0.0002 H   0  0  0  0  0  0  0  0  0  0  0  0
   -2.5479   -0.2994   -0.0007 H   0  0  0  0  0  0  0  0  0  0  0  0
   -1.0611    1.6451   -0.0002 H   0  0  0  0  0  0  0  0  0  0  0  0
  1  6  1  0
  1  2  1  0
  1  3  1  0
  1  8  1  0
  4  5  1  0
  4  7  1  0
  5  6  2  3
  6  9  1  0
M  END
>  <reaction>  (13) 
rmg_rxn_15469

>  <mol_properties>  (13) 
{"0": {"label": "*3", "atom_type": "Cs"}, "1": {"label": "*4", "atom_type": "H0"}, "4": {"label": "*0", "atom_type": "N3d"}, "5": {"label": "*1", "atom_type": "Cd"}, "7": {"label": "*2", "atom_type": "H0"}}

>  <type>  (13) 
unop_9

>  <geom_source>  (13) 
Heuristics

$$$$

     RDKit          3D

  9  7  0  0  0  0  0  0  0  0999 V2000
    0.0021    2.2062   -0.5061 C   0  0  0  0  0  3  0  0  0  0  0  0
    0.8117    2.9169   -0.4379 H   0  0  0  0  0  0  0  0  0  0  0  0
   -0.9315    2.7474   -0.5312 H   0  0  0  0  0  0  0  0  0  0  0  0
    0.0021   -1.0842   -0.8520 O   0  0  0  0  0  0  0  0  0  0  0  0
    0.0021   -1.0842    0.5290 N   0  0  0  0  0  0  0  0  0  0  0  0
    0.0021    0.0866    1.0009 C   0  0  0  0  0  3  0  0  0  0  0  0
    0.0021   -2.0174   -1.0740 H   0  0  0  0  0  0  0  0  0  0  0  0
    0.0021    1.1506    0.2444 H   0  0  0  0  0  0  0  0  0  0  0  0
    0.0021    0.1740    2.0792 H   0  0  0  0  0  0  0  0  0  0  0  0
  1  2  1  0
  1  3  1  0
  1  8  1  0
  4  5  1  0
  4  7  1  0
  5  6  2  3
  6  9  1  0
M  RAD  2   1   2   6   2
M  END
>  <reaction>  (14) 
rmg_rxn_15469

>  <mol_properties>  (14) 
{"0": {"label": "*3", "atom_type": "Cs"}, "1": {"label": "*4", "atom_type": "H0"}, "4": {"label": "*0", "atom_type": "N3d"}, "5": {"label": "*1", "atom_type": "Cd"}, "7": {"label": "*2", "atom_type": "H0"}}

>  <type>  (14) 
unop_10

>  <geom_source>  (14) 
Heuristics

$$$$

     RDKit          3D

  9  7  0  0  0  0  0  0  0  0999 V2000
    0.0009    2.2111   -0.5057 C   0  0  0  0  0  3  0  0  0  0  0  0
   -0.9339    2.6510   -0.8185 H   0  0  0  0  0  0  0  0  0  0  0  0
    0.8825    2.7382   -0.1737 H   0  0  0  0  0  0  0  0  0  0  0  0
    0.0009   -1.0793   -0.8516 O   0  0  0  0  0  0  0  0  0  0  0  0
    0.0009   -1.0793    0.5294 N   0  0  0  0  0  0  0  0  0  0  0  0
    0.0009    0.0914    1.0014 C   0  0  0  0  0  3  0  0  0  0  0  0
    0.0009   -2.0125   -1.0736 H   0  0  0  0  0  0  0  0  0  0  0  0
    0.0009    1.1554    0.2449 H   0  0  0  0  0  0  0  0  0  0  0  0
    0.0009    0.1789    2.0797 H   0  0  0  0  0  0  0  0  0  0  0  0
  1  2  1  0
  1  3  1  0
  1  8  1  0
  4  5  1  0
  4  7  1  0
  5  6  2  3
  6  9  1  0
M  RAD  2   1   2   6   2
M  END
>  <reaction>  (15) 
rmg_rxn_15469

>  <mol_properties>  (15) 
{"0": {"label": "*3", "atom_type": "Cs"}, "1": {"label": "*4", "atom_type": "H0"}, "4": {"label": "*0", "atom_type": "N3d"}, "5": {"label": "*1", "atom_type": "Cd"}, "7": {"label": "*2", "atom_type": "H0"}}

>  <type>  (15) 
unop_11

>  <geom_source>  (15) 
Heuristics

$$$$

     RDKit          3D

  9  7  0  0  0  0  0  0  0  0999 V2000
   -2.0059   -0.2403    0.0000 C   0  0  0  0  0  3  0  0  0  0  0  0
   -1.8040   -0.8445   -0.8940 H   0  0  0  0  0  0  0  0  0  0  0  0
   -1.8041   -0.8449    0.8938 H   0  0  0  0  0  0  0  0  0  0  0  0
    0.8951   -0.9663    0.0000 O   0  0  0  0  0  0  0  0  0  0  0  0
    1.0060    0.3526   -0.0000 N   0  0  0  0  0  0  0  0  0  0  0  0
    0.0411    1.1162   -0.0000 C   0  0  0  0  0  3  0  0  0  0  0  0
   -0.0722   -1.2379    0.0001 H   0  0  0  0  0  0  0  0  0  0  0  0
   -1.2256    0.7471    0.0002 H   0  0  0  0  0  0  0  0  0  0  0  0
    0.1316    2.1823    0.0004 H   0  0  0  0  0  0  0  0  0  0  0  0
  1  2  1  0
  1  3  1  0
  1  8  1  0
  4  5  1  0
  4  7  1  0
  5  6  2  3
  6  9  1  0
M  RAD  2   1   2   6   2
M  END
>  <reaction>  (16) 
rmg_rxn_15469

>  <mol_properties>  (16) 
{"0": {"label": "*3", "atom_type": "Cs"}, "1": {"label": "*4", "atom_type": "H0"}, "4": {"label": "*0", "atom_type": "N3d"}, "5": {"label": "*1", "atom_type": "Cd"}, "7": {"label": "*2", "atom_type": "H0"}}

>  <type>  (16) 
unop_12

>  <geom_source>  (16) 
Heuristics

$$$$

     RDKit          3D

  9  7  0  0  0  0  0  0  0  0999 V2000
   -0.0011    2.2195   -0.5035 C   0  0  0  0  0  3  0  0  0  0  0  0
    0.4663    2.1902   -1.4761 H   0  0  0  0  0  0  0  0  0  0  0  0
   -0.4066    2.7256    0.3593 H   0  0  0  0  0  0  0  0  0  0  0  0
   -0.0011   -1.0710   -0.8494 O   0  0  0  0  0  0  0  0  0  0  0  0
   -0.0011   -1.0710    0.5316 N   0  0  0  0  0  0  0  0  0  0  0  0
   -0.0011    0.0998    1.0036 C   0  0  0  0  0  3  0  0  0  0  0  0
   -0.0011   -2.0041   -1.0714 H   0  0  0  0  0  0  0  0  0  0  0  0
   -0.0011    1.1638    0.2471 H   0  0  0  0  0  0  0  0  0  0  0  0
   -0.0011    0.1872    2.0819 H   0  0  0  0  0  0  0  0  0  0  0  0
  1  2  1  0
  1  3  1  0
  1  8  1  0
  4  5  1  0
  4  7  1  0
  5  6  2  3
  6  9  1  0
M  RAD  2   1   2   6   2
M  END
>  <reaction>  (17) 
rmg_rxn_15469

>  <mol_properties>  (17) 
{"0": {"label": "*3", "atom_type": "Cs"}, "1": {"label": "*4", "atom_type": "H0"}, "4": {"label": "*0", "atom_type": "N3d"}, "5": {"label": "*1", "atom_type": "Cd"}, "7": {"label": "*2", "atom_type": "H0"}}

>  <type>  (17) 
unop_13

>  <geom_source>  (17) 
Heuristics

$$$$

     RDKit          3D

  9  7  0  0  0  0  0  0  0  0999 V2000
    0.0017    2.2159   -0.5043 C   0  0  0  0  0  3  0  0  0  0  0  0
   -0.8078    2.3849   -1.1980 H   0  0  0  0  0  0  0  0  0  0  0  0
    0.7090    2.7312    0.1277 H   0  0  0  0  0  0  0  0  0  0  0  0
    0.0017   -1.0745   -0.8502 O   0  0  0  0  0  0  0  0  0  0  0  0
    0.0017   -1.0745    0.5308 N   0  0  0  0  0  0  0  0  0  0  0  0
    0.0017    0.0963    1.0027 C   0  0  0  0  0  3  0  0  0  0  0  0
    0.0017   -2.0077   -1.0722 H   0  0  0  0  0  0  0  0  0  0  0  0
    0.0017    1.1603    0.2462 H   0  0  0  0  0  0  0  0  0  0  0  0
    0.0017    0.1837    2.0810 H   0  0  0  0  0  0  0  0  0  0  0  0
  1  2  1  0
  1  3  1  0
  1  8  1  0
  4  5  1  0
  4  7  1  0
  5  6  2  3
  6  9  1  0
M  RAD  2   1   2   6   2
M  END
>  <reaction>  (18) 
rmg_rxn_15469

>  <mol_properties>  (18) 
{"0": {"label": "*3", "atom_type": "Cs"}, "1": {"label": "*4", "atom_type": "H0"}, "4": {"label": "*0", "atom_type": "N3d"}, "5": {"label": "*1", "atom_type": "Cd"}, "7": {"label": "*2", "atom_type": "H0"}}

>  <type>  (18) 
unop_14

>  <geom_source>  (18) 
Heuristics

$$$$

     RDKit          3D

  9  7  0  0  0  0  0  0  0  0999 V2000
    0.0053    2.2025   -0.5029 C   0  0  0  0  0  3  0  0  0  0  0  0
    0.4727    3.1115   -0.1558 H   0  0  0  0  0  0  0  0  0  0  0  0
   -0.7730    2.7622   -0.9991 H   0  0  0  0  0  0  0  0  0  0  0  0
    0.0053   -1.0879   -0.8487 O   0  0  0  0  0  0  0  0  0  0  0  0
    0.0053   -1.0879    0.5322 N   0  0  0  0  0  0  0  0  0  0  0  0
    0.0053    0.0829    1.0042 C   0  0  0  0  0  3  0  0  0  0  0  0
    0.0053   -2.0211   -1.0707 H   0  0  0  0  0  0  0  0  0  0  0  0
    0.0053    1.1469    0.2477 H   0  0  0  0  0  0  0  0  0  0  0  0
    0.0053    0.1703    2.0825 H   0  0  0  0  0  0  0  0  0  0  0  0
  1  2  1  0
  1  3  1  0
  1  8  1  0
  4  5  1  0
  4  7  1  0
  5  6  2  3
  6  9  1  0
M  RAD  2   1   2   6   2
M  END
>  <reaction>  (19) 
rmg_rxn_15469

>  <mol_properties>  (19) 
{"0": {"label": "*3", "atom_type": "Cs"}, "1": {"label": "*4", "atom_type": "H0"}, "4": {"label": "*0", "atom_type": "N3d"}, "5": {"label": "*1", "atom_type": "Cd"}, "7": {"label": "*2", "atom_type": "H0"}}

>  <type>  (19) 
unop_15

>  <geom_source>  (19) 
Heuristics

$$$$

     RDKit          3D

  9  7  0  0  0  0  0  0  0  0999 V2000
    0.0000    2.2208   -0.5034 C   0  0  0  0  0  3  0  0  0  0  0  0
    0.0000    2.1189   -1.5780 H   0  0  0  0  0  0  0  0  0  0  0  0
    0.0000    2.7233    0.4520 H   0  0  0  0  0  0  0  0  0  0  0  0
   -0.0000   -1.0697   -0.8492 O   0  0  0  0  0  0  0  0  0  0  0  0
   -0.0000   -1.0697    0.5317 N   0  0  0  0  0  0  0  0  0  0  0  0
   -0.0000    0.1011    1.0037 C   0  0  0  0  0  3  0  0  0  0  0  0
   -0.0000   -2.0028   -1.0712 H   0  0  0  0  0  0  0  0  0  0  0  0
    0.0000    1.1651    0.2472 H   0  0  0  0  0  0  0  0  0  0  0  0
   -0.0000    0.1885    2.0820 H   0  0  0  0  0  0  0  0  0  0  0  0
  1  2  1  0
  1  3  1  0
  1  8  1  0
  4  5  1  0
  4  7  1  0
  5  6  2  3
  6  9  1  0
M  RAD  2   1   2   6   2
M  END
>  <reaction>  (20) 
rmg_rxn_15469

>  <mol_properties>  (20) 
{"0": {"label": "*3", "atom_type": "Cs"}, "1": {"label": "*4", "atom_type": "H0"}, "4": {"label": "*0", "atom_type": "N3d"}, "5": {"label": "*1", "atom_type": "Cd"}, "7": {"label": "*2", "atom_type": "H0"}}

>  <type>  (20) 
unop_16

>  <geom_source>  (20) 
Heuristics

$$$$

     RDKit          3D

  9  7  0  0  0  0  0  0  0  0999 V2000
    1.8686   -0.5435    0.8517 O   0  0  0  0  0  0  0  0  0  0  0  0
    1.4102    0.7341    0.6156 N   0  0  0  0  0  0  0  0  0  0  0  0
   -1.6429   -0.2564   -0.2501 C   0  0  0  0  0  3  0  0  0  0  0  0
    0.5945    0.9807   -0.3561 C   0  0  0  0  0  3  0  0  0  0  0  0
   -1.7214   -0.5572    0.8149 H   0  0  0  0  0  0  0  0  0  0  0  0
   -1.9484   -1.1041   -0.8972 H   0  0  0  0  0  0  0  0  0  0  0  0
   -0.3856    0.0799   -0.5242 H   0  0  0  0  0  0  0  0  0  0  0  0
    1.5795   -1.3234    0.2713 H   0  0  0  0  0  0  0  0  0  0  0  0
    0.2455    1.9900   -0.5259 H   0  0  0  0  0  0  0  0  0  0  0  0
  1  2  1  0
  1  8  1  0
  2  4  2  3
  3  5  1  0
  3  6  1  0
  3  7  1  0
  4  9  1  0
M  RAD  2   3   2   4   2
M  END
>  <reaction>  (21) 
rmg_rxn_15469

>  <mol_properties>  (21) 
{"0": {"label": "*3", "atom_type": "Cs"}, "1": {"label": "*4", "atom_type": "H0"}, "4": {"label": "*0", "atom_type": "N3d"}, "5": {"label": "*1", "atom_type": "Cd"}, "7": {"label": "*2", "atom_type": "H0"}}

>  <type>  (21) 
unop_17

>  <geom_source>  (21) 
AutoTST

$$$$

     RDKit          3D

  9  7  0  0  0  0  0  0  0  0999 V2000
    0.0018    2.2159   -0.5043 C   0  0  0  0  0  3  0  0  0  0  0  0
   -0.8078    2.3849   -1.1980 H   0  0  0  0  0  0  0  0  0  0  0  0
    0.7090    2.7312    0.1277 H   0  0  0  0  0  0  0  0  0  0  0  0
    0.0018   -1.0745   -0.8502 O   0  0  0  0  0  0  0  0  0  0  0  0
    0.0018   -1.0745    0.5308 N   0  0  0  0  0  0  0  0  0  0  0  0
    0.0018    0.0963    1.0027 C   0  0  0  0  0  3  0  0  0  0  0  0
    0.0018   -2.0077   -1.0722 H   0  0  0  0  0  0  0  0  0  0  0  0
    0.0018    1.1603    0.2462 H   0  0  0  0  0  0  0  0  0  0  0  0
    0.0018    0.1837    2.0810 H   0  0  0  0  0  0  0  0  0  0  0  0
  1  2  1  0
  1  3  1  0
  1  8  1  0
  4  5  1  0
  4  7  1  0
  5  6  2  3
  6  9  1  0
M  RAD  2   1   2   6   2
M  END
>  <reaction>  (22) 
rmg_rxn_15469

>  <mol_properties>  (22) 
{"0": {"label": "*3", "atom_type": "Cs"}, "1": {"label": "*4", "atom_type": "H0"}, "4": {"label": "*0", "atom_type": "N3d"}, "5": {"label": "*1", "atom_type": "Cd"}, "7": {"label": "*2", "atom_type": "H0"}}

>  <type>  (22) 
unop_18

>  <geom_source>  (22) 
gaussian_log

$$$$
