
     RDKit          3D

  9  8  0  0  0  0  0  0  0  0999 V2000
   -1.0314    0.2323   -0.1227 C   0  0  0  0  0  0  0  0  0  0  0  0
    0.3094   -0.4511    0.0063 C   0  0  0  0  0  0  0  0  0  0  0  0
    0.3197   -1.7698    0.6841 N   0  0  0  0  0  0  0  0  0  0  0  0
   -0.7498   -2.1455    1.0557 O   0  0  0  0  0  0  0  0  0  0  0  0
   -1.4744    0.4198    0.8552 H   0  0  0  0  0  0  0  0  0  0  0  0
   -0.9073    1.1865   -0.6350 H   0  0  0  0  0  0  0  0  0  0  0  0
   -1.7319   -0.3778   -0.6927 H   0  0  0  0  0  0  0  0  0  0  0  0
    1.0375    0.1401    0.5713 H   0  0  0  0  0  0  0  0  0  0  0  0
    0.7826   -0.6494   -0.9609 H   0  0  0  0  0  0  0  0  0  0  0  0
  1  2  1  0
  1  5  1  0
  1  6  1  0
  1  7  1  0
  2  3  1  0
  2  8  1  0
  2  9  1  0
  3  4  2  0
M  END
>  <reaction>  (1) 
rmg_rxn_7

>  <mol_properties>  (1) 
{"1": {"label": "donator", "atom_type": "Cs"}, "7": {"label": "d_hydrogen", "atom_type": "H0"}}

>  <type>  (1) 
r1h

$$$$

     RDKit          3D

  4  3  0  0  0  0  0  0  0  0999 V2000
    1.2191   -0.0447   -0.0369 N   0  0  0  0  0  1  0  0  0  0  0  0
   -0.0876   -0.0060    0.2202 N   0  0  0  0  0  0  0  0  0  0  0  0
   -0.5966   -0.8143   -0.1273 H   0  0  0  0  0  0  0  0  0  0  0  0
   -0.5329    0.8649   -0.0563 H   0  0  0  0  0  0  0  0  0  0  0  0
  1  2  1  0
  2  3  1  0
  2  4  1  0
M  RAD  1   1   3
M  END
>  <reaction>  (2) 
rmg_rxn_7

>  <mol_properties>  (2) 
{"0": {"label": "acceptor", "atom_type": "N3s"}}

>  <type>  (2) 
r2

$$$$

     RDKit          3D

  5  4  0  0  0  0  0  0  0  0999 V2000
    0.7361   -0.2872    0.4035 N   0  0  0  0  0  2  0  0  0  0  0  0
   -0.3891   -0.1505   -0.3131 N   0  0  0  0  0  0  0  0  0  0  0  0
    1.4909    0.0686   -0.1831 H   0  0  0  0  0  0  0  0  0  0  0  0
   -1.1819   -0.6340    0.0744 H   0  0  0  0  0  0  0  0  0  0  0  0
   -0.3592   -0.1189   -1.3223 H   0  0  0  0  0  0  0  0  0  0  0  0
  1  2  1  0
  1  3  1  0
  2  4  1  0
  2  5  1  0
M  RAD  1   1   2
M  END
>  <reaction>  (3) 
rmg_rxn_7

>  <mol_properties>  (3) 
{"0": {"label": "acceptor", "atom_type": "N3s"}, "4": {"label": "a_hydrogen", "atom_type": "H0"}}

>  <type>  (3) 
r2h

$$$$

     RDKit          3D

 13 11  0  0  0  0  0  0  0  0999 V2000
    0.9429   -1.6904    0.6548 N   0  0  0  0  0  1  0  0  0  0  0  0
    1.9595   -1.2225    0.0655 N   0  0  0  0  0  0  0  0  0  0  0  0
    2.4765   -1.7804   -0.6103 H   0  0  0  0  0  0  0  0  0  0  0  0
    2.3077   -0.2777    0.2251 H   0  0  0  0  0  0  0  0  0  0  0  0
   -0.8904   -0.3779   -1.4726 C   0  0  0  0  0  0  0  0  0  0  0  0
   -0.9934   -0.1395    0.0181 C   0  0  0  0  0  0  0  0  0  0  0  0
   -0.7583    1.1585    0.4388 N   0  0  0  0  0  0  0  0  0  0  0  0
    0.0727    1.9457    0.0287 O   0  0  0  0  0  0  0  0  0  0  0  0
    0.1095   -0.1263   -1.8315 H   0  0  0  0  0  0  0  0  0  0  0  0
   -1.0754   -1.4314   -1.6787 H   0  0  0  0  0  0  0  0  0  0  0  0
   -1.6119    0.2254   -2.0264 H   0  0  0  0  0  0  0  0  0  0  0  0
   -0.0525   -0.8371    0.5847 H   0  0  0  0  0  0  0  0  0  0  0  0
   -1.8961   -0.5185    0.4906 H   0  0  0  0  0  0  0  0  0  0  0  0
  1  2  1  0
  2  3  1  0
  2  4  1  0
  5  6  1  0
  5  9  1  0
  5 10  1  0
  5 11  1  0
  6  7  1  0
  6 12  1  0
  6 13  1  0
  7  8  2  0
M  RAD  1   1   3
M  END
>  <reaction>  (4) 
rmg_rxn_7

>  <mol_properties>  (4) 
{"0": {"label": "*3", "atom_type": "N3s"}, "1": {"label": "*4", "atom_type": "N3s"}, "5": {"label": "*1", "atom_type": "Cs"}, "6": {"label": "*0", "atom_type": "N3d"}, "11": {"label": "*2", "atom_type": "H0"}}

>  <type>  (4) 
ts

$$$$

     RDKit          3D

 13 11  0  0  0  0  0  0  0  0999 V2000
    1.2215   -1.5532    0.6820 N   0  0  0  0  0  2  0  0  0  0  0  0
    1.8623   -0.6354    1.4205 N   0  0  0  0  0  0  0  0  0  0  0  0
    2.0592   -0.9325    2.3615 H   0  0  0  0  0  0  0  0  0  0  0  0
    1.6557    0.3480    1.3174 H   0  0  0  0  0  0  0  0  0  0  0  0
   -0.7979   -0.3772   -1.8186 C   0  0  0  0  0  0  0  0  0  0  0  0
   -0.7979   -0.3772   -0.3081 C   0  0  0  0  0  0  0  0  0  0  0  0
   -0.7979    0.9487    0.3555 N   0  0  0  0  0  0  0  0  0  0  0  0
   -0.7979    1.8783   -0.3922 O   0  0  0  0  0  1  0  0  0  0  0  0
    0.0823    0.1301   -2.2130 H   0  0  0  0  0  0  0  0  0  0  0  0
   -0.7979   -1.4044   -2.1838 H   0  0  0  0  0  0  0  0  0  0  0  0
   -1.6780    0.1301   -2.2130 H   0  0  0  0  0  0  0  0  0  0  0  0
    0.2476   -0.9860    0.2045 H   0  0  0  0  0  0  0  0  0  0  0  0
   -1.6690   -0.8846    0.1191 H   0  0  0  0  0  0  0  0  0  0  0  0
  1  2  1  0
  1 12  1  0
  2  3  1  0
  2  4  1  0
  5  6  1  0
  5  9  1  0
  5 10  1  0
  5 11  1  0
  6  7  2  3
  6 13  1  0
  7  8  1  0
M  RAD  2   1   2   8   2
M  END
>  <reaction>  (5) 
rmg_rxn_7

>  <mol_properties>  (5) 
{"0": {"label": "*3", "atom_type": "N3s"}, "1": {"label": "*4", "atom_type": "N3s"}, "5": {"label": "*1", "atom_type": "Cs"}, "6": {"label": "*0", "atom_type": "N3d"}, "11": {"label": "*2", "atom_type": "H0"}}

>  <type>  (5) 
unop_1

>  <geom_source>  (5) 
Heuristics

$$$$

     RDKit          3D

 13 11  0  0  0  0  0  0  0  0999 V2000
    1.1484   -1.4170    0.9875 N   0  0  0  0  0  2  0  0  0  0  0  0
    2.1452   -1.2522    0.1057 N   0  0  0  0  0  0  0  0  0  0  0  0
    3.0586   -1.2054    0.5252 H   0  0  0  0  0  0  0  0  0  0  0  0
    2.0212   -0.6743   -0.7135 H   0  0  0  0  0  0  0  0  0  0  0  0
   -0.8709   -0.2411   -1.5131 C   0  0  0  0  0  0  0  0  0  0  0  0
   -0.8709   -0.2411   -0.0026 C   0  0  0  0  0  0  0  0  0  0  0  0
   -0.8709    1.0848    0.6609 N   0  0  0  0  0  0  0  0  0  0  0  0
   -0.8709    2.0144   -0.0868 O   0  0  0  0  0  1  0  0  0  0  0  0
    0.0092    0.2663   -1.9076 H   0  0  0  0  0  0  0  0  0  0  0  0
   -0.8709   -1.2683   -1.8784 H   0  0  0  0  0  0  0  0  0  0  0  0
   -1.7511    0.2663   -1.9076 H   0  0  0  0  0  0  0  0  0  0  0  0
    0.1745   -0.8499    0.5099 H   0  0  0  0  0  0  0  0  0  0  0  0
   -1.7421   -0.7484    0.4245 H   0  0  0  0  0  0  0  0  0  0  0  0
  1  2  1  0
  1 12  1  0
  2  3  1  0
  2  4  1  0
  5  6  1  0
  5  9  1  0
  5 10  1  0
  5 11  1  0
  6  7  2  3
  6 13  1  0
  7  8  1  0
M  RAD  2   1   2   8   2
M  END
>  <reaction>  (6) 
rmg_rxn_7

>  <mol_properties>  (6) 
{"0": {"label": "*3", "atom_type": "N3s"}, "1": {"label": "*4", "atom_type": "N3s"}, "5": {"label": "*1", "atom_type": "Cs"}, "6": {"label": "*0", "atom_type": "N3d"}, "11": {"label": "*2", "atom_type": "H0"}}

>  <type>  (6) 
unop_2

>  <geom_source>  (6) 
Heuristics

$$$$

     RDKit          3D

 13 11  0  0  0  0  0  0  0  0999 V2000
    1.2958   -1.4906    0.6018 N   0  0  0  0  0  2  0  0  0  0  0  0
    1.5404   -0.8878    1.7743 N   0  0  0  0  0  0  0  0  0  0  0  0
    1.8051   -1.5194    2.5115 H   0  0  0  0  0  0  0  0  0  0  0  0
    0.9950   -0.0906    2.0701 H   0  0  0  0  0  0  0  0  0  0  0  0
   -0.7235   -0.3147   -1.8988 C   0  0  0  0  0  0  0  0  0  0  0  0
   -0.7235   -0.3147   -0.3884 C   0  0  0  0  0  0  0  0  0  0  0  0
   -0.7235    1.0112    0.2752 N   0  0  0  0  0  0  0  0  0  0  0  0
   -0.7235    1.9408   -0.4725 O   0  0  0  0  0  1  0  0  0  0  0  0
    0.1566    0.1927   -2.2933 H   0  0  0  0  0  0  0  0  0  0  0  0
   -0.7235   -1.3419   -2.2641 H   0  0  0  0  0  0  0  0  0  0  0  0
   -1.6036    0.1927   -2.2933 H   0  0  0  0  0  0  0  0  0  0  0  0
    0.3219   -0.9235    0.1242 H   0  0  0  0  0  0  0  0  0  0  0  0
   -1.5947   -0.8220    0.0388 H   0  0  0  0  0  0  0  0  0  0  0  0
  1  2  1  0
  1 12  1  0
  2  3  1  0
  2  4  1  0
  5  6  1  0
  5  9  1  0
  5 10  1  0
  5 11  1  0
  6  7  2  3
  6 13  1  0
  7  8  1  0
M  RAD  2   1   2   8   2
M  END
>  <reaction>  (7) 
rmg_rxn_7

>  <mol_properties>  (7) 
{"0": {"label": "*3", "atom_type": "N3s"}, "1": {"label": "*4", "atom_type": "N3s"}, "5": {"label": "*1", "atom_type": "Cs"}, "6": {"label": "*0", "atom_type": "N3d"}, "11": {"label": "*2", "atom_type": "H0"}}

>  <type>  (7) 
unop_3

>  <geom_source>  (7) 
Heuristics

$$$$

     RDKit          3D

 13 11  0  0  0  0  0  0  0  0999 V2000
    1.3394   -1.1435    0.9097 N   0  0  0  0  0  2  0  0  0  0  0  0
    1.2918   -2.4067    0.4621 N   0  0  0  0  0  0  0  0  0  0  0  0
    1.8104   -3.0598    1.0250 H   0  0  0  0  0  0  0  0  0  0  0  0
    1.2883   -2.6049   -0.5284 H   0  0  0  0  0  0  0  0  0  0  0  0
   -0.6800    0.0324   -1.5909 C   0  0  0  0  0  0  0  0  0  0  0  0
   -0.6800    0.0324   -0.0804 C   0  0  0  0  0  0  0  0  0  0  0  0
   -0.6800    1.3584    0.5832 N   0  0  0  0  0  0  0  0  0  0  0  0
   -0.6800    2.2880   -0.1645 O   0  0  0  0  0  1  0  0  0  0  0  0
    0.2002    0.5398   -1.9854 H   0  0  0  0  0  0  0  0  0  0  0  0
   -0.6800   -0.9947   -1.9562 H   0  0  0  0  0  0  0  0  0  0  0  0
   -1.5601    0.5398   -1.9854 H   0  0  0  0  0  0  0  0  0  0  0  0
    0.3655   -0.5763    0.4322 H   0  0  0  0  0  0  0  0  0  0  0  0
   -1.5512   -0.4749    0.3467 H   0  0  0  0  0  0  0  0  0  0  0  0
  1  2  1  0
  1 12  1  0
  2  3  1  0
  2  4  1  0
  5  6  1  0
  5  9  1  0
  5 10  1  0
  5 11  1  0
  6  7  2  3
  6 13  1  0
  7  8  1  0
M  RAD  2   1   2   8   2
M  END
>  <reaction>  (8) 
rmg_rxn_7

>  <mol_properties>  (8) 
{"0": {"label": "*3", "atom_type": "N3s"}, "1": {"label": "*4", "atom_type": "N3s"}, "5": {"label": "*1", "atom_type": "Cs"}, "6": {"label": "*0", "atom_type": "N3d"}, "11": {"label": "*2", "atom_type": "H0"}}

>  <type>  (8) 
unop_4

>  <geom_source>  (8) 
Heuristics

$$$$

     RDKit          3D

 13 11  0  0  0  0  0  0  0  0999 V2000
    1.3646   -1.3894    0.5743 N   0  0  0  0  0  2  0  0  0  0  0  0
    1.2269   -1.3092    1.9058 N   0  0  0  0  0  0  0  0  0  0  0  0
    1.8625   -1.8968    2.4187 H   0  0  0  0  0  0  0  0  0  0  0  0
    0.3151   -1.1971    2.3259 H   0  0  0  0  0  0  0  0  0  0  0  0
   -0.6548   -0.2134   -1.9263 C   0  0  0  0  0  0  0  0  0  0  0  0
   -0.6548   -0.2134   -0.4158 C   0  0  0  0  0  0  0  0  0  0  0  0
   -0.6548    1.1125    0.2478 N   0  0  0  0  0  0  0  0  0  0  0  0
   -0.6548    2.0421   -0.4999 O   0  0  0  0  0  1  0  0  0  0  0  0
    0.2253    0.2939   -2.3208 H   0  0  0  0  0  0  0  0  0  0  0  0
   -0.6548   -1.2406   -2.2916 H   0  0  0  0  0  0  0  0  0  0  0  0
   -1.5349    0.2939   -2.3208 H   0  0  0  0  0  0  0  0  0  0  0  0
    0.3906   -0.8222    0.0968 H   0  0  0  0  0  0  0  0  0  0  0  0
   -1.5260   -0.7208    0.0113 H   0  0  0  0  0  0  0  0  0  0  0  0
  1  2  1  0
  1 12  1  0
  2  3  1  0
  2  4  1  0
  5  6  1  0
  5  9  1  0
  5 10  1  0
  5 11  1  0
  6  7  2  3
  6 13  1  0
  7  8  1  0
M  RAD  2   1   2   8   2
M  END
>  <reaction>  (9) 
rmg_rxn_7

>  <mol_properties>  (9) 
{"0": {"label": "*3", "atom_type": "N3s"}, "1": {"label": "*4", "atom_type": "N3s"}, "5": {"label": "*1", "atom_type": "Cs"}, "6": {"label": "*0", "atom_type": "N3d"}, "11": {"label": "*2", "atom_type": "H0"}}

>  <type>  (9) 
unop_5

>  <geom_source>  (9) 
Heuristics

$$$$

     RDKit          3D

 13 11  0  0  0  0  0  0  0  0999 V2000
    1.3968   -1.1372    0.7988 N   0  0  0  0  0  2  0  0  0  0  0  0
    1.0452   -2.4231    0.9442 N   0  0  0  0  0  0  0  0  0  0  0  0
    1.5196   -2.8942    1.6961 H   0  0  0  0  0  0  0  0  0  0  0  0
    0.8437   -2.9987    0.1389 H   0  0  0  0  0  0  0  0  0  0  0  0
   -0.6225    0.0387   -1.7018 C   0  0  0  0  0  0  0  0  0  0  0  0
   -0.6225    0.0387   -0.1913 C   0  0  0  0  0  0  0  0  0  0  0  0
   -0.6225    1.3647    0.4723 N   0  0  0  0  0  0  0  0  0  0  0  0
   -0.6225    2.2942   -0.2754 O   0  0  0  0  0  1  0  0  0  0  0  0
    0.2576    0.5461   -2.0963 H   0  0  0  0  0  0  0  0  0  0  0  0
   -0.6225   -0.9884   -2.0671 H   0  0  0  0  0  0  0  0  0  0  0  0
   -1.5027    0.5461   -2.0963 H   0  0  0  0  0  0  0  0  0  0  0  0
    0.4229   -0.5701    0.3213 H   0  0  0  0  0  0  0  0  0  0  0  0
   -1.4937   -0.4686    0.2358 H   0  0  0  0  0  0  0  0  0  0  0  0
  1  2  1  0
  1 12  1  0
  2  3  1  0
  2  4  1  0
  5  6  1  0
  5  9  1  0
  5 10  1  0
  5 11  1  0
  6  7  2  3
  6 13  1  0
  7  8  1  0
M  RAD  2   1   2   8   2
M  END
>  <reaction>  (10) 
rmg_rxn_7

>  <mol_properties>  (10) 
{"0": {"label": "*3", "atom_type": "N3s"}, "1": {"label": "*4", "atom_type": "N3s"}, "5": {"label": "*1", "atom_type": "Cs"}, "6": {"label": "*0", "atom_type": "N3d"}, "11": {"label": "*2", "atom_type": "H0"}}

>  <type>  (10) 
unop_6

>  <geom_source>  (10) 
Heuristics

$$$$

     RDKit          3D

 13 11  0  0  0  0  0  0  0  0999 V2000
    1.4223   -1.1870    0.6877 N   0  0  0  0  0  2  0  0  0  0  0  0
    0.9404   -2.1973    1.4261 N   0  0  0  0  0  0  0  0  0  0  0  0
    1.5323   -2.4593    2.1965 H   0  0  0  0  0  0  0  0  0  0  0  0
    0.4382   -2.9601    0.9945 H   0  0  0  0  0  0  0  0  0  0  0  0
   -0.5970   -0.0111   -1.8129 C   0  0  0  0  0  0  0  0  0  0  0  0
   -0.5970   -0.0111   -0.3024 C   0  0  0  0  0  0  0  0  0  0  0  0
   -0.5970    1.3149    0.3612 N   0  0  0  0  0  0  0  0  0  0  0  0
   -0.5970    2.2444   -0.3865 O   0  0  0  0  0  1  0  0  0  0  0  0
    0.2831    0.4963   -2.2074 H   0  0  0  0  0  0  0  0  0  0  0  0
   -0.5970   -1.0382   -2.1782 H   0  0  0  0  0  0  0  0  0  0  0  0
   -1.4772    0.4963   -2.2074 H   0  0  0  0  0  0  0  0  0  0  0  0
    0.4484   -0.6199    0.2102 H   0  0  0  0  0  0  0  0  0  0  0  0
   -1.4682   -0.5184    0.1247 H   0  0  0  0  0  0  0  0  0  0  0  0
  1  2  1  0
  1 12  1  0
  2  3  1  0
  2  4  1  0
  5  6  1  0
  5  9  1  0
  5 10  1  0
  5 11  1  0
  6  7  2  3
  6 13  1  0
  7  8  1  0
M  RAD  2   1   2   8   2
M  END
>  <reaction>  (11) 
rmg_rxn_7

>  <mol_properties>  (11) 
{"0": {"label": "*3", "atom_type": "N3s"}, "1": {"label": "*4", "atom_type": "N3s"}, "5": {"label": "*1", "atom_type": "Cs"}, "6": {"label": "*0", "atom_type": "N3d"}, "11": {"label": "*2", "atom_type": "H0"}}

>  <type>  (11) 
unop_7

>  <geom_source>  (11) 
Heuristics

$$$$

     RDKit          3D

 13 11  0  0  0  0  0  0  0  0999 V2000
    1.1631   -1.5600    0.7931 N   0  0  0  0  0  2  0  0  0  0  0  0
    2.1079   -0.6196    0.9385 N   0  0  0  0  0  0  0  0  0  0  0  0
    2.5032   -0.5766    1.8628 H   0  0  0  0  0  0  0  0  0  0  0  0
    2.0303    0.2695    0.4652 H   0  0  0  0  0  0  0  0  0  0  0  0
   -0.8562   -0.3841   -1.7075 C   0  0  0  0  0  0  0  0  0  0  0  0
   -0.8562   -0.3841   -0.1970 C   0  0  0  0  0  0  0  0  0  0  0  0
   -0.8562    0.9419    0.4666 N   0  0  0  0  0  0  0  0  0  0  0  0
   -0.8562    1.8714   -0.2811 O   0  0  0  0  0  1  0  0  0  0  0  0
    0.0239    0.1233   -2.1020 H   0  0  0  0  0  0  0  0  0  0  0  0
   -0.8562   -1.4112   -2.0728 H   0  0  0  0  0  0  0  0  0  0  0  0
   -1.7364    0.1233   -2.1020 H   0  0  0  0  0  0  0  0  0  0  0  0
    0.1892   -0.9929    0.3156 H   0  0  0  0  0  0  0  0  0  0  0  0
   -1.7274   -0.8914    0.2301 H   0  0  0  0  0  0  0  0  0  0  0  0
  1  2  1  0
  1 12  1  0
  2  3  1  0
  2  4  1  0
  5  6  1  0
  5  9  1  0
  5 10  1  0
  5 11  1  0
  6  7  2  3
  6 13  1  0
  7  8  1  0
M  RAD  2   1   2   8   2
M  END
>  <reaction>  (12) 
rmg_rxn_7

>  <mol_properties>  (12) 
{"0": {"label": "*3", "atom_type": "N3s"}, "1": {"label": "*4", "atom_type": "N3s"}, "5": {"label": "*1", "atom_type": "Cs"}, "6": {"label": "*0", "atom_type": "N3d"}, "11": {"label": "*2", "atom_type": "H0"}}

>  <type>  (12) 
unop_8

>  <geom_source>  (12) 
Heuristics

$$$$

     RDKit          3D

 13 11  0  0  0  0  0  0  0  0999 V2000
    1.2655   -1.2050    0.9904 N   0  0  0  0  0  2  0  0  0  0  0  0
    1.6141   -2.1533    0.1087 N   0  0  0  0  0  0  0  0  0  0  0  0
    2.3327   -2.7750    0.4396 H   0  0  0  0  0  0  0  0  0  0  0  0
    1.6443   -1.9536   -0.8811 H   0  0  0  0  0  0  0  0  0  0  0  0
   -0.7539   -0.0290   -1.5102 C   0  0  0  0  0  0  0  0  0  0  0  0
   -0.7539   -0.0290    0.0003 C   0  0  0  0  0  0  0  0  0  0  0  0
   -0.7539    1.2969    0.6639 N   0  0  0  0  0  0  0  0  0  0  0  0
   -0.7539    2.2265   -0.0838 O   0  0  0  0  0  1  0  0  0  0  0  0
    0.1263    0.4783   -1.9047 H   0  0  0  0  0  0  0  0  0  0  0  0
   -0.7539   -1.0562   -1.8755 H   0  0  0  0  0  0  0  0  0  0  0  0
   -1.6340    0.4783   -1.9047 H   0  0  0  0  0  0  0  0  0  0  0  0
    0.2916   -0.6378    0.5129 H   0  0  0  0  0  0  0  0  0  0  0  0
   -1.6251   -0.5364    0.4274 H   0  0  0  0  0  0  0  0  0  0  0  0
  1  2  1  0
  1 12  1  0
  2  3  1  0
  2  4  1  0
  5  6  1  0
  5  9  1  0
  5 10  1  0
  5 11  1  0
  6  7  2  3
  6 13  1  0
  7  8  1  0
M  RAD  2   1   2   8   2
M  END
>  <reaction>  (13) 
rmg_rxn_7

>  <mol_properties>  (13) 
{"0": {"label": "*3", "atom_type": "N3s"}, "1": {"label": "*4", "atom_type": "N3s"}, "5": {"label": "*1", "atom_type": "Cs"}, "6": {"label": "*0", "atom_type": "N3d"}, "11": {"label": "*2", "atom_type": "H0"}}

>  <type>  (13) 
unop_9

>  <geom_source>  (13) 
Heuristics

$$$$

     RDKit          3D

 13 11  0  0  0  0  0  0  0  0999 V2000
    1.1365   -1.5101    0.9049 N   0  0  0  0  0  2  0  0  0  0  0  0
    2.2116   -0.8453    0.4572 N   0  0  0  0  0  0  0  0  0  0  0  0
    2.8997   -0.6556    1.1665 H   0  0  0  0  0  0  0  0  0  0  0  0
    2.1204   -0.1311   -0.2514 H   0  0  0  0  0  0  0  0  0  0  0  0
   -0.8828   -0.3342   -1.5957 C   0  0  0  0  0  0  0  0  0  0  0  0
   -0.8828   -0.3342   -0.0853 C   0  0  0  0  0  0  0  0  0  0  0  0
   -0.8828    0.9917    0.5783 N   0  0  0  0  0  0  0  0  0  0  0  0
   -0.8828    1.9213   -0.1694 O   0  0  0  0  0  1  0  0  0  0  0  0
   -0.0027    0.1732   -1.9902 H   0  0  0  0  0  0  0  0  0  0  0  0
   -0.8828   -1.3614   -1.9610 H   0  0  0  0  0  0  0  0  0  0  0  0
   -1.7630    0.1732   -1.9902 H   0  0  0  0  0  0  0  0  0  0  0  0
    0.1626   -0.9430    0.4273 H   0  0  0  0  0  0  0  0  0  0  0  0
   -1.7540   -0.8415    0.3419 H   0  0  0  0  0  0  0  0  0  0  0  0
  1  2  1  0
  1 12  1  0
  2  3  1  0
  2  4  1  0
  5  6  1  0
  5  9  1  0
  5 10  1  0
  5 11  1  0
  6  7  2  3
  6 13  1  0
  7  8  1  0
M  RAD  2   1   2   8   2
M  END
>  <reaction>  (14) 
rmg_rxn_7

>  <mol_properties>  (14) 
{"0": {"label": "*3", "atom_type": "N3s"}, "1": {"label": "*4", "atom_type": "N3s"}, "5": {"label": "*1", "atom_type": "Cs"}, "6": {"label": "*0", "atom_type": "N3d"}, "11": {"label": "*2", "atom_type": "H0"}}

>  <type>  (14) 
unop_10

>  <geom_source>  (14) 
Heuristics

$$$$

     RDKit          3D

 13 11  0  0  0  0  0  0  0  0999 V2000
    1.4100   -1.2789    0.6059 N   0  0  0  0  0  2  0  0  0  0  0  0
    1.0064   -1.7892    1.7785 N   0  0  0  0  0  0  0  0  0  0  0  0
    1.7601   -2.0542    2.3902 H   0  0  0  0  0  0  0  0  0  0  0  0
    0.1858   -2.3758    1.8326 H   0  0  0  0  0  0  0  0  0  0  0  0
   -0.6093   -0.1030   -1.8947 C   0  0  0  0  0  0  0  0  0  0  0  0
   -0.6093   -0.1030   -0.3842 C   0  0  0  0  0  0  0  0  0  0  0  0
   -0.6093    1.2230    0.2794 N   0  0  0  0  0  0  0  0  0  0  0  0
   -0.6093    2.1525   -0.4683 O   0  0  0  0  0  1  0  0  0  0  0  0
    0.2708    0.4044   -2.2892 H   0  0  0  0  0  0  0  0  0  0  0  0
   -0.6093   -1.1301   -2.2600 H   0  0  0  0  0  0  0  0  0  0  0  0
   -1.4895    0.4044   -2.2892 H   0  0  0  0  0  0  0  0  0  0  0  0
    0.4361   -0.7118    0.1284 H   0  0  0  0  0  0  0  0  0  0  0  0
   -1.4805   -0.6103    0.0429 H   0  0  0  0  0  0  0  0  0  0  0  0
  1  2  1  0
  1 12  1  0
  2  3  1  0
  2  4  1  0
  5  6  1  0
  5  9  1  0
  5 10  1  0
  5 11  1  0
  6  7  2  3
  6 13  1  0
  7  8  1  0
M  RAD  2   1   2   8   2
M  END
>  <reaction>  (15) 
rmg_rxn_7

>  <mol_properties>  (15) 
{"0": {"label": "*3", "atom_type": "N3s"}, "1": {"label": "*4", "atom_type": "N3s"}, "5": {"label": "*1", "atom_type": "Cs"}, "6": {"label": "*0", "atom_type": "N3d"}, "11": {"label": "*2", "atom_type": "H0"}}

>  <type>  (15) 
unop_11

>  <geom_source>  (15) 
Heuristics

$$$$

     RDKit          3D

 13 11  0  0  0  0  0  0  0  0999 V2000
    1.1955   -1.3053    1.0189 N   0  0  0  0  0  2  0  0  0  0  0  0
    1.9264   -1.7309   -0.0218 N   0  0  0  0  0  0  0  0  0  0  0  0
    2.8473   -2.0497    0.2285 H   0  0  0  0  0  0  0  0  0  0  0  0
    1.8619   -1.2745   -0.9206 H   0  0  0  0  0  0  0  0  0  0  0  0
   -0.8238   -0.1294   -1.4817 C   0  0  0  0  0  0  0  0  0  0  0  0
   -0.8238   -0.1294    0.0287 C   0  0  0  0  0  0  0  0  0  0  0  0
   -0.8238    1.1966    0.6923 N   0  0  0  0  0  0  0  0  0  0  0  0
   -0.8239    2.1261   -0.0554 O   0  0  0  0  0  1  0  0  0  0  0  0
    0.0563    0.3780   -1.8762 H   0  0  0  0  0  0  0  0  0  0  0  0
   -0.8238   -1.1566   -1.8470 H   0  0  0  0  0  0  0  0  0  0  0  0
   -1.7040    0.3780   -1.8762 H   0  0  0  0  0  0  0  0  0  0  0  0
    0.2216   -0.7382    0.5413 H   0  0  0  0  0  0  0  0  0  0  0  0
   -1.6950   -0.6367    0.4559 H   0  0  0  0  0  0  0  0  0  0  0  0
  1  2  1  0
  1 12  1  0
  2  3  1  0
  2  4  1  0
  5  6  1  0
  5  9  1  0
  5 10  1  0
  5 11  1  0
  6  7  2  3
  6 13  1  0
  7  8  1  0
M  RAD  2   1   2   8   2
M  END
>  <reaction>  (16) 
rmg_rxn_7

>  <mol_properties>  (16) 
{"0": {"label": "*3", "atom_type": "N3s"}, "1": {"label": "*4", "atom_type": "N3s"}, "5": {"label": "*1", "atom_type": "Cs"}, "6": {"label": "*0", "atom_type": "N3d"}, "11": {"label": "*2", "atom_type": "H0"}}

>  <type>  (16) 
unop_12

>  <geom_source>  (16) 
Heuristics

$$$$

     RDKit          3D

 13 11  0  0  0  0  0  0  0  0999 V2000
    1.1484   -1.4170    0.9875 N   0  0  0  0  0  2  0  0  0  0  0  0
    2.1452   -1.2522    0.1057 N   0  0  0  0  0  0  0  0  0  0  0  0
    3.0586   -1.2054    0.5252 H   0  0  0  0  0  0  0  0  0  0  0  0
    2.0212   -0.6743   -0.7135 H   0  0  0  0  0  0  0  0  0  0  0  0
   -0.8709   -0.2411   -1.5131 C   0  0  0  0  0  0  0  0  0  0  0  0
   -0.8709   -0.2411   -0.0027 C   0  0  0  0  0  0  0  0  0  0  0  0
   -0.8709    1.0848    0.6609 N   0  0  0  0  0  0  0  0  0  0  0  0
   -0.8709    2.0144   -0.0868 O   0  0  0  0  0  1  0  0  0  0  0  0
    0.0092    0.2662   -1.9076 H   0  0  0  0  0  0  0  0  0  0  0  0
   -0.8709   -1.2683   -1.8784 H   0  0  0  0  0  0  0  0  0  0  0  0
   -1.7510    0.2662   -1.9076 H   0  0  0  0  0  0  0  0  0  0  0  0
    0.1745   -0.8499    0.5099 H   0  0  0  0  0  0  0  0  0  0  0  0
   -1.7421   -0.7484    0.4245 H   0  0  0  0  0  0  0  0  0  0  0  0
  1  2  1  0
  1 12  1  0
  2  3  1  0
  2  4  1  0
  5  6  1  0
  5  9  1  0
  5 10  1  0
  5 11  1  0
  6  7  2  3
  6 13  1  0
  7  8  1  0
M  RAD  2   1   2   8   2
M  END
>  <reaction>  (17) 
rmg_rxn_7

>  <mol_properties>  (17) 
{"0": {"label": "*3", "atom_type": "N3s"}, "1": {"label": "*4", "atom_type": "N3s"}, "5": {"label": "*1", "atom_type": "Cs"}, "6": {"label": "*0", "atom_type": "N3d"}, "11": {"label": "*2", "atom_type": "H0"}}

>  <type>  (17) 
unop_13

>  <geom_source>  (17) 
gaussian_log

$$$$
