
     RDKit          3D

  9  8  0  0  0  0  0  0  0  0999 V2000
   -1.5470   -0.0755   -0.1976 C   0  0  0  0  0  0  0  0  0  0  0  0
   -0.2885    0.4507    0.1749 O   0  0  0  0  0  0  0  0  0  0  0  0
   -0.1502    1.7216   -0.3294 N   0  0  0  0  0  0  0  0  0  0  0  0
    0.9626    2.2353   -0.0219 C   0  0  0  0  0  0  0  0  0  0  0  0
   -1.6392   -0.1356   -1.2844 H   0  0  0  0  0  0  0  0  0  0  0  0
   -2.3597    0.5337    0.2044 H   0  0  0  0  0  0  0  0  0  0  0  0
   -1.5879   -1.0750    0.2318 H   0  0  0  0  0  0  0  0  0  0  0  0
    1.1497    3.2381   -0.3820 H   0  0  0  0  0  0  0  0  0  0  0  0
    1.7060    1.7101    0.5739 H   0  0  0  0  0  0  0  0  0  0  0  0
  1  2  1  0
  1  5  1  0
  1  6  1  0
  1  7  1  0
  2  3  1  0
  3  4  2  3
  4  8  1  0
  4  9  1  0
M  END
>  <reaction>  (1) 
rmg_rxn_16575

>  <mol_properties>  (1) 
{"0": {"label": "donator", "atom_type": "Cs"}, "4": {"label": "d_hydrogen", "atom_type": "H0"}}

>  <type>  (1) 
r1h

$$$$

     RDKit          3D

  7  6  0  0  0  0  0  0  0  0999 V2000
   -0.8788   -0.0543   -0.1110 C   0  0  0  0  0  0  0  0  0  0  0  0
    0.2557    0.5113    0.6601 C   0  0  0  0  0  3  0  0  0  0  0  0
    1.4636    0.2959    0.5578 N   0  0  0  0  0  0  0  0  0  0  0  0
   -0.5263   -0.7611   -0.8677 H   0  0  0  0  0  0  0  0  0  0  0  0
   -1.5674   -0.5588    0.5681 H   0  0  0  0  0  0  0  0  0  0  0  0
   -1.4318    0.7525   -0.5935 H   0  0  0  0  0  0  0  0  0  0  0  0
    2.0839    0.7934    1.1919 H   0  0  0  0  0  0  0  0  0  0  0  0
  1  2  1  0
  1  4  1  0
  1  5  1  0
  1  6  1  0
  2  3  2  3
  3  7  1  0
M  RAD  1   2   2
M  END
>  <reaction>  (2) 
rmg_rxn_16575

>  <mol_properties>  (2) 
{"1": {"label": "acceptor", "atom_type": "Cd"}}

>  <type>  (2) 
r2

$$$$

     RDKit          3D

  8  7  0  0  0  0  0  0  0  0999 V2000
    0.9548    0.1194   -0.0790 C   0  0  0  0  0  0  0  0  0  0  0  0
   -0.4838   -0.2649    0.0193 C   0  0  0  0  0  0  0  0  0  0  0  0
   -0.8933   -1.1081    0.8664 N   0  0  0  0  0  0  0  0  0  0  0  0
    1.3360   -0.0983   -1.0800 H   0  0  0  0  0  0  0  0  0  0  0  0
    1.0698    1.1948    0.0786 H   0  0  0  0  0  0  0  0  0  0  0  0
    1.5426   -0.4219    0.6602 H   0  0  0  0  0  0  0  0  0  0  0  0
   -1.1575    0.2324   -0.6905 H   0  0  0  0  0  0  0  0  0  0  0  0
   -1.8989   -1.2455    0.7886 H   0  0  0  0  0  0  0  0  0  0  0  0
  1  2  1  0
  1  4  1  0
  1  5  1  0
  1  6  1  0
  2  3  2  3
  2  7  1  0
  3  8  1  0
M  END
>  <reaction>  (3) 
rmg_rxn_16575

>  <mol_properties>  (3) 
{"1": {"label": "acceptor", "atom_type": "Cd"}, "7": {"label": "a_hydrogen", "atom_type": "H0"}}

>  <type>  (3) 
r2h

$$$$

     RDKit          3D

 16 14  0  0  0  0  0  0  0  0999 V2000
    2.2290    0.4803    1.9808 C   0  0  0  0  0  0  0  0  0  0  0  0
    1.1403   -0.2131    1.2362 C   0  0  0  0  0  0  0  0  0  0  0  0
    1.0879   -1.4358    0.9925 N   0  0  0  0  0  0  0  0  0  0  0  0
    2.9947   -0.2297    2.2965 H   0  0  0  0  0  0  0  0  0  0  0  0
    2.6802    1.2471    1.3474 H   0  0  0  0  0  0  0  0  0  0  0  0
    1.8171    0.9870    2.8563 H   0  0  0  0  0  0  0  0  0  0  0  0
    0.2537   -1.6880    0.4617 H   0  0  0  0  0  0  0  0  0  0  0  0
   -0.9277    1.2254    0.2300 C   0  0  0  0  0  3  0  0  0  0  0  0
   -0.9410    0.8856   -1.1173 O   0  0  0  0  0  0  0  0  0  0  0  0
   -1.2163   -0.4557   -1.2767 N   0  0  0  0  0  0  0  0  0  0  0  0
   -1.2366   -0.7897   -2.4951 C   0  0  0  0  0  0  0  0  0  0  0  0
    0.1532    0.5830    0.8124 H   0  0  0  0  0  0  0  0  0  0  0  0
   -1.7996    0.8627    0.7749 H   0  0  0  0  0  0  0  0  0  0  0  0
   -0.7624    2.2965    0.3047 H   0  0  0  0  0  0  0  0  0  0  0  0
   -1.4470   -1.8291   -2.7083 H   0  0  0  0  0  0  0  0  0  0  0  0
   -1.0535   -0.0815   -3.2997 H   0  0  0  0  0  0  0  0  0  0  0  0
  1  2  1  0
  1  4  1  0
  1  5  1  0
  1  6  1  0
  2  3  2  3
  2 12  1  0
  3  7  1  0
  8  9  1  0
  8 13  1  0
  8 14  1  0
  9 10  1  0
 10 11  2  3
 11 15  1  0
 11 16  1  0
M  RAD  1   8   2
M  END
>  <reaction>  (4) 
rmg_rxn_16575

>  <mol_properties>  (4) 
{"1": {"label": "*1", "atom_type": "Cd"}, "2": {"label": "*0", "atom_type": "N3d"}, "7": {"label": "*3", "atom_type": "Cs"}, "8": {"label": "*4", "atom_type": "O2s"}, "11": {"label": "*2", "atom_type": "H0"}}

>  <type>  (4) 
ts

$$$$

     RDKit          3D

 16 14  0  0  0  0  0  0  0  0999 V2000
   -1.6893   -1.3218   -0.6590 C   0  0  0  0  0  0  0  0  0  0  0  0
   -1.7876   -0.0034    0.0003 C   0  0  0  0  0  3  0  0  0  0  0  0
   -2.6488    0.3073    0.8393 N   0  0  0  0  0  0  0  0  0  0  0  0
   -1.7985   -1.1911   -1.7348 H   0  0  0  0  0  0  0  0  0  0  0  0
   -0.6955   -1.7296   -0.4778 H   0  0  0  0  0  0  0  0  0  0  0  0
   -2.4513   -2.0104   -0.2956 H   0  0  0  0  0  0  0  0  0  0  0  0
   -2.6325    1.2351    1.2478 H   0  0  0  0  0  0  0  0  0  0  0  0
    0.3646    1.4055   -0.6631 C   0  0  0  0  0  0  0  0  0  0  0  0
    1.3882    0.8912    0.1343 O   0  0  0  0  0  0  0  0  0  0  0  0
    1.6463   -0.4344   -0.1509 N   0  0  0  0  0  0  0  0  0  0  0  0
    2.5681   -0.9757    0.5218 C   0  0  0  0  0  0  0  0  0  0  0  0
   -0.7610    0.7817   -0.3502 H   0  0  0  0  0  0  0  0  0  0  0  0
    0.5212    1.2232   -1.7251 H   0  0  0  0  0  0  0  0  0  0  0  0
    0.2730    2.4586   -0.4207 H   0  0  0  0  0  0  0  0  0  0  0  0
    2.7798   -2.0071    0.3026 H   0  0  0  0  0  0  0  0  0  0  0  0
    3.1448   -0.4694    1.2896 H   0  0  0  0  0  0  0  0  0  0  0  0
  1  2  1  0
  1  4  1  0
  1  5  1  0
  1  6  1  0
  2  3  2  3
  3  7  1  0
  8  9  1  0
  8 12  1  0
  8 13  1  0
  8 14  1  0
  9 10  1  0
 10 11  2  3
 11 15  1  0
 11 16  1  0
M  RAD  1   2   2
M  END
>  <reaction>  (5) 
rmg_rxn_16575

>  <mol_properties>  (5) 
{"1": {"label": "*1", "atom_type": "Cd"}, "2": {"label": "*0", "atom_type": "N3d"}, "7": {"label": "*3", "atom_type": "Cs"}, "8": {"label": "*4", "atom_type": "O2s"}, "11": {"label": "*2", "atom_type": "H0"}}

>  <type>  (5) 
unop_1

>  <geom_source>  (5) 
crest_best.xyz

$$$$

     RDKit          3D

 16 14  0  0  0  0  0  0  0  0999 V2000
    2.0410    0.4776    2.1779 C   0  0  0  0  0  0  0  0  0  0  0  0
    1.1594   -0.3302    1.2850 C   0  0  0  0  0  3  0  0  0  0  0  0
    0.8969   -1.5425    1.5249 N   0  0  0  0  0  0  0  0  0  0  0  0
    2.3902   -0.1272    3.0129 H   0  0  0  0  0  0  0  0  0  0  0  0
    2.8991    0.8577    1.6176 H   0  0  0  0  0  0  0  0  0  0  0  0
    1.4984    1.3470    2.5578 H   0  0  0  0  0  0  0  0  0  0  0  0
    0.2828   -1.9315    0.8125 H   0  0  0  0  0  0  0  0  0  0  0  0
   -0.9870    0.8972    0.3946 C   0  0  0  0  0  0  0  0  0  0  0  0
   -0.9870    0.9551   -1.0183 O   0  0  0  0  0  0  0  0  0  0  0  0
   -0.9870   -0.3188   -1.5341 N   0  0  0  0  0  0  0  0  0  0  0  0
   -0.9870   -0.3188   -2.7977 C   0  0  0  0  0  0  0  0  0  0  0  0
    0.0836    0.2850    0.8387 H   0  0  0  0  0  0  0  0  0  0  0  0
   -1.8791    0.3870    0.7647 H   0  0  0  0  0  0  0  0  0  0  0  0
   -0.9870    1.9321    0.7324 H   0  0  0  0  0  0  0  0  0  0  0  0
   -0.9870   -1.2859   -3.2825 H   0  0  0  0  0  0  0  0  0  0  0  0
   -0.9870    0.5977   -3.3838 H   0  0  0  0  0  0  0  0  0  0  0  0
  1  2  1  0
  1  4  1  0
  1  5  1  0
  1  6  1  0
  2  3  2  3
  3  7  1  0
  8  9  1  0
  8 12  1  0
  8 13  1  0
  8 14  1  0
  9 10  1  0
 10 11  2  3
 11 15  1  0
 11 16  1  0
M  RAD  1   2   2
M  END
>  <reaction>  (6) 
rmg_rxn_16575

>  <mol_properties>  (6) 
{"1": {"label": "*1", "atom_type": "Cd"}, "2": {"label": "*0", "atom_type": "N3d"}, "7": {"label": "*3", "atom_type": "Cs"}, "8": {"label": "*4", "atom_type": "O2s"}, "11": {"label": "*2", "atom_type": "H0"}}

>  <type>  (6) 
unop_2

>  <geom_source>  (6) 
Heuristics

$$$$

     RDKit          3D

 16 14  0  0  0  0  0  0  0  0999 V2000
    2.2790   -0.2249    0.5496 C   0  0  0  0  0  0  0  0  0  0  0  0
    1.0612   -0.3541    1.4025 C   0  0  0  0  0  3  0  0  0  0  0  0
    1.1281   -0.7140    2.6117 N   0  0  0  0  0  0  0  0  0  0  0  0
    3.1700   -0.4795    1.1208 H   0  0  0  0  0  0  0  0  0  0  0  0
    2.2021   -0.8823   -0.3202 H   0  0  0  0  0  0  0  0  0  0  0  0
    2.3674    0.7963    0.1701 H   0  0  0  0  0  0  0  0  0  0  0  0
    0.2029   -0.7465    3.0350 H   0  0  0  0  0  0  0  0  0  0  0  0
   -1.0851    0.8732    0.5121 C   0  0  0  0  0  0  0  0  0  0  0  0
   -1.0852    0.9311   -0.9008 O   0  0  0  0  0  0  0  0  0  0  0  0
   -1.0852   -0.3428   -1.4166 N   0  0  0  0  0  0  0  0  0  0  0  0
   -1.0852   -0.3428   -2.6802 C   0  0  0  0  0  0  0  0  0  0  0  0
   -0.0146    0.2610    0.9562 H   0  0  0  0  0  0  0  0  0  0  0  0
   -1.9773    0.3630    0.8822 H   0  0  0  0  0  0  0  0  0  0  0  0
   -1.0852    1.9081    0.8499 H   0  0  0  0  0  0  0  0  0  0  0  0
   -1.0852   -1.3098   -3.1650 H   0  0  0  0  0  0  0  0  0  0  0  0
   -1.0852    0.5737   -3.2663 H   0  0  0  0  0  0  0  0  0  0  0  0
  1  2  1  0
  1  4  1  0
  1  5  1  0
  1  6  1  0
  2  3  2  3
  3  7  1  0
  8  9  1  0
  8 12  1  0
  8 13  1  0
  8 14  1  0
  9 10  1  0
 10 11  2  3
 11 15  1  0
 11 16  1  0
M  RAD  1   2   2
M  END
>  <reaction>  (7) 
rmg_rxn_16575

>  <mol_properties>  (7) 
{"1": {"label": "*1", "atom_type": "Cd"}, "2": {"label": "*0", "atom_type": "N3d"}, "7": {"label": "*3", "atom_type": "Cs"}, "8": {"label": "*4", "atom_type": "O2s"}, "11": {"label": "*2", "atom_type": "H0"}}

>  <type>  (7) 
unop_3

>  <geom_source>  (7) 
Heuristics

$$$$

     RDKit          3D

 16 14  0  0  0  0  0  0  0  0999 V2000
    1.6474    0.1644    2.6510 C   0  0  0  0  0  0  0  0  0  0  0  0
    1.1586   -0.2795    1.3127 C   0  0  0  0  0  3  0  0  0  0  0  0
    1.3003   -1.4689    0.9110 N   0  0  0  0  0  0  0  0  0  0  0  0
    2.1142   -0.6658    3.1781 H   0  0  0  0  0  0  0  0  0  0  0  0
    2.3685    0.9781    2.5387 H   0  0  0  0  0  0  0  0  0  0  0  0
    0.8173    0.5545    3.2456 H   0  0  0  0  0  0  0  0  0  0  0  0
    0.9085   -1.5891   -0.0208 H   0  0  0  0  0  0  0  0  0  0  0  0
   -0.9878    0.9479    0.4223 C   0  0  0  0  0  0  0  0  0  0  0  0
   -0.9878    1.0058   -0.9906 O   0  0  0  0  0  0  0  0  0  0  0  0
   -0.9878   -0.2681   -1.5063 N   0  0  0  0  0  0  0  0  0  0  0  0
   -0.9878   -0.2681   -2.7699 C   0  0  0  0  0  0  0  0  0  0  0  0
    0.0828    0.3357    0.8664 H   0  0  0  0  0  0  0  0  0  0  0  0
   -1.8799    0.4377    0.7924 H   0  0  0  0  0  0  0  0  0  0  0  0
   -0.9878    1.9828    0.7601 H   0  0  0  0  0  0  0  0  0  0  0  0
   -0.9878   -1.2352   -3.2547 H   0  0  0  0  0  0  0  0  0  0  0  0
   -0.9878    0.6484   -3.3561 H   0  0  0  0  0  0  0  0  0  0  0  0
  1  2  1  0
  1  4  1  0
  1  5  1  0
  1  6  1  0
  2  3  2  3
  3  7  1  0
  8  9  1  0
  8 12  1  0
  8 13  1  0
  8 14  1  0
  9 10  1  0
 10 11  2  3
 11 15  1  0
 11 16  1  0
M  RAD  1   2   2
M  END
>  <reaction>  (8) 
rmg_rxn_16575

>  <mol_properties>  (8) 
{"1": {"label": "*1", "atom_type": "Cd"}, "2": {"label": "*0", "atom_type": "N3d"}, "7": {"label": "*3", "atom_type": "Cs"}, "8": {"label": "*4", "atom_type": "O2s"}, "11": {"label": "*2", "atom_type": "H0"}}

>  <type>  (8) 
unop_4

>  <geom_source>  (8) 
Heuristics

$$$$

     RDKit          3D

 16 14  0  0  0  0  0  0  0  0999 V2000
    1.3389   -1.6460    0.8996 C   0  0  0  0  0  0  0  0  0  0  0  0
    1.1663   -0.2354    1.3552 C   0  0  0  0  0  3  0  0  0  0  0  0
    1.5763    0.1565    2.4842 N   0  0  0  0  0  0  0  0  0  0  0  0
    1.8462   -2.2314    1.6643 H   0  0  0  0  0  0  0  0  0  0  0  0
    0.3659   -2.0939    0.6816 H   0  0  0  0  0  0  0  0  0  0  0  0
    1.9176   -1.6751   -0.0272 H   0  0  0  0  0  0  0  0  0  0  0  0
    1.3736    1.1442    2.6240 H   0  0  0  0  0  0  0  0  0  0  0  0
   -0.9801    0.9919    0.4648 C   0  0  0  0  0  0  0  0  0  0  0  0
   -0.9801    1.0499   -0.9481 O   0  0  0  0  0  0  0  0  0  0  0  0
   -0.9801   -0.2240   -1.4638 N   0  0  0  0  0  0  0  0  0  0  0  0
   -0.9801   -0.2240   -2.7274 C   0  0  0  0  0  0  0  0  0  0  0  0
    0.0905    0.3798    0.9089 H   0  0  0  0  0  0  0  0  0  0  0  0
   -1.8722    0.4818    0.8349 H   0  0  0  0  0  0  0  0  0  0  0  0
   -0.9801    2.0268    0.8026 H   0  0  0  0  0  0  0  0  0  0  0  0
   -0.9801   -1.1911   -3.2123 H   0  0  0  0  0  0  0  0  0  0  0  0
   -0.9801    0.6925   -3.3136 H   0  0  0  0  0  0  0  0  0  0  0  0
  1  2  1  0
  1  4  1  0
  1  5  1  0
  1  6  1  0
  2  3  2  3
  3  7  1  0
  8  9  1  0
  8 12  1  0
  8 13  1  0
  8 14  1  0
  9 10  1  0
 10 11  2  3
 11 15  1  0
 11 16  1  0
M  RAD  1   2   2
M  END
>  <reaction>  (9) 
rmg_rxn_16575

>  <mol_properties>  (9) 
{"1": {"label": "*1", "atom_type": "Cd"}, "2": {"label": "*0", "atom_type": "N3d"}, "7": {"label": "*3", "atom_type": "Cs"}, "8": {"label": "*4", "atom_type": "O2s"}, "11": {"label": "*2", "atom_type": "H0"}}

>  <type>  (9) 
unop_5

>  <geom_source>  (9) 
Heuristics

$$$$

     RDKit          3D

 16 14  0  0  0  0  0  0  0  0999 V2000
    1.2124   -0.4221    2.8291 C   0  0  0  0  0  0  0  0  0  0  0  0
    1.1063   -0.3024    1.3453 C   0  0  0  0  0  3  0  0  0  0  0  0
    1.9938   -0.7631    0.5731 N   0  0  0  0  0  0  0  0  0  0  0  0
    2.1291   -0.9418    3.1023 H   0  0  0  0  0  0  0  0  0  0  0  0
    1.2031    0.5693    3.2893 H   0  0  0  0  0  0  0  0  0  0  0  0
    0.3515   -0.9657    3.2264 H   0  0  0  0  0  0  0  0  0  0  0  0
    1.7555   -0.5910   -0.4014 H   0  0  0  0  0  0  0  0  0  0  0  0
   -1.0401    0.9250    0.4549 C   0  0  0  0  0  0  0  0  0  0  0  0
   -1.0401    0.9829   -0.9579 O   0  0  0  0  0  0  0  0  0  0  0  0
   -1.0401   -0.2910   -1.4737 N   0  0  0  0  0  0  0  0  0  0  0  0
   -1.0401   -0.2910   -2.7373 C   0  0  0  0  0  0  0  0  0  0  0  0
    0.0305    0.3128    0.8991 H   0  0  0  0  0  0  0  0  0  0  0  0
   -1.9322    0.4148    0.8251 H   0  0  0  0  0  0  0  0  0  0  0  0
   -1.0401    1.9599    0.7927 H   0  0  0  0  0  0  0  0  0  0  0  0
   -1.0401   -1.2581   -3.2221 H   0  0  0  0  0  0  0  0  0  0  0  0
   -1.0401    0.6255   -3.3234 H   0  0  0  0  0  0  0  0  0  0  0  0
  1  2  1  0
  1  4  1  0
  1  5  1  0
  1  6  1  0
  2  3  2  3
  3  7  1  0
  8  9  1  0
  8 12  1  0
  8 13  1  0
  8 14  1  0
  9 10  1  0
 10 11  2  3
 11 15  1  0
 11 16  1  0
M  RAD  1   2   2
M  END
>  <reaction>  (10) 
rmg_rxn_16575

>  <mol_properties>  (10) 
{"1": {"label": "*1", "atom_type": "Cd"}, "2": {"label": "*0", "atom_type": "N3d"}, "7": {"label": "*3", "atom_type": "Cs"}, "8": {"label": "*4", "atom_type": "O2s"}, "11": {"label": "*2", "atom_type": "H0"}}

>  <type>  (10) 
unop_6

>  <geom_source>  (10) 
Heuristics

$$$$

     RDKit          3D

 16 14  0  0  0  0  0  0  0  0999 V2000
    1.0551   -1.7506    1.4754 C   0  0  0  0  0  0  0  0  0  0  0  0
    1.1804   -0.2733    1.3050 C   0  0  0  0  0  3  0  0  0  0  0  0
    1.7966    0.4454    2.1416 N   0  0  0  0  0  0  0  0  0  0  0  0
    1.5563   -2.0703    2.3873 H   0  0  0  0  0  0  0  0  0  0  0  0
    0.0013   -2.0376    1.5175 H   0  0  0  0  0  0  0  0  0  0  0  0
    1.4919   -2.2679    0.6174 H   0  0  0  0  0  0  0  0  0  0  0  0
    1.7804    1.4247    1.8642 H   0  0  0  0  0  0  0  0  0  0  0  0
   -0.9660    0.9540    0.4146 C   0  0  0  0  0  0  0  0  0  0  0  0
   -0.9660    1.0119   -0.9983 O   0  0  0  0  0  0  0  0  0  0  0  0
   -0.9660   -0.2620   -1.5141 N   0  0  0  0  0  0  0  0  0  0  0  0
   -0.9660   -0.2620   -2.7777 C   0  0  0  0  0  0  0  0  0  0  0  0
    0.1046    0.3418    0.8587 H   0  0  0  0  0  0  0  0  0  0  0  0
   -1.8581    0.4438    0.7847 H   0  0  0  0  0  0  0  0  0  0  0  0
   -0.9660    1.9889    0.7524 H   0  0  0  0  0  0  0  0  0  0  0  0
   -0.9660   -1.2290   -3.2625 H   0  0  0  0  0  0  0  0  0  0  0  0
   -0.9660    0.6545   -3.3638 H   0  0  0  0  0  0  0  0  0  0  0  0
  1  2  1  0
  1  4  1  0
  1  5  1  0
  1  6  1  0
  2  3  2  3
  3  7  1  0
  8  9  1  0
  8 12  1  0
  8 13  1  0
  8 14  1  0
  9 10  1  0
 10 11  2  3
 11 15  1  0
 11 16  1  0
M  RAD  1   2   2
M  END
>  <reaction>  (11) 
rmg_rxn_16575

>  <mol_properties>  (11) 
{"1": {"label": "*1", "atom_type": "Cd"}, "2": {"label": "*0", "atom_type": "N3d"}, "7": {"label": "*3", "atom_type": "Cs"}, "8": {"label": "*4", "atom_type": "O2s"}, "11": {"label": "*2", "atom_type": "H0"}}

>  <type>  (11) 
unop_7

>  <geom_source>  (11) 
Heuristics

$$$$

     RDKit          3D

 16 14  0  0  0  0  0  0  0  0999 V2000
    0.9117   -1.5578    2.0945 C   0  0  0  0  0  0  0  0  0  0  0  0
    1.1601   -0.3289    1.2850 C   0  0  0  0  0  3  0  0  0  0  0  0
    2.0400    0.5177    1.6094 N   0  0  0  0  0  0  0  0  0  0  0  0
    1.5802   -1.5871    2.9531 H   0  0  0  0  0  0  0  0  0  0  0  0
   -0.1257   -1.5803    2.4379 H   0  0  0  0  0  0  0  0  0  0  0  0
    1.0637   -2.4503    1.4820 H   0  0  0  0  0  0  0  0  0  0  0  0
    2.0689    1.2878    0.9444 H   0  0  0  0  0  0  0  0  0  0  0  0
   -0.9863    0.8984    0.3946 C   0  0  0  0  0  0  0  0  0  0  0  0
   -0.9863    0.9563   -1.0183 O   0  0  0  0  0  0  0  0  0  0  0  0
   -0.9863   -0.3176   -1.5340 N   0  0  0  0  0  0  0  0  0  0  0  0
   -0.9863   -0.3176   -2.7976 C   0  0  0  0  0  0  0  0  0  0  0  0
    0.0843    0.2862    0.8387 H   0  0  0  0  0  0  0  0  0  0  0  0
   -1.8784    0.3882    0.7647 H   0  0  0  0  0  0  0  0  0  0  0  0
   -0.9863    1.9333    0.7324 H   0  0  0  0  0  0  0  0  0  0  0  0
   -0.9863   -1.2847   -3.2825 H   0  0  0  0  0  0  0  0  0  0  0  0
   -0.9863    0.5989   -3.3838 H   0  0  0  0  0  0  0  0  0  0  0  0
  1  2  1  0
  1  4  1  0
  1  5  1  0
  1  6  1  0
  2  3  2  3
  3  7  1  0
  8  9  1  0
  8 12  1  0
  8 13  1  0
  8 14  1  0
  9 10  1  0
 10 11  2  3
 11 15  1  0
 11 16  1  0
M  RAD  1   2   2
M  END
>  <reaction>  (12) 
rmg_rxn_16575

>  <mol_properties>  (12) 
{"1": {"label": "*1", "atom_type": "Cd"}, "2": {"label": "*0", "atom_type": "N3d"}, "7": {"label": "*3", "atom_type": "Cs"}, "8": {"label": "*4", "atom_type": "O2s"}, "11": {"label": "*2", "atom_type": "H0"}}

>  <type>  (12) 
unop_8

>  <geom_source>  (12) 
Heuristics

$$$$

     RDKit          3D

 16 14  0  0  0  0  0  0  0  0999 V2000
    2.3018    0.4965    1.5675 C   0  0  0  0  0  0  0  0  0  0  0  0
    1.1223   -0.3780    1.3007 C   0  0  0  0  0  3  0  0  0  0  0  0
    0.8107   -1.3315    2.0688 N   0  0  0  0  0  0  0  0  0  0  0  0
    2.8066    0.1833    2.4797 H   0  0  0  0  0  0  0  0  0  0  0  0
    3.0014    0.4528    0.7289 H   0  0  0  0  0  0  0  0  0  0  0  0
    1.9852    1.5382    1.6641 H   0  0  0  0  0  0  0  0  0  0  0  0
   -0.0180   -1.8167    1.7313 H   0  0  0  0  0  0  0  0  0  0  0  0
   -1.0241    0.8494    0.4103 C   0  0  0  0  0  0  0  0  0  0  0  0
   -1.0241    0.9073   -1.0026 O   0  0  0  0  0  0  0  0  0  0  0  0
   -1.0241   -0.3666   -1.5183 N   0  0  0  0  0  0  0  0  0  0  0  0
   -1.0241   -0.3666   -2.7820 C   0  0  0  0  0  0  0  0  0  0  0  0
    0.0465    0.2372    0.8544 H   0  0  0  0  0  0  0  0  0  0  0  0
   -1.9162    0.3392    0.7804 H   0  0  0  0  0  0  0  0  0  0  0  0
   -1.0241    1.8843    0.7481 H   0  0  0  0  0  0  0  0  0  0  0  0
   -1.0241   -1.3337   -3.2668 H   0  0  0  0  0  0  0  0  0  0  0  0
   -1.0241    0.5499   -3.3681 H   0  0  0  0  0  0  0  0  0  0  0  0
  1  2  1  0
  1  4  1  0
  1  5  1  0
  1  6  1  0
  2  3  2  3
  3  7  1  0
  8  9  1  0
  8 12  1  0
  8 13  1  0
  8 14  1  0
  9 10  1  0
 10 11  2  3
 11 15  1  0
 11 16  1  0
M  RAD  1   2   2
M  END
>  <reaction>  (13) 
rmg_rxn_16575

>  <mol_properties>  (13) 
{"1": {"label": "*1", "atom_type": "Cd"}, "2": {"label": "*0", "atom_type": "N3d"}, "7": {"label": "*3", "atom_type": "Cs"}, "8": {"label": "*4", "atom_type": "O2s"}, "11": {"label": "*2", "atom_type": "H0"}}

>  <type>  (13) 
unop_9

>  <geom_source>  (13) 
Heuristics

$$$$

     RDKit          3D

 16 14  0  0  0  0  0  0  0  0999 V2000
   -1.6893   -1.3218   -0.6590 C   0  0  0  0  0  0  0  0  0  0  0  0
   -1.7876   -0.0034    0.0003 C   0  0  0  0  0  3  0  0  0  0  0  0
   -2.6488    0.3073    0.8393 N   0  0  0  0  0  0  0  0  0  0  0  0
   -1.7985   -1.1911   -1.7348 H   0  0  0  0  0  0  0  0  0  0  0  0
   -0.6955   -1.7296   -0.4778 H   0  0  0  0  0  0  0  0  0  0  0  0
   -2.4513   -2.0104   -0.2956 H   0  0  0  0  0  0  0  0  0  0  0  0
   -2.6325    1.2351    1.2478 H   0  0  0  0  0  0  0  0  0  0  0  0
    0.3646    1.4055   -0.6631 C   0  0  0  0  0  0  0  0  0  0  0  0
    1.3882    0.8912    0.1343 O   0  0  0  0  0  0  0  0  0  0  0  0
    1.6463   -0.4344   -0.1509 N   0  0  0  0  0  0  0  0  0  0  0  0
    2.5681   -0.9757    0.5218 C   0  0  0  0  0  0  0  0  0  0  0  0
   -0.7610    0.7817   -0.3502 H   0  0  0  0  0  0  0  0  0  0  0  0
    0.5212    1.2232   -1.7251 H   0  0  0  0  0  0  0  0  0  0  0  0
    0.2730    2.4586   -0.4207 H   0  0  0  0  0  0  0  0  0  0  0  0
    2.7798   -2.0071    0.3026 H   0  0  0  0  0  0  0  0  0  0  0  0
    3.1448   -0.4694    1.2896 H   0  0  0  0  0  0  0  0  0  0  0  0
  1  2  1  0
  1  4  1  0
  1  5  1  0
  1  6  1  0
  2  3  2  3
  3  7  1  0
  8  9  1  0
  8 12  1  0
  8 13  1  0
  8 14  1  0
  9 10  1  0
 10 11  2  3
 11 15  1  0
 11 16  1  0
M  RAD  1   2   2
M  END
>  <reaction>  (14) 
rmg_rxn_16575

>  <mol_properties>  (14) 
{"1": {"label": "*1", "atom_type": "Cd"}, "2": {"label": "*0", "atom_type": "N3d"}, "7": {"label": "*3", "atom_type": "Cs"}, "8": {"label": "*4", "atom_type": "O2s"}, "11": {"label": "*2", "atom_type": "H0"}}

>  <type>  (14) 
unop_10

>  <geom_source>  (14) 
Heuristics

$$$$

     RDKit          3D

 16 14  0  0  0  0  0  0  0  0999 V2000
    1.6897   -1.2872    0.5061 C   0  0  0  0  0  0  0  0  0  0  0  0
    1.1243   -0.2405    1.4071 C   0  0  0  0  0  3  0  0  0  0  0  0
    1.4226   -0.1831    2.6335 N   0  0  0  0  0  0  0  0  0  0  0  0
    2.3577   -1.9437    1.0608 H   0  0  0  0  0  0  0  0  0  0  0  0
    0.8844   -1.8768    0.0606 H   0  0  0  0  0  0  0  0  0  0  0  0
    2.2362   -0.8209   -0.3177 H   0  0  0  0  0  0  0  0  0  0  0  0
    0.9453    0.5915    3.0899 H   0  0  0  0  0  0  0  0  0  0  0  0
   -1.0221    0.9868    0.5167 C   0  0  0  0  0  0  0  0  0  0  0  0
   -1.0221    1.0448   -0.8962 O   0  0  0  0  0  0  0  0  0  0  0  0
   -1.0221   -0.2291   -1.4119 N   0  0  0  0  0  0  0  0  0  0  0  0
   -1.0221   -0.2291   -2.6755 C   0  0  0  0  0  0  0  0  0  0  0  0
    0.0485    0.3747    0.9608 H   0  0  0  0  0  0  0  0  0  0  0  0
   -1.9142    0.4766    0.8868 H   0  0  0  0  0  0  0  0  0  0  0  0
   -1.0221    2.0217    0.8545 H   0  0  0  0  0  0  0  0  0  0  0  0
   -1.0221   -1.1962   -3.1603 H   0  0  0  0  0  0  0  0  0  0  0  0
   -1.0221    0.6874   -3.2617 H   0  0  0  0  0  0  0  0  0  0  0  0
  1  2  1  0
  1  4  1  0
  1  5  1  0
  1  6  1  0
  2  3  2  3
  3  7  1  0
  8  9  1  0
  8 12  1  0
  8 13  1  0
  8 14  1  0
  9 10  1  0
 10 11  2  3
 11 15  1  0
 11 16  1  0
M  RAD  1   2   2
M  END
>  <reaction>  (15) 
rmg_rxn_16575

>  <mol_properties>  (15) 
{"1": {"label": "*1", "atom_type": "Cd"}, "2": {"label": "*0", "atom_type": "N3d"}, "7": {"label": "*3", "atom_type": "Cs"}, "8": {"label": "*4", "atom_type": "O2s"}, "11": {"label": "*2", "atom_type": "H0"}}

>  <type>  (15) 
unop_11

>  <geom_source>  (15) 
Heuristics

$$$$

     RDKit          3D

 16 14  0  0  0  0  0  0  0  0999 V2000
    2.3835    0.2369    0.9767 C   0  0  0  0  0  0  0  0  0  0  0  0
    1.0810   -0.3892    1.3489 C   0  0  0  0  0  3  0  0  0  0  0  0
    0.9270   -1.0139    2.4362 N   0  0  0  0  0  0  0  0  0  0  0  0
    3.1219    0.0678    1.7585 H   0  0  0  0  0  0  0  0  0  0  0  0
    2.7470   -0.1801    0.0341 H   0  0  0  0  0  0  0  0  0  0  0  0
    2.2551    1.3112    0.8212 H   0  0  0  0  0  0  0  0  0  0  0  0
   -0.0222   -1.3717    2.5209 H   0  0  0  0  0  0  0  0  0  0  0  0
   -1.0654    0.8382    0.4585 C   0  0  0  0  0  0  0  0  0  0  0  0
   -1.0654    0.8961   -0.9544 O   0  0  0  0  0  0  0  0  0  0  0  0
   -1.0654   -0.3778   -1.4701 N   0  0  0  0  0  0  0  0  0  0  0  0
   -1.0654   -0.3778   -2.7337 C   0  0  0  0  0  0  0  0  0  0  0  0
    0.0052    0.2260    0.9026 H   0  0  0  0  0  0  0  0  0  0  0  0
   -1.9575    0.3280    0.8286 H   0  0  0  0  0  0  0  0  0  0  0  0
   -1.0654    1.8731    0.7963 H   0  0  0  0  0  0  0  0  0  0  0  0
   -1.0654   -1.3449   -3.2186 H   0  0  0  0  0  0  0  0  0  0  0  0
   -1.0654    0.5387   -3.3199 H   0  0  0  0  0  0  0  0  0  0  0  0
  1  2  1  0
  1  4  1  0
  1  5  1  0
  1  6  1  0
  2  3  2  3
  3  7  1  0
  8  9  1  0
  8 12  1  0
  8 13  1  0
  8 14  1  0
  9 10  1  0
 10 11  2  3
 11 15  1  0
 11 16  1  0
M  RAD  1   2   2
M  END
>  <reaction>  (16) 
rmg_rxn_16575

>  <mol_properties>  (16) 
{"1": {"label": "*1", "atom_type": "Cd"}, "2": {"label": "*0", "atom_type": "N3d"}, "7": {"label": "*3", "atom_type": "Cs"}, "8": {"label": "*4", "atom_type": "O2s"}, "11": {"label": "*2", "atom_type": "H0"}}

>  <type>  (16) 
unop_12

>  <geom_source>  (16) 
Heuristics

$$$$

     RDKit          3D

 16 14  0  0  0  0  0  0  0  0999 V2000
    0.9521   -1.0887    2.5997 C   0  0  0  0  0  0  0  0  0  0  0  0
    1.1157   -0.3568    1.3095 C   0  0  0  0  0  3  0  0  0  0  0  0
    2.2127    0.1755    0.9784 N   0  0  0  0  0  0  0  0  0  0  0  0
    1.8847   -1.0796    3.1611 H   0  0  0  0  0  0  0  0  0  0  0  0
    0.1611   -0.6283    3.1972 H   0  0  0  0  0  0  0  0  0  0  0  0
    0.6486   -2.1218    2.4116 H   0  0  0  0  0  0  0  0  0  0  0  0
    2.1392    0.6292    0.0701 H   0  0  0  0  0  0  0  0  0  0  0  0
   -1.0307    0.8706    0.4191 C   0  0  0  0  0  0  0  0  0  0  0  0
   -1.0307    0.9285   -0.9937 O   0  0  0  0  0  0  0  0  0  0  0  0
   -1.0307   -0.3454   -1.5095 N   0  0  0  0  0  0  0  0  0  0  0  0
   -1.0307   -0.3454   -2.7731 C   0  0  0  0  0  0  0  0  0  0  0  0
    0.0399    0.2584    0.8633 H   0  0  0  0  0  0  0  0  0  0  0  0
   -1.9228    0.3604    0.7893 H   0  0  0  0  0  0  0  0  0  0  0  0
   -1.0307    1.9055    0.7569 H   0  0  0  0  0  0  0  0  0  0  0  0
   -1.0307   -1.3125   -3.2579 H   0  0  0  0  0  0  0  0  0  0  0  0
   -1.0307    0.5711   -3.3592 H   0  0  0  0  0  0  0  0  0  0  0  0
  1  2  1  0
  1  4  1  0
  1  5  1  0
  1  6  1  0
  2  3  2  3
  3  7  1  0
  8  9  1  0
  8 12  1  0
  8 13  1  0
  8 14  1  0
  9 10  1  0
 10 11  2  3
 11 15  1  0
 11 16  1  0
M  RAD  1   2   2
M  END
>  <reaction>  (17) 
rmg_rxn_16575

>  <mol_properties>  (17) 
{"1": {"label": "*1", "atom_type": "Cd"}, "2": {"label": "*0", "atom_type": "N3d"}, "7": {"label": "*3", "atom_type": "Cs"}, "8": {"label": "*4", "atom_type": "O2s"}, "11": {"label": "*2", "atom_type": "H0"}}

>  <type>  (17) 
unop_13

>  <geom_source>  (17) 
Heuristics

$$$$

     RDKit          3D

 16 14  0  0  0  0  0  0  0  0999 V2000
    2.0268   -0.7736    0.3815 C   0  0  0  0  0  0  0  0  0  0  0  0
    1.0788   -0.2905    1.4279 C   0  0  0  0  0  3  0  0  0  0  0  0
    1.2995   -0.4634    2.6599 N   0  0  0  0  0  0  0  0  0  0  0  0
    2.8809   -1.2663    0.8428 H   0  0  0  0  0  0  0  0  0  0  0  0
    1.5221   -1.4710   -0.2920 H   0  0  0  0  0  0  0  0  0  0  0  0
    2.3737    0.0640   -0.2291 H   0  0  0  0  0  0  0  0  0  0  0  0
    0.5492   -0.0703    3.2242 H   0  0  0  0  0  0  0  0  0  0  0  0
   -1.0676    0.9368    0.5375 C   0  0  0  0  0  0  0  0  0  0  0  0
   -1.0676    0.9947   -0.8754 O   0  0  0  0  0  0  0  0  0  0  0  0
   -1.0676   -0.2792   -1.3911 N   0  0  0  0  0  0  0  0  0  0  0  0
   -1.0676   -0.2792   -2.6547 C   0  0  0  0  0  0  0  0  0  0  0  0
    0.0030    0.3246    0.9816 H   0  0  0  0  0  0  0  0  0  0  0  0
   -1.9597    0.4266    0.9076 H   0  0  0  0  0  0  0  0  0  0  0  0
   -1.0676    1.9717    0.8753 H   0  0  0  0  0  0  0  0  0  0  0  0
   -1.0676   -1.2462   -3.1396 H   0  0  0  0  0  0  0  0  0  0  0  0
   -1.0676    0.6373   -3.2409 H   0  0  0  0  0  0  0  0  0  0  0  0
  1  2  1  0
  1  4  1  0
  1  5  1  0
  1  6  1  0
  2  3  2  3
  3  7  1  0
  8  9  1  0
  8 12  1  0
  8 13  1  0
  8 14  1  0
  9 10  1  0
 10 11  2  3
 11 15  1  0
 11 16  1  0
M  RAD  1   2   2
M  END
>  <reaction>  (18) 
rmg_rxn_16575

>  <mol_properties>  (18) 
{"1": {"label": "*1", "atom_type": "Cd"}, "2": {"label": "*0", "atom_type": "N3d"}, "7": {"label": "*3", "atom_type": "Cs"}, "8": {"label": "*4", "atom_type": "O2s"}, "11": {"label": "*2", "atom_type": "H0"}}

>  <type>  (18) 
unop_14

>  <geom_source>  (18) 
Heuristics

$$$$

     RDKit          3D

 16 14  0  0  0  0  0  0  0  0999 V2000
    1.9752    0.0107   -0.1582 O   0  0  0  0  0  0  0  0  0  0  0  0
    2.9514    0.9534    0.0708 N   0  0  0  0  0  0  0  0  0  0  0  0
   -1.4896   -1.8679    0.1563 N   0  0  0  0  0  0  0  0  0  0  0  0
   -3.1500   -0.0979   -0.0288 C   0  0  0  0  0  0  0  0  0  0  0  0
   -1.7470   -0.6257   -0.0476 C   0  0  0  0  0  0  0  0  0  0  0  0
    0.6061    0.3444   -0.0018 C   0  0  0  0  0  3  0  0  0  0  0  0
    4.1999    0.6529   -0.0707 C   0  0  0  0  0  0  0  0  0  0  0  0
   -3.8876   -0.9027    0.1764 H   0  0  0  0  0  0  0  0  0  0  0  0
   -3.3813    0.3588   -1.0132 H   0  0  0  0  0  0  0  0  0  0  0  0
   -3.2372    0.6788    0.7587 H   0  0  0  0  0  0  0  0  0  0  0  0
   -0.8028    0.1685   -0.2683 H   0  0  0  0  0  0  0  0  0  0  0  0
    4.4963   -0.3443   -0.3713 H   0  0  0  0  0  0  0  0  0  0  0  0
    4.9576    1.4023    0.1122 H   0  0  0  0  0  0  0  0  0  0  0  0
    0.3340    1.1633   -0.7003 H   0  0  0  0  0  0  0  0  0  0  0  0
    0.4106    0.6601    1.0445 H   0  0  0  0  0  0  0  0  0  0  0  0
   -2.2355   -2.5547    0.3414 H   0  0  0  0  0  0  0  0  0  0  0  0
  1  6  1  0
  1  2  1  0
  2  7  2  3
  3  5  2  3
  3 16  1  0
  4  5  1  0
  4  8  1  0
  4  9  1  0
  4 10  1  0
  5 11  1  0
  6 14  1  0
  6 15  1  0
  7 12  1  0
  7 13  1  0
M  RAD  1   6   2
M  END
>  <reaction>  (19) 
rmg_rxn_16575

>  <mol_properties>  (19) 
{"1": {"label": "*1", "atom_type": "Cd"}, "2": {"label": "*0", "atom_type": "N3d"}, "7": {"label": "*3", "atom_type": "Cs"}, "8": {"label": "*4", "atom_type": "O2s"}, "11": {"label": "*2", "atom_type": "H0"}}

>  <type>  (19) 
unop_15

>  <geom_source>  (19) 
AutoTST

$$$$

     RDKit          3D

 16 14  0  0  0  0  0  0  0  0999 V2000
    2.2790   -0.2249    0.5496 C   0  0  0  0  0  0  0  0  0  0  0  0
    1.0612   -0.3541    1.4025 C   0  0  0  0  0  3  0  0  0  0  0  0
    1.1281   -0.7140    2.6117 N   0  0  0  0  0  0  0  0  0  0  0  0
    3.1700   -0.4795    1.1208 H   0  0  0  0  0  0  0  0  0  0  0  0
    2.2021   -0.8823   -0.3202 H   0  0  0  0  0  0  0  0  0  0  0  0
    2.3674    0.7963    0.1701 H   0  0  0  0  0  0  0  0  0  0  0  0
    0.2029   -0.7465    3.0350 H   0  0  0  0  0  0  0  0  0  0  0  0
   -1.0851    0.8732    0.5121 C   0  0  0  0  0  0  0  0  0  0  0  0
   -1.0852    0.9311   -0.9008 O   0  0  0  0  0  0  0  0  0  0  0  0
   -1.0852   -0.3428   -1.4166 N   0  0  0  0  0  0  0  0  0  0  0  0
   -1.0852   -0.3428   -2.6802 C   0  0  0  0  0  0  0  0  0  0  0  0
   -0.0146    0.2610    0.9562 H   0  0  0  0  0  0  0  0  0  0  0  0
   -1.9773    0.3630    0.8822 H   0  0  0  0  0  0  0  0  0  0  0  0
   -1.0852    1.9081    0.8499 H   0  0  0  0  0  0  0  0  0  0  0  0
   -1.0852   -1.3098   -3.1650 H   0  0  0  0  0  0  0  0  0  0  0  0
   -1.0852    0.5737   -3.2663 H   0  0  0  0  0  0  0  0  0  0  0  0
  1  2  1  0
  1  4  1  0
  1  5  1  0
  1  6  1  0
  2  3  2  3
  3  7  1  0
  8  9  1  0
  8 12  1  0
  8 13  1  0
  8 14  1  0
  9 10  1  0
 10 11  2  3
 11 15  1  0
 11 16  1  0
M  RAD  1   2   2
M  END
>  <reaction>  (20) 
rmg_rxn_16575

>  <mol_properties>  (20) 
{"1": {"label": "*1", "atom_type": "Cd"}, "2": {"label": "*0", "atom_type": "N3d"}, "7": {"label": "*3", "atom_type": "Cs"}, "8": {"label": "*4", "atom_type": "O2s"}, "11": {"label": "*2", "atom_type": "H0"}}

>  <type>  (20) 
unop_16

>  <geom_source>  (20) 
gaussian_log

$$$$
