
     RDKit          3D

  6  5  0  0  0  0  0  0  0  0999 V2000
   -0.4901    0.0045    0.0014 C   0  0  0  0  0  0  0  0  0  0  0  0
    0.9645   -0.0089   -0.0027 C   0  0  0  0  0  0  0  0  0  0  0  0
    2.1108   -0.0195   -0.0059 N   0  0  0  0  0  0  0  0  0  0  0  0
   -0.8700   -0.6407   -0.7900 H   0  0  0  0  0  0  0  0  0  0  0  0
   -0.8625   -0.3540    0.9604 H   0  0  0  0  0  0  0  0  0  0  0  0
   -0.8530    1.0185   -0.1631 H   0  0  0  0  0  0  0  0  0  0  0  0
  1  2  1  0
  1  4  1  0
  1  5  1  0
  1  6  1  0
  2  3  3  0
M  END
>  <reaction>  (1) 
rmg_rxn_89

>  <mol_properties>  (1) 
{"0": {"label": "donator", "atom_type": "Cs"}, "3": {"label": "d_hydrogen", "atom_type": "H0"}}

>  <type>  (1) 
r1h

$$$$

     RDKit          3D

  9  8  0  0  0  0  0  0  0  0999 V2000
    1.3246   -0.8124   -0.0809 C   0  0  0  0  0  2  0  0  0  0  0  0
    0.4082    0.3080    0.1518 C   0  0  0  0  0  0  0  0  0  0  0  0
   -1.0545   -0.0277   -0.1520 C   0  0  0  0  0  0  0  0  0  0  0  0
    2.3933   -0.9471    0.0203 H   0  0  0  0  0  0  0  0  0  0  0  0
    0.4898    0.6406    1.1970 H   0  0  0  0  0  0  0  0  0  0  0  0
    0.7134    1.1680   -0.4624 H   0  0  0  0  0  0  0  0  0  0  0  0
   -1.4014   -0.8515    0.4727 H   0  0  0  0  0  0  0  0  0  0  0  0
   -1.1767   -0.3214   -1.1952 H   0  0  0  0  0  0  0  0  0  0  0  0
   -1.6915    0.8372    0.0370 H   0  0  0  0  0  0  0  0  0  0  0  0
  1  2  1  0
  1  4  1  0
  2  3  1  0
  2  5  1  0
  2  6  1  0
  3  7  1  0
  3  8  1  0
  3  9  1  0
M  RAD  1   1   3
M  END
>  <reaction>  (2) 
rmg_rxn_89

>  <mol_properties>  (2) 
{"0": {"label": "acceptor", "atom_type": "Cs"}}

>  <type>  (2) 
r2

$$$$

     RDKit          3D

 10  9  0  0  0  0  0  0  0  0999 V2000
    1.4352    0.2660   -0.1351 C   0  0  0  0  0  3  0  0  0  0  0  0
    0.2236   -0.3243    0.4850 C   0  0  0  0  0  0  0  0  0  0  0  0
   -0.8893    0.6872    0.7364 C   0  0  0  0  0  0  0  0  0  0  0  0
    2.3577   -0.2958   -0.1940 H   0  0  0  0  0  0  0  0  0  0  0  0
    1.3935    1.2286   -0.6287 H   0  0  0  0  0  0  0  0  0  0  0  0
   -0.1633   -1.1318   -0.1556 H   0  0  0  0  0  0  0  0  0  0  0  0
    0.4945   -0.8215    1.4240 H   0  0  0  0  0  0  0  0  0  0  0  0
   -1.1991    1.1627   -0.1967 H   0  0  0  0  0  0  0  0  0  0  0  0
   -1.7660    0.2103    1.1768 H   0  0  0  0  0  0  0  0  0  0  0  0
   -0.5545    1.4732    1.4159 H   0  0  0  0  0  0  0  0  0  0  0  0
  1  2  1  0
  1  4  1  0
  1  5  1  0
  2  3  1  0
  2  6  1  0
  2  7  1  0
  3  8  1  0
  3  9  1  0
  3 10  1  0
M  RAD  1   1   2
M  END
>  <reaction>  (3) 
rmg_rxn_89

>  <mol_properties>  (3) 
{"0": {"label": "a_hydrogen", "atom_type": "H0"}, "1": {"label": "acceptor", "atom_type": "Cs"}}

>  <type>  (3) 
r2h

$$$$

     RDKit          3D

 15 13  0  0  0  0  0  0  0  0999 V2000
    1.4418    0.8346    0.4603 C   0  0  0  0  0  0  0  0  0  0  0  0
    1.3999    0.1705   -0.8053 C   0  0  0  0  0  0  0  0  0  0  0  0
    1.3059   -0.3851   -1.8086 N   0  0  0  0  0  0  0  0  0  0  0  0
    0.2961    0.5964    1.0286 H   0  0  0  0  0  0  0  0  0  0  0  0
    2.1818    0.4207    1.1396 H   0  0  0  0  0  0  0  0  0  0  0  0
    1.5007    1.9162    0.3783 H   0  0  0  0  0  0  0  0  0  0  0  0
   -0.9597    0.3011    1.4787 C   0  0  0  0  0  2  0  0  0  0  0  0
   -1.7970   -0.4423    0.5209 C   0  0  0  0  0  0  0  0  0  0  0  0
   -1.5441   -1.9580    0.5435 C   0  0  0  0  0  0  0  0  0  0  0  0
   -1.1352    0.4814    2.5326 H   0  0  0  0  0  0  0  0  0  0  0  0
   -2.8534   -0.2427    0.7344 H   0  0  0  0  0  0  0  0  0  0  0  0
   -1.6084   -0.0733   -0.4925 H   0  0  0  0  0  0  0  0  0  0  0  0
   -1.7343   -2.3723    1.5347 H   0  0  0  0  0  0  0  0  0  0  0  0
   -0.5118   -2.1786    0.2697 H   0  0  0  0  0  0  0  0  0  0  0  0
   -2.1973   -2.4612   -0.1710 H   0  0  0  0  0  0  0  0  0  0  0  0
  1  2  1  0
  1  4  1  0
  1  5  1  0
  1  6  1  0
  2  3  3  0
  7  8  1  0
  7 10  1  0
  8  9  1  0
  8 11  1  0
  8 12  1  0
  9 13  1  0
  9 14  1  0
  9 15  1  0
M  RAD  1   7   3
M  END
>  <reaction>  (4) 
rmg_rxn_89

>  <mol_properties>  (4) 
{"0": {"label": "*1", "atom_type": "Cs"}, "1": {"label": "*0", "atom_type": "Ct"}, "3": {"label": "*2", "atom_type": "H0"}, "6": {"label": "*3", "atom_type": "Cs"}, "7": {"label": "*4", "atom_type": "Cs"}}

>  <type>  (4) 
ts

$$$$

     RDKit          3D

 15 13  0  0  0  0  0  0  0  0999 V2000
    0.9915    1.1934   -0.3695 C   0  0  0  0  0  0  0  0  0  0  0  0
    0.9915    1.1934   -1.8241 C   0  0  0  0  0  0  0  0  0  0  0  0
    0.9915    1.1934   -2.9706 N   0  0  0  0  0  2  0  0  0  0  0  0
    0.0385    0.4176    0.0766 H   0  0  0  0  0  0  0  0  0  0  0  0
    1.9486    0.8289    0.0022 H   0  0  0  0  0  0  0  0  0  0  0  0
    0.8288    2.2045    0.0022 H   0  0  0  0  0  0  0  0  0  0  0  0
   -0.9078   -0.3528    0.5195 C   0  0  0  0  0  3  0  0  0  0  0  0
   -0.5970   -1.5223    1.3777 C   0  0  0  0  0  0  0  0  0  0  0  0
   -1.3134   -1.5007    2.7236 C   0  0  0  0  0  0  0  0  0  0  0  0
   -1.7779    0.2618    0.7123 H   0  0  0  0  0  0  0  0  0  0  0  0
   -0.8589   -2.4504    0.8466 H   0  0  0  0  0  0  0  0  0  0  0  0
    0.4863   -1.5885    1.5332 H   0  0  0  0  0  0  0  0  0  0  0  0
   -2.3965   -1.4759    2.5858 H   0  0  0  0  0  0  0  0  0  0  0  0
   -1.0304   -0.6186    3.3009 H   0  0  0  0  0  0  0  0  0  0  0  0
   -1.0710   -2.3844    3.3156 H   0  0  0  0  0  0  0  0  0  0  0  0
  1  2  2  0
  1  5  1  0
  1  6  1  0
  2  3  2  0
  4  7  1  0
  7  8  1  0
  7 10  1  0
  8  9  1  0
  8 11  1  0
  8 12  1  0
  9 13  1  0
  9 14  1  0
  9 15  1  0
M  RAD  2   3   2   7   2
M  END
>  <reaction>  (5) 
rmg_rxn_89

>  <mol_properties>  (5) 
{"0": {"label": "*1", "atom_type": "Cs"}, "1": {"label": "*0", "atom_type": "Ct"}, "3": {"label": "*2", "atom_type": "H0"}, "6": {"label": "*3", "atom_type": "Cs"}, "7": {"label": "*4", "atom_type": "Cs"}}

>  <type>  (5) 
unop_1

>  <geom_source>  (5) 
Heuristics

$$$$

     RDKit          3D

 15 13  0  0  0  0  0  0  0  0999 V2000
    1.2231    1.4127    0.2950 C   0  0  0  0  0  0  0  0  0  0  0  0
    1.2231    1.4127   -1.1597 C   0  0  0  0  0  0  0  0  0  0  0  0
    1.2231    1.4127   -2.3061 N   0  0  0  0  0  2  0  0  0  0  0  0
    0.2701    0.6368    0.7411 H   0  0  0  0  0  0  0  0  0  0  0  0
    2.1801    1.0481    0.6667 H   0  0  0  0  0  0  0  0  0  0  0  0
    1.0603    2.4237    0.6667 H   0  0  0  0  0  0  0  0  0  0  0  0
   -0.6762   -0.1335    1.1840 C   0  0  0  0  0  3  0  0  0  0  0  0
   -1.1203   -1.3163    0.4065 C   0  0  0  0  0  0  0  0  0  0  0  0
   -1.6530   -2.4526    1.2726 C   0  0  0  0  0  0  0  0  0  0  0  0
   -0.9938    0.0083    2.2092 H   0  0  0  0  0  0  0  0  0  0  0  0
   -1.8997   -1.0159   -0.3106 H   0  0  0  0  0  0  0  0  0  0  0  0
   -0.2949   -1.6789   -0.2176 H   0  0  0  0  0  0  0  0  0  0  0  0
   -2.5029   -2.1180    1.8713 H   0  0  0  0  0  0  0  0  0  0  0  0
   -0.8836   -2.8130    1.9580 H   0  0  0  0  0  0  0  0  0  0  0  0
   -1.9835   -3.2944    0.6624 H   0  0  0  0  0  0  0  0  0  0  0  0
  1  2  2  0
  1  5  1  0
  1  6  1  0
  2  3  2  0
  4  7  1  0
  7  8  1  0
  7 10  1  0
  8  9  1  0
  8 11  1  0
  8 12  1  0
  9 13  1  0
  9 14  1  0
  9 15  1  0
M  RAD  2   3   2   7   2
M  END
>  <reaction>  (6) 
rmg_rxn_89

>  <mol_properties>  (6) 
{"0": {"label": "*1", "atom_type": "Cs"}, "1": {"label": "*0", "atom_type": "Ct"}, "3": {"label": "*2", "atom_type": "H0"}, "6": {"label": "*3", "atom_type": "Cs"}, "7": {"label": "*4", "atom_type": "Cs"}}

>  <type>  (6) 
unop_2

>  <geom_source>  (6) 
Heuristics

$$$$

     RDKit          3D

 15 13  0  0  0  0  0  0  0  0999 V2000
    1.1442    1.0090   -0.4416 C   0  0  0  0  0  0  0  0  0  0  0  0
    1.1442    1.0090   -1.8962 C   0  0  0  0  0  0  0  0  0  0  0  0
    1.1442    1.0090   -3.0427 N   0  0  0  0  0  2  0  0  0  0  0  0
    0.1912    0.2331    0.0045 H   0  0  0  0  0  0  0  0  0  0  0  0
    2.1013    0.6445   -0.0699 H   0  0  0  0  0  0  0  0  0  0  0  0
    0.9815    2.0200   -0.0699 H   0  0  0  0  0  0  0  0  0  0  0  0
   -0.7551   -0.5372    0.4475 C   0  0  0  0  0  3  0  0  0  0  0  0
   -0.6153   -1.2447    1.7439 C   0  0  0  0  0  0  0  0  0  0  0  0
   -1.8307   -1.1006    2.6533 C   0  0  0  0  0  0  0  0  0  0  0  0
   -1.7277   -0.2306    0.0842 H   0  0  0  0  0  0  0  0  0  0  0  0
   -0.4273   -2.3142    1.5629 H   0  0  0  0  0  0  0  0  0  0  0  0
    0.2828   -0.8897    2.2632 H   0  0  0  0  0  0  0  0  0  0  0  0
   -2.7279   -1.4877    2.1655 H   0  0  0  0  0  0  0  0  0  0  0  0
   -2.0108   -0.0523    2.8990 H   0  0  0  0  0  0  0  0  0  0  0  0
   -1.6941   -1.6480    3.5869 H   0  0  0  0  0  0  0  0  0  0  0  0
  1  2  2  0
  1  5  1  0
  1  6  1  0
  2  3  2  0
  4  7  1  0
  7  8  1  0
  7 10  1  0
  8  9  1  0
  8 11  1  0
  8 12  1  0
  9 13  1  0
  9 14  1  0
  9 15  1  0
M  RAD  2   3   2   7   2
M  END
>  <reaction>  (7) 
rmg_rxn_89

>  <mol_properties>  (7) 
{"0": {"label": "*1", "atom_type": "Cs"}, "1": {"label": "*0", "atom_type": "Ct"}, "3": {"label": "*2", "atom_type": "H0"}, "6": {"label": "*3", "atom_type": "Cs"}, "7": {"label": "*4", "atom_type": "Cs"}}

>  <type>  (7) 
unop_3

>  <geom_source>  (7) 
Heuristics

$$$$

     RDKit          3D

 15 13  0  0  0  0  0  0  0  0999 V2000
    1.6490    0.8096    0.1210 C   0  0  0  0  0  0  0  0  0  0  0  0
    1.6490    0.8096   -1.3337 C   0  0  0  0  0  0  0  0  0  0  0  0
    1.6490    0.8096   -2.4801 N   0  0  0  0  0  2  0  0  0  0  0  0
    0.6959    0.0338    0.5671 H   0  0  0  0  0  0  0  0  0  0  0  0
    2.6060    0.4451    0.4927 H   0  0  0  0  0  0  0  0  0  0  0  0
    1.4862    1.8207    0.4927 H   0  0  0  0  0  0  0  0  0  0  0  0
   -0.2504   -0.7366    1.0100 C   0  0  0  0  0  3  0  0  0  0  0  0
   -1.6697   -0.4694    0.6708 C   0  0  0  0  0  0  0  0  0  0  0  0
   -2.6605   -1.1203    1.6298 C   0  0  0  0  0  0  0  0  0  0  0  0
    0.0288   -1.0849    1.9963 H   0  0  0  0  0  0  0  0  0  0  0  0
   -1.8474    0.6168    0.6536 H   0  0  0  0  0  0  0  0  0  0  0  0
   -1.8723   -0.7994   -0.3551 H   0  0  0  0  0  0  0  0  0  0  0  0
   -2.4980   -0.7704    2.6515 H   0  0  0  0  0  0  0  0  0  0  0  0
   -2.5485   -2.2061    1.6274 H   0  0  0  0  0  0  0  0  0  0  0  0
   -3.6899   -0.8860    1.3550 H   0  0  0  0  0  0  0  0  0  0  0  0
  1  2  2  0
  1  5  1  0
  1  6  1  0
  2  3  2  0
  4  7  1  0
  7  8  1  0
  7 10  1  0
  8  9  1  0
  8 11  1  0
  8 12  1  0
  9 13  1  0
  9 14  1  0
  9 15  1  0
M  RAD  2   3   2   7   2
M  END
>  <reaction>  (8) 
rmg_rxn_89

>  <mol_properties>  (8) 
{"0": {"label": "*1", "atom_type": "Cs"}, "1": {"label": "*0", "atom_type": "Ct"}, "3": {"label": "*2", "atom_type": "H0"}, "6": {"label": "*3", "atom_type": "Cs"}, "7": {"label": "*4", "atom_type": "Cs"}}

>  <type>  (8) 
unop_4

>  <geom_source>  (8) 
Heuristics

$$$$

     RDKit          3D

 15 13  0  0  0  0  0  0  0  0999 V2000
    1.2843    0.9818   -0.3926 C   0  0  0  0  0  0  0  0  0  0  0  0
    1.2843    0.9818   -1.8473 C   0  0  0  0  0  0  0  0  0  0  0  0
    1.2843    0.9818   -2.9937 N   0  0  0  0  0  2  0  0  0  0  0  0
    0.3313    0.2060    0.0535 H   0  0  0  0  0  0  0  0  0  0  0  0
    2.2413    0.6173   -0.0209 H   0  0  0  0  0  0  0  0  0  0  0  0
    1.1215    1.9929   -0.0209 H   0  0  0  0  0  0  0  0  0  0  0  0
   -0.6150   -0.5644    0.4964 C   0  0  0  0  0  3  0  0  0  0  0  0
   -0.8322   -0.7412    1.9533 C   0  0  0  0  0  0  0  0  0  0  0  0
   -2.1415   -1.4438    2.2954 C   0  0  0  0  0  0  0  0  0  0  0  0
   -1.1736   -1.1491   -0.2233 H   0  0  0  0  0  0  0  0  0  0  0  0
    0.0046   -1.3113    2.3852 H   0  0  0  0  0  0  0  0  0  0  0  0
   -0.7906    0.2336    2.4536 H   0  0  0  0  0  0  0  0  0  0  0  0
   -2.1811   -2.4344    1.8372 H   0  0  0  0  0  0  0  0  0  0  0  0
   -2.9968   -0.8728    1.9295 H   0  0  0  0  0  0  0  0  0  0  0  0
   -2.2543   -1.5684    3.3733 H   0  0  0  0  0  0  0  0  0  0  0  0
  1  2  2  0
  1  5  1  0
  1  6  1  0
  2  3  2  0
  4  7  1  0
  7  8  1  0
  7 10  1  0
  8  9  1  0
  8 11  1  0
  8 12  1  0
  9 13  1  0
  9 14  1  0
  9 15  1  0
M  RAD  2   3   2   7   2
M  END
>  <reaction>  (9) 
rmg_rxn_89

>  <mol_properties>  (9) 
{"0": {"label": "*1", "atom_type": "Cs"}, "1": {"label": "*0", "atom_type": "Ct"}, "3": {"label": "*2", "atom_type": "H0"}, "6": {"label": "*3", "atom_type": "Cs"}, "7": {"label": "*4", "atom_type": "Cs"}}

>  <type>  (9) 
unop_5

>  <geom_source>  (9) 
Heuristics

$$$$

     RDKit          3D

 15 13  0  0  0  0  0  0  0  0999 V2000
    1.5787    0.7287   -0.1207 C   0  0  0  0  0  0  0  0  0  0  0  0
    1.5787    0.7287   -1.5753 C   0  0  0  0  0  0  0  0  0  0  0  0
    1.5787    0.7287   -2.7218 N   0  0  0  0  0  2  0  0  0  0  0  0
    0.6257   -0.0471    0.3254 H   0  0  0  0  0  0  0  0  0  0  0  0
    2.5358    0.3642    0.2510 H   0  0  0  0  0  0  0  0  0  0  0  0
    1.4160    1.7398    0.2510 H   0  0  0  0  0  0  0  0  0  0  0  0
   -0.3206   -0.8175    0.7683 C   0  0  0  0  0  3  0  0  0  0  0  0
   -1.6791   -0.2808    1.0278 C   0  0  0  0  0  0  0  0  0  0  0  0
   -2.4175   -1.0022    2.1500 C   0  0  0  0  0  0  0  0  0  0  0  0
    0.1835   -1.4319    1.5034 H   0  0  0  0  0  0  0  0  0  0  0  0
   -1.6127    0.7905    1.2725 H   0  0  0  0  0  0  0  0  0  0  0  0
   -2.2728   -0.3182    0.1067 H   0  0  0  0  0  0  0  0  0  0  0  0
   -1.8577   -0.9391    3.0856 H   0  0  0  0  0  0  0  0  0  0  0  0
   -2.5506   -2.0591    1.9117 H   0  0  0  0  0  0  0  0  0  0  0  0
   -3.4034   -0.5671    2.3192 H   0  0  0  0  0  0  0  0  0  0  0  0
  1  2  2  0
  1  5  1  0
  1  6  1  0
  2  3  2  0
  4  7  1  0
  7  8  1  0
  7 10  1  0
  8  9  1  0
  8 11  1  0
  8 12  1  0
  9 13  1  0
  9 14  1  0
  9 15  1  0
M  RAD  2   3   2   7   2
M  END
>  <reaction>  (10) 
rmg_rxn_89

>  <mol_properties>  (10) 
{"0": {"label": "*1", "atom_type": "Cs"}, "1": {"label": "*0", "atom_type": "Ct"}, "3": {"label": "*2", "atom_type": "H0"}, "6": {"label": "*3", "atom_type": "Cs"}, "7": {"label": "*4", "atom_type": "Cs"}}

>  <type>  (10) 
unop_6

>  <geom_source>  (10) 
Heuristics

$$$$

     RDKit          3D

 15 13  0  0  0  0  0  0  0  0999 V2000
    1.4366    0.7786   -0.3166 C   0  0  0  0  0  0  0  0  0  0  0  0
    1.4366    0.7786   -1.7712 C   0  0  0  0  0  0  0  0  0  0  0  0
    1.4366    0.7786   -2.9176 N   0  0  0  0  0  2  0  0  0  0  0  0
    0.4836    0.0028    0.1295 H   0  0  0  0  0  0  0  0  0  0  0  0
    2.3936    0.4141    0.0551 H   0  0  0  0  0  0  0  0  0  0  0  0
    1.2738    1.7897    0.0551 H   0  0  0  0  0  0  0  0  0  0  0  0
   -0.4627   -0.7676    0.5725 C   0  0  0  0  0  3  0  0  0  0  0  0
   -1.5449   -0.2260    1.4306 C   0  0  0  0  0  0  0  0  0  0  0  0
   -2.0506   -1.2158    2.4746 C   0  0  0  0  0  0  0  0  0  0  0  0
    0.0992   -1.6426    0.8733 H   0  0  0  0  0  0  0  0  0  0  0  0
   -1.1923    0.6840    1.9400 H   0  0  0  0  0  0  0  0  0  0  0  0
   -2.3783    0.1127    0.8038 H   0  0  0  0  0  0  0  0  0  0  0  0
   -1.2393   -1.5323    3.1336 H   0  0  0  0  0  0  0  0  0  0  0  0
   -2.4606   -2.1082    1.9982 H   0  0  0  0  0  0  0  0  0  0  0  0
   -2.8323   -0.7735    3.0938 H   0  0  0  0  0  0  0  0  0  0  0  0
  1  2  2  0
  1  5  1  0
  1  6  1  0
  2  3  2  0
  4  7  1  0
  7  8  1  0
  7 10  1  0
  8  9  1  0
  8 11  1  0
  8 12  1  0
  9 13  1  0
  9 14  1  0
  9 15  1  0
M  RAD  2   3   2   7   2
M  END
>  <reaction>  (11) 
rmg_rxn_89

>  <mol_properties>  (11) 
{"0": {"label": "*1", "atom_type": "Cs"}, "1": {"label": "*0", "atom_type": "Ct"}, "3": {"label": "*2", "atom_type": "H0"}, "6": {"label": "*3", "atom_type": "Cs"}, "7": {"label": "*4", "atom_type": "Cs"}}

>  <type>  (11) 
unop_7

>  <geom_source>  (11) 
Heuristics

$$$$

     RDKit          3D

 15 13  0  0  0  0  0  0  0  0999 V2000
    0.9517    1.3749   -0.1705 C   0  0  0  0  0  0  0  0  0  0  0  0
    0.9517    1.3749   -1.6251 C   0  0  0  0  0  0  0  0  0  0  0  0
    0.9517    1.3749   -2.7716 N   0  0  0  0  0  2  0  0  0  0  0  0
   -0.0013    0.5990    0.2756 H   0  0  0  0  0  0  0  0  0  0  0  0
    1.9087    1.0103    0.2012 H   0  0  0  0  0  0  0  0  0  0  0  0
    0.7889    2.3859    0.2012 H   0  0  0  0  0  0  0  0  0  0  0  0
   -0.9476   -0.1713    0.7186 C   0  0  0  0  0  3  0  0  0  0  0  0
   -0.6976   -1.6105    0.9780 C   0  0  0  0  0  0  0  0  0  0  0  0
   -1.0858   -2.0547    2.3841 C   0  0  0  0  0  0  0  0  0  0  0  0
   -1.6146    0.3995    1.3520 H   0  0  0  0  0  0  0  0  0  0  0  0
   -1.2482   -2.2193    0.2444 H   0  0  0  0  0  0  0  0  0  0  0  0
    0.3581   -1.8410    0.7925 H   0  0  0  0  0  0  0  0  0  0  0  0
   -2.1457   -1.8690    2.5706 H   0  0  0  0  0  0  0  0  0  0  0  0
   -0.5141   -1.5083    3.1365 H   0  0  0  0  0  0  0  0  0  0  0  0
   -0.9019   -3.1203    2.5277 H   0  0  0  0  0  0  0  0  0  0  0  0
  1  2  2  0
  1  5  1  0
  1  6  1  0
  2  3  2  0
  4  7  1  0
  7  8  1  0
  7 10  1  0
  8  9  1  0
  8 11  1  0
  8 12  1  0
  9 13  1  0
  9 14  1  0
  9 15  1  0
M  RAD  2   3   2   7   2
M  END
>  <reaction>  (12) 
rmg_rxn_89

>  <mol_properties>  (12) 
{"0": {"label": "*1", "atom_type": "Cs"}, "1": {"label": "*0", "atom_type": "Ct"}, "3": {"label": "*2", "atom_type": "H0"}, "6": {"label": "*3", "atom_type": "Cs"}, "7": {"label": "*4", "atom_type": "Cs"}}

>  <type>  (12) 
unop_8

>  <geom_source>  (12) 
Heuristics

$$$$

     RDKit          3D

 15 13  0  0  0  0  0  0  0  0999 V2000
    1.6029    1.0029    0.3178 C   0  0  0  0  0  0  0  0  0  0  0  0
    1.6029    1.0029   -1.1369 C   0  0  0  0  0  0  0  0  0  0  0  0
    1.6029    1.0029   -2.2833 N   0  0  0  0  0  2  0  0  0  0  0  0
    0.6499    0.2271    0.7638 H   0  0  0  0  0  0  0  0  0  0  0  0
    2.5599    0.6384    0.6894 H   0  0  0  0  0  0  0  0  0  0  0  0
    1.4401    2.0140    0.6895 H   0  0  0  0  0  0  0  0  0  0  0  0
   -0.2964   -0.5433    1.2068 C   0  0  0  0  0  3  0  0  0  0  0  0
   -1.5448   -0.7382    0.4292 C   0  0  0  0  0  0  0  0  0  0  0  0
   -2.6028   -1.5527    1.1655 C   0  0  0  0  0  0  0  0  0  0  0  0
   -0.2802   -0.6957    2.2785 H   0  0  0  0  0  0  0  0  0  0  0  0
   -1.9690    0.2412    0.1597 H   0  0  0  0  0  0  0  0  0  0  0  0
   -1.3110   -1.2125   -0.5313 H   0  0  0  0  0  0  0  0  0  0  0  0
   -2.8767   -1.0716    2.1069 H   0  0  0  0  0  0  0  0  0  0  0  0
   -2.2322   -2.5528    1.3977 H   0  0  0  0  0  0  0  0  0  0  0  0
   -3.5088   -1.6584    0.5671 H   0  0  0  0  0  0  0  0  0  0  0  0
  1  2  2  0
  1  5  1  0
  1  6  1  0
  2  3  2  0
  4  7  1  0
  7  8  1  0
  7 10  1  0
  8  9  1  0
  8 11  1  0
  8 12  1  0
  9 13  1  0
  9 14  1  0
  9 15  1  0
M  RAD  2   3   2   7   2
M  END
>  <reaction>  (13) 
rmg_rxn_89

>  <mol_properties>  (13) 
{"0": {"label": "*1", "atom_type": "Cs"}, "1": {"label": "*0", "atom_type": "Ct"}, "3": {"label": "*2", "atom_type": "H0"}, "6": {"label": "*3", "atom_type": "Cs"}, "7": {"label": "*4", "atom_type": "Cs"}}

>  <type>  (13) 
unop_9

>  <geom_source>  (13) 
Heuristics

$$$$

     RDKit          3D

 15 13  0  0  0  0  0  0  0  0999 V2000
    1.0376    1.4614    0.0812 C   0  0  0  0  0  0  0  0  0  0  0  0
    1.0376    1.4614   -1.3735 C   0  0  0  0  0  0  0  0  0  0  0  0
    1.0376    1.4614   -2.5199 N   0  0  0  0  0  2  0  0  0  0  0  0
    0.0845    0.6856    0.5273 H   0  0  0  0  0  0  0  0  0  0  0  0
    1.9946    1.0969    0.4529 H   0  0  0  0  0  0  0  0  0  0  0  0
    0.8748    2.4725    0.4529 H   0  0  0  0  0  0  0  0  0  0  0  0
   -0.8618   -0.0847    0.9702 C   0  0  0  0  0  3  0  0  0  0  0  0
   -0.8881   -1.5287    0.6309 C   0  0  0  0  0  0  0  0  0  0  0  0
   -1.2147   -2.4296    1.8170 C   0  0  0  0  0  0  0  0  0  0  0  0
   -1.3294    0.2817    1.8752 H   0  0  0  0  0  0  0  0  0  0  0  0
   -1.6236   -1.7072   -0.1686 H   0  0  0  0  0  0  0  0  0  0  0  0
    0.0734   -1.8226    0.1934 H   0  0  0  0  0  0  0  0  0  0  0  0
   -2.1894   -2.1761    2.2396 H   0  0  0  0  0  0  0  0  0  0  0  0
   -0.4697   -2.3184    2.6070 H   0  0  0  0  0  0  0  0  0  0  0  0
   -1.2403   -3.4795    1.5217 H   0  0  0  0  0  0  0  0  0  0  0  0
  1  2  2  0
  1  5  1  0
  1  6  1  0
  2  3  2  0
  4  7  1  0
  7  8  1  0
  7 10  1  0
  8  9  1  0
  8 11  1  0
  8 12  1  0
  9 13  1  0
  9 14  1  0
  9 15  1  0
M  RAD  2   3   2   7   2
M  END
>  <reaction>  (14) 
rmg_rxn_89

>  <mol_properties>  (14) 
{"0": {"label": "*1", "atom_type": "Cs"}, "1": {"label": "*0", "atom_type": "Ct"}, "3": {"label": "*2", "atom_type": "H0"}, "6": {"label": "*3", "atom_type": "Cs"}, "7": {"label": "*4", "atom_type": "Cs"}}

>  <type>  (14) 
unop_10

>  <geom_source>  (14) 
Heuristics

$$$$

     RDKit          3D

 15 13  0  0  0  0  0  0  0  0999 V2000
    1.3082    0.9186   -0.3970 C   0  0  0  0  0  0  0  0  0  0  0  0
    1.3082    0.9186   -1.8517 C   0  0  0  0  0  0  0  0  0  0  0  0
    1.3082    0.9186   -2.9981 N   0  0  0  0  0  2  0  0  0  0  0  0
    0.3552    0.1427    0.0491 H   0  0  0  0  0  0  0  0  0  0  0  0
    2.2652    0.5540   -0.0253 H   0  0  0  0  0  0  0  0  0  0  0  0
    1.1454    1.9296   -0.0253 H   0  0  0  0  0  0  0  0  0  0  0  0
   -0.5911   -0.6276    0.4920 C   0  0  0  0  0  3  0  0  0  0  0  0
   -1.2556   -0.3472    1.7885 C   0  0  0  0  0  0  0  0  0  0  0  0
   -1.8634   -1.5826    2.4438 C   0  0  0  0  0  0  0  0  0  0  0  0
   -0.3083   -1.6365    0.2197 H   0  0  0  0  0  0  0  0  0  0  0  0
   -0.5333    0.1088    2.4829 H   0  0  0  0  0  0  0  0  0  0  0  0
   -2.0276    0.4188    1.6494 H   0  0  0  0  0  0  0  0  0  0  0  0
   -1.0986   -2.3405    2.6265 H   0  0  0  0  0  0  0  0  0  0  0  0
   -2.6270   -2.0272    1.8028 H   0  0  0  0  0  0  0  0  0  0  0  0
   -2.3264   -1.3363    3.4003 H   0  0  0  0  0  0  0  0  0  0  0  0
  1  2  2  0
  1  5  1  0
  1  6  1  0
  2  3  2  0
  4  7  1  0
  7  8  1  0
  7 10  1  0
  8  9  1  0
  8 11  1  0
  8 12  1  0
  9 13  1  0
  9 14  1  0
  9 15  1  0
M  RAD  2   3   2   7   2
M  END
>  <reaction>  (15) 
rmg_rxn_89

>  <mol_properties>  (15) 
{"0": {"label": "*1", "atom_type": "Cs"}, "1": {"label": "*0", "atom_type": "Ct"}, "3": {"label": "*2", "atom_type": "H0"}, "6": {"label": "*3", "atom_type": "Cs"}, "7": {"label": "*4", "atom_type": "Cs"}}

>  <type>  (15) 
unop_11

>  <geom_source>  (15) 
Heuristics

$$$$

     RDKit          3D

 15 13  0  0  0  0  0  0  0  0999 V2000
    1.4414    1.2371    0.3869 C   0  0  0  0  0  0  0  0  0  0  0  0
    1.4414    1.2371   -1.0678 C   0  0  0  0  0  0  0  0  0  0  0  0
    1.4414    1.2371   -2.2142 N   0  0  0  0  0  2  0  0  0  0  0  0
    0.4884    0.4612    0.8330 H   0  0  0  0  0  0  0  0  0  0  0  0
    2.3984    0.8725    0.7586 H   0  0  0  0  0  0  0  0  0  0  0  0
    1.2786    2.2481    0.7586 H   0  0  0  0  0  0  0  0  0  0  0  0
   -0.4579   -0.3091    1.2759 C   0  0  0  0  0  3  0  0  0  0  0  0
   -1.3493   -1.0348    0.3380 C   0  0  0  0  0  0  0  0  0  0  0  0
   -2.2097   -2.0983    1.0114 C   0  0  0  0  0  0  0  0  0  0  0  0
   -0.6409   -0.3281    2.3427 H   0  0  0  0  0  0  0  0  0  0  0  0
   -2.0049   -0.3171   -0.1788 H   0  0  0  0  0  0  0  0  0  0  0  0
   -0.7522   -1.4896   -0.4613 H   0  0  0  0  0  0  0  0  0  0  0  0
   -2.8413   -1.6542    1.7838 H   0  0  0  0  0  0  0  0  0  0  0  0
   -1.5874   -2.8590    1.4863 H   0  0  0  0  0  0  0  0  0  0  0  0
   -2.8608   -2.5956    0.2910 H   0  0  0  0  0  0  0  0  0  0  0  0
  1  2  2  0
  1  5  1  0
  1  6  1  0
  2  3  2  0
  4  7  1  0
  7  8  1  0
  7 10  1  0
  8  9  1  0
  8 11  1  0
  8 12  1  0
  9 13  1  0
  9 14  1  0
  9 15  1  0
M  RAD  2   3   2   7   2
M  END
>  <reaction>  (16) 
rmg_rxn_89

>  <mol_properties>  (16) 
{"0": {"label": "*1", "atom_type": "Cs"}, "1": {"label": "*0", "atom_type": "Ct"}, "3": {"label": "*2", "atom_type": "H0"}, "6": {"label": "*3", "atom_type": "Cs"}, "7": {"label": "*4", "atom_type": "Cs"}}

>  <type>  (16) 
unop_12

>  <geom_source>  (16) 
Heuristics

$$$$

     RDKit          3D

 15 13  0  0  0  0  0  0  0  0999 V2000
    2.6947    1.6509    1.0285 N   0  0  0  0  0  0  0  0  0  0  0  0
   -1.6100    0.0957   -0.0538 C   0  0  0  0  0  0  0  0  0  0  0  0
   -1.1530   -0.4304    1.3007 C   0  0  0  0  0  0  0  0  0  0  0  0
   -0.6898   -0.3999   -1.1588 C   0  0  0  0  0  2  0  0  0  0  0  0
    1.8651   -0.0665   -0.7683 C   0  0  0  0  0  0  0  0  0  0  0  0
    2.3284    0.8924    0.2350 C   0  0  0  0  0  0  0  0  0  0  0  0
   -1.6075    1.2066   -0.0420 H   0  0  0  0  0  0  0  0  0  0  0  0
   -2.6440   -0.2575   -0.2547 H   0  0  0  0  0  0  0  0  0  0  0  0
   -1.1567   -1.5415    1.3033 H   0  0  0  0  0  0  0  0  0  0  0  0
   -0.1292   -0.0659    1.5313 H   0  0  0  0  0  0  0  0  0  0  0  0
   -1.8444   -0.0704    2.0915 H   0  0  0  0  0  0  0  0  0  0  0  0
   -1.0658   -0.0596   -2.1466 H   0  0  0  0  0  0  0  0  0  0  0  0
    0.5565    0.0759   -0.9721 H   0  0  0  0  0  0  0  0  0  0  0  0
    2.0117   -1.0987   -0.3891 H   0  0  0  0  0  0  0  0  0  0  0  0
    2.4441    0.0691   -1.7049 H   0  0  0  0  0  0  0  0  0  0  0  0
  1  6  3  0
  2  4  1  0
  2  3  1  0
  2  7  1  0
  2  8  1  0
  3  9  1  0
  3 10  1  0
  3 11  1  0
  4 12  1  0
  5  6  1  0
  5 13  1  0
  5 14  1  0
  5 15  1  0
M  RAD  1   4   3
M  END
>  <reaction>  (17) 
rmg_rxn_89

>  <mol_properties>  (17) 
{"0": {"label": "*1", "atom_type": "Cs"}, "1": {"label": "*0", "atom_type": "Ct"}, "3": {"label": "*2", "atom_type": "H0"}, "6": {"label": "*3", "atom_type": "Cs"}, "7": {"label": "*4", "atom_type": "Cs"}}

>  <type>  (17) 
unop_13

>  <geom_source>  (17) 
AutoTST

$$$$

     RDKit          3D

 15 13  0  0  0  0  0  0  0  0999 V2000
    1.2231    1.4127    0.2950 C   0  0  0  0  0  0  0  0  0  0  0  0
    1.2231    1.4127   -1.1597 C   0  0  0  0  0  0  0  0  0  0  0  0
    1.2231    1.4127   -2.3061 N   0  0  0  0  0  2  0  0  0  0  0  0
    0.2701    0.6368    0.7411 H   0  0  0  0  0  0  0  0  0  0  0  0
    2.1801    1.0481    0.6667 H   0  0  0  0  0  0  0  0  0  0  0  0
    1.0603    2.4237    0.6667 H   0  0  0  0  0  0  0  0  0  0  0  0
   -0.6762   -0.1335    1.1840 C   0  0  0  0  0  3  0  0  0  0  0  0
   -1.1203   -1.3163    0.4065 C   0  0  0  0  0  0  0  0  0  0  0  0
   -1.6530   -2.4526    1.2726 C   0  0  0  0  0  0  0  0  0  0  0  0
   -0.9938    0.0083    2.2092 H   0  0  0  0  0  0  0  0  0  0  0  0
   -1.8998   -1.0159   -0.3105 H   0  0  0  0  0  0  0  0  0  0  0  0
   -0.2949   -1.6789   -0.2176 H   0  0  0  0  0  0  0  0  0  0  0  0
   -2.5029   -2.1180    1.8713 H   0  0  0  0  0  0  0  0  0  0  0  0
   -0.8836   -2.8130    1.9580 H   0  0  0  0  0  0  0  0  0  0  0  0
   -1.9835   -3.2944    0.6624 H   0  0  0  0  0  0  0  0  0  0  0  0
  1  2  2  0
  1  5  1  0
  1  6  1  0
  2  3  2  0
  4  7  1  0
  7  8  1  0
  7 10  1  0
  8  9  1  0
  8 11  1  0
  8 12  1  0
  9 13  1  0
  9 14  1  0
  9 15  1  0
M  RAD  2   3   2   7   2
M  END
>  <reaction>  (18) 
rmg_rxn_89

>  <mol_properties>  (18) 
{"0": {"label": "*1", "atom_type": "Cs"}, "1": {"label": "*0", "atom_type": "Ct"}, "3": {"label": "*2", "atom_type": "H0"}, "6": {"label": "*3", "atom_type": "Cs"}, "7": {"label": "*4", "atom_type": "Cs"}}

>  <type>  (18) 
unop_14

>  <geom_source>  (18) 
gaussian_log

$$$$
