
     RDKit          3D

  6  5  0  0  0  0  0  0  0  0999 V2000
   -0.4547   -0.0097   -0.0070 C   0  0  0  0  0  0  0  0  0  0  0  0
    0.8695   -0.1987   -0.6218 N   0  0  0  0  0  0  0  0  0  0  0  0
    1.0322   -1.2809   -1.0969 O   0  0  0  0  0  0  0  0  0  0  0  0
   -0.2820    0.2687    1.0347 H   0  0  0  0  0  0  0  0  0  0  0  0
   -1.0716   -0.9051   -0.0916 H   0  0  0  0  0  0  0  0  0  0  0  0
   -0.9130    0.8487   -0.5026 H   0  0  0  0  0  0  0  0  0  0  0  0
  1  2  1  0
  1  4  1  0
  1  5  1  0
  1  6  1  0
  2  3  2  0
M  END
>  <reaction>  (1) 
rmg_rxn_588

>  <mol_properties>  (1) 
{"0": {"label": "donator", "atom_type": "Cs"}, "3": {"label": "d_hydrogen", "atom_type": "H0"}}

>  <type>  (1) 
r1h

$$$$

     RDKit          3D

 17 16  0  0  0  0  0  0  0  0999 V2000
    2.3993   -0.7259   -0.8796 C   0  0  0  0  0  0  0  0  0  0  0  0
    1.8173   -0.7170    0.4851 C   0  0  0  0  0  3  0  0  0  0  0  0
    2.6779   -0.5182    1.6852 C   0  0  0  0  0  0  0  0  0  0  0  0
    3.8710   -1.2723    1.6674 O   0  0  0  0  0  0  0  0  0  0  0  0
    3.6589   -2.6587    1.8015 C   0  0  0  0  0  0  0  0  0  0  0  0
    4.9969   -3.3586    1.7556 C   0  0  0  0  0  0  0  0  0  0  0  0
    3.3755   -1.2152   -0.8894 H   0  0  0  0  0  0  0  0  0  0  0  0
    1.7457   -1.2284   -1.5943 H   0  0  0  0  0  0  0  0  0  0  0  0
    2.5578    0.2962   -1.2545 H   0  0  0  0  0  0  0  0  0  0  0  0
    0.7445   -0.6275    0.6059 H   0  0  0  0  0  0  0  0  0  0  0  0
    2.1057   -0.7316    2.5992 H   0  0  0  0  0  0  0  0  0  0  0  0
    3.0103    0.5272    1.7516 H   0  0  0  0  0  0  0  0  0  0  0  0
    3.0050   -3.0235    0.9977 H   0  0  0  0  0  0  0  0  0  0  0  0
    3.1469   -2.8645    2.7531 H   0  0  0  0  0  0  0  0  0  0  0  0
    5.6430   -3.0039    2.5594 H   0  0  0  0  0  0  0  0  0  0  0  0
    4.8641   -4.4360    1.8660 H   0  0  0  0  0  0  0  0  0  0  0  0
    5.4957   -3.1672    0.8046 H   0  0  0  0  0  0  0  0  0  0  0  0
  1  2  1  0
  1  7  1  0
  1  8  1  0
  1  9  1  0
  2  3  1  0
  2 10  1  0
  3  4  1  0
  3 11  1  0
  3 12  1  0
  4  5  1  0
  5  6  1  0
  5 13  1  0
  5 14  1  0
  6 15  1  0
  6 16  1  0
  6 17  1  0
M  RAD  1   2   2
M  END
>  <reaction>  (2) 
rmg_rxn_588

>  <mol_properties>  (2) 
{"1": {"label": "acceptor", "atom_type": "Cs"}}

>  <type>  (2) 
r2

$$$$

     RDKit          3D

 18 17  0  0  0  0  0  0  0  0999 V2000
    2.2026   -0.7213   -0.2612 C   0  0  0  0  0  0  0  0  0  0  0  0
    1.5384    0.2638    0.6915 C   0  0  0  0  0  0  0  0  0  0  0  0
    2.2584    1.5946    0.7694 C   0  0  0  0  0  0  0  0  0  0  0  0
    2.2212    2.2185   -0.4893 O   0  0  0  0  0  0  0  0  0  0  0  0
    2.8988    3.4488   -0.5204 C   0  0  0  0  0  0  0  0  0  0  0  0
    2.7981    4.0296   -1.9118 C   0  0  0  0  0  0  0  0  0  0  0  0
    3.2294   -0.9309    0.0486 H   0  0  0  0  0  0  0  0  0  0  0  0
    2.2338   -0.3181   -1.2734 H   0  0  0  0  0  0  0  0  0  0  0  0
    1.6610   -1.6680   -0.2875 H   0  0  0  0  0  0  0  0  0  0  0  0
    1.4990   -0.1566    1.7002 H   0  0  0  0  0  0  0  0  0  0  0  0
    0.5055    0.4455    0.3835 H   0  0  0  0  0  0  0  0  0  0  0  0
    3.3038    1.4410    1.0808 H   0  0  0  0  0  0  0  0  0  0  0  0
    1.7844    2.2410    1.5226 H   0  0  0  0  0  0  0  0  0  0  0  0
    2.4596    4.1376    0.2164 H   0  0  0  0  0  0  0  0  0  0  0  0
    3.9524    3.3035   -0.2397 H   0  0  0  0  0  0  0  0  0  0  0  0
    1.7543    4.1869   -2.1856 H   0  0  0  0  0  0  0  0  0  0  0  0
    3.2472    3.3545   -2.6411 H   0  0  0  0  0  0  0  0  0  0  0  0
    3.3178    4.9878   -1.9600 H   0  0  0  0  0  0  0  0  0  0  0  0
  1  2  1  0
  1  7  1  0
  1  8  1  0
  1  9  1  0
  2  3  1  0
  2 10  1  0
  2 11  1  0
  3  4  1  0
  3 12  1  0
  3 13  1  0
  4  5  1  0
  5  6  1  0
  5 14  1  0
  5 15  1  0
  6 16  1  0
  6 17  1  0
  6 18  1  0
M  END
>  <reaction>  (3) 
rmg_rxn_588

>  <mol_properties>  (3) 
{"0": {"label": "a_hydrogen", "atom_type": "H0"}, "2": {"label": "acceptor", "atom_type": "Cs"}}

>  <type>  (3) 
r2h

$$$$

     RDKit          3D

 23 21  0  0  0  0  0  0  0  0999 V2000
    2.5256   -0.4877   -0.8412 C   0  0  0  0  0  0  0  0  0  0  0  0
    2.0602   -1.3269   -1.8822 N   0  0  0  0  0  0  0  0  0  0  0  0
    1.2427   -0.8115   -2.6170 O   0  0  0  0  0  0  0  0  0  0  0  0
    1.6026   -0.4872    0.0106 H   0  0  0  0  0  0  0  0  0  0  0  0
    2.6015    0.5651   -1.1187 H   0  0  0  0  0  0  0  0  0  0  0  0
    3.3978   -0.9010   -0.3427 H   0  0  0  0  0  0  0  0  0  0  0  0
   -0.1495   -1.7710    0.7834 C   0  0  0  0  0  0  0  0  0  0  0  0
    0.4522   -0.4058    0.8880 C   0  0  0  0  0  3  0  0  0  0  0  0
   -0.3164    0.7411    0.3013 C   0  0  0  0  0  0  0  0  0  0  0  0
   -1.4504    0.9714    1.1059 O   0  0  0  0  0  0  0  0  0  0  0  0
   -2.2650    2.0148    0.6218 C   0  0  0  0  0  0  0  0  0  0  0  0
   -3.4502    2.1755    1.5443 C   0  0  0  0  0  0  0  0  0  0  0  0
   -0.4295   -2.0003   -0.2467 H   0  0  0  0  0  0  0  0  0  0  0  0
    0.5350   -2.5425    1.1372 H   0  0  0  0  0  0  0  0  0  0  0  0
   -1.0581   -1.8202    1.3921 H   0  0  0  0  0  0  0  0  0  0  0  0
    0.9371   -0.1776    1.8354 H   0  0  0  0  0  0  0  0  0  0  0  0
   -0.6171    0.5043   -0.7289 H   0  0  0  0  0  0  0  0  0  0  0  0
    0.3099    1.6438    0.2639 H   0  0  0  0  0  0  0  0  0  0  0  0
   -2.5983    1.7830   -0.3995 H   0  0  0  0  0  0  0  0  0  0  0  0
   -1.6851    2.9476    0.5720 H   0  0  0  0  0  0  0  0  0  0  0  0
   -3.1191    2.4172    2.5548 H   0  0  0  0  0  0  0  0  0  0  0  0
   -4.0969    2.9795    1.1896 H   0  0  0  0  0  0  0  0  0  0  0  0
   -4.0326    1.2543    1.5829 H   0  0  0  0  0  0  0  0  0  0  0  0
  1  2  1  0
  1  4  1  0
  1  5  1  0
  1  6  1  0
  2  3  2  0
  7  8  1  0
  7 13  1  0
  7 14  1  0
  7 15  1  0
  8  9  1  0
  8 16  1  0
  9 10  1  0
  9 17  1  0
  9 18  1  0
 10 11  1  0
 11 12  1  0
 11 19  1  0
 11 20  1  0
 12 21  1  0
 12 22  1  0
 12 23  1  0
M  RAD  1   8   2
M  END
>  <reaction>  (4) 
rmg_rxn_588

>  <mol_properties>  (4) 
{"0": {"label": "*1", "atom_type": "Cs"}, "1": {"label": "*0", "atom_type": "N3d"}, "3": {"label": "*2", "atom_type": "H0"}, "7": {"label": "*3", "atom_type": "Cs"}, "8": {"label": "*4", "atom_type": "Cs"}}

>  <type>  (4) 
ts

$$$$

     RDKit          3D

 23 21  0  0  0  0  0  0  0  0999 V2000
    2.6912    0.1036   -1.0777 C   0  0  0  0  0  0  0  0  0  0  0  0
    2.6912   -1.2421   -1.6746 N   0  0  0  0  0  0  0  0  0  0  0  0
    2.6912   -1.2421   -2.8677 O   0  0  0  0  0  0  0  0  0  0  0  0
    1.6352    0.1750   -0.3052 H   0  0  0  0  0  0  0  0  0  0  0  0
    2.6912    0.8841   -1.8395 H   0  0  0  0  0  0  0  0  0  0  0  0
    3.5712    0.1631   -0.4339 H   0  0  0  0  0  0  0  0  0  0  0  0
    0.9978    0.5234    1.9059 C   0  0  0  0  0  0  0  0  0  0  0  0
    0.5777    0.2465    0.4685 C   0  0  0  0  0  3  0  0  0  0  0  0
   -0.8150   -0.3394    0.3574 C   0  0  0  0  0  0  0  0  0  0  0  0
   -1.7513    0.5902    0.8414 O   0  0  0  0  0  0  0  0  0  0  0  0
   -3.0733    0.1160    0.8096 C   0  0  0  0  0  0  0  0  0  0  0  0
   -3.9922    1.1873    1.3495 C   0  0  0  0  0  0  0  0  0  0  0  0
    0.9891   -0.3950    2.4982 H   0  0  0  0  0  0  0  0  0  0  0  0
    2.0057    0.9388    1.9473 H   0  0  0  0  0  0  0  0  0  0  0  0
    0.3171    1.2324    2.3773 H   0  0  0  0  0  0  0  0  0  0  0  0
    0.6141    1.1686   -0.1174 H   0  0  0  0  0  0  0  0  0  0  0  0
   -0.8795   -1.2733    0.9380 H   0  0  0  0  0  0  0  0  0  0  0  0
   -1.0412   -0.5891   -0.6896 H   0  0  0  0  0  0  0  0  0  0  0  0
   -3.1569   -0.8012    1.4111 H   0  0  0  0  0  0  0  0  0  0  0  0
   -3.3530   -0.1466   -0.2214 H   0  0  0  0  0  0  0  0  0  0  0  0
   -3.9202    2.0924    0.7454 H   0  0  0  0  0  0  0  0  0  0  0  0
   -5.0268    0.8410    1.3339 H   0  0  0  0  0  0  0  0  0  0  0  0
   -3.7256    1.4372    2.3770 H   0  0  0  0  0  0  0  0  0  0  0  0
  1  2  1  0
  1  4  1  0
  1  5  1  0
  1  6  1  0
  2  3  2  0
  7  8  1  0
  7 13  1  0
  7 14  1  0
  7 15  1  0
  8  9  1  0
  8 16  1  0
  9 10  1  0
  9 17  1  0
  9 18  1  0
 10 11  1  0
 11 12  1  0
 11 19  1  0
 11 20  1  0
 12 21  1  0
 12 22  1  0
 12 23  1  0
M  RAD  1   8   2
M  END
>  <reaction>  (5) 
rmg_rxn_588

>  <mol_properties>  (5) 
{"0": {"label": "*1", "atom_type": "Cs"}, "1": {"label": "*0", "atom_type": "N3d"}, "3": {"label": "*2", "atom_type": "H0"}, "7": {"label": "*3", "atom_type": "Cs"}, "8": {"label": "*4", "atom_type": "Cs"}}

>  <type>  (5) 
unop_1

>  <geom_source>  (5) 
Heuristics

$$$$

     RDKit          3D

 23 21  0  0  0  0  0  0  0  0999 V2000
    2.6105   -0.2557   -1.0797 C   0  0  0  0  0  0  0  0  0  0  0  0
    2.6105   -1.6014   -1.6765 N   0  0  0  0  0  0  0  0  0  0  0  0
    2.6105   -1.6014   -2.8696 O   0  0  0  0  0  0  0  0  0  0  0  0
    1.5545   -0.1843   -0.3071 H   0  0  0  0  0  0  0  0  0  0  0  0
    2.6105    0.5248   -1.8414 H   0  0  0  0  0  0  0  0  0  0  0  0
    3.4905   -0.1962   -0.4359 H   0  0  0  0  0  0  0  0  0  0  0  0
    0.1596   -1.4902    1.0216 C   0  0  0  0  0  0  0  0  0  0  0  0
    0.4970   -0.1128    0.4666 C   0  0  0  0  0  3  0  0  0  0  0  0
   -0.7264    0.6761    0.0468 C   0  0  0  0  0  0  0  0  0  0  0  0
   -1.5318    0.9204    1.1723 O   0  0  0  0  0  0  0  0  0  0  0  0
   -2.7123    1.6195    0.8702 C   0  0  0  0  0  0  0  0  0  0  0  0
   -3.4995    1.8268    2.1433 C   0  0  0  0  0  0  0  0  0  0  0  0
   -0.3687   -2.0914    0.2774 H   0  0  0  0  0  0  0  0  0  0  0  0
    1.0632   -2.0304    1.3078 H   0  0  0  0  0  0  0  0  0  0  0  0
   -0.4803   -1.4064    1.9000 H   0  0  0  0  0  0  0  0  0  0  0  0
    1.0456    0.4682    1.2124 H   0  0  0  0  0  0  0  0  0  0  0  0
   -1.2982    0.1135   -0.7082 H   0  0  0  0  0  0  0  0  0  0  0  0
   -0.4262    1.6289   -0.4136 H   0  0  0  0  0  0  0  0  0  0  0  0
   -3.3067    1.0526    0.1386 H   0  0  0  0  0  0  0  0  0  0  0  0
   -2.4674    2.5872    0.4078 H   0  0  0  0  0  0  0  0  0  0  0  0
   -2.9161    2.4008    2.8642 H   0  0  0  0  0  0  0  0  0  0  0  0
   -4.4224    2.3695    1.9331 H   0  0  0  0  0  0  0  0  0  0  0  0
   -3.7562    0.8676    2.5943 H   0  0  0  0  0  0  0  0  0  0  0  0
  1  2  1  0
  1  4  1  0
  1  5  1  0
  1  6  1  0
  2  3  2  0
  7  8  1  0
  7 13  1  0
  7 14  1  0
  7 15  1  0
  8  9  1  0
  8 16  1  0
  9 10  1  0
  9 17  1  0
  9 18  1  0
 10 11  1  0
 11 12  1  0
 11 19  1  0
 11 20  1  0
 12 21  1  0
 12 22  1  0
 12 23  1  0
M  RAD  1   8   2
M  END
>  <reaction>  (6) 
rmg_rxn_588

>  <mol_properties>  (6) 
{"0": {"label": "*1", "atom_type": "Cs"}, "1": {"label": "*0", "atom_type": "N3d"}, "3": {"label": "*2", "atom_type": "H0"}, "7": {"label": "*3", "atom_type": "Cs"}, "8": {"label": "*4", "atom_type": "Cs"}}

>  <type>  (6) 
unop_2

>  <geom_source>  (6) 
Heuristics

$$$$

     RDKit          3D

 23 21  0  0  0  0  0  0  0  0999 V2000
    2.5811    0.5539   -1.2665 C   0  0  0  0  0  0  0  0  0  0  0  0
    2.5811   -0.7919   -1.8633 N   0  0  0  0  0  0  0  0  0  0  0  0
    2.5811   -0.7919   -3.0565 O   0  0  0  0  0  0  0  0  0  0  0  0
    1.5250    0.6253   -0.4940 H   0  0  0  0  0  0  0  0  0  0  0  0
    2.5810    1.3344   -2.0283 H   0  0  0  0  0  0  0  0  0  0  0  0
    3.4611    0.6134   -0.6227 H   0  0  0  0  0  0  0  0  0  0  0  0
    0.7323    1.6434    1.4429 C   0  0  0  0  0  0  0  0  0  0  0  0
    0.4675    0.6968    0.2797 C   0  0  0  0  0  3  0  0  0  0  0  0
   -0.4888   -0.4247    0.6304 C   0  0  0  0  0  0  0  0  0  0  0  0
   -1.7437    0.1180    0.9556 O   0  0  0  0  0  0  0  0  0  0  0  0
   -2.6887   -0.8516    1.3302 C   0  0  0  0  0  0  0  0  0  0  0  0
   -3.9939   -0.1642    1.6580 C   0  0  0  0  0  0  0  0  0  0  0  0
    1.1656    1.1071    2.2909 H   0  0  0  0  0  0  0  0  0  0  0  0
    1.4279    2.4334    1.1558 H   0  0  0  0  0  0  0  0  0  0  0  0
   -0.1935    2.1100    1.7794 H   0  0  0  0  0  0  0  0  0  0  0  0
    0.0571    1.2504   -0.5687 H   0  0  0  0  0  0  0  0  0  0  0  0
   -0.0977   -1.0021    1.4831 H   0  0  0  0  0  0  0  0  0  0  0  0
   -0.5886   -1.1194   -0.2165 H   0  0  0  0  0  0  0  0  0  0  0  0
   -2.3220   -1.4157    2.2005 H   0  0  0  0  0  0  0  0  0  0  0  0
   -2.8295   -1.5739    0.5124 H   0  0  0  0  0  0  0  0  0  0  0  0
   -4.3652    0.3840    0.7915 H   0  0  0  0  0  0  0  0  0  0  0  0
   -4.7449   -0.8991    1.9518 H   0  0  0  0  0  0  0  0  0  0  0  0
   -3.8587    0.5408    2.4791 H   0  0  0  0  0  0  0  0  0  0  0  0
  1  2  1  0
  1  4  1  0
  1  5  1  0
  1  6  1  0
  2  3  2  0
  7  8  1  0
  7 13  1  0
  7 14  1  0
  7 15  1  0
  8  9  1  0
  8 16  1  0
  9 10  1  0
  9 17  1  0
  9 18  1  0
 10 11  1  0
 11 12  1  0
 11 19  1  0
 11 20  1  0
 12 21  1  0
 12 22  1  0
 12 23  1  0
M  RAD  1   8   2
M  END
>  <reaction>  (7) 
rmg_rxn_588

>  <mol_properties>  (7) 
{"0": {"label": "*1", "atom_type": "Cs"}, "1": {"label": "*0", "atom_type": "N3d"}, "3": {"label": "*2", "atom_type": "H0"}, "7": {"label": "*3", "atom_type": "Cs"}, "8": {"label": "*4", "atom_type": "Cs"}}

>  <type>  (7) 
unop_3

>  <geom_source>  (7) 
Heuristics

$$$$

     RDKit          3D

 23 21  0  0  0  0  0  0  0  0999 V2000
    1.7513   -1.0644   -1.0002 C   0  0  0  0  0  0  0  0  0  0  0  0
    1.7513   -2.4101   -1.5970 N   0  0  0  0  0  0  0  0  0  0  0  0
    1.7513   -2.4101   -2.7901 O   0  0  0  0  0  0  0  0  0  0  0  0
    0.6953   -0.9930   -0.2276 H   0  0  0  0  0  0  0  0  0  0  0  0
    1.7513   -0.2839   -1.7620 H   0  0  0  0  0  0  0  0  0  0  0  0
    2.6313   -1.0049   -0.3564 H   0  0  0  0  0  0  0  0  0  0  0  0
   -1.6269   -1.1413   -0.2734 C   0  0  0  0  0  0  0  0  0  0  0  0
   -0.3622   -0.9215    0.5460 C   0  0  0  0  0  3  0  0  0  0  0  0
    0.0606    0.5319    0.6104 C   0  0  0  0  0  0  0  0  0  0  0  0
   -0.9351    1.2781    1.2638 O   0  0  0  0  0  0  0  0  0  0  0  0
   -0.6428    2.6501    1.3384 C   0  0  0  0  0  0  0  0  0  0  0  0
   -1.7720    3.3543    2.0544 C   0  0  0  0  0  0  0  0  0  0  0  0
   -1.4876   -0.8028   -1.3032 H   0  0  0  0  0  0  0  0  0  0  0  0
   -1.8975   -2.1977   -0.3021 H   0  0  0  0  0  0  0  0  0  0  0  0
   -2.4634   -0.5864    0.1512 H   0  0  0  0  0  0  0  0  0  0  0  0
   -0.5079   -1.2861    1.5661 H   0  0  0  0  0  0  0  0  0  0  0  0
    0.2172    0.9254   -0.4065 H   0  0  0  0  0  0  0  0  0  0  0  0
    1.0150    0.6278    1.1486 H   0  0  0  0  0  0  0  0  0  0  0  0
   -0.5135    3.0613    0.3264 H   0  0  0  0  0  0  0  0  0  0  0  0
    0.3062    2.8030    1.8735 H   0  0  0  0  0  0  0  0  0  0  0  0
   -1.8919    2.9568    3.0628 H   0  0  0  0  0  0  0  0  0  0  0  0
   -1.5664    4.4236    2.1250 H   0  0  0  0  0  0  0  0  0  0  0  0
   -2.7106    3.2164    1.5163 H   0  0  0  0  0  0  0  0  0  0  0  0
  1  2  1  0
  1  4  1  0
  1  5  1  0
  1  6  1  0
  2  3  2  0
  7  8  1  0
  7 13  1  0
  7 14  1  0
  7 15  1  0
  8  9  1  0
  8 16  1  0
  9 10  1  0
  9 17  1  0
  9 18  1  0
 10 11  1  0
 11 12  1  0
 11 19  1  0
 11 20  1  0
 12 21  1  0
 12 22  1  0
 12 23  1  0
M  RAD  1   8   2
M  END
>  <reaction>  (8) 
rmg_rxn_588

>  <mol_properties>  (8) 
{"0": {"label": "*1", "atom_type": "Cs"}, "1": {"label": "*0", "atom_type": "N3d"}, "3": {"label": "*2", "atom_type": "H0"}, "7": {"label": "*3", "atom_type": "Cs"}, "8": {"label": "*4", "atom_type": "Cs"}}

>  <type>  (8) 
unop_4

>  <geom_source>  (8) 
Heuristics

$$$$

     RDKit          3D

 23 21  0  0  0  0  0  0  0  0999 V2000
    1.9196    0.7857   -1.8348 C   0  0  0  0  0  0  0  0  0  0  0  0
    1.9196   -0.5601   -2.4316 N   0  0  0  0  0  0  0  0  0  0  0  0
    1.9196   -0.5601   -3.6247 O   0  0  0  0  0  0  0  0  0  0  0  0
    0.8636    0.8571   -1.0622 H   0  0  0  0  0  0  0  0  0  0  0  0
    1.9196    1.5661   -2.5965 H   0  0  0  0  0  0  0  0  0  0  0  0
    2.7996    0.8452   -1.1910 H   0  0  0  0  0  0  0  0  0  0  0  0
   -0.2686    2.2989    0.3716 C   0  0  0  0  0  0  0  0  0  0  0  0
   -0.1939    0.9286   -0.2885 C   0  0  0  0  0  3  0  0  0  0  0  0
   -0.1193   -0.2095    0.7087 C   0  0  0  0  0  0  0  0  0  0  0  0
   -1.2966   -0.2346    1.4757 O   0  0  0  0  0  0  0  0  0  0  0  0
   -1.3006   -1.2413    2.4556 C   0  0  0  0  0  0  0  0  0  0  0  0
   -2.6035   -1.1787    3.2184 C   0  0  0  0  0  0  0  0  0  0  0  0
    0.6096    2.4786    0.9967 H   0  0  0  0  0  0  0  0  0  0  0  0
   -0.3156    3.0926   -0.3755 H   0  0  0  0  0  0  0  0  0  0  0  0
   -1.1521    2.3745    1.0055 H   0  0  0  0  0  0  0  0  0  0  0  0
   -1.0660    0.7724   -0.9288 H   0  0  0  0  0  0  0  0  0  0  0  0
    0.7542   -0.0785    1.3670 H   0  0  0  0  0  0  0  0  0  0  0  0
    0.0074   -1.1681    0.1844 H   0  0  0  0  0  0  0  0  0  0  0  0
   -0.4487   -1.1035    3.1378 H   0  0  0  0  0  0  0  0  0  0  0  0
   -1.1795   -2.2267    1.9816 H   0  0  0  0  0  0  0  0  0  0  0  0
   -3.4481   -1.3290    2.5450 H   0  0  0  0  0  0  0  0  0  0  0  0
   -2.6297   -1.9535    3.9862 H   0  0  0  0  0  0  0  0  0  0  0  0
   -2.7172   -0.2076    3.7015 H   0  0  0  0  0  0  0  0  0  0  0  0
  1  2  1  0
  1  4  1  0
  1  5  1  0
  1  6  1  0
  2  3  2  0
  7  8  1  0
  7 13  1  0
  7 14  1  0
  7 15  1  0
  8  9  1  0
  8 16  1  0
  9 10  1  0
  9 17  1  0
  9 18  1  0
 10 11  1  0
 11 12  1  0
 11 19  1  0
 11 20  1  0
 12 21  1  0
 12 22  1  0
 12 23  1  0
M  RAD  1   8   2
M  END
>  <reaction>  (9) 
rmg_rxn_588

>  <mol_properties>  (9) 
{"0": {"label": "*1", "atom_type": "Cs"}, "1": {"label": "*0", "atom_type": "N3d"}, "3": {"label": "*2", "atom_type": "H0"}, "7": {"label": "*3", "atom_type": "Cs"}, "8": {"label": "*4", "atom_type": "Cs"}}

>  <type>  (9) 
unop_5

>  <geom_source>  (9) 
Heuristics

$$$$

     RDKit          3D

 23 21  0  0  0  0  0  0  0  0999 V2000
    1.2838   -0.9677   -1.3896 C   0  0  0  0  0  0  0  0  0  0  0  0
    1.2838   -2.3135   -1.9864 N   0  0  0  0  0  0  0  0  0  0  0  0
    1.2838   -2.3135   -3.1795 O   0  0  0  0  0  0  0  0  0  0  0  0
    0.2278   -0.8963   -0.6170 H   0  0  0  0  0  0  0  0  0  0  0  0
    1.2838   -0.1872   -2.1514 H   0  0  0  0  0  0  0  0  0  0  0  0
    2.1639   -0.9082   -0.7458 H   0  0  0  0  0  0  0  0  0  0  0  0
   -2.0239   -0.3083   -0.6347 C   0  0  0  0  0  0  0  0  0  0  0  0
   -0.8297   -0.8248    0.1567 C   0  0  0  0  0  3  0  0  0  0  0  0
    0.0862    0.2802    0.6418 C   0  0  0  0  0  0  0  0  0  0  0  0
   -0.6156    1.1086    1.5341 O   0  0  0  0  0  0  0  0  0  0  0  0
    0.1487    2.1870    2.0100 C   0  0  0  0  0  0  0  0  0  0  0  0
   -0.6969    3.0088    2.9550 C   0  0  0  0  0  0  0  0  0  0  0  0
   -1.6960    0.2459   -1.5176 H   0  0  0  0  0  0  0  0  0  0  0  0
   -2.6569   -1.1305   -0.9717 H   0  0  0  0  0  0  0  0  0  0  0  0
   -2.6306    0.3613   -0.0251 H   0  0  0  0  0  0  0  0  0  0  0  0
   -1.1724   -1.3969    1.0227 H   0  0  0  0  0  0  0  0  0  0  0  0
    0.4492    0.8727   -0.2130 H   0  0  0  0  0  0  0  0  0  0  0  0
    0.9680   -0.1472    1.1413 H   0  0  0  0  0  0  0  0  0  0  0  0
    0.4925    2.8037    1.1664 H   0  0  0  0  0  0  0  0  0  0  0  0
    1.0464    1.8126    2.5241 H   0  0  0  0  0  0  0  0  0  0  0  0
   -1.0267    2.4018    3.7988 H   0  0  0  0  0  0  0  0  0  0  0  0
   -0.1227    3.8537    3.3386 H   0  0  0  0  0  0  0  0  0  0  0  0
   -1.5792    3.3934    2.4421 H   0  0  0  0  0  0  0  0  0  0  0  0
  1  2  1  0
  1  4  1  0
  1  5  1  0
  1  6  1  0
  2  3  2  0
  7  8  1  0
  7 13  1  0
  7 14  1  0
  7 15  1  0
  8  9  1  0
  8 16  1  0
  9 10  1  0
  9 17  1  0
  9 18  1  0
 10 11  1  0
 11 12  1  0
 11 19  1  0
 11 20  1  0
 12 21  1  0
 12 22  1  0
 12 23  1  0
M  RAD  1   8   2
M  END
>  <reaction>  (10) 
rmg_rxn_588

>  <mol_properties>  (10) 
{"0": {"label": "*1", "atom_type": "Cs"}, "1": {"label": "*0", "atom_type": "N3d"}, "3": {"label": "*2", "atom_type": "H0"}, "7": {"label": "*3", "atom_type": "Cs"}, "8": {"label": "*4", "atom_type": "Cs"}}

>  <type>  (10) 
unop_6

>  <geom_source>  (10) 
Heuristics

$$$$

     RDKit          3D

 23 21  0  0  0  0  0  0  0  0999 V2000
    1.0058   -0.5223   -1.8042 C   0  0  0  0  0  0  0  0  0  0  0  0
    1.0058   -1.8680   -2.4010 N   0  0  0  0  0  0  0  0  0  0  0  0
    1.0058   -1.8680   -3.5941 O   0  0  0  0  0  0  0  0  0  0  0  0
   -0.0502   -0.4509   -1.0316 H   0  0  0  0  0  0  0  0  0  0  0  0
    1.0058    0.2582   -2.5660 H   0  0  0  0  0  0  0  0  0  0  0  0
    1.8858   -0.4628   -1.1604 H   0  0  0  0  0  0  0  0  0  0  0  0
   -2.0247    0.7427   -0.7263 C   0  0  0  0  0  0  0  0  0  0  0  0
   -1.1077   -0.3794   -0.2579 C   0  0  0  0  0  3  0  0  0  0  0  0
    0.0428    0.1098    0.5978 C   0  0  0  0  0  0  0  0  0  0  0  0
   -0.4644    0.6856    1.7751 O   0  0  0  0  0  0  0  0  0  0  0  0
    0.5348    1.2011    2.6174 C   0  0  0  0  0  0  0  0  0  0  0  0
   -0.1161    1.7937    3.8457 C   0  0  0  0  0  0  0  0  0  0  0  0
   -1.4725    1.4746   -1.3210 H   0  0  0  0  0  0  0  0  0  0  0  0
   -2.8367    0.3546   -1.3429 H   0  0  0  0  0  0  0  0  0  0  0  0
   -2.4623    1.2643    0.1249 H   0  0  0  0  0  0  0  0  0  0  0  0
   -1.6777   -1.1156    0.3147 H   0  0  0  0  0  0  0  0  0  0  0  0
    0.6371    0.8531    0.0430 H   0  0  0  0  0  0  0  0  0  0  0  0
    0.7141   -0.7250    0.8475 H   0  0  0  0  0  0  0  0  0  0  0  0
    1.1167    1.9667    2.0833 H   0  0  0  0  0  0  0  0  0  0  0  0
    1.2353    0.4018    2.9013 H   0  0  0  0  0  0  0  0  0  0  0  0
   -0.6820    1.0322    4.3833 H   0  0  0  0  0  0  0  0  0  0  0  0
    0.6423    2.2007    4.5163 H   0  0  0  0  0  0  0  0  0  0  0  0
   -0.7991    2.5968    3.5664 H   0  0  0  0  0  0  0  0  0  0  0  0
  1  2  1  0
  1  4  1  0
  1  5  1  0
  1  6  1  0
  2  3  2  0
  7  8  1  0
  7 13  1  0
  7 14  1  0
  7 15  1  0
  8  9  1  0
  8 16  1  0
  9 10  1  0
  9 17  1  0
  9 18  1  0
 10 11  1  0
 11 12  1  0
 11 19  1  0
 11 20  1  0
 12 21  1  0
 12 22  1  0
 12 23  1  0
M  RAD  1   8   2
M  END
>  <reaction>  (11) 
rmg_rxn_588

>  <mol_properties>  (11) 
{"0": {"label": "*1", "atom_type": "Cs"}, "1": {"label": "*0", "atom_type": "N3d"}, "3": {"label": "*2", "atom_type": "H0"}, "7": {"label": "*3", "atom_type": "Cs"}, "8": {"label": "*4", "atom_type": "Cs"}}

>  <type>  (11) 
unop_7

>  <geom_source>  (11) 
Heuristics

$$$$

     RDKit          3D

 23 21  0  0  0  0  0  0  0  0999 V2000
    2.6329   -0.1359   -1.1359 C   0  0  0  0  0  0  0  0  0  0  0  0
    2.6329   -1.4816   -1.7327 N   0  0  0  0  0  0  0  0  0  0  0  0
    2.6329   -1.4816   -2.9258 O   0  0  0  0  0  0  0  0  0  0  0  0
    1.5769   -0.0645   -0.3633 H   0  0  0  0  0  0  0  0  0  0  0  0
    2.6329    0.6446   -1.8977 H   0  0  0  0  0  0  0  0  0  0  0  0
    3.5129   -0.0764   -0.4921 H   0  0  0  0  0  0  0  0  0  0  0  0
    0.8690   -0.4524    1.8196 C   0  0  0  0  0  0  0  0  0  0  0  0
    0.5194    0.0070    0.4103 C   0  0  0  0  0  3  0  0  0  0  0  0
   -0.9667   -0.0418    0.1196 C   0  0  0  0  0  0  0  0  0  0  0  0
   -1.6379    0.8495    0.9740 O   0  0  0  0  0  0  0  0  0  0  0  0
   -3.0317    0.8448    0.7986 C   0  0  0  0  0  0  0  0  0  0  0  0
   -3.6509    1.8316    1.7611 C   0  0  0  0  0  0  0  0  0  0  0  0
    0.5445   -1.4827    1.9853 H   0  0  0  0  0  0  0  0  0  0  0  0
    1.9456   -0.4090    1.9909 H   0  0  0  0  0  0  0  0  0  0  0  0
    0.3798    0.1766    2.5632 H   0  0  0  0  0  0  0  0  0  0  0  0
    0.8709    1.0297    0.2509 H   0  0  0  0  0  0  0  0  0  0  0  0
   -1.3479   -1.0643    0.2703 H   0  0  0  0  0  0  0  0  0  0  0  0
   -1.1590    0.2274   -0.9294 H   0  0  0  0  0  0  0  0  0  0  0  0
   -3.4283   -0.1658    0.9759 H   0  0  0  0  0  0  0  0  0  0  0  0
   -3.2802    1.1124   -0.2392 H   0  0  0  0  0  0  0  0  0  0  0  0
   -3.2687    2.8362    1.5770 H   0  0  0  0  0  0  0  0  0  0  0  0
   -4.7355    1.8457    1.6425 H   0  0  0  0  0  0  0  0  0  0  0  0
   -3.4182    1.5583    2.7909 H   0  0  0  0  0  0  0  0  0  0  0  0
  1  2  1  0
  1  4  1  0
  1  5  1  0
  1  6  1  0
  2  3  2  0
  7  8  1  0
  7 13  1  0
  7 14  1  0
  7 15  1  0
  8  9  1  0
  8 16  1  0
  9 10  1  0
  9 17  1  0
  9 18  1  0
 10 11  1  0
 11 12  1  0
 11 19  1  0
 11 20  1  0
 12 21  1  0
 12 22  1  0
 12 23  1  0
M  RAD  1   8   2
M  END
>  <reaction>  (12) 
rmg_rxn_588

>  <mol_properties>  (12) 
{"0": {"label": "*1", "atom_type": "Cs"}, "1": {"label": "*0", "atom_type": "N3d"}, "3": {"label": "*2", "atom_type": "H0"}, "7": {"label": "*3", "atom_type": "Cs"}, "8": {"label": "*4", "atom_type": "Cs"}}

>  <type>  (12) 
unop_8

>  <geom_source>  (12) 
Heuristics

$$$$

     RDKit          3D

 23 21  0  0  0  0  0  0  0  0999 V2000
    2.2298   -0.8453   -0.7996 C   0  0  0  0  0  0  0  0  0  0  0  0
    2.2298   -2.1911   -1.3964 N   0  0  0  0  0  0  0  0  0  0  0  0
    2.2298   -2.1911   -2.5895 O   0  0  0  0  0  0  0  0  0  0  0  0
    1.1737   -0.7739   -0.0270 H   0  0  0  0  0  0  0  0  0  0  0  0
    2.2298   -0.0649   -1.5614 H   0  0  0  0  0  0  0  0  0  0  0  0
    3.1098   -0.7858   -0.1558 H   0  0  0  0  0  0  0  0  0  0  0  0
   -0.9931   -1.5919    0.2013 C   0  0  0  0  0  0  0  0  0  0  0  0
    0.1162   -0.7024    0.7466 C   0  0  0  0  0  3  0  0  0  0  0  0
   -0.1019    0.7681    0.4547 C   0  0  0  0  0  0  0  0  0  0  0  0
   -1.2721    1.2025    1.1003 O   0  0  0  0  0  0  0  0  0  0  0  0
   -1.5740    2.5524    0.8553 C   0  0  0  0  0  0  0  0  0  0  0  0
   -2.8437    2.9129    1.5912 C   0  0  0  0  0  0  0  0  0  0  0  0
   -1.0762   -1.4902   -0.8836 H   0  0  0  0  0  0  0  0  0  0  0  0
   -0.8001   -2.6421    0.4251 H   0  0  0  0  0  0  0  0  0  0  0  0
   -1.9545   -1.3214    0.6378 H   0  0  0  0  0  0  0  0  0  0  0  0
    0.2038   -0.8323    1.8284 H   0  0  0  0  0  0  0  0  0  0  0  0
   -0.1914    0.9286   -0.6314 H   0  0  0  0  0  0  0  0  0  0  0  0
    0.7592    1.3576    0.8023 H   0  0  0  0  0  0  0  0  0  0  0  0
   -1.6954    2.7192   -0.2252 H   0  0  0  0  0  0  0  0  0  0  0  0
   -0.7418    3.1896    1.1896 H   0  0  0  0  0  0  0  0  0  0  0  0
   -2.7198    2.7610    2.6640 H   0  0  0  0  0  0  0  0  0  0  0  0
   -3.0982    3.9593    1.4159 H   0  0  0  0  0  0  0  0  0  0  0  0
   -3.6728    2.2923    1.2494 H   0  0  0  0  0  0  0  0  0  0  0  0
  1  2  1  0
  1  4  1  0
  1  5  1  0
  1  6  1  0
  2  3  2  0
  7  8  1  0
  7 13  1  0
  7 14  1  0
  7 15  1  0
  8  9  1  0
  8 16  1  0
  9 10  1  0
  9 17  1  0
  9 18  1  0
 10 11  1  0
 11 12  1  0
 11 19  1  0
 11 20  1  0
 12 21  1  0
 12 22  1  0
 12 23  1  0
M  RAD  1   8   2
M  END
>  <reaction>  (13) 
rmg_rxn_588

>  <mol_properties>  (13) 
{"0": {"label": "*1", "atom_type": "Cs"}, "1": {"label": "*0", "atom_type": "N3d"}, "3": {"label": "*2", "atom_type": "H0"}, "7": {"label": "*3", "atom_type": "Cs"}, "8": {"label": "*4", "atom_type": "Cs"}}

>  <type>  (13) 
unop_9

>  <geom_source>  (13) 
Heuristics

$$$$

     RDKit          3D

 23 21  0  0  0  0  0  0  0  0999 V2000
    2.5984   -0.1966   -1.1832 C   0  0  0  0  0  0  0  0  0  0  0  0
    2.5984   -1.5423   -1.7800 N   0  0  0  0  0  0  0  0  0  0  0  0
    2.5984   -1.5423   -2.9731 O   0  0  0  0  0  0  0  0  0  0  0  0
    1.5424   -0.1252   -0.4106 H   0  0  0  0  0  0  0  0  0  0  0  0
    2.5984    0.5839   -1.9450 H   0  0  0  0  0  0  0  0  0  0  0  0
    3.4784   -0.1371   -0.5394 H   0  0  0  0  0  0  0  0  0  0  0  0
    0.5573   -1.1186    1.4493 C   0  0  0  0  0  0  0  0  0  0  0  0
    0.4849   -0.0537    0.3630 C   0  0  0  0  0  3  0  0  0  0  0  0
   -0.9346    0.3383    0.0071 C   0  0  0  0  0  0  0  0  0  0  0  0
   -1.5538    0.9151    1.1291 O   0  0  0  0  0  0  0  0  0  0  0  0
   -2.8913    1.2787    0.9007 C   0  0  0  0  0  0  0  0  0  0  0  0
   -3.4581    1.8841    2.1640 C   0  0  0  0  0  0  0  0  0  0  0  0
    0.0428   -2.0304    1.1359 H   0  0  0  0  0  0  0  0  0  0  0  0
    1.5923   -1.3792    1.6752 H   0  0  0  0  0  0  0  0  0  0  0  0
    0.0861   -0.7667    2.3670 H   0  0  0  0  0  0  0  0  0  0  0  0
    1.0235    0.8431    0.6801 H   0  0  0  0  0  0  0  0  0  0  0  0
   -1.5010   -0.5483   -0.3192 H   0  0  0  0  0  0  0  0  0  0  0  0
   -0.9346    1.0523   -0.8297 H   0  0  0  0  0  0  0  0  0  0  0  0
   -3.4743    0.3948    0.6027 H   0  0  0  0  0  0  0  0  0  0  0  0
   -2.9479    1.9985    0.0706 H   0  0  0  0  0  0  0  0  0  0  0  0
   -2.8892    2.7686    2.4525 H   0  0  0  0  0  0  0  0  0  0  0  0
   -4.4983    2.1754    2.0100 H   0  0  0  0  0  0  0  0  0  0  0  0
   -3.4168    1.1659    2.9837 H   0  0  0  0  0  0  0  0  0  0  0  0
  1  2  1  0
  1  4  1  0
  1  5  1  0
  1  6  1  0
  2  3  2  0
  7  8  1  0
  7 13  1  0
  7 14  1  0
  7 15  1  0
  8  9  1  0
  8 16  1  0
  9 10  1  0
  9 17  1  0
  9 18  1  0
 10 11  1  0
 11 12  1  0
 11 19  1  0
 11 20  1  0
 12 21  1  0
 12 22  1  0
 12 23  1  0
M  RAD  1   8   2
M  END
>  <reaction>  (14) 
rmg_rxn_588

>  <mol_properties>  (14) 
{"0": {"label": "*1", "atom_type": "Cs"}, "1": {"label": "*0", "atom_type": "N3d"}, "3": {"label": "*2", "atom_type": "H0"}, "7": {"label": "*3", "atom_type": "Cs"}, "8": {"label": "*4", "atom_type": "Cs"}}

>  <type>  (14) 
unop_10

>  <geom_source>  (14) 
Heuristics

$$$$

     RDKit          3D

 23 21  0  0  0  0  0  0  0  0999 V2000
    1.1449    0.2002   -2.0635 C   0  0  0  0  0  0  0  0  0  0  0  0
    1.1449   -1.1456   -2.6603 N   0  0  0  0  0  0  0  0  0  0  0  0
    1.1449   -1.1456   -3.8534 O   0  0  0  0  0  0  0  0  0  0  0  0
    0.0889    0.2716   -1.2909 H   0  0  0  0  0  0  0  0  0  0  0  0
    1.1449    0.9806   -2.8253 H   0  0  0  0  0  0  0  0  0  0  0  0
    2.0250    0.2597   -1.4197 H   0  0  0  0  0  0  0  0  0  0  0  0
   -1.4758    1.7776   -0.4543 C   0  0  0  0  0  0  0  0  0  0  0  0
   -0.9686    0.3431   -0.5172 C   0  0  0  0  0  3  0  0  0  0  0  0
    0.0014    0.0050    0.5963 C   0  0  0  0  0  0  0  0  0  0  0  0
   -0.6561    0.1084    1.8341 O   0  0  0  0  0  0  0  0  0  0  0  0
    0.1802   -0.1545    2.9318 C   0  0  0  0  0  0  0  0  0  0  0  0
   -0.6222   -0.0155    4.2047 C   0  0  0  0  0  0  0  0  0  0  0  0
   -0.6476    2.4872   -0.5253 H   0  0  0  0  0  0  0  0  0  0  0  0
   -2.1662    1.9863   -1.2729 H   0  0  0  0  0  0  0  0  0  0  0  0
   -1.9956    1.9625    0.4857 H   0  0  0  0  0  0  0  0  0  0  0  0
   -1.8088   -0.3545   -0.4694 H   0  0  0  0  0  0  0  0  0  0  0  0
    0.8615    0.6928    0.5702 H   0  0  0  0  0  0  0  0  0  0  0  0
    0.3937   -1.0140    0.4640 H   0  0  0  0  0  0  0  0  0  0  0  0
    1.0281    0.5464    2.9332 H   0  0  0  0  0  0  0  0  0  0  0  0
    0.5989   -1.1686    2.8501 H   0  0  0  0  0  0  0  0  0  0  0  0
   -1.4550   -0.7196    4.2103 H   0  0  0  0  0  0  0  0  0  0  0  0
    0.0078   -0.2162    5.0726 H   0  0  0  0  0  0  0  0  0  0  0  0
   -1.0247    0.9942    4.2943 H   0  0  0  0  0  0  0  0  0  0  0  0
  1  2  1  0
  1  4  1  0
  1  5  1  0
  1  6  1  0
  2  3  2  0
  7  8  1  0
  7 13  1  0
  7 14  1  0
  7 15  1  0
  8  9  1  0
  8 16  1  0
  9 10  1  0
  9 17  1  0
  9 18  1  0
 10 11  1  0
 11 12  1  0
 11 19  1  0
 11 20  1  0
 12 21  1  0
 12 22  1  0
 12 23  1  0
M  RAD  1   8   2
M  END
>  <reaction>  (15) 
rmg_rxn_588

>  <mol_properties>  (15) 
{"0": {"label": "*1", "atom_type": "Cs"}, "1": {"label": "*0", "atom_type": "N3d"}, "3": {"label": "*2", "atom_type": "H0"}, "7": {"label": "*3", "atom_type": "Cs"}, "8": {"label": "*4", "atom_type": "Cs"}}

>  <type>  (15) 
unop_11

>  <geom_source>  (15) 
Heuristics

$$$$

     RDKit          3D

 23 21  0  0  0  0  0  0  0  0999 V2000
    2.5367   -0.4895   -0.8735 C   0  0  0  0  0  0  0  0  0  0  0  0
    2.5367   -1.8353   -1.4703 N   0  0  0  0  0  0  0  0  0  0  0  0
    2.5367   -1.8353   -2.6634 O   0  0  0  0  0  0  0  0  0  0  0  0
    1.4806   -0.4181   -0.1009 H   0  0  0  0  0  0  0  0  0  0  0  0
    2.5367    0.2910   -1.6353 H   0  0  0  0  0  0  0  0  0  0  0  0
    3.4167   -0.4300   -0.2297 H   0  0  0  0  0  0  0  0  0  0  0  0
   -0.3468   -1.6599    0.6306 C   0  0  0  0  0  0  0  0  0  0  0  0
    0.4231   -0.3466    0.6728 C   0  0  0  0  0  3  0  0  0  0  0  0
   -0.4022    0.8423    0.2248 C   0  0  0  0  0  0  0  0  0  0  0  0
   -1.4807    1.0199    1.1081 O   0  0  0  0  0  0  0  0  0  0  0  0
   -2.3246    2.0839    0.7485 C   0  0  0  0  0  0  0  0  0  0  0  0
   -3.4443    2.1851    1.7582 C   0  0  0  0  0  0  0  0  0  0  0  0
   -0.6942   -1.8755   -0.3830 H   0  0  0  0  0  0  0  0  0  0  0  0
    0.2794   -2.4927    0.9539 H   0  0  0  0  0  0  0  0  0  0  0  0
   -1.2198   -1.6167    1.2818 H   0  0  0  0  0  0  0  0  0  0  0  0
    0.7847   -0.1560    1.6865 H   0  0  0  0  0  0  0  0  0  0  0  0
   -0.7782    0.6776   -0.7975 H   0  0  0  0  0  0  0  0  0  0  0  0
    0.2180    1.7504    0.2026 H   0  0  0  0  0  0  0  0  0  0  0  0
   -2.7303    1.9159   -0.2600 H   0  0  0  0  0  0  0  0  0  0  0  0
   -1.7515    3.0223    0.7146 H   0  0  0  0  0  0  0  0  0  0  0  0
   -3.0437    2.3654    2.7564 H   0  0  0  0  0  0  0  0  0  0  0  0
   -4.1138    3.0069    1.4993 H   0  0  0  0  0  0  0  0  0  0  0  0
   -4.0227    1.2608    1.7814 H   0  0  0  0  0  0  0  0  0  0  0  0
  1  2  1  0
  1  4  1  0
  1  5  1  0
  1  6  1  0
  2  3  2  0
  7  8  1  0
  7 13  1  0
  7 14  1  0
  7 15  1  0
  8  9  1  0
  8 16  1  0
  9 10  1  0
  9 17  1  0
  9 18  1  0
 10 11  1  0
 11 12  1  0
 11 19  1  0
 11 20  1  0
 12 21  1  0
 12 22  1  0
 12 23  1  0
M  RAD  1   8   2
M  END
>  <reaction>  (16) 
rmg_rxn_588

>  <mol_properties>  (16) 
{"0": {"label": "*1", "atom_type": "Cs"}, "1": {"label": "*0", "atom_type": "N3d"}, "3": {"label": "*2", "atom_type": "H0"}, "7": {"label": "*3", "atom_type": "Cs"}, "8": {"label": "*4", "atom_type": "Cs"}}

>  <type>  (16) 
unop_12

>  <geom_source>  (16) 
Heuristics

$$$$

     RDKit          3D

 23 21  0  0  0  0  0  0  0  0999 V2000
    1.6969   -0.3978   -0.0542 O   0  0  0  0  0  0  0  0  0  0  0  0
   -3.0865    1.4556   -0.4983 O   0  0  0  0  0  1  0  0  0  0  0  0
   -2.3366    1.7558    0.3797 N   0  0  0  0  0  0  0  0  0  0  0  0
   -0.5487   -1.2709    0.0764 C   0  0  0  0  0  0  0  0  0  0  0  0
    0.7017   -1.0877   -0.7870 C   0  0  0  0  0  0  0  0  0  0  0  0
    1.7134    0.9704   -0.4044 C   0  0  0  0  0  0  0  0  0  0  0  0
   -1.6156   -2.0787   -0.6549 C   0  0  0  0  0  0  0  0  0  0  0  0
    2.6900    1.7060    0.4999 C   0  0  0  0  0  0  0  0  0  0  0  0
   -1.7447    0.7378    1.2038 C   0  0  0  0  0  0  0  0  0  0  0  0
   -0.2752   -1.7962    1.0172 H   0  0  0  0  0  0  0  0  0  0  0  0
   -1.0559   -0.0798    0.3919 H   0  0  0  0  0  0  0  0  0  0  0  0
    0.4344   -0.5974   -1.7541 H   0  0  0  0  0  0  0  0  0  0  0  0
    1.1060   -2.0903   -1.0434 H   0  0  0  0  0  0  0  0  0  0  0  0
    0.7073    1.4311   -0.2791 H   0  0  0  0  0  0  0  0  0  0  0  0
    2.0499    1.0949   -1.4585 H   0  0  0  0  0  0  0  0  0  0  0  0
   -1.9216   -1.5560   -1.5858 H   0  0  0  0  0  0  0  0  0  0  0  0
   -2.5062   -2.1901   -0.0017 H   0  0  0  0  0  0  0  0  0  0  0  0
   -1.2303   -3.0893   -0.9085 H   0  0  0  0  0  0  0  0  0  0  0  0
    2.3729    1.6085    1.5599 H   0  0  0  0  0  0  0  0  0  0  0  0
    3.7097    1.2814    0.3837 H   0  0  0  0  0  0  0  0  0  0  0  0
    2.7151    2.7827    0.2289 H   0  0  0  0  0  0  0  0  0  0  0  0
   -2.5371    0.2028    1.7687 H   0  0  0  0  0  0  0  0  0  0  0  0
   -1.0389    1.2069    1.9197 H   0  0  0  0  0  0  0  0  0  0  0  0
  1  6  1  0
  1  5  1  0
  2  3  1  0
  3  9  2  3
  4  7  1  0
  4  5  1  0
  4 10  1  0
  4 11  1  0
  5 12  1  0
  5 13  1  0
  6  8  1  0
  6 14  1  0
  6 15  1  0
  7 16  1  0
  7 17  1  0
  7 18  1  0
  8 19  1  0
  8 20  1  0
  8 21  1  0
  9 22  1  0
  9 23  1  0
M  RAD  1   2   2
M  END
>  <reaction>  (17) 
rmg_rxn_588

>  <mol_properties>  (17) 
{"0": {"label": "*1", "atom_type": "Cs"}, "1": {"label": "*0", "atom_type": "N3d"}, "3": {"label": "*2", "atom_type": "H0"}, "7": {"label": "*3", "atom_type": "Cs"}, "8": {"label": "*4", "atom_type": "Cs"}}

>  <type>  (17) 
unop_13

>  <geom_source>  (17) 
AutoTST

$$$$

     RDKit          3D

 23 21  0  0  0  0  0  0  0  0999 V2000
    2.6105   -0.2557   -1.0797 C   0  0  0  0  0  0  0  0  0  0  0  0
    2.6105   -1.6014   -1.6765 N   0  0  0  0  0  0  0  0  0  0  0  0
    2.6105   -1.6014   -2.8696 O   0  0  0  0  0  0  0  0  0  0  0  0
    1.5545   -0.1843   -0.3071 H   0  0  0  0  0  0  0  0  0  0  0  0
    2.6105    0.5248   -1.8415 H   0  0  0  0  0  0  0  0  0  0  0  0
    3.4905   -0.1962   -0.4359 H   0  0  0  0  0  0  0  0  0  0  0  0
    0.1596   -1.4902    1.0216 C   0  0  0  0  0  0  0  0  0  0  0  0
    0.4970   -0.1128    0.4666 C   0  0  0  0  0  3  0  0  0  0  0  0
   -0.7264    0.6761    0.0468 C   0  0  0  0  0  0  0  0  0  0  0  0
   -1.5318    0.9204    1.1723 O   0  0  0  0  0  0  0  0  0  0  0  0
   -2.7123    1.6195    0.8702 C   0  0  0  0  0  0  0  0  0  0  0  0
   -3.4995    1.8268    2.1433 C   0  0  0  0  0  0  0  0  0  0  0  0
   -0.3687   -2.0914    0.2774 H   0  0  0  0  0  0  0  0  0  0  0  0
    1.0632   -2.0304    1.3078 H   0  0  0  0  0  0  0  0  0  0  0  0
   -0.4803   -1.4064    1.9000 H   0  0  0  0  0  0  0  0  0  0  0  0
    1.0456    0.4682    1.2124 H   0  0  0  0  0  0  0  0  0  0  0  0
   -1.2982    0.1135   -0.7082 H   0  0  0  0  0  0  0  0  0  0  0  0
   -0.4262    1.6289   -0.4136 H   0  0  0  0  0  0  0  0  0  0  0  0
   -3.3067    1.0526    0.1386 H   0  0  0  0  0  0  0  0  0  0  0  0
   -2.4674    2.5872    0.4078 H   0  0  0  0  0  0  0  0  0  0  0  0
   -2.9161    2.4008    2.8641 H   0  0  0  0  0  0  0  0  0  0  0  0
   -4.4224    2.3695    1.9331 H   0  0  0  0  0  0  0  0  0  0  0  0
   -3.7562    0.8676    2.5943 H   0  0  0  0  0  0  0  0  0  0  0  0
  1  2  1  0
  1  4  1  0
  1  5  1  0
  1  6  1  0
  2  3  2  0
  7  8  1  0
  7 13  1  0
  7 14  1  0
  7 15  1  0
  8  9  1  0
  8 16  1  0
  9 10  1  0
  9 17  1  0
  9 18  1  0
 10 11  1  0
 11 12  1  0
 11 19  1  0
 11 20  1  0
 12 21  1  0
 12 22  1  0
 12 23  1  0
M  RAD  1   8   2
M  END
>  <reaction>  (18) 
rmg_rxn_588

>  <mol_properties>  (18) 
{"0": {"label": "*1", "atom_type": "Cs"}, "1": {"label": "*0", "atom_type": "N3d"}, "3": {"label": "*2", "atom_type": "H0"}, "7": {"label": "*3", "atom_type": "Cs"}, "8": {"label": "*4", "atom_type": "Cs"}}

>  <type>  (18) 
unop_14

>  <geom_source>  (18) 
gaussian_log

$$$$
