
     RDKit          3D

 18 17  0  0  0  0  0  0  0  0999 V2000
    2.2026   -0.7213   -0.2612 C   0  0  0  0  0  0  0  0  0  0  0  0
    1.5384    0.2638    0.6915 C   0  0  0  0  0  0  0  0  0  0  0  0
    2.2584    1.5946    0.7694 C   0  0  0  0  0  0  0  0  0  0  0  0
    2.2212    2.2185   -0.4893 O   0  0  0  0  0  0  0  0  0  0  0  0
    2.8988    3.4488   -0.5204 C   0  0  0  0  0  0  0  0  0  0  0  0
    2.7981    4.0296   -1.9118 C   0  0  0  0  0  0  0  0  0  0  0  0
    3.2294   -0.9309    0.0486 H   0  0  0  0  0  0  0  0  0  0  0  0
    2.2338   -0.3181   -1.2734 H   0  0  0  0  0  0  0  0  0  0  0  0
    1.6610   -1.6680   -0.2875 H   0  0  0  0  0  0  0  0  0  0  0  0
    1.4990   -0.1566    1.7002 H   0  0  0  0  0  0  0  0  0  0  0  0
    0.5055    0.4455    0.3835 H   0  0  0  0  0  0  0  0  0  0  0  0
    3.3038    1.4410    1.0808 H   0  0  0  0  0  0  0  0  0  0  0  0
    1.7844    2.2410    1.5226 H   0  0  0  0  0  0  0  0  0  0  0  0
    2.4596    4.1376    0.2164 H   0  0  0  0  0  0  0  0  0  0  0  0
    3.9524    3.3035   -0.2397 H   0  0  0  0  0  0  0  0  0  0  0  0
    1.7543    4.1869   -2.1856 H   0  0  0  0  0  0  0  0  0  0  0  0
    3.2472    3.3545   -2.6411 H   0  0  0  0  0  0  0  0  0  0  0  0
    3.3178    4.9878   -1.9600 H   0  0  0  0  0  0  0  0  0  0  0  0
  1  2  1  0
  1  7  1  0
  1  8  1  0
  1  9  1  0
  2  3  1  0
  2 10  1  0
  2 11  1  0
  3  4  1  0
  3 12  1  0
  3 13  1  0
  4  5  1  0
  5  6  1  0
  5 14  1  0
  5 15  1  0
  6 16  1  0
  6 17  1  0
  6 18  1  0
M  END
>  <reaction>  (1) 
rmg_rxn_207

>  <mol_properties>  (1) 
{"1": {"label": "donator", "atom_type": "Cs"}, "9": {"label": "d_hydrogen", "atom_type": "H0"}}

>  <type>  (1) 
r1h

$$$$

     RDKit          3D

  9  8  0  0  0  0  0  0  0  0999 V2000
    1.3246   -0.8124   -0.0809 C   0  0  0  0  0  2  0  0  0  0  0  0
    0.4082    0.3080    0.1518 C   0  0  0  0  0  0  0  0  0  0  0  0
   -1.0545   -0.0277   -0.1520 C   0  0  0  0  0  0  0  0  0  0  0  0
    2.3933   -0.9471    0.0203 H   0  0  0  0  0  0  0  0  0  0  0  0
    0.4898    0.6406    1.1970 H   0  0  0  0  0  0  0  0  0  0  0  0
    0.7134    1.1680   -0.4624 H   0  0  0  0  0  0  0  0  0  0  0  0
   -1.4014   -0.8515    0.4727 H   0  0  0  0  0  0  0  0  0  0  0  0
   -1.1767   -0.3214   -1.1952 H   0  0  0  0  0  0  0  0  0  0  0  0
   -1.6915    0.8372    0.0370 H   0  0  0  0  0  0  0  0  0  0  0  0
  1  2  1  0
  1  4  1  0
  2  3  1  0
  2  5  1  0
  2  6  1  0
  3  7  1  0
  3  8  1  0
  3  9  1  0
M  RAD  1   1   3
M  END
>  <reaction>  (2) 
rmg_rxn_207

>  <mol_properties>  (2) 
{"0": {"label": "acceptor", "atom_type": "Cs"}}

>  <type>  (2) 
r2

$$$$

     RDKit          3D

 10  9  0  0  0  0  0  0  0  0999 V2000
    1.4352    0.2660   -0.1351 C   0  0  0  0  0  3  0  0  0  0  0  0
    0.2236   -0.3243    0.4850 C   0  0  0  0  0  0  0  0  0  0  0  0
   -0.8893    0.6872    0.7364 C   0  0  0  0  0  0  0  0  0  0  0  0
    2.3577   -0.2958   -0.1940 H   0  0  0  0  0  0  0  0  0  0  0  0
    1.3935    1.2286   -0.6287 H   0  0  0  0  0  0  0  0  0  0  0  0
   -0.1633   -1.1318   -0.1556 H   0  0  0  0  0  0  0  0  0  0  0  0
    0.4945   -0.8215    1.4240 H   0  0  0  0  0  0  0  0  0  0  0  0
   -1.1991    1.1627   -0.1967 H   0  0  0  0  0  0  0  0  0  0  0  0
   -1.7660    0.2103    1.1768 H   0  0  0  0  0  0  0  0  0  0  0  0
   -0.5545    1.4732    1.4159 H   0  0  0  0  0  0  0  0  0  0  0  0
  1  2  1  0
  1  4  1  0
  1  5  1  0
  2  3  1  0
  2  6  1  0
  2  7  1  0
  3  8  1  0
  3  9  1  0
  3 10  1  0
M  RAD  1   1   2
M  END
>  <reaction>  (3) 
rmg_rxn_207

>  <mol_properties>  (3) 
{"0": {"label": "acceptor", "atom_type": "Cs"}, "9": {"label": "a_hydrogen", "atom_type": "H0"}}

>  <type>  (3) 
r2h

$$$$

     RDKit          3D

 27 25  0  0  0  0  0  0  0  0999 V2000
    2.1998   -1.9023   -0.4938 C   0  0  0  0  0  2  0  0  0  0  0  0
    2.3027   -2.8412    0.6428 C   0  0  0  0  0  0  0  0  0  0  0  0
    0.9992   -3.0133    1.4200 C   0  0  0  0  0  0  0  0  0  0  0  0
    2.9974   -1.6900   -1.1973 H   0  0  0  0  0  0  0  0  0  0  0  0
    2.6401   -3.8225    0.2801 H   0  0  0  0  0  0  0  0  0  0  0  0
    3.0911   -2.5021    1.3306 H   0  0  0  0  0  0  0  0  0  0  0  0
    0.2091   -3.3977    0.7730 H   0  0  0  0  0  0  0  0  0  0  0  0
    0.6605   -2.0591    1.8281 H   0  0  0  0  0  0  0  0  0  0  0  0
    1.1278   -3.7092    2.2498 H   0  0  0  0  0  0  0  0  0  0  0  0
   -0.1240   -0.2248   -2.3664 C   0  0  0  0  0  0  0  0  0  0  0  0
   -0.0737   -0.5594   -0.8979 C   0  0  0  0  0  0  0  0  0  0  0  0
    0.0384    0.6122    0.0368 C   0  0  0  0  0  0  0  0  0  0  0  0
   -1.1358    1.3882   -0.0350 O   0  0  0  0  0  0  0  0  0  0  0  0
   -1.1018    2.5193    0.7992 C   0  0  0  0  0  0  0  0  0  0  0  0
   -2.3983    3.2802    0.6463 C   0  0  0  0  0  0  0  0  0  0  0  0
    0.7371    0.3821   -2.6574 H   0  0  0  0  0  0  0  0  0  0  0  0
   -1.0261    0.3452   -2.6028 H   0  0  0  0  0  0  0  0  0  0  0  0
   -0.1240   -1.1288   -2.9772 H   0  0  0  0  0  0  0  0  0  0  0  0
    1.0149   -1.2246   -0.7029 H   0  0  0  0  0  0  0  0  0  0  0  0
   -0.8552   -1.2538   -0.5870 H   0  0  0  0  0  0  0  0  0  0  0  0
    0.9110    1.2262   -0.2351 H   0  0  0  0  0  0  0  0  0  0  0  0
    0.1942    0.2627    1.0680 H   0  0  0  0  0  0  0  0  0  0  0  0
   -0.9584    2.2095    1.8450 H   0  0  0  0  0  0  0  0  0  0  0  0
   -0.2470    3.1573    0.5304 H   0  0  0  0  0  0  0  0  0  0  0  0
   -3.2450    2.6523    0.9258 H   0  0  0  0  0  0  0  0  0  0  0  0
   -2.5338    3.6004   -0.3873 H   0  0  0  0  0  0  0  0  0  0  0  0
   -2.3957    4.1642    1.2860 H   0  0  0  0  0  0  0  0  0  0  0  0
  1  2  1  0
  1  4  1  0
  2  3  1  0
  2  5  1  0
  2  6  1  0
  3  7  1  0
  3  8  1  0
  3  9  1  0
 10 11  1  0
 10 16  1  0
 10 17  1  0
 10 18  1  0
 11 12  1  0
 11 19  1  0
 11 20  1  0
 12 13  1  0
 12 21  1  0
 12 22  1  0
 13 14  1  0
 14 15  1  0
 14 23  1  0
 14 24  1  0
 15 25  1  0
 15 26  1  0
 15 27  1  0
M  RAD  1   1   3
M  END
>  <reaction>  (4) 
rmg_rxn_207

>  <mol_properties>  (4) 
{"0": {"label": "*3", "atom_type": "Cs"}, "1": {"label": "*4", "atom_type": "Cs"}, "10": {"label": "*1", "atom_type": "Cs"}, "11": {"label": "*0", "atom_type": "Cs"}, "18": {"label": "*2", "atom_type": "H0"}}

>  <type>  (4) 
ts

$$$$

     RDKit          3D

 27 25  0  0  0  0  0  0  0  0999 V2000
    1.6940   -2.1286    0.2592 C   0  0  0  0  0  3  0  0  0  0  0  0
    2.6845   -1.4351    1.1189 C   0  0  0  0  0  0  0  0  0  0  0  0
    3.3249   -2.3398    2.1659 C   0  0  0  0  0  0  0  0  0  0  0  0
    1.2635   -3.0751    0.5604 H   0  0  0  0  0  0  0  0  0  0  0  0
    3.4619   -0.9806    0.4934 H   0  0  0  0  0  0  0  0  0  0  0  0
    2.2028   -0.5848    1.6256 H   0  0  0  0  0  0  0  0  0  0  0  0
    3.8608   -3.1645    1.6923 H   0  0  0  0  0  0  0  0  0  0  0  0
    2.5661   -2.7692    2.8237 H   0  0  0  0  0  0  0  0  0  0  0  0
    4.0330   -1.7884    2.7861 H   0  0  0  0  0  0  0  0  0  0  0  0
   -0.4102   -0.8719   -2.1619 C   0  0  0  0  0  0  0  0  0  0  0  0
   -0.4102   -0.8719   -0.6390 C   0  0  0  0  0  3  0  0  0  0  0  0
   -0.4102    0.5212   -0.0435 C   0  0  0  0  0  0  0  0  0  0  0  0
   -1.5932    1.1848   -0.4111 O   0  0  0  0  0  0  0  0  0  0  0  0
   -1.6639    2.5028    0.0698 C   0  0  0  0  0  0  0  0  0  0  0  0
   -2.9673    3.1206   -0.3810 C   0  0  0  0  0  0  0  0  0  0  0  0
    0.4718   -0.3576   -2.5515 H   0  0  0  0  0  0  0  0  0  0  0  0
   -1.2930   -0.3622   -2.5480 H   0  0  0  0  0  0  0  0  0  0  0  0
   -0.4048   -1.8897   -2.5546 H   0  0  0  0  0  0  0  0  0  0  0  0
    0.6476   -1.5036   -0.1875 H   0  0  0  0  0  0  0  0  0  0  0  0
   -1.2846   -1.4099   -0.2637 H   0  0  0  0  0  0  0  0  0  0  0  0
    0.4640    1.0863   -0.4039 H   0  0  0  0  0  0  0  0  0  0  0  0
   -0.3354    0.4673    1.0525 H   0  0  0  0  0  0  0  0  0  0  0  0
   -1.5967    2.5057    1.1679 H   0  0  0  0  0  0  0  0  0  0  0  0
   -0.8111    3.0858   -0.3081 H   0  0  0  0  0  0  0  0  0  0  0  0
   -3.8136    2.5512    0.0046 H   0  0  0  0  0  0  0  0  0  0  0  0
   -3.0281    3.1325   -1.4699 H   0  0  0  0  0  0  0  0  0  0  0  0
   -3.0449    4.1466   -0.0180 H   0  0  0  0  0  0  0  0  0  0  0  0
  1  2  1  0
  1  4  1  0
  1 19  1  0
  2  3  1  0
  2  5  1  0
  2  6  1  0
  3  7  1  0
  3  8  1  0
  3  9  1  0
 10 11  1  0
 10 16  1  0
 10 17  1  0
 10 18  1  0
 11 12  1  0
 11 20  1  0
 12 13  1  0
 12 21  1  0
 12 22  1  0
 13 14  1  0
 14 15  1  0
 14 23  1  0
 14 24  1  0
 15 25  1  0
 15 26  1  0
 15 27  1  0
M  RAD  2   1   2  11   2
M  END
>  <reaction>  (5) 
rmg_rxn_207

>  <mol_properties>  (5) 
{"0": {"label": "*3", "atom_type": "Cs"}, "1": {"label": "*4", "atom_type": "Cs"}, "10": {"label": "*1", "atom_type": "Cs"}, "11": {"label": "*0", "atom_type": "Cs"}, "18": {"label": "*2", "atom_type": "H0"}}

>  <type>  (5) 
unop_1

>  <geom_source>  (5) 
Heuristics

$$$$

     RDKit          3D

 27 25  0  0  0  0  0  0  0  0999 V2000
    1.5673   -2.0016    0.6636 C   0  0  0  0  0  3  0  0  0  0  0  0
    2.8327   -2.0155   -0.1106 C   0  0  0  0  0  0  0  0  0  0  0  0
    3.9953   -2.6675    0.6297 C   0  0  0  0  0  0  0  0  0  0  0  0
    1.5704   -2.1530    1.7355 H   0  0  0  0  0  0  0  0  0  0  0  0
    2.6724   -2.5201   -1.0708 H   0  0  0  0  0  0  0  0  0  0  0  0
    3.1118   -0.9855   -0.3810 H   0  0  0  0  0  0  0  0  0  0  0  0
    3.7724   -3.7103    0.8630 H   0  0  0  0  0  0  0  0  0  0  0  0
    4.1944   -2.1504    1.5709 H   0  0  0  0  0  0  0  0  0  0  0  0
    4.9086   -2.6422    0.0336 H   0  0  0  0  0  0  0  0  0  0  0  0
   -0.5370   -0.7449   -1.7575 C   0  0  0  0  0  0  0  0  0  0  0  0
   -0.5370   -0.7449   -0.2346 C   0  0  0  0  0  3  0  0  0  0  0  0
   -0.5370    0.6482    0.3609 C   0  0  0  0  0  0  0  0  0  0  0  0
   -1.7200    1.3117   -0.0067 O   0  0  0  0  0  0  0  0  0  0  0  0
   -1.7907    2.6298    0.4742 C   0  0  0  0  0  0  0  0  0  0  0  0
   -3.0940    3.2476    0.0234 C   0  0  0  0  0  0  0  0  0  0  0  0
    0.3451   -0.2306   -2.1472 H   0  0  0  0  0  0  0  0  0  0  0  0
   -1.4197   -0.2352   -2.1436 H   0  0  0  0  0  0  0  0  0  0  0  0
   -0.5315   -1.7628   -2.1502 H   0  0  0  0  0  0  0  0  0  0  0  0
    0.5208   -1.3767    0.2169 H   0  0  0  0  0  0  0  0  0  0  0  0
   -1.4114   -1.2829    0.1406 H   0  0  0  0  0  0  0  0  0  0  0  0
    0.3372    1.2132    0.0005 H   0  0  0  0  0  0  0  0  0  0  0  0
   -0.4622    0.5942    1.4569 H   0  0  0  0  0  0  0  0  0  0  0  0
   -1.7235    2.6327    1.5723 H   0  0  0  0  0  0  0  0  0  0  0  0
   -0.9378    3.2128    0.0963 H   0  0  0  0  0  0  0  0  0  0  0  0
   -3.9404    2.6782    0.4090 H   0  0  0  0  0  0  0  0  0  0  0  0
   -3.1548    3.2594   -1.0655 H   0  0  0  0  0  0  0  0  0  0  0  0
   -3.1716    4.2736    0.3864 H   0  0  0  0  0  0  0  0  0  0  0  0
  1  2  1  0
  1  4  1  0
  1 19  1  0
  2  3  1  0
  2  5  1  0
  2  6  1  0
  3  7  1  0
  3  8  1  0
  3  9  1  0
 10 11  1  0
 10 16  1  0
 10 17  1  0
 10 18  1  0
 11 12  1  0
 11 20  1  0
 12 13  1  0
 12 21  1  0
 12 22  1  0
 13 14  1  0
 14 15  1  0
 14 23  1  0
 14 24  1  0
 15 25  1  0
 15 26  1  0
 15 27  1  0
M  RAD  2   1   2  11   2
M  END
>  <reaction>  (6) 
rmg_rxn_207

>  <mol_properties>  (6) 
{"0": {"label": "*3", "atom_type": "Cs"}, "1": {"label": "*4", "atom_type": "Cs"}, "10": {"label": "*1", "atom_type": "Cs"}, "11": {"label": "*0", "atom_type": "Cs"}, "18": {"label": "*2", "atom_type": "H0"}}

>  <type>  (6) 
unop_2

>  <geom_source>  (6) 
Heuristics

$$$$

     RDKit          3D

 27 25  0  0  0  0  0  0  0  0999 V2000
    1.7624   -2.0284    0.2079 C   0  0  0  0  0  3  0  0  0  0  0  0
    2.3760   -1.6530    1.5053 C   0  0  0  0  0  0  0  0  0  0  0  0
    3.1541   -2.7866    2.1645 C   0  0  0  0  0  0  0  0  0  0  0  0
    1.6289   -3.0680   -0.0632 H   0  0  0  0  0  0  0  0  0  0  0  0
    3.0297   -0.7837    1.3666 H   0  0  0  0  0  0  0  0  0  0  0  0
    1.5936   -1.3050    2.1972 H   0  0  0  0  0  0  0  0  0  0  0  0
    3.9755   -3.1174    1.5262 H   0  0  0  0  0  0  0  0  0  0  0  0
    2.5062   -3.6467    2.3468 H   0  0  0  0  0  0  0  0  0  0  0  0
    3.5742   -2.4745    3.1216 H   0  0  0  0  0  0  0  0  0  0  0  0
   -0.3419   -0.7717   -2.2133 C   0  0  0  0  0  0  0  0  0  0  0  0
   -0.3419   -0.7717   -0.6904 C   0  0  0  0  0  3  0  0  0  0  0  0
   -0.3419    0.6213   -0.0948 C   0  0  0  0  0  0  0  0  0  0  0  0
   -1.5249    1.2849   -0.4624 O   0  0  0  0  0  0  0  0  0  0  0  0
   -1.5956    2.6030    0.0185 C   0  0  0  0  0  0  0  0  0  0  0  0
   -2.8989    3.2208   -0.4324 C   0  0  0  0  0  0  0  0  0  0  0  0
    0.5402   -0.2574   -2.6029 H   0  0  0  0  0  0  0  0  0  0  0  0
   -1.2246   -0.2620   -2.5993 H   0  0  0  0  0  0  0  0  0  0  0  0
   -0.3364   -1.7896   -2.6059 H   0  0  0  0  0  0  0  0  0  0  0  0
    0.7159   -1.4035   -0.2388 H   0  0  0  0  0  0  0  0  0  0  0  0
   -1.2163   -1.3097   -0.3151 H   0  0  0  0  0  0  0  0  0  0  0  0
    0.5323    1.1864   -0.4552 H   0  0  0  0  0  0  0  0  0  0  0  0
   -0.2671    0.5674    1.0012 H   0  0  0  0  0  0  0  0  0  0  0  0
   -1.5284    2.6058    1.1165 H   0  0  0  0  0  0  0  0  0  0  0  0
   -0.7427    3.1860   -0.3594 H   0  0  0  0  0  0  0  0  0  0  0  0
   -3.7453    2.6514   -0.0467 H   0  0  0  0  0  0  0  0  0  0  0  0
   -2.9597    3.2326   -1.5212 H   0  0  0  0  0  0  0  0  0  0  0  0
   -2.9765    4.2468   -0.0693 H   0  0  0  0  0  0  0  0  0  0  0  0
  1  2  1  0
  1  4  1  0
  1 19  1  0
  2  3  1  0
  2  5  1  0
  2  6  1  0
  3  7  1  0
  3  8  1  0
  3  9  1  0
 10 11  1  0
 10 16  1  0
 10 17  1  0
 10 18  1  0
 11 12  1  0
 11 20  1  0
 12 13  1  0
 12 21  1  0
 12 22  1  0
 13 14  1  0
 14 15  1  0
 14 23  1  0
 14 24  1  0
 15 25  1  0
 15 26  1  0
 15 27  1  0
M  RAD  2   1   2  11   2
M  END
>  <reaction>  (7) 
rmg_rxn_207

>  <mol_properties>  (7) 
{"0": {"label": "*3", "atom_type": "Cs"}, "1": {"label": "*4", "atom_type": "Cs"}, "10": {"label": "*1", "atom_type": "Cs"}, "11": {"label": "*0", "atom_type": "Cs"}, "18": {"label": "*2", "atom_type": "H0"}}

>  <type>  (7) 
unop_3

>  <geom_source>  (7) 
Heuristics

$$$$

     RDKit          3D

 27 25  0  0  0  0  0  0  0  0999 V2000
    1.8825   -1.6601    0.5128 C   0  0  0  0  0  3  0  0  0  0  0  0
    2.1179   -3.0857    0.1764 C   0  0  0  0  0  0  0  0  0  0  0  0
    2.5681   -3.9281    1.3650 C   0  0  0  0  0  0  0  0  0  0  0  0
    2.2900   -1.2286    1.4182 H   0  0  0  0  0  0  0  0  0  0  0  0
    1.2101   -3.5160   -0.2628 H   0  0  0  0  0  0  0  0  0  0  0  0
    2.8735   -3.1573   -0.6210 H   0  0  0  0  0  0  0  0  0  0  0  0
    1.8127   -3.9244    2.1530 H   0  0  0  0  0  0  0  0  0  0  0  0
    3.4948   -3.5358    1.7894 H   0  0  0  0  0  0  0  0  0  0  0  0
    2.7458   -4.9638    1.0719 H   0  0  0  0  0  0  0  0  0  0  0  0
   -0.2218   -0.4034   -1.9083 C   0  0  0  0  0  0  0  0  0  0  0  0
   -0.2218   -0.4034   -0.3854 C   0  0  0  0  0  3  0  0  0  0  0  0
   -0.2218    0.9897    0.2101 C   0  0  0  0  0  0  0  0  0  0  0  0
   -1.4048    1.6533   -0.1574 O   0  0  0  0  0  0  0  0  0  0  0  0
   -1.4755    2.9713    0.3234 C   0  0  0  0  0  0  0  0  0  0  0  0
   -2.7788    3.5891   -0.1274 C   0  0  0  0  0  0  0  0  0  0  0  0
    0.6603    0.1109   -2.2979 H   0  0  0  0  0  0  0  0  0  0  0  0
   -1.1045    0.1063   -2.2943 H   0  0  0  0  0  0  0  0  0  0  0  0
   -0.2163   -1.4213   -2.3009 H   0  0  0  0  0  0  0  0  0  0  0  0
    0.8361   -1.0351    0.0662 H   0  0  0  0  0  0  0  0  0  0  0  0
   -1.0961   -0.9414   -0.0101 H   0  0  0  0  0  0  0  0  0  0  0  0
    0.6524    1.5548   -0.1502 H   0  0  0  0  0  0  0  0  0  0  0  0
   -0.1470    0.9358    1.3062 H   0  0  0  0  0  0  0  0  0  0  0  0
   -1.4082    2.9742    1.4215 H   0  0  0  0  0  0  0  0  0  0  0  0
   -0.6226    3.5543   -0.0544 H   0  0  0  0  0  0  0  0  0  0  0  0
   -3.6252    3.0197    0.2583 H   0  0  0  0  0  0  0  0  0  0  0  0
   -2.8396    3.6010   -1.2162 H   0  0  0  0  0  0  0  0  0  0  0  0
   -2.8564    4.6151    0.2357 H   0  0  0  0  0  0  0  0  0  0  0  0
  1  2  1  0
  1  4  1  0
  1 19  1  0
  2  3  1  0
  2  5  1  0
  2  6  1  0
  3  7  1  0
  3  8  1  0
  3  9  1  0
 10 11  1  0
 10 16  1  0
 10 17  1  0
 10 18  1  0
 11 12  1  0
 11 20  1  0
 12 13  1  0
 12 21  1  0
 12 22  1  0
 13 14  1  0
 14 15  1  0
 14 23  1  0
 14 24  1  0
 15 25  1  0
 15 26  1  0
 15 27  1  0
M  RAD  2   1   2  11   2
M  END
>  <reaction>  (8) 
rmg_rxn_207

>  <mol_properties>  (8) 
{"0": {"label": "*3", "atom_type": "Cs"}, "1": {"label": "*4", "atom_type": "Cs"}, "10": {"label": "*1", "atom_type": "Cs"}, "11": {"label": "*0", "atom_type": "Cs"}, "18": {"label": "*2", "atom_type": "H0"}}

>  <type>  (8) 
unop_4

>  <geom_source>  (8) 
Heuristics

$$$$

     RDKit          3D

 27 25  0  0  0  0  0  0  0  0999 V2000
    1.7716   -1.9863    0.2106 C   0  0  0  0  0  3  0  0  0  0  0  0
    2.0083   -2.1276    1.6683 C   0  0  0  0  0  0  0  0  0  0  0  0
    3.4043   -2.6333    2.0150 C   0  0  0  0  0  0  0  0  0  0  0  0
    2.4107   -2.4854   -0.5066 H   0  0  0  0  0  0  0  0  0  0  0  0
    1.8251   -1.1682    2.1666 H   0  0  0  0  0  0  0  0  0  0  0  0
    1.2613   -2.8119    2.0993 H   0  0  0  0  0  0  0  0  0  0  0  0
    4.1692   -1.9453    1.6500 H   0  0  0  0  0  0  0  0  0  0  0  0
    3.5878   -3.6085    1.5588 H   0  0  0  0  0  0  0  0  0  0  0  0
    3.5311   -2.7386    3.0934 H   0  0  0  0  0  0  0  0  0  0  0  0
   -0.3326   -0.7296   -2.2105 C   0  0  0  0  0  0  0  0  0  0  0  0
   -0.3326   -0.7296   -0.6876 C   0  0  0  0  0  3  0  0  0  0  0  0
   -0.3326    0.6635   -0.0921 C   0  0  0  0  0  0  0  0  0  0  0  0
   -1.5156    1.3271   -0.4597 O   0  0  0  0  0  0  0  0  0  0  0  0
   -1.5863    2.6452    0.0212 C   0  0  0  0  0  0  0  0  0  0  0  0
   -2.8896    3.2629   -0.4296 C   0  0  0  0  0  0  0  0  0  0  0  0
    0.5495   -0.2152   -2.6001 H   0  0  0  0  0  0  0  0  0  0  0  0
   -1.2153   -0.2199   -2.5966 H   0  0  0  0  0  0  0  0  0  0  0  0
   -0.3271   -1.7474   -2.6032 H   0  0  0  0  0  0  0  0  0  0  0  0
    0.7252   -1.3613   -0.2361 H   0  0  0  0  0  0  0  0  0  0  0  0
   -1.2070   -1.2675   -0.3123 H   0  0  0  0  0  0  0  0  0  0  0  0
    0.5416    1.2286   -0.4525 H   0  0  0  0  0  0  0  0  0  0  0  0
   -0.2578    0.6096    1.0040 H   0  0  0  0  0  0  0  0  0  0  0  0
   -1.5191    2.6480    1.1193 H   0  0  0  0  0  0  0  0  0  0  0  0
   -0.7335    3.2281   -0.3567 H   0  0  0  0  0  0  0  0  0  0  0  0
   -3.7360    2.6935   -0.0439 H   0  0  0  0  0  0  0  0  0  0  0  0
   -2.9505    3.2748   -1.5184 H   0  0  0  0  0  0  0  0  0  0  0  0
   -2.9673    4.2890   -0.0666 H   0  0  0  0  0  0  0  0  0  0  0  0
  1  2  1  0
  1  4  1  0
  1 19  1  0
  2  3  1  0
  2  5  1  0
  2  6  1  0
  3  7  1  0
  3  8  1  0
  3  9  1  0
 10 11  1  0
 10 16  1  0
 10 17  1  0
 10 18  1  0
 11 12  1  0
 11 20  1  0
 12 13  1  0
 12 21  1  0
 12 22  1  0
 13 14  1  0
 14 15  1  0
 14 23  1  0
 14 24  1  0
 15 25  1  0
 15 26  1  0
 15 27  1  0
M  RAD  2   1   2  11   2
M  END
>  <reaction>  (9) 
rmg_rxn_207

>  <mol_properties>  (9) 
{"0": {"label": "*3", "atom_type": "Cs"}, "1": {"label": "*4", "atom_type": "Cs"}, "10": {"label": "*1", "atom_type": "Cs"}, "11": {"label": "*0", "atom_type": "Cs"}, "18": {"label": "*2", "atom_type": "H0"}}

>  <type>  (9) 
unop_5

>  <geom_source>  (9) 
Heuristics

$$$$

     RDKit          3D

 27 25  0  0  0  0  0  0  0  0999 V2000
    1.9451   -1.7071    0.3524 C   0  0  0  0  0  3  0  0  0  0  0  0
    1.9049   -3.1669    0.6141 C   0  0  0  0  0  0  0  0  0  0  0  0
    2.3494   -3.5482    2.0219 C   0  0  0  0  0  0  0  0  0  0  0  0
    2.5211   -1.0450    0.9864 H   0  0  0  0  0  0  0  0  0  0  0  0
    0.8939   -3.5477    0.4265 H   0  0  0  0  0  0  0  0  0  0  0  0
    2.5395   -3.6910   -0.1170 H   0  0  0  0  0  0  0  0  0  0  0  0
    1.7029   -3.0889    2.7720 H   0  0  0  0  0  0  0  0  0  0  0  0
    3.3709   -3.2111    2.2106 H   0  0  0  0  0  0  0  0  0  0  0  0
    2.3209   -4.6290    2.1672 H   0  0  0  0  0  0  0  0  0  0  0  0
   -0.1591   -0.4504   -2.0687 C   0  0  0  0  0  0  0  0  0  0  0  0
   -0.1591   -0.4504   -0.5458 C   0  0  0  0  0  3  0  0  0  0  0  0
   -0.1591    0.9426    0.0497 C   0  0  0  0  0  0  0  0  0  0  0  0
   -1.3421    1.6062   -0.3178 O   0  0  0  0  0  0  0  0  0  0  0  0
   -1.4129    2.9243    0.1630 C   0  0  0  0  0  0  0  0  0  0  0  0
   -2.7162    3.5421   -0.2878 C   0  0  0  0  0  0  0  0  0  0  0  0
    0.7229    0.0639   -2.4583 H   0  0  0  0  0  0  0  0  0  0  0  0
   -1.0419    0.0593   -2.4547 H   0  0  0  0  0  0  0  0  0  0  0  0
   -0.1537   -1.4683   -2.4613 H   0  0  0  0  0  0  0  0  0  0  0  0
    0.8987   -1.0822   -0.0942 H   0  0  0  0  0  0  0  0  0  0  0  0
   -1.0335   -0.9884   -0.1705 H   0  0  0  0  0  0  0  0  0  0  0  0
    0.7151    1.5077   -0.3106 H   0  0  0  0  0  0  0  0  0  0  0  0
   -0.0844    0.8887    1.1458 H   0  0  0  0  0  0  0  0  0  0  0  0
   -1.3456    2.9272    1.2611 H   0  0  0  0  0  0  0  0  0  0  0  0
   -0.5600    3.5073   -0.2148 H   0  0  0  0  0  0  0  0  0  0  0  0
   -3.5625    2.9727    0.0979 H   0  0  0  0  0  0  0  0  0  0  0  0
   -2.7770    3.5539   -1.3766 H   0  0  0  0  0  0  0  0  0  0  0  0
   -2.7938    4.5681    0.0753 H   0  0  0  0  0  0  0  0  0  0  0  0
  1  2  1  0
  1  4  1  0
  1 19  1  0
  2  3  1  0
  2  5  1  0
  2  6  1  0
  3  7  1  0
  3  8  1  0
  3  9  1  0
 10 11  1  0
 10 16  1  0
 10 17  1  0
 10 18  1  0
 11 12  1  0
 11 20  1  0
 12 13  1  0
 12 21  1  0
 12 22  1  0
 13 14  1  0
 14 15  1  0
 14 23  1  0
 14 24  1  0
 15 25  1  0
 15 26  1  0
 15 27  1  0
M  RAD  2   1   2  11   2
M  END
>  <reaction>  (10) 
rmg_rxn_207

>  <mol_properties>  (10) 
{"0": {"label": "*3", "atom_type": "Cs"}, "1": {"label": "*4", "atom_type": "Cs"}, "10": {"label": "*1", "atom_type": "Cs"}, "11": {"label": "*0", "atom_type": "Cs"}, "18": {"label": "*2", "atom_type": "H0"}}

>  <type>  (10) 
unop_6

>  <geom_source>  (10) 
Heuristics

$$$$

     RDKit          3D

 27 25  0  0  0  0  0  0  0  0999 V2000
    1.9370   -1.8256    0.2256 C   0  0  0  0  0  3  0  0  0  0  0  0
    1.7961   -3.0264    1.0852 C   0  0  0  0  0  0  0  0  0  0  0  0
    2.4983   -2.8995    2.4328 C   0  0  0  0  0  0  0  0  0  0  0  0
    2.7087   -1.0915    0.4192 H   0  0  0  0  0  0  0  0  0  0  0  0
    0.7333   -3.2481    1.2383 H   0  0  0  0  0  0  0  0  0  0  0  0
    2.1906   -3.9078    0.5565 H   0  0  0  0  0  0  0  0  0  0  0  0
    2.0894   -2.0666    3.0078 H   0  0  0  0  0  0  0  0  0  0  0  0
    3.5669   -2.7188    2.2976 H   0  0  0  0  0  0  0  0  0  0  0  0
    2.3845   -3.8080    3.0259 H   0  0  0  0  0  0  0  0  0  0  0  0
   -0.1672   -0.5689   -2.1956 C   0  0  0  0  0  0  0  0  0  0  0  0
   -0.1672   -0.5689   -0.6727 C   0  0  0  0  0  3  0  0  0  0  0  0
   -0.1672    0.8242   -0.0771 C   0  0  0  0  0  0  0  0  0  0  0  0
   -1.3502    1.4878   -0.4447 O   0  0  0  0  0  0  0  0  0  0  0  0
   -1.4209    2.8058    0.0362 C   0  0  0  0  0  0  0  0  0  0  0  0
   -2.7243    3.4236   -0.4147 C   0  0  0  0  0  0  0  0  0  0  0  0
    0.7148   -0.0546   -2.5852 H   0  0  0  0  0  0  0  0  0  0  0  0
   -1.0499   -0.0592   -2.5816 H   0  0  0  0  0  0  0  0  0  0  0  0
   -0.1617   -1.5868   -2.5882 H   0  0  0  0  0  0  0  0  0  0  0  0
    0.8906   -1.2007   -0.2211 H   0  0  0  0  0  0  0  0  0  0  0  0
   -1.0416   -1.1069   -0.2974 H   0  0  0  0  0  0  0  0  0  0  0  0
    0.7070    1.3892   -0.4375 H   0  0  0  0  0  0  0  0  0  0  0  0
   -0.0924    0.7702    1.0189 H   0  0  0  0  0  0  0  0  0  0  0  0
   -1.3537    2.8087    1.1342 H   0  0  0  0  0  0  0  0  0  0  0  0
   -0.5681    3.3888   -0.3417 H   0  0  0  0  0  0  0  0  0  0  0  0
   -3.5706    2.8542   -0.0290 H   0  0  0  0  0  0  0  0  0  0  0  0
   -2.7851    3.4354   -1.5035 H   0  0  0  0  0  0  0  0  0  0  0  0
   -2.8019    4.4496   -0.0516 H   0  0  0  0  0  0  0  0  0  0  0  0
  1  2  1  0
  1  4  1  0
  1 19  1  0
  2  3  1  0
  2  5  1  0
  2  6  1  0
  3  7  1  0
  3  8  1  0
  3  9  1  0
 10 11  1  0
 10 16  1  0
 10 17  1  0
 10 18  1  0
 11 12  1  0
 11 20  1  0
 12 13  1  0
 12 21  1  0
 12 22  1  0
 13 14  1  0
 14 15  1  0
 14 23  1  0
 14 24  1  0
 15 25  1  0
 15 26  1  0
 15 27  1  0
M  RAD  2   1   2  11   2
M  END
>  <reaction>  (11) 
rmg_rxn_207

>  <mol_properties>  (11) 
{"0": {"label": "*3", "atom_type": "Cs"}, "1": {"label": "*4", "atom_type": "Cs"}, "10": {"label": "*1", "atom_type": "Cs"}, "11": {"label": "*0", "atom_type": "Cs"}, "18": {"label": "*2", "atom_type": "H0"}}

>  <type>  (11) 
unop_7

>  <geom_source>  (11) 
Heuristics

$$$$

     RDKit          3D

 27 25  0  0  0  0  0  0  0  0999 V2000
    1.6085   -2.1730    0.3841 C   0  0  0  0  0  3  0  0  0  0  0  0
    2.8746   -1.4454    0.6457 C   0  0  0  0  0  0  0  0  0  0  0  0
    3.7065   -2.0509    1.7710 C   0  0  0  0  0  0  0  0  0  0  0  0
    1.1965   -2.8527    1.1191 H   0  0  0  0  0  0  0  0  0  0  0  0
    3.4699   -1.3982   -0.2739 H   0  0  0  0  0  0  0  0  0  0  0  0
    2.6536   -0.3946    0.8882 H   0  0  0  0  0  0  0  0  0  0  0  0
    3.9914   -3.0779    1.5351 H   0  0  0  0  0  0  0  0  0  0  0  0
    3.1411   -2.0678    2.7052 H   0  0  0  0  0  0  0  0  0  0  0  0
    4.6188   -1.4777    1.9418 H   0  0  0  0  0  0  0  0  0  0  0  0
   -0.4957   -0.9163   -2.0370 C   0  0  0  0  0  0  0  0  0  0  0  0
   -0.4957   -0.9163   -0.5141 C   0  0  0  0  0  3  0  0  0  0  0  0
   -0.4957    0.4767    0.0814 C   0  0  0  0  0  0  0  0  0  0  0  0
   -1.6787    1.1403   -0.2862 O   0  0  0  0  0  0  0  0  0  0  0  0
   -1.7494    2.4584    0.1947 C   0  0  0  0  0  0  0  0  0  0  0  0
   -3.0528    3.0762   -0.2562 C   0  0  0  0  0  0  0  0  0  0  0  0
    0.3863   -0.4020   -2.4267 H   0  0  0  0  0  0  0  0  0  0  0  0
   -1.3785   -0.4066   -2.4231 H   0  0  0  0  0  0  0  0  0  0  0  0
   -0.4903   -1.9342   -2.4297 H   0  0  0  0  0  0  0  0  0  0  0  0
    0.5621   -1.5481   -0.0626 H   0  0  0  0  0  0  0  0  0  0  0  0
   -1.3701   -1.4543   -0.1389 H   0  0  0  0  0  0  0  0  0  0  0  0
    0.3785    1.0418   -0.2790 H   0  0  0  0  0  0  0  0  0  0  0  0
   -0.4209    0.4228    1.1774 H   0  0  0  0  0  0  0  0  0  0  0  0
   -1.6822    2.4613    1.2927 H   0  0  0  0  0  0  0  0  0  0  0  0
   -0.8966    3.0414   -0.1832 H   0  0  0  0  0  0  0  0  0  0  0  0
   -3.8991    2.5068    0.1295 H   0  0  0  0  0  0  0  0  0  0  0  0
   -3.1136    3.0880   -1.3450 H   0  0  0  0  0  0  0  0  0  0  0  0
   -3.1304    4.1022    0.1069 H   0  0  0  0  0  0  0  0  0  0  0  0
  1  2  1  0
  1  4  1  0
  1 19  1  0
  2  3  1  0
  2  5  1  0
  2  6  1  0
  3  7  1  0
  3  8  1  0
  3  9  1  0
 10 11  1  0
 10 16  1  0
 10 17  1  0
 10 18  1  0
 11 12  1  0
 11 20  1  0
 12 13  1  0
 12 21  1  0
 12 22  1  0
 13 14  1  0
 14 15  1  0
 14 23  1  0
 14 24  1  0
 15 25  1  0
 15 26  1  0
 15 27  1  0
M  RAD  2   1   2  11   2
M  END
>  <reaction>  (12) 
rmg_rxn_207

>  <mol_properties>  (12) 
{"0": {"label": "*3", "atom_type": "Cs"}, "1": {"label": "*4", "atom_type": "Cs"}, "10": {"label": "*1", "atom_type": "Cs"}, "11": {"label": "*0", "atom_type": "Cs"}, "18": {"label": "*2", "atom_type": "H0"}}

>  <type>  (12) 
unop_8

>  <geom_source>  (12) 
Heuristics

$$$$

     RDKit          3D

 27 25  0  0  0  0  0  0  0  0999 V2000
    1.7694   -1.7078    0.6491 C   0  0  0  0  0  3  0  0  0  0  0  0
    2.3817   -2.8153   -0.1251 C   0  0  0  0  0  0  0  0  0  0  0  0
    3.0705   -3.8614    0.7445 C   0  0  0  0  0  0  0  0  0  0  0  0
    2.0605   -1.5200    1.6748 H   0  0  0  0  0  0  0  0  0  0  0  0
    1.6189   -3.2943   -0.7504 H   0  0  0  0  0  0  0  0  0  0  0  0
    3.1115   -2.4066   -0.8408 H   0  0  0  0  0  0  0  0  0  0  0  0
    2.3595   -4.3281    1.4288 H   0  0  0  0  0  0  0  0  0  0  0  0
    3.8617   -3.4067    1.3446 H   0  0  0  0  0  0  0  0  0  0  0  0
    3.5207   -4.6476    0.1368 H   0  0  0  0  0  0  0  0  0  0  0  0
   -0.3348   -0.4511   -1.7720 C   0  0  0  0  0  0  0  0  0  0  0  0
   -0.3348   -0.4511   -0.2491 C   0  0  0  0  0  3  0  0  0  0  0  0
   -0.3348    0.9420    0.3464 C   0  0  0  0  0  0  0  0  0  0  0  0
   -1.5178    1.6056   -0.0212 O   0  0  0  0  0  0  0  0  0  0  0  0
   -1.5885    2.9236    0.4597 C   0  0  0  0  0  0  0  0  0  0  0  0
   -2.8919    3.5414    0.0089 C   0  0  0  0  0  0  0  0  0  0  0  0
    0.5472    0.0632   -2.1616 H   0  0  0  0  0  0  0  0  0  0  0  0
   -1.2175    0.0586   -2.1581 H   0  0  0  0  0  0  0  0  0  0  0  0
   -0.3293   -1.4689   -2.1647 H   0  0  0  0  0  0  0  0  0  0  0  0
    0.7230   -1.0828    0.2024 H   0  0  0  0  0  0  0  0  0  0  0  0
   -1.2092   -0.9890    0.1262 H   0  0  0  0  0  0  0  0  0  0  0  0
    0.5394    1.5071   -0.0140 H   0  0  0  0  0  0  0  0  0  0  0  0
   -0.2600    0.8881    1.4425 H   0  0  0  0  0  0  0  0  0  0  0  0
   -1.5213    2.9265    1.5578 H   0  0  0  0  0  0  0  0  0  0  0  0
   -0.7357    3.5066    0.0818 H   0  0  0  0  0  0  0  0  0  0  0  0
   -3.7382    2.9720    0.3946 H   0  0  0  0  0  0  0  0  0  0  0  0
   -2.9527    3.5533   -1.0799 H   0  0  0  0  0  0  0  0  0  0  0  0
   -2.9695    4.5674    0.3719 H   0  0  0  0  0  0  0  0  0  0  0  0
  1  2  1  0
  1  4  1  0
  1 19  1  0
  2  3  1  0
  2  5  1  0
  2  6  1  0
  3  7  1  0
  3  8  1  0
  3  9  1  0
 10 11  1  0
 10 16  1  0
 10 17  1  0
 10 18  1  0
 11 12  1  0
 11 20  1  0
 12 13  1  0
 12 21  1  0
 12 22  1  0
 13 14  1  0
 14 15  1  0
 14 23  1  0
 14 24  1  0
 15 25  1  0
 15 26  1  0
 15 27  1  0
M  RAD  2   1   2  11   2
M  END
>  <reaction>  (13) 
rmg_rxn_207

>  <mol_properties>  (13) 
{"0": {"label": "*3", "atom_type": "Cs"}, "1": {"label": "*4", "atom_type": "Cs"}, "10": {"label": "*1", "atom_type": "Cs"}, "11": {"label": "*0", "atom_type": "Cs"}, "18": {"label": "*2", "atom_type": "H0"}}

>  <type>  (13) 
unop_9

>  <geom_source>  (13) 
Heuristics

$$$$

     RDKit          3D

 27 25  0  0  0  0  0  0  0  0999 V2000
    1.5563   -2.1281    0.5381 C   0  0  0  0  0  3  0  0  0  0  0  0
    2.9231   -1.6594    0.2017 C   0  0  0  0  0  0  0  0  0  0  0  0
    3.9950   -2.1589    1.1643 C   0  0  0  0  0  0  0  0  0  0  0  0
    1.3278   -2.5116    1.5244 H   0  0  0  0  0  0  0  0  0  0  0  0
    3.1739   -1.9583   -0.8229 H   0  0  0  0  0  0  0  0  0  0  0  0
    2.9422   -0.5589    0.1829 H   0  0  0  0  0  0  0  0  0  0  0  0
    4.0409   -3.2495    1.1638 H   0  0  0  0  0  0  0  0  0  0  0  0
    3.7809   -1.8345    2.1850 H   0  0  0  0  0  0  0  0  0  0  0  0
    4.9805   -1.7789    0.8916 H   0  0  0  0  0  0  0  0  0  0  0  0
   -0.5479   -0.8714   -1.8830 C   0  0  0  0  0  0  0  0  0  0  0  0
   -0.5479   -0.8714   -0.3601 C   0  0  0  0  0  3  0  0  0  0  0  0
   -0.5479    0.5216    0.2354 C   0  0  0  0  0  0  0  0  0  0  0  0
   -1.7309    1.1852   -0.1322 O   0  0  0  0  0  0  0  0  0  0  0  0
   -1.8017    2.5033    0.3487 C   0  0  0  0  0  0  0  0  0  0  0  0
   -3.1050    3.1211   -0.1021 C   0  0  0  0  0  0  0  0  0  0  0  0
    0.3341   -0.3571   -2.2726 H   0  0  0  0  0  0  0  0  0  0  0  0
   -1.4307   -0.3617   -2.2691 H   0  0  0  0  0  0  0  0  0  0  0  0
   -0.5425   -1.8893   -2.2757 H   0  0  0  0  0  0  0  0  0  0  0  0
    0.5099   -1.5032    0.0915 H   0  0  0  0  0  0  0  0  0  0  0  0
   -1.4223   -1.4094    0.0152 H   0  0  0  0  0  0  0  0  0  0  0  0
    0.3262    1.0867   -0.1250 H   0  0  0  0  0  0  0  0  0  0  0  0
   -0.4732    0.4677    1.3315 H   0  0  0  0  0  0  0  0  0  0  0  0
   -1.7344    2.5061    1.4468 H   0  0  0  0  0  0  0  0  0  0  0  0
   -0.9488    3.0863   -0.0291 H   0  0  0  0  0  0  0  0  0  0  0  0
   -3.9513    2.5517    0.2836 H   0  0  0  0  0  0  0  0  0  0  0  0
   -3.1658    3.1329   -1.1909 H   0  0  0  0  0  0  0  0  0  0  0  0
   -3.1826    4.1471    0.2610 H   0  0  0  0  0  0  0  0  0  0  0  0
  1  2  1  0
  1  4  1  0
  1 19  1  0
  2  3  1  0
  2  5  1  0
  2  6  1  0
  3  7  1  0
  3  8  1  0
  3  9  1  0
 10 11  1  0
 10 16  1  0
 10 17  1  0
 10 18  1  0
 11 12  1  0
 11 20  1  0
 12 13  1  0
 12 21  1  0
 12 22  1  0
 13 14  1  0
 14 15  1  0
 14 23  1  0
 14 24  1  0
 15 25  1  0
 15 26  1  0
 15 27  1  0
M  RAD  2   1   2  11   2
M  END
>  <reaction>  (14) 
rmg_rxn_207

>  <mol_properties>  (14) 
{"0": {"label": "*3", "atom_type": "Cs"}, "1": {"label": "*4", "atom_type": "Cs"}, "10": {"label": "*1", "atom_type": "Cs"}, "11": {"label": "*0", "atom_type": "Cs"}, "18": {"label": "*2", "atom_type": "H0"}}

>  <type>  (14) 
unop_10

>  <geom_source>  (14) 
Heuristics

$$$$

     RDKit          3D

 27 25  0  0  0  0  0  0  0  0999 V2000
    1.8577   -1.9563    0.1795 C   0  0  0  0  0  3  0  0  0  0  0  0
    1.8181   -2.6745    1.4770 C   0  0  0  0  0  0  0  0  0  0  0  0
    2.9976   -2.3549    2.3890 C   0  0  0  0  0  0  0  0  0  0  0  0
    2.7768   -1.5130   -0.1820 H   0  0  0  0  0  0  0  0  0  0  0  0
    0.8768   -2.4521    1.9934 H   0  0  0  0  0  0  0  0  0  0  0  0
    1.7870   -3.7602    1.2976 H   0  0  0  0  0  0  0  0  0  0  0  0
    3.0238   -1.2913    2.6331 H   0  0  0  0  0  0  0  0  0  0  0  0
    3.9426   -2.6093    1.9041 H   0  0  0  0  0  0  0  0  0  0  0  0
    2.9390   -2.9149    3.3234 H   0  0  0  0  0  0  0  0  0  0  0  0
   -0.2466   -0.6996   -2.2416 C   0  0  0  0  0  0  0  0  0  0  0  0
   -0.2466   -0.6996   -0.7187 C   0  0  0  0  0  3  0  0  0  0  0  0
   -0.2466    0.6935   -0.1231 C   0  0  0  0  0  0  0  0  0  0  0  0
   -1.4296    1.3571   -0.4907 O   0  0  0  0  0  0  0  0  0  0  0  0
   -1.5003    2.6752   -0.0098 C   0  0  0  0  0  0  0  0  0  0  0  0
   -2.8036    3.2930   -0.4607 C   0  0  0  0  0  0  0  0  0  0  0  0
    0.6355   -0.1852   -2.6312 H   0  0  0  0  0  0  0  0  0  0  0  0
   -1.1293   -0.1899   -2.6276 H   0  0  0  0  0  0  0  0  0  0  0  0
   -0.2411   -1.7174   -2.6342 H   0  0  0  0  0  0  0  0  0  0  0  0
    0.8113   -1.3313   -0.2671 H   0  0  0  0  0  0  0  0  0  0  0  0
   -1.1209   -1.2375   -0.3434 H   0  0  0  0  0  0  0  0  0  0  0  0
    0.6276    1.2586   -0.4835 H   0  0  0  0  0  0  0  0  0  0  0  0
   -0.1718    0.6396    0.9729 H   0  0  0  0  0  0  0  0  0  0  0  0
   -1.4330    2.6780    1.0882 H   0  0  0  0  0  0  0  0  0  0  0  0
   -0.6474    3.2581   -0.3877 H   0  0  0  0  0  0  0  0  0  0  0  0
   -3.6500    2.7235   -0.0750 H   0  0  0  0  0  0  0  0  0  0  0  0
   -2.8644    3.3048   -1.5495 H   0  0  0  0  0  0  0  0  0  0  0  0
   -2.8812    4.3190   -0.0976 H   0  0  0  0  0  0  0  0  0  0  0  0
  1  2  1  0
  1  4  1  0
  1 19  1  0
  2  3  1  0
  2  5  1  0
  2  6  1  0
  3  7  1  0
  3  8  1  0
  3  9  1  0
 10 11  1  0
 10 16  1  0
 10 17  1  0
 10 18  1  0
 11 12  1  0
 11 20  1  0
 12 13  1  0
 12 21  1  0
 12 22  1  0
 13 14  1  0
 14 15  1  0
 14 23  1  0
 14 24  1  0
 15 25  1  0
 15 26  1  0
 15 27  1  0
M  RAD  2   1   2  11   2
M  END
>  <reaction>  (15) 
rmg_rxn_207

>  <mol_properties>  (15) 
{"0": {"label": "*3", "atom_type": "Cs"}, "1": {"label": "*4", "atom_type": "Cs"}, "10": {"label": "*1", "atom_type": "Cs"}, "11": {"label": "*0", "atom_type": "Cs"}, "18": {"label": "*2", "atom_type": "H0"}}

>  <type>  (15) 
unop_11

>  <geom_source>  (15) 
Heuristics

$$$$

     RDKit          3D

 27 25  0  0  0  0  0  0  0  0999 V2000
    1.6476   -1.8387    0.7077 C   0  0  0  0  0  3  0  0  0  0  0  0
    2.6368   -2.4295   -0.2268 C   0  0  0  0  0  0  0  0  0  0  0  0
    3.6400   -3.3567    0.4507 C   0  0  0  0  0  0  0  0  0  0  0  0
    1.8286   -1.8294    1.7750 H   0  0  0  0  0  0  0  0  0  0  0  0
    2.1138   -2.9671   -1.0266 H   0  0  0  0  0  0  0  0  0  0  0  0
    3.1833   -1.6255   -0.7434 H   0  0  0  0  0  0  0  0  0  0  0  0
    3.1328   -4.1985    0.9257 H   0  0  0  0  0  0  0  0  0  0  0  0
    4.1988   -2.8248    1.2238 H   0  0  0  0  0  0  0  0  0  0  0  0
    4.3580   -3.7559   -0.2671 H   0  0  0  0  0  0  0  0  0  0  0  0
   -0.4567   -0.5820   -1.7135 C   0  0  0  0  0  0  0  0  0  0  0  0
   -0.4567   -0.5820   -0.1905 C   0  0  0  0  0  3  0  0  0  0  0  0
   -0.4567    0.8110    0.4050 C   0  0  0  0  0  0  0  0  0  0  0  0
   -1.6397    1.4746    0.0374 O   0  0  0  0  0  0  0  0  0  0  0  0
   -1.7104    2.7927    0.5183 C   0  0  0  0  0  0  0  0  0  0  0  0
   -3.0137    3.4105    0.0674 C   0  0  0  0  0  0  0  0  0  0  0  0
    0.4254   -0.0677   -2.1031 H   0  0  0  0  0  0  0  0  0  0  0  0
   -1.3394   -0.0723   -2.0995 H   0  0  0  0  0  0  0  0  0  0  0  0
   -0.4512   -1.5999   -2.1061 H   0  0  0  0  0  0  0  0  0  0  0  0
    0.6012   -1.2138    0.2610 H   0  0  0  0  0  0  0  0  0  0  0  0
   -1.3311   -1.1200    0.1847 H   0  0  0  0  0  0  0  0  0  0  0  0
    0.4175    1.3761    0.0446 H   0  0  0  0  0  0  0  0  0  0  0  0
   -0.3819    0.7571    1.5010 H   0  0  0  0  0  0  0  0  0  0  0  0
   -1.6431    2.7956    1.6163 H   0  0  0  0  0  0  0  0  0  0  0  0
   -0.8575    3.3757    0.1404 H   0  0  0  0  0  0  0  0  0  0  0  0
   -3.8601    2.8411    0.4531 H   0  0  0  0  0  0  0  0  0  0  0  0
   -3.0745    3.4223   -1.0214 H   0  0  0  0  0  0  0  0  0  0  0  0
   -3.0913    4.4365    0.4305 H   0  0  0  0  0  0  0  0  0  0  0  0
  1  2  1  0
  1  4  1  0
  1 19  1  0
  2  3  1  0
  2  5  1  0
  2  6  1  0
  3  7  1  0
  3  8  1  0
  3  9  1  0
 10 11  1  0
 10 16  1  0
 10 17  1  0
 10 18  1  0
 11 12  1  0
 11 20  1  0
 12 13  1  0
 12 21  1  0
 12 22  1  0
 13 14  1  0
 14 15  1  0
 14 23  1  0
 14 24  1  0
 15 25  1  0
 15 26  1  0
 15 27  1  0
M  RAD  2   1   2  11   2
M  END
>  <reaction>  (16) 
rmg_rxn_207

>  <mol_properties>  (16) 
{"0": {"label": "*3", "atom_type": "Cs"}, "1": {"label": "*4", "atom_type": "Cs"}, "10": {"label": "*1", "atom_type": "Cs"}, "11": {"label": "*0", "atom_type": "Cs"}, "18": {"label": "*2", "atom_type": "H0"}}

>  <type>  (16) 
unop_12

>  <geom_source>  (16) 
Heuristics

$$$$

     RDKit          3D

 27 25  0  0  0  0  0  0  0  0999 V2000
   -1.5202   -0.3216    0.3012 O   0  0  0  0  0  0  0  0  0  0  0  0
    2.5427    0.8506    0.1148 C   0  0  0  0  0  0  0  0  0  0  0  0
   -2.7551    0.1559    0.8016 C   0  0  0  0  0  0  0  0  0  0  0  0
   -1.5621   -0.4250   -1.1071 C   0  0  0  0  0  0  0  0  0  0  0  0
    3.6053    0.7806    1.2048 C   0  0  0  0  0  0  0  0  0  0  0  0
   -2.6799    1.6587    1.0464 C   0  0  0  0  0  0  0  0  0  0  0  0
    0.2319   -2.2128   -1.1747 C   0  0  0  0  0  0  0  0  0  0  0  0
   -0.1821   -0.8167   -1.6292 C   0  0  0  0  0  0  0  0  0  0  0  0
    1.6825   -0.4041    0.1177 C   0  0  0  0  0  2  0  0  0  0  0  0
    3.0381    0.9455   -0.8746 H   0  0  0  0  0  0  0  0  0  0  0  0
    1.8984    1.7411    0.2769 H   0  0  0  0  0  0  0  0  0  0  0  0
   -3.6291   -0.0801    0.1488 H   0  0  0  0  0  0  0  0  0  0  0  0
   -2.9461   -0.3435    1.7749 H   0  0  0  0  0  0  0  0  0  0  0  0
    3.1277    0.7104    2.2055 H   0  0  0  0  0  0  0  0  0  0  0  0
    4.2602   -0.1030    1.0476 H   0  0  0  0  0  0  0  0  0  0  0  0
    4.2307    1.6976    1.1733 H   0  0  0  0  0  0  0  0  0  0  0  0
   -2.5309    2.1992    0.0885 H   0  0  0  0  0  0  0  0  0  0  0  0
   -3.6256    2.0099    1.5104 H   0  0  0  0  0  0  0  0  0  0  0  0
   -1.8362    1.8906    1.7305 H   0  0  0  0  0  0  0  0  0  0  0  0
   -2.3032   -1.1940   -1.4243 H   0  0  0  0  0  0  0  0  0  0  0  0
   -1.8318    0.5527   -1.5660 H   0  0  0  0  0  0  0  0  0  0  0  0
   -0.4895   -2.9710   -1.5471 H   0  0  0  0  0  0  0  0  0  0  0  0
    0.2794   -2.2596   -0.0665 H   0  0  0  0  0  0  0  0  0  0  0  0
    1.2381   -2.4464   -1.5803 H   0  0  0  0  0  0  0  0  0  0  0  0
   -0.1740   -0.7709   -2.7397 H   0  0  0  0  0  0  0  0  0  0  0  0
    1.1198   -0.4872    1.0720 H   0  0  0  0  0  0  0  0  0  0  0  0
    0.8111   -0.3570   -0.9051 H   0  0  0  0  0  0  0  0  0  0  0  0
  1  3  1  0
  1  4  1  0
  2  9  1  0
  2  5  1  0
  2 10  1  0
  2 11  1  0
  3  6  1  0
  3 12  1  0
  3 13  1  0
  4  8  1  0
  4 20  1  0
  4 21  1  0
  5 14  1  0
  5 15  1  0
  5 16  1  0
  6 17  1  0
  6 18  1  0
  6 19  1  0
  7  8  1  0
  7 22  1  0
  7 23  1  0
  7 24  1  0
  8 25  1  0
  8 27  1  0
  9 26  1  0
M  RAD  1   9   3
M  END
>  <reaction>  (17) 
rmg_rxn_207

>  <mol_properties>  (17) 
{"0": {"label": "*3", "atom_type": "Cs"}, "1": {"label": "*4", "atom_type": "Cs"}, "10": {"label": "*1", "atom_type": "Cs"}, "11": {"label": "*0", "atom_type": "Cs"}, "18": {"label": "*2", "atom_type": "H0"}}

>  <type>  (17) 
unop_13

>  <geom_source>  (17) 
AutoTST

$$$$

     RDKit          3D

 27 25  0  0  0  0  0  0  0  0999 V2000
    1.5673   -2.0016    0.6636 C   0  0  0  0  0  3  0  0  0  0  0  0
    2.8327   -2.0155   -0.1106 C   0  0  0  0  0  0  0  0  0  0  0  0
    3.9953   -2.6675    0.6297 C   0  0  0  0  0  0  0  0  0  0  0  0
    1.5704   -2.1530    1.7355 H   0  0  0  0  0  0  0  0  0  0  0  0
    2.6724   -2.5201   -1.0708 H   0  0  0  0  0  0  0  0  0  0  0  0
    3.1118   -0.9855   -0.3810 H   0  0  0  0  0  0  0  0  0  0  0  0
    3.7723   -3.7103    0.8630 H   0  0  0  0  0  0  0  0  0  0  0  0
    4.1944   -2.1504    1.5709 H   0  0  0  0  0  0  0  0  0  0  0  0
    4.9086   -2.6422    0.0336 H   0  0  0  0  0  0  0  0  0  0  0  0
   -0.5370   -0.7449   -1.7575 C   0  0  0  0  0  0  0  0  0  0  0  0
   -0.5370   -0.7449   -0.2346 C   0  0  0  0  0  3  0  0  0  0  0  0
   -0.5370    0.6482    0.3609 C   0  0  0  0  0  0  0  0  0  0  0  0
   -1.7200    1.3117   -0.0067 O   0  0  0  0  0  0  0  0  0  0  0  0
   -1.7907    2.6298    0.4742 C   0  0  0  0  0  0  0  0  0  0  0  0
   -3.0940    3.2476    0.0233 C   0  0  0  0  0  0  0  0  0  0  0  0
    0.3451   -0.2306   -2.1472 H   0  0  0  0  0  0  0  0  0  0  0  0
   -1.4197   -0.2352   -2.1436 H   0  0  0  0  0  0  0  0  0  0  0  0
   -0.5315   -1.7628   -2.1502 H   0  0  0  0  0  0  0  0  0  0  0  0
    0.5208   -1.3767    0.2169 H   0  0  0  0  0  0  0  0  0  0  0  0
   -1.4114   -1.2829    0.1406 H   0  0  0  0  0  0  0  0  0  0  0  0
    0.3372    1.2132    0.0005 H   0  0  0  0  0  0  0  0  0  0  0  0
   -0.4622    0.5942    1.4569 H   0  0  0  0  0  0  0  0  0  0  0  0
   -1.7235    2.6327    1.5723 H   0  0  0  0  0  0  0  0  0  0  0  0
   -0.9378    3.2128    0.0963 H   0  0  0  0  0  0  0  0  0  0  0  0
   -3.9404    2.6782    0.4090 H   0  0  0  0  0  0  0  0  0  0  0  0
   -3.1548    3.2595   -1.0655 H   0  0  0  0  0  0  0  0  0  0  0  0
   -3.1717    4.2736    0.3864 H   0  0  0  0  0  0  0  0  0  0  0  0
  1  2  1  0
  1  4  1  0
  1 19  1  0
  2  3  1  0
  2  5  1  0
  2  6  1  0
  3  7  1  0
  3  8  1  0
  3  9  1  0
 10 11  1  0
 10 16  1  0
 10 17  1  0
 10 18  1  0
 11 12  1  0
 11 20  1  0
 12 13  1  0
 12 21  1  0
 12 22  1  0
 13 14  1  0
 14 15  1  0
 14 23  1  0
 14 24  1  0
 15 25  1  0
 15 26  1  0
 15 27  1  0
M  RAD  2   1   2  11   2
M  END
>  <reaction>  (18) 
rmg_rxn_207

>  <mol_properties>  (18) 
{"0": {"label": "*3", "atom_type": "Cs"}, "1": {"label": "*4", "atom_type": "Cs"}, "10": {"label": "*1", "atom_type": "Cs"}, "11": {"label": "*0", "atom_type": "Cs"}, "18": {"label": "*2", "atom_type": "H0"}}

>  <type>  (18) 
unop_14

>  <geom_source>  (18) 
gaussian_log

$$$$
