
     RDKit          3D

  6  5  0  0  0  0  0  0  0  0999 V2000
   -0.4901    0.0045    0.0014 C   0  0  0  0  0  0  0  0  0  0  0  0
    0.9645   -0.0089   -0.0027 C   0  0  0  0  0  0  0  0  0  0  0  0
    2.1108   -0.0195   -0.0059 N   0  0  0  0  0  0  0  0  0  0  0  0
   -0.8700   -0.6407   -0.7900 H   0  0  0  0  0  0  0  0  0  0  0  0
   -0.8625   -0.3540    0.9604 H   0  0  0  0  0  0  0  0  0  0  0  0
   -0.8530    1.0185   -0.1631 H   0  0  0  0  0  0  0  0  0  0  0  0
  1  2  1  0
  1  4  1  0
  1  5  1  0
  1  6  1  0
  2  3  3  0
M  END
>  <reaction>  (1) 
rmg_rxn_638

>  <mol_properties>  (1) 
{"0": {"label": "donator", "atom_type": "Cs"}, "3": {"label": "d_hydrogen", "atom_type": "H0"}}

>  <type>  (1) 
r1h

$$$$

     RDKit          3D

 14 13  0  0  0  0  0  0  0  0999 V2000
    2.6694    0.2813   -0.6046 C   0  0  0  0  0  3  0  0  0  0  0  0
    1.5626   -0.5075   -0.0103 C   0  0  0  0  0  0  0  0  0  0  0  0
    0.5522   -0.8487   -0.9278 O   0  0  0  0  0  0  0  0  0  0  0  0
    0.9505   -1.8204   -1.8682 C   0  0  0  0  0  0  0  0  0  0  0  0
   -0.2101   -2.1029   -2.7930 C   0  0  0  0  0  0  0  0  0  0  0  0
    2.4666    0.9443   -1.4355 H   0  0  0  0  0  0  0  0  0  0  0  0
    3.6339    0.3312   -0.1179 H   0  0  0  0  0  0  0  0  0  0  0  0
    1.0573    0.0741    0.7733 H   0  0  0  0  0  0  0  0  0  0  0  0
    1.9580   -1.4106    0.4809 H   0  0  0  0  0  0  0  0  0  0  0  0
    1.8195   -1.4649   -2.4379 H   0  0  0  0  0  0  0  0  0  0  0  0
    1.2587   -2.7372   -1.3440 H   0  0  0  0  0  0  0  0  0  0  0  0
   -0.5051   -1.1971   -3.3238 H   0  0  0  0  0  0  0  0  0  0  0  0
    0.0686   -2.8601   -3.5276 H   0  0  0  0  0  0  0  0  0  0  0  0
   -1.0699   -2.4661   -2.2289 H   0  0  0  0  0  0  0  0  0  0  0  0
  1  2  1  0
  1  6  1  0
  1  7  1  0
  2  3  1  0
  2  8  1  0
  2  9  1  0
  3  4  1  0
  4  5  1  0
  4 10  1  0
  4 11  1  0
  5 12  1  0
  5 13  1  0
  5 14  1  0
M  RAD  1   1   2
M  END
>  <reaction>  (2) 
rmg_rxn_638

>  <mol_properties>  (2) 
{"0": {"label": "acceptor", "atom_type": "Cs"}}

>  <type>  (2) 
r2

$$$$

     RDKit          3D

 15 14  0  0  0  0  0  0  0  0999 V2000
    2.4145    0.0817    0.4065 C   0  0  0  0  0  0  0  0  0  0  0  0
    1.1257   -0.2220   -0.3219 C   0  0  0  0  0  0  0  0  0  0  0  0
    1.0983   -1.5879   -0.6512 O   0  0  0  0  0  0  0  0  0  0  0  0
   -0.0685   -1.9694   -1.3352 C   0  0  0  0  0  0  0  0  0  0  0  0
    0.0024   -3.4478   -1.6403 C   0  0  0  0  0  0  0  0  0  0  0  0
    3.2736   -0.1534   -0.2229 H   0  0  0  0  0  0  0  0  0  0  0  0
    2.4581    1.1389    0.6728 H   0  0  0  0  0  0  0  0  0  0  0  0
    2.4855   -0.5095    1.3201 H   0  0  0  0  0  0  0  0  0  0  0  0
    0.2597    0.0294    0.3083 H   0  0  0  0  0  0  0  0  0  0  0  0
    1.0482    0.3858   -1.2356 H   0  0  0  0  0  0  0  0  0  0  0  0
   -0.9535   -1.7457   -0.7211 H   0  0  0  0  0  0  0  0  0  0  0  0
   -0.1650   -1.3894   -2.2650 H   0  0  0  0  0  0  0  0  0  0  0  0
    0.0831   -4.0247   -0.7183 H   0  0  0  0  0  0  0  0  0  0  0  0
   -0.8950   -3.7674   -2.1724 H   0  0  0  0  0  0  0  0  0  0  0  0
    0.8712   -3.6686   -2.2613 H   0  0  0  0  0  0  0  0  0  0  0  0
  1  2  1  0
  1  6  1  0
  1  7  1  0
  1  8  1  0
  2  3  1  0
  2  9  1  0
  2 10  1  0
  3  4  1  0
  4  5  1  0
  4 11  1  0
  4 12  1  0
  5 13  1  0
  5 14  1  0
  5 15  1  0
M  END
>  <reaction>  (3) 
rmg_rxn_638

>  <mol_properties>  (3) 
{"0": {"label": "a_hydrogen", "atom_type": "H0"}, "1": {"label": "acceptor", "atom_type": "Cs"}}

>  <type>  (3) 
r2h

$$$$

     RDKit          3D

 20 18  0  0  0  0  0  0  0  0999 V2000
    1.2798    1.5728    0.9092 C   0  0  0  0  0  0  0  0  0  0  0  0
    0.7669    1.7631   -0.4081 C   0  0  0  0  0  0  0  0  0  0  0  0
    0.2958    1.8950   -1.4507 N   0  0  0  0  0  0  0  0  0  0  0  0
    0.2918    1.0355    1.6176 H   0  0  0  0  0  0  0  0  0  0  0  0
    2.0617    0.8218    0.9631 H   0  0  0  0  0  0  0  0  0  0  0  0
    1.5292    2.4980    1.4205 H   0  0  0  0  0  0  0  0  0  0  0  0
   -0.7528    0.3658    2.1688 C   0  0  0  0  0  3  0  0  0  0  0  0
   -1.4039   -0.2481    0.9719 C   0  0  0  0  0  0  0  0  0  0  0  0
   -0.4697   -1.0768    0.3337 O   0  0  0  0  0  0  0  0  0  0  0  0
   -0.8944   -1.5217   -0.9370 C   0  0  0  0  0  0  0  0  0  0  0  0
    0.2140   -2.3373   -1.5582 C   0  0  0  0  0  0  0  0  0  0  0  0
   -0.2693   -0.3391    2.8412 H   0  0  0  0  0  0  0  0  0  0  0  0
   -1.3413    1.1239    2.6790 H   0  0  0  0  0  0  0  0  0  0  0  0
   -1.7502    0.5370    0.2847 H   0  0  0  0  0  0  0  0  0  0  0  0
   -2.2932   -0.8279    1.2722 H   0  0  0  0  0  0  0  0  0  0  0  0
   -1.8087   -2.1230   -0.8332 H   0  0  0  0  0  0  0  0  0  0  0  0
   -1.1301   -0.6545   -1.5671 H   0  0  0  0  0  0  0  0  0  0  0  0
    0.4619   -3.1942   -0.9305 H   0  0  0  0  0  0  0  0  0  0  0  0
   -0.0936   -2.7026   -2.5390 H   0  0  0  0  0  0  0  0  0  0  0  0
    1.1081   -1.7257   -1.6844 H   0  0  0  0  0  0  0  0  0  0  0  0
  1  2  1  0
  1  4  1  0
  1  5  1  0
  1  6  1  0
  2  3  3  0
  7  8  1  0
  7 12  1  0
  7 13  1  0
  8  9  1  0
  8 14  1  0
  8 15  1  0
  9 10  1  0
 10 11  1  0
 10 16  1  0
 10 17  1  0
 11 18  1  0
 11 19  1  0
 11 20  1  0
M  RAD  1   7   2
M  END
>  <reaction>  (4) 
rmg_rxn_638

>  <mol_properties>  (4) 
{"0": {"label": "*1", "atom_type": "Cs"}, "1": {"label": "*0", "atom_type": "Ct"}, "3": {"label": "*2", "atom_type": "H0"}, "6": {"label": "*3", "atom_type": "Cs"}, "7": {"label": "*4", "atom_type": "Cs"}}

>  <type>  (4) 
ts

$$$$

     RDKit          3D

 20 18  0  0  0  0  0  0  0  0999 V2000
    0.0927    1.6156   -0.9905 C   0  0  0  0  0  0  0  0  0  0  0  0
    0.0927    1.6156   -2.4452 C   0  0  0  0  0  0  0  0  0  0  0  0
    0.0927    1.6156   -3.5916 N   0  0  0  0  0  0  0  0  0  0  0  0
   -0.8603    0.8397   -0.5444 H   0  0  0  0  0  0  0  0  0  0  0  0
    1.0497    1.2510   -0.6188 H   0  0  0  0  0  0  0  0  0  0  0  0
   -0.0700    2.6266   -0.6188 H   0  0  0  0  0  0  0  0  0  0  0  0
   -1.8143    0.0631   -0.0979 C   0  0  0  0  0  3  0  0  0  0  0  0
   -1.2391   -1.0492    0.7480 C   0  0  0  0  0  0  0  0  0  0  0  0
    0.0408   -0.6721    1.1892 O   0  0  0  0  0  0  0  0  0  0  0  0
    0.6610   -1.6478    1.9882 C   0  0  0  0  0  0  0  0  0  0  0  0
    2.0234   -1.1460    2.4071 C   0  0  0  0  0  0  0  0  0  0  0  0
   -1.8909    0.9836    0.4820 H   0  0  0  0  0  0  0  0  0  0  0  0
   -2.8100   -0.2078   -0.4524 H   0  0  0  0  0  0  0  0  0  0  0  0
   -1.1761   -1.9809    0.1665 H   0  0  0  0  0  0  0  0  0  0  0  0
   -1.8895   -1.2505    1.6121 H   0  0  0  0  0  0  0  0  0  0  0  0
    0.0407   -1.8587    2.8720 H   0  0  0  0  0  0  0  0  0  0  0  0
    0.7541   -2.5891    1.4264 H   0  0  0  0  0  0  0  0  0  0  0  0
    1.9313   -0.2207    2.9768 H   0  0  0  0  0  0  0  0  0  0  0  0
    2.5248   -1.8886    3.0297 H   0  0  0  0  0  0  0  0  0  0  0  0
    2.6443   -0.9506    1.5320 H   0  0  0  0  0  0  0  0  0  0  0  0
  1  2  1  0
  1  4  1  0
  1  5  1  0
  1  6  1  0
  2  3  3  0
  7  8  1  0
  7 12  1  0
  7 13  1  0
  8  9  1  0
  8 14  1  0
  8 15  1  0
  9 10  1  0
 10 11  1  0
 10 16  1  0
 10 17  1  0
 11 18  1  0
 11 19  1  0
 11 20  1  0
M  RAD  1   7   2
M  END
>  <reaction>  (5) 
rmg_rxn_638

>  <mol_properties>  (5) 
{"0": {"label": "*1", "atom_type": "Cs"}, "1": {"label": "*0", "atom_type": "Ct"}, "3": {"label": "*2", "atom_type": "H0"}, "6": {"label": "*3", "atom_type": "Cs"}, "7": {"label": "*4", "atom_type": "Cs"}}

>  <type>  (5) 
unop_1

>  <geom_source>  (5) 
Heuristics

$$$$

     RDKit          3D

 20 18  0  0  0  0  0  0  0  0999 V2000
    0.7439    2.1114    0.8709 C   0  0  0  0  0  0  0  0  0  0  0  0
    0.7439    2.1114   -0.5837 C   0  0  0  0  0  0  0  0  0  0  0  0
    0.7439    2.1114   -1.7302 N   0  0  0  0  0  0  0  0  0  0  0  0
   -0.2091    1.3356    1.3170 H   0  0  0  0  0  0  0  0  0  0  0  0
    1.7010    1.7469    1.2426 H   0  0  0  0  0  0  0  0  0  0  0  0
    0.5812    3.1225    1.2426 H   0  0  0  0  0  0  0  0  0  0  0  0
   -1.1630    0.5590    1.7636 C   0  0  0  0  0  3  0  0  0  0  0  0
   -1.4266   -0.5681    0.7920 C   0  0  0  0  0  0  0  0  0  0  0  0
   -0.1980   -1.0579    0.3169 O   0  0  0  0  0  0  0  0  0  0  0  0
   -0.3399   -2.1149   -0.5984 C   0  0  0  0  0  0  0  0  0  0  0  0
    1.0318   -2.5652   -1.0447 C   0  0  0  0  0  0  0  0  0  0  0  0
   -0.5672    0.2059    2.6059 H   0  0  0  0  0  0  0  0  0  0  0  0
   -2.1045    0.9559    2.1465 H   0  0  0  0  0  0  0  0  0  0  0  0
   -2.0402   -0.2143   -0.0497 H   0  0  0  0  0  0  0  0  0  0  0  0
   -1.9877   -1.3764    1.2841 H   0  0  0  0  0  0  0  0  0  0  0  0
   -0.8837   -2.9477   -0.1283 H   0  0  0  0  0  0  0  0  0  0  0  0
   -0.9363   -1.7857   -1.4622 H   0  0  0  0  0  0  0  0  0  0  0  0
    1.6188   -2.9057   -0.1910 H   0  0  0  0  0  0  0  0  0  0  0  0
    0.9466   -3.3871   -1.7574 H   0  0  0  0  0  0  0  0  0  0  0  0
    1.5663   -1.7443   -1.5241 H   0  0  0  0  0  0  0  0  0  0  0  0
  1  2  1  0
  1  4  1  0
  1  5  1  0
  1  6  1  0
  2  3  3  0
  7  8  1  0
  7 12  1  0
  7 13  1  0
  8  9  1  0
  8 14  1  0
  8 15  1  0
  9 10  1  0
 10 11  1  0
 10 16  1  0
 10 17  1  0
 11 18  1  0
 11 19  1  0
 11 20  1  0
M  RAD  1   7   2
M  END
>  <reaction>  (6) 
rmg_rxn_638

>  <mol_properties>  (6) 
{"0": {"label": "*1", "atom_type": "Cs"}, "1": {"label": "*0", "atom_type": "Ct"}, "3": {"label": "*2", "atom_type": "H0"}, "6": {"label": "*3", "atom_type": "Cs"}, "7": {"label": "*4", "atom_type": "Cs"}}

>  <type>  (6) 
unop_2

>  <geom_source>  (6) 
Heuristics

$$$$

     RDKit          3D

 20 18  0  0  0  0  0  0  0  0999 V2000
    0.4915    0.9390   -1.4880 C   0  0  0  0  0  0  0  0  0  0  0  0
    0.4915    0.9390   -2.9426 C   0  0  0  0  0  0  0  0  0  0  0  0
    0.4915    0.9390   -4.0891 N   0  0  0  0  0  0  0  0  0  0  0  0
   -0.4615    0.1632   -1.0419 H   0  0  0  0  0  0  0  0  0  0  0  0
    1.4485    0.5745   -1.1163 H   0  0  0  0  0  0  0  0  0  0  0  0
    0.3287    1.9501   -1.1163 H   0  0  0  0  0  0  0  0  0  0  0  0
   -1.4155   -0.6134   -0.5954 C   0  0  0  0  0  3  0  0  0  0  0  0
   -1.0303   -1.2124    0.7375 C   0  0  0  0  0  0  0  0  0  0  0  0
   -0.2119   -0.3020    1.4277 O   0  0  0  0  0  0  0  0  0  0  0  0
    0.2003   -0.7719    2.6864 C   0  0  0  0  0  0  0  0  0  0  0  0
    1.0701    0.2763    3.3410 C   0  0  0  0  0  0  0  0  0  0  0  0
   -1.9593    0.3209   -0.4516 H   0  0  0  0  0  0  0  0  0  0  0  0
   -2.0525   -1.3040   -1.1502 H   0  0  0  0  0  0  0  0  0  0  0  0
   -0.4948   -2.1622    0.5916 H   0  0  0  0  0  0  0  0  0  0  0  0
   -1.9283   -1.4354    1.3325 H   0  0  0  0  0  0  0  0  0  0  0  0
   -0.6782   -0.9879    3.3124 H   0  0  0  0  0  0  0  0  0  0  0  0
    0.7553   -1.7148    2.5715 H   0  0  0  0  0  0  0  0  0  0  0  0
    0.5162    1.2069    3.4689 H   0  0  0  0  0  0  0  0  0  0  0  0
    1.4028   -0.0673    4.3218 H   0  0  0  0  0  0  0  0  0  0  0  0
    1.9489    0.4805    2.7284 H   0  0  0  0  0  0  0  0  0  0  0  0
  1  2  1  0
  1  4  1  0
  1  5  1  0
  1  6  1  0
  2  3  3  0
  7  8  1  0
  7 12  1  0
  7 13  1  0
  8  9  1  0
  8 14  1  0
  8 15  1  0
  9 10  1  0
 10 11  1  0
 10 16  1  0
 10 17  1  0
 11 18  1  0
 11 19  1  0
 11 20  1  0
M  RAD  1   7   2
M  END
>  <reaction>  (7) 
rmg_rxn_638

>  <mol_properties>  (7) 
{"0": {"label": "*1", "atom_type": "Cs"}, "1": {"label": "*0", "atom_type": "Ct"}, "3": {"label": "*2", "atom_type": "H0"}, "6": {"label": "*3", "atom_type": "Cs"}, "7": {"label": "*4", "atom_type": "Cs"}}

>  <type>  (7) 
unop_3

>  <geom_source>  (7) 
Heuristics

$$$$

     RDKit          3D

 20 18  0  0  0  0  0  0  0  0999 V2000
    2.4024    0.9951    0.9124 C   0  0  0  0  0  0  0  0  0  0  0  0
    2.4024    0.9951   -0.5422 C   0  0  0  0  0  0  0  0  0  0  0  0
    2.4024    0.9951   -1.6887 N   0  0  0  0  0  0  0  0  0  0  0  0
    1.4494    0.2192    1.3585 H   0  0  0  0  0  0  0  0  0  0  0  0
    3.3594    0.6305    1.2841 H   0  0  0  0  0  0  0  0  0  0  0  0
    2.2396    2.0061    1.2841 H   0  0  0  0  0  0  0  0  0  0  0  0
    0.4954   -0.5574    1.8050 C   0  0  0  0  0  3  0  0  0  0  0  0
   -0.8517   -0.0734    1.3205 C   0  0  0  0  0  0  0  0  0  0  0  0
   -1.1613   -0.7200    0.1117 O   0  0  0  0  0  0  0  0  0  0  0  0
   -2.4030   -0.3333   -0.4210 C   0  0  0  0  0  0  0  0  0  0  0  0
   -2.6379   -1.0823   -1.7123 C   0  0  0  0  0  0  0  0  0  0  0  0
    0.4779   -1.6354    1.9686 H   0  0  0  0  0  0  0  0  0  0  0  0
    0.7574   -0.0679    2.7444 H   0  0  0  0  0  0  0  0  0  0  0  0
   -0.8373    1.0163    1.1701 H   0  0  0  0  0  0  0  0  0  0  0  0
   -1.6288   -0.2863    2.0696 H   0  0  0  0  0  0  0  0  0  0  0  0
   -3.2047   -0.5503    0.3005 H   0  0  0  0  0  0  0  0  0  0  0  0
   -2.4132    0.7522   -0.5990 H   0  0  0  0  0  0  0  0  0  0  0  0
   -2.6427   -2.1582   -1.5345 H   0  0  0  0  0  0  0  0  0  0  0  0
   -3.5983   -0.7976   -2.1451 H   0  0  0  0  0  0  0  0  0  0  0  0
   -1.8517   -0.8565   -2.4334 H   0  0  0  0  0  0  0  0  0  0  0  0
  1  2  1  0
  1  4  1  0
  1  5  1  0
  1  6  1  0
  2  3  3  0
  7  8  1  0
  7 12  1  0
  7 13  1  0
  8  9  1  0
  8 14  1  0
  8 15  1  0
  9 10  1  0
 10 11  1  0
 10 16  1  0
 10 17  1  0
 11 18  1  0
 11 19  1  0
 11 20  1  0
M  RAD  1   7   2
M  END
>  <reaction>  (8) 
rmg_rxn_638

>  <mol_properties>  (8) 
{"0": {"label": "*1", "atom_type": "Cs"}, "1": {"label": "*0", "atom_type": "Ct"}, "3": {"label": "*2", "atom_type": "H0"}, "6": {"label": "*3", "atom_type": "Cs"}, "7": {"label": "*4", "atom_type": "Cs"}}

>  <type>  (8) 
unop_4

>  <geom_source>  (8) 
Heuristics

$$$$

     RDKit          3D

 20 18  0  0  0  0  0  0  0  0999 V2000
    1.3567    0.2837   -1.4929 C   0  0  0  0  0  0  0  0  0  0  0  0
    1.3567    0.2837   -2.9475 C   0  0  0  0  0  0  0  0  0  0  0  0
    1.3567    0.2837   -4.0940 N   0  0  0  0  0  0  0  0  0  0  0  0
    0.4037   -0.4921   -1.0468 H   0  0  0  0  0  0  0  0  0  0  0  0
    2.3137   -0.0808   -1.1212 H   0  0  0  0  0  0  0  0  0  0  0  0
    1.1939    1.2948   -1.1212 H   0  0  0  0  0  0  0  0  0  0  0  0
   -0.5503   -1.2687   -0.6002 C   0  0  0  0  0  3  0  0  0  0  0  0
   -0.5617   -1.2780    0.9109 C   0  0  0  0  0  0  0  0  0  0  0  0
   -0.7760    0.0315    1.3739 O   0  0  0  0  0  0  0  0  0  0  0  0
   -0.8031    0.1258    2.7758 C   0  0  0  0  0  0  0  0  0  0  0  0
   -1.0379    1.5665    3.1665 C   0  0  0  0  0  0  0  0  0  0  0  0
   -1.5016   -0.9020   -0.9873 H   0  0  0  0  0  0  0  0  0  0  0  0
   -0.3851   -2.2769   -0.9832 H   0  0  0  0  0  0  0  0  0  0  0  0
    0.3929   -1.6620    1.3001 H   0  0  0  0  0  0  0  0  0  0  0  0
   -1.3544   -1.9427    1.2851 H   0  0  0  0  0  0  0  0  0  0  0  0
   -1.5997   -0.5167    3.1797 H   0  0  0  0  0  0  0  0  0  0  0  0
    0.1477   -0.2360    3.1946 H   0  0  0  0  0  0  0  0  0  0  0  0
   -1.9873    1.9217    2.7642 H   0  0  0  0  0  0  0  0  0  0  0  0
   -1.0629    1.6643    4.2530 H   0  0  0  0  0  0  0  0  0  0  0  0
   -0.2410    2.2022    2.7791 H   0  0  0  0  0  0  0  0  0  0  0  0
  1  2  1  0
  1  4  1  0
  1  5  1  0
  1  6  1  0
  2  3  3  0
  7  8  1  0
  7 12  1  0
  7 13  1  0
  8  9  1  0
  8 14  1  0
  8 15  1  0
  9 10  1  0
 10 11  1  0
 10 16  1  0
 10 17  1  0
 11 18  1  0
 11 19  1  0
 11 20  1  0
M  RAD  1   7   2
M  END
>  <reaction>  (9) 
rmg_rxn_638

>  <mol_properties>  (9) 
{"0": {"label": "*1", "atom_type": "Cs"}, "1": {"label": "*0", "atom_type": "Ct"}, "3": {"label": "*2", "atom_type": "H0"}, "6": {"label": "*3", "atom_type": "Cs"}, "7": {"label": "*4", "atom_type": "Cs"}}

>  <type>  (9) 
unop_5

>  <geom_source>  (9) 
Heuristics

$$$$

     RDKit          3D

 20 18  0  0  0  0  0  0  0  0999 V2000
    2.6386    0.5381    0.3622 C   0  0  0  0  0  0  0  0  0  0  0  0
    2.6386    0.5381   -1.0925 C   0  0  0  0  0  0  0  0  0  0  0  0
    2.6386    0.5381   -2.2389 N   0  0  0  0  0  0  0  0  0  0  0  0
    1.6856   -0.2377    0.8083 H   0  0  0  0  0  0  0  0  0  0  0  0
    3.5957    0.1736    0.7339 H   0  0  0  0  0  0  0  0  0  0  0  0
    2.4759    1.5492    0.7339 H   0  0  0  0  0  0  0  0  0  0  0  0
    0.7316   -1.0143    1.2548 C   0  0  0  0  0  3  0  0  0  0  0  0
   -0.5479   -0.2308    1.4355 C   0  0  0  0  0  0  0  0  0  0  0  0
   -1.3796   -0.4524    0.3245 O   0  0  0  0  0  0  0  0  0  0  0  0
   -2.6012    0.2382    0.4007 C   0  0  0  0  0  0  0  0  0  0  0  0
   -3.4156   -0.0669   -0.8351 C   0  0  0  0  0  0  0  0  0  0  0  0
    0.5184   -2.0806    1.1728 H   0  0  0  0  0  0  0  0  0  0  0  0
    1.3945   -0.8573    2.1071 H   0  0  0  0  0  0  0  0  0  0  0  0
   -0.3304    0.8432    1.5330 H   0  0  0  0  0  0  0  0  0  0  0  0
   -1.0620   -0.5417    2.3570 H   0  0  0  0  0  0  0  0  0  0  0  0
   -3.1479   -0.0652    1.3058 H   0  0  0  0  0  0  0  0  0  0  0  0
   -2.4163    1.3197    0.4818 H   0  0  0  0  0  0  0  0  0  0  0  0
   -3.6120   -1.1370   -0.9087 H   0  0  0  0  0  0  0  0  0  0  0  0
   -4.3705    0.4597   -0.7981 H   0  0  0  0  0  0  0  0  0  0  0  0
   -2.8808    0.2470   -1.7322 H   0  0  0  0  0  0  0  0  0  0  0  0
  1  2  1  0
  1  4  1  0
  1  5  1  0
  1  6  1  0
  2  3  3  0
  7  8  1  0
  7 12  1  0
  7 13  1  0
  8  9  1  0
  8 14  1  0
  8 15  1  0
  9 10  1  0
 10 11  1  0
 10 16  1  0
 10 17  1  0
 11 18  1  0
 11 19  1  0
 11 20  1  0
M  RAD  1   7   2
M  END
>  <reaction>  (10) 
rmg_rxn_638

>  <mol_properties>  (10) 
{"0": {"label": "*1", "atom_type": "Cs"}, "1": {"label": "*0", "atom_type": "Ct"}, "3": {"label": "*2", "atom_type": "H0"}, "6": {"label": "*3", "atom_type": "Cs"}, "7": {"label": "*4", "atom_type": "Cs"}}

>  <type>  (10) 
unop_6

>  <geom_source>  (10) 
Heuristics

$$$$

     RDKit          3D

 20 18  0  0  0  0  0  0  0  0999 V2000
    2.5712    0.2366   -0.3164 C   0  0  0  0  0  0  0  0  0  0  0  0
    2.5712    0.2366   -1.7710 C   0  0  0  0  0  0  0  0  0  0  0  0
    2.5712    0.2366   -2.9175 N   0  0  0  0  0  0  0  0  0  0  0  0
    1.6182   -0.5392    0.1297 H   0  0  0  0  0  0  0  0  0  0  0  0
    3.5282   -0.1279    0.0553 H   0  0  0  0  0  0  0  0  0  0  0  0
    2.4084    1.2477    0.0553 H   0  0  0  0  0  0  0  0  0  0  0  0
    0.6642   -1.3158    0.5762 C   0  0  0  0  0  3  0  0  0  0  0  0
   -0.3083   -0.5270    1.4221 C   0  0  0  0  0  0  0  0  0  0  0  0
   -1.4341   -0.2063    0.6444 O   0  0  0  0  0  0  0  0  0  0  0  0
   -2.4013    0.5317    1.3479 C   0  0  0  0  0  0  0  0  0  0  0  0
   -3.5631    0.8225    0.4263 C   0  0  0  0  0  0  0  0  0  0  0  0
    0.2007   -2.2360    0.2188 H   0  0  0  0  0  0  0  0  0  0  0  0
    1.5482   -1.5765    1.1604 H   0  0  0  0  0  0  0  0  0  0  0  0
    0.1650    0.3937    1.7944 H   0  0  0  0  0  0  0  0  0  0  0  0
   -0.6145   -1.1119    2.3021 H   0  0  0  0  0  0  0  0  0  0  0  0
   -2.7407   -0.0364    2.2267 H   0  0  0  0  0  0  0  0  0  0  0  0
   -1.9611    1.4692    1.7189 H   0  0  0  0  0  0  0  0  0  0  0  0
   -4.0095   -0.1063    0.0695 H   0  0  0  0  0  0  0  0  0  0  0  0
   -4.3282    1.3959    0.9519 H   0  0  0  0  0  0  0  0  0  0  0  0
   -3.2304    1.3983   -0.4380 H   0  0  0  0  0  0  0  0  0  0  0  0
  1  2  1  0
  1  4  1  0
  1  5  1  0
  1  6  1  0
  2  3  3  0
  7  8  1  0
  7 12  1  0
  7 13  1  0
  8  9  1  0
  8 14  1  0
  8 15  1  0
  9 10  1  0
 10 11  1  0
 10 16  1  0
 10 17  1  0
 11 18  1  0
 11 19  1  0
 11 20  1  0
M  RAD  1   7   2
M  END
>  <reaction>  (11) 
rmg_rxn_638

>  <mol_properties>  (11) 
{"0": {"label": "*1", "atom_type": "Cs"}, "1": {"label": "*0", "atom_type": "Ct"}, "3": {"label": "*2", "atom_type": "H0"}, "6": {"label": "*3", "atom_type": "Cs"}, "7": {"label": "*4", "atom_type": "Cs"}}

>  <type>  (11) 
unop_7

>  <geom_source>  (11) 
Heuristics

$$$$

     RDKit          3D

 20 18  0  0  0  0  0  0  0  0999 V2000
    0.0738    2.0335   -0.3078 C   0  0  0  0  0  0  0  0  0  0  0  0
    0.0738    2.0335   -1.7624 C   0  0  0  0  0  0  0  0  0  0  0  0
    0.0738    2.0335   -2.9089 N   0  0  0  0  0  0  0  0  0  0  0  0
   -0.8792    1.2577    0.1383 H   0  0  0  0  0  0  0  0  0  0  0  0
    1.0308    1.6690    0.0639 H   0  0  0  0  0  0  0  0  0  0  0  0
   -0.0890    3.0446    0.0639 H   0  0  0  0  0  0  0  0  0  0  0  0
   -1.8332    0.4811    0.5848 C   0  0  0  0  0  3  0  0  0  0  0  0
   -1.3256   -0.9308    0.7655 C   0  0  0  0  0  0  0  0  0  0  0  0
    0.0759   -0.9027    0.8659 O   0  0  0  0  0  0  0  0  0  0  0  0
    0.6445   -2.1764    1.0371 C   0  0  0  0  0  0  0  0  0  0  0  0
    2.1460   -2.0349    1.1334 C   0  0  0  0  0  0  0  0  0  0  0  0
   -1.5463    1.1019    1.4343 H   0  0  0  0  0  0  0  0  0  0  0  0
   -2.9214    0.4842    0.5043 H   0  0  0  0  0  0  0  0  0  0  0  0
   -1.6282   -1.5597   -0.0848 H   0  0  0  0  0  0  0  0  0  0  0  0
   -1.7577   -1.3816    1.6712 H   0  0  0  0  0  0  0  0  0  0  0  0
    0.2437   -2.6470    1.9471 H   0  0  0  0  0  0  0  0  0  0  0  0
    0.3731   -2.8252    0.1911 H   0  0  0  0  0  0  0  0  0  0  0  0
    2.4167   -1.4039    1.9806 H   0  0  0  0  0  0  0  0  0  0  0  0
    2.6101   -3.0133    1.2669 H   0  0  0  0  0  0  0  0  0  0  0  0
    2.5460   -1.5820    0.2256 H   0  0  0  0  0  0  0  0  0  0  0  0
  1  2  1  0
  1  4  1  0
  1  5  1  0
  1  6  1  0
  2  3  3  0
  7  8  1  0
  7 12  1  0
  7 13  1  0
  8  9  1  0
  8 14  1  0
  8 15  1  0
  9 10  1  0
 10 11  1  0
 10 16  1  0
 10 17  1  0
 11 18  1  0
 11 19  1  0
 11 20  1  0
M  RAD  1   7   2
M  END
>  <reaction>  (12) 
rmg_rxn_638

>  <mol_properties>  (12) 
{"0": {"label": "*1", "atom_type": "Cs"}, "1": {"label": "*0", "atom_type": "Ct"}, "3": {"label": "*2", "atom_type": "H0"}, "6": {"label": "*3", "atom_type": "Cs"}, "7": {"label": "*4", "atom_type": "Cs"}}

>  <type>  (12) 
unop_8

>  <geom_source>  (12) 
Heuristics

$$$$

     RDKit          3D

 20 18  0  0  0  0  0  0  0  0999 V2000
    1.9116    1.4909    1.2003 C   0  0  0  0  0  0  0  0  0  0  0  0
    1.9116    1.4909   -0.2543 C   0  0  0  0  0  0  0  0  0  0  0  0
    1.9116    1.4909   -1.4008 N   0  0  0  0  0  0  0  0  0  0  0  0
    0.9586    0.7150    1.6464 H   0  0  0  0  0  0  0  0  0  0  0  0
    2.8686    1.1263    1.5720 H   0  0  0  0  0  0  0  0  0  0  0  0
    1.7488    2.5019    1.5720 H   0  0  0  0  0  0  0  0  0  0  0  0
    0.0046   -0.0616    2.0929 C   0  0  0  0  0  3  0  0  0  0  0  0
   -1.1525   -0.0910    1.1214 C   0  0  0  0  0  0  0  0  0  0  0  0
   -0.8281   -0.9415    0.0507 O   0  0  0  0  0  0  0  0  0  0  0  0
   -1.8484   -1.0348   -0.9113 C   0  0  0  0  0  0  0  0  0  0  0  0
   -1.4010   -1.9679   -2.0125 C   0  0  0  0  0  0  0  0  0  0  0  0
    0.2063   -1.0620    2.4773 H   0  0  0  0  0  0  0  0  0  0  0  0
   -0.2249    0.5940    2.9345 H   0  0  0  0  0  0  0  0  0  0  0  0
   -1.3647    0.9210    0.7456 H   0  0  0  0  0  0  0  0  0  0  0  0
   -2.0650   -0.4484    1.6213 H   0  0  0  0  0  0  0  0  0  0  0  0
   -2.7720   -1.4072   -0.4436 H   0  0  0  0  0  0  0  0  0  0  0  0
   -2.0716   -0.0378   -1.3192 H   0  0  0  0  0  0  0  0  0  0  0  0
   -1.1936   -2.9606   -1.6115 H   0  0  0  0  0  0  0  0  0  0  0  0
   -2.1789   -2.0560   -2.7726 H   0  0  0  0  0  0  0  0  0  0  0  0
   -0.4937   -1.5921   -2.4866 H   0  0  0  0  0  0  0  0  0  0  0  0
  1  2  1  0
  1  4  1  0
  1  5  1  0
  1  6  1  0
  2  3  3  0
  7  8  1  0
  7 12  1  0
  7 13  1  0
  8  9  1  0
  8 14  1  0
  8 15  1  0
  9 10  1  0
 10 11  1  0
 10 16  1  0
 10 17  1  0
 11 18  1  0
 11 19  1  0
 11 20  1  0
M  RAD  1   7   2
M  END
>  <reaction>  (13) 
rmg_rxn_638

>  <mol_properties>  (13) 
{"0": {"label": "*1", "atom_type": "Cs"}, "1": {"label": "*0", "atom_type": "Ct"}, "3": {"label": "*2", "atom_type": "H0"}, "6": {"label": "*3", "atom_type": "Cs"}, "7": {"label": "*4", "atom_type": "Cs"}}

>  <type>  (13) 
unop_9

>  <geom_source>  (13) 
Heuristics

$$$$

     RDKit          3D

 20 18  0  0  0  0  0  0  0  0999 V2000
    0.3176    2.1791    0.3551 C   0  0  0  0  0  0  0  0  0  0  0  0
    0.3176    2.1791   -1.0995 C   0  0  0  0  0  0  0  0  0  0  0  0
    0.3176    2.1791   -2.2460 N   0  0  0  0  0  0  0  0  0  0  0  0
   -0.6355    1.4033    0.8012 H   0  0  0  0  0  0  0  0  0  0  0  0
    1.2746    1.8146    0.7268 H   0  0  0  0  0  0  0  0  0  0  0  0
    0.1548    3.1902    0.7268 H   0  0  0  0  0  0  0  0  0  0  0  0
   -1.5894    0.6267    1.2478 C   0  0  0  0  0  3  0  0  0  0  0  0
   -1.3888   -0.7905    0.7632 C   0  0  0  0  0  0  0  0  0  0  0  0
   -0.0160   -1.0142    0.5621 O   0  0  0  0  0  0  0  0  0  0  0  0
    0.2729   -2.3126    0.1084 C   0  0  0  0  0  0  0  0  0  0  0  0
    1.7669   -2.4475   -0.0748 C   0  0  0  0  0  0  0  0  0  0  0  0
   -1.0578    0.7886    2.1861 H   0  0  0  0  0  0  0  0  0  0  0  0
   -2.6501    0.8238    1.4111 H   0  0  0  0  0  0  0  0  0  0  0  0
   -1.9375   -0.9570   -0.1756 H   0  0  0  0  0  0  0  0  0  0  0  0
   -1.7819   -1.5076    1.4991 H   0  0  0  0  0  0  0  0  0  0  0  0
   -0.0938   -3.0538    0.8339 H   0  0  0  0  0  0  0  0  0  0  0  0
   -0.2495   -2.5032   -0.8409 H   0  0  0  0  0  0  0  0  0  0  0  0
    2.2848   -2.2732    0.8689 H   0  0  0  0  0  0  0  0  0  0  0  0
    2.0155   -3.4497   -0.4274 H   0  0  0  0  0  0  0  0  0  0  0  0
    2.1292   -1.7230   -0.8049 H   0  0  0  0  0  0  0  0  0  0  0  0
  1  2  1  0
  1  4  1  0
  1  5  1  0
  1  6  1  0
  2  3  3  0
  7  8  1  0
  7 12  1  0
  7 13  1  0
  8  9  1  0
  8 14  1  0
  8 15  1  0
  9 10  1  0
 10 11  1  0
 10 16  1  0
 10 17  1  0
 11 18  1  0
 11 19  1  0
 11 20  1  0
M  RAD  1   7   2
M  END
>  <reaction>  (14) 
rmg_rxn_638

>  <mol_properties>  (14) 
{"0": {"label": "*1", "atom_type": "Cs"}, "1": {"label": "*0", "atom_type": "Ct"}, "3": {"label": "*2", "atom_type": "H0"}, "6": {"label": "*3", "atom_type": "Cs"}, "7": {"label": "*4", "atom_type": "Cs"}}

>  <type>  (14) 
unop_10

>  <geom_source>  (14) 
Heuristics

$$$$

     RDKit          3D

 20 18  0  0  0  0  0  0  0  0999 V2000
    2.1750    0.1190   -0.9829 C   0  0  0  0  0  0  0  0  0  0  0  0
    2.1750    0.1190   -2.4375 C   0  0  0  0  0  0  0  0  0  0  0  0
    2.1750    0.1190   -3.5840 N   0  0  0  0  0  0  0  0  0  0  0  0
    1.2219   -0.6568   -0.5368 H   0  0  0  0  0  0  0  0  0  0  0  0
    3.1320   -0.2455   -0.6112 H   0  0  0  0  0  0  0  0  0  0  0  0
    2.0122    1.1301   -0.6112 H   0  0  0  0  0  0  0  0  0  0  0  0
    0.2680   -1.4334   -0.0903 C   0  0  0  0  0  3  0  0  0  0  0  0
   -0.2404   -0.9347    1.2426 C   0  0  0  0  0  0  0  0  0  0  0  0
   -1.2727   -0.0075    1.0196 O   0  0  0  0  0  0  0  0  0  0  0  0
   -1.8131    0.5159    2.2066 C   0  0  0  0  0  0  0  0  0  0  0  0
   -2.9084    1.4965    1.8569 C   0  0  0  0  0  0  0  0  0  0  0  0
   -0.5345   -1.9166   -0.6487 H   0  0  0  0  0  0  0  0  0  0  0  0
    1.0718   -2.1562    0.0582 H   0  0  0  0  0  0  0  0  0  0  0  0
    0.5733   -0.4607    1.8113 H   0  0  0  0  0  0  0  0  0  0  0  0
   -0.6137   -1.7729    1.8495 H   0  0  0  0  0  0  0  0  0  0  0  0
   -2.2113   -0.2993    2.8289 H   0  0  0  0  0  0  0  0  0  0  0  0
   -1.0243    1.0129    2.7907 H   0  0  0  0  0  0  0  0  0  0  0  0
   -3.6979    1.0014    1.2905 H   0  0  0  0  0  0  0  0  0  0  0  0
   -3.3436    1.9167    2.7649 H   0  0  0  0  0  0  0  0  0  0  0  0
   -2.5116    2.3128    1.2523 H   0  0  0  0  0  0  0  0  0  0  0  0
  1  2  1  0
  1  4  1  0
  1  5  1  0
  1  6  1  0
  2  3  3  0
  7  8  1  0
  7 12  1  0
  7 13  1  0
  8  9  1  0
  8 14  1  0
  8 15  1  0
  9 10  1  0
 10 11  1  0
 10 16  1  0
 10 17  1  0
 11 18  1  0
 11 19  1  0
 11 20  1  0
M  RAD  1   7   2
M  END
>  <reaction>  (15) 
rmg_rxn_638

>  <mol_properties>  (15) 
{"0": {"label": "*1", "atom_type": "Cs"}, "1": {"label": "*0", "atom_type": "Ct"}, "3": {"label": "*2", "atom_type": "H0"}, "6": {"label": "*3", "atom_type": "Cs"}, "7": {"label": "*4", "atom_type": "Cs"}}

>  <type>  (15) 
unop_11

>  <geom_source>  (15) 
Heuristics

$$$$

     RDKit          3D

 20 18  0  0  0  0  0  0  0  0999 V2000
    1.3034    1.8818    1.1725 C   0  0  0  0  0  0  0  0  0  0  0  0
    1.3034    1.8818   -0.2821 C   0  0  0  0  0  0  0  0  0  0  0  0
    1.3034    1.8818   -1.4286 N   0  0  0  0  0  0  0  0  0  0  0  0
    0.3504    1.1059    1.6186 H   0  0  0  0  0  0  0  0  0  0  0  0
    2.2604    1.5172    1.5442 H   0  0  0  0  0  0  0  0  0  0  0  0
    1.1406    2.8928    1.5442 H   0  0  0  0  0  0  0  0  0  0  0  0
   -0.6036    0.3293    2.0651 C   0  0  0  0  0  3  0  0  0  0  0  0
   -1.3641   -0.2898    0.9154 C   0  0  0  0  0  0  0  0  0  0  0  0
   -0.4749   -1.0499    0.1365 O   0  0  0  0  0  0  0  0  0  0  0  0
   -1.0925   -1.6690   -0.9637 C   0  0  0  0  0  0  0  0  0  0  0  0
   -0.0551   -2.4563   -1.7301 C   0  0  0  0  0  0  0  0  0  0  0  0
   -0.1536   -0.4454    2.6868 H   0  0  0  0  0  0  0  0  0  0  0  0
   -1.2750    0.9255    2.6851 H   0  0  0  0  0  0  0  0  0  0  0  0
   -1.8300    0.4921    0.2974 H   0  0  0  0  0  0  0  0  0  0  0  0
   -2.1752   -0.9307    1.2918 H   0  0  0  0  0  0  0  0  0  0  0  0
   -1.8993   -2.3317   -0.6171 H   0  0  0  0  0  0  0  0  0  0  0  0
   -1.5541   -0.9090   -1.6115 H   0  0  0  0  0  0  0  0  0  0  0  0
    0.3927   -3.2198   -1.0930 H   0  0  0  0  0  0  0  0  0  0  0  0
   -0.5125   -2.9468   -2.5908 H   0  0  0  0  0  0  0  0  0  0  0  0
    0.7377   -1.7979   -2.0869 H   0  0  0  0  0  0  0  0  0  0  0  0
  1  2  1  0
  1  4  1  0
  1  5  1  0
  1  6  1  0
  2  3  3  0
  7  8  1  0
  7 12  1  0
  7 13  1  0
  8  9  1  0
  8 14  1  0
  8 15  1  0
  9 10  1  0
 10 11  1  0
 10 16  1  0
 10 17  1  0
 11 18  1  0
 11 19  1  0
 11 20  1  0
M  RAD  1   7   2
M  END
>  <reaction>  (16) 
rmg_rxn_638

>  <mol_properties>  (16) 
{"0": {"label": "*1", "atom_type": "Cs"}, "1": {"label": "*0", "atom_type": "Ct"}, "3": {"label": "*2", "atom_type": "H0"}, "6": {"label": "*3", "atom_type": "Cs"}, "7": {"label": "*4", "atom_type": "Cs"}}

>  <type>  (16) 
unop_12

>  <geom_source>  (16) 
Heuristics

$$$$

     RDKit          3D

 20 18  0  0  0  0  0  0  0  0999 V2000
    0.8606    0.1190   -0.1024 O   0  0  0  0  0  0  0  0  0  0  0  0
   -3.5094    1.6717    1.9579 N   0  0  0  0  0  2  0  0  0  0  0  0
    0.1376    0.1584   -1.3137 C   0  0  0  0  0  0  0  0  0  0  0  0
    2.1962   -0.2551   -0.3647 C   0  0  0  0  0  0  0  0  0  0  0  0
   -1.2986    0.5610   -1.0219 C   0  0  0  0  0  0  0  0  0  0  0  0
    2.9692   -0.2962    0.9445 C   0  0  0  0  0  0  0  0  0  0  0  0
   -2.6217   -0.5610    0.9123 C   0  0  0  0  0  0  0  0  0  0  0  0
   -3.1174    0.6856    1.4961 C   0  0  0  0  0  0  0  0  0  0  0  0
    0.5748    0.9070   -2.0134 H   0  0  0  0  0  0  0  0  0  0  0  0
    0.1239   -0.8438   -1.7995 H   0  0  0  0  0  0  0  0  0  0  0  0
    2.2407   -1.2677   -0.8271 H   0  0  0  0  0  0  0  0  0  0  0  0
    2.6899    0.4831   -1.0374 H   0  0  0  0  0  0  0  0  0  0  0  0
   -1.3239    1.5668   -0.5514 H   0  0  0  0  0  0  0  0  0  0  0  0
   -1.8813    0.5895   -1.9668 H   0  0  0  0  0  0  0  0  0  0  0  0
   -1.8425   -0.3040   -0.2139 H   0  0  0  0  0  0  0  0  0  0  0  0
    2.5103   -1.0365    1.6338 H   0  0  0  0  0  0  0  0  0  0  0  0
    4.0224   -0.5898    0.7501 H   0  0  0  0  0  0  0  0  0  0  0  0
    2.9572    0.7053    1.4246 H   0  0  0  0  0  0  0  0  0  0  0  0
   -2.2410   -1.2214    1.7183 H   0  0  0  0  0  0  0  0  0  0  0  0
   -3.4470   -1.0717    0.3747 H   0  0  0  0  0  0  0  0  0  0  0  0
  1  3  1  0
  1  4  1  0
  2  8  2  0
  3  5  1  0
  3  9  1  0
  3 10  1  0
  4  6  1  0
  4 11  1  0
  4 12  1  0
  5 13  1  0
  5 14  1  0
  5 15  1  0
  6 16  1  0
  6 17  1  0
  6 18  1  0
  7  8  2  0
  7 19  1  0
  7 20  1  0
M  RAD  1   2   2
M  END
>  <reaction>  (17) 
rmg_rxn_638

>  <mol_properties>  (17) 
{"0": {"label": "*1", "atom_type": "Cs"}, "1": {"label": "*0", "atom_type": "Ct"}, "3": {"label": "*2", "atom_type": "H0"}, "6": {"label": "*3", "atom_type": "Cs"}, "7": {"label": "*4", "atom_type": "Cs"}}

>  <type>  (17) 
unop_13

>  <geom_source>  (17) 
AutoTST

$$$$

     RDKit          3D

 20 18  0  0  0  0  0  0  0  0999 V2000
    0.7440    2.1114    0.8709 C   0  0  0  0  0  0  0  0  0  0  0  0
    0.7440    2.1114   -0.5837 C   0  0  0  0  0  0  0  0  0  0  0  0
    0.7440    2.1114   -1.7302 N   0  0  0  0  0  0  0  0  0  0  0  0
   -0.2091    1.3356    1.3170 H   0  0  0  0  0  0  0  0  0  0  0  0
    1.7010    1.7469    1.2426 H   0  0  0  0  0  0  0  0  0  0  0  0
    0.5812    3.1225    1.2426 H   0  0  0  0  0  0  0  0  0  0  0  0
   -1.1630    0.5590    1.7636 C   0  0  0  0  0  3  0  0  0  0  0  0
   -1.4266   -0.5681    0.7920 C   0  0  0  0  0  0  0  0  0  0  0  0
   -0.1980   -1.0579    0.3169 O   0  0  0  0  0  0  0  0  0  0  0  0
   -0.3399   -2.1149   -0.5984 C   0  0  0  0  0  0  0  0  0  0  0  0
    1.0318   -2.5652   -1.0448 C   0  0  0  0  0  0  0  0  0  0  0  0
   -0.5672    0.2059    2.6059 H   0  0  0  0  0  0  0  0  0  0  0  0
   -2.1045    0.9559    2.1465 H   0  0  0  0  0  0  0  0  0  0  0  0
   -2.0402   -0.2143   -0.0497 H   0  0  0  0  0  0  0  0  0  0  0  0
   -1.9877   -1.3764    1.2841 H   0  0  0  0  0  0  0  0  0  0  0  0
   -0.8837   -2.9477   -0.1283 H   0  0  0  0  0  0  0  0  0  0  0  0
   -0.9363   -1.7857   -1.4622 H   0  0  0  0  0  0  0  0  0  0  0  0
    1.6188   -2.9057   -0.1910 H   0  0  0  0  0  0  0  0  0  0  0  0
    0.9466   -3.3871   -1.7574 H   0  0  0  0  0  0  0  0  0  0  0  0
    1.5663   -1.7443   -1.5241 H   0  0  0  0  0  0  0  0  0  0  0  0
  1  2  1  0
  1  4  1  0
  1  5  1  0
  1  6  1  0
  2  3  3  0
  7  8  1  0
  7 12  1  0
  7 13  1  0
  8  9  1  0
  8 14  1  0
  8 15  1  0
  9 10  1  0
 10 11  1  0
 10 16  1  0
 10 17  1  0
 11 18  1  0
 11 19  1  0
 11 20  1  0
M  RAD  1   7   2
M  END
>  <reaction>  (18) 
rmg_rxn_638

>  <mol_properties>  (18) 
{"0": {"label": "*1", "atom_type": "Cs"}, "1": {"label": "*0", "atom_type": "Ct"}, "3": {"label": "*2", "atom_type": "H0"}, "6": {"label": "*3", "atom_type": "Cs"}, "7": {"label": "*4", "atom_type": "Cs"}}

>  <type>  (18) 
unop_14

>  <geom_source>  (18) 
gaussian_log

$$$$
