
     RDKit          3D

  5  4  0  0  0  0  0  0  0  0999 V2000
    0.7361   -0.2872    0.4035 N   0  0  0  0  0  2  0  0  0  0  0  0
   -0.3891   -0.1505   -0.3131 N   0  0  0  0  0  0  0  0  0  0  0  0
    1.4909    0.0686   -0.1831 H   0  0  0  0  0  0  0  0  0  0  0  0
   -1.1819   -0.6340    0.0744 H   0  0  0  0  0  0  0  0  0  0  0  0
   -0.3592   -0.1189   -1.3223 H   0  0  0  0  0  0  0  0  0  0  0  0
  1  2  1  0
  1  3  1  0
  2  4  1  0
  2  5  1  0
M  RAD  1   1   2
M  END
>  <reaction>  (1) 
rmg_rxn_539

>  <mol_properties>  (1) 
{"0": {"label": "donator", "atom_type": "N3s"}, "2": {"label": "d_hydrogen", "atom_type": "H0"}}

>  <type>  (1) 
r1h

$$$$

     RDKit          3D

 11 10  0  0  0  0  0  0  0  0999 V2000
    2.2312    0.7411   -0.3115 C   0  0  0  0  0  3  0  0  0  0  0  0
    0.6426    1.1039   -0.7896 S   0  0  0  0  0  0  0  0  0  0  0  0
    0.9085    2.4168   -2.0061 C   0  0  0  0  0  0  0  0  0  0  0  0
    1.5570    1.9429   -3.2967 C   0  0  0  0  0  0  0  0  0  0  0  0
    2.3707   -0.0938    0.3575 H   0  0  0  0  0  0  0  0  0  0  0  0
    3.0432    1.4267   -0.5066 H   0  0  0  0  0  0  0  0  0  0  0  0
    1.4997    3.2005   -1.5289 H   0  0  0  0  0  0  0  0  0  0  0  0
   -0.0844    2.8269   -2.1951 H   0  0  0  0  0  0  0  0  0  0  0  0
    0.9451    1.1830   -3.7838 H   0  0  0  0  0  0  0  0  0  0  0  0
    1.6803    2.7812   -3.9857 H   0  0  0  0  0  0  0  0  0  0  0  0
    2.5399    1.5119   -3.1043 H   0  0  0  0  0  0  0  0  0  0  0  0
  1  2  1  0
  1  5  1  0
  1  6  1  0
  2  3  1  0
  3  4  1  0
  3  7  1  0
  3  8  1  0
  4  9  1  0
  4 10  1  0
  4 11  1  0
M  RAD  1   1   2
M  END
>  <reaction>  (2) 
rmg_rxn_539

>  <mol_properties>  (2) 
{"0": {"label": "acceptor", "atom_type": "Cs"}}

>  <type>  (2) 
r2

$$$$

     RDKit          3D

 12 11  0  0  0  0  0  0  0  0999 V2000
    1.8075    0.1979    0.4695 C   0  0  0  0  0  0  0  0  0  0  0  0
    1.0072   -0.8859   -0.7259 S   0  0  0  0  0  0  0  0  0  0  0  0
   -0.7258   -0.6904   -0.2447 C   0  0  0  0  0  0  0  0  0  0  0  0
   -1.0856   -1.2776    1.1108 C   0  0  0  0  0  0  0  0  0  0  0  0
    1.7126   -0.1777    1.4878 H   0  0  0  0  0  0  0  0  0  0  0  0
    1.4024    1.2089    0.4095 H   0  0  0  0  0  0  0  0  0  0  0  0
    2.8647    0.2298    0.2095 H   0  0  0  0  0  0  0  0  0  0  0  0
   -1.2866   -1.1892   -1.0369 H   0  0  0  0  0  0  0  0  0  0  0  0
   -0.9814    0.3707   -0.2917 H   0  0  0  0  0  0  0  0  0  0  0  0
   -0.5492   -0.7768    1.9180 H   0  0  0  0  0  0  0  0  0  0  0  0
   -0.8418   -2.3397    1.1503 H   0  0  0  0  0  0  0  0  0  0  0  0
   -2.1545   -1.1604    1.3035 H   0  0  0  0  0  0  0  0  0  0  0  0
  1  2  1  0
  1  5  1  0
  1  6  1  0
  1  7  1  0
  2  3  1  0
  3  4  1  0
  3  8  1  0
  3  9  1  0
  4 10  1  0
  4 11  1  0
  4 12  1  0
M  END
>  <reaction>  (3) 
rmg_rxn_539

>  <mol_properties>  (3) 
{"0": {"label": "a_hydrogen", "atom_type": "H0"}, "1": {"label": "acceptor", "atom_type": "Cs"}}

>  <type>  (3) 
r2h

$$$$

     RDKit          3D

 16 14  0  0  0  0  0  0  0  0999 V2000
    0.6285   -2.4117    0.4038 N   0  0  0  0  0  2  0  0  0  0  0  0
   -0.4324   -2.5606   -0.3927 N   0  0  0  0  0  0  0  0  0  0  0  0
    0.4173   -1.3339    0.9342 H   0  0  0  0  0  0  0  0  0  0  0  0
   -0.3200   -3.2533   -1.1181 H   0  0  0  0  0  0  0  0  0  0  0  0
   -0.9406   -1.7195   -0.6684 H   0  0  0  0  0  0  0  0  0  0  0  0
   -0.0348   -0.0795    1.3304 C   0  0  0  0  0  3  0  0  0  0  0  0
   -0.7971    0.7101   -0.0362 S   0  0  0  0  0  0  0  0  0  0  0  0
    0.6271    0.9542   -1.1313 C   0  0  0  0  0  0  0  0  0  0  0  0
    1.5846    2.0456   -0.6823 C   0  0  0  0  0  0  0  0  0  0  0  0
   -0.7605   -0.2741    2.1153 H   0  0  0  0  0  0  0  0  0  0  0  0
    0.8690    0.4003    1.6995 H   0  0  0  0  0  0  0  0  0  0  0  0
    0.1930    1.1987   -2.1017 H   0  0  0  0  0  0  0  0  0  0  0  0
    1.1380   -0.0055   -1.2290 H   0  0  0  0  0  0  0  0  0  0  0  0
    2.0335    1.8116    0.2835 H   0  0  0  0  0  0  0  0  0  0  0  0
    2.3957    2.1513   -1.4056 H   0  0  0  0  0  0  0  0  0  0  0  0
    1.0723    3.0042   -0.5963 H   0  0  0  0  0  0  0  0  0  0  0  0
  1  2  1  0
  1  3  1  0
  2  4  1  0
  2  5  1  0
  6  7  1  0
  6 10  1  0
  6 11  1  0
  7  8  1  0
  8  9  1  0
  8 12  1  0
  8 13  1  0
  9 14  1  0
  9 15  1  0
  9 16  1  0
M  RAD  2   1   2   6   2
M  END
>  <reaction>  (4) 
rmg_rxn_539

>  <mol_properties>  (4) 
{"0": {"label": "*1", "atom_type": "N3s"}, "1": {"label": "*0", "atom_type": "N3s"}, "2": {"label": "*2", "atom_type": "H0"}, "5": {"label": "*3", "atom_type": "Cs"}, "6": {"label": "*4", "atom_type": "S2s"}}

>  <type>  (4) 
ts

$$$$

     RDKit          3D

 16 14  0  0  0  0  0  0  0  0999 V2000
    1.0671   -2.3333   -0.4231 N   0  0  0  0  0  2  0  0  0  0  0  0
    1.0671   -2.3333   -1.7641 N   0  0  0  0  0  0  0  0  0  0  0  0
    1.0671   -1.1575   -0.0829 H   0  0  0  0  0  0  0  0  0  0  0  0
    1.2551   -3.2333   -2.1729 H   0  0  0  0  0  0  0  0  0  0  0  0
    1.4291   -1.5449   -2.2816 H   0  0  0  0  0  0  0  0  0  0  0  0
    1.0671    0.0998    0.2810 C   0  0  0  0  0  3  0  0  0  0  0  0
   -0.3905    0.4822    1.2677 S   0  0  0  0  0  0  0  0  0  0  0  0
   -1.4851    1.1591   -0.0038 C   0  0  0  0  0  0  0  0  0  0  0  0
   -1.0481    2.4958   -0.5815 C   0  0  0  0  0  0  0  0  0  0  0  0
    1.7706   -0.4078    0.9395 H   0  0  0  0  0  0  0  0  0  0  0  0
    1.5437    0.9992   -0.1076 H   0  0  0  0  0  0  0  0  0  0  0  0
   -2.4520    1.2565    0.4927 H   0  0  0  0  0  0  0  0  0  0  0  0
   -1.6046    0.4123   -0.7922 H   0  0  0  0  0  0  0  0  0  0  0  0
   -0.0919    2.4132   -1.1002 H   0  0  0  0  0  0  0  0  0  0  0  0
   -1.7843    2.8559   -1.3038 H   0  0  0  0  0  0  0  0  0  0  0  0
   -0.9426    3.2426    0.2059 H   0  0  0  0  0  0  0  0  0  0  0  0
  1  2  1  0
  1  3  1  0
  2  4  1  0
  2  5  1  0
  6  7  1  0
  6 10  1  0
  6 11  1  0
  7  8  1  0
  8  9  1  0
  8 12  1  0
  8 13  1  0
  9 14  1  0
  9 15  1  0
  9 16  1  0
M  RAD  2   1   2   6   2
M  END
>  <reaction>  (5) 
rmg_rxn_539

>  <mol_properties>  (5) 
{"0": {"label": "*1", "atom_type": "N3s"}, "1": {"label": "*0", "atom_type": "N3s"}, "2": {"label": "*2", "atom_type": "H0"}, "5": {"label": "*3", "atom_type": "Cs"}, "6": {"label": "*4", "atom_type": "S2s"}}

>  <type>  (5) 
unop_1

>  <geom_source>  (5) 
Heuristics

$$$$

     RDKit          3D

 16 14  0  0  0  0  0  0  0  0999 V2000
   -0.0495   -2.4432    0.7207 N   0  0  0  0  0  2  0  0  0  0  0  0
   -0.0495   -2.4432   -0.6203 N   0  0  0  0  0  0  0  0  0  0  0  0
   -0.0495   -1.2674    1.0609 H   0  0  0  0  0  0  0  0  0  0  0  0
    0.1384   -3.3431   -1.0292 H   0  0  0  0  0  0  0  0  0  0  0  0
    0.3124   -1.6548   -1.1378 H   0  0  0  0  0  0  0  0  0  0  0  0
   -0.0495   -0.0101    1.4247 C   0  0  0  0  0  3  0  0  0  0  0  0
   -0.8911    1.0114    0.2029 S   0  0  0  0  0  0  0  0  0  0  0  0
    0.3538    1.0547   -1.1092 C   0  0  0  0  0  0  0  0  0  0  0  0
    1.6195    1.8247   -0.7677 C   0  0  0  0  0  0  0  0  0  0  0  0
   -0.7572   -0.1821    2.2346 H   0  0  0  0  0  0  0  0  0  0  0  0
    0.8307    0.4851    1.8334 H   0  0  0  0  0  0  0  0  0  0  0  0
   -0.1574    1.5180   -1.9547 H   0  0  0  0  0  0  0  0  0  0  0  0
    0.5870    0.0280   -1.4003 H   0  0  0  0  0  0  0  0  0  0  0  0
    2.1554    1.3637    0.0633 H   0  0  0  0  0  0  0  0  0  0  0  0
    2.2956    1.8432   -1.6256 H   0  0  0  0  0  0  0  0  0  0  0  0
    1.3850    2.8529   -0.4904 H   0  0  0  0  0  0  0  0  0  0  0  0
  1  2  1  0
  1  3  1  0
  2  4  1  0
  2  5  1  0
  6  7  1  0
  6 10  1  0
  6 11  1  0
  7  8  1  0
  8  9  1  0
  8 12  1  0
  8 13  1  0
  9 14  1  0
  9 15  1  0
  9 16  1  0
M  RAD  2   1   2   6   2
M  END
>  <reaction>  (6) 
rmg_rxn_539

>  <mol_properties>  (6) 
{"0": {"label": "*1", "atom_type": "N3s"}, "1": {"label": "*0", "atom_type": "N3s"}, "2": {"label": "*2", "atom_type": "H0"}, "5": {"label": "*3", "atom_type": "Cs"}, "6": {"label": "*4", "atom_type": "S2s"}}

>  <type>  (6) 
unop_2

>  <geom_source>  (6) 
Heuristics

$$$$

     RDKit          3D

 16 14  0  0  0  0  0  0  0  0999 V2000
    0.9957   -2.0766   -0.9294 N   0  0  0  0  0  2  0  0  0  0  0  0
    0.9957   -2.0766   -2.2704 N   0  0  0  0  0  0  0  0  0  0  0  0
    0.9957   -0.9008   -0.5892 H   0  0  0  0  0  0  0  0  0  0  0  0
    1.1837   -2.9765   -2.6792 H   0  0  0  0  0  0  0  0  0  0  0  0
    1.3577   -1.2882   -2.7879 H   0  0  0  0  0  0  0  0  0  0  0  0
    0.9957    0.3565   -0.2253 C   0  0  0  0  0  3  0  0  0  0  0  0
    0.1542    0.5676    1.3532 S   0  0  0  0  0  0  0  0  0  0  0  0
   -1.5626    0.7057    0.7994 C   0  0  0  0  0  0  0  0  0  0  0  0
   -1.8851    1.9692    0.0176 C   0  0  0  0  0  0  0  0  0  0  0  0
    2.0448    0.1678   -0.0017 H   0  0  0  0  0  0  0  0  0  0  0  0
    0.9291    1.2498   -0.8455 H   0  0  0  0  0  0  0  0  0  0  0  0
   -2.1495    0.6663    1.7186 H   0  0  0  0  0  0  0  0  0  0  0  0
   -1.8136   -0.1867    0.2215 H   0  0  0  0  0  0  0  0  0  0  0  0
   -1.3221    2.0158   -0.9157 H   0  0  0  0  0  0  0  0  0  0  0  0
   -2.9471    1.9974   -0.2368 H   0  0  0  0  0  0  0  0  0  0  0  0
   -1.6460    2.8583    0.6018 H   0  0  0  0  0  0  0  0  0  0  0  0
  1  2  1  0
  1  3  1  0
  2  4  1  0
  2  5  1  0
  6  7  1  0
  6 10  1  0
  6 11  1  0
  7  8  1  0
  8  9  1  0
  8 12  1  0
  8 13  1  0
  9 14  1  0
  9 15  1  0
  9 16  1  0
M  RAD  2   1   2   6   2
M  END
>  <reaction>  (7) 
rmg_rxn_539

>  <mol_properties>  (7) 
{"0": {"label": "*1", "atom_type": "N3s"}, "1": {"label": "*0", "atom_type": "N3s"}, "2": {"label": "*2", "atom_type": "H0"}, "5": {"label": "*3", "atom_type": "Cs"}, "6": {"label": "*4", "atom_type": "S2s"}}

>  <type>  (7) 
unop_3

>  <geom_source>  (7) 
Heuristics

$$$$

     RDKit          3D

 16 14  0  0  0  0  0  0  0  0999 V2000
   -1.2219   -1.7442   -0.0675 N   0  0  0  0  0  2  0  0  0  0  0  0
   -1.2219   -1.7442   -1.4085 N   0  0  0  0  0  0  0  0  0  0  0  0
   -1.2219   -0.5684    0.2728 H   0  0  0  0  0  0  0  0  0  0  0  0
   -1.0340   -2.6442   -1.8173 H   0  0  0  0  0  0  0  0  0  0  0  0
   -0.8599   -0.9558   -1.9259 H   0  0  0  0  0  0  0  0  0  0  0  0
   -1.2219    0.6889    0.6366 C   0  0  0  0  0  3  0  0  0  0  0  0
    0.2357    1.5391    0.0065 S   0  0  0  0  0  0  0  0  0  0  0  0
    1.3759    0.1476   -0.1852 C   0  0  0  0  0  0  0  0  0  0  0  0
    1.8336   -0.4912    1.1163 C   0  0  0  0  0  0  0  0  0  0  0  0
   -2.0168    1.4305    0.7026 H   0  0  0  0  0  0  0  0  0  0  0  0
   -1.0537    0.2724    1.6291 H   0  0  0  0  0  0  0  0  0  0  0  0
    2.2276    0.5654   -0.7246 H   0  0  0  0  0  0  0  0  0  0  0  0
    0.9131   -0.5922   -0.8425 H   0  0  0  0  0  0  0  0  0  0  0  0
    0.9973   -0.9328    1.6601 H   0  0  0  0  0  0  0  0  0  0  0  0
    2.5533   -1.2881    0.9155 H   0  0  0  0  0  0  0  0  0  0  0  0
    2.3070    0.2467    1.7648 H   0  0  0  0  0  0  0  0  0  0  0  0
  1  2  1  0
  1  3  1  0
  2  4  1  0
  2  5  1  0
  6  7  1  0
  6 10  1  0
  6 11  1  0
  7  8  1  0
  8  9  1  0
  8 12  1  0
  8 13  1  0
  9 14  1  0
  9 15  1  0
  9 16  1  0
M  RAD  2   1   2   6   2
M  END
>  <reaction>  (8) 
rmg_rxn_539

>  <mol_properties>  (8) 
{"0": {"label": "*1", "atom_type": "N3s"}, "1": {"label": "*0", "atom_type": "N3s"}, "2": {"label": "*2", "atom_type": "H0"}, "5": {"label": "*3", "atom_type": "Cs"}, "6": {"label": "*4", "atom_type": "S2s"}}

>  <type>  (8) 
unop_4

>  <geom_source>  (8) 
Heuristics

$$$$

     RDKit          3D

 16 14  0  0  0  0  0  0  0  0999 V2000
    0.5941   -1.6494   -1.3689 N   0  0  0  0  0  2  0  0  0  0  0  0
    0.5941   -1.6494   -2.7098 N   0  0  0  0  0  0  0  0  0  0  0  0
    0.5941   -0.4736   -1.0286 H   0  0  0  0  0  0  0  0  0  0  0  0
    0.7821   -2.5494   -3.1187 H   0  0  0  0  0  0  0  0  0  0  0  0
    0.9561   -0.8610   -3.2273 H   0  0  0  0  0  0  0  0  0  0  0  0
    0.5941    0.7837   -0.6648 C   0  0  0  0  0  3  0  0  0  0  0  0
    0.5941    0.9321    1.1303 S   0  0  0  0  0  0  0  0  0  0  0  0
   -0.8888   -0.0184    1.5430 C   0  0  0  0  0  0  0  0  0  0  0  0
   -2.1996    0.6140    1.1030 C   0  0  0  0  0  0  0  0  0  0  0  0
    1.5119    1.2498   -1.0207 H   0  0  0  0  0  0  0  0  0  0  0  0
   -0.2533    1.2984   -1.1164 H   0  0  0  0  0  0  0  0  0  0  0  0
   -0.8578   -0.1138    2.6297 H   0  0  0  0  0  0  0  0  0  0  0  0
   -0.7820   -1.0244    1.1308 H   0  0  0  0  0  0  0  0  0  0  0  0
   -2.2572    0.6987    0.0169 H   0  0  0  0  0  0  0  0  0  0  0  0
   -3.0443    0.0038    1.4309 H   0  0  0  0  0  0  0  0  0  0  0  0
   -2.3096    1.6127    1.5267 H   0  0  0  0  0  0  0  0  0  0  0  0
  1  2  1  0
  1  3  1  0
  2  4  1  0
  2  5  1  0
  6  7  1  0
  6 10  1  0
  6 11  1  0
  7  8  1  0
  8  9  1  0
  8 12  1  0
  8 13  1  0
  9 14  1  0
  9 15  1  0
  9 16  1  0
M  RAD  2   1   2   6   2
M  END
>  <reaction>  (9) 
rmg_rxn_539

>  <mol_properties>  (9) 
{"0": {"label": "*1", "atom_type": "N3s"}, "1": {"label": "*0", "atom_type": "N3s"}, "2": {"label": "*2", "atom_type": "H0"}, "5": {"label": "*3", "atom_type": "Cs"}, "6": {"label": "*4", "atom_type": "S2s"}}

>  <type>  (9) 
unop_5

>  <geom_source>  (9) 
Heuristics

$$$$

     RDKit          3D

 16 14  0  0  0  0  0  0  0  0999 V2000
   -1.1858   -1.5389   -0.6049 N   0  0  0  0  0  2  0  0  0  0  0  0
   -1.1858   -1.5389   -1.9459 N   0  0  0  0  0  0  0  0  0  0  0  0
   -1.1858   -0.3631   -0.2647 H   0  0  0  0  0  0  0  0  0  0  0  0
   -0.9978   -2.4389   -2.3548 H   0  0  0  0  0  0  0  0  0  0  0  0
   -0.8238   -0.7505   -2.4634 H   0  0  0  0  0  0  0  0  0  0  0  0
   -1.1858    0.8942    0.0991 C   0  0  0  0  0  3  0  0  0  0  0  0
    0.4973    1.5105    0.2775 S   0  0  0  0  0  0  0  0  0  0  0  0
    1.4134   -0.0466    0.3755 C   0  0  0  0  0  0  0  0  0  0  0  0
    1.1640   -0.8596    1.6358 C   0  0  0  0  0  0  0  0  0  0  0  0
   -1.8244    1.7612   -0.0642 H   0  0  0  0  0  0  0  0  0  0  0  0
   -1.5274    0.3765    0.9948 H   0  0  0  0  0  0  0  0  0  0  0  0
    2.4619    0.2498    0.3146 H   0  0  0  0  0  0  0  0  0  0  0  0
    1.1950   -0.6345   -0.5190 H   0  0  0  0  0  0  0  0  0  0  0  0
    0.1241   -1.1824    1.7034 H   0  0  0  0  0  0  0  0  0  0  0  0
    1.7880   -1.7563    1.6386 H   0  0  0  0  0  0  0  0  0  0  0  0
    1.3954   -0.2748    2.5266 H   0  0  0  0  0  0  0  0  0  0  0  0
  1  2  1  0
  1  3  1  0
  2  4  1  0
  2  5  1  0
  6  7  1  0
  6 10  1  0
  6 11  1  0
  7  8  1  0
  8  9  1  0
  8 12  1  0
  8 13  1  0
  9 14  1  0
  9 15  1  0
  9 16  1  0
M  RAD  2   1   2   6   2
M  END
>  <reaction>  (10) 
rmg_rxn_539

>  <mol_properties>  (10) 
{"0": {"label": "*1", "atom_type": "N3s"}, "1": {"label": "*0", "atom_type": "N3s"}, "2": {"label": "*2", "atom_type": "H0"}, "5": {"label": "*3", "atom_type": "Cs"}, "6": {"label": "*4", "atom_type": "S2s"}}

>  <type>  (10) 
unop_6

>  <geom_source>  (10) 
Heuristics

$$$$

     RDKit          3D

 16 14  0  0  0  0  0  0  0  0999 V2000
   -0.8520   -1.3867   -1.1231 N   0  0  0  0  0  2  0  0  0  0  0  0
   -0.8520   -1.3867   -2.4641 N   0  0  0  0  0  0  0  0  0  0  0  0
   -0.8520   -0.2109   -0.7829 H   0  0  0  0  0  0  0  0  0  0  0  0
   -0.6641   -2.2866   -2.8729 H   0  0  0  0  0  0  0  0  0  0  0  0
   -0.4900   -0.5983   -2.9816 H   0  0  0  0  0  0  0  0  0  0  0  0
   -0.8520    1.0465   -0.4190 C   0  0  0  0  0  3  0  0  0  0  0  0
    0.6056    1.4288    0.5677 S   0  0  0  0  0  0  0  0  0  0  0  0
    1.1422   -0.2365    1.0282 C   0  0  0  0  0  0  0  0  0  0  0  0
    0.2119   -0.9699    1.9812 C   0  0  0  0  0  0  0  0  0  0  0  0
   -1.2101    1.9883   -0.8324 H   0  0  0  0  0  0  0  0  0  0  0  0
   -1.6475    0.6074    0.1821 H   0  0  0  0  0  0  0  0  0  0  0  0
    2.1207   -0.0900    1.4884 H   0  0  0  0  0  0  0  0  0  0  0  0
    1.3018   -0.8145    0.1150 H   0  0  0  0  0  0  0  0  0  0  0  0
   -0.7661   -1.1436    1.5300 H   0  0  0  0  0  0  0  0  0  0  0  0
    0.6302   -1.9438    2.2455 H   0  0  0  0  0  0  0  0  0  0  0  0
    0.0649   -0.3969    2.8973 H   0  0  0  0  0  0  0  0  0  0  0  0
  1  2  1  0
  1  3  1  0
  2  4  1  0
  2  5  1  0
  6  7  1  0
  6 10  1  0
  6 11  1  0
  7  8  1  0
  8  9  1  0
  8 12  1  0
  8 13  1  0
  9 14  1  0
  9 15  1  0
  9 16  1  0
M  RAD  2   1   2   6   2
M  END
>  <reaction>  (11) 
rmg_rxn_539

>  <mol_properties>  (11) 
{"0": {"label": "*1", "atom_type": "N3s"}, "1": {"label": "*0", "atom_type": "N3s"}, "2": {"label": "*2", "atom_type": "H0"}, "5": {"label": "*3", "atom_type": "Cs"}, "6": {"label": "*4", "atom_type": "S2s"}}

>  <type>  (11) 
unop_7

>  <geom_source>  (11) 
Heuristics

$$$$

     RDKit          3D

 16 14  0  0  0  0  0  0  0  0999 V2000
    0.9051   -2.4779    0.0895 N   0  0  0  0  0  2  0  0  0  0  0  0
    0.9051   -2.4779   -1.2515 N   0  0  0  0  0  0  0  0  0  0  0  0
    0.9051   -1.3021    0.4297 H   0  0  0  0  0  0  0  0  0  0  0  0
    1.0930   -3.3779   -1.6604 H   0  0  0  0  0  0  0  0  0  0  0  0
    1.2671   -1.6895   -1.7690 H   0  0  0  0  0  0  0  0  0  0  0  0
    0.9051   -0.0448    0.7935 C   0  0  0  0  0  3  0  0  0  0  0  0
   -0.7780    0.5715    0.9718 S   0  0  0  0  0  0  0  0  0  0  0  0
   -1.0254    1.3378   -0.6482 C   0  0  0  0  0  0  0  0  0  0  0  0
   -0.1851    2.5783   -0.9064 C   0  0  0  0  0  0  0  0  0  0  0  0
    1.1299   -0.6157    1.6934 H   0  0  0  0  0  0  0  0  0  0  0  0
    1.6287    0.7651    0.7074 H   0  0  0  0  0  0  0  0  0  0  0  0
   -2.0879    1.5855   -0.6731 H   0  0  0  0  0  0  0  0  0  0  0  0
   -0.8552    0.5825   -1.4189 H   0  0  0  0  0  0  0  0  0  0  0  0
    0.8808    2.3458   -0.9056 H   0  0  0  0  0  0  0  0  0  0  0  0
   -0.4282    3.0050   -1.8822 H   0  0  0  0  0  0  0  0  0  0  0  0
   -0.3669    3.3355   -0.1432 H   0  0  0  0  0  0  0  0  0  0  0  0
  1  2  1  0
  1  3  1  0
  2  4  1  0
  2  5  1  0
  6  7  1  0
  6 10  1  0
  6 11  1  0
  7  8  1  0
  8  9  1  0
  8 12  1  0
  8 13  1  0
  9 14  1  0
  9 15  1  0
  9 16  1  0
M  RAD  2   1   2   6   2
M  END
>  <reaction>  (12) 
rmg_rxn_539

>  <mol_properties>  (12) 
{"0": {"label": "*1", "atom_type": "N3s"}, "1": {"label": "*0", "atom_type": "N3s"}, "2": {"label": "*2", "atom_type": "H0"}, "5": {"label": "*3", "atom_type": "Cs"}, "6": {"label": "*4", "atom_type": "S2s"}}

>  <type>  (12) 
unop_8

>  <geom_source>  (12) 
Heuristics

$$$$

     RDKit          3D

 16 14  0  0  0  0  0  0  0  0999 V2000
   -1.0140   -1.9828    0.3802 N   0  0  0  0  0  2  0  0  0  0  0  0
   -1.0140   -1.9828   -0.9608 N   0  0  0  0  0  0  0  0  0  0  0  0
   -1.0140   -0.8070    0.7204 H   0  0  0  0  0  0  0  0  0  0  0  0
   -0.8261   -2.8827   -1.3697 H   0  0  0  0  0  0  0  0  0  0  0  0
   -0.6520   -1.1944   -1.4783 H   0  0  0  0  0  0  0  0  0  0  0  0
   -1.0140    0.4504    1.0843 C   0  0  0  0  0  3  0  0  0  0  0  0
   -0.1725    1.4718   -0.1376 S   0  0  0  0  0  0  0  0  0  0  0  0
    1.1883    0.3760   -0.6073 C   0  0  0  0  0  0  0  0  0  0  0  0
    2.2256    0.1391    0.4788 C   0  0  0  0  0  0  0  0  0  0  0  0
   -1.9190    0.9833    1.3728 H   0  0  0  0  0  0  0  0  0  0  0  0
   -0.4053    0.2946    1.9743 H   0  0  0  0  0  0  0  0  0  0  0  0
    1.6450    0.8631   -1.4704 H   0  0  0  0  0  0  0  0  0  0  0  0
    0.7674   -0.5687   -0.9590 H   0  0  0  0  0  0  0  0  0  0  0  0
    1.7911   -0.3662    1.3426 H   0  0  0  0  0  0  0  0  0  0  0  0
    3.0338   -0.4913    0.1007 H   0  0  0  0  0  0  0  0  0  0  0  0
    2.6536    1.0827    0.8186 H   0  0  0  0  0  0  0  0  0  0  0  0
  1  2  1  0
  1  3  1  0
  2  4  1  0
  2  5  1  0
  6  7  1  0
  6 10  1  0
  6 11  1  0
  7  8  1  0
  8  9  1  0
  8 12  1  0
  8 13  1  0
  9 14  1  0
  9 15  1  0
  9 16  1  0
M  RAD  2   1   2   6   2
M  END
>  <reaction>  (13) 
rmg_rxn_539

>  <mol_properties>  (13) 
{"0": {"label": "*1", "atom_type": "N3s"}, "1": {"label": "*0", "atom_type": "N3s"}, "2": {"label": "*2", "atom_type": "H0"}, "5": {"label": "*3", "atom_type": "Cs"}, "6": {"label": "*4", "atom_type": "S2s"}}

>  <type>  (13) 
unop_9

>  <geom_source>  (13) 
Heuristics

$$$$

     RDKit          3D

 16 14  0  0  0  0  0  0  0  0999 V2000
    0.5072   -2.5242    0.5093 N   0  0  0  0  0  2  0  0  0  0  0  0
    0.5072   -2.5242   -0.8317 N   0  0  0  0  0  0  0  0  0  0  0  0
    0.5072   -1.3484    0.8495 H   0  0  0  0  0  0  0  0  0  0  0  0
    0.6952   -3.4242   -1.2406 H   0  0  0  0  0  0  0  0  0  0  0  0
    0.8692   -1.7358   -1.3492 H   0  0  0  0  0  0  0  0  0  0  0  0
    0.5072   -0.0911    1.2134 C   0  0  0  0  0  3  0  0  0  0  0  0
   -0.9504    0.7591    0.5833 S   0  0  0  0  0  0  0  0  0  0  0  0
   -0.3481    1.2974   -1.0356 C   0  0  0  0  0  0  0  0  0  0  0  0
    0.7343    2.3644   -0.9953 C   0  0  0  0  0  0  0  0  0  0  0  0
    0.2237   -0.5438    2.1625 H   0  0  0  0  0  0  0  0  0  0  0  0
    1.3347    0.5952    1.3904 H   0  0  0  0  0  0  0  0  0  0  0  0
   -1.2363    1.6749   -1.5450 H   0  0  0  0  0  0  0  0  0  0  0  0
   -0.0109    0.4187   -1.5900 H   0  0  0  0  0  0  0  0  0  0  0  0
    1.6383    1.9978   -0.5070 H   0  0  0  0  0  0  0  0  0  0  0  0
    1.0070    2.6667   -2.0089 H   0  0  0  0  0  0  0  0  0  0  0  0
    0.3902    3.2454   -0.4527 H   0  0  0  0  0  0  0  0  0  0  0  0
  1  2  1  0
  1  3  1  0
  2  4  1  0
  2  5  1  0
  6  7  1  0
  6 10  1  0
  6 11  1  0
  7  8  1  0
  8  9  1  0
  8 12  1  0
  8 13  1  0
  9 14  1  0
  9 15  1  0
  9 16  1  0
M  RAD  2   1   2   6   2
M  END
>  <reaction>  (14) 
rmg_rxn_539

>  <mol_properties>  (14) 
{"0": {"label": "*1", "atom_type": "N3s"}, "1": {"label": "*0", "atom_type": "N3s"}, "2": {"label": "*2", "atom_type": "H0"}, "5": {"label": "*3", "atom_type": "Cs"}, "6": {"label": "*4", "atom_type": "S2s"}}

>  <type>  (14) 
unop_10

>  <geom_source>  (14) 
Heuristics

$$$$

     RDKit          3D

 16 14  0  0  0  0  0  0  0  0999 V2000
   -0.1977   -1.3650   -1.4556 N   0  0  0  0  0  2  0  0  0  0  0  0
   -0.1977   -1.3650   -2.7966 N   0  0  0  0  0  0  0  0  0  0  0  0
   -0.1977   -0.1892   -1.1154 H   0  0  0  0  0  0  0  0  0  0  0  0
   -0.0097   -2.2649   -3.2055 H   0  0  0  0  0  0  0  0  0  0  0  0
    0.1643   -0.5766   -3.3141 H   0  0  0  0  0  0  0  0  0  0  0  0
   -0.1977    1.0681   -0.7515 C   0  0  0  0  0  3  0  0  0  0  0  0
    0.6439    1.2792    0.8270 S   0  0  0  0  0  0  0  0  0  0  0  0
    0.3602   -0.3434    1.5752 C   0  0  0  0  0  0  0  0  0  0  0  0
   -1.0854   -0.6361    1.9441 C   0  0  0  0  0  0  0  0  0  0  0  0
   -0.0087    1.9691   -1.3337 H   0  0  0  0  0  0  0  0  0  0  0  0
   -1.2742    0.9553   -0.6277 H   0  0  0  0  0  0  0  0  0  0  0  0
    0.9889   -0.3459    2.4671 H   0  0  0  0  0  0  0  0  0  0  0  0
    0.7553   -1.1090    0.9035 H   0  0  0  0  0  0  0  0  0  0  0  0
   -1.7262   -0.6579    1.0614 H   0  0  0  0  0  0  0  0  0  0  0  0
   -1.1629   -1.6107    2.4313 H   0  0  0  0  0  0  0  0  0  0  0  0
   -1.4730    0.1224    2.6250 H   0  0  0  0  0  0  0  0  0  0  0  0
  1  2  1  0
  1  3  1  0
  2  4  1  0
  2  5  1  0
  6  7  1  0
  6 10  1  0
  6 11  1  0
  7  8  1  0
  8  9  1  0
  8 12  1  0
  8 13  1  0
  9 14  1  0
  9 15  1  0
  9 16  1  0
M  RAD  2   1   2   6   2
M  END
>  <reaction>  (15) 
rmg_rxn_539

>  <mol_properties>  (15) 
{"0": {"label": "*1", "atom_type": "N3s"}, "1": {"label": "*0", "atom_type": "N3s"}, "2": {"label": "*2", "atom_type": "H0"}, "5": {"label": "*3", "atom_type": "Cs"}, "6": {"label": "*4", "atom_type": "S2s"}}

>  <type>  (15) 
unop_11

>  <geom_source>  (15) 
Heuristics

$$$$

     RDKit          3D

 16 14  0  0  0  0  0  0  0  0999 V2000
   -0.6046   -2.2382    0.6660 N   0  0  0  0  0  2  0  0  0  0  0  0
   -0.6046   -2.2382   -0.6750 N   0  0  0  0  0  0  0  0  0  0  0  0
   -0.6046   -1.0624    1.0062 H   0  0  0  0  0  0  0  0  0  0  0  0
   -0.4166   -3.1382   -1.0839 H   0  0  0  0  0  0  0  0  0  0  0  0
   -0.2426   -1.4498   -1.1925 H   0  0  0  0  0  0  0  0  0  0  0  0
   -0.6046    0.1949    1.3701 C   0  0  0  0  0  3  0  0  0  0  0  0
   -0.6046    1.2790   -0.0684 S   0  0  0  0  0  0  0  0  0  0  0  0
    0.8784    0.6957   -0.9250 C   0  0  0  0  0  0  0  0  0  0  0  0
    2.1891    0.9954   -0.2152 C   0  0  0  0  0  0  0  0  0  0  0  0
   -1.5224    0.3989    1.9199 H   0  0  0  0  0  0  0  0  0  0  0  0
    0.2428    0.3889    2.0267 H   0  0  0  0  0  0  0  0  0  0  0  0
    0.8473    1.1954   -1.8946 H   0  0  0  0  0  0  0  0  0  0  0  0
    0.7716   -0.3750   -1.1136 H   0  0  0  0  0  0  0  0  0  0  0  0
    2.2468    0.4871    0.7483 H   0  0  0  0  0  0  0  0  0  0  0  0
    3.0338    0.6547   -0.8183 H   0  0  0  0  0  0  0  0  0  0  0  0
    2.2992    2.0661   -0.0401 H   0  0  0  0  0  0  0  0  0  0  0  0
  1  2  1  0
  1  3  1  0
  2  4  1  0
  2  5  1  0
  6  7  1  0
  6 10  1  0
  6 11  1  0
  7  8  1  0
  8  9  1  0
  8 12  1  0
  8 13  1  0
  9 14  1  0
  9 15  1  0
  9 16  1  0
M  RAD  2   1   2   6   2
M  END
>  <reaction>  (16) 
rmg_rxn_539

>  <mol_properties>  (16) 
{"0": {"label": "*1", "atom_type": "N3s"}, "1": {"label": "*0", "atom_type": "N3s"}, "2": {"label": "*2", "atom_type": "H0"}, "5": {"label": "*3", "atom_type": "Cs"}, "6": {"label": "*4", "atom_type": "S2s"}}

>  <type>  (16) 
unop_12

>  <geom_source>  (16) 
Heuristics

$$$$

     RDKit          3D

 16 14  0  0  0  0  0  0  0  0999 V2000
   -0.0495   -2.4432    0.7207 N   0  0  0  0  0  2  0  0  0  0  0  0
   -0.0495   -2.4432   -0.6203 N   0  0  0  0  0  0  0  0  0  0  0  0
   -0.0495   -1.2674    1.0609 H   0  0  0  0  0  0  0  0  0  0  0  0
    0.1384   -3.3432   -1.0292 H   0  0  0  0  0  0  0  0  0  0  0  0
    0.3124   -1.6548   -1.1378 H   0  0  0  0  0  0  0  0  0  0  0  0
   -0.0495   -0.0101    1.4247 C   0  0  0  0  0  3  0  0  0  0  0  0
   -0.8911    1.0114    0.2029 S   0  0  0  0  0  0  0  0  0  0  0  0
    0.3538    1.0547   -1.1092 C   0  0  0  0  0  0  0  0  0  0  0  0
    1.6195    1.8247   -0.7677 C   0  0  0  0  0  0  0  0  0  0  0  0
   -0.7572   -0.1821    2.2346 H   0  0  0  0  0  0  0  0  0  0  0  0
    0.8306    0.4851    1.8334 H   0  0  0  0  0  0  0  0  0  0  0  0
   -0.1574    1.5180   -1.9547 H   0  0  0  0  0  0  0  0  0  0  0  0
    0.5870    0.0280   -1.4003 H   0  0  0  0  0  0  0  0  0  0  0  0
    2.1554    1.3637    0.0633 H   0  0  0  0  0  0  0  0  0  0  0  0
    2.2956    1.8432   -1.6256 H   0  0  0  0  0  0  0  0  0  0  0  0
    1.3850    2.8529   -0.4904 H   0  0  0  0  0  0  0  0  0  0  0  0
  1  2  1  0
  1  3  1  0
  2  4  1  0
  2  5  1  0
  6  7  1  0
  6 10  1  0
  6 11  1  0
  7  8  1  0
  8  9  1  0
  8 12  1  0
  8 13  1  0
  9 14  1  0
  9 15  1  0
  9 16  1  0
M  RAD  2   1   2   6   2
M  END
>  <reaction>  (17) 
rmg_rxn_539

>  <mol_properties>  (17) 
{"0": {"label": "*1", "atom_type": "N3s"}, "1": {"label": "*0", "atom_type": "N3s"}, "2": {"label": "*2", "atom_type": "H0"}, "5": {"label": "*3", "atom_type": "Cs"}, "6": {"label": "*4", "atom_type": "S2s"}}

>  <type>  (17) 
unop_13

>  <geom_source>  (17) 
gaussian_log

$$$$
