
     RDKit          3D

 15 14  0  0  0  0  0  0  0  0999 V2000
    2.4145    0.0817    0.4065 C   0  0  0  0  0  0  0  0  0  0  0  0
    1.1257   -0.2220   -0.3219 C   0  0  0  0  0  0  0  0  0  0  0  0
    1.0983   -1.5879   -0.6512 O   0  0  0  0  0  0  0  0  0  0  0  0
   -0.0685   -1.9694   -1.3352 C   0  0  0  0  0  0  0  0  0  0  0  0
    0.0024   -3.4478   -1.6403 C   0  0  0  0  0  0  0  0  0  0  0  0
    3.2736   -0.1534   -0.2229 H   0  0  0  0  0  0  0  0  0  0  0  0
    2.4581    1.1389    0.6728 H   0  0  0  0  0  0  0  0  0  0  0  0
    2.4855   -0.5095    1.3201 H   0  0  0  0  0  0  0  0  0  0  0  0
    0.2597    0.0294    0.3083 H   0  0  0  0  0  0  0  0  0  0  0  0
    1.0482    0.3858   -1.2356 H   0  0  0  0  0  0  0  0  0  0  0  0
   -0.9535   -1.7457   -0.7211 H   0  0  0  0  0  0  0  0  0  0  0  0
   -0.1650   -1.3894   -2.2650 H   0  0  0  0  0  0  0  0  0  0  0  0
    0.0831   -4.0247   -0.7183 H   0  0  0  0  0  0  0  0  0  0  0  0
   -0.8950   -3.7674   -2.1724 H   0  0  0  0  0  0  0  0  0  0  0  0
    0.8712   -3.6686   -2.2613 H   0  0  0  0  0  0  0  0  0  0  0  0
  1  2  1  0
  1  6  1  0
  1  7  1  0
  1  8  1  0
  2  3  1  0
  2  9  1  0
  2 10  1  0
  3  4  1  0
  4  5  1  0
  4 11  1  0
  4 12  1  0
  5 13  1  0
  5 14  1  0
  5 15  1  0
M  END
>  <reaction>  (1) 
rmg_rxn_15515

>  <mol_properties>  (1) 
{"1": {"label": "donator", "atom_type": "Cs"}, "8": {"label": "d_hydrogen", "atom_type": "H0"}}

>  <type>  (1) 
r1h

$$$$

     RDKit          3D

  5  4  0  0  0  0  0  0  0  0999 V2000
    0.8934    0.3742    0.4948 O   0  0  0  0  0  0  0  0  0  0  0  0
    0.1582   -0.1610   -0.5904 N   0  0  0  0  0  0  0  0  0  0  0  0
   -1.0297   -0.3739   -0.4689 C   0  0  0  0  0  3  0  0  0  0  0  0
    1.7804    0.4382    0.1306 H   0  0  0  0  0  0  0  0  0  0  0  0
   -1.8023   -0.2775    0.2859 H   0  0  0  0  0  0  0  0  0  0  0  0
  1  2  1  0
  1  4  1  0
  2  3  2  3
  3  5  1  0
M  RAD  1   3   2
M  END
>  <reaction>  (2) 
rmg_rxn_15515

>  <mol_properties>  (2) 
{"2": {"label": "acceptor", "atom_type": "Cd"}}

>  <type>  (2) 
r2

$$$$

     RDKit          3D

  6  5  0  0  0  0  0  0  0  0999 V2000
    1.2314    0.0428    0.5088 O   0  0  0  0  0  0  0  0  0  0  0  0
    0.2987    0.2341   -0.4915 N   0  0  0  0  0  0  0  0  0  0  0  0
   -0.8599   -0.1122   -0.1290 C   0  0  0  0  0  0  0  0  0  0  0  0
    2.0507    0.3401    0.1082 H   0  0  0  0  0  0  0  0  0  0  0  0
   -1.0700   -0.5112    0.8610 H   0  0  0  0  0  0  0  0  0  0  0  0
   -1.6509    0.0064   -0.8574 H   0  0  0  0  0  0  0  0  0  0  0  0
  1  2  1  0
  1  4  1  0
  2  3  2  3
  3  5  1  0
  3  6  1  0
M  END
>  <reaction>  (3) 
rmg_rxn_15515

>  <mol_properties>  (3) 
{"2": {"label": "acceptor", "atom_type": "Cd"}, "5": {"label": "a_hydrogen", "atom_type": "H0"}}

>  <type>  (3) 
r2h

$$$$

     RDKit          3D

 20 18  0  0  0  0  0  0  0  0999 V2000
    1.6486    0.3976    1.1723 O   0  0  0  0  0  0  0  0  0  0  0  0
    2.2855    0.1969   -0.0301 N   0  0  0  0  0  0  0  0  0  0  0  0
    1.6427   -0.2708   -0.9942 C   0  0  0  0  0  3  0  0  0  0  0  0
    0.7019    0.1882    1.0748 H   0  0  0  0  0  0  0  0  0  0  0  0
    2.1467   -0.4319   -1.9429 H   0  0  0  0  0  0  0  0  0  0  0  0
   -0.6968   -2.4186    0.1220 C   0  0  0  0  0  0  0  0  0  0  0  0
   -0.8877   -1.0349   -0.4262 C   0  0  0  0  0  0  0  0  0  0  0  0
   -1.2140   -0.1384    0.5836 O   0  0  0  0  0  0  0  0  0  0  0  0
   -1.8565    1.0590    0.1658 C   0  0  0  0  0  0  0  0  0  0  0  0
   -0.9589    1.9904   -0.6258 C   0  0  0  0  0  0  0  0  0  0  0  0
   -0.3736   -3.0932   -0.6716 H   0  0  0  0  0  0  0  0  0  0  0  0
    0.0669   -2.4164    0.9019 H   0  0  0  0  0  0  0  0  0  0  0  0
   -1.6253   -2.8015    0.5517 H   0  0  0  0  0  0  0  0  0  0  0  0
    0.2779   -0.6767   -0.8647 H   0  0  0  0  0  0  0  0  0  0  0  0
   -1.5714   -0.9701   -1.2794 H   0  0  0  0  0  0  0  0  0  0  0  0
   -2.7487    0.7955   -0.4147 H   0  0  0  0  0  0  0  0  0  0  0  0
   -2.1856    1.5375    1.0880 H   0  0  0  0  0  0  0  0  0  0  0  0
   -0.0622    2.2448   -0.0593 H   0  0  0  0  0  0  0  0  0  0  0  0
   -0.6521    1.5458   -1.5734 H   0  0  0  0  0  0  0  0  0  0  0  0
   -1.4991    2.9124   -0.8468 H   0  0  0  0  0  0  0  0  0  0  0  0
  1  2  1  0
  1  4  1  0
  2  3  2  3
  3  5  1  0
  6  7  1  0
  6 11  1  0
  6 12  1  0
  6 13  1  0
  7  8  1  0
  7 14  1  0
  7 15  1  0
  8  9  1  0
  9 10  1  0
  9 16  1  0
  9 17  1  0
 10 18  1  0
 10 19  1  0
 10 20  1  0
M  RAD  1   3   2
M  END
>  <reaction>  (4) 
rmg_rxn_15515

>  <mol_properties>  (4) 
{"1": {"label": "*4", "atom_type": "N3d"}, "2": {"label": "*3", "atom_type": "Cd"}, "6": {"label": "*1", "atom_type": "Cs"}, "7": {"label": "*0", "atom_type": "O2s"}, "13": {"label": "*2", "atom_type": "H0"}}

>  <type>  (4) 
ts

$$$$

     RDKit          3D

 20 18  0  0  0  0  0  0  0  0999 V2000
   -3.4416   -0.0354    0.0208 O   0  0  0  0  0  0  0  0  0  0  0  0
   -2.0453   -0.0349   -0.2111 N   0  0  0  0  0  0  0  0  0  0  0  0
   -1.3578    0.8805    0.2686 C   0  0  0  0  0  0  0  0  0  0  0  0
   -3.7596   -0.8278   -0.4323 H   0  0  0  0  0  0  0  0  0  0  0  0
   -1.6909    1.7217    0.8659 H   0  0  0  0  0  0  0  0  0  0  0  0
    1.6943    2.2149    0.0099 C   0  0  0  0  0  0  0  0  0  0  0  0
    1.2135    0.8354   -0.3643 C   0  0  0  0  0  3  0  0  0  0  0  0
    1.8941   -0.1433    0.3383 O   0  0  0  0  0  0  0  0  0  0  0  0
    1.8378   -1.4528   -0.1798 C   0  0  0  0  0  0  0  0  0  0  0  0
    0.5229   -2.1657    0.1236 C   0  0  0  0  0  0  0  0  0  0  0  0
    2.7212    2.3734   -0.3241 H   0  0  0  0  0  0  0  0  0  0  0  0
    1.0587    2.9680   -0.4484 H   0  0  0  0  0  0  0  0  0  0  0  0
    1.6707    2.3320    1.0904 H   0  0  0  0  0  0  0  0  0  0  0  0
   -0.1023    0.8223   -0.0201 H   0  0  0  0  0  0  0  0  0  0  0  0
    1.1937    0.6475   -1.4433 H   0  0  0  0  0  0  0  0  0  0  0  0
    2.0102   -1.4329   -1.2660 H   0  0  0  0  0  0  0  0  0  0  0  0
    2.6686   -1.9792    0.2989 H   0  0  0  0  0  0  0  0  0  0  0  0
   -0.3106   -1.6595   -0.3571 H   0  0  0  0  0  0  0  0  0  0  0  0
    0.5769   -3.1898   -0.2352 H   0  0  0  0  0  0  0  0  0  0  0  0
    0.3481   -2.1759    1.1964 H   0  0  0  0  0  0  0  0  0  0  0  0
  1  2  1  0
  1  4  1  0
  2  3  2  3
  3  5  1  0
  3 14  1  0
  6  7  1  0
  6 11  1  0
  6 12  1  0
  6 13  1  0
  7  8  1  0
  7 15  1  0
  8  9  1  0
  9 10  1  0
  9 16  1  0
  9 17  1  0
 10 18  1  0
 10 19  1  0
 10 20  1  0
M  RAD  1   7   2
M  END
>  <reaction>  (5) 
rmg_rxn_15515

>  <mol_properties>  (5) 
{"1": {"label": "*4", "atom_type": "N3d"}, "2": {"label": "*3", "atom_type": "Cd"}, "6": {"label": "*1", "atom_type": "Cs"}, "7": {"label": "*0", "atom_type": "O2s"}, "13": {"label": "*2", "atom_type": "H0"}}

>  <type>  (5) 
unop_1

>  <geom_source>  (5) 
crest_best.xyz

$$$$

     RDKit          3D

 20 18  0  0  0  0  0  0  0  0999 V2000
   -1.8712   -2.2716    1.6619 O   0  0  0  0  0  0  0  0  0  0  0  0
   -1.0357   -2.2377    0.5629 N   0  0  0  0  0  0  0  0  0  0  0  0
   -1.2518   -1.2281   -0.1634 C   0  0  0  0  0  0  0  0  0  0  0  0
   -1.6057   -3.0725    2.1181 H   0  0  0  0  0  0  0  0  0  0  0  0
   -2.0131   -0.4877    0.0728 H   0  0  0  0  0  0  0  0  0  0  0  0
    0.8543    0.0301   -2.5893 C   0  0  0  0  0  0  0  0  0  0  0  0
    0.8543    0.0301   -1.0781 C   0  0  0  0  0  3  0  0  0  0  0  0
    0.8543    1.3593   -0.6216 O   0  0  0  0  0  0  0  0  0  0  0  0
    0.8543    1.4635    0.7799 C   0  0  0  0  0  0  0  0  0  0  0  0
    0.8543    2.9252    1.1635 C   0  0  0  0  0  0  0  0  0  0  0  0
    1.7387    0.5412   -2.9714 H   0  0  0  0  0  0  0  0  0  0  0  0
    0.8543   -0.9934   -2.9673 H   0  0  0  0  0  0  0  0  0  0  0  0
   -0.0301    0.5412   -2.9714 H   0  0  0  0  0  0  0  0  0  0  0  0
   -0.2076   -0.6043   -0.6169 H   0  0  0  0  0  0  0  0  0  0  0  0
    1.7392   -0.4985   -0.6938 H   0  0  0  0  0  0  0  0  0  0  0  0
   -0.0306    0.9575    1.1937 H   0  0  0  0  0  0  0  0  0  0  0  0
    1.7392    0.9575    1.1937 H   0  0  0  0  0  0  0  0  0  0  0  0
   -0.0301    3.4244    0.7662 H   0  0  0  0  0  0  0  0  0  0  0  0
    0.8543    3.0309    2.2495 H   0  0  0  0  0  0  0  0  0  0  0  0
    1.7387    3.4244    0.7662 H   0  0  0  0  0  0  0  0  0  0  0  0
  1  2  1  0
  1  4  1  0
  2  3  2  3
  3  5  1  0
  3 14  1  0
  6  7  1  0
  6 11  1  0
  6 12  1  0
  6 13  1  0
  7  8  1  0
  7 15  1  0
  8  9  1  0
  9 10  1  0
  9 16  1  0
  9 17  1  0
 10 18  1  0
 10 19  1  0
 10 20  1  0
M  RAD  1   7   2
M  END
>  <reaction>  (6) 
rmg_rxn_15515

>  <mol_properties>  (6) 
{"1": {"label": "*4", "atom_type": "N3d"}, "2": {"label": "*3", "atom_type": "Cd"}, "6": {"label": "*1", "atom_type": "Cs"}, "7": {"label": "*0", "atom_type": "O2s"}, "13": {"label": "*2", "atom_type": "H0"}}

>  <type>  (6) 
unop_2

>  <geom_source>  (6) 
Heuristics

$$$$

     RDKit          3D

 20 18  0  0  0  0  0  0  0  0999 V2000
   -3.4412    0.0345   -0.0208 O   0  0  0  0  0  0  0  0  0  0  0  0
   -2.0449    0.0341    0.2114 N   0  0  0  0  0  0  0  0  0  0  0  0
   -1.3570   -0.8807   -0.2690 C   0  0  0  0  0  0  0  0  0  0  0  0
   -3.7593    0.8266    0.4327 H   0  0  0  0  0  0  0  0  0  0  0  0
   -1.6899   -1.7217   -0.8666 H   0  0  0  0  0  0  0  0  0  0  0  0
    1.6952   -2.2143   -0.0102 C   0  0  0  0  0  0  0  0  0  0  0  0
    1.2141   -0.8350    0.3645 C   0  0  0  0  0  3  0  0  0  0  0  0
    1.8946    0.1441   -0.3378 O   0  0  0  0  0  0  0  0  0  0  0  0
    1.8365    1.4537    0.1799 C   0  0  0  0  0  0  0  0  0  0  0  0
    0.5208    2.1649   -0.1241 C   0  0  0  0  0  0  0  0  0  0  0  0
    1.0620   -2.9675    0.4511 H   0  0  0  0  0  0  0  0  0  0  0  0
    1.6682   -2.3326   -1.0904 H   0  0  0  0  0  0  0  0  0  0  0  0
    2.7234   -2.3713    0.3206 H   0  0  0  0  0  0  0  0  0  0  0  0
   -0.1017   -0.8223    0.0203 H   0  0  0  0  0  0  0  0  0  0  0  0
    1.1942   -0.6473    1.4435 H   0  0  0  0  0  0  0  0  0  0  0  0
    2.0087    1.4343    1.2660 H   0  0  0  0  0  0  0  0  0  0  0  0
    2.6667    1.9810   -0.2989 H   0  0  0  0  0  0  0  0  0  0  0  0
   -0.3122    1.6574    0.3561 H   0  0  0  0  0  0  0  0  0  0  0  0
    0.5732    3.1890    0.2352 H   0  0  0  0  0  0  0  0  0  0  0  0
    0.3465    2.1753   -1.1969 H   0  0  0  0  0  0  0  0  0  0  0  0
  1  2  1  0
  1  4  1  0
  2  3  2  3
  3  5  1  0
  3 14  1  0
  6  7  1  0
  6 11  1  0
  6 12  1  0
  6 13  1  0
  7  8  1  0
  7 15  1  0
  8  9  1  0
  9 10  1  0
  9 16  1  0
  9 17  1  0
 10 18  1  0
 10 19  1  0
 10 20  1  0
M  RAD  1   7   2
M  END
>  <reaction>  (7) 
rmg_rxn_15515

>  <mol_properties>  (7) 
{"1": {"label": "*4", "atom_type": "N3d"}, "2": {"label": "*3", "atom_type": "Cd"}, "6": {"label": "*1", "atom_type": "Cs"}, "7": {"label": "*0", "atom_type": "O2s"}, "13": {"label": "*2", "atom_type": "H0"}}

>  <type>  (7) 
unop_3

>  <geom_source>  (7) 
Heuristics

$$$$

     RDKit          3D

 20 18  0  0  0  0  0  0  0  0999 V2000
   -2.3623   -2.9024    0.2693 O   0  0  0  0  0  0  0  0  0  0  0  0
   -1.5338   -2.0593   -0.4447 N   0  0  0  0  0  0  0  0  0  0  0  0
   -1.0756   -1.1280    0.2739 C   0  0  0  0  0  0  0  0  0  0  0  0
   -2.6351   -3.5505   -0.3831 H   0  0  0  0  0  0  0  0  0  0  0  0
   -1.3212   -1.0259    1.3288 H   0  0  0  0  0  0  0  0  0  0  0  0
    1.0306    0.1302   -2.1520 C   0  0  0  0  0  0  0  0  0  0  0  0
    1.0306    0.1302   -0.6408 C   0  0  0  0  0  3  0  0  0  0  0  0
    1.0306    1.4594   -0.1843 O   0  0  0  0  0  0  0  0  0  0  0  0
    1.0306    1.5636    1.2172 C   0  0  0  0  0  0  0  0  0  0  0  0
    1.0306    3.0252    1.6008 C   0  0  0  0  0  0  0  0  0  0  0  0
    1.9149    0.6413   -2.5341 H   0  0  0  0  0  0  0  0  0  0  0  0
    1.0306   -0.8933   -2.5300 H   0  0  0  0  0  0  0  0  0  0  0  0
    0.1462    0.6413   -2.5341 H   0  0  0  0  0  0  0  0  0  0  0  0
   -0.0313   -0.5042   -0.1796 H   0  0  0  0  0  0  0  0  0  0  0  0
    1.9155   -0.3984   -0.2565 H   0  0  0  0  0  0  0  0  0  0  0  0
    0.1456    1.0576    1.6310 H   0  0  0  0  0  0  0  0  0  0  0  0
    1.9155    1.0576    1.6310 H   0  0  0  0  0  0  0  0  0  0  0  0
    0.1462    3.5245    1.2035 H   0  0  0  0  0  0  0  0  0  0  0  0
    1.0306    3.1310    2.6868 H   0  0  0  0  0  0  0  0  0  0  0  0
    1.9149    3.5245    1.2035 H   0  0  0  0  0  0  0  0  0  0  0  0
  1  2  1  0
  1  4  1  0
  2  3  2  3
  3  5  1  0
  3 14  1  0
  6  7  1  0
  6 11  1  0
  6 12  1  0
  6 13  1  0
  7  8  1  0
  7 15  1  0
  8  9  1  0
  9 10  1  0
  9 16  1  0
  9 17  1  0
 10 18  1  0
 10 19  1  0
 10 20  1  0
M  RAD  1   7   2
M  END
>  <reaction>  (8) 
rmg_rxn_15515

>  <mol_properties>  (8) 
{"1": {"label": "*4", "atom_type": "N3d"}, "2": {"label": "*3", "atom_type": "Cd"}, "6": {"label": "*1", "atom_type": "Cs"}, "7": {"label": "*0", "atom_type": "O2s"}, "13": {"label": "*2", "atom_type": "H0"}}

>  <type>  (8) 
unop_4

>  <geom_source>  (8) 
Heuristics

$$$$

     RDKit          3D

 20 18  0  0  0  0  0  0  0  0999 V2000
   -3.4414    0.0353   -0.0219 O   0  0  0  0  0  0  0  0  0  0  0  0
   -2.0454    0.0336    0.2123 N   0  0  0  0  0  0  0  0  0  0  0  0
   -1.3573   -0.8805   -0.2691 C   0  0  0  0  0  0  0  0  0  0  0  0
   -3.7599    0.8263    0.4330 H   0  0  0  0  0  0  0  0  0  0  0  0
   -1.6897   -1.7199   -0.8692 H   0  0  0  0  0  0  0  0  0  0  0  0
    1.6951   -2.2144   -0.0086 C   0  0  0  0  0  0  0  0  0  0  0  0
    1.2139   -0.8347    0.3644 C   0  0  0  0  0  3  0  0  0  0  0  0
    1.8936    0.1436   -0.3398 O   0  0  0  0  0  0  0  0  0  0  0  0
    1.8380    1.4533    0.1779 C   0  0  0  0  0  0  0  0  0  0  0  0
    0.5214    2.1649   -0.1211 C   0  0  0  0  0  0  0  0  0  0  0  0
    1.6673   -2.3343   -1.0886 H   0  0  0  0  0  0  0  0  0  0  0  0
    2.7236   -2.3704    0.3216 H   0  0  0  0  0  0  0  0  0  0  0  0
    1.0625   -2.9672    0.4543 H   0  0  0  0  0  0  0  0  0  0  0  0
   -0.1021   -0.8224    0.0208 H   0  0  0  0  0  0  0  0  0  0  0  0
    1.1947   -0.6455    1.4432 H   0  0  0  0  0  0  0  0  0  0  0  0
    2.0144    1.4340    1.2633 H   0  0  0  0  0  0  0  0  0  0  0  0
    2.6666    1.9801   -0.3042 H   0  0  0  0  0  0  0  0  0  0  0  0
   -0.3099    1.6580    0.3626 H   0  0  0  0  0  0  0  0  0  0  0  0
    0.5757    3.1892    0.2374 H   0  0  0  0  0  0  0  0  0  0  0  0
    0.3427    2.1748   -1.1932 H   0  0  0  0  0  0  0  0  0  0  0  0
  1  2  1  0
  1  4  1  0
  2  3  2  3
  3  5  1  0
  3 14  1  0
  6  7  1  0
  6 11  1  0
  6 12  1  0
  6 13  1  0
  7  8  1  0
  7 15  1  0
  8  9  1  0
  9 10  1  0
  9 16  1  0
  9 17  1  0
 10 18  1  0
 10 19  1  0
 10 20  1  0
M  RAD  1   7   2
M  END
>  <reaction>  (9) 
rmg_rxn_15515

>  <mol_properties>  (9) 
{"1": {"label": "*4", "atom_type": "N3d"}, "2": {"label": "*3", "atom_type": "Cd"}, "6": {"label": "*1", "atom_type": "Cs"}, "7": {"label": "*0", "atom_type": "O2s"}, "13": {"label": "*2", "atom_type": "H0"}}

>  <type>  (9) 
unop_5

>  <geom_source>  (9) 
Heuristics

$$$$

     RDKit          3D

 20 18  0  0  0  0  0  0  0  0999 V2000
   -2.2244   -1.9170    1.6304 O   0  0  0  0  0  0  0  0  0  0  0  0
   -1.0500   -1.9285    0.9038 N   0  0  0  0  0  0  0  0  0  0  0  0
   -1.1782   -1.3476   -0.2096 C   0  0  0  0  0  0  0  0  0  0  0  0
   -1.9911   -2.3812    2.4366 H   0  0  0  0  0  0  0  0  0  0  0  0
   -2.1152   -0.8994   -0.5331 H   0  0  0  0  0  0  0  0  0  0  0  0
    0.9280   -0.0893   -2.6355 C   0  0  0  0  0  0  0  0  0  0  0  0
    0.9280   -0.0893   -1.1244 C   0  0  0  0  0  3  0  0  0  0  0  0
    0.9280    1.2398   -0.6678 O   0  0  0  0  0  0  0  0  0  0  0  0
    0.9280    1.3440    0.7337 C   0  0  0  0  0  0  0  0  0  0  0  0
    0.9280    2.8057    1.1173 C   0  0  0  0  0  0  0  0  0  0  0  0
    1.8123    0.4217   -3.0176 H   0  0  0  0  0  0  0  0  0  0  0  0
    0.9280   -1.1129   -3.0135 H   0  0  0  0  0  0  0  0  0  0  0  0
    0.0436    0.4217   -3.0176 H   0  0  0  0  0  0  0  0  0  0  0  0
   -0.1339   -0.7237   -0.6631 H   0  0  0  0  0  0  0  0  0  0  0  0
    1.8129   -0.6180   -0.7400 H   0  0  0  0  0  0  0  0  0  0  0  0
    0.0431    0.8381    1.1475 H   0  0  0  0  0  0  0  0  0  0  0  0
    1.8129    0.8381    1.1475 H   0  0  0  0  0  0  0  0  0  0  0  0
    0.0436    3.3050    0.7200 H   0  0  0  0  0  0  0  0  0  0  0  0
    0.9280    2.9115    2.2033 H   0  0  0  0  0  0  0  0  0  0  0  0
    1.8123    3.3050    0.7200 H   0  0  0  0  0  0  0  0  0  0  0  0
  1  2  1  0
  1  4  1  0
  2  3  2  3
  3  5  1  0
  3 14  1  0
  6  7  1  0
  6 11  1  0
  6 12  1  0
  6 13  1  0
  7  8  1  0
  7 15  1  0
  8  9  1  0
  9 10  1  0
  9 16  1  0
  9 17  1  0
 10 18  1  0
 10 19  1  0
 10 20  1  0
M  RAD  1   7   2
M  END
>  <reaction>  (10) 
rmg_rxn_15515

>  <mol_properties>  (10) 
{"1": {"label": "*4", "atom_type": "N3d"}, "2": {"label": "*3", "atom_type": "Cd"}, "6": {"label": "*1", "atom_type": "Cs"}, "7": {"label": "*0", "atom_type": "O2s"}, "13": {"label": "*2", "atom_type": "H0"}}

>  <type>  (10) 
unop_6

>  <geom_source>  (10) 
Heuristics

$$$$

     RDKit          3D

 20 18  0  0  0  0  0  0  0  0999 V2000
   -2.9575   -1.3221    0.7832 O   0  0  0  0  0  0  0  0  0  0  0  0
   -2.0072   -1.1254   -0.1993 N   0  0  0  0  0  0  0  0  0  0  0  0
   -0.8821   -1.5919    0.1321 C   0  0  0  0  0  0  0  0  0  0  0  0
   -3.7482   -0.9283    0.4093 H   0  0  0  0  0  0  0  0  0  0  0  0
   -0.7097   -2.0860    1.0859 H   0  0  0  0  0  0  0  0  0  0  0  0
    1.2240   -0.3337   -2.2938 C   0  0  0  0  0  0  0  0  0  0  0  0
    1.2240   -0.3337   -0.7827 C   0  0  0  0  0  3  0  0  0  0  0  0
    1.2240    0.9955   -0.3261 O   0  0  0  0  0  0  0  0  0  0  0  0
    1.2240    1.0997    1.0754 C   0  0  0  0  0  0  0  0  0  0  0  0
    1.2240    2.5614    1.4590 C   0  0  0  0  0  0  0  0  0  0  0  0
    2.1084    0.1774   -2.6759 H   0  0  0  0  0  0  0  0  0  0  0  0
    1.2240   -1.3572   -2.6718 H   0  0  0  0  0  0  0  0  0  0  0  0
    0.3397    0.1774   -2.6759 H   0  0  0  0  0  0  0  0  0  0  0  0
    0.1622   -0.9681   -0.3215 H   0  0  0  0  0  0  0  0  0  0  0  0
    2.1090   -0.8623   -0.3983 H   0  0  0  0  0  0  0  0  0  0  0  0
    0.3391    0.5937    1.4892 H   0  0  0  0  0  0  0  0  0  0  0  0
    2.1090    0.5937    1.4892 H   0  0  0  0  0  0  0  0  0  0  0  0
    0.3397    3.0606    1.0617 H   0  0  0  0  0  0  0  0  0  0  0  0
    1.2240    2.6671    2.5450 H   0  0  0  0  0  0  0  0  0  0  0  0
    2.1084    3.0606    1.0617 H   0  0  0  0  0  0  0  0  0  0  0  0
  1  2  1  0
  1  4  1  0
  2  3  2  3
  3  5  1  0
  3 14  1  0
  6  7  1  0
  6 11  1  0
  6 12  1  0
  6 13  1  0
  7  8  1  0
  7 15  1  0
  8  9  1  0
  9 10  1  0
  9 16  1  0
  9 17  1  0
 10 18  1  0
 10 19  1  0
 10 20  1  0
M  RAD  1   7   2
M  END
>  <reaction>  (11) 
rmg_rxn_15515

>  <mol_properties>  (11) 
{"1": {"label": "*4", "atom_type": "N3d"}, "2": {"label": "*3", "atom_type": "Cd"}, "6": {"label": "*1", "atom_type": "Cs"}, "7": {"label": "*0", "atom_type": "O2s"}, "13": {"label": "*2", "atom_type": "H0"}}

>  <type>  (11) 
unop_7

>  <geom_source>  (11) 
Heuristics

$$$$

     RDKit          3D

 20 18  0  0  0  0  0  0  0  0999 V2000
    1.7254    0.5676    1.0750 O   0  0  0  0  0  0  0  0  0  0  0  0
    2.2885    0.2569   -0.1206 N   0  0  0  0  0  0  0  0  0  0  0  0
    1.6526   -0.3352   -1.0125 C   0  0  0  0  0  0  0  0  0  0  0  0
    0.7863    0.2842    1.1219 H   0  0  0  0  0  0  0  0  0  0  0  0
    2.1519   -0.5559   -1.9389 H   0  0  0  0  0  0  0  0  0  0  0  0
   -0.7516   -2.4509    0.1168 C   0  0  0  0  0  0  0  0  0  0  0  0
   -0.8325   -1.0471   -0.4310 C   0  0  0  0  0  3  0  0  0  0  0  0
   -1.1561   -0.1261    0.5828 O   0  0  0  0  0  0  0  0  0  0  0  0
   -1.8562    1.0298    0.1809 C   0  0  0  0  0  0  0  0  0  0  0  0
   -0.9988    2.0253   -0.5976 C   0  0  0  0  0  0  0  0  0  0  0  0
   -0.3836   -3.1259   -0.6518 H   0  0  0  0  0  0  0  0  0  0  0  0
   -0.0773   -2.4820    0.9698 H   0  0  0  0  0  0  0  0  0  0  0  0
   -1.7315   -2.7986    0.4489 H   0  0  0  0  0  0  0  0  0  0  0  0
    0.4209   -0.7222   -0.8422 H   0  0  0  0  0  0  0  0  0  0  0  0
   -1.4899   -0.9547   -1.2996 H   0  0  0  0  0  0  0  0  0  0  0  0
   -2.7323    0.7437   -0.4185 H   0  0  0  0  0  0  0  0  0  0  0  0
   -2.2018    1.4832    1.1136 H   0  0  0  0  0  0  0  0  0  0  0  0
   -0.1318    2.3211   -0.0118 H   0  0  0  0  0  0  0  0  0  0  0  0
   -0.6560    1.5919   -1.5349 H   0  0  0  0  0  0  0  0  0  0  0  0
   -1.5880    2.9106   -0.8190 H   0  0  0  0  0  0  0  0  0  0  0  0
  1  2  1  0
  1  4  1  0
  2  3  2  3
  3  5  1  0
  3 14  1  0
  6  7  1  0
  6 11  1  0
  6 12  1  0
  6 13  1  0
  7  8  1  0
  7 15  1  0
  8  9  1  0
  9 10  1  0
  9 16  1  0
  9 17  1  0
 10 18  1  0
 10 19  1  0
 10 20  1  0
M  RAD  1   7   2
M  END
>  <reaction>  (12) 
rmg_rxn_15515

>  <mol_properties>  (12) 
{"1": {"label": "*4", "atom_type": "N3d"}, "2": {"label": "*3", "atom_type": "Cd"}, "6": {"label": "*1", "atom_type": "Cs"}, "7": {"label": "*0", "atom_type": "O2s"}, "13": {"label": "*2", "atom_type": "H0"}}

>  <type>  (12) 
unop_8

>  <geom_source>  (12) 
Heuristics

$$$$

     RDKit          3D

 20 18  0  0  0  0  0  0  0  0999 V2000
   -2.3756   -2.1295    1.4368 O   0  0  0  0  0  0  0  0  0  0  0  0
   -1.2350   -1.4480    1.0605 N   0  0  0  0  0  0  0  0  0  0  0  0
   -1.1190   -1.3788   -0.1946 C   0  0  0  0  0  0  0  0  0  0  0  0
   -2.3407   -2.1086    2.3951 H   0  0  0  0  0  0  0  0  0  0  0  0
   -1.8471   -1.8137   -0.8760 H   0  0  0  0  0  0  0  0  0  0  0  0
    0.9871   -0.1205   -2.6205 C   0  0  0  0  0  0  0  0  0  0  0  0
    0.9871   -0.1205   -1.1094 C   0  0  0  0  0  3  0  0  0  0  0  0
    0.9871    1.2087   -0.6528 O   0  0  0  0  0  0  0  0  0  0  0  0
    0.9871    1.3129    0.7487 C   0  0  0  0  0  0  0  0  0  0  0  0
    0.9871    2.7745    1.1323 C   0  0  0  0  0  0  0  0  0  0  0  0
    1.8715    0.3905   -3.0026 H   0  0  0  0  0  0  0  0  0  0  0  0
    0.9871   -1.1441   -2.9985 H   0  0  0  0  0  0  0  0  0  0  0  0
    0.1027    0.3905   -3.0026 H   0  0  0  0  0  0  0  0  0  0  0  0
   -0.0748   -0.7549   -0.6482 H   0  0  0  0  0  0  0  0  0  0  0  0
    1.8720   -0.6492   -0.7250 H   0  0  0  0  0  0  0  0  0  0  0  0
    0.1022    0.8069    1.1625 H   0  0  0  0  0  0  0  0  0  0  0  0
    1.8720    0.8069    1.1625 H   0  0  0  0  0  0  0  0  0  0  0  0
    0.1027    3.2738    0.7350 H   0  0  0  0  0  0  0  0  0  0  0  0
    0.9871    2.8803    2.2183 H   0  0  0  0  0  0  0  0  0  0  0  0
    1.8715    3.2738    0.7350 H   0  0  0  0  0  0  0  0  0  0  0  0
  1  2  1  0
  1  4  1  0
  2  3  2  3
  3  5  1  0
  3 14  1  0
  6  7  1  0
  6 11  1  0
  6 12  1  0
  6 13  1  0
  7  8  1  0
  7 15  1  0
  8  9  1  0
  9 10  1  0
  9 16  1  0
  9 17  1  0
 10 18  1  0
 10 19  1  0
 10 20  1  0
M  RAD  1   7   2
M  END
>  <reaction>  (13) 
rmg_rxn_15515

>  <mol_properties>  (13) 
{"1": {"label": "*4", "atom_type": "N3d"}, "2": {"label": "*3", "atom_type": "Cd"}, "6": {"label": "*1", "atom_type": "Cs"}, "7": {"label": "*0", "atom_type": "O2s"}, "13": {"label": "*2", "atom_type": "H0"}}

>  <type>  (13) 
unop_9

>  <geom_source>  (13) 
Heuristics

$$$$

     RDKit          3D

 20 18  0  0  0  0  0  0  0  0999 V2000
   -3.4408   -0.0343    0.0214 O   0  0  0  0  0  0  0  0  0  0  0  0
   -2.0447   -0.0333   -0.2115 N   0  0  0  0  0  0  0  0  0  0  0  0
   -1.3569    0.8821    0.2678 C   0  0  0  0  0  0  0  0  0  0  0  0
   -3.7589   -0.8267   -0.4316 H   0  0  0  0  0  0  0  0  0  0  0  0
   -1.6895    1.7230    0.8656 H   0  0  0  0  0  0  0  0  0  0  0  0
    1.6967    2.2137    0.0103 C   0  0  0  0  0  0  0  0  0  0  0  0
    1.2145    0.8348   -0.3644 C   0  0  0  0  0  3  0  0  0  0  0  0
    1.8937   -0.1448    0.3384 O   0  0  0  0  0  0  0  0  0  0  0  0
    1.8357   -1.4542   -0.1796 C   0  0  0  0  0  0  0  0  0  0  0  0
    0.5197   -2.1653    0.1235 C   0  0  0  0  0  0  0  0  0  0  0  0
    1.6716    2.3312    1.0907 H   0  0  0  0  0  0  0  0  0  0  0  0
    2.7245    2.3706   -0.3222 H   0  0  0  0  0  0  0  0  0  0  0  0
    1.0630    2.9676   -0.4493 H   0  0  0  0  0  0  0  0  0  0  0  0
   -0.1014    0.8231   -0.0207 H   0  0  0  0  0  0  0  0  0  0  0  0
    1.1951    0.6470   -1.4435 H   0  0  0  0  0  0  0  0  0  0  0  0
    2.0084   -1.4346   -1.2657 H   0  0  0  0  0  0  0  0  0  0  0  0
    2.6656   -1.9817    0.2994 H   0  0  0  0  0  0  0  0  0  0  0  0
    0.5724   -3.1895   -0.2352 H   0  0  0  0  0  0  0  0  0  0  0  0
    0.3446   -2.1751    1.1962 H   0  0  0  0  0  0  0  0  0  0  0  0
   -0.3129   -1.6580   -0.3575 H   0  0  0  0  0  0  0  0  0  0  0  0
  1  2  1  0
  1  4  1  0
  2  3  2  3
  3  5  1  0
  3 14  1  0
  6  7  1  0
  6 11  1  0
  6 12  1  0
  6 13  1  0
  7  8  1  0
  7 15  1  0
  8  9  1  0
  9 10  1  0
  9 16  1  0
  9 17  1  0
 10 18  1  0
 10 19  1  0
 10 20  1  0
M  RAD  1   7   2
M  END
>  <reaction>  (14) 
rmg_rxn_15515

>  <mol_properties>  (14) 
{"1": {"label": "*4", "atom_type": "N3d"}, "2": {"label": "*3", "atom_type": "Cd"}, "6": {"label": "*1", "atom_type": "Cs"}, "7": {"label": "*0", "atom_type": "O2s"}, "13": {"label": "*2", "atom_type": "H0"}}

>  <type>  (14) 
unop_10

>  <geom_source>  (14) 
Heuristics

$$$$

     RDKit          3D

 20 18  0  0  0  0  0  0  0  0999 V2000
   -2.6321   -1.2864    1.3301 O   0  0  0  0  0  0  0  0  0  0  0  0
   -1.9848   -0.9316    0.1629 N   0  0  0  0  0  0  0  0  0  0  0  0
   -0.9514   -1.6291   -0.0345 C   0  0  0  0  0  0  0  0  0  0  0  0
   -3.3835   -0.6909    1.3571 H   0  0  0  0  0  0  0  0  0  0  0  0
   -0.6317   -2.4111    0.6509 H   0  0  0  0  0  0  0  0  0  0  0  0
    1.1547   -0.3708   -2.4604 C   0  0  0  0  0  0  0  0  0  0  0  0
    1.1547   -0.3708   -0.9492 C   0  0  0  0  0  3  0  0  0  0  0  0
    1.1547    0.9583   -0.4927 O   0  0  0  0  0  0  0  0  0  0  0  0
    1.1547    1.0626    0.9088 C   0  0  0  0  0  0  0  0  0  0  0  0
    1.1547    2.5242    1.2924 C   0  0  0  0  0  0  0  0  0  0  0  0
    2.0391    0.1402   -2.8425 H   0  0  0  0  0  0  0  0  0  0  0  0
    1.1547   -1.3944   -2.8384 H   0  0  0  0  0  0  0  0  0  0  0  0
    0.2704    0.1402   -2.8425 H   0  0  0  0  0  0  0  0  0  0  0  0
    0.0928   -1.0052   -0.4880 H   0  0  0  0  0  0  0  0  0  0  0  0
    2.0396   -0.8995   -0.5649 H   0  0  0  0  0  0  0  0  0  0  0  0
    0.2698    0.5566    1.3226 H   0  0  0  0  0  0  0  0  0  0  0  0
    2.0396    0.5566    1.3226 H   0  0  0  0  0  0  0  0  0  0  0  0
    0.2704    3.0235    0.8951 H   0  0  0  0  0  0  0  0  0  0  0  0
    1.1547    2.6300    2.3784 H   0  0  0  0  0  0  0  0  0  0  0  0
    2.0391    3.0235    0.8951 H   0  0  0  0  0  0  0  0  0  0  0  0
  1  2  1  0
  1  4  1  0
  2  3  2  3
  3  5  1  0
  3 14  1  0
  6  7  1  0
  6 11  1  0
  6 12  1  0
  6 13  1  0
  7  8  1  0
  7 15  1  0
  8  9  1  0
  9 10  1  0
  9 16  1  0
  9 17  1  0
 10 18  1  0
 10 19  1  0
 10 20  1  0
M  RAD  1   7   2
M  END
>  <reaction>  (15) 
rmg_rxn_15515

>  <mol_properties>  (15) 
{"1": {"label": "*4", "atom_type": "N3d"}, "2": {"label": "*3", "atom_type": "Cd"}, "6": {"label": "*1", "atom_type": "Cs"}, "7": {"label": "*0", "atom_type": "O2s"}, "13": {"label": "*2", "atom_type": "H0"}}

>  <type>  (15) 
unop_11

>  <geom_source>  (15) 
Heuristics

$$$$

     RDKit          3D

 20 18  0  0  0  0  0  0  0  0999 V2000
   -3.4410   -0.0349    0.0222 O   0  0  0  0  0  0  0  0  0  0  0  0
   -2.0451   -0.0331   -0.2124 N   0  0  0  0  0  0  0  0  0  0  0  0
   -1.3569    0.8812    0.2683 C   0  0  0  0  0  0  0  0  0  0  0  0
   -3.7596   -0.8258   -0.4329 H   0  0  0  0  0  0  0  0  0  0  0  0
   -1.6888    1.7206    0.8688 H   0  0  0  0  0  0  0  0  0  0  0  0
    1.6958    2.2140    0.0092 C   0  0  0  0  0  0  0  0  0  0  0  0
    1.2144    0.8346   -0.3646 C   0  0  0  0  0  3  0  0  0  0  0  0
    1.8935   -0.1442    0.3394 O   0  0  0  0  0  0  0  0  0  0  0  0
    1.8370   -1.4539   -0.1782 C   0  0  0  0  0  0  0  0  0  0  0  0
    0.5203   -2.1650    0.1217 C   0  0  0  0  0  0  0  0  0  0  0  0
    2.7238    2.3709   -0.3224 H   0  0  0  0  0  0  0  0  0  0  0  0
    1.0623    2.9672   -0.4516 H   0  0  0  0  0  0  0  0  0  0  0  0
    1.6698    2.3325    1.0895 H   0  0  0  0  0  0  0  0  0  0  0  0
   -0.1017    0.8228   -0.0213 H   0  0  0  0  0  0  0  0  0  0  0  0
    1.1954    0.6459   -1.4435 H   0  0  0  0  0  0  0  0  0  0  0  0
    2.0125   -1.4348   -1.2638 H   0  0  0  0  0  0  0  0  0  0  0  0
    2.6657   -1.9810    0.3034 H   0  0  0  0  0  0  0  0  0  0  0  0
    0.3427   -2.1755    1.1940 H   0  0  0  0  0  0  0  0  0  0  0  0
   -0.3113   -1.6574   -0.3609 H   0  0  0  0  0  0  0  0  0  0  0  0
    0.5737   -3.1890   -0.2375 H   0  0  0  0  0  0  0  0  0  0  0  0
  1  2  1  0
  1  4  1  0
  2  3  2  3
  3  5  1  0
  3 14  1  0
  6  7  1  0
  6 11  1  0
  6 12  1  0
  6 13  1  0
  7  8  1  0
  7 15  1  0
  8  9  1  0
  9 10  1  0
  9 16  1  0
  9 17  1  0
 10 18  1  0
 10 19  1  0
 10 20  1  0
M  RAD  1   7   2
M  END
>  <reaction>  (16) 
rmg_rxn_15515

>  <mol_properties>  (16) 
{"1": {"label": "*4", "atom_type": "N3d"}, "2": {"label": "*3", "atom_type": "Cd"}, "6": {"label": "*1", "atom_type": "Cs"}, "7": {"label": "*0", "atom_type": "O2s"}, "13": {"label": "*2", "atom_type": "H0"}}

>  <type>  (16) 
unop_12

>  <geom_source>  (16) 
Heuristics

$$$$

     RDKit          3D

 20 18  0  0  0  0  0  0  0  0999 V2000
   -2.2617   -1.6179    1.6619 O   0  0  0  0  0  0  0  0  0  0  0  0
   -1.8359   -0.8983    0.5629 N   0  0  0  0  0  0  0  0  0  0  0  0
   -1.0493   -1.5671   -0.1634 C   0  0  0  0  0  0  0  0  0  0  0  0
   -2.8411   -1.0046    2.1181 H   0  0  0  0  0  0  0  0  0  0  0  0
   -0.7581   -2.5884    0.0728 H   0  0  0  0  0  0  0  0  0  0  0  0
    1.0568   -0.3088   -2.5893 C   0  0  0  0  0  0  0  0  0  0  0  0
    1.0568   -0.3088   -1.0781 C   0  0  0  0  0  3  0  0  0  0  0  0
    1.0568    1.0203   -0.6216 O   0  0  0  0  0  0  0  0  0  0  0  0
    1.0568    1.1245    0.7799 C   0  0  0  0  0  0  0  0  0  0  0  0
    1.0568    2.5862    1.1635 C   0  0  0  0  0  0  0  0  0  0  0  0
    1.9412    0.2022   -2.9714 H   0  0  0  0  0  0  0  0  0  0  0  0
    1.0568   -1.3324   -2.9673 H   0  0  0  0  0  0  0  0  0  0  0  0
    0.1724    0.2022   -2.9714 H   0  0  0  0  0  0  0  0  0  0  0  0
   -0.0051   -0.9432   -0.6169 H   0  0  0  0  0  0  0  0  0  0  0  0
    1.9417   -0.8375   -0.6938 H   0  0  0  0  0  0  0  0  0  0  0  0
    0.1719    0.6186    1.1937 H   0  0  0  0  0  0  0  0  0  0  0  0
    1.9417    0.6186    1.1937 H   0  0  0  0  0  0  0  0  0  0  0  0
    0.1724    3.0855    0.7662 H   0  0  0  0  0  0  0  0  0  0  0  0
    1.0568    2.6920    2.2495 H   0  0  0  0  0  0  0  0  0  0  0  0
    1.9412    3.0855    0.7662 H   0  0  0  0  0  0  0  0  0  0  0  0
  1  2  1  0
  1  4  1  0
  2  3  2  3
  3  5  1  0
  3 14  1  0
  6  7  1  0
  6 11  1  0
  6 12  1  0
  6 13  1  0
  7  8  1  0
  7 15  1  0
  8  9  1  0
  9 10  1  0
  9 16  1  0
  9 17  1  0
 10 18  1  0
 10 19  1  0
 10 20  1  0
M  RAD  1   7   2
M  END
>  <reaction>  (17) 
rmg_rxn_15515

>  <mol_properties>  (17) 
{"1": {"label": "*4", "atom_type": "N3d"}, "2": {"label": "*3", "atom_type": "Cd"}, "6": {"label": "*1", "atom_type": "Cs"}, "7": {"label": "*0", "atom_type": "O2s"}, "13": {"label": "*2", "atom_type": "H0"}}

>  <type>  (17) 
unop_13

>  <geom_source>  (17) 
Heuristics

$$$$

     RDKit          3D

 20 18  0  0  0  0  0  0  0  0999 V2000
   -1.7548   -2.7549    1.3301 O   0  0  0  0  0  0  0  0  0  0  0  0
   -1.1356   -2.3531    0.1629 N   0  0  0  0  0  0  0  0  0  0  0  0
   -1.2600   -1.1125   -0.0345 C   0  0  0  0  0  0  0  0  0  0  0  0
   -1.5865   -3.6988    1.3571 H   0  0  0  0  0  0  0  0  0  0  0  0
   -1.7971   -0.4604    0.6509 H   0  0  0  0  0  0  0  0  0  0  0  0
    0.8462    0.1457   -2.4604 C   0  0  0  0  0  0  0  0  0  0  0  0
    0.8462    0.1457   -0.9492 C   0  0  0  0  0  3  0  0  0  0  0  0
    0.8462    1.4749   -0.4927 O   0  0  0  0  0  0  0  0  0  0  0  0
    0.8462    1.5791    0.9088 C   0  0  0  0  0  0  0  0  0  0  0  0
    0.8462    3.0407    1.2924 C   0  0  0  0  0  0  0  0  0  0  0  0
    1.7305    0.6568   -2.8425 H   0  0  0  0  0  0  0  0  0  0  0  0
    0.8462   -0.8778   -2.8384 H   0  0  0  0  0  0  0  0  0  0  0  0
   -0.0382    0.6568   -2.8425 H   0  0  0  0  0  0  0  0  0  0  0  0
   -0.2157   -0.4887   -0.4880 H   0  0  0  0  0  0  0  0  0  0  0  0
    1.7311   -0.3829   -0.5649 H   0  0  0  0  0  0  0  0  0  0  0  0
   -0.0388    1.0731    1.3226 H   0  0  0  0  0  0  0  0  0  0  0  0
    1.7311    1.0731    1.3226 H   0  0  0  0  0  0  0  0  0  0  0  0
   -0.0382    3.5400    0.8951 H   0  0  0  0  0  0  0  0  0  0  0  0
    0.8462    3.1465    2.3784 H   0  0  0  0  0  0  0  0  0  0  0  0
    1.7305    3.5400    0.8951 H   0  0  0  0  0  0  0  0  0  0  0  0
  1  2  1  0
  1  4  1  0
  2  3  2  3
  3  5  1  0
  3 14  1  0
  6  7  1  0
  6 11  1  0
  6 12  1  0
  6 13  1  0
  7  8  1  0
  7 15  1  0
  8  9  1  0
  9 10  1  0
  9 16  1  0
  9 17  1  0
 10 18  1  0
 10 19  1  0
 10 20  1  0
M  RAD  1   7   2
M  END
>  <reaction>  (18) 
rmg_rxn_15515

>  <mol_properties>  (18) 
{"1": {"label": "*4", "atom_type": "N3d"}, "2": {"label": "*3", "atom_type": "Cd"}, "6": {"label": "*1", "atom_type": "Cs"}, "7": {"label": "*0", "atom_type": "O2s"}, "13": {"label": "*2", "atom_type": "H0"}}

>  <type>  (18) 
unop_14

>  <geom_source>  (18) 
Heuristics

$$$$

     RDKit          3D

 20 18  0  0  0  0  0  0  0  0999 V2000
   -3.4416   -0.0354    0.0208 O   0  0  0  0  0  0  0  0  0  0  0  0
   -2.0453   -0.0349   -0.2111 N   0  0  0  0  0  0  0  0  0  0  0  0
   -1.3578    0.8805    0.2686 C   0  0  0  0  0  0  0  0  0  0  0  0
   -3.7596   -0.8278   -0.4323 H   0  0  0  0  0  0  0  0  0  0  0  0
   -1.6909    1.7217    0.8659 H   0  0  0  0  0  0  0  0  0  0  0  0
    1.6943    2.2149    0.0099 C   0  0  0  0  0  0  0  0  0  0  0  0
    1.2135    0.8354   -0.3643 C   0  0  0  0  0  3  0  0  0  0  0  0
    1.8941   -0.1433    0.3383 O   0  0  0  0  0  0  0  0  0  0  0  0
    1.8378   -1.4528   -0.1798 C   0  0  0  0  0  0  0  0  0  0  0  0
    0.5229   -2.1657    0.1236 C   0  0  0  0  0  0  0  0  0  0  0  0
    2.7212    2.3734   -0.3241 H   0  0  0  0  0  0  0  0  0  0  0  0
    1.0587    2.9680   -0.4484 H   0  0  0  0  0  0  0  0  0  0  0  0
    1.6707    2.3320    1.0904 H   0  0  0  0  0  0  0  0  0  0  0  0
   -0.1023    0.8223   -0.0201 H   0  0  0  0  0  0  0  0  0  0  0  0
    1.1937    0.6475   -1.4433 H   0  0  0  0  0  0  0  0  0  0  0  0
    2.0102   -1.4329   -1.2660 H   0  0  0  0  0  0  0  0  0  0  0  0
    2.6686   -1.9792    0.2989 H   0  0  0  0  0  0  0  0  0  0  0  0
   -0.3106   -1.6595   -0.3571 H   0  0  0  0  0  0  0  0  0  0  0  0
    0.5769   -3.1898   -0.2352 H   0  0  0  0  0  0  0  0  0  0  0  0
    0.3481   -2.1759    1.1964 H   0  0  0  0  0  0  0  0  0  0  0  0
  1  2  1  0
  1  4  1  0
  2  3  2  3
  3  5  1  0
  3 14  1  0
  6  7  1  0
  6 11  1  0
  6 12  1  0
  6 13  1  0
  7  8  1  0
  7 15  1  0
  8  9  1  0
  9 10  1  0
  9 16  1  0
  9 17  1  0
 10 18  1  0
 10 19  1  0
 10 20  1  0
M  RAD  1   7   2
M  END
>  <reaction>  (19) 
rmg_rxn_15515

>  <mol_properties>  (19) 
{"1": {"label": "*4", "atom_type": "N3d"}, "2": {"label": "*3", "atom_type": "Cd"}, "6": {"label": "*1", "atom_type": "Cs"}, "7": {"label": "*0", "atom_type": "O2s"}, "13": {"label": "*2", "atom_type": "H0"}}

>  <type>  (19) 
unop_15

>  <geom_source>  (19) 
Heuristics

$$$$

     RDKit          3D

 20 18  0  0  0  0  0  0  0  0999 V2000
   -3.0499   -1.7515    0.2693 O   0  0  0  0  0  0  0  0  0  0  0  0
   -1.9148   -1.4215   -0.4447 N   0  0  0  0  0  0  0  0  0  0  0  0
   -0.8777   -1.4593    0.2739 C   0  0  0  0  0  0  0  0  0  0  0  0
   -3.7498   -1.6845   -0.3831 H   0  0  0  0  0  0  0  0  0  0  0  0
   -0.9041   -1.7240    1.3288 H   0  0  0  0  0  0  0  0  0  0  0  0
    1.2285   -0.2011   -2.1520 C   0  0  0  0  0  0  0  0  0  0  0  0
    1.2285   -0.2011   -0.6408 C   0  0  0  0  0  3  0  0  0  0  0  0
    1.2285    1.1281   -0.1843 O   0  0  0  0  0  0  0  0  0  0  0  0
    1.2285    1.2323    1.2172 C   0  0  0  0  0  0  0  0  0  0  0  0
    1.2285    2.6939    1.6008 C   0  0  0  0  0  0  0  0  0  0  0  0
    2.1129    0.3100   -2.5341 H   0  0  0  0  0  0  0  0  0  0  0  0
    1.2285   -1.2246   -2.5300 H   0  0  0  0  0  0  0  0  0  0  0  0
    0.3441    0.3100   -2.5341 H   0  0  0  0  0  0  0  0  0  0  0  0
    0.1666   -0.8355   -0.1796 H   0  0  0  0  0  0  0  0  0  0  0  0
    2.1134   -0.7297   -0.2565 H   0  0  0  0  0  0  0  0  0  0  0  0
    0.3436    0.7263    1.6310 H   0  0  0  0  0  0  0  0  0  0  0  0
    2.1134    0.7263    1.6310 H   0  0  0  0  0  0  0  0  0  0  0  0
    0.3441    3.1932    1.2035 H   0  0  0  0  0  0  0  0  0  0  0  0
    1.2285    2.7997    2.6868 H   0  0  0  0  0  0  0  0  0  0  0  0
    2.1129    3.1932    1.2035 H   0  0  0  0  0  0  0  0  0  0  0  0
  1  2  1  0
  1  4  1  0
  2  3  2  3
  3  5  1  0
  3 14  1  0
  6  7  1  0
  6 11  1  0
  6 12  1  0
  6 13  1  0
  7  8  1  0
  7 15  1  0
  8  9  1  0
  9 10  1  0
  9 16  1  0
  9 17  1  0
 10 18  1  0
 10 19  1  0
 10 20  1  0
M  RAD  1   7   2
M  END
>  <reaction>  (20) 
rmg_rxn_15515

>  <mol_properties>  (20) 
{"1": {"label": "*4", "atom_type": "N3d"}, "2": {"label": "*3", "atom_type": "Cd"}, "6": {"label": "*1", "atom_type": "Cs"}, "7": {"label": "*0", "atom_type": "O2s"}, "13": {"label": "*2", "atom_type": "H0"}}

>  <type>  (20) 
unop_16

>  <geom_source>  (20) 
Heuristics

$$$$

     RDKit          3D

 20 18  0  0  0  0  0  0  0  0999 V2000
   -1.9405   -3.0245    0.7832 O   0  0  0  0  0  0  0  0  0  0  0  0
   -1.3169   -2.2810   -0.1993 N   0  0  0  0  0  0  0  0  0  0  0  0
   -1.1944   -1.0691    0.1321 C   0  0  0  0  0  0  0  0  0  0  0  0
   -1.9684   -3.9074    0.4093 H   0  0  0  0  0  0  0  0  0  0  0  0
   -1.5478   -0.6832    1.0859 H   0  0  0  0  0  0  0  0  0  0  0  0
    0.9117    0.1892   -2.2938 C   0  0  0  0  0  0  0  0  0  0  0  0
    0.9117    0.1892   -0.7827 C   0  0  0  0  0  3  0  0  0  0  0  0
    0.9117    1.5183   -0.3261 O   0  0  0  0  0  0  0  0  0  0  0  0
    0.9117    1.6225    1.0754 C   0  0  0  0  0  0  0  0  0  0  0  0
    0.9117    3.0842    1.4590 C   0  0  0  0  0  0  0  0  0  0  0  0
    1.7961    0.7002   -2.6759 H   0  0  0  0  0  0  0  0  0  0  0  0
    0.9117   -0.8344   -2.6718 H   0  0  0  0  0  0  0  0  0  0  0  0
    0.0273    0.7002   -2.6759 H   0  0  0  0  0  0  0  0  0  0  0  0
   -0.1502   -0.4452   -0.3215 H   0  0  0  0  0  0  0  0  0  0  0  0
    1.7966   -0.3395   -0.3983 H   0  0  0  0  0  0  0  0  0  0  0  0
    0.0268    1.1166    1.4892 H   0  0  0  0  0  0  0  0  0  0  0  0
    1.7966    1.1166    1.4892 H   0  0  0  0  0  0  0  0  0  0  0  0
    0.0273    3.5835    1.0617 H   0  0  0  0  0  0  0  0  0  0  0  0
    0.9117    3.1900    2.5450 H   0  0  0  0  0  0  0  0  0  0  0  0
    1.7961    3.5835    1.0617 H   0  0  0  0  0  0  0  0  0  0  0  0
  1  2  1  0
  1  4  1  0
  2  3  2  3
  3  5  1  0
  3 14  1  0
  6  7  1  0
  6 11  1  0
  6 12  1  0
  6 13  1  0
  7  8  1  0
  7 15  1  0
  8  9  1  0
  9 10  1  0
  9 16  1  0
  9 17  1  0
 10 18  1  0
 10 19  1  0
 10 20  1  0
M  RAD  1   7   2
M  END
>  <reaction>  (21) 
rmg_rxn_15515

>  <mol_properties>  (21) 
{"1": {"label": "*4", "atom_type": "N3d"}, "2": {"label": "*3", "atom_type": "Cd"}, "6": {"label": "*1", "atom_type": "Cs"}, "7": {"label": "*0", "atom_type": "O2s"}, "13": {"label": "*2", "atom_type": "H0"}}

>  <type>  (21) 
unop_17

>  <geom_source>  (21) 
Heuristics

$$$$

     RDKit          3D

 20 18  0  0  0  0  0  0  0  0999 V2000
   -2.1168   -2.0970    1.6303 O   0  0  0  0  0  0  0  0  0  0  0  0
   -1.5704   -1.0575    0.9038 N   0  0  0  0  0  0  0  0  0  0  0  0
   -1.1196   -1.4456   -0.2096 C   0  0  0  0  0  0  0  0  0  0  0  0
   -2.4151   -1.6716    2.4366 H   0  0  0  0  0  0  0  0  0  0  0  0
   -1.1691   -2.4832   -0.5331 H   0  0  0  0  0  0  0  0  0  0  0  0
    0.9865   -0.1873   -2.6355 C   0  0  0  0  0  0  0  0  0  0  0  0
    0.9865   -0.1873   -1.1244 C   0  0  0  0  0  3  0  0  0  0  0  0
    0.9865    1.1418   -0.6678 O   0  0  0  0  0  0  0  0  0  0  0  0
    0.9865    1.2460    0.7337 C   0  0  0  0  0  0  0  0  0  0  0  0
    0.9865    2.7077    1.1173 C   0  0  0  0  0  0  0  0  0  0  0  0
    1.8709    0.3237   -3.0176 H   0  0  0  0  0  0  0  0  0  0  0  0
    0.9865   -1.2109   -3.0135 H   0  0  0  0  0  0  0  0  0  0  0  0
    0.1021    0.3237   -3.0176 H   0  0  0  0  0  0  0  0  0  0  0  0
   -0.0754   -0.8218   -0.6631 H   0  0  0  0  0  0  0  0  0  0  0  0
    1.8714   -0.7160   -0.7400 H   0  0  0  0  0  0  0  0  0  0  0  0
    0.1016    0.7400    1.1475 H   0  0  0  0  0  0  0  0  0  0  0  0
    1.8714    0.7400    1.1475 H   0  0  0  0  0  0  0  0  0  0  0  0
    0.1021    3.2069    0.7200 H   0  0  0  0  0  0  0  0  0  0  0  0
    0.9865    2.8135    2.2033 H   0  0  0  0  0  0  0  0  0  0  0  0
    1.8709    3.2070    0.7200 H   0  0  0  0  0  0  0  0  0  0  0  0
  1  2  1  0
  1  4  1  0
  2  3  2  3
  3  5  1  0
  3 14  1  0
  6  7  1  0
  6 11  1  0
  6 12  1  0
  6 13  1  0
  7  8  1  0
  7 15  1  0
  8  9  1  0
  9 10  1  0
  9 16  1  0
  9 17  1  0
 10 18  1  0
 10 19  1  0
 10 20  1  0
M  RAD  1   7   2
M  END
>  <reaction>  (22) 
rmg_rxn_15515

>  <mol_properties>  (22) 
{"1": {"label": "*4", "atom_type": "N3d"}, "2": {"label": "*3", "atom_type": "Cd"}, "6": {"label": "*1", "atom_type": "Cs"}, "7": {"label": "*0", "atom_type": "O2s"}, "13": {"label": "*2", "atom_type": "H0"}}

>  <type>  (22) 
unop_18

>  <geom_source>  (22) 
Heuristics

$$$$

     RDKit          3D

 20 18  0  0  0  0  0  0  0  0999 V2000
   -2.8178   -2.3936    0.0555 O   0  0  0  0  0  0  0  0  0  0  0  0
   -1.7441   -1.7522   -0.5299 N   0  0  0  0  0  0  0  0  0  0  0  0
   -0.9510   -1.2784    0.3303 C   0  0  0  0  0  0  0  0  0  0  0  0
   -3.3300   -2.6996   -0.6955 H   0  0  0  0  0  0  0  0  0  0  0  0
   -1.1184   -1.3784    1.4006 H   0  0  0  0  0  0  0  0  0  0  0  0
    1.1551   -0.0201   -2.0956 C   0  0  0  0  0  0  0  0  0  0  0  0
    1.1551   -0.0201   -0.5844 C   0  0  0  0  0  3  0  0  0  0  0  0
    1.1551    1.3090   -0.1279 O   0  0  0  0  0  0  0  0  0  0  0  0
    1.1551    1.4132    1.2736 C   0  0  0  0  0  0  0  0  0  0  0  0
    1.1551    2.8749    1.6572 C   0  0  0  0  0  0  0  0  0  0  0  0
    2.0395    0.4909   -2.4777 H   0  0  0  0  0  0  0  0  0  0  0  0
    1.1551   -1.0437   -2.4736 H   0  0  0  0  0  0  0  0  0  0  0  0
    0.2708    0.4909   -2.4777 H   0  0  0  0  0  0  0  0  0  0  0  0
    0.0933   -0.6545   -0.1232 H   0  0  0  0  0  0  0  0  0  0  0  0
    2.0401   -0.5488   -0.2001 H   0  0  0  0  0  0  0  0  0  0  0  0
    0.2702    0.9073    1.6874 H   0  0  0  0  0  0  0  0  0  0  0  0
    2.0401    0.9073    1.6874 H   0  0  0  0  0  0  0  0  0  0  0  0
    0.2708    3.3742    1.2599 H   0  0  0  0  0  0  0  0  0  0  0  0
    1.1551    2.9807    2.7432 H   0  0  0  0  0  0  0  0  0  0  0  0
    2.0395    3.3742    1.2599 H   0  0  0  0  0  0  0  0  0  0  0  0
  1  2  1  0
  1  4  1  0
  2  3  2  3
  3  5  1  0
  3 14  1  0
  6  7  1  0
  6 11  1  0
  6 12  1  0
  6 13  1  0
  7  8  1  0
  7 15  1  0
  8  9  1  0
  9 10  1  0
  9 16  1  0
  9 17  1  0
 10 18  1  0
 10 19  1  0
 10 20  1  0
M  RAD  1   7   2
M  END
>  <reaction>  (23) 
rmg_rxn_15515

>  <mol_properties>  (23) 
{"1": {"label": "*4", "atom_type": "N3d"}, "2": {"label": "*3", "atom_type": "Cd"}, "6": {"label": "*1", "atom_type": "Cs"}, "7": {"label": "*0", "atom_type": "O2s"}, "13": {"label": "*2", "atom_type": "H0"}}

>  <type>  (23) 
unop_19

>  <geom_source>  (23) 
Heuristics

$$$$

     RDKit          3D

 20 17  0  0  0  0  0  0  0  0999 V2000
   -1.6553   -0.4917   -0.5949 O   0  0  0  0  0  3  0  0  0  0  0  0
    3.8945    0.8135    0.6512 O   0  0  0  0  0  0  0  0  0  0  0  0
    2.5344    0.6666    0.5113 N   0  0  0  0  0  0  0  0  0  0  0  0
   -1.9634   -0.3772    0.7770 C   0  0  0  0  0  0  0  0  0  0  0  0
   -2.5552    0.9953    1.0895 C   0  0  0  0  0  0  0  0  0  0  0  0
    0.5103   -0.9460   -1.5139 C   0  0  0  0  0  3  0  0  0  0  0  0
   -0.3821    0.0618   -0.8098 C   0  0  0  0  0  3  0  0  0  0  0  0
    2.0435   -0.3796   -0.0663 C   0  0  0  0  0  0  0  0  0  0  0  0
   -2.7283   -1.1446    1.0202 H   0  0  0  0  0  0  0  0  0  0  0  0
   -1.0880   -0.5853    1.4384 H   0  0  0  0  0  0  0  0  0  0  0  0
   -1.8005    1.7903    0.9129 H   0  0  0  0  0  0  0  0  0  0  0  0
   -3.4407    1.1829    0.4459 H   0  0  0  0  0  0  0  0  0  0  0  0
   -2.8694    1.0332    2.1538 H   0  0  0  0  0  0  0  0  0  0  0  0
    0.0738   -1.2207   -2.4975 H   0  0  0  0  0  0  0  0  0  0  0  0
    1.5154   -0.5029   -1.6721 H   0  0  0  0  0  0  0  0  0  0  0  0
    0.6130   -1.8573   -0.8884 H   0  0  0  0  0  0  0  0  0  0  0  0
   -0.4765    0.9803   -1.4275 H   0  0  0  0  0  0  0  0  0  0  0  0
    2.6951   -1.1554   -0.4485 H   0  0  0  0  0  0  0  0  0  0  0  0
    0.8088   -0.4996   -0.1862 H   0  0  0  0  0  0  0  0  0  0  0  0
    4.2706    1.6363    1.1050 H   0  0  0  0  0  0  0  0  0  0  0  0
  1  7  2  3
  1  4  1  0
  2  3  1  0
  2 20  1  0
  3  8  2  3
  4  5  1  0
  4  9  1  0
  4 10  1  0
  5 11  1  0
  5 12  1  0
  5 13  1  0
  6 14  1  0
  6 15  1  0
  6 16  1  0
  7 17  1  0
  8 18  1  0
  8 19  1  0
M  CHG  2   1   1   7  -1
M  RAD  1   6   2
M  END
>  <reaction>  (24) 
rmg_rxn_15515

>  <mol_properties>  (24) 
{"1": {"label": "*4", "atom_type": "N3d"}, "2": {"label": "*3", "atom_type": "Cd"}, "6": {"label": "*1", "atom_type": "Cs"}, "7": {"label": "*0", "atom_type": "O2s"}, "13": {"label": "*2", "atom_type": "H0"}}

>  <type>  (24) 
unop_20

>  <geom_source>  (24) 
AutoTST

$$$$

     RDKit          3D

 20 18  0  0  0  0  0  0  0  0999 V2000
   -2.3623   -2.9024    0.2693 O   0  0  0  0  0  0  0  0  0  0  0  0
   -1.5338   -2.0593   -0.4446 N   0  0  0  0  0  0  0  0  0  0  0  0
   -1.0756   -1.1280    0.2739 C   0  0  0  0  0  0  0  0  0  0  0  0
   -2.6351   -3.5505   -0.3831 H   0  0  0  0  0  0  0  0  0  0  0  0
   -1.3212   -1.0259    1.3288 H   0  0  0  0  0  0  0  0  0  0  0  0
    1.0306    0.1302   -2.1520 C   0  0  0  0  0  0  0  0  0  0  0  0
    1.0306    0.1302   -0.6408 C   0  0  0  0  0  3  0  0  0  0  0  0
    1.0306    1.4594   -0.1843 O   0  0  0  0  0  0  0  0  0  0  0  0
    1.0306    1.5636    1.2172 C   0  0  0  0  0  0  0  0  0  0  0  0
    1.0306    3.0252    1.6008 C   0  0  0  0  0  0  0  0  0  0  0  0
    1.9149    0.6413   -2.5341 H   0  0  0  0  0  0  0  0  0  0  0  0
    1.0306   -0.8933   -2.5300 H   0  0  0  0  0  0  0  0  0  0  0  0
    0.1462    0.6413   -2.5341 H   0  0  0  0  0  0  0  0  0  0  0  0
   -0.0313   -0.5042   -0.1796 H   0  0  0  0  0  0  0  0  0  0  0  0
    1.9155   -0.3984   -0.2565 H   0  0  0  0  0  0  0  0  0  0  0  0
    0.1456    1.0576    1.6310 H   0  0  0  0  0  0  0  0  0  0  0  0
    1.9155    1.0576    1.6310 H   0  0  0  0  0  0  0  0  0  0  0  0
    0.1462    3.5245    1.2035 H   0  0  0  0  0  0  0  0  0  0  0  0
    1.0306    3.1310    2.6868 H   0  0  0  0  0  0  0  0  0  0  0  0
    1.9149    3.5245    1.2035 H   0  0  0  0  0  0  0  0  0  0  0  0
  1  2  1  0
  1  4  1  0
  2  3  2  3
  3  5  1  0
  3 14  1  0
  6  7  1  0
  6 11  1  0
  6 12  1  0
  6 13  1  0
  7  8  1  0
  7 15  1  0
  8  9  1  0
  9 10  1  0
  9 16  1  0
  9 17  1  0
 10 18  1  0
 10 19  1  0
 10 20  1  0
M  RAD  1   7   2
M  END
>  <reaction>  (25) 
rmg_rxn_15515

>  <mol_properties>  (25) 
{"1": {"label": "*4", "atom_type": "N3d"}, "2": {"label": "*3", "atom_type": "Cd"}, "6": {"label": "*1", "atom_type": "Cs"}, "7": {"label": "*0", "atom_type": "O2s"}, "13": {"label": "*2", "atom_type": "H0"}}

>  <type>  (25) 
unop_21

>  <geom_source>  (25) 
gaussian_log

$$$$
