
     RDKit          3D

 12 11  0  0  0  0  0  0  0  0999 V2000
    1.8075    0.1979    0.4695 C   0  0  0  0  0  0  0  0  0  0  0  0
    1.0072   -0.8859   -0.7259 S   0  0  0  0  0  0  0  0  0  0  0  0
   -0.7258   -0.6904   -0.2447 C   0  0  0  0  0  0  0  0  0  0  0  0
   -1.0856   -1.2776    1.1108 C   0  0  0  0  0  0  0  0  0  0  0  0
    1.7126   -0.1777    1.4878 H   0  0  0  0  0  0  0  0  0  0  0  0
    1.4024    1.2089    0.4095 H   0  0  0  0  0  0  0  0  0  0  0  0
    2.8647    0.2298    0.2095 H   0  0  0  0  0  0  0  0  0  0  0  0
   -1.2866   -1.1892   -1.0369 H   0  0  0  0  0  0  0  0  0  0  0  0
   -0.9814    0.3707   -0.2917 H   0  0  0  0  0  0  0  0  0  0  0  0
   -0.5492   -0.7768    1.9180 H   0  0  0  0  0  0  0  0  0  0  0  0
   -0.8418   -2.3397    1.1503 H   0  0  0  0  0  0  0  0  0  0  0  0
   -2.1545   -1.1604    1.3035 H   0  0  0  0  0  0  0  0  0  0  0  0
  1  2  1  0
  1  5  1  0
  1  6  1  0
  1  7  1  0
  2  3  1  0
  3  4  1  0
  3  8  1  0
  3  9  1  0
  4 10  1  0
  4 11  1  0
  4 12  1  0
M  END
>  <reaction>  (1) 
rmg_rxn_15513

>  <mol_properties>  (1) 
{"3": {"label": "donator", "atom_type": "Cs"}, "9": {"label": "d_hydrogen", "atom_type": "H0"}}

>  <type>  (1) 
r1h

$$$$

     RDKit          3D

  5  4  0  0  0  0  0  0  0  0999 V2000
    0.8934    0.3742    0.4948 O   0  0  0  0  0  0  0  0  0  0  0  0
    0.1582   -0.1610   -0.5904 N   0  0  0  0  0  0  0  0  0  0  0  0
   -1.0297   -0.3739   -0.4689 C   0  0  0  0  0  3  0  0  0  0  0  0
    1.7804    0.4382    0.1306 H   0  0  0  0  0  0  0  0  0  0  0  0
   -1.8023   -0.2775    0.2859 H   0  0  0  0  0  0  0  0  0  0  0  0
  1  2  1  0
  1  4  1  0
  2  3  2  3
  3  5  1  0
M  RAD  1   3   2
M  END
>  <reaction>  (2) 
rmg_rxn_15513

>  <mol_properties>  (2) 
{"2": {"label": "acceptor", "atom_type": "Cd"}}

>  <type>  (2) 
r2

$$$$

     RDKit          3D

  6  5  0  0  0  0  0  0  0  0999 V2000
    1.2314    0.0428    0.5088 O   0  0  0  0  0  0  0  0  0  0  0  0
    0.2987    0.2341   -0.4915 N   0  0  0  0  0  0  0  0  0  0  0  0
   -0.8599   -0.1122   -0.1290 C   0  0  0  0  0  0  0  0  0  0  0  0
    2.0507    0.3401    0.1082 H   0  0  0  0  0  0  0  0  0  0  0  0
   -1.0700   -0.5112    0.8610 H   0  0  0  0  0  0  0  0  0  0  0  0
   -1.6509    0.0064   -0.8574 H   0  0  0  0  0  0  0  0  0  0  0  0
  1  2  1  0
  1  4  1  0
  2  3  2  3
  3  5  1  0
  3  6  1  0
M  END
>  <reaction>  (3) 
rmg_rxn_15513

>  <mol_properties>  (3) 
{"2": {"label": "acceptor", "atom_type": "Cd"}, "5": {"label": "a_hydrogen", "atom_type": "H0"}}

>  <type>  (3) 
r2h

$$$$

     RDKit          3D

 17 15  0  0  0  0  0  0  0  0999 V2000
   -4.1085    0.5637    0.0677 O   0  0  0  0  0  0  0  0  0  0  0  0
   -2.7304    0.3227    0.0979 N   0  0  0  0  0  0  0  0  0  0  0  0
   -2.4173   -0.8673   -0.0854 C   0  0  0  0  0  3  0  0  0  0  0  0
   -4.1631    1.5091    0.2257 H   0  0  0  0  0  0  0  0  0  0  0  0
   -3.0812   -1.7137   -0.2603 H   0  0  0  0  0  0  0  0  0  0  0  0
    3.0677    0.1205   -1.1757 C   0  0  0  0  0  0  0  0  0  0  0  0
    2.4762    0.5174    0.4789 S   0  0  0  0  0  0  0  0  0  0  0  0
    0.6853    0.3260    0.2455 C   0  0  0  0  0  0  0  0  0  0  0  0
    0.2495   -1.0952    0.0284 C   0  0  0  0  0  0  0  0  0  0  0  0
    2.6078    0.7729   -1.9188 H   0  0  0  0  0  0  0  0  0  0  0  0
    2.8840   -0.9217   -1.4342 H   0  0  0  0  0  0  0  0  0  0  0  0
    4.1431    0.2934   -1.1764 H   0  0  0  0  0  0  0  0  0  0  0  0
    0.3669    0.9674   -0.5779 H   0  0  0  0  0  0  0  0  0  0  0  0
    0.2401    0.7285    1.1560 H   0  0  0  0  0  0  0  0  0  0  0  0
   -1.0251   -1.0700   -0.0431 H   0  0  0  0  0  0  0  0  0  0  0  0
    0.4698   -1.7600    0.8620 H   0  0  0  0  0  0  0  0  0  0  0  0
    0.5586   -1.5278   -0.9221 H   0  0  0  0  0  0  0  0  0  0  0  0
  1  2  1  0
  1  4  1  0
  2  3  2  3
  3  5  1  0
  6  7  1  0
  6 10  1  0
  6 11  1  0
  6 12  1  0
  7  8  1  0
  8  9  1  0
  8 13  1  0
  8 14  1  0
  9 15  1  0
  9 16  1  0
  9 17  1  0
M  RAD  1   3   2
M  END
>  <reaction>  (4) 
rmg_rxn_15513

>  <mol_properties>  (4) 
{"1": {"label": "*4", "atom_type": "N3d"}, "2": {"label": "*3", "atom_type": "Cd"}, "7": {"label": "*0", "atom_type": "Cs"}, "8": {"label": "*1", "atom_type": "Cs"}, "14": {"label": "*2", "atom_type": "H0"}}

>  <type>  (4) 
ts

$$$$

     RDKit          3D

 17 15  0  0  0  0  0  0  0  0999 V2000
   -4.1774    0.5852    0.1004 O   0  0  0  0  0  0  0  0  0  0  0  0
   -2.8014    0.2973    0.0669 N   0  0  0  0  0  0  0  0  0  0  0  0
   -2.4029   -0.8725    0.0451 C   0  0  0  0  0  0  0  0  0  0  0  0
   -4.2230    1.5516    0.1057 H   0  0  0  0  0  0  0  0  0  0  0  0
   -2.9601   -1.8009    0.0472 H   0  0  0  0  0  0  0  0  0  0  0  0
    3.0362    0.2142    1.2364 C   0  0  0  0  0  0  0  0  0  0  0  0
    2.6122    0.2035   -0.5278 S   0  0  0  0  0  0  0  0  0  0  0  0
    0.7626    0.2473   -0.4126 C   0  0  0  0  0  0  0  0  0  0  0  0
    0.2146   -1.0719   -0.0101 C   0  0  0  0  0  3  0  0  0  0  0  0
    2.7258   -0.7164    1.7019 H   0  0  0  0  0  0  0  0  0  0  0  0
    2.5605    1.0644    1.7175 H   0  0  0  0  0  0  0  0  0  0  0  0
    4.1153    0.3102    1.2937 H   0  0  0  0  0  0  0  0  0  0  0  0
    0.4430    0.5308   -1.4135 H   0  0  0  0  0  0  0  0  0  0  0  0
    0.5102    1.0395    0.2906 H   0  0  0  0  0  0  0  0  0  0  0  0
   -1.1014   -0.9709    0.0103 H   0  0  0  0  0  0  0  0  0  0  0  0
    0.4704   -1.3696    1.0013 H   0  0  0  0  0  0  0  0  0  0  0  0
    0.4207   -1.8618   -0.7238 H   0  0  0  0  0  0  0  0  0  0  0  0
  1  2  1  0
  1  4  1  0
  2  3  2  3
  3  5  1  0
  3 15  1  0
  6  7  1  0
  6 10  1  0
  6 11  1  0
  6 12  1  0
  7  8  1  0
  8  9  1  0
  8 13  1  0
  8 14  1  0
  9 16  1  0
  9 17  1  0
M  RAD  1   9   2
M  END
>  <reaction>  (5) 
rmg_rxn_15513

>  <mol_properties>  (5) 
{"1": {"label": "*4", "atom_type": "N3d"}, "2": {"label": "*3", "atom_type": "Cd"}, "7": {"label": "*0", "atom_type": "Cs"}, "8": {"label": "*1", "atom_type": "Cs"}, "14": {"label": "*2", "atom_type": "H0"}}

>  <type>  (5) 
unop_1

>  <geom_source>  (5) 
crest_best.xyz

$$$$

     RDKit          3D

 17 15  0  0  0  0  0  0  0  0999 V2000
    1.8419    1.8217   -2.6983 O   0  0  0  0  0  0  0  0  0  0  0  0
    0.8117    1.7974   -1.7790 N   0  0  0  0  0  0  0  0  0  0  0  0
    0.7515    0.6952   -1.1666 C   0  0  0  0  0  0  0  0  0  0  0  0
    1.7749    2.6975   -3.0837 H   0  0  0  0  0  0  0  0  0  0  0  0
    1.4429   -0.1222   -1.3604 H   0  0  0  0  0  0  0  0  0  0  0  0
   -0.9504   -1.6939   -0.3441 C   0  0  0  0  0  0  0  0  0  0  0  0
   -0.9504   -1.6939    1.4571 S   0  0  0  0  0  0  0  0  0  0  0  0
   -0.9504    0.0844    1.7901 C   0  0  0  0  0  0  0  0  0  0  0  0
    0.3288    0.8096    1.4037 C   0  0  0  0  0  3  0  0  0  0  0  0
   -0.0239   -1.2908   -0.7517 H   0  0  0  0  0  0  0  0  0  0  0  0
   -1.8004   -1.1314   -0.7326 H   0  0  0  0  0  0  0  0  0  0  0  0
   -1.0450   -2.7318   -0.6604 H   0  0  0  0  0  0  0  0  0  0  0  0
   -1.1214    0.1603    2.8652 H   0  0  0  0  0  0  0  0  0  0  0  0
   -1.8171    0.5298    1.2964 H   0  0  0  0  0  0  0  0  0  0  0  0
    0.5411    0.7522    0.1132 H   0  0  0  0  0  0  0  0  0  0  0  0
    1.1905    0.3714    1.9082 H   0  0  0  0  0  0  0  0  0  0  0  0
    0.2653    1.8645    1.6803 H   0  0  0  0  0  0  0  0  0  0  0  0
  1  2  1  0
  1  4  1  0
  2  3  2  3
  3  5  1  0
  3 15  1  0
  6  7  1  0
  6 10  1  0
  6 11  1  0
  6 12  1  0
  7  8  1  0
  8  9  1  0
  8 13  1  0
  8 14  1  0
  9 16  1  0
  9 17  1  0
M  RAD  1   9   2
M  END
>  <reaction>  (6) 
rmg_rxn_15513

>  <mol_properties>  (6) 
{"1": {"label": "*4", "atom_type": "N3d"}, "2": {"label": "*3", "atom_type": "Cd"}, "7": {"label": "*0", "atom_type": "Cs"}, "8": {"label": "*1", "atom_type": "Cs"}, "14": {"label": "*2", "atom_type": "H0"}}

>  <type>  (6) 
unop_2

>  <geom_source>  (6) 
Heuristics

$$$$

     RDKit          3D

 17 15  0  0  0  0  0  0  0  0999 V2000
   -1.9177   -1.2481    0.0339 O   0  0  0  0  0  0  0  0  0  0  0  0
   -2.8711   -0.1672    0.1003 N   0  0  0  0  0  0  0  0  0  0  0  0
   -2.6937    1.0156    0.0347 C   0  0  0  0  0  3  0  0  0  0  0  0
   -2.4559   -2.0450    0.1220 H   0  0  0  0  0  0  0  0  0  0  0  0
   -1.9414    1.7797   -0.0780 H   0  0  0  0  0  0  0  0  0  0  0  0
    0.4759    1.3447   -0.8990 C   0  0  0  0  0  0  0  0  0  0  0  0
    1.6302    0.8948    0.4163 S   0  0  0  0  0  0  0  0  0  0  0  0
    1.3232   -0.9009    0.5118 C   0  0  0  0  0  0  0  0  0  0  0  0
    2.0337   -1.6723   -0.5841 C   0  0  0  0  0  0  0  0  0  0  0  0
   -0.5572    1.2448   -0.5292 H   0  0  0  0  0  0  0  0  0  0  0  0
    0.6251    0.7059   -1.7635 H   0  0  0  0  0  0  0  0  0  0  0  0
    0.6771    2.3789   -1.1609 H   0  0  0  0  0  0  0  0  0  0  0  0
    0.2438   -1.0474    0.4694 H   0  0  0  0  0  0  0  0  0  0  0  0
    1.6908   -1.1954    1.4941 H   0  0  0  0  0  0  0  0  0  0  0  0
    3.1053   -1.4895   -0.5449 H   0  0  0  0  0  0  0  0  0  0  0  0
    1.6681   -1.3811   -1.5664 H   0  0  0  0  0  0  0  0  0  0  0  0
    1.8554   -2.7382   -0.4577 H   0  0  0  0  0  0  0  0  0  0  0  0
  1  2  1  0
  1  4  1  0
  2  3  2  3
  3  5  1  0
  6  7  1  0
  6 10  1  0
  6 11  1  0
  6 12  1  0
  7  8  1  0
  8  9  1  0
  8 13  1  0
  8 14  1  0
  9 15  1  0
  9 16  1  0
  9 17  1  0
M  RAD  1   3   2
M  END
>  <reaction>  (7) 
rmg_rxn_15513

>  <mol_properties>  (7) 
{"1": {"label": "*4", "atom_type": "N3d"}, "2": {"label": "*3", "atom_type": "Cd"}, "7": {"label": "*0", "atom_type": "Cs"}, "8": {"label": "*1", "atom_type": "Cs"}, "14": {"label": "*2", "atom_type": "H0"}}

>  <type>  (7) 
unop_3

>  <geom_source>  (7) 
Heuristics

$$$$

     RDKit          3D

 17 15  0  0  0  0  0  0  0  0999 V2000
   -2.8133    0.9564   -0.2950 O   0  0  0  0  0  0  0  0  0  0  0  0
   -1.8404   -0.1127   -0.0519 N   0  0  0  0  0  0  0  0  0  0  0  0
   -1.2820   -0.2847    1.0250 C   0  0  0  0  0  3  0  0  0  0  0  0
   -3.1639    0.7559   -1.1712 H   0  0  0  0  0  0  0  0  0  0  0  0
   -1.3165    0.2017    1.9817 H   0  0  0  0  0  0  0  0  0  0  0  0
    0.1742   -1.0213   -1.2483 C   0  0  0  0  0  0  0  0  0  0  0  0
    0.9228   -0.8605    0.3749 S   0  0  0  0  0  0  0  0  0  0  0  0
    1.3479    0.9186    0.3737 C   0  0  0  0  0  0  0  0  0  0  0  0
    2.6481    1.1884   -0.3591 C   0  0  0  0  0  0  0  0  0  0  0  0
   -0.8502   -0.6300   -1.0877 H   0  0  0  0  0  0  0  0  0  0  0  0
    0.1720   -2.0769   -1.5019 H   0  0  0  0  0  0  0  0  0  0  0  0
    0.7578   -0.4715   -1.9799 H   0  0  0  0  0  0  0  0  0  0  0  0
    1.4316    1.1977    1.4231 H   0  0  0  0  0  0  0  0  0  0  0  0
    0.5117    1.4533   -0.0748 H   0  0  0  0  0  0  0  0  0  0  0  0
    2.8779    2.2512   -0.3223 H   0  0  0  0  0  0  0  0  0  0  0  0
    2.5785    0.8898   -1.4027 H   0  0  0  0  0  0  0  0  0  0  0  0
    3.4639    0.6381    0.1028 H   0  0  0  0  0  0  0  0  0  0  0  0
  1  2  1  0
  1  4  1  0
  2  3  2  3
  3  5  1  0
  6  7  1  0
  6 10  1  0
  6 11  1  0
  6 12  1  0
  7  8  1  0
  8  9  1  0
  8 13  1  0
  8 14  1  0
  9 15  1  0
  9 16  1  0
  9 17  1  0
M  RAD  1   3   2
M  END
>  <reaction>  (8) 
rmg_rxn_15513

>  <mol_properties>  (8) 
{"1": {"label": "*4", "atom_type": "N3d"}, "2": {"label": "*3", "atom_type": "Cd"}, "7": {"label": "*0", "atom_type": "Cs"}, "8": {"label": "*1", "atom_type": "Cs"}, "14": {"label": "*2", "atom_type": "H0"}}

>  <type>  (8) 
unop_4

>  <geom_source>  (8) 
Heuristics

$$$$

     RDKit          3D

 17 15  0  0  0  0  0  0  0  0999 V2000
    0.4047    1.2241   -3.1234 O   0  0  0  0  0  0  0  0  0  0  0  0
    0.1187    0.8862   -1.8154 N   0  0  0  0  0  0  0  0  0  0  0  0
    1.1405    0.9510   -1.0770 C   0  0  0  0  0  0  0  0  0  0  0  0
   -0.4416    1.1348   -3.5659 H   0  0  0  0  0  0  0  0  0  0  0  0
    2.1189    1.2417   -1.4535 H   0  0  0  0  0  0  0  0  0  0  0  0
   -0.5614   -1.4381   -0.2545 C   0  0  0  0  0  0  0  0  0  0  0  0
   -0.5614   -1.4381    1.5468 S   0  0  0  0  0  0  0  0  0  0  0  0
   -0.5614    0.3401    1.8797 C   0  0  0  0  0  0  0  0  0  0  0  0
    0.7178    1.0654    1.4933 C   0  0  0  0  0  3  0  0  0  0  0  0
    0.3651   -1.0350   -0.6621 H   0  0  0  0  0  0  0  0  0  0  0  0
   -1.4114   -0.8757   -0.6430 H   0  0  0  0  0  0  0  0  0  0  0  0
   -0.6560   -2.4760   -0.5708 H   0  0  0  0  0  0  0  0  0  0  0  0
   -0.7324    0.4161    2.9548 H   0  0  0  0  0  0  0  0  0  0  0  0
   -1.4281    0.7856    1.3860 H   0  0  0  0  0  0  0  0  0  0  0  0
    0.9300    1.0079    0.2028 H   0  0  0  0  0  0  0  0  0  0  0  0
    1.5795    0.6272    1.9978 H   0  0  0  0  0  0  0  0  0  0  0  0
    0.6543    2.1203    1.7699 H   0  0  0  0  0  0  0  0  0  0  0  0
  1  2  1  0
  1  4  1  0
  2  3  2  3
  3  5  1  0
  3 15  1  0
  6  7  1  0
  6 10  1  0
  6 11  1  0
  6 12  1  0
  7  8  1  0
  8  9  1  0
  8 13  1  0
  8 14  1  0
  9 16  1  0
  9 17  1  0
M  RAD  1   9   2
M  END
>  <reaction>  (9) 
rmg_rxn_15513

>  <mol_properties>  (9) 
{"1": {"label": "*4", "atom_type": "N3d"}, "2": {"label": "*3", "atom_type": "Cd"}, "7": {"label": "*0", "atom_type": "Cs"}, "8": {"label": "*1", "atom_type": "Cs"}, "14": {"label": "*2", "atom_type": "H0"}}

>  <type>  (9) 
unop_5

>  <geom_source>  (9) 
Heuristics

$$$$

     RDKit          3D

 17 15  0  0  0  0  0  0  0  0999 V2000
   -4.1755   -0.5902    0.0817 O   0  0  0  0  0  0  0  0  0  0  0  0
   -2.7998   -0.2994    0.0588 N   0  0  0  0  0  0  0  0  0  0  0  0
   -2.4030    0.8711    0.0714 C   0  0  0  0  0  0  0  0  0  0  0  0
   -4.2195   -1.5564    0.0591 H   0  0  0  0  0  0  0  0  0  0  0  0
   -2.9615    1.7982    0.0993 H   0  0  0  0  0  0  0  0  0  0  0  0
    3.0338   -0.2603    1.2295 C   0  0  0  0  0  0  0  0  0  0  0  0
    2.6119   -0.1844   -0.5336 S   0  0  0  0  0  0  0  0  0  0  0  0
    0.7622   -0.2312   -0.4223 C   0  0  0  0  0  0  0  0  0  0  0  0
    0.2144    1.0737    0.0247 C   0  0  0  0  0  3  0  0  0  0  0  0
    2.7219    0.6521    1.7288 H   0  0  0  0  0  0  0  0  0  0  0  0
    4.1129   -0.3573    1.2847 H   0  0  0  0  0  0  0  0  0  0  0  0
    2.5583   -1.1282    1.6781 H   0  0  0  0  0  0  0  0  0  0  0  0
    0.5086   -1.0469    0.2530 H   0  0  0  0  0  0  0  0  0  0  0  0
    0.4435   -0.4799   -1.4327 H   0  0  0  0  0  0  0  0  0  0  0  0
   -1.1016    0.9720    0.0410 H   0  0  0  0  0  0  0  0  0  0  0  0
    0.4210    1.8875   -0.6617 H   0  0  0  0  0  0  0  0  0  0  0  0
    0.4698    1.3369    1.0458 H   0  0  0  0  0  0  0  0  0  0  0  0
  1  2  1  0
  1  4  1  0
  2  3  2  3
  3  5  1  0
  3 15  1  0
  6  7  1  0
  6 10  1  0
  6 11  1  0
  6 12  1  0
  7  8  1  0
  8  9  1  0
  8 13  1  0
  8 14  1  0
  9 16  1  0
  9 17  1  0
M  RAD  1   9   2
M  END
>  <reaction>  (10) 
rmg_rxn_15513

>  <mol_properties>  (10) 
{"1": {"label": "*4", "atom_type": "N3d"}, "2": {"label": "*3", "atom_type": "Cd"}, "7": {"label": "*0", "atom_type": "Cs"}, "8": {"label": "*1", "atom_type": "Cs"}, "14": {"label": "*2", "atom_type": "H0"}}

>  <type>  (10) 
unop_6

>  <geom_source>  (10) 
Heuristics

$$$$

     RDKit          3D

 17 15  0  0  0  0  0  0  0  0999 V2000
    2.0511    1.3662   -2.7480 O   0  0  0  0  0  0  0  0  0  0  0  0
    1.2631    1.7619   -1.6852 N   0  0  0  0  0  0  0  0  0  0  0  0
    0.6420    0.7907   -1.1709 C   0  0  0  0  0  0  0  0  0  0  0  0
    2.4582    2.1844   -3.0393 H   0  0  0  0  0  0  0  0  0  0  0  0
    0.7353   -0.2279   -1.5417 H   0  0  0  0  0  0  0  0  0  0  0  0
   -1.0599   -1.5984   -0.3484 C   0  0  0  0  0  0  0  0  0  0  0  0
   -1.0599   -1.5984    1.4528 S   0  0  0  0  0  0  0  0  0  0  0  0
   -1.0599    0.1799    1.7858 C   0  0  0  0  0  0  0  0  0  0  0  0
    0.2193    0.9051    1.3994 C   0  0  0  0  0  3  0  0  0  0  0  0
   -0.1335   -1.1953   -0.7560 H   0  0  0  0  0  0  0  0  0  0  0  0
   -1.9099   -1.0360   -0.7369 H   0  0  0  0  0  0  0  0  0  0  0  0
   -1.1545   -2.6363   -0.6647 H   0  0  0  0  0  0  0  0  0  0  0  0
   -1.2309    0.2558    2.8609 H   0  0  0  0  0  0  0  0  0  0  0  0
   -1.9266    0.6253    1.2921 H   0  0  0  0  0  0  0  0  0  0  0  0
    0.4315    0.8476    0.1089 H   0  0  0  0  0  0  0  0  0  0  0  0
    1.0810    0.4669    1.9039 H   0  0  0  0  0  0  0  0  0  0  0  0
    0.1558    1.9600    1.6760 H   0  0  0  0  0  0  0  0  0  0  0  0
  1  2  1  0
  1  4  1  0
  2  3  2  3
  3  5  1  0
  3 15  1  0
  6  7  1  0
  6 10  1  0
  6 11  1  0
  6 12  1  0
  7  8  1  0
  8  9  1  0
  8 13  1  0
  8 14  1  0
  9 16  1  0
  9 17  1  0
M  RAD  1   9   2
M  END
>  <reaction>  (11) 
rmg_rxn_15513

>  <mol_properties>  (11) 
{"1": {"label": "*4", "atom_type": "N3d"}, "2": {"label": "*3", "atom_type": "Cd"}, "7": {"label": "*0", "atom_type": "Cs"}, "8": {"label": "*1", "atom_type": "Cs"}, "14": {"label": "*2", "atom_type": "H0"}}

>  <type>  (11) 
unop_7

>  <geom_source>  (11) 
Heuristics

$$$$

     RDKit          3D

 17 15  0  0  0  0  0  0  0  0999 V2000
    1.7468    0.1261   -2.7509 O   0  0  0  0  0  0  0  0  0  0  0  0
    0.8827    0.1305   -1.6737 N   0  0  0  0  0  0  0  0  0  0  0  0
    0.7596    1.2823   -1.1721 C   0  0  0  0  0  0  0  0  0  0  0  0
    1.7484   -0.7914   -3.0305 H   0  0  0  0  0  0  0  0  0  0  0  0
    1.2846    2.1514   -1.5626 H   0  0  0  0  0  0  0  0  0  0  0  0
   -0.9423   -1.1068   -0.3496 C   0  0  0  0  0  0  0  0  0  0  0  0
   -0.9423   -1.1068    1.4517 S   0  0  0  0  0  0  0  0  0  0  0  0
   -0.9423    0.6715    1.7847 C   0  0  0  0  0  0  0  0  0  0  0  0
    0.3369    1.3967    1.3982 C   0  0  0  0  0  3  0  0  0  0  0  0
   -0.0158   -0.7037   -0.7572 H   0  0  0  0  0  0  0  0  0  0  0  0
   -1.7923   -0.5443   -0.7381 H   0  0  0  0  0  0  0  0  0  0  0  0
   -1.0369   -2.1447   -0.6658 H   0  0  0  0  0  0  0  0  0  0  0  0
   -1.1133    0.7474    2.8597 H   0  0  0  0  0  0  0  0  0  0  0  0
   -1.8090    1.1169    1.2909 H   0  0  0  0  0  0  0  0  0  0  0  0
    0.5492    1.3393    0.1077 H   0  0  0  0  0  0  0  0  0  0  0  0
    1.1986    0.9585    1.9028 H   0  0  0  0  0  0  0  0  0  0  0  0
    0.2734    2.4517    1.6748 H   0  0  0  0  0  0  0  0  0  0  0  0
  1  2  1  0
  1  4  1  0
  2  3  2  3
  3  5  1  0
  3 15  1  0
  6  7  1  0
  6 10  1  0
  6 11  1  0
  6 12  1  0
  7  8  1  0
  8  9  1  0
  8 13  1  0
  8 14  1  0
  9 16  1  0
  9 17  1  0
M  RAD  1   9   2
M  END
>  <reaction>  (12) 
rmg_rxn_15513

>  <mol_properties>  (12) 
{"1": {"label": "*4", "atom_type": "N3d"}, "2": {"label": "*3", "atom_type": "Cd"}, "7": {"label": "*0", "atom_type": "Cs"}, "8": {"label": "*1", "atom_type": "Cs"}, "14": {"label": "*2", "atom_type": "H0"}}

>  <type>  (12) 
unop_8

>  <geom_source>  (12) 
Heuristics

$$$$

     RDKit          3D

 17 15  0  0  0  0  0  0  0  0999 V2000
   -4.1737    0.5836   -0.1217 O   0  0  0  0  0  0  0  0  0  0  0  0
   -2.7985    0.2936   -0.0753 N   0  0  0  0  0  0  0  0  0  0  0  0
   -2.4027   -0.8759   -0.0189 C   0  0  0  0  0  0  0  0  0  0  0  0
   -4.2169    1.5496   -0.1545 H   0  0  0  0  0  0  0  0  0  0  0  0
   -2.9619   -1.8028    0.0035 H   0  0  0  0  0  0  0  0  0  0  0  0
    3.0407    0.1597   -1.2403 C   0  0  0  0  0  0  0  0  0  0  0  0
    2.6082    0.2283    0.5205 S   0  0  0  0  0  0  0  0  0  0  0  0
    0.7592    0.2639    0.3944 C   0  0  0  0  0  0  0  0  0  0  0  0
    0.2144   -1.0746    0.0564 C   0  0  0  0  0  3  0  0  0  0  0  0
    2.5695    0.9887   -1.7610 H   0  0  0  0  0  0  0  0  0  0  0  0
    2.7302   -0.7899   -1.6655 H   0  0  0  0  0  0  0  0  0  0  0  0
    4.1203    0.2506   -1.2965 H   0  0  0  0  0  0  0  0  0  0  0  0
    0.5095    1.0192   -0.3491 H   0  0  0  0  0  0  0  0  0  0  0  0
    0.4340    0.5971    1.3781 H   0  0  0  0  0  0  0  0  0  0  0  0
   -1.1015   -0.9751    0.0247 H   0  0  0  0  0  0  0  0  0  0  0  0
    0.4172   -1.8270    0.8105 H   0  0  0  0  0  0  0  0  0  0  0  0
    0.4757   -1.4232   -0.9372 H   0  0  0  0  0  0  0  0  0  0  0  0
  1  2  1  0
  1  4  1  0
  2  3  2  3
  3  5  1  0
  3 15  1  0
  6  7  1  0
  6 10  1  0
  6 11  1  0
  6 12  1  0
  7  8  1  0
  8  9  1  0
  8 13  1  0
  8 14  1  0
  9 16  1  0
  9 17  1  0
M  RAD  1   9   2
M  END
>  <reaction>  (13) 
rmg_rxn_15513

>  <mol_properties>  (13) 
{"1": {"label": "*4", "atom_type": "N3d"}, "2": {"label": "*3", "atom_type": "Cd"}, "7": {"label": "*0", "atom_type": "Cs"}, "8": {"label": "*1", "atom_type": "Cs"}, "14": {"label": "*2", "atom_type": "H0"}}

>  <type>  (13) 
unop_9

>  <geom_source>  (13) 
Heuristics

$$$$

     RDKit          3D

 17 15  0  0  0  0  0  0  0  0999 V2000
    1.7998    1.3068   -2.9456 O   0  0  0  0  0  0  0  0  0  0  0  0
    1.6704    1.4264   -1.5759 N   0  0  0  0  0  0  0  0  0  0  0  0
    0.6303    0.8531   -1.1483 C   0  0  0  0  0  0  0  0  0  0  0  0
    2.6144    1.7771   -3.1336 H   0  0  0  0  0  0  0  0  0  0  0  0
   -0.0649    0.3334   -1.8042 H   0  0  0  0  0  0  0  0  0  0  0  0
   -1.0717   -1.5360   -0.3258 C   0  0  0  0  0  0  0  0  0  0  0  0
   -1.0717   -1.5360    1.4754 S   0  0  0  0  0  0  0  0  0  0  0  0
   -1.0717    0.2423    1.8084 C   0  0  0  0  0  0  0  0  0  0  0  0
    0.2075    0.9675    1.4220 C   0  0  0  0  0  3  0  0  0  0  0  0
   -0.1452   -1.1329   -0.7334 H   0  0  0  0  0  0  0  0  0  0  0  0
   -1.9216   -0.9736   -0.7143 H   0  0  0  0  0  0  0  0  0  0  0  0
   -1.1663   -2.5739   -0.6421 H   0  0  0  0  0  0  0  0  0  0  0  0
   -1.2427    0.3182    2.8835 H   0  0  0  0  0  0  0  0  0  0  0  0
   -1.9384    0.6877    1.3147 H   0  0  0  0  0  0  0  0  0  0  0  0
    0.4198    0.9100    0.1315 H   0  0  0  0  0  0  0  0  0  0  0  0
    1.0692    0.5293    1.9265 H   0  0  0  0  0  0  0  0  0  0  0  0
    0.1440    2.0224    1.6986 H   0  0  0  0  0  0  0  0  0  0  0  0
  1  2  1  0
  1  4  1  0
  2  3  2  3
  3  5  1  0
  3 15  1  0
  6  7  1  0
  6 10  1  0
  6 11  1  0
  6 12  1  0
  7  8  1  0
  8  9  1  0
  8 13  1  0
  8 14  1  0
  9 16  1  0
  9 17  1  0
M  RAD  1   9   2
M  END
>  <reaction>  (14) 
rmg_rxn_15513

>  <mol_properties>  (14) 
{"1": {"label": "*4", "atom_type": "N3d"}, "2": {"label": "*3", "atom_type": "Cd"}, "7": {"label": "*0", "atom_type": "Cs"}, "8": {"label": "*1", "atom_type": "Cs"}, "14": {"label": "*2", "atom_type": "H0"}}

>  <type>  (14) 
unop_10

>  <geom_source>  (14) 
Heuristics

$$$$

     RDKit          3D

 17 15  0  0  0  0  0  0  0  0999 V2000
   -4.1789   -0.5722   -0.1492 O   0  0  0  0  0  0  0  0  0  0  0  0
   -2.8026   -0.2898   -0.0888 N   0  0  0  0  0  0  0  0  0  0  0  0
   -2.4028    0.8744    0.0226 C   0  0  0  0  0  0  0  0  0  0  0  0
   -4.2257   -1.5354   -0.2273 H   0  0  0  0  0  0  0  0  0  0  0  0
   -2.9591    1.8010    0.0884 H   0  0  0  0  0  0  0  0  0  0  0  0
    3.0473   -0.0872   -1.2433 C   0  0  0  0  0  0  0  0  0  0  0  0
    2.6090   -0.2566    0.5093 S   0  0  0  0  0  0  0  0  0  0  0  0
    0.7605   -0.2883    0.3754 C   0  0  0  0  0  0  0  0  0  0  0  0
    0.2144    1.0659    0.1092 C   0  0  0  0  0  3  0  0  0  0  0  0
    2.5773   -0.8845   -1.8123 H   0  0  0  0  0  0  0  0  0  0  0  0
    4.1270   -0.1755   -1.3011 H   0  0  0  0  0  0  0  0  0  0  0  0
    2.7388    0.8856   -1.6141 H   0  0  0  0  0  0  0  0  0  0  0  0
    0.4329   -0.6751    1.3384 H   0  0  0  0  0  0  0  0  0  0  0  0
    0.5144   -1.0023   -0.4090 H   0  0  0  0  0  0  0  0  0  0  0  0
   -1.1015    0.9681    0.0715 H   0  0  0  0  0  0  0  0  0  0  0  0
    0.4762    1.4675   -0.8641 H   0  0  0  0  0  0  0  0  0  0  0  0
    0.4161    1.7769    0.9027 H   0  0  0  0  0  0  0  0  0  0  0  0
  1  2  1  0
  1  4  1  0
  2  3  2  3
  3  5  1  0
  3 15  1  0
  6  7  1  0
  6 10  1  0
  6 11  1  0
  6 12  1  0
  7  8  1  0
  8  9  1  0
  8 13  1  0
  8 14  1  0
  9 16  1  0
  9 17  1  0
M  RAD  1   9   2
M  END
>  <reaction>  (15) 
rmg_rxn_15513

>  <mol_properties>  (15) 
{"1": {"label": "*4", "atom_type": "N3d"}, "2": {"label": "*3", "atom_type": "Cd"}, "7": {"label": "*0", "atom_type": "Cs"}, "8": {"label": "*1", "atom_type": "Cs"}, "14": {"label": "*2", "atom_type": "H0"}}

>  <type>  (15) 
unop_11

>  <geom_source>  (15) 
Heuristics

$$$$

     RDKit          3D

 17 15  0  0  0  0  0  0  0  0999 V2000
    2.1825    0.5736   -2.6098 O   0  0  0  0  0  0  0  0  0  0  0  0
    1.2878    0.2021   -1.6257 N   0  0  0  0  0  0  0  0  0  0  0  0
    0.6123    1.1829   -1.2072 C   0  0  0  0  0  0  0  0  0  0  0  0
    2.6211   -0.2496   -2.8334 H   0  0  0  0  0  0  0  0  0  0  0  0
    0.7407    2.1915   -1.5943 H   0  0  0  0  0  0  0  0  0  0  0  0
   -1.0896   -1.2061   -0.3848 C   0  0  0  0  0  0  0  0  0  0  0  0
   -1.0896   -1.2061    1.4165 S   0  0  0  0  0  0  0  0  0  0  0  0
   -1.0896    0.5721    1.7495 C   0  0  0  0  0  0  0  0  0  0  0  0
    0.1895    1.2974    1.3631 C   0  0  0  0  0  3  0  0  0  0  0  0
   -0.1632   -0.8030   -0.7924 H   0  0  0  0  0  0  0  0  0  0  0  0
   -1.9396   -0.6437   -0.7732 H   0  0  0  0  0  0  0  0  0  0  0  0
   -1.1843   -2.2441   -0.7010 H   0  0  0  0  0  0  0  0  0  0  0  0
   -1.2607    0.6481    2.8246 H   0  0  0  0  0  0  0  0  0  0  0  0
   -1.9563    1.0176    1.2557 H   0  0  0  0  0  0  0  0  0  0  0  0
    0.4018    1.2399    0.0725 H   0  0  0  0  0  0  0  0  0  0  0  0
    1.0512    0.8592    1.8676 H   0  0  0  0  0  0  0  0  0  0  0  0
    0.1260    2.3523    1.6396 H   0  0  0  0  0  0  0  0  0  0  0  0
  1  2  1  0
  1  4  1  0
  2  3  2  3
  3  5  1  0
  3 15  1  0
  6  7  1  0
  6 10  1  0
  6 11  1  0
  6 12  1  0
  7  8  1  0
  8  9  1  0
  8 13  1  0
  8 14  1  0
  9 16  1  0
  9 17  1  0
M  RAD  1   9   2
M  END
>  <reaction>  (16) 
rmg_rxn_15513

>  <mol_properties>  (16) 
{"1": {"label": "*4", "atom_type": "N3d"}, "2": {"label": "*3", "atom_type": "Cd"}, "7": {"label": "*0", "atom_type": "Cs"}, "8": {"label": "*1", "atom_type": "Cs"}, "14": {"label": "*2", "atom_type": "H0"}}

>  <type>  (16) 
unop_12

>  <geom_source>  (16) 
Heuristics

$$$$

     RDKit          3D

 17 15  0  0  0  0  0  0  0  0999 V2000
   -4.1702   -0.5912   -0.1001 O   0  0  0  0  0  0  0  0  0  0  0  0
   -2.7958   -0.2964   -0.0632 N   0  0  0  0  0  0  0  0  0  0  0  0
   -2.4024    0.8753   -0.0531 C   0  0  0  0  0  0  0  0  0  0  0  0
   -4.2112   -1.5578   -0.0940 H   0  0  0  0  0  0  0  0  0  0  0  0
   -2.9637    1.8012   -0.0687 H   0  0  0  0  0  0  0  0  0  0  0  0
    3.0351   -0.2168   -1.2357 C   0  0  0  0  0  0  0  0  0  0  0  0
    2.6081   -0.2056    0.5278 S   0  0  0  0  0  0  0  0  0  0  0  0
    0.7587   -0.2441    0.4091 C   0  0  0  0  0  0  0  0  0  0  0  0
    0.2143    1.0797    0.0164 C   0  0  0  0  0  3  0  0  0  0  0  0
    4.1142   -0.3127   -1.2913 H   0  0  0  0  0  0  0  0  0  0  0  0
    2.7253    0.7136   -1.7020 H   0  0  0  0  0  0  0  0  0  0  0  0
    2.5602   -1.0671   -1.7173 H   0  0  0  0  0  0  0  0  0  0  0  0
    0.4358   -0.5351    1.4068 H   0  0  0  0  0  0  0  0  0  0  0  0
    0.5060   -1.0297   -0.3013 H   0  0  0  0  0  0  0  0  0  0  0  0
   -1.1015    0.9786   -0.0119 H   0  0  0  0  0  0  0  0  0  0  0  0
    0.4760    1.3873   -0.9906 H   0  0  0  0  0  0  0  0  0  0  0  0
    0.4170    1.8624    0.7390 H   0  0  0  0  0  0  0  0  0  0  0  0
  1  2  1  0
  1  4  1  0
  2  3  2  3
  3  5  1  0
  3 15  1  0
  6  7  1  0
  6 10  1  0
  6 11  1  0
  6 12  1  0
  7  8  1  0
  8  9  1  0
  8 13  1  0
  8 14  1  0
  9 16  1  0
  9 17  1  0
M  RAD  1   9   2
M  END
>  <reaction>  (17) 
rmg_rxn_15513

>  <mol_properties>  (17) 
{"1": {"label": "*4", "atom_type": "N3d"}, "2": {"label": "*3", "atom_type": "Cd"}, "7": {"label": "*0", "atom_type": "Cs"}, "8": {"label": "*1", "atom_type": "Cs"}, "14": {"label": "*2", "atom_type": "H0"}}

>  <type>  (17) 
unop_13

>  <geom_source>  (17) 
Heuristics

$$$$

     RDKit          3D

 17 15  0  0  0  0  0  0  0  0999 V2000
    2.2391    1.1714   -2.6040 O   0  0  0  0  0  0  0  0  0  0  0  0
    1.6222    0.4704   -1.5866 N   0  0  0  0  0  0  0  0  0  0  0  0
    0.5506    1.0242   -1.2143 C   0  0  0  0  0  0  0  0  0  0  0  0
    3.0243    0.6518   -2.7872 H   0  0  0  0  0  0  0  0  0  0  0  0
    0.1804    1.9449   -1.6601 H   0  0  0  0  0  0  0  0  0  0  0  0
   -1.1513   -1.3649   -0.3918 C   0  0  0  0  0  0  0  0  0  0  0  0
   -1.1513   -1.3649    1.4094 S   0  0  0  0  0  0  0  0  0  0  0  0
   -1.1513    0.4133    1.7424 C   0  0  0  0  0  0  0  0  0  0  0  0
    0.1279    1.1386    1.3560 C   0  0  0  0  0  3  0  0  0  0  0  0
   -0.2249   -0.9618   -0.7994 H   0  0  0  0  0  0  0  0  0  0  0  0
   -2.0013   -0.8025   -0.7803 H   0  0  0  0  0  0  0  0  0  0  0  0
   -1.2459   -2.4028   -0.7081 H   0  0  0  0  0  0  0  0  0  0  0  0
   -1.3224    0.4893    2.8175 H   0  0  0  0  0  0  0  0  0  0  0  0
   -2.0180    0.8588    1.2487 H   0  0  0  0  0  0  0  0  0  0  0  0
    0.3401    1.0811    0.0655 H   0  0  0  0  0  0  0  0  0  0  0  0
    0.9895    0.7004    1.8605 H   0  0  0  0  0  0  0  0  0  0  0  0
    0.0644    2.1935    1.6326 H   0  0  0  0  0  0  0  0  0  0  0  0
  1  2  1  0
  1  4  1  0
  2  3  2  3
  3  5  1  0
  3 15  1  0
  6  7  1  0
  6 10  1  0
  6 11  1  0
  6 12  1  0
  7  8  1  0
  8  9  1  0
  8 13  1  0
  8 14  1  0
  9 16  1  0
  9 17  1  0
M  RAD  1   9   2
M  END
>  <reaction>  (18) 
rmg_rxn_15513

>  <mol_properties>  (18) 
{"1": {"label": "*4", "atom_type": "N3d"}, "2": {"label": "*3", "atom_type": "Cd"}, "7": {"label": "*0", "atom_type": "Cs"}, "8": {"label": "*1", "atom_type": "Cs"}, "14": {"label": "*2", "atom_type": "H0"}}

>  <type>  (18) 
unop_14

>  <geom_source>  (18) 
Heuristics

$$$$

     RDKit          3D

 17 15  0  0  0  0  0  0  0  0999 V2000
   -4.1741   -0.5792   -0.1373 O   0  0  0  0  0  0  0  0  0  0  0  0
   -2.7988   -0.2915   -0.0807 N   0  0  0  0  0  0  0  0  0  0  0  0
   -2.4022    0.8761    0.0022 C   0  0  0  0  0  0  0  0  0  0  0  0
   -4.2181   -1.5442   -0.1910 H   0  0  0  0  0  0  0  0  0  0  0  0
   -2.9606    1.8030    0.0429 H   0  0  0  0  0  0  0  0  0  0  0  0
    3.0398   -0.1224   -1.2442 C   0  0  0  0  0  0  0  0  0  0  0  0
    2.6084   -0.2438    0.5141 S   0  0  0  0  0  0  0  0  0  0  0  0
    0.7594   -0.2753    0.3884 C   0  0  0  0  0  0  0  0  0  0  0  0
    0.2149    1.0716    0.0845 C   0  0  0  0  0  3  0  0  0  0  0  0
    2.5629   -0.9316   -1.7902 H   0  0  0  0  0  0  0  0  0  0  0  0
    4.1188   -0.2182   -1.3045 H   0  0  0  0  0  0  0  0  0  0  0  0
    2.7349    0.8421   -1.6389 H   0  0  0  0  0  0  0  0  0  0  0  0
    0.4348   -0.6330    1.3636 H   0  0  0  0  0  0  0  0  0  0  0  0
    0.5088   -1.0115   -0.3738 H   0  0  0  0  0  0  0  0  0  0  0  0
   -1.1010    0.9733    0.0502 H   0  0  0  0  0  0  0  0  0  0  0  0
    0.4760    1.4450   -0.9001 H   0  0  0  0  0  0  0  0  0  0  0  0
    0.4182    1.8047    0.8573 H   0  0  0  0  0  0  0  0  0  0  0  0
  1  2  1  0
  1  4  1  0
  2  3  2  3
  3  5  1  0
  3 15  1  0
  6  7  1  0
  6 10  1  0
  6 11  1  0
  6 12  1  0
  7  8  1  0
  8  9  1  0
  8 13  1  0
  8 14  1  0
  9 16  1  0
  9 17  1  0
M  RAD  1   9   2
M  END
>  <reaction>  (19) 
rmg_rxn_15513

>  <mol_properties>  (19) 
{"1": {"label": "*4", "atom_type": "N3d"}, "2": {"label": "*3", "atom_type": "Cd"}, "7": {"label": "*0", "atom_type": "Cs"}, "8": {"label": "*1", "atom_type": "Cs"}, "14": {"label": "*2", "atom_type": "H0"}}

>  <type>  (19) 
unop_15

>  <geom_source>  (19) 
Heuristics

$$$$

     RDKit          3D

 17 15  0  0  0  0  0  0  0  0999 V2000
    1.2926    2.0307   -2.8210 O   0  0  0  0  0  0  0  0  0  0  0  0
    0.4261    1.6129   -1.8302 N   0  0  0  0  0  0  0  0  0  0  0  0
    0.9184    0.6817   -1.1346 C   0  0  0  0  0  0  0  0  0  0  0  0
    0.8035    2.7263   -3.2648 H   0  0  0  0  0  0  0  0  0  0  0  0
    1.9111    0.2753   -1.3165 H   0  0  0  0  0  0  0  0  0  0  0  0
   -0.7835   -1.7074   -0.3121 C   0  0  0  0  0  0  0  0  0  0  0  0
   -0.7835   -1.7074    1.4892 S   0  0  0  0  0  0  0  0  0  0  0  0
   -0.7835    0.0708    1.8221 C   0  0  0  0  0  0  0  0  0  0  0  0
    0.4957    0.7961    1.4357 C   0  0  0  0  0  3  0  0  0  0  0  0
    0.1430   -1.3043   -0.7197 H   0  0  0  0  0  0  0  0  0  0  0  0
   -1.6335   -1.1450   -0.7006 H   0  0  0  0  0  0  0  0  0  0  0  0
   -0.8781   -2.7453   -0.6284 H   0  0  0  0  0  0  0  0  0  0  0  0
   -0.9545    0.1468    2.8972 H   0  0  0  0  0  0  0  0  0  0  0  0
   -1.6502    0.5163    1.3284 H   0  0  0  0  0  0  0  0  0  0  0  0
    0.7080    0.7386    0.1452 H   0  0  0  0  0  0  0  0  0  0  0  0
    1.3574    0.3579    1.9402 H   0  0  0  0  0  0  0  0  0  0  0  0
    0.4322    1.8510    1.7123 H   0  0  0  0  0  0  0  0  0  0  0  0
  1  2  1  0
  1  4  1  0
  2  3  2  3
  3  5  1  0
  3 15  1  0
  6  7  1  0
  6 10  1  0
  6 11  1  0
  6 12  1  0
  7  8  1  0
  8  9  1  0
  8 13  1  0
  8 14  1  0
  9 16  1  0
  9 17  1  0
M  RAD  1   9   2
M  END
>  <reaction>  (20) 
rmg_rxn_15513

>  <mol_properties>  (20) 
{"1": {"label": "*4", "atom_type": "N3d"}, "2": {"label": "*3", "atom_type": "Cd"}, "7": {"label": "*0", "atom_type": "Cs"}, "8": {"label": "*1", "atom_type": "Cs"}, "14": {"label": "*2", "atom_type": "H0"}}

>  <type>  (20) 
unop_16

>  <geom_source>  (20) 
Heuristics

$$$$

     RDKit          3D

 17 15  0  0  0  0  0  0  0  0999 V2000
   -4.1774    0.5852    0.1004 O   0  0  0  0  0  0  0  0  0  0  0  0
   -2.8014    0.2973    0.0669 N   0  0  0  0  0  0  0  0  0  0  0  0
   -2.4029   -0.8725    0.0451 C   0  0  0  0  0  0  0  0  0  0  0  0
   -4.2230    1.5516    0.1057 H   0  0  0  0  0  0  0  0  0  0  0  0
   -2.9601   -1.8009    0.0472 H   0  0  0  0  0  0  0  0  0  0  0  0
    3.0362    0.2142    1.2364 C   0  0  0  0  0  0  0  0  0  0  0  0
    2.6122    0.2035   -0.5278 S   0  0  0  0  0  0  0  0  0  0  0  0
    0.7626    0.2473   -0.4126 C   0  0  0  0  0  0  0  0  0  0  0  0
    0.2146   -1.0719   -0.0101 C   0  0  0  0  0  3  0  0  0  0  0  0
    2.7258   -0.7164    1.7019 H   0  0  0  0  0  0  0  0  0  0  0  0
    2.5605    1.0644    1.7175 H   0  0  0  0  0  0  0  0  0  0  0  0
    4.1153    0.3102    1.2937 H   0  0  0  0  0  0  0  0  0  0  0  0
    0.4430    0.5308   -1.4135 H   0  0  0  0  0  0  0  0  0  0  0  0
    0.5102    1.0395    0.2906 H   0  0  0  0  0  0  0  0  0  0  0  0
   -1.1014   -0.9709    0.0103 H   0  0  0  0  0  0  0  0  0  0  0  0
    0.4704   -1.3696    1.0013 H   0  0  0  0  0  0  0  0  0  0  0  0
    0.4207   -1.8618   -0.7238 H   0  0  0  0  0  0  0  0  0  0  0  0
  1  2  1  0
  1  4  1  0
  2  3  2  3
  3  5  1  0
  3 15  1  0
  6  7  1  0
  6 10  1  0
  6 11  1  0
  6 12  1  0
  7  8  1  0
  8  9  1  0
  8 13  1  0
  8 14  1  0
  9 16  1  0
  9 17  1  0
M  RAD  1   9   2
M  END
>  <reaction>  (21) 
rmg_rxn_15513

>  <mol_properties>  (21) 
{"1": {"label": "*4", "atom_type": "N3d"}, "2": {"label": "*3", "atom_type": "Cd"}, "7": {"label": "*0", "atom_type": "Cs"}, "8": {"label": "*1", "atom_type": "Cs"}, "14": {"label": "*2", "atom_type": "H0"}}

>  <type>  (21) 
unop_17

>  <geom_source>  (21) 
Heuristics

$$$$

     RDKit          3D

 17 15  0  0  0  0  0  0  0  0999 V2000
    1.1015    0.0833   -2.9581 O   0  0  0  0  0  0  0  0  0  0  0  0
    0.5063    0.2517   -1.7234 N   0  0  0  0  0  0  0  0  0  0  0  0
    0.9442    1.2725   -1.1236 C   0  0  0  0  0  0  0  0  0  0  0  0
    0.6860   -0.7115   -3.2982 H   0  0  0  0  0  0  0  0  0  0  0  0
    1.7015    1.9251   -1.5526 H   0  0  0  0  0  0  0  0  0  0  0  0
   -0.7577   -1.1166   -0.3011 C   0  0  0  0  0  0  0  0  0  0  0  0
   -0.7577   -1.1166    1.5001 S   0  0  0  0  0  0  0  0  0  0  0  0
   -0.7577    0.6617    1.8331 C   0  0  0  0  0  0  0  0  0  0  0  0
    0.5214    1.3869    1.4467 C   0  0  0  0  0  3  0  0  0  0  0  0
    0.1687   -0.7135   -0.7087 H   0  0  0  0  0  0  0  0  0  0  0  0
   -1.6077   -0.5542   -0.6896 H   0  0  0  0  0  0  0  0  0  0  0  0
   -0.8524   -2.1545   -0.6174 H   0  0  0  0  0  0  0  0  0  0  0  0
   -0.9288    0.7376    2.9082 H   0  0  0  0  0  0  0  0  0  0  0  0
   -1.6245    1.1071    1.3394 H   0  0  0  0  0  0  0  0  0  0  0  0
    0.7337    1.3294    0.1562 H   0  0  0  0  0  0  0  0  0  0  0  0
    1.3831    0.9487    1.9512 H   0  0  0  0  0  0  0  0  0  0  0  0
    0.4579    2.4418    1.7233 H   0  0  0  0  0  0  0  0  0  0  0  0
  1  2  1  0
  1  4  1  0
  2  3  2  3
  3  5  1  0
  3 15  1  0
  6  7  1  0
  6 10  1  0
  6 11  1  0
  6 12  1  0
  7  8  1  0
  8  9  1  0
  8 13  1  0
  8 14  1  0
  9 16  1  0
  9 17  1  0
M  RAD  1   9   2
M  END
>  <reaction>  (22) 
rmg_rxn_15513

>  <mol_properties>  (22) 
{"1": {"label": "*4", "atom_type": "N3d"}, "2": {"label": "*3", "atom_type": "Cd"}, "7": {"label": "*0", "atom_type": "Cs"}, "8": {"label": "*1", "atom_type": "Cs"}, "14": {"label": "*2", "atom_type": "H0"}}

>  <type>  (22) 
unop_18

>  <geom_source>  (22) 
Heuristics

$$$$

     RDKit          3D

 17 15  0  0  0  0  0  0  0  0999 V2000
    0.7159    1.8141   -2.9956 O   0  0  0  0  0  0  0  0  0  0  0  0
    0.1812    1.2790   -1.8403 N   0  0  0  0  0  0  0  0  0  0  0  0
    1.0695    0.7749   -1.0985 C   0  0  0  0  0  0  0  0  0  0  0  0
   -0.0519    2.1562   -3.4578 H   0  0  0  0  0  0  0  0  0  0  0  0
    2.1248    0.7759   -1.3632 H   0  0  0  0  0  0  0  0  0  0  0  0
   -0.6324   -1.6142   -0.2760 C   0  0  0  0  0  0  0  0  0  0  0  0
   -0.6324   -1.6142    1.5252 S   0  0  0  0  0  0  0  0  0  0  0  0
   -0.6324    0.1641    1.8582 C   0  0  0  0  0  0  0  0  0  0  0  0
    0.6468    0.8894    1.4718 C   0  0  0  0  0  3  0  0  0  0  0  0
    0.2941   -1.2111   -0.6836 H   0  0  0  0  0  0  0  0  0  0  0  0
   -1.4824   -1.0517   -0.6645 H   0  0  0  0  0  0  0  0  0  0  0  0
   -0.7270   -2.6521   -0.5923 H   0  0  0  0  0  0  0  0  0  0  0  0
   -0.8034    0.2401    2.9333 H   0  0  0  0  0  0  0  0  0  0  0  0
   -1.4991    0.6095    1.3645 H   0  0  0  0  0  0  0  0  0  0  0  0
    0.8590    0.8319    0.1813 H   0  0  0  0  0  0  0  0  0  0  0  0
    1.5085    0.4511    1.9763 H   0  0  0  0  0  0  0  0  0  0  0  0
    0.5833    1.9443    1.7484 H   0  0  0  0  0  0  0  0  0  0  0  0
  1  2  1  0
  1  4  1  0
  2  3  2  3
  3  5  1  0
  3 15  1  0
  6  7  1  0
  6 10  1  0
  6 11  1  0
  6 12  1  0
  7  8  1  0
  8  9  1  0
  8 13  1  0
  8 14  1  0
  9 16  1  0
  9 17  1  0
M  RAD  1   9   2
M  END
>  <reaction>  (23) 
rmg_rxn_15513

>  <mol_properties>  (23) 
{"1": {"label": "*4", "atom_type": "N3d"}, "2": {"label": "*3", "atom_type": "Cd"}, "7": {"label": "*0", "atom_type": "Cs"}, "8": {"label": "*1", "atom_type": "Cs"}, "14": {"label": "*2", "atom_type": "H0"}}

>  <type>  (23) 
unop_19

>  <geom_source>  (23) 
Heuristics

$$$$

     RDKit          3D

 17 15  0  0  0  0  0  0  0  0999 V2000
    1.9436    1.5423   -2.7736 O   0  0  0  0  0  0  0  0  0  0  0  0
    1.7890    0.9009   -1.5604 N   0  0  0  0  0  0  0  0  0  0  0  0
    0.5839    0.8858   -1.1847 C   0  0  0  0  0  0  0  0  0  0  0  0
    2.8867    1.4827   -2.9376 H   0  0  0  0  0  0  0  0  0  0  0  0
   -0.2181    1.3331   -1.7680 H   0  0  0  0  0  0  0  0  0  0  0  0
   -1.1180   -1.5033   -0.3622 C   0  0  0  0  0  0  0  0  0  0  0  0
   -1.1180   -1.5033    1.4390 S   0  0  0  0  0  0  0  0  0  0  0  0
   -1.1180    0.2750    1.7720 C   0  0  0  0  0  0  0  0  0  0  0  0
    0.1612    1.0002    1.3856 C   0  0  0  0  0  3  0  0  0  0  0  0
   -0.1915   -1.1002   -0.7698 H   0  0  0  0  0  0  0  0  0  0  0  0
   -1.9680   -0.9408   -0.7507 H   0  0  0  0  0  0  0  0  0  0  0  0
   -1.2126   -2.5412   -0.6785 H   0  0  0  0  0  0  0  0  0  0  0  0
   -1.2890    0.3509    2.8471 H   0  0  0  0  0  0  0  0  0  0  0  0
   -1.9847    0.7204    1.2783 H   0  0  0  0  0  0  0  0  0  0  0  0
    0.3734    0.9428    0.0951 H   0  0  0  0  0  0  0  0  0  0  0  0
    1.0229    0.5620    1.8901 H   0  0  0  0  0  0  0  0  0  0  0  0
    0.0977    2.0552    1.6622 H   0  0  0  0  0  0  0  0  0  0  0  0
  1  2  1  0
  1  4  1  0
  2  3  2  3
  3  5  1  0
  3 15  1  0
  6  7  1  0
  6 10  1  0
  6 11  1  0
  6 12  1  0
  7  8  1  0
  8  9  1  0
  8 13  1  0
  8 14  1  0
  9 16  1  0
  9 17  1  0
M  RAD  1   9   2
M  END
>  <reaction>  (24) 
rmg_rxn_15513

>  <mol_properties>  (24) 
{"1": {"label": "*4", "atom_type": "N3d"}, "2": {"label": "*3", "atom_type": "Cd"}, "7": {"label": "*0", "atom_type": "Cs"}, "8": {"label": "*1", "atom_type": "Cs"}, "14": {"label": "*2", "atom_type": "H0"}}

>  <type>  (24) 
unop_20

>  <geom_source>  (24) 
Heuristics

$$$$

     RDKit          3D

 17 15  0  0  0  0  0  0  0  0999 V2000
    0.5534    0.5209   -3.1156 O   0  0  0  0  0  0  0  0  0  0  0  0
    0.2364    0.5222   -1.7715 N   0  0  0  0  0  0  0  0  0  0  0  0
    1.0933    1.1451   -1.0851 C   0  0  0  0  0  0  0  0  0  0  0  0
   -0.1650    0.0246   -3.5127 H   0  0  0  0  0  0  0  0  0  0  0  0
    1.9691    1.6159   -1.5268 H   0  0  0  0  0  0  0  0  0  0  0  0
   -0.6086   -1.2440   -0.2626 C   0  0  0  0  0  0  0  0  0  0  0  0
   -0.6086   -1.2440    1.5386 S   0  0  0  0  0  0  0  0  0  0  0  0
   -0.6086    0.5342    1.8716 C   0  0  0  0  0  0  0  0  0  0  0  0
    0.6706    1.2595    1.4852 C   0  0  0  0  0  3  0  0  0  0  0  0
    0.3179   -0.8409   -0.6703 H   0  0  0  0  0  0  0  0  0  0  0  0
   -1.4586   -0.6816   -0.6511 H   0  0  0  0  0  0  0  0  0  0  0  0
   -0.7032   -2.2819   -0.5789 H   0  0  0  0  0  0  0  0  0  0  0  0
   -0.7796    0.6102    2.9467 H   0  0  0  0  0  0  0  0  0  0  0  0
   -1.4753    0.9797    1.3779 H   0  0  0  0  0  0  0  0  0  0  0  0
    0.8829    1.2020    0.1946 H   0  0  0  0  0  0  0  0  0  0  0  0
    1.5323    0.8213    1.9897 H   0  0  0  0  0  0  0  0  0  0  0  0
    0.6071    2.3144    1.7617 H   0  0  0  0  0  0  0  0  0  0  0  0
  1  2  1  0
  1  4  1  0
  2  3  2  3
  3  5  1  0
  3 15  1  0
  6  7  1  0
  6 10  1  0
  6 11  1  0
  6 12  1  0
  7  8  1  0
  8  9  1  0
  8 13  1  0
  8 14  1  0
  9 16  1  0
  9 17  1  0
M  RAD  1   9   2
M  END
>  <reaction>  (25) 
rmg_rxn_15513

>  <mol_properties>  (25) 
{"1": {"label": "*4", "atom_type": "N3d"}, "2": {"label": "*3", "atom_type": "Cd"}, "7": {"label": "*0", "atom_type": "Cs"}, "8": {"label": "*1", "atom_type": "Cs"}, "14": {"label": "*2", "atom_type": "H0"}}

>  <type>  (25) 
unop_21

>  <geom_source>  (25) 
Heuristics

$$$$

     RDKit          3D

 17 15  0  0  0  0  0  0  0  0999 V2000
   -1.9620    0.9439   -0.7691 S   0  0  0  0  0  0  0  0  0  0  0  0
    3.5148    1.0029   -0.2532 O   0  0  0  0  0  0  0  0  0  0  0  0
    3.3526    0.0502    0.7244 N   0  0  0  0  0  0  0  0  0  0  0  0
   -0.8891   -0.4087   -0.1801 C   0  0  0  0  0  0  0  0  0  0  0  0
   -3.3195    0.5664    0.3837 C   0  0  0  0  0  0  0  0  0  0  0  0
    0.4167   -0.4116   -0.9564 C   0  0  0  0  0  3  0  0  0  0  0  0
    2.4135   -0.8309    0.6268 C   0  0  0  0  0  0  0  0  0  0  0  0
   -1.3984   -1.3846   -0.3260 H   0  0  0  0  0  0  0  0  0  0  0  0
   -0.6676   -0.2714    0.8993 H   0  0  0  0  0  0  0  0  0  0  0  0
   -2.9665    0.6567    1.4321 H   0  0  0  0  0  0  0  0  0  0  0  0
   -4.1451    1.2889    0.2197 H   0  0  0  0  0  0  0  0  0  0  0  0
   -3.6999   -0.4604    0.2025 H   0  0  0  0  0  0  0  0  0  0  0  0
    0.9605    0.5453   -0.8073 H   0  0  0  0  0  0  0  0  0  0  0  0
    0.2261   -0.5733   -2.0386 H   0  0  0  0  0  0  0  0  0  0  0  0
    2.2924   -1.5771    1.4000 H   0  0  0  0  0  0  0  0  0  0  0  0
    1.6191   -0.8274   -0.3859 H   0  0  0  0  0  0  0  0  0  0  0  0
    4.2525    1.6912   -0.1718 H   0  0  0  0  0  0  0  0  0  0  0  0
  1  5  1  0
  1  4  1  0
  2  3  1  0
  2 17  1  0
  3  7  2  3
  4  6  1  0
  4  8  1  0
  4  9  1  0
  5 10  1  0
  5 11  1  0
  5 12  1  0
  6 13  1  0
  6 14  1  0
  7 15  1  0
  7 16  1  0
M  RAD  1   6   2
M  END
>  <reaction>  (26) 
rmg_rxn_15513

>  <mol_properties>  (26) 
{"1": {"label": "*4", "atom_type": "N3d"}, "2": {"label": "*3", "atom_type": "Cd"}, "7": {"label": "*0", "atom_type": "Cs"}, "8": {"label": "*1", "atom_type": "Cs"}, "14": {"label": "*2", "atom_type": "H0"}}

>  <type>  (26) 
unop_22

>  <geom_source>  (26) 
AutoTST

$$$$

     RDKit          3D

 17 15  0  0  0  0  0  0  0  0999 V2000
    0.4047    1.2241   -3.1234 O   0  0  0  0  0  0  0  0  0  0  0  0
    0.1187    0.8862   -1.8154 N   0  0  0  0  0  0  0  0  0  0  0  0
    1.1405    0.9510   -1.0770 C   0  0  0  0  0  0  0  0  0  0  0  0
   -0.4416    1.1348   -3.5659 H   0  0  0  0  0  0  0  0  0  0  0  0
    2.1189    1.2417   -1.4535 H   0  0  0  0  0  0  0  0  0  0  0  0
   -0.5614   -1.4381   -0.2545 C   0  0  0  0  0  0  0  0  0  0  0  0
   -0.5614   -1.4381    1.5468 S   0  0  0  0  0  0  0  0  0  0  0  0
   -0.5614    0.3402    1.8797 C   0  0  0  0  0  0  0  0  0  0  0  0
    0.7178    1.0654    1.4933 C   0  0  0  0  0  3  0  0  0  0  0  0
    0.3651   -1.0350   -0.6621 H   0  0  0  0  0  0  0  0  0  0  0  0
   -1.4114   -0.8757   -0.6430 H   0  0  0  0  0  0  0  0  0  0  0  0
   -0.6560   -2.4760   -0.5708 H   0  0  0  0  0  0  0  0  0  0  0  0
   -0.7324    0.4161    2.9548 H   0  0  0  0  0  0  0  0  0  0  0  0
   -1.4281    0.7856    1.3860 H   0  0  0  0  0  0  0  0  0  0  0  0
    0.9301    1.0079    0.2028 H   0  0  0  0  0  0  0  0  0  0  0  0
    1.5795    0.6272    1.9978 H   0  0  0  0  0  0  0  0  0  0  0  0
    0.6543    2.1203    1.7699 H   0  0  0  0  0  0  0  0  0  0  0  0
  1  2  1  0
  1  4  1  0
  2  3  2  3
  3  5  1  0
  3 15  1  0
  6  7  1  0
  6 10  1  0
  6 11  1  0
  6 12  1  0
  7  8  1  0
  8  9  1  0
  8 13  1  0
  8 14  1  0
  9 16  1  0
  9 17  1  0
M  RAD  1   9   2
M  END
>  <reaction>  (27) 
rmg_rxn_15513

>  <mol_properties>  (27) 
{"1": {"label": "*4", "atom_type": "N3d"}, "2": {"label": "*3", "atom_type": "Cd"}, "7": {"label": "*0", "atom_type": "Cs"}, "8": {"label": "*1", "atom_type": "Cs"}, "14": {"label": "*2", "atom_type": "H0"}}

>  <type>  (27) 
unop_23

>  <geom_source>  (27) 
gaussian_log

$$$$
