
     RDKit          3D

  8  7  0  0  0  0  0  0  0  0999 V2000
    0.9548    0.1194   -0.0790 C   0  0  0  0  0  0  0  0  0  0  0  0
   -0.4838   -0.2649    0.0193 C   0  0  0  0  0  0  0  0  0  0  0  0
   -0.8933   -1.1081    0.8664 N   0  0  0  0  0  0  0  0  0  0  0  0
    1.3360   -0.0983   -1.0800 H   0  0  0  0  0  0  0  0  0  0  0  0
    1.0698    1.1948    0.0786 H   0  0  0  0  0  0  0  0  0  0  0  0
    1.5426   -0.4219    0.6602 H   0  0  0  0  0  0  0  0  0  0  0  0
   -1.1575    0.2324   -0.6905 H   0  0  0  0  0  0  0  0  0  0  0  0
   -1.8989   -1.2455    0.7886 H   0  0  0  0  0  0  0  0  0  0  0  0
  1  2  1  0
  1  4  1  0
  1  5  1  0
  1  6  1  0
  2  3  2  3
  2  7  1  0
  3  8  1  0
M  END
>  <reaction>  (1) 
rmg_rxn_16719

>  <mol_properties>  (1) 
{"2": {"label": "donator", "atom_type": "N3d"}, "7": {"label": "d_hydrogen", "atom_type": "H0"}}

>  <type>  (1) 
r1h

$$$$

     RDKit          3D

  4  3  0  0  0  0  0  0  0  0999 V2000
   -0.0235    0.0026    0.0007 C   0  0  0  0  0  0  0  0  0  0  0  0
    1.2046   -0.1325   -0.0372 N   0  0  0  0  0  2  0  0  0  0  0  0
   -0.6930   -0.8666    0.0185 H   0  0  0  0  0  0  0  0  0  0  0  0
   -0.4880    0.9965    0.0179 H   0  0  0  0  0  0  0  0  0  0  0  0
  1  2  2  0
  1  3  1  0
  1  4  1  0
M  RAD  1   2   2
M  END
>  <reaction>  (2) 
rmg_rxn_16719

>  <mol_properties>  (2) 
{"1": {"label": "acceptor", "atom_type": "N3d"}}

>  <type>  (2) 
r2

$$$$

     RDKit          3D

  5  4  0  0  0  0  0  0  0  0999 V2000
   -0.3689   -0.0540    0.1184 C   0  0  0  0  0  0  0  0  0  0  0  0
    0.7862    0.4359    0.2394 N   0  0  0  0  0  0  0  0  0  0  0  0
   -0.6872   -0.7035   -0.7033 H   0  0  0  0  0  0  0  0  0  0  0  0
   -1.1194    0.1733    0.8758 H   0  0  0  0  0  0  0  0  0  0  0  0
    1.3892    0.1482   -0.5303 H   0  0  0  0  0  0  0  0  0  0  0  0
  1  2  2  3
  1  3  1  0
  1  4  1  0
  2  5  1  0
M  END
>  <reaction>  (3) 
rmg_rxn_16719

>  <mol_properties>  (3) 
{"1": {"label": "acceptor", "atom_type": "N3d"}, "4": {"label": "a_hydrogen", "atom_type": "H0"}}

>  <type>  (3) 
r2h

$$$$

     RDKit          3D

 12 10  0  0  0  0  0  0  0  0999 V2000
    0.3269   -0.5471    2.5967 C   0  0  0  0  0  0  0  0  0  0  0  0
   -0.5791   -0.6453    1.7417 N   0  0  0  0  0  0  0  0  0  0  0  0
    1.3315   -0.1732    2.3636 H   0  0  0  0  0  0  0  0  0  0  0  0
    0.1322   -0.8408    3.6323 H   0  0  0  0  0  0  0  0  0  0  0  0
   -0.0389   -0.1009   -2.7727 C   0  0  0  0  0  0  0  0  0  0  0  0
   -0.3253   -0.3124   -1.3163 C   0  0  0  0  0  0  0  0  0  0  0  0
    0.4408    0.0832   -0.4076 N   0  0  0  0  0  2  0  0  0  0  0  0
    0.0056   -1.0651   -3.2837 H   0  0  0  0  0  0  0  0  0  0  0  0
   -0.8487    0.4732   -3.2280 H   0  0  0  0  0  0  0  0  0  0  0  0
    0.9028    0.4273   -2.9083 H   0  0  0  0  0  0  0  0  0  0  0  0
   -1.2574   -0.8405   -1.0712 H   0  0  0  0  0  0  0  0  0  0  0  0
   -0.0904   -0.2410    0.6731 H   0  0  0  0  0  0  0  0  0  0  0  0
  1  2  2  3
  1  3  1  0
  1  4  1  0
  2 12  1  0
  5  6  1  0
  5  8  1  0
  5  9  1  0
  5 10  1  0
  6  7  2  0
  6 11  1  0
M  RAD  1   7   2
M  END
>  <reaction>  (4) 
rmg_rxn_16719

>  <mol_properties>  (4) 
{"0": {"label": "*0", "atom_type": "Cd"}, "1": {"label": "*1", "atom_type": "N3d"}, "5": {"label": "*4", "atom_type": "Cd"}, "6": {"label": "*3", "atom_type": "N3d"}, "11": {"label": "*2", "atom_type": "H0"}}

>  <type>  (4) 
ts

$$$$

     RDKit          3D

 12 10  0  0  0  0  0  0  0  0999 V2000
    2.7453    0.2901   -0.0023 C   0  0  0  0  0  0  0  0  0  0  0  0
    1.8273   -0.5349    0.0018 N   0  0  0  0  0  2  0  0  0  0  0  0
    2.6214    1.3773   -0.0051 H   0  0  0  0  0  0  0  0  0  0  0  0
    3.7811   -0.0508   -0.0035 H   0  0  0  0  0  0  0  0  0  0  0  0
   -2.7769    0.0749   -0.0012 C   0  0  0  0  0  0  0  0  0  0  0  0
   -1.3360   -0.3353   -0.0009 C   0  0  0  0  0  0  0  0  0  0  0  0
   -0.4048    0.4827    0.0030 N   0  0  0  0  0  0  0  0  0  0  0  0
   -3.2683   -0.3368    0.8788 H   0  0  0  0  0  0  0  0  0  0  0  0
   -2.8629    1.1578    0.0028 H   0  0  0  0  0  0  0  0  0  0  0  0
   -3.2660   -0.3301   -0.8857 H   0  0  0  0  0  0  0  0  0  0  0  0
   -1.1833   -1.4232   -0.0044 H   0  0  0  0  0  0  0  0  0  0  0  0
    0.7059   -0.0236    0.0029 H   0  0  0  0  0  0  0  0  0  0  0  0
  1  2  2  0
  1  3  1  0
  1  4  1  0
  5  6  1  0
  5  8  1  0
  5  9  1  0
  5 10  1  0
  6  7  2  3
  6 11  1  0
  7 12  1  0
M  RAD  1   2   2
M  END
>  <reaction>  (5) 
rmg_rxn_16719

>  <mol_properties>  (5) 
{"0": {"label": "*0", "atom_type": "Cd"}, "1": {"label": "*1", "atom_type": "N3d"}, "5": {"label": "*4", "atom_type": "Cd"}, "6": {"label": "*3", "atom_type": "N3d"}, "11": {"label": "*2", "atom_type": "H0"}}

>  <type>  (5) 
unop_1

>  <geom_source>  (5) 
crest_best.xyz

$$$$

     RDKit          3D

 12 10  0  0  0  0  0  0  0  0999 V2000
    0.8049    0.5503    2.4642 C   0  0  0  0  0  0  0  0  0  0  0  0
   -0.2136    0.0583    1.9079 N   0  0  0  0  0  2  0  0  0  0  0  0
    1.8179    0.5168    2.0509 H   0  0  0  0  0  0  0  0  0  0  0  0
    0.6898    1.0493    3.4267 H   0  0  0  0  0  0  0  0  0  0  0  0
   -0.2136   -0.5537   -2.6529 C   0  0  0  0  0  0  0  0  0  0  0  0
   -0.2136   -0.5537   -1.1606 C   0  0  0  0  0  0  0  0  0  0  0  0
   -0.2136    0.5190   -0.4929 N   0  0  0  0  0  0  0  0  0  0  0  0
    0.6646   -1.0837   -3.0303 H   0  0  0  0  0  0  0  0  0  0  0  0
   -1.0919   -1.0837   -3.0303 H   0  0  0  0  0  0  0  0  0  0  0  0
   -0.2136    0.4670   -3.0315 H   0  0  0  0  0  0  0  0  0  0  0  0
   -0.2136   -1.5434   -0.6859 H   0  0  0  0  0  0  0  0  0  0  0  0
   -0.2136    0.2888    0.7067 H   0  0  0  0  0  0  0  0  0  0  0  0
  1  2  2  0
  1  3  1  0
  1  4  1  0
  5  6  1  0
  5  8  1  0
  5  9  1  0
  5 10  1  0
  6  7  2  3
  6 11  1  0
  7 12  1  0
M  RAD  1   2   2
M  END
>  <reaction>  (6) 
rmg_rxn_16719

>  <mol_properties>  (6) 
{"0": {"label": "*0", "atom_type": "Cd"}, "1": {"label": "*1", "atom_type": "N3d"}, "5": {"label": "*4", "atom_type": "Cd"}, "6": {"label": "*3", "atom_type": "N3d"}, "11": {"label": "*2", "atom_type": "H0"}}

>  <type>  (6) 
unop_2

>  <geom_source>  (6) 
Heuristics

$$$$

     RDKit          3D

 12 10  0  0  0  0  0  0  0  0999 V2000
    0.4643   -0.6958    2.2250 C   0  0  0  0  0  0  0  0  0  0  0  0
   -0.1237    0.3899    1.9713 N   0  0  0  0  0  2  0  0  0  0  0  0
    0.6545   -1.4871    1.4929 H   0  0  0  0  0  0  0  0  0  0  0  0
    0.8166   -0.8792    3.2403 H   0  0  0  0  0  0  0  0  0  0  0  0
   -0.1237   -0.2221   -2.5895 C   0  0  0  0  0  0  0  0  0  0  0  0
   -0.1237   -0.2221   -1.0971 C   0  0  0  0  0  0  0  0  0  0  0  0
   -0.1237    0.8506   -0.4294 N   0  0  0  0  0  0  0  0  0  0  0  0
    0.7546   -0.7521   -2.9669 H   0  0  0  0  0  0  0  0  0  0  0  0
   -1.0019   -0.7521   -2.9669 H   0  0  0  0  0  0  0  0  0  0  0  0
   -0.1237    0.7986   -2.9680 H   0  0  0  0  0  0  0  0  0  0  0  0
   -0.1237   -1.2118   -0.6225 H   0  0  0  0  0  0  0  0  0  0  0  0
   -0.1237    0.6204    0.7702 H   0  0  0  0  0  0  0  0  0  0  0  0
  1  2  2  0
  1  3  1  0
  1  4  1  0
  5  6  1  0
  5  8  1  0
  5  9  1  0
  5 10  1  0
  6  7  2  3
  6 11  1  0
  7 12  1  0
M  RAD  1   2   2
M  END
>  <reaction>  (7) 
rmg_rxn_16719

>  <mol_properties>  (7) 
{"0": {"label": "*0", "atom_type": "Cd"}, "1": {"label": "*1", "atom_type": "N3d"}, "5": {"label": "*4", "atom_type": "Cd"}, "6": {"label": "*3", "atom_type": "N3d"}, "11": {"label": "*2", "atom_type": "H0"}}

>  <type>  (7) 
unop_3

>  <geom_source>  (7) 
Heuristics

$$$$

     RDKit          3D

 12 10  0  0  0  0  0  0  0  0999 V2000
    0.4649    0.8846    2.5283 C   0  0  0  0  0  0  0  0  0  0  0  0
   -0.1231   -0.0302    1.8908 N   0  0  0  0  0  2  0  0  0  0  0  0
    1.2967    1.4800    2.1385 H   0  0  0  0  0  0  0  0  0  0  0  0
    0.1366    1.1147    3.5421 H   0  0  0  0  0  0  0  0  0  0  0  0
   -0.1231   -0.6421   -2.6700 C   0  0  0  0  0  0  0  0  0  0  0  0
   -0.1231   -0.6421   -1.1777 C   0  0  0  0  0  0  0  0  0  0  0  0
   -0.1231    0.4305   -0.5100 N   0  0  0  0  0  0  0  0  0  0  0  0
    0.7551   -1.1721   -3.0474 H   0  0  0  0  0  0  0  0  0  0  0  0
   -1.0014   -1.1721   -3.0474 H   0  0  0  0  0  0  0  0  0  0  0  0
   -0.1231    0.3785   -3.0486 H   0  0  0  0  0  0  0  0  0  0  0  0
   -0.1231   -1.6318   -0.7030 H   0  0  0  0  0  0  0  0  0  0  0  0
   -0.1231    0.2003    0.6896 H   0  0  0  0  0  0  0  0  0  0  0  0
  1  2  2  0
  1  3  1  0
  1  4  1  0
  5  6  1  0
  5  8  1  0
  5  9  1  0
  5 10  1  0
  6  7  2  3
  6 11  1  0
  7 12  1  0
M  RAD  1   2   2
M  END
>  <reaction>  (8) 
rmg_rxn_16719

>  <mol_properties>  (8) 
{"0": {"label": "*0", "atom_type": "Cd"}, "1": {"label": "*1", "atom_type": "N3d"}, "5": {"label": "*4", "atom_type": "Cd"}, "6": {"label": "*3", "atom_type": "N3d"}, "11": {"label": "*2", "atom_type": "H0"}}

>  <type>  (8) 
unop_4

>  <geom_source>  (8) 
Heuristics

$$$$

     RDKit          3D

 12 10  0  0  0  0  0  0  0  0999 V2000
   -0.8044   -0.3620    2.2891 C   0  0  0  0  0  0  0  0  0  0  0  0
    0.2141    0.3009    1.9543 N   0  0  0  0  0  2  0  0  0  0  0  0
   -1.2957   -1.1101    1.6588 H   0  0  0  0  0  0  0  0  0  0  0  0
   -1.2427   -0.1931    3.2730 H   0  0  0  0  0  0  0  0  0  0  0  0
    0.2141   -0.3110   -2.6064 C   0  0  0  0  0  0  0  0  0  0  0  0
    0.2141   -0.3110   -1.1141 C   0  0  0  0  0  0  0  0  0  0  0  0
    0.2141    0.7616   -0.4464 N   0  0  0  0  0  0  0  0  0  0  0  0
    1.0923   -0.8410   -2.9839 H   0  0  0  0  0  0  0  0  0  0  0  0
   -0.6642   -0.8410   -2.9839 H   0  0  0  0  0  0  0  0  0  0  0  0
    0.2141    0.7096   -2.9850 H   0  0  0  0  0  0  0  0  0  0  0  0
    0.2141   -1.3007   -0.6395 H   0  0  0  0  0  0  0  0  0  0  0  0
    0.2141    0.5314    0.7532 H   0  0  0  0  0  0  0  0  0  0  0  0
  1  2  2  0
  1  3  1  0
  1  4  1  0
  5  6  1  0
  5  8  1  0
  5  9  1  0
  5 10  1  0
  6  7  2  3
  6 11  1  0
  7 12  1  0
M  RAD  1   2   2
M  END
>  <reaction>  (9) 
rmg_rxn_16719

>  <mol_properties>  (9) 
{"0": {"label": "*0", "atom_type": "Cd"}, "1": {"label": "*1", "atom_type": "N3d"}, "5": {"label": "*4", "atom_type": "Cd"}, "6": {"label": "*3", "atom_type": "N3d"}, "11": {"label": "*2", "atom_type": "H0"}}

>  <type>  (9) 
unop_5

>  <geom_source>  (9) 
Heuristics

$$$$

     RDKit          3D

 12 10  0  0  0  0  0  0  0  0999 V2000
   -0.0000    1.0071    2.5517 C   0  0  0  0  0  0  0  0  0  0  0  0
   -0.0000   -0.0624    1.8845 N   0  0  0  0  0  2  0  0  0  0  0  0
   -0.0000    2.0120    2.1177 H   0  0  0  0  0  0  0  0  0  0  0  0
    0.0000    0.9486    3.6403 H   0  0  0  0  0  0  0  0  0  0  0  0
    0.0000   -0.6744   -2.6763 C   0  0  0  0  0  0  0  0  0  0  0  0
    0.0000   -0.6744   -1.1839 C   0  0  0  0  0  0  0  0  0  0  0  0
    0.0000    0.3982   -0.5163 N   0  0  0  0  0  0  0  0  0  0  0  0
    0.8783   -1.2044   -3.0537 H   0  0  0  0  0  0  0  0  0  0  0  0
   -0.8783   -1.2044   -3.0537 H   0  0  0  0  0  0  0  0  0  0  0  0
   -0.0000    0.3462   -3.0549 H   0  0  0  0  0  0  0  0  0  0  0  0
    0.0000   -1.6641   -0.7093 H   0  0  0  0  0  0  0  0  0  0  0  0
   -0.0000    0.1681    0.6833 H   0  0  0  0  0  0  0  0  0  0  0  0
  1  2  2  0
  1  3  1  0
  1  4  1  0
  5  6  1  0
  5  8  1  0
  5  9  1  0
  5 10  1  0
  6  7  2  3
  6 11  1  0
  7 12  1  0
M  RAD  1   2   2
M  END
>  <reaction>  (10) 
rmg_rxn_16719

>  <mol_properties>  (10) 
{"0": {"label": "*0", "atom_type": "Cd"}, "1": {"label": "*1", "atom_type": "N3d"}, "5": {"label": "*4", "atom_type": "Cd"}, "6": {"label": "*3", "atom_type": "N3d"}, "11": {"label": "*2", "atom_type": "H0"}}

>  <type>  (10) 
unop_6

>  <geom_source>  (10) 
Heuristics

$$$$

     RDKit          3D

 12 10  0  0  0  0  0  0  0  0999 V2000
   -0.9291    0.0940    2.3767 C   0  0  0  0  0  0  0  0  0  0  0  0
    0.2470    0.1795    1.9311 N   0  0  0  0  0  2  0  0  0  0  0  0
   -1.7540   -0.4118    1.8648 H   0  0  0  0  0  0  0  0  0  0  0  0
   -1.1620    0.5500    3.3392 H   0  0  0  0  0  0  0  0  0  0  0  0
    0.2470   -0.4325   -2.6297 C   0  0  0  0  0  0  0  0  0  0  0  0
    0.2470   -0.4325   -1.1373 C   0  0  0  0  0  0  0  0  0  0  0  0
    0.2470    0.6402   -0.4697 N   0  0  0  0  0  0  0  0  0  0  0  0
    1.1252   -0.9624   -3.0071 H   0  0  0  0  0  0  0  0  0  0  0  0
   -0.6313   -0.9624   -3.0071 H   0  0  0  0  0  0  0  0  0  0  0  0
    0.2470    0.5882   -3.0083 H   0  0  0  0  0  0  0  0  0  0  0  0
    0.2470   -1.4221   -0.6627 H   0  0  0  0  0  0  0  0  0  0  0  0
    0.2470    0.4100    0.7299 H   0  0  0  0  0  0  0  0  0  0  0  0
  1  2  2  0
  1  3  1  0
  1  4  1  0
  5  6  1  0
  5  8  1  0
  5  9  1  0
  5 10  1  0
  6  7  2  3
  6 11  1  0
  7 12  1  0
M  RAD  1   2   2
M  END
>  <reaction>  (11) 
rmg_rxn_16719

>  <mol_properties>  (11) 
{"0": {"label": "*0", "atom_type": "Cd"}, "1": {"label": "*1", "atom_type": "N3d"}, "5": {"label": "*4", "atom_type": "Cd"}, "6": {"label": "*3", "atom_type": "N3d"}, "11": {"label": "*2", "atom_type": "H0"}}

>  <type>  (11) 
unop_7

>  <geom_source>  (11) 
Heuristics

$$$$

     RDKit          3D

 12 10  0  0  0  0  0  0  0  0999 V2000
   -0.8049    0.5503    2.4642 C   0  0  0  0  0  0  0  0  0  0  0  0
    0.2136    0.0583    1.9079 N   0  0  0  0  0  2  0  0  0  0  0  0
   -1.8179    0.5168    2.0509 H   0  0  0  0  0  0  0  0  0  0  0  0
   -0.6898    1.0493    3.4267 H   0  0  0  0  0  0  0  0  0  0  0  0
    0.2136   -0.5537   -2.6529 C   0  0  0  0  0  0  0  0  0  0  0  0
    0.2136   -0.5537   -1.1606 C   0  0  0  0  0  0  0  0  0  0  0  0
    0.2136    0.5190   -0.4929 N   0  0  0  0  0  0  0  0  0  0  0  0
    1.0919   -1.0837   -3.0303 H   0  0  0  0  0  0  0  0  0  0  0  0
   -0.6646   -1.0837   -3.0303 H   0  0  0  0  0  0  0  0  0  0  0  0
    0.2136    0.4670   -3.0315 H   0  0  0  0  0  0  0  0  0  0  0  0
    0.2136   -1.5434   -0.6859 H   0  0  0  0  0  0  0  0  0  0  0  0
    0.2136    0.2888    0.7067 H   0  0  0  0  0  0  0  0  0  0  0  0
  1  2  2  0
  1  3  1  0
  1  4  1  0
  5  6  1  0
  5  8  1  0
  5  9  1  0
  5 10  1  0
  6  7  2  3
  6 11  1  0
  7 12  1  0
M  RAD  1   2   2
M  END
>  <reaction>  (12) 
rmg_rxn_16719

>  <mol_properties>  (12) 
{"0": {"label": "*0", "atom_type": "Cd"}, "1": {"label": "*1", "atom_type": "N3d"}, "5": {"label": "*4", "atom_type": "Cd"}, "6": {"label": "*3", "atom_type": "N3d"}, "11": {"label": "*2", "atom_type": "H0"}}

>  <type>  (12) 
unop_8

>  <geom_source>  (12) 
Heuristics

$$$$

     RDKit          3D

 12 10  0  0  0  0  0  0  0  0999 V2000
    0.9291    0.0940    2.3767 C   0  0  0  0  0  0  0  0  0  0  0  0
   -0.2470    0.1795    1.9311 N   0  0  0  0  0  2  0  0  0  0  0  0
    1.7540   -0.4118    1.8648 H   0  0  0  0  0  0  0  0  0  0  0  0
    1.1620    0.5500    3.3392 H   0  0  0  0  0  0  0  0  0  0  0  0
   -0.2470   -0.4325   -2.6297 C   0  0  0  0  0  0  0  0  0  0  0  0
   -0.2470   -0.4325   -1.1373 C   0  0  0  0  0  0  0  0  0  0  0  0
   -0.2470    0.6402   -0.4697 N   0  0  0  0  0  0  0  0  0  0  0  0
    0.6313   -0.9624   -3.0071 H   0  0  0  0  0  0  0  0  0  0  0  0
   -1.1252   -0.9624   -3.0071 H   0  0  0  0  0  0  0  0  0  0  0  0
   -0.2470    0.5882   -3.0083 H   0  0  0  0  0  0  0  0  0  0  0  0
   -0.2470   -1.4221   -0.6627 H   0  0  0  0  0  0  0  0  0  0  0  0
   -0.2470    0.4100    0.7299 H   0  0  0  0  0  0  0  0  0  0  0  0
  1  2  2  0
  1  3  1  0
  1  4  1  0
  5  6  1  0
  5  8  1  0
  5  9  1  0
  5 10  1  0
  6  7  2  3
  6 11  1  0
  7 12  1  0
M  RAD  1   2   2
M  END
>  <reaction>  (13) 
rmg_rxn_16719

>  <mol_properties>  (13) 
{"0": {"label": "*0", "atom_type": "Cd"}, "1": {"label": "*1", "atom_type": "N3d"}, "5": {"label": "*4", "atom_type": "Cd"}, "6": {"label": "*3", "atom_type": "N3d"}, "11": {"label": "*2", "atom_type": "H0"}}

>  <type>  (13) 
unop_9

>  <geom_source>  (13) 
Heuristics

$$$$

     RDKit          3D

 12 10  0  0  0  0  0  0  0  0999 V2000
    2.7453    0.2901   -0.0023 C   0  0  0  0  0  0  0  0  0  0  0  0
    1.8273   -0.5349    0.0018 N   0  0  0  0  0  2  0  0  0  0  0  0
    2.6214    1.3773   -0.0051 H   0  0  0  0  0  0  0  0  0  0  0  0
    3.7811   -0.0508   -0.0035 H   0  0  0  0  0  0  0  0  0  0  0  0
   -2.7769    0.0749   -0.0012 C   0  0  0  0  0  0  0  0  0  0  0  0
   -1.3360   -0.3353   -0.0009 C   0  0  0  0  0  0  0  0  0  0  0  0
   -0.4048    0.4827    0.0030 N   0  0  0  0  0  0  0  0  0  0  0  0
   -3.2683   -0.3368    0.8788 H   0  0  0  0  0  0  0  0  0  0  0  0
   -2.8629    1.1578    0.0028 H   0  0  0  0  0  0  0  0  0  0  0  0
   -3.2660   -0.3301   -0.8857 H   0  0  0  0  0  0  0  0  0  0  0  0
   -1.1833   -1.4232   -0.0044 H   0  0  0  0  0  0  0  0  0  0  0  0
    0.7059   -0.0236    0.0029 H   0  0  0  0  0  0  0  0  0  0  0  0
  1  2  2  0
  1  3  1  0
  1  4  1  0
  5  6  1  0
  5  8  1  0
  5  9  1  0
  5 10  1  0
  6  7  2  3
  6 11  1  0
  7 12  1  0
M  RAD  1   2   2
M  END
>  <reaction>  (14) 
rmg_rxn_16719

>  <mol_properties>  (14) 
{"0": {"label": "*0", "atom_type": "Cd"}, "1": {"label": "*1", "atom_type": "N3d"}, "5": {"label": "*4", "atom_type": "Cd"}, "6": {"label": "*3", "atom_type": "N3d"}, "11": {"label": "*2", "atom_type": "H0"}}

>  <type>  (14) 
unop_10

>  <geom_source>  (14) 
Heuristics

$$$$

     RDKit          3D

 12 10  0  0  0  0  0  0  0  0999 V2000
   -0.4643   -0.6958    2.2250 C   0  0  0  0  0  0  0  0  0  0  0  0
    0.1237    0.3899    1.9713 N   0  0  0  0  0  2  0  0  0  0  0  0
   -0.6545   -1.4871    1.4929 H   0  0  0  0  0  0  0  0  0  0  0  0
   -0.8166   -0.8792    3.2403 H   0  0  0  0  0  0  0  0  0  0  0  0
    0.1237   -0.2221   -2.5895 C   0  0  0  0  0  0  0  0  0  0  0  0
    0.1237   -0.2221   -1.0971 C   0  0  0  0  0  0  0  0  0  0  0  0
    0.1237    0.8506   -0.4294 N   0  0  0  0  0  0  0  0  0  0  0  0
    1.0019   -0.7521   -2.9669 H   0  0  0  0  0  0  0  0  0  0  0  0
   -0.7546   -0.7521   -2.9669 H   0  0  0  0  0  0  0  0  0  0  0  0
    0.1237    0.7986   -2.9680 H   0  0  0  0  0  0  0  0  0  0  0  0
    0.1237   -1.2118   -0.6225 H   0  0  0  0  0  0  0  0  0  0  0  0
    0.1237    0.6204    0.7702 H   0  0  0  0  0  0  0  0  0  0  0  0
  1  2  2  0
  1  3  1  0
  1  4  1  0
  5  6  1  0
  5  8  1  0
  5  9  1  0
  5 10  1  0
  6  7  2  3
  6 11  1  0
  7 12  1  0
M  RAD  1   2   2
M  END
>  <reaction>  (15) 
rmg_rxn_16719

>  <mol_properties>  (15) 
{"0": {"label": "*0", "atom_type": "Cd"}, "1": {"label": "*1", "atom_type": "N3d"}, "5": {"label": "*4", "atom_type": "Cd"}, "6": {"label": "*3", "atom_type": "N3d"}, "11": {"label": "*2", "atom_type": "H0"}}

>  <type>  (15) 
unop_11

>  <geom_source>  (15) 
Heuristics

$$$$

     RDKit          3D

 12 10  0  0  0  0  0  0  0  0999 V2000
    0.8044   -0.3620    2.2891 C   0  0  0  0  0  0  0  0  0  0  0  0
   -0.2141    0.3009    1.9543 N   0  0  0  0  0  2  0  0  0  0  0  0
    1.2957   -1.1101    1.6588 H   0  0  0  0  0  0  0  0  0  0  0  0
    1.2427   -0.1931    3.2730 H   0  0  0  0  0  0  0  0  0  0  0  0
   -0.2141   -0.3110   -2.6064 C   0  0  0  0  0  0  0  0  0  0  0  0
   -0.2141   -0.3110   -1.1141 C   0  0  0  0  0  0  0  0  0  0  0  0
   -0.2141    0.7616   -0.4464 N   0  0  0  0  0  0  0  0  0  0  0  0
    0.6642   -0.8410   -2.9839 H   0  0  0  0  0  0  0  0  0  0  0  0
   -1.0923   -0.8410   -2.9839 H   0  0  0  0  0  0  0  0  0  0  0  0
   -0.2141    0.7096   -2.9850 H   0  0  0  0  0  0  0  0  0  0  0  0
   -0.2141   -1.3007   -0.6395 H   0  0  0  0  0  0  0  0  0  0  0  0
   -0.2141    0.5314    0.7532 H   0  0  0  0  0  0  0  0  0  0  0  0
  1  2  2  0
  1  3  1  0
  1  4  1  0
  5  6  1  0
  5  8  1  0
  5  9  1  0
  5 10  1  0
  6  7  2  3
  6 11  1  0
  7 12  1  0
M  RAD  1   2   2
M  END
>  <reaction>  (16) 
rmg_rxn_16719

>  <mol_properties>  (16) 
{"0": {"label": "*0", "atom_type": "Cd"}, "1": {"label": "*1", "atom_type": "N3d"}, "5": {"label": "*4", "atom_type": "Cd"}, "6": {"label": "*3", "atom_type": "N3d"}, "11": {"label": "*2", "atom_type": "H0"}}

>  <type>  (16) 
unop_12

>  <geom_source>  (16) 
Heuristics

$$$$

     RDKit          3D

 12 10  0  0  0  0  0  0  0  0999 V2000
   -0.4649    0.8846    2.5283 C   0  0  0  0  0  0  0  0  0  0  0  0
    0.1231   -0.0302    1.8908 N   0  0  0  0  0  2  0  0  0  0  0  0
   -1.2967    1.4800    2.1385 H   0  0  0  0  0  0  0  0  0  0  0  0
   -0.1366    1.1147    3.5421 H   0  0  0  0  0  0  0  0  0  0  0  0
    0.1231   -0.6421   -2.6700 C   0  0  0  0  0  0  0  0  0  0  0  0
    0.1231   -0.6421   -1.1777 C   0  0  0  0  0  0  0  0  0  0  0  0
    0.1231    0.4305   -0.5100 N   0  0  0  0  0  0  0  0  0  0  0  0
    1.0014   -1.1721   -3.0474 H   0  0  0  0  0  0  0  0  0  0  0  0
   -0.7551   -1.1721   -3.0474 H   0  0  0  0  0  0  0  0  0  0  0  0
    0.1231    0.3785   -3.0486 H   0  0  0  0  0  0  0  0  0  0  0  0
    0.1231   -1.6318   -0.7030 H   0  0  0  0  0  0  0  0  0  0  0  0
    0.1231    0.2003    0.6896 H   0  0  0  0  0  0  0  0  0  0  0  0
  1  2  2  0
  1  3  1  0
  1  4  1  0
  5  6  1  0
  5  8  1  0
  5  9  1  0
  5 10  1  0
  6  7  2  3
  6 11  1  0
  7 12  1  0
M  RAD  1   2   2
M  END
>  <reaction>  (17) 
rmg_rxn_16719

>  <mol_properties>  (17) 
{"0": {"label": "*0", "atom_type": "Cd"}, "1": {"label": "*1", "atom_type": "N3d"}, "5": {"label": "*4", "atom_type": "Cd"}, "6": {"label": "*3", "atom_type": "N3d"}, "11": {"label": "*2", "atom_type": "H0"}}

>  <type>  (17) 
unop_13

>  <geom_source>  (17) 
Heuristics

$$$$

     RDKit          3D

 12 10  0  0  0  0  0  0  0  0999 V2000
   -0.0000   -0.8179    2.2015 C   0  0  0  0  0  0  0  0  0  0  0  0
   -0.0000    0.4225    1.9776 N   0  0  0  0  0  2  0  0  0  0  0  0
    0.0000   -1.5909    1.4264 H   0  0  0  0  0  0  0  0  0  0  0  0
   -0.0000   -1.1665    3.2345 H   0  0  0  0  0  0  0  0  0  0  0  0
    0.0000   -0.1895   -2.5832 C   0  0  0  0  0  0  0  0  0  0  0  0
    0.0000   -0.1895   -1.0909 C   0  0  0  0  0  0  0  0  0  0  0  0
    0.0000    0.8832   -0.4232 N   0  0  0  0  0  0  0  0  0  0  0  0
    0.8783   -0.7195   -2.9606 H   0  0  0  0  0  0  0  0  0  0  0  0
   -0.8783   -0.7195   -2.9606 H   0  0  0  0  0  0  0  0  0  0  0  0
   -0.0000    0.8312   -2.9618 H   0  0  0  0  0  0  0  0  0  0  0  0
    0.0000   -1.1792   -0.6163 H   0  0  0  0  0  0  0  0  0  0  0  0
   -0.0000    0.6530    0.7764 H   0  0  0  0  0  0  0  0  0  0  0  0
  1  2  2  0
  1  3  1  0
  1  4  1  0
  5  6  1  0
  5  8  1  0
  5  9  1  0
  5 10  1  0
  6  7  2  3
  6 11  1  0
  7 12  1  0
M  RAD  1   2   2
M  END
>  <reaction>  (18) 
rmg_rxn_16719

>  <mol_properties>  (18) 
{"0": {"label": "*0", "atom_type": "Cd"}, "1": {"label": "*1", "atom_type": "N3d"}, "5": {"label": "*4", "atom_type": "Cd"}, "6": {"label": "*3", "atom_type": "N3d"}, "11": {"label": "*2", "atom_type": "H0"}}

>  <type>  (18) 
unop_14

>  <geom_source>  (18) 
Heuristics

$$$$

     RDKit          3D

 12 10  0  0  0  0  0  0  0  0999 V2000
    0.4643   -0.6958    2.2250 C   0  0  0  0  0  0  0  0  0  0  0  0
   -0.1237    0.3899    1.9713 N   0  0  0  0  0  2  0  0  0  0  0  0
    0.6545   -1.4871    1.4929 H   0  0  0  0  0  0  0  0  0  0  0  0
    0.8166   -0.8792    3.2403 H   0  0  0  0  0  0  0  0  0  0  0  0
   -0.1237   -0.2221   -2.5894 C   0  0  0  0  0  0  0  0  0  0  0  0
   -0.1237   -0.2221   -1.0971 C   0  0  0  0  0  0  0  0  0  0  0  0
   -0.1237    0.8506   -0.4294 N   0  0  0  0  0  0  0  0  0  0  0  0
    0.7546   -0.7520   -2.9669 H   0  0  0  0  0  0  0  0  0  0  0  0
   -1.0019   -0.7520   -2.9669 H   0  0  0  0  0  0  0  0  0  0  0  0
   -0.1237    0.7986   -2.9680 H   0  0  0  0  0  0  0  0  0  0  0  0
   -0.1237   -1.2118   -0.6225 H   0  0  0  0  0  0  0  0  0  0  0  0
   -0.1237    0.6204    0.7702 H   0  0  0  0  0  0  0  0  0  0  0  0
  1  2  2  0
  1  3  1  0
  1  4  1  0
  5  6  1  0
  5  8  1  0
  5  9  1  0
  5 10  1  0
  6  7  2  3
  6 11  1  0
  7 12  1  0
M  RAD  1   2   2
M  END
>  <reaction>  (19) 
rmg_rxn_16719

>  <mol_properties>  (19) 
{"0": {"label": "*0", "atom_type": "Cd"}, "1": {"label": "*1", "atom_type": "N3d"}, "5": {"label": "*4", "atom_type": "Cd"}, "6": {"label": "*3", "atom_type": "N3d"}, "11": {"label": "*2", "atom_type": "H0"}}

>  <type>  (19) 
unop_15

>  <geom_source>  (19) 
gaussian_log

$$$$
