
     RDKit          3D

  9  8  0  0  0  0  0  0  0  0999 V2000
   -1.0434   -0.0834    0.0221 C   0  0  0  0  0  0  0  0  0  0  0  0
    0.4680   -0.2131    0.0785 C   0  0  0  0  0  0  0  0  0  0  0  0
    0.9450   -1.3136   -0.7058 N   0  0  0  0  0  2  0  0  0  0  0  0
   -1.5170   -0.9919    0.3960 H   0  0  0  0  0  0  0  0  0  0  0  0
   -1.3864    0.7592    0.6249 H   0  0  0  0  0  0  0  0  0  0  0  0
   -1.3736    0.0696   -1.0061 H   0  0  0  0  0  0  0  0  0  0  0  0
    0.8045   -0.3309    1.1214 H   0  0  0  0  0  0  0  0  0  0  0  0
    0.9463    0.7186   -0.2648 H   0  0  0  0  0  0  0  0  0  0  0  0
    1.9638   -1.3321   -0.6157 H   0  0  0  0  0  0  0  0  0  0  0  0
  1  2  1  0
  1  4  1  0
  1  5  1  0
  1  6  1  0
  2  3  1  0
  2  7  1  0
  2  8  1  0
  3  9  1  0
M  RAD  1   3   2
M  END
>  <reaction>  (1) 
rmg_rxn_153

>  <mol_properties>  (1) 
{"2": {"label": "donator", "atom_type": "N3s"}, "8": {"label": "d_hydrogen", "atom_type": "H0"}}

>  <type>  (1) 
r1h

$$$$

     RDKit          3D

 17 16  0  0  0  0  0  0  0  0999 V2000
    3.3619    0.3511   -1.0290 C   0  0  0  0  0  3  0  0  0  0  0  0
    2.1806    1.0643   -0.5073 C   0  0  0  0  0  0  0  0  0  0  0  0
    1.4028    0.1998    0.2757 O   0  0  0  0  0  0  0  0  0  0  0  0
    0.2433    0.8081    0.7885 C   0  0  0  0  0  0  0  0  0  0  0  0
   -0.5040   -0.1878    1.6510 C   0  0  0  0  0  0  0  0  0  0  0  0
    0.2852   -0.6298    2.8762 C   0  0  0  0  0  0  0  0  0  0  0  0
    4.1174    0.8902   -1.5820 H   0  0  0  0  0  0  0  0  0  0  0  0
    3.4399   -0.7198   -0.9141 H   0  0  0  0  0  0  0  0  0  0  0  0
    1.5724    1.4684   -1.3398 H   0  0  0  0  0  0  0  0  0  0  0  0
    2.4896    1.9442    0.0856 H   0  0  0  0  0  0  0  0  0  0  0  0
    0.5169    1.6937    1.3835 H   0  0  0  0  0  0  0  0  0  0  0  0
   -0.3954    1.1528   -0.0379 H   0  0  0  0  0  0  0  0  0  0  0  0
   -0.7611   -1.0545    1.0367 H   0  0  0  0  0  0  0  0  0  0  0  0
   -1.4466    0.2743    1.9571 H   0  0  0  0  0  0  0  0  0  0  0  0
    0.5263    0.2245    3.5136 H   0  0  0  0  0  0  0  0  0  0  0  0
    1.2220   -1.1033    2.5825 H   0  0  0  0  0  0  0  0  0  0  0  0
   -0.2849   -1.3427    3.4737 H   0  0  0  0  0  0  0  0  0  0  0  0
  1  2  1  0
  1  7  1  0
  1  8  1  0
  2  3  1  0
  2  9  1  0
  2 10  1  0
  3  4  1  0
  4  5  1  0
  4 11  1  0
  4 12  1  0
  5  6  1  0
  5 13  1  0
  5 14  1  0
  6 15  1  0
  6 16  1  0
  6 17  1  0
M  RAD  1   1   2
M  END
>  <reaction>  (2) 
rmg_rxn_153

>  <mol_properties>  (2) 
{"0": {"label": "acceptor", "atom_type": "Cs"}}

>  <type>  (2) 
r2

$$$$

     RDKit          3D

 18 17  0  0  0  0  0  0  0  0999 V2000
    2.2026   -0.7213   -0.2612 C   0  0  0  0  0  0  0  0  0  0  0  0
    1.5384    0.2638    0.6915 C   0  0  0  0  0  0  0  0  0  0  0  0
    2.2584    1.5946    0.7694 C   0  0  0  0  0  0  0  0  0  0  0  0
    2.2212    2.2185   -0.4893 O   0  0  0  0  0  0  0  0  0  0  0  0
    2.8988    3.4488   -0.5204 C   0  0  0  0  0  0  0  0  0  0  0  0
    2.7981    4.0296   -1.9118 C   0  0  0  0  0  0  0  0  0  0  0  0
    3.2294   -0.9309    0.0486 H   0  0  0  0  0  0  0  0  0  0  0  0
    2.2338   -0.3181   -1.2734 H   0  0  0  0  0  0  0  0  0  0  0  0
    1.6610   -1.6680   -0.2875 H   0  0  0  0  0  0  0  0  0  0  0  0
    1.4990   -0.1566    1.7002 H   0  0  0  0  0  0  0  0  0  0  0  0
    0.5055    0.4455    0.3835 H   0  0  0  0  0  0  0  0  0  0  0  0
    3.3038    1.4410    1.0808 H   0  0  0  0  0  0  0  0  0  0  0  0
    1.7844    2.2410    1.5226 H   0  0  0  0  0  0  0  0  0  0  0  0
    2.4596    4.1376    0.2164 H   0  0  0  0  0  0  0  0  0  0  0  0
    3.9524    3.3035   -0.2397 H   0  0  0  0  0  0  0  0  0  0  0  0
    1.7543    4.1869   -2.1856 H   0  0  0  0  0  0  0  0  0  0  0  0
    3.2472    3.3545   -2.6411 H   0  0  0  0  0  0  0  0  0  0  0  0
    3.3178    4.9878   -1.9600 H   0  0  0  0  0  0  0  0  0  0  0  0
  1  2  1  0
  1  7  1  0
  1  8  1  0
  1  9  1  0
  2  3  1  0
  2 10  1  0
  2 11  1  0
  3  4  1  0
  3 12  1  0
  3 13  1  0
  4  5  1  0
  5  6  1  0
  5 14  1  0
  5 15  1  0
  6 16  1  0
  6 17  1  0
  6 18  1  0
M  END
>  <reaction>  (3) 
rmg_rxn_153

>  <mol_properties>  (3) 
{"0": {"label": "a_hydrogen", "atom_type": "H0"}, "1": {"label": "acceptor", "atom_type": "Cs"}}

>  <type>  (3) 
r2h

$$$$

     RDKit          3D

 26 24  0  0  0  0  0  0  0  0999 V2000
   -0.7416   -1.4782   -4.7114 C   0  0  0  0  0  0  0  0  0  0  0  0
   -0.8376   -1.4167   -3.1942 C   0  0  0  0  0  0  0  0  0  0  0  0
    0.3376   -1.9298   -2.5639 N   0  0  0  0  0  2  0  0  0  0  0  0
   -0.6013   -2.5072   -5.0437 H   0  0  0  0  0  0  0  0  0  0  0  0
   -1.6507   -1.0868   -5.1711 H   0  0  0  0  0  0  0  0  0  0  0  0
    0.1055   -0.8896   -5.0650 H   0  0  0  0  0  0  0  0  0  0  0  0
   -1.7136   -1.9835   -2.8408 H   0  0  0  0  0  0  0  0  0  0  0  0
   -1.0144   -0.3818   -2.8602 H   0  0  0  0  0  0  0  0  0  0  0  0
    0.1616   -1.7963   -1.4108 H   0  0  0  0  0  0  0  0  0  0  0  0
   -0.2109   -1.4758   -0.0485 C   0  0  0  0  0  3  0  0  0  0  0  0
    0.3522   -0.1071    0.1654 C   0  0  0  0  0  0  0  0  0  0  0  0
    0.0506    0.3220    1.4745 O   0  0  0  0  0  0  0  0  0  0  0  0
    0.5554    1.6040    1.7631 C   0  0  0  0  0  0  0  0  0  0  0  0
    0.2236    1.9606    3.1975 C   0  0  0  0  0  0  0  0  0  0  0  0
    0.8833    1.0364    4.2123 C   0  0  0  0  0  0  0  0  0  0  0  0
    0.2728   -2.2776    0.5024 H   0  0  0  0  0  0  0  0  0  0  0  0
   -1.2959   -1.5402   -0.0550 H   0  0  0  0  0  0  0  0  0  0  0  0
   -0.0723    0.5998   -0.5635 H   0  0  0  0  0  0  0  0  0  0  0  0
    1.4407   -0.1146    0.0147 H   0  0  0  0  0  0  0  0  0  0  0  0
    1.6459    1.6194    1.6113 H   0  0  0  0  0  0  0  0  0  0  0  0
    0.1180    2.3420    1.0749 H   0  0  0  0  0  0  0  0  0  0  0  0
   -0.8624    1.9378    3.3188 H   0  0  0  0  0  0  0  0  0  0  0  0
    0.5398    2.9935    3.3680 H   0  0  0  0  0  0  0  0  0  0  0  0
    1.9716    1.0677    4.1181 H   0  0  0  0  0  0  0  0  0  0  0  0
    0.5634    0.0055    4.0613 H   0  0  0  0  0  0  0  0  0  0  0  0
    0.6271    1.3273    5.2321 H   0  0  0  0  0  0  0  0  0  0  0  0
  1  2  1  0
  1  4  1  0
  1  5  1  0
  1  6  1  0
  2  3  1  0
  2  7  1  0
  2  8  1  0
  3  9  1  0
 10 11  1  0
 10 16  1  0
 10 17  1  0
 11 12  1  0
 11 18  1  0
 11 19  1  0
 12 13  1  0
 13 14  1  0
 13 20  1  0
 13 21  1  0
 14 15  1  0
 14 22  1  0
 14 23  1  0
 15 24  1  0
 15 25  1  0
 15 26  1  0
M  RAD  2   3   2  10   2
M  END
>  <reaction>  (4) 
rmg_rxn_153

>  <mol_properties>  (4) 
{"1": {"label": "*0", "atom_type": "Cs"}, "2": {"label": "*1", "atom_type": "N3s"}, "8": {"label": "*2", "atom_type": "H0"}, "9": {"label": "*3", "atom_type": "Cs"}, "10": {"label": "*4", "atom_type": "Cs"}}

>  <type>  (4) 
ts

$$$$

     RDKit          3D

 26 24  0  0  0  0  0  0  0  0999 V2000
   -0.7197   -1.8014   -4.9145 C   0  0  0  0  0  0  0  0  0  0  0  0
   -0.7197   -1.8014   -3.3965 C   0  0  0  0  0  0  0  0  0  0  0  0
   -0.7197   -0.4738   -2.8567 N   0  0  0  0  0  2  0  0  0  0  0  0
    0.1625   -1.2849   -5.2945 H   0  0  0  0  0  0  0  0  0  0  0  0
   -0.7197   -2.8203   -5.3056 H   0  0  0  0  0  0  0  0  0  0  0  0
   -1.6020   -1.2849   -5.2945 H   0  0  0  0  0  0  0  0  0  0  0  0
    0.1525   -2.3551   -3.0126 H   0  0  0  0  0  0  0  0  0  0  0  0
   -1.5920   -2.3551   -3.0126 H   0  0  0  0  0  0  0  0  0  0  0  0
   -0.7197   -0.5774   -1.6335 H   0  0  0  0  0  0  0  0  0  0  0  0
   -0.7197   -0.6878   -0.3288 C   0  0  0  0  0  3  0  0  0  0  0  0
    0.5079   -0.0257    0.2527 C   0  0  0  0  0  0  0  0  0  0  0  0
    0.1488    0.6438    1.4344 O   0  0  0  0  0  0  0  0  0  0  0  0
    1.2286    1.2947    2.0551 C   0  0  0  0  0  0  0  0  0  0  0  0
    0.7511    1.9507    3.3345 C   0  0  0  0  0  0  0  0  0  0  0  0
    0.2420    0.9521    4.3654 C   0  0  0  0  0  0  0  0  0  0  0  0
   -1.1373   -1.4062    0.3775 H   0  0  0  0  0  0  0  0  0  0  0  0
   -1.4842    0.0563   -0.5552 H   0  0  0  0  0  0  0  0  0  0  0  0
    0.9374    0.6872   -0.4667 H   0  0  0  0  0  0  0  0  0  0  0  0
    1.2836   -0.7754    0.4677 H   0  0  0  0  0  0  0  0  0  0  0  0
    2.0263    0.5684    2.2777 H   0  0  0  0  0  0  0  0  0  0  0  0
    1.6530    2.0484    1.3756 H   0  0  0  0  0  0  0  0  0  0  0  0
   -0.0364    2.6665    3.0847 H   0  0  0  0  0  0  0  0  0  0  0  0
    1.5835    2.5269    3.7478 H   0  0  0  0  0  0  0  0  0  0  0  0
    1.0270    0.2441    4.6427 H   0  0  0  0  0  0  0  0  0  0  0  0
   -0.5981    0.3821    3.9688 H   0  0  0  0  0  0  0  0  0  0  0  0
   -0.0876    1.4588    5.2736 H   0  0  0  0  0  0  0  0  0  0  0  0
  1  2  1  0
  1  4  1  0
  1  5  1  0
  1  6  1  0
  2  3  1  0
  2  7  1  0
  2  8  1  0
  3  9  1  0
 10 11  1  0
 10 16  1  0
 10 17  1  0
 11 12  1  0
 11 18  1  0
 11 19  1  0
 12 13  1  0
 13 14  1  0
 13 20  1  0
 13 21  1  0
 14 15  1  0
 14 22  1  0
 14 23  1  0
 15 24  1  0
 15 25  1  0
 15 26  1  0
M  RAD  2   3   2  10   2
M  END
>  <reaction>  (5) 
rmg_rxn_153

>  <mol_properties>  (5) 
{"1": {"label": "*0", "atom_type": "Cs"}, "2": {"label": "*1", "atom_type": "N3s"}, "8": {"label": "*2", "atom_type": "H0"}, "9": {"label": "*3", "atom_type": "Cs"}, "10": {"label": "*4", "atom_type": "Cs"}}

>  <type>  (5) 
unop_1

>  <geom_source>  (5) 
Heuristics

$$$$

     RDKit          3D

 26 24  0  0  0  0  0  0  0  0999 V2000
   -0.7013    0.1029   -4.8800 C   0  0  0  0  0  0  0  0  0  0  0  0
   -0.7013    0.1029   -3.3621 C   0  0  0  0  0  0  0  0  0  0  0  0
   -0.7013    1.4305   -2.8223 N   0  0  0  0  0  2  0  0  0  0  0  0
    0.1809    0.6194   -5.2601 H   0  0  0  0  0  0  0  0  0  0  0  0
   -0.7013   -0.9159   -5.2711 H   0  0  0  0  0  0  0  0  0  0  0  0
   -1.5835    0.6194   -5.2601 H   0  0  0  0  0  0  0  0  0  0  0  0
    0.1709   -0.4508   -2.9781 H   0  0  0  0  0  0  0  0  0  0  0  0
   -1.5735   -0.4508   -2.9781 H   0  0  0  0  0  0  0  0  0  0  0  0
   -0.7013    1.3270   -1.5991 H   0  0  0  0  0  0  0  0  0  0  0  0
   -0.7013    1.2165   -0.2944 C   0  0  0  0  0  3  0  0  0  0  0  0
    0.0074   -0.0509    0.1238 C   0  0  0  0  0  0  0  0  0  0  0  0
    0.3612    0.0502    1.4796 O   0  0  0  0  0  0  0  0  0  0  0  0
    1.0288   -1.0865    1.9666 C   0  0  0  0  0  0  0  0  0  0  0  0
    1.3317   -0.8984    3.4391 C   0  0  0  0  0  0  0  0  0  0  0  0
    0.0793   -0.7740    4.2967 C   0  0  0  0  0  0  0  0  0  0  0  0
   -1.6028    1.3646    0.3013 H   0  0  0  0  0  0  0  0  0  0  0  0
   -0.0515    2.0813   -0.1558 H   0  0  0  0  0  0  0  0  0  0  0  0
    0.9081   -0.2075   -0.4882 H   0  0  0  0  0  0  0  0  0  0  0  0
   -0.6438   -0.9241   -0.0294 H   0  0  0  0  0  0  0  0  0  0  0  0
    0.4019   -1.9805    1.8209 H   0  0  0  0  0  0  0  0  0  0  0  0
    1.9600   -1.2448    1.4031 H   0  0  0  0  0  0  0  0  0  0  0  0
    1.9553   -0.0082    3.5543 H   0  0  0  0  0  0  0  0  0  0  0  0
    1.9315   -1.7506    3.7705 H   0  0  0  0  0  0  0  0  0  0  0  0
   -0.5428   -1.6684    4.2099 H   0  0  0  0  0  0  0  0  0  0  0  0
   -0.5190    0.0818    3.9844 H   0  0  0  0  0  0  0  0  0  0  0  0
    0.3355   -0.6455    5.3494 H   0  0  0  0  0  0  0  0  0  0  0  0
  1  2  1  0
  1  4  1  0
  1  5  1  0
  1  6  1  0
  2  3  1  0
  2  7  1  0
  2  8  1  0
  3  9  1  0
 10 11  1  0
 10 16  1  0
 10 17  1  0
 11 12  1  0
 11 18  1  0
 11 19  1  0
 12 13  1  0
 13 14  1  0
 13 20  1  0
 13 21  1  0
 14 15  1  0
 14 22  1  0
 14 23  1  0
 15 24  1  0
 15 25  1  0
 15 26  1  0
M  RAD  2   3   2  10   2
M  END
>  <reaction>  (6) 
rmg_rxn_153

>  <mol_properties>  (6) 
{"1": {"label": "*0", "atom_type": "Cs"}, "2": {"label": "*1", "atom_type": "N3s"}, "8": {"label": "*2", "atom_type": "H0"}, "9": {"label": "*3", "atom_type": "Cs"}, "10": {"label": "*4", "atom_type": "Cs"}}

>  <type>  (6) 
unop_2

>  <geom_source>  (6) 
Heuristics

$$$$

     RDKit          3D

 26 24  0  0  0  0  0  0  0  0999 V2000
   -0.2470   -1.8972   -5.0045 C   0  0  0  0  0  0  0  0  0  0  0  0
   -0.2470   -1.8972   -3.4865 C   0  0  0  0  0  0  0  0  0  0  0  0
   -0.2470   -0.5696   -2.9467 N   0  0  0  0  0  2  0  0  0  0  0  0
    0.6352   -1.3807   -5.3845 H   0  0  0  0  0  0  0  0  0  0  0  0
   -0.2470   -2.9161   -5.3955 H   0  0  0  0  0  0  0  0  0  0  0  0
   -1.1292   -1.3807   -5.3845 H   0  0  0  0  0  0  0  0  0  0  0  0
    0.6252   -2.4509   -3.1026 H   0  0  0  0  0  0  0  0  0  0  0  0
   -1.1193   -2.4509   -3.1026 H   0  0  0  0  0  0  0  0  0  0  0  0
   -0.2470   -0.6731   -1.7235 H   0  0  0  0  0  0  0  0  0  0  0  0
   -0.2470   -0.7836   -0.4188 C   0  0  0  0  0  3  0  0  0  0  0  0
    0.4617    0.3955    0.2065 C   0  0  0  0  0  0  0  0  0  0  0  0
   -0.0731    0.6237    1.4853 O   0  0  0  0  0  0  0  0  0  0  0  0
    0.5245    1.7062    2.1532 C   0  0  0  0  0  0  0  0  0  0  0  0
   -0.0894    1.8466    3.5311 C   0  0  0  0  0  0  0  0  0  0  0  0
    0.1623    0.6393    4.4245 C   0  0  0  0  0  0  0  0  0  0  0  0
   -0.1123   -1.6777    0.1909 H   0  0  0  0  0  0  0  0  0  0  0  0
   -1.3157   -0.5846   -0.5063 H   0  0  0  0  0  0  0  0  0  0  0  0
    0.3384    1.2932   -0.4174 H   0  0  0  0  0  0  0  0  0  0  0  0
    1.5415    0.1994    0.2815 H   0  0  0  0  0  0  0  0  0  0  0  0
    1.6103    1.5408    2.2383 H   0  0  0  0  0  0  0  0  0  0  0  0
    0.3789    2.6304    1.5749 H   0  0  0  0  0  0  0  0  0  0  0  0
   -1.1639    2.0118    3.4173 H   0  0  0  0  0  0  0  0  0  0  0  0
    0.3227    2.7485    3.9924 H   0  0  0  0  0  0  0  0  0  0  0  0
    1.2336    0.4764    4.5668 H   0  0  0  0  0  0  0  0  0  0  0  0
   -0.2577   -0.2635    3.9810 H   0  0  0  0  0  0  0  0  0  0  0  0
   -0.2886    0.7779    5.4082 H   0  0  0  0  0  0  0  0  0  0  0  0
  1  2  1  0
  1  4  1  0
  1  5  1  0
  1  6  1  0
  2  3  1  0
  2  7  1  0
  2  8  1  0
  3  9  1  0
 10 11  1  0
 10 16  1  0
 10 17  1  0
 11 12  1  0
 11 18  1  0
 11 19  1  0
 12 13  1  0
 13 14  1  0
 13 20  1  0
 13 21  1  0
 14 15  1  0
 14 22  1  0
 14 23  1  0
 15 24  1  0
 15 25  1  0
 15 26  1  0
M  RAD  2   3   2  10   2
M  END
>  <reaction>  (7) 
rmg_rxn_153

>  <mol_properties>  (7) 
{"1": {"label": "*0", "atom_type": "Cs"}, "2": {"label": "*1", "atom_type": "N3s"}, "8": {"label": "*2", "atom_type": "H0"}, "9": {"label": "*3", "atom_type": "Cs"}, "10": {"label": "*4", "atom_type": "Cs"}}

>  <type>  (7) 
unop_3

>  <geom_source>  (7) 
Heuristics

$$$$

     RDKit          3D

 26 24  0  0  0  0  0  0  0  0999 V2000
    1.3577   -0.7713   -4.7353 C   0  0  0  0  0  0  0  0  0  0  0  0
    1.3577   -0.7713   -3.2174 C   0  0  0  0  0  0  0  0  0  0  0  0
    1.3577    0.5563   -2.6776 N   0  0  0  0  0  2  0  0  0  0  0  0
    2.2399   -0.2548   -5.1154 H   0  0  0  0  0  0  0  0  0  0  0  0
    1.3577   -1.7902   -5.1264 H   0  0  0  0  0  0  0  0  0  0  0  0
    0.4754   -0.2548   -5.1154 H   0  0  0  0  0  0  0  0  0  0  0  0
    2.2299   -1.3250   -2.8334 H   0  0  0  0  0  0  0  0  0  0  0  0
    0.4854   -1.3250   -2.8334 H   0  0  0  0  0  0  0  0  0  0  0  0
    1.3577    0.4527   -1.4544 H   0  0  0  0  0  0  0  0  0  0  0  0
    1.3577    0.3423   -0.1497 C   0  0  0  0  0  3  0  0  0  0  0  0
    0.1301   -0.4081    0.3123 C   0  0  0  0  0  0  0  0  0  0  0  0
   -0.2503    0.0732    1.5761 O   0  0  0  0  0  0  0  0  0  0  0  0
   -1.3899   -0.5650    2.0946 C   0  0  0  0  0  0  0  0  0  0  0  0
   -1.7419    0.0469    3.4351 C   0  0  0  0  0  0  0  0  0  0  0  0
   -2.1184    1.5195    3.3405 C   0  0  0  0  0  0  0  0  0  0  0  0
    1.1485    1.4103   -0.2208 H   0  0  0  0  0  0  0  0  0  0  0  0
    2.1799    0.1988    0.5521 H   0  0  0  0  0  0  0  0  0  0  0  0
    0.3375   -1.4870    0.3685 H   0  0  0  0  0  0  0  0  0  0  0  0
   -0.6945   -0.2740   -0.4034 H   0  0  0  0  0  0  0  0  0  0  0  0
   -2.2332   -0.4529    1.3948 H   0  0  0  0  0  0  0  0  0  0  0  0
   -1.1985   -1.6425    2.2058 H   0  0  0  0  0  0  0  0  0  0  0  0
   -0.8908   -0.0803    4.1090 H   0  0  0  0  0  0  0  0  0  0  0  0
   -2.5705   -0.5268    3.8594 H   0  0  0  0  0  0  0  0  0  0  0  0
   -2.9839    1.6593    2.6880 H   0  0  0  0  0  0  0  0  0  0  0  0
   -1.2935    2.1035    2.9323 H   0  0  0  0  0  0  0  0  0  0  0  0
   -2.3703    1.9242    4.3218 H   0  0  0  0  0  0  0  0  0  0  0  0
  1  2  1  0
  1  4  1  0
  1  5  1  0
  1  6  1  0
  2  3  1  0
  2  7  1  0
  2  8  1  0
  3  9  1  0
 10 11  1  0
 10 16  1  0
 10 17  1  0
 11 12  1  0
 11 18  1  0
 11 19  1  0
 12 13  1  0
 13 14  1  0
 13 20  1  0
 13 21  1  0
 14 15  1  0
 14 22  1  0
 14 23  1  0
 15 24  1  0
 15 25  1  0
 15 26  1  0
M  RAD  2   3   2  10   2
M  END
>  <reaction>  (8) 
rmg_rxn_153

>  <mol_properties>  (8) 
{"1": {"label": "*0", "atom_type": "Cs"}, "2": {"label": "*1", "atom_type": "N3s"}, "8": {"label": "*2", "atom_type": "H0"}, "9": {"label": "*3", "atom_type": "Cs"}, "10": {"label": "*4", "atom_type": "Cs"}}

>  <type>  (8) 
unop_4

>  <geom_source>  (8) 
Heuristics

$$$$

     RDKit          3D

 26 24  0  0  0  0  0  0  0  0999 V2000
   -0.1538   -1.8459   -5.0484 C   0  0  0  0  0  0  0  0  0  0  0  0
   -0.1538   -1.8459   -3.5305 C   0  0  0  0  0  0  0  0  0  0  0  0
   -0.1538   -0.5184   -2.9907 N   0  0  0  0  0  2  0  0  0  0  0  0
    0.7284   -1.3295   -5.4285 H   0  0  0  0  0  0  0  0  0  0  0  0
   -0.1538   -2.8648   -5.4395 H   0  0  0  0  0  0  0  0  0  0  0  0
   -1.0361   -1.3295   -5.4285 H   0  0  0  0  0  0  0  0  0  0  0  0
    0.7184   -2.3996   -3.1465 H   0  0  0  0  0  0  0  0  0  0  0  0
   -1.0261   -2.3996   -3.1465 H   0  0  0  0  0  0  0  0  0  0  0  0
   -0.1538   -0.6219   -1.7675 H   0  0  0  0  0  0  0  0  0  0  0  0
   -0.1538   -0.7324   -0.4628 C   0  0  0  0  0  3  0  0  0  0  0  0
   -0.1538    0.6360    0.1785 C   0  0  0  0  0  0  0  0  0  0  0  0
   -0.1546    0.4853    1.5752 O   0  0  0  0  0  0  0  0  0  0  0  0
   -0.1537    1.7088    2.2667 C   0  0  0  0  0  0  0  0  0  0  0  0
   -0.1150    1.4427    3.7577 C   0  0  0  0  0  0  0  0  0  0  0  0
    1.1545    0.7309    4.2060 C   0  0  0  0  0  0  0  0  0  0  0  0
    0.7307   -1.2952   -0.1624 H   0  0  0  0  0  0  0  0  0  0  0  0
   -1.0382   -1.2952   -0.1623 H   0  0  0  0  0  0  0  0  0  0  0  0
   -1.0384    1.2087   -0.1376 H   0  0  0  0  0  0  0  0  0  0  0  0
    0.7314    1.2081   -0.1362 H   0  0  0  0  0  0  0  0  0  0  0  0
    0.7206    2.3081    1.9669 H   0  0  0  0  0  0  0  0  0  0  0  0
   -1.0519    2.2877    2.0060 H   0  0  0  0  0  0  0  0  0  0  0  0
   -0.9928    0.8500    4.0275 H   0  0  0  0  0  0  0  0  0  0  0  0
   -0.2101    2.4025    4.2730 H   0  0  0  0  0  0  0  0  0  0  0  0
    2.0400    1.3239    3.9639 H   0  0  0  0  0  0  0  0  0  0  0  0
    1.2518   -0.2344    3.7092 H   0  0  0  0  0  0  0  0  0  0  0  0
    1.1498    0.5611    5.2837 H   0  0  0  0  0  0  0  0  0  0  0  0
  1  2  1  0
  1  4  1  0
  1  5  1  0
  1  6  1  0
  2  3  1  0
  2  7  1  0
  2  8  1  0
  3  9  1  0
 10 11  1  0
 10 16  1  0
 10 17  1  0
 11 12  1  0
 11 18  1  0
 11 19  1  0
 12 13  1  0
 13 14  1  0
 13 20  1  0
 13 21  1  0
 14 15  1  0
 14 22  1  0
 14 23  1  0
 15 24  1  0
 15 25  1  0
 15 26  1  0
M  RAD  2   3   2  10   2
M  END
>  <reaction>  (9) 
rmg_rxn_153

>  <mol_properties>  (9) 
{"1": {"label": "*0", "atom_type": "Cs"}, "2": {"label": "*1", "atom_type": "N3s"}, "8": {"label": "*2", "atom_type": "H0"}, "9": {"label": "*3", "atom_type": "Cs"}, "10": {"label": "*4", "atom_type": "Cs"}}

>  <type>  (9) 
unop_5

>  <geom_source>  (9) 
Heuristics

$$$$

     RDKit          3D

 26 24  0  0  0  0  0  0  0  0999 V2000
    1.2096   -1.5533   -4.7127 C   0  0  0  0  0  0  0  0  0  0  0  0
    1.2096   -1.5533   -3.1947 C   0  0  0  0  0  0  0  0  0  0  0  0
    1.2096   -0.2258   -2.6549 N   0  0  0  0  0  2  0  0  0  0  0  0
    2.0918   -1.0369   -5.0927 H   0  0  0  0  0  0  0  0  0  0  0  0
    1.2096   -2.5722   -5.1037 H   0  0  0  0  0  0  0  0  0  0  0  0
    0.3273   -1.0369   -5.0927 H   0  0  0  0  0  0  0  0  0  0  0  0
    2.0818   -2.1070   -2.8108 H   0  0  0  0  0  0  0  0  0  0  0  0
    0.3373   -2.1070   -2.8108 H   0  0  0  0  0  0  0  0  0  0  0  0
    1.2096   -0.3293   -1.4317 H   0  0  0  0  0  0  0  0  0  0  0  0
    1.2096   -0.4397   -0.1270 C   0  0  0  0  0  3  0  0  0  0  0  0
   -0.2080   -0.4839    0.3947 C   0  0  0  0  0  0  0  0  0  0  0  0
   -0.2789    0.2565    1.5865 O   0  0  0  0  0  0  0  0  0  0  0  0
   -1.5648    0.2770    2.1531 C   0  0  0  0  0  0  0  0  0  0  0  0
   -1.5477    1.1280    3.4063 C   0  0  0  0  0  0  0  0  0  0  0  0
   -1.2090    2.5876    3.1342 C   0  0  0  0  0  0  0  0  0  0  0  0
    1.5118    0.5891   -0.3256 H   0  0  0  0  0  0  0  0  0  0  0  0
    1.8988   -0.8660    0.6027 H   0  0  0  0  0  0  0  0  0  0  0  0
   -0.5173   -1.5233    0.5798 H   0  0  0  0  0  0  0  0  0  0  0  0
   -0.9041   -0.0665   -0.3477 H   0  0  0  0  0  0  0  0  0  0  0  0
   -2.2870    0.6855    1.4286 H   0  0  0  0  0  0  0  0  0  0  0  0
   -1.8857   -0.7475    2.3923 H   0  0  0  0  0  0  0  0  0  0  0  0
   -0.8263    0.6997    4.1070 H   0  0  0  0  0  0  0  0  0  0  0  0
   -2.5313    1.0516    3.8780 H   0  0  0  0  0  0  0  0  0  0  0  0
   -1.9366    3.0360    2.4531 H   0  0  0  0  0  0  0  0  0  0  0  0
   -0.2234    2.6766    2.6773 H   0  0  0  0  0  0  0  0  0  0  0  0
   -1.2113    3.1699    4.0568 H   0  0  0  0  0  0  0  0  0  0  0  0
  1  2  1  0
  1  4  1  0
  1  5  1  0
  1  6  1  0
  2  3  1  0
  2  7  1  0
  2  8  1  0
  3  9  1  0
 10 11  1  0
 10 16  1  0
 10 17  1  0
 11 12  1  0
 11 18  1  0
 11 19  1  0
 12 13  1  0
 13 14  1  0
 13 20  1  0
 13 21  1  0
 14 15  1  0
 14 22  1  0
 14 23  1  0
 15 24  1  0
 15 25  1  0
 15 26  1  0
M  RAD  2   3   2  10   2
M  END
>  <reaction>  (10) 
rmg_rxn_153

>  <mol_properties>  (10) 
{"1": {"label": "*0", "atom_type": "Cs"}, "2": {"label": "*1", "atom_type": "N3s"}, "8": {"label": "*2", "atom_type": "H0"}, "9": {"label": "*3", "atom_type": "Cs"}, "10": {"label": "*4", "atom_type": "Cs"}}

>  <type>  (10) 
unop_6

>  <geom_source>  (10) 
Heuristics

$$$$

     RDKit          3D

 26 24  0  0  0  0  0  0  0  0999 V2000
    0.6594   -2.0557   -4.7522 C   0  0  0  0  0  0  0  0  0  0  0  0
    0.6594   -2.0557   -3.2343 C   0  0  0  0  0  0  0  0  0  0  0  0
    0.6594   -0.7282   -2.6945 N   0  0  0  0  0  2  0  0  0  0  0  0
    1.5417   -1.5393   -5.1323 H   0  0  0  0  0  0  0  0  0  0  0  0
    0.6594   -3.0746   -5.1433 H   0  0  0  0  0  0  0  0  0  0  0  0
   -0.2228   -1.5393   -5.1323 H   0  0  0  0  0  0  0  0  0  0  0  0
    1.5317   -2.6094   -2.8503 H   0  0  0  0  0  0  0  0  0  0  0  0
   -0.2128   -2.6094   -2.8503 H   0  0  0  0  0  0  0  0  0  0  0  0
    0.6594   -0.8317   -1.4713 H   0  0  0  0  0  0  0  0  0  0  0  0
    0.6594   -0.9421   -0.1666 C   0  0  0  0  0  3  0  0  0  0  0  0
   -0.5682   -0.2801    0.4149 C   0  0  0  0  0  0  0  0  0  0  0  0
   -0.2094    0.3882    1.5974 O   0  0  0  0  0  0  0  0  0  0  0  0
   -1.2889    1.0406    2.2172 C   0  0  0  0  0  0  0  0  0  0  0  0
   -0.7961    1.7606    3.4558 C   0  0  0  0  0  0  0  0  0  0  0  0
    0.2107    2.8610    3.1478 C   0  0  0  0  0  0  0  0  0  0  0  0
    1.4238   -0.1980   -0.3931 H   0  0  0  0  0  0  0  0  0  0  0  0
    1.0771   -1.6604    0.5398 H   0  0  0  0  0  0  0  0  0  0  0  0
   -1.3446   -1.0297    0.6284 H   0  0  0  0  0  0  0  0  0  0  0  0
   -0.9968    0.4340   -0.3037 H   0  0  0  0  0  0  0  0  0  0  0  0
   -1.7437    1.7598    1.5177 H   0  0  0  0  0  0  0  0  0  0  0  0
   -2.0655    0.3092    2.4850 H   0  0  0  0  0  0  0  0  0  0  0  0
   -0.3529    1.0249    4.1318 H   0  0  0  0  0  0  0  0  0  0  0  0
   -1.6659    2.1795    3.9695 H   0  0  0  0  0  0  0  0  0  0  0  0
   -0.2271    3.6171    2.4912 H   0  0  0  0  0  0  0  0  0  0  0  0
    1.0890    2.4519    2.6485 H   0  0  0  0  0  0  0  0  0  0  0  0
    0.5385    3.3600    4.0609 H   0  0  0  0  0  0  0  0  0  0  0  0
  1  2  1  0
  1  4  1  0
  1  5  1  0
  1  6  1  0
  2  3  1  0
  2  7  1  0
  2  8  1  0
  3  9  1  0
 10 11  1  0
 10 16  1  0
 10 17  1  0
 11 12  1  0
 11 18  1  0
 11 19  1  0
 12 13  1  0
 13 14  1  0
 13 20  1  0
 13 21  1  0
 14 15  1  0
 14 22  1  0
 14 23  1  0
 15 24  1  0
 15 25  1  0
 15 26  1  0
M  RAD  2   3   2  10   2
M  END
>  <reaction>  (11) 
rmg_rxn_153

>  <mol_properties>  (11) 
{"1": {"label": "*0", "atom_type": "Cs"}, "2": {"label": "*1", "atom_type": "N3s"}, "8": {"label": "*2", "atom_type": "H0"}, "9": {"label": "*3", "atom_type": "Cs"}, "10": {"label": "*4", "atom_type": "Cs"}}

>  <type>  (11) 
unop_7

>  <geom_source>  (11) 
Heuristics

$$$$

     RDKit          3D

 26 24  0  0  0  0  0  0  0  0999 V2000
   -1.1423   -1.3002   -4.8741 C   0  0  0  0  0  0  0  0  0  0  0  0
   -1.1423   -1.3002   -3.3561 C   0  0  0  0  0  0  0  0  0  0  0  0
   -1.1423    0.0273   -2.8164 N   0  0  0  0  0  2  0  0  0  0  0  0
   -0.2600   -0.7838   -5.2542 H   0  0  0  0  0  0  0  0  0  0  0  0
   -1.1423   -2.3191   -5.2652 H   0  0  0  0  0  0  0  0  0  0  0  0
   -2.0245   -0.7838   -5.2542 H   0  0  0  0  0  0  0  0  0  0  0  0
   -0.2700   -1.8539   -2.9722 H   0  0  0  0  0  0  0  0  0  0  0  0
   -2.0145   -1.8539   -2.9722 H   0  0  0  0  0  0  0  0  0  0  0  0
   -1.1423   -0.0762   -1.5932 H   0  0  0  0  0  0  0  0  0  0  0  0
   -1.1423   -0.1867   -0.2885 C   0  0  0  0  0  3  0  0  0  0  0  0
    0.2753   -0.2308    0.2333 C   0  0  0  0  0  0  0  0  0  0  0  0
    0.3465    0.5109    1.4243 O   0  0  0  0  0  0  0  0  0  0  0  0
    1.6320    0.5299    1.9917 C   0  0  0  0  0  0  0  0  0  0  0  0
    1.5980    1.3172    3.2857 C   0  0  0  0  0  0  0  0  0  0  0  0
    0.7038    0.6881    4.3458 C   0  0  0  0  0  0  0  0  0  0  0  0
   -1.8315   -0.6131    0.4412 H   0  0  0  0  0  0  0  0  0  0  0  0
   -1.4445    0.8422   -0.4869 H   0  0  0  0  0  0  0  0  0  0  0  0
    0.9716    0.1851   -0.5099 H   0  0  0  0  0  0  0  0  0  0  0  0
    0.5841   -1.2700    0.4200 H   0  0  0  0  0  0  0  0  0  0  0  0
    1.9718   -0.5000    2.1848 H   0  0  0  0  0  0  0  0  0  0  0  0
    2.3459    0.9831    1.2883 H   0  0  0  0  0  0  0  0  0  0  0  0
    1.2608    2.3332    3.0650 H   0  0  0  0  0  0  0  0  0  0  0  0
    2.6233    1.3974    3.6575 H   0  0  0  0  0  0  0  0  0  0  0  0
    1.0440   -0.3204    4.5940 H   0  0  0  0  0  0  0  0  0  0  0  0
   -0.3243    0.6170    3.9910 H   0  0  0  0  0  0  0  0  0  0  0  0
    0.7082    1.2780    5.2636 H   0  0  0  0  0  0  0  0  0  0  0  0
  1  2  1  0
  1  4  1  0
  1  5  1  0
  1  6  1  0
  2  3  1  0
  2  7  1  0
  2  8  1  0
  3  9  1  0
 10 11  1  0
 10 16  1  0
 10 17  1  0
 11 12  1  0
 11 18  1  0
 11 19  1  0
 12 13  1  0
 13 14  1  0
 13 20  1  0
 13 21  1  0
 14 15  1  0
 14 22  1  0
 14 23  1  0
 15 24  1  0
 15 25  1  0
 15 26  1  0
M  RAD  2   3   2  10   2
M  END
>  <reaction>  (12) 
rmg_rxn_153

>  <mol_properties>  (12) 
{"1": {"label": "*0", "atom_type": "Cs"}, "2": {"label": "*1", "atom_type": "N3s"}, "8": {"label": "*2", "atom_type": "H0"}, "9": {"label": "*3", "atom_type": "Cs"}, "10": {"label": "*4", "atom_type": "Cs"}}

>  <type>  (12) 
unop_8

>  <geom_source>  (12) 
Heuristics

$$$$

     RDKit          3D

 26 24  0  0  0  0  0  0  0  0999 V2000
    0.9711   -0.0217   -4.8005 C   0  0  0  0  0  0  0  0  0  0  0  0
    0.9711   -0.0217   -3.2825 C   0  0  0  0  0  0  0  0  0  0  0  0
    0.9711    1.3059   -2.7428 N   0  0  0  0  0  2  0  0  0  0  0  0
    1.8533    0.4948   -5.1806 H   0  0  0  0  0  0  0  0  0  0  0  0
    0.9711   -1.0406   -5.1916 H   0  0  0  0  0  0  0  0  0  0  0  0
    0.0889    0.4948   -5.1806 H   0  0  0  0  0  0  0  0  0  0  0  0
    1.8433   -0.5754   -2.8986 H   0  0  0  0  0  0  0  0  0  0  0  0
    0.0989   -0.5754   -2.8986 H   0  0  0  0  0  0  0  0  0  0  0  0
    0.9711    1.2023   -1.5196 H   0  0  0  0  0  0  0  0  0  0  0  0
    0.9711    1.0919   -0.2149 C   0  0  0  0  0  3  0  0  0  0  0  0
    0.2624   -0.1755    0.2033 C   0  0  0  0  0  0  0  0  0  0  0  0
   -0.0900   -0.0751    1.5595 O   0  0  0  0  0  0  0  0  0  0  0  0
   -0.7592   -1.2110    2.0461 C   0  0  0  0  0  0  0  0  0  0  0  0
   -1.1300   -0.9916    3.4985 C   0  0  0  0  0  0  0  0  0  0  0  0
   -2.1043    0.1614    3.7000 C   0  0  0  0  0  0  0  0  0  0  0  0
    0.3212    1.9567   -0.0764 H   0  0  0  0  0  0  0  0  0  0  0  0
    1.8725    1.2400    0.3808 H   0  0  0  0  0  0  0  0  0  0  0  0
    0.9131   -1.0489    0.0485 H   0  0  0  0  0  0  0  0  0  0  0  0
   -0.6391   -0.3314   -0.4075 H   0  0  0  0  0  0  0  0  0  0  0  0
   -1.6658   -1.3966    1.4485 H   0  0  0  0  0  0  0  0  0  0  0  0
   -0.1151   -2.0971    1.9467 H   0  0  0  0  0  0  0  0  0  0  0  0
   -0.2140   -0.8127    4.0675 H   0  0  0  0  0  0  0  0  0  0  0  0
   -1.5629   -1.9209    3.8791 H   0  0  0  0  0  0  0  0  0  0  0  0
   -3.0352   -0.0154    3.1555 H   0  0  0  0  0  0  0  0  0  0  0  0
   -1.6765    1.0961    3.3374 H   0  0  0  0  0  0  0  0  0  0  0  0
   -2.3522    0.2862    4.7551 H   0  0  0  0  0  0  0  0  0  0  0  0
  1  2  1  0
  1  4  1  0
  1  5  1  0
  1  6  1  0
  2  3  1  0
  2  7  1  0
  2  8  1  0
  3  9  1  0
 10 11  1  0
 10 16  1  0
 10 17  1  0
 11 12  1  0
 11 18  1  0
 11 19  1  0
 12 13  1  0
 13 14  1  0
 13 20  1  0
 13 21  1  0
 14 15  1  0
 14 22  1  0
 14 23  1  0
 15 24  1  0
 15 25  1  0
 15 26  1  0
M  RAD  2   3   2  10   2
M  END
>  <reaction>  (13) 
rmg_rxn_153

>  <mol_properties>  (13) 
{"1": {"label": "*0", "atom_type": "Cs"}, "2": {"label": "*1", "atom_type": "N3s"}, "8": {"label": "*2", "atom_type": "H0"}, "9": {"label": "*3", "atom_type": "Cs"}, "10": {"label": "*4", "atom_type": "Cs"}}

>  <type>  (13) 
unop_9

>  <geom_source>  (13) 
Heuristics

$$$$

     RDKit          3D

 26 24  0  0  0  0  0  0  0  0999 V2000
   -1.1783   -0.5606   -4.8697 C   0  0  0  0  0  0  0  0  0  0  0  0
   -1.1783   -0.5606   -3.3518 C   0  0  0  0  0  0  0  0  0  0  0  0
   -1.1783    0.7670   -2.8120 N   0  0  0  0  0  2  0  0  0  0  0  0
   -0.2960   -0.0441   -5.2498 H   0  0  0  0  0  0  0  0  0  0  0  0
   -1.1783   -1.5794   -5.2608 H   0  0  0  0  0  0  0  0  0  0  0  0
   -2.0605   -0.0441   -5.2498 H   0  0  0  0  0  0  0  0  0  0  0  0
   -0.3060   -1.1143   -2.9678 H   0  0  0  0  0  0  0  0  0  0  0  0
   -2.0505   -1.1143   -2.9678 H   0  0  0  0  0  0  0  0  0  0  0  0
   -1.1783    0.6635   -1.5888 H   0  0  0  0  0  0  0  0  0  0  0  0
   -1.1783    0.5530   -0.2841 C   0  0  0  0  0  3  0  0  0  0  0  0
    0.0493   -0.1974    0.1779 C   0  0  0  0  0  0  0  0  0  0  0  0
    0.4306    0.2850    1.4410 O   0  0  0  0  0  0  0  0  0  0  0  0
    1.5692   -0.3545    1.9603 C   0  0  0  0  0  0  0  0  0  0  0  0
    1.8760    0.2044    3.3346 C   0  0  0  0  0  0  0  0  0  0  0  0
    0.7720   -0.0620    4.3493 C   0  0  0  0  0  0  0  0  0  0  0  0
   -2.0006    0.4093    0.4177 H   0  0  0  0  0  0  0  0  0  0  0  0
   -0.9691    1.6210   -0.3551 H   0  0  0  0  0  0  0  0  0  0  0  0
    0.8734   -0.0646   -0.5388 H   0  0  0  0  0  0  0  0  0  0  0  0
   -0.1585   -1.2760    0.2358 H   0  0  0  0  0  0  0  0  0  0  0  0
    1.3929   -1.4400    2.0244 H   0  0  0  0  0  0  0  0  0  0  0  0
    2.4252   -0.2016    1.2867 H   0  0  0  0  0  0  0  0  0  0  0  0
    2.0486    1.2797    3.2414 H   0  0  0  0  0  0  0  0  0  0  0  0
    2.8156   -0.2389    3.6757 H   0  0  0  0  0  0  0  0  0  0  0  0
    0.6049   -1.1352    4.4705 H   0  0  0  0  0  0  0  0  0  0  0  0
   -0.1663    0.3887    4.0261 H   0  0  0  0  0  0  0  0  0  0  0  0
    1.0294    0.3491    5.3265 H   0  0  0  0  0  0  0  0  0  0  0  0
  1  2  1  0
  1  4  1  0
  1  5  1  0
  1  6  1  0
  2  3  1  0
  2  7  1  0
  2  8  1  0
  3  9  1  0
 10 11  1  0
 10 16  1  0
 10 17  1  0
 11 12  1  0
 11 18  1  0
 11 19  1  0
 12 13  1  0
 13 14  1  0
 13 20  1  0
 13 21  1  0
 14 15  1  0
 14 22  1  0
 14 23  1  0
 15 24  1  0
 15 25  1  0
 15 26  1  0
M  RAD  2   3   2  10   2
M  END
>  <reaction>  (14) 
rmg_rxn_153

>  <mol_properties>  (14) 
{"1": {"label": "*0", "atom_type": "Cs"}, "2": {"label": "*1", "atom_type": "N3s"}, "8": {"label": "*2", "atom_type": "H0"}, "9": {"label": "*3", "atom_type": "Cs"}, "10": {"label": "*4", "atom_type": "Cs"}}

>  <type>  (14) 
unop_10

>  <geom_source>  (14) 
Heuristics

$$$$

     RDKit          3D

 26 24  0  0  0  0  0  0  0  0999 V2000
    0.0377   -2.0873   -4.8832 C   0  0  0  0  0  0  0  0  0  0  0  0
    0.0377   -2.0873   -3.3652 C   0  0  0  0  0  0  0  0  0  0  0  0
    0.0377   -0.7597   -2.8255 N   0  0  0  0  0  2  0  0  0  0  0  0
    0.9200   -1.5708   -5.2633 H   0  0  0  0  0  0  0  0  0  0  0  0
    0.0377   -3.1062   -5.2743 H   0  0  0  0  0  0  0  0  0  0  0  0
   -0.8445   -1.5708   -5.2633 H   0  0  0  0  0  0  0  0  0  0  0  0
    0.9100   -2.6410   -2.9813 H   0  0  0  0  0  0  0  0  0  0  0  0
   -0.8345   -2.6410   -2.9813 H   0  0  0  0  0  0  0  0  0  0  0  0
    0.0377   -0.8633   -1.6022 H   0  0  0  0  0  0  0  0  0  0  0  0
    0.0377   -0.9737   -0.2976 C   0  0  0  0  0  3  0  0  0  0  0  0
   -0.6710    0.2054    0.3277 C   0  0  0  0  0  0  0  0  0  0  0  0
   -0.1372    0.4326    1.6072 O   0  0  0  0  0  0  0  0  0  0  0  0
   -0.7336    1.5162    2.2744 C   0  0  0  0  0  0  0  0  0  0  0  0
   -0.0670    1.7045    3.6218 C   0  0  0  0  0  0  0  0  0  0  0  0
    1.4084    2.0661    3.5144 C   0  0  0  0  0  0  0  0  0  0  0  0
    1.1064   -0.7746   -0.3851 H   0  0  0  0  0  0  0  0  0  0  0  0
   -0.0969   -1.8677    0.3122 H   0  0  0  0  0  0  0  0  0  0  0  0
   -1.7512    0.0099    0.4012 H   0  0  0  0  0  0  0  0  0  0  0  0
   -0.5464    1.1034   -0.2952 H   0  0  0  0  0  0  0  0  0  0  0  0
   -0.6299    2.4314    1.6702 H   0  0  0  0  0  0  0  0  0  0  0  0
   -1.8099    1.3304    2.4042 H   0  0  0  0  0  0  0  0  0  0  0  0
   -0.1869    0.7847    4.2000 H   0  0  0  0  0  0  0  0  0  0  0  0
   -0.6086    2.4887    4.1581 H   0  0  0  0  0  0  0  0  0  0  0  0
    1.5418    2.9976    2.9586 H   0  0  0  0  0  0  0  0  0  0  0  0
    1.9608    1.2836    2.9941 H   0  0  0  0  0  0  0  0  0  0  0  0
    1.8530    2.1990    4.5018 H   0  0  0  0  0  0  0  0  0  0  0  0
  1  2  1  0
  1  4  1  0
  1  5  1  0
  1  6  1  0
  2  3  1  0
  2  7  1  0
  2  8  1  0
  3  9  1  0
 10 11  1  0
 10 16  1  0
 10 17  1  0
 11 12  1  0
 11 18  1  0
 11 19  1  0
 12 13  1  0
 13 14  1  0
 13 20  1  0
 13 21  1  0
 14 15  1  0
 14 22  1  0
 14 23  1  0
 15 24  1  0
 15 25  1  0
 15 26  1  0
M  RAD  2   3   2  10   2
M  END
>  <reaction>  (15) 
rmg_rxn_153

>  <mol_properties>  (15) 
{"1": {"label": "*0", "atom_type": "Cs"}, "2": {"label": "*1", "atom_type": "N3s"}, "8": {"label": "*2", "atom_type": "H0"}, "9": {"label": "*3", "atom_type": "Cs"}, "10": {"label": "*4", "atom_type": "Cs"}}

>  <type>  (15) 
unop_11

>  <geom_source>  (15) 
Heuristics

$$$$

     RDKit          3D

 26 24  0  0  0  0  0  0  0  0999 V2000
    0.1538    0.3364   -4.8637 C   0  0  0  0  0  0  0  0  0  0  0  0
    0.1538    0.3364   -3.3457 C   0  0  0  0  0  0  0  0  0  0  0  0
    0.1538    1.6640   -2.8060 N   0  0  0  0  0  2  0  0  0  0  0  0
    1.0361    0.8529   -5.2438 H   0  0  0  0  0  0  0  0  0  0  0  0
    0.1538   -0.6825   -5.2548 H   0  0  0  0  0  0  0  0  0  0  0  0
   -0.7284    0.8529   -5.2438 H   0  0  0  0  0  0  0  0  0  0  0  0
    1.0261   -0.2173   -2.9618 H   0  0  0  0  0  0  0  0  0  0  0  0
   -0.7184   -0.2173   -2.9618 H   0  0  0  0  0  0  0  0  0  0  0  0
    0.1538    1.5604   -1.5828 H   0  0  0  0  0  0  0  0  0  0  0  0
    0.1538    1.4500   -0.2781 C   0  0  0  0  0  3  0  0  0  0  0  0
    0.1538   -0.0066    0.1241 C   0  0  0  0  0  0  0  0  0  0  0  0
    0.1546   -0.0929    1.5263 O   0  0  0  0  0  0  0  0  0  0  0  0
    0.1537   -1.4152    2.0023 C   0  0  0  0  0  0  0  0  0  0  0  0
    0.1150   -1.4035    3.5168 C   0  0  0  0  0  0  0  0  0  0  0  0
   -1.1545   -0.7771    4.0783 C   0  0  0  0  0  0  0  0  0  0  0  0
   -0.7307    1.9543    0.1126 H   0  0  0  0  0  0  0  0  0  0  0  0
    1.0382    1.9544    0.1127 H   0  0  0  0  0  0  0  0  0  0  0  0
    1.0384   -0.5180   -0.2837 H   0  0  0  0  0  0  0  0  0  0  0  0
   -0.7314   -0.5177   -0.2822 H   0  0  0  0  0  0  0  0  0  0  0  0
   -0.7206   -1.9556    1.6061 H   0  0  0  0  0  0  0  0  0  0  0  0
    1.0519   -1.9420    1.6480 H   0  0  0  0  0  0  0  0  0  0  0  0
    0.9928   -0.8645    3.8824 H   0  0  0  0  0  0  0  0  0  0  0  0
    0.2101   -2.4362    3.8635 H   0  0  0  0  0  0  0  0  0  0  0  0
   -2.0400   -1.3210    3.7400 H   0  0  0  0  0  0  0  0  0  0  0  0
   -1.2518    0.2580    3.7508 H   0  0  0  0  0  0  0  0  0  0  0  0
   -1.1498   -0.7909    5.1692 H   0  0  0  0  0  0  0  0  0  0  0  0
  1  2  1  0
  1  4  1  0
  1  5  1  0
  1  6  1  0
  2  3  1  0
  2  7  1  0
  2  8  1  0
  3  9  1  0
 10 11  1  0
 10 16  1  0
 10 17  1  0
 11 12  1  0
 11 18  1  0
 11 19  1  0
 12 13  1  0
 13 14  1  0
 13 20  1  0
 13 21  1  0
 14 15  1  0
 14 22  1  0
 14 23  1  0
 15 24  1  0
 15 25  1  0
 15 26  1  0
M  RAD  2   3   2  10   2
M  END
>  <reaction>  (16) 
rmg_rxn_153

>  <mol_properties>  (16) 
{"1": {"label": "*0", "atom_type": "Cs"}, "2": {"label": "*1", "atom_type": "N3s"}, "8": {"label": "*2", "atom_type": "H0"}, "9": {"label": "*3", "atom_type": "Cs"}, "10": {"label": "*4", "atom_type": "Cs"}}

>  <type>  (16) 
unop_12

>  <geom_source>  (16) 
Heuristics

$$$$

     RDKit          3D

 26 24  0  0  0  0  0  0  0  0999 V2000
   -0.7013    0.1029   -4.8800 C   0  0  0  0  0  0  0  0  0  0  0  0
   -0.7013    0.1029   -3.3620 C   0  0  0  0  0  0  0  0  0  0  0  0
   -0.7013    1.4305   -2.8223 N   0  0  0  0  0  2  0  0  0  0  0  0
    0.1809    0.6194   -5.2601 H   0  0  0  0  0  0  0  0  0  0  0  0
   -0.7013   -0.9160   -5.2711 H   0  0  0  0  0  0  0  0  0  0  0  0
   -1.5835    0.6194   -5.2601 H   0  0  0  0  0  0  0  0  0  0  0  0
    0.1709   -0.4508   -2.9781 H   0  0  0  0  0  0  0  0  0  0  0  0
   -1.5736   -0.4508   -2.9781 H   0  0  0  0  0  0  0  0  0  0  0  0
   -0.7013    1.3270   -1.5991 H   0  0  0  0  0  0  0  0  0  0  0  0
   -0.7013    1.2165   -0.2944 C   0  0  0  0  0  3  0  0  0  0  0  0
    0.0075   -0.0509    0.1238 C   0  0  0  0  0  0  0  0  0  0  0  0
    0.3612    0.0502    1.4796 O   0  0  0  0  0  0  0  0  0  0  0  0
    1.0288   -1.0865    1.9666 C   0  0  0  0  0  0  0  0  0  0  0  0
    1.3317   -0.8984    3.4391 C   0  0  0  0  0  0  0  0  0  0  0  0
    0.0794   -0.7740    4.2967 C   0  0  0  0  0  0  0  0  0  0  0  0
   -1.6028    1.3646    0.3013 H   0  0  0  0  0  0  0  0  0  0  0  0
   -0.0515    2.0813   -0.1558 H   0  0  0  0  0  0  0  0  0  0  0  0
    0.9081   -0.2075   -0.4882 H   0  0  0  0  0  0  0  0  0  0  0  0
   -0.6438   -0.9241   -0.0294 H   0  0  0  0  0  0  0  0  0  0  0  0
    0.4019   -1.9805    1.8209 H   0  0  0  0  0  0  0  0  0  0  0  0
    1.9600   -1.2448    1.4030 H   0  0  0  0  0  0  0  0  0  0  0  0
    1.9553   -0.0082    3.5543 H   0  0  0  0  0  0  0  0  0  0  0  0
    1.9315   -1.7506    3.7705 H   0  0  0  0  0  0  0  0  0  0  0  0
   -0.5428   -1.6684    4.2099 H   0  0  0  0  0  0  0  0  0  0  0  0
   -0.5190    0.0818    3.9844 H   0  0  0  0  0  0  0  0  0  0  0  0
    0.3355   -0.6455    5.3494 H   0  0  0  0  0  0  0  0  0  0  0  0
  1  2  1  0
  1  4  1  0
  1  5  1  0
  1  6  1  0
  2  3  1  0
  2  7  1  0
  2  8  1  0
  3  9  1  0
 10 11  1  0
 10 16  1  0
 10 17  1  0
 11 12  1  0
 11 18  1  0
 11 19  1  0
 12 13  1  0
 13 14  1  0
 13 20  1  0
 13 21  1  0
 14 15  1  0
 14 22  1  0
 14 23  1  0
 15 24  1  0
 15 25  1  0
 15 26  1  0
M  RAD  2   3   2  10   2
M  END
>  <reaction>  (17) 
rmg_rxn_153

>  <mol_properties>  (17) 
{"1": {"label": "*0", "atom_type": "Cs"}, "2": {"label": "*1", "atom_type": "N3s"}, "8": {"label": "*2", "atom_type": "H0"}, "9": {"label": "*3", "atom_type": "Cs"}, "10": {"label": "*4", "atom_type": "Cs"}}

>  <type>  (17) 
unop_13

>  <geom_source>  (17) 
gaussian_log

$$$$
