
     RDKit          3D

  6  5  0  0  0  0  0  0  0  0999 V2000
   -0.4901    0.0045    0.0014 C   0  0  0  0  0  0  0  0  0  0  0  0
    0.9645   -0.0089   -0.0027 C   0  0  0  0  0  0  0  0  0  0  0  0
    2.1108   -0.0195   -0.0059 N   0  0  0  0  0  0  0  0  0  0  0  0
   -0.8700   -0.6407   -0.7900 H   0  0  0  0  0  0  0  0  0  0  0  0
   -0.8625   -0.3540    0.9604 H   0  0  0  0  0  0  0  0  0  0  0  0
   -0.8530    1.0185   -0.1631 H   0  0  0  0  0  0  0  0  0  0  0  0
  1  2  1  0
  1  4  1  0
  1  5  1  0
  1  6  1  0
  2  3  3  0
M  END
>  <reaction>  (1) 
rmg_rxn_183

>  <mol_properties>  (1) 
{"0": {"label": "donator", "atom_type": "Cs"}, "3": {"label": "d_hydrogen", "atom_type": "H0"}}

>  <type>  (1) 
r1h

$$$$

     RDKit          3D

  8  7  0  0  0  0  0  0  0  0999 V2000
   -1.0336    0.3440   -0.0356 C   0  0  0  0  0  3  0  0  0  0  0  0
    0.1991   -0.4326   -0.0698 C   0  0  0  0  0  0  0  0  0  0  0  0
    0.9631   -0.0368    1.2269 N   0  0  0  0  0  0  0  0  0  0  0  0
    0.8138   -0.8074    2.1160 O   0  0  0  0  0  0  0  0  0  0  0  0
   -1.0668    1.3490   -0.4321 H   0  0  0  0  0  0  0  0  0  0  0  0
   -1.8598    0.0102    0.5774 H   0  0  0  0  0  0  0  0  0  0  0  0
    0.0447   -1.5108   -0.0264 H   0  0  0  0  0  0  0  0  0  0  0  0
    0.8639   -0.1518   -0.8851 H   0  0  0  0  0  0  0  0  0  0  0  0
  1  2  1  0
  1  5  1  0
  1  6  1  0
  2  3  1  0
  2  7  1  0
  2  8  1  0
  3  4  2  0
M  RAD  1   1   2
M  END
>  <reaction>  (2) 
rmg_rxn_183

>  <mol_properties>  (2) 
{"0": {"label": "acceptor", "atom_type": "Cs"}}

>  <type>  (2) 
r2

$$$$

     RDKit          3D

  9  8  0  0  0  0  0  0  0  0999 V2000
   -1.0314    0.2323   -0.1227 C   0  0  0  0  0  0  0  0  0  0  0  0
    0.3094   -0.4511    0.0063 C   0  0  0  0  0  0  0  0  0  0  0  0
    0.3197   -1.7698    0.6841 N   0  0  0  0  0  0  0  0  0  0  0  0
   -0.7498   -2.1455    1.0557 O   0  0  0  0  0  0  0  0  0  0  0  0
   -1.4744    0.4198    0.8552 H   0  0  0  0  0  0  0  0  0  0  0  0
   -0.9073    1.1865   -0.6350 H   0  0  0  0  0  0  0  0  0  0  0  0
   -1.7319   -0.3778   -0.6927 H   0  0  0  0  0  0  0  0  0  0  0  0
    1.0375    0.1401    0.5713 H   0  0  0  0  0  0  0  0  0  0  0  0
    0.7826   -0.6494   -0.9609 H   0  0  0  0  0  0  0  0  0  0  0  0
  1  2  1  0
  1  5  1  0
  1  6  1  0
  1  7  1  0
  2  3  1  0
  2  8  1  0
  2  9  1  0
  3  4  2  0
M  END
>  <reaction>  (3) 
rmg_rxn_183

>  <mol_properties>  (3) 
{"0": {"label": "a_hydrogen", "atom_type": "H0"}, "1": {"label": "acceptor", "atom_type": "Cs"}}

>  <type>  (3) 
r2h

$$$$

     RDKit          3D

 14 12  0  0  0  0  0  0  0  0999 V2000
    1.8306    1.5081    0.2402 C   0  0  0  0  0  0  0  0  0  0  0  0
    1.6379    1.5129   -1.1741 C   0  0  0  0  0  0  0  0  0  0  0  0
    1.4233    1.4700   -2.3041 N   0  0  0  0  0  0  0  0  0  0  0  0
    0.8785    0.7304    0.7309 H   0  0  0  0  0  0  0  0  0  0  0  0
    2.7579    1.0375    0.5539 H   0  0  0  0  0  0  0  0  0  0  0  0
    1.6627    2.4737    0.7083 H   0  0  0  0  0  0  0  0  0  0  0  0
   -0.1233   -0.0781    1.1844 C   0  0  0  0  0  3  0  0  0  0  0  0
   -0.7019   -0.6957   -0.0443 C   0  0  0  0  0  0  0  0  0  0  0  0
   -1.8545   -1.6311    0.1617 N   0  0  0  0  0  0  0  0  0  0  0  0
   -2.1886   -1.7747    1.2946 O   0  0  0  0  0  0  0  0  0  0  0  0
   -0.7741    0.6125    1.7140 H   0  0  0  0  0  0  0  0  0  0  0  0
    0.3926   -0.7590    1.8563 H   0  0  0  0  0  0  0  0  0  0  0  0
   -1.0870    0.0424   -0.7544 H   0  0  0  0  0  0  0  0  0  0  0  0
    0.0222   -1.2934   -0.6058 H   0  0  0  0  0  0  0  0  0  0  0  0
  1  2  1  0
  1  4  1  0
  1  5  1  0
  1  6  1  0
  2  3  3  0
  7  8  1  0
  7 11  1  0
  7 12  1  0
  8  9  1  0
  8 13  1  0
  8 14  1  0
  9 10  2  0
M  RAD  1   7   2
M  END
>  <reaction>  (4) 
rmg_rxn_183

>  <mol_properties>  (4) 
{"0": {"label": "*1", "atom_type": "Cs"}, "1": {"label": "*0", "atom_type": "Ct"}, "3": {"label": "*2", "atom_type": "H0"}, "6": {"label": "*3", "atom_type": "Cs"}, "7": {"label": "*4", "atom_type": "Cs"}}

>  <type>  (4) 
ts

$$$$

     RDKit          3D

 14 12  0  0  0  0  0  0  0  0999 V2000
    1.2426    1.4183   -0.7635 C   0  0  0  0  0  0  0  0  0  0  0  0
    1.2426    1.4183   -2.2182 C   0  0  0  0  0  0  0  0  0  0  0  0
    1.2426    1.4183   -3.3646 N   0  0  0  0  0  0  0  0  0  0  0  0
    0.2896    0.6425   -0.3174 H   0  0  0  0  0  0  0  0  0  0  0  0
    2.1996    1.0538   -0.3918 H   0  0  0  0  0  0  0  0  0  0  0  0
    1.0798    2.4294   -0.3918 H   0  0  0  0  0  0  0  0  0  0  0  0
   -0.6641   -0.1339    0.1289 C   0  0  0  0  0  3  0  0  0  0  0  0
   -0.0666   -1.2368    0.9705 C   0  0  0  0  0  0  0  0  0  0  0  0
   -0.8172   -1.6217    2.1899 N   0  0  0  0  0  0  0  0  0  0  0  0
   -1.8231   -1.0059    2.3691 O   0  0  0  0  0  0  0  0  0  0  0  0
   -1.6564   -0.4055   -0.2305 H   0  0  0  0  0  0  0  0  0  0  0  0
   -0.7591    0.7900    0.6991 H   0  0  0  0  0  0  0  0  0  0  0  0
    0.0458   -2.1784    0.4233 H   0  0  0  0  0  0  0  0  0  0  0  0
    0.9340   -0.9951    1.3435 H   0  0  0  0  0  0  0  0  0  0  0  0
  1  2  1  0
  1  4  1  0
  1  5  1  0
  1  6  1  0
  2  3  3  0
  7  8  1  0
  7 11  1  0
  7 12  1  0
  8  9  1  0
  8 13  1  0
  8 14  1  0
  9 10  2  0
M  RAD  1   7   2
M  END
>  <reaction>  (5) 
rmg_rxn_183

>  <mol_properties>  (5) 
{"0": {"label": "*1", "atom_type": "Cs"}, "1": {"label": "*0", "atom_type": "Ct"}, "3": {"label": "*2", "atom_type": "H0"}, "6": {"label": "*3", "atom_type": "Cs"}, "7": {"label": "*4", "atom_type": "Cs"}}

>  <type>  (5) 
unop_1

>  <geom_source>  (5) 
Heuristics

$$$$

     RDKit          3D

 14 12  0  0  0  0  0  0  0  0999 V2000
    1.4993    1.7563    0.1075 C   0  0  0  0  0  0  0  0  0  0  0  0
    1.4993    1.7563   -1.3472 C   0  0  0  0  0  0  0  0  0  0  0  0
    1.4993    1.7563   -2.4936 N   0  0  0  0  0  0  0  0  0  0  0  0
    0.5463    0.9805    0.5536 H   0  0  0  0  0  0  0  0  0  0  0  0
    2.4563    1.3918    0.4792 H   0  0  0  0  0  0  0  0  0  0  0  0
    1.3365    2.7674    0.4792 H   0  0  0  0  0  0  0  0  0  0  0  0
   -0.4074    0.2042    1.0000 C   0  0  0  0  0  3  0  0  0  0  0  0
   -0.6532   -0.9135    0.0141 C   0  0  0  0  0  0  0  0  0  0  0  0
   -1.3821   -2.0998    0.5241 N   0  0  0  0  0  0  0  0  0  0  0  0
   -1.6957   -2.0339    1.6732 O   0  0  0  0  0  0  0  0  0  0  0  0
   -1.3451    0.6009    1.3884 H   0  0  0  0  0  0  0  0  0  0  0  0
    0.1836   -0.1408    1.8481 H   0  0  0  0  0  0  0  0  0  0  0  0
   -1.2418   -0.5965   -0.8530 H   0  0  0  0  0  0  0  0  0  0  0  0
    0.2714   -1.3307   -0.3980 H   0  0  0  0  0  0  0  0  0  0  0  0
  1  2  1  0
  1  4  1  0
  1  5  1  0
  1  6  1  0
  2  3  3  0
  7  8  1  0
  7 11  1  0
  7 12  1  0
  8  9  1  0
  8 13  1  0
  8 14  1  0
  9 10  2  0
M  RAD  1   7   2
M  END
>  <reaction>  (6) 
rmg_rxn_183

>  <mol_properties>  (6) 
{"0": {"label": "*1", "atom_type": "Cs"}, "1": {"label": "*0", "atom_type": "Ct"}, "3": {"label": "*2", "atom_type": "H0"}, "6": {"label": "*3", "atom_type": "Cs"}, "7": {"label": "*4", "atom_type": "Cs"}}

>  <type>  (6) 
unop_2

>  <geom_source>  (6) 
Heuristics

$$$$

     RDKit          3D

 14 12  0  0  0  0  0  0  0  0999 V2000
    1.4470    1.2408   -0.7991 C   0  0  0  0  0  0  0  0  0  0  0  0
    1.4470    1.2408   -2.2537 C   0  0  0  0  0  0  0  0  0  0  0  0
    1.4470    1.2408   -3.4002 N   0  0  0  0  0  0  0  0  0  0  0  0
    0.4940    0.4650   -0.3530 H   0  0  0  0  0  0  0  0  0  0  0  0
    2.4041    0.8763   -0.4274 H   0  0  0  0  0  0  0  0  0  0  0  0
    1.2843    2.2519   -0.4274 H   0  0  0  0  0  0  0  0  0  0  0  0
   -0.4596   -0.3113    0.0934 C   0  0  0  0  0  3  0  0  0  0  0  0
   -0.0532   -0.8980    1.4246 C   0  0  0  0  0  0  0  0  0  0  0  0
   -1.1505   -1.2474    2.3586 N   0  0  0  0  0  0  0  0  0  0  0  0
   -2.2461   -1.0212    1.9444 O   0  0  0  0  0  0  0  0  0  0  0  0
   -1.0904   -1.0019   -0.4660 H   0  0  0  0  0  0  0  0  0  0  0  0
   -1.0176    0.6156    0.2246 H   0  0  0  0  0  0  0  0  0  0  0  0
    0.5139   -1.8294    1.3257 H   0  0  0  0  0  0  0  0  0  0  0  0
    0.5860   -0.2283    2.0093 H   0  0  0  0  0  0  0  0  0  0  0  0
  1  2  1  0
  1  4  1  0
  1  5  1  0
  1  6  1  0
  2  3  3  0
  7  8  1  0
  7 11  1  0
  7 12  1  0
  8  9  1  0
  8 13  1  0
  8 14  1  0
  9 10  2  0
M  RAD  1   7   2
M  END
>  <reaction>  (7) 
rmg_rxn_183

>  <mol_properties>  (7) 
{"0": {"label": "*1", "atom_type": "Cs"}, "1": {"label": "*0", "atom_type": "Ct"}, "3": {"label": "*2", "atom_type": "H0"}, "6": {"label": "*3", "atom_type": "Cs"}, "7": {"label": "*4", "atom_type": "Cs"}}

>  <type>  (7) 
unop_3

>  <geom_source>  (7) 
Heuristics

$$$$

     RDKit          3D

 14 12  0  0  0  0  0  0  0  0999 V2000
    2.0240    0.8449   -0.2049 C   0  0  0  0  0  0  0  0  0  0  0  0
    2.0240    0.8449   -1.6596 C   0  0  0  0  0  0  0  0  0  0  0  0
    2.0240    0.8449   -2.8060 N   0  0  0  0  0  0  0  0  0  0  0  0
    1.0710    0.0691    0.2412 H   0  0  0  0  0  0  0  0  0  0  0  0
    2.9810    0.4804    0.1668 H   0  0  0  0  0  0  0  0  0  0  0  0
    1.8612    1.8560    0.1668 H   0  0  0  0  0  0  0  0  0  0  0  0
    0.1174   -0.7073    0.6876 C   0  0  0  0  0  3  0  0  0  0  0  0
   -1.2180   -0.2051    0.1914 C   0  0  0  0  0  0  0  0  0  0  0  0
   -2.3829   -0.4275    1.0813 N   0  0  0  0  0  0  0  0  0  0  0  0
   -2.1273   -0.9866    2.1036 O   0  0  0  0  0  0  0  0  0  0  0  0
    0.3927   -0.2317    1.6287 H   0  0  0  0  0  0  0  0  0  0  0  0
    0.0969   -1.7842    0.8535 H   0  0  0  0  0  0  0  0  0  0  0  0
   -1.2280    0.8748    0.0108 H   0  0  0  0  0  0  0  0  0  0  0  0
   -1.5208   -0.6619   -0.7565 H   0  0  0  0  0  0  0  0  0  0  0  0
  1  2  1  0
  1  4  1  0
  1  5  1  0
  1  6  1  0
  2  3  3  0
  7  8  1  0
  7 11  1  0
  7 12  1  0
  8  9  1  0
  8 13  1  0
  8 14  1  0
  9 10  2  0
M  RAD  1   7   2
M  END
>  <reaction>  (8) 
rmg_rxn_183

>  <mol_properties>  (8) 
{"0": {"label": "*1", "atom_type": "Cs"}, "1": {"label": "*0", "atom_type": "Ct"}, "3": {"label": "*2", "atom_type": "H0"}, "6": {"label": "*3", "atom_type": "Cs"}, "7": {"label": "*4", "atom_type": "Cs"}}

>  <type>  (8) 
unop_4

>  <geom_source>  (8) 
Heuristics

$$$$

     RDKit          3D

 14 12  0  0  0  0  0  0  0  0999 V2000
    1.5426    1.2558   -0.7467 C   0  0  0  0  0  0  0  0  0  0  0  0
    1.5426    1.2558   -2.2013 C   0  0  0  0  0  0  0  0  0  0  0  0
    1.5426    1.2558   -3.3477 N   0  0  0  0  0  0  0  0  0  0  0  0
    0.5896    0.4799   -0.3006 H   0  0  0  0  0  0  0  0  0  0  0  0
    2.4996    0.8912   -0.3750 H   0  0  0  0  0  0  0  0  0  0  0  0
    1.3798    2.2668   -0.3749 H   0  0  0  0  0  0  0  0  0  0  0  0
   -0.3641   -0.2964    0.1458 C   0  0  0  0  0  3  0  0  0  0  0  0
   -0.3564   -0.2902    1.6563 C   0  0  0  0  0  0  0  0  0  0  0  0
   -1.3813   -1.1245    2.3285 N   0  0  0  0  0  0  0  0  0  0  0  0
   -2.1060   -1.7144    1.5869 O   0  0  0  0  0  0  0  0  0  0  0  0
   -0.2039   -1.3009   -0.2453 H   0  0  0  0  0  0  0  0  0  0  0  0
   -1.3152    0.0642   -0.2453 H   0  0  0  0  0  0  0  0  0  0  0  0
    0.5892   -0.6437    2.0801 H   0  0  0  0  0  0  0  0  0  0  0  0
   -0.5108    0.7075    2.0801 H   0  0  0  0  0  0  0  0  0  0  0  0
  1  2  1  0
  1  4  1  0
  1  5  1  0
  1  6  1  0
  2  3  3  0
  7  8  1  0
  7 11  1  0
  7 12  1  0
  8  9  1  0
  8 13  1  0
  8 14  1  0
  9 10  2  0
M  RAD  1   7   2
M  END
>  <reaction>  (9) 
rmg_rxn_183

>  <mol_properties>  (9) 
{"0": {"label": "*1", "atom_type": "Cs"}, "1": {"label": "*0", "atom_type": "Ct"}, "3": {"label": "*2", "atom_type": "H0"}, "6": {"label": "*3", "atom_type": "Cs"}, "7": {"label": "*4", "atom_type": "Cs"}}

>  <type>  (9) 
unop_5

>  <geom_source>  (9) 
Heuristics

$$$$

     RDKit          3D

 14 12  0  0  0  0  0  0  0  0999 V2000
    1.8613    0.7866   -0.5414 C   0  0  0  0  0  0  0  0  0  0  0  0
    1.8613    0.7866   -1.9961 C   0  0  0  0  0  0  0  0  0  0  0  0
    1.8613    0.7866   -3.1425 N   0  0  0  0  0  0  0  0  0  0  0  0
    0.9082    0.0108   -0.0953 H   0  0  0  0  0  0  0  0  0  0  0  0
    2.8183    0.4221   -0.1697 H   0  0  0  0  0  0  0  0  0  0  0  0
    1.6985    1.7977   -0.1697 H   0  0  0  0  0  0  0  0  0  0  0  0
   -0.0454   -0.7656    0.3511 C   0  0  0  0  0  3  0  0  0  0  0  0
   -1.3128    0.0378    0.5238 C   0  0  0  0  0  0  0  0  0  0  0  0
   -2.1380   -0.2726    1.7159 N   0  0  0  0  0  0  0  0  0  0  0  0
   -1.6987   -1.1353    2.4130 O   0  0  0  0  0  0  0  0  0  0  0  0
    0.6273   -0.6278    1.1973 H   0  0  0  0  0  0  0  0  0  0  0  0
   -0.2615   -1.8306    0.2689 H   0  0  0  0  0  0  0  0  0  0  0  0
   -1.1287    1.1140    0.6050 H   0  0  0  0  0  0  0  0  0  0  0  0
   -2.0085   -0.0765   -0.3140 H   0  0  0  0  0  0  0  0  0  0  0  0
  1  2  1  0
  1  4  1  0
  1  5  1  0
  1  6  1  0
  2  3  3  0
  7  8  1  0
  7 11  1  0
  7 12  1  0
  8  9  1  0
  8 13  1  0
  8 14  1  0
  9 10  2  0
M  RAD  1   7   2
M  END
>  <reaction>  (10) 
rmg_rxn_183

>  <mol_properties>  (10) 
{"0": {"label": "*1", "atom_type": "Cs"}, "1": {"label": "*0", "atom_type": "Ct"}, "3": {"label": "*2", "atom_type": "H0"}, "6": {"label": "*3", "atom_type": "Cs"}, "7": {"label": "*4", "atom_type": "Cs"}}

>  <type>  (10) 
unop_6

>  <geom_source>  (10) 
Heuristics

$$$$

     RDKit          3D

 14 12  0  0  0  0  0  0  0  0999 V2000
    1.6409    0.9290   -0.7635 C   0  0  0  0  0  0  0  0  0  0  0  0
    1.6409    0.9290   -2.2182 C   0  0  0  0  0  0  0  0  0  0  0  0
    1.6409    0.9290   -3.3646 N   0  0  0  0  0  0  0  0  0  0  0  0
    0.6878    0.1532   -0.3174 H   0  0  0  0  0  0  0  0  0  0  0  0
    2.5979    0.5645   -0.3918 H   0  0  0  0  0  0  0  0  0  0  0  0
    1.4781    1.9401   -0.3918 H   0  0  0  0  0  0  0  0  0  0  0  0
   -0.2658   -0.6231    0.1289 C   0  0  0  0  0  3  0  0  0  0  0  0
   -1.2246    0.1856    0.9705 C   0  0  0  0  0  0  0  0  0  0  0  0
   -1.7537   -0.4712    2.1899 N   0  0  0  0  0  0  0  0  0  0  0  0
   -1.3548   -1.5811    2.3691 O   0  0  0  0  0  0  0  0  0  0  0  0
    0.6196   -0.9036    0.6991 H   0  0  0  0  0  0  0  0  0  0  0  0
   -0.7331   -1.5397   -0.2305 H   0  0  0  0  0  0  0  0  0  0  0  0
   -0.7849    1.1165    1.3435 H   0  0  0  0  0  0  0  0  0  0  0  0
   -2.1238    0.4868    0.4233 H   0  0  0  0  0  0  0  0  0  0  0  0
  1  2  1  0
  1  4  1  0
  1  5  1  0
  1  6  1  0
  2  3  3  0
  7  8  1  0
  7 11  1  0
  7 12  1  0
  8  9  1  0
  8 13  1  0
  8 14  1  0
  9 10  2  0
M  RAD  1   7   2
M  END
>  <reaction>  (11) 
rmg_rxn_183

>  <mol_properties>  (11) 
{"0": {"label": "*1", "atom_type": "Cs"}, "1": {"label": "*0", "atom_type": "Ct"}, "3": {"label": "*2", "atom_type": "H0"}, "6": {"label": "*3", "atom_type": "Cs"}, "7": {"label": "*4", "atom_type": "Cs"}}

>  <type>  (11) 
unop_7

>  <geom_source>  (11) 
Heuristics

$$$$

     RDKit          3D

 14 12  0  0  0  0  0  0  0  0999 V2000
    1.1478    1.6630   -0.5414 C   0  0  0  0  0  0  0  0  0  0  0  0
    1.1478    1.6630   -1.9961 C   0  0  0  0  0  0  0  0  0  0  0  0
    1.1478    1.6630   -3.1425 N   0  0  0  0  0  0  0  0  0  0  0  0
    0.1948    0.8872   -0.0953 H   0  0  0  0  0  0  0  0  0  0  0  0
    2.1048    1.2985   -0.1697 H   0  0  0  0  0  0  0  0  0  0  0  0
    0.9850    2.6741   -0.1697 H   0  0  0  0  0  0  0  0  0  0  0  0
   -0.7588    0.1108    0.3511 C   0  0  0  0  0  3  0  0  0  0  0  0
   -0.2293   -1.2932    0.5238 C   0  0  0  0  0  0  0  0  0  0  0  0
   -0.7006   -2.0382    1.7159 N   0  0  0  0  0  0  0  0  0  0  0  0
   -1.4563   -1.4331    2.4130 O   0  0  0  0  0  0  0  0  0  0  0  0
   -1.8455    0.1153    0.2689 H   0  0  0  0  0  0  0  0  0  0  0  0
   -0.4875    0.7417    1.1973 H   0  0  0  0  0  0  0  0  0  0  0  0
   -0.4823   -1.9512   -0.3140 H   0  0  0  0  0  0  0  0  0  0  0  0
    0.8619   -1.3312    0.6050 H   0  0  0  0  0  0  0  0  0  0  0  0
  1  2  1  0
  1  4  1  0
  1  5  1  0
  1  6  1  0
  2  3  3  0
  7  8  1  0
  7 11  1  0
  7 12  1  0
  8  9  1  0
  8 13  1  0
  8 14  1  0
  9 10  2  0
M  RAD  1   7   2
M  END
>  <reaction>  (12) 
rmg_rxn_183

>  <mol_properties>  (12) 
{"0": {"label": "*1", "atom_type": "Cs"}, "1": {"label": "*0", "atom_type": "Ct"}, "3": {"label": "*2", "atom_type": "H0"}, "6": {"label": "*3", "atom_type": "Cs"}, "7": {"label": "*4", "atom_type": "Cs"}}

>  <type>  (12) 
unop_8

>  <geom_source>  (12) 
Heuristics

$$$$

     RDKit          3D

 14 12  0  0  0  0  0  0  0  0999 V2000
    2.0240    1.1118    0.1075 C   0  0  0  0  0  0  0  0  0  0  0  0
    2.0240    1.1118   -1.3472 C   0  0  0  0  0  0  0  0  0  0  0  0
    2.0240    1.1118   -2.4936 N   0  0  0  0  0  0  0  0  0  0  0  0
    1.0709    0.3360    0.5536 H   0  0  0  0  0  0  0  0  0  0  0  0
    2.9810    0.7473    0.4792 H   0  0  0  0  0  0  0  0  0  0  0  0
    1.8612    2.1229    0.4792 H   0  0  0  0  0  0  0  0  0  0  0  0
    0.1173   -0.4403    1.0000 C   0  0  0  0  0  3  0  0  0  0  0  0
   -1.0270   -0.4543    0.0141 C   0  0  0  0  0  0  0  0  0  0  0  0
   -2.3365   -0.9274    0.5241 N   0  0  0  0  0  0  0  0  0  0  0  0
   -2.3356   -1.2478    1.6732 O   0  0  0  0  0  0  0  0  0  0  0  0
   -0.1006    0.2084    1.8481 H   0  0  0  0  0  0  0  0  0  0  0  0
    0.3156   -1.4390    1.3884 H   0  0  0  0  0  0  0  0  0  0  0  0
   -1.2480    0.5357   -0.3980 H   0  0  0  0  0  0  0  0  0  0  0  0
   -0.8360   -1.0950   -0.8530 H   0  0  0  0  0  0  0  0  0  0  0  0
  1  2  1  0
  1  4  1  0
  1  5  1  0
  1  6  1  0
  2  3  3  0
  7  8  1  0
  7 11  1  0
  7 12  1  0
  8  9  1  0
  8 13  1  0
  8 14  1  0
  9 10  2  0
M  RAD  1   7   2
M  END
>  <reaction>  (13) 
rmg_rxn_183

>  <mol_properties>  (13) 
{"0": {"label": "*1", "atom_type": "Cs"}, "1": {"label": "*0", "atom_type": "Ct"}, "3": {"label": "*2", "atom_type": "H0"}, "6": {"label": "*3", "atom_type": "Cs"}, "7": {"label": "*4", "atom_type": "Cs"}}

>  <type>  (13) 
unop_9

>  <geom_source>  (13) 
Heuristics

$$$$

     RDKit          3D

 14 12  0  0  0  0  0  0  0  0999 V2000
    1.2379    1.8106   -0.2049 C   0  0  0  0  0  0  0  0  0  0  0  0
    1.2379    1.8106   -1.6596 C   0  0  0  0  0  0  0  0  0  0  0  0
    1.2379    1.8106   -2.8060 N   0  0  0  0  0  0  0  0  0  0  0  0
    0.2849    1.0347    0.2412 H   0  0  0  0  0  0  0  0  0  0  0  0
    2.1949    1.4460    0.1668 H   0  0  0  0  0  0  0  0  0  0  0  0
    1.0751    2.8216    0.1668 H   0  0  0  0  0  0  0  0  0  0  0  0
   -0.6688    0.2584    0.6876 C   0  0  0  0  0  3  0  0  0  0  0  0
   -0.4479   -1.1511    0.1914 C   0  0  0  0  0  0  0  0  0  0  0  0
   -0.9020   -2.2467    1.0813 N   0  0  0  0  0  0  0  0  0  0  0  0
   -1.3976   -1.8829    2.1036 O   0  0  0  0  0  0  0  0  0  0  0  0
   -1.7274    0.4568    0.8535 H   0  0  0  0  0  0  0  0  0  0  0  0
   -0.1472    0.4316    1.6287 H   0  0  0  0  0  0  0  0  0  0  0  0
   -0.9567   -1.3549   -0.7565 H   0  0  0  0  0  0  0  0  0  0  0  0
    0.6075   -1.3799    0.0108 H   0  0  0  0  0  0  0  0  0  0  0  0
  1  2  1  0
  1  4  1  0
  1  5  1  0
  1  6  1  0
  2  3  3  0
  7  8  1  0
  7 11  1  0
  7 12  1  0
  8  9  1  0
  8 13  1  0
  8 14  1  0
  9 10  2  0
M  RAD  1   7   2
M  END
>  <reaction>  (14) 
rmg_rxn_183

>  <mol_properties>  (14) 
{"0": {"label": "*1", "atom_type": "Cs"}, "1": {"label": "*0", "atom_type": "Ct"}, "3": {"label": "*2", "atom_type": "H0"}, "6": {"label": "*3", "atom_type": "Cs"}, "7": {"label": "*4", "atom_type": "Cs"}}

>  <type>  (14) 
unop_10

>  <geom_source>  (14) 
Heuristics

$$$$

     RDKit          3D

 14 12  0  0  0  0  0  0  0  0999 V2000
    1.5086    1.1652   -0.7991 C   0  0  0  0  0  0  0  0  0  0  0  0
    1.5086    1.1652   -2.2537 C   0  0  0  0  0  0  0  0  0  0  0  0
    1.5086    1.1652   -3.4002 N   0  0  0  0  0  0  0  0  0  0  0  0
    0.5556    0.3894   -0.3530 H   0  0  0  0  0  0  0  0  0  0  0  0
    2.4656    0.8007   -0.4274 H   0  0  0  0  0  0  0  0  0  0  0  0
    1.3458    2.1763   -0.4274 H   0  0  0  0  0  0  0  0  0  0  0  0
   -0.3981   -0.3869    0.0934 C   0  0  0  0  0  3  0  0  0  0  0  0
   -0.8901    0.1301    1.4246 C   0  0  0  0  0  0  0  0  0  0  0  0
   -1.4548   -0.8735    2.3586 N   0  0  0  0  0  0  0  0  0  0  0  0
   -1.4556   -1.9923    1.9444 O   0  0  0  0  0  0  0  0  0  0  0  0
    0.3964   -1.1213    0.2246 H   0  0  0  0  0  0  0  0  0  0  0  0
   -1.2023   -0.8645   -0.4660 H   0  0  0  0  0  0  0  0  0  0  0  0
   -0.1047    0.6201    2.0093 H   0  0  0  0  0  0  0  0  0  0  0  0
   -1.6871    0.8743    1.3257 H   0  0  0  0  0  0  0  0  0  0  0  0
  1  2  1  0
  1  4  1  0
  1  5  1  0
  1  6  1  0
  2  3  3  0
  7  8  1  0
  7 11  1  0
  7 12  1  0
  8  9  1  0
  8 13  1  0
  8 14  1  0
  9 10  2  0
M  RAD  1   7   2
M  END
>  <reaction>  (15) 
rmg_rxn_183

>  <mol_properties>  (15) 
{"0": {"label": "*1", "atom_type": "Cs"}, "1": {"label": "*0", "atom_type": "Ct"}, "3": {"label": "*2", "atom_type": "H0"}, "6": {"label": "*3", "atom_type": "Cs"}, "7": {"label": "*4", "atom_type": "Cs"}}

>  <type>  (15) 
unop_11

>  <geom_source>  (15) 
Heuristics

$$$$

     RDKit          3D

 14 12  0  0  0  0  0  0  0  0999 V2000
    1.8198    1.4814    0.2380 C   0  0  0  0  0  0  0  0  0  0  0  0
    1.8198    1.4814   -1.2167 C   0  0  0  0  0  0  0  0  0  0  0  0
    1.8198    1.4814   -2.3631 N   0  0  0  0  0  0  0  0  0  0  0  0
    0.8667    0.7056    0.6840 H   0  0  0  0  0  0  0  0  0  0  0  0
    2.7768    1.1169    0.6097 H   0  0  0  0  0  0  0  0  0  0  0  0
    1.6570    2.4925    0.6097 H   0  0  0  0  0  0  0  0  0  0  0  0
   -0.0869   -0.0707    1.1304 C   0  0  0  0  0  3  0  0  0  0  0  0
   -0.8324   -0.6777   -0.0346 C   0  0  0  0  0  0  0  0  0  0  0  0
   -1.9531   -1.5900    0.2974 N   0  0  0  0  0  0  0  0  0  0  0  0
   -2.1401   -1.7422    1.4658 O   0  0  0  0  0  0  0  0  0  0  0  0
   -0.7513    0.5232    1.7576 H   0  0  0  0  0  0  0  0  0  0  0  0
    0.3600   -0.8419    1.7576 H   0  0  0  0  0  0  0  0  0  0  0  0
   -1.2898    0.0734   -0.6870 H   0  0  0  0  0  0  0  0  0  0  0  0
   -0.1898   -1.2779   -0.6870 H   0  0  0  0  0  0  0  0  0  0  0  0
  1  2  1  0
  1  4  1  0
  1  5  1  0
  1  6  1  0
  2  3  3  0
  7  8  1  0
  7 11  1  0
  7 12  1  0
  8  9  1  0
  8 13  1  0
  8 14  1  0
  9 10  2  0
M  RAD  1   7   2
M  END
>  <reaction>  (16) 
rmg_rxn_183

>  <mol_properties>  (16) 
{"0": {"label": "*1", "atom_type": "Cs"}, "1": {"label": "*0", "atom_type": "Ct"}, "3": {"label": "*2", "atom_type": "H0"}, "6": {"label": "*3", "atom_type": "Cs"}, "7": {"label": "*4", "atom_type": "Cs"}}

>  <type>  (16) 
unop_12

>  <geom_source>  (16) 
Heuristics

$$$$

     RDKit          3D

 14 12  0  0  0  0  0  0  0  0999 V2000
   -2.3135   -0.5364    1.7267 O   0  0  0  0  0  0  0  0  0  0  0  0
   -2.0468   -1.0047    0.6613 N   0  0  0  0  0  0  0  0  0  0  0  0
    3.1299    1.2153    1.3058 N   0  0  0  0  0  2  0  0  0  0  0  0
   -1.8154   -0.1547   -0.4803 C   0  0  0  0  0  0  0  0  0  0  0  0
   -0.5232    0.6335   -0.3067 C   0  0  0  0  0  0  0  0  0  0  0  0
    1.8023   -0.5414   -0.1145 C   0  0  0  0  0  0  0  0  0  0  0  0
    2.5437    0.4395    0.6786 C   0  0  0  0  0  0  0  0  0  0  0  0
   -2.6713    0.5425   -0.6113 H   0  0  0  0  0  0  0  0  0  0  0  0
   -1.7335   -0.7878   -1.3886 H   0  0  0  0  0  0  0  0  0  0  0  0
   -0.3374    1.2502   -1.2112 H   0  0  0  0  0  0  0  0  0  0  0  0
   -0.5969    1.3052    0.5748 H   0  0  0  0  0  0  0  0  0  0  0  0
    0.4759   -0.1858   -0.1415 H   0  0  0  0  0  0  0  0  0  0  0  0
    2.2866   -0.6579   -1.1058 H   0  0  0  0  0  0  0  0  0  0  0  0
    1.7994   -1.5175    0.4127 H   0  0  0  0  0  0  0  0  0  0  0  0
  1  2  2  0
  2  4  1  0
  3  7  2  0
  4  5  1  0
  4  8  1  0
  4  9  1  0
  5 10  1  0
  5 11  1  0
  5 12  1  0
  6  7  2  0
  6 13  1  0
  6 14  1  0
M  RAD  1   3   2
M  END
>  <reaction>  (17) 
rmg_rxn_183

>  <mol_properties>  (17) 
{"0": {"label": "*1", "atom_type": "Cs"}, "1": {"label": "*0", "atom_type": "Ct"}, "3": {"label": "*2", "atom_type": "H0"}, "6": {"label": "*3", "atom_type": "Cs"}, "7": {"label": "*4", "atom_type": "Cs"}}

>  <type>  (17) 
unop_13

>  <geom_source>  (17) 
AutoTST

$$$$

     RDKit          3D

 14 12  0  0  0  0  0  0  0  0999 V2000
    1.4993    1.7563    0.1075 C   0  0  0  0  0  0  0  0  0  0  0  0
    1.4993    1.7563   -1.3472 C   0  0  0  0  0  0  0  0  0  0  0  0
    1.4993    1.7563   -2.4936 N   0  0  0  0  0  0  0  0  0  0  0  0
    0.5463    0.9805    0.5536 H   0  0  0  0  0  0  0  0  0  0  0  0
    2.4563    1.3918    0.4792 H   0  0  0  0  0  0  0  0  0  0  0  0
    1.3365    2.7674    0.4792 H   0  0  0  0  0  0  0  0  0  0  0  0
   -0.4074    0.2042    1.0000 C   0  0  0  0  0  3  0  0  0  0  0  0
   -0.6532   -0.9135    0.0141 C   0  0  0  0  0  0  0  0  0  0  0  0
   -1.3821   -2.0998    0.5241 N   0  0  0  0  0  0  0  0  0  0  0  0
   -1.6957   -2.0339    1.6732 O   0  0  0  0  0  0  0  0  0  0  0  0
   -1.3451    0.6009    1.3884 H   0  0  0  0  0  0  0  0  0  0  0  0
    0.1836   -0.1408    1.8481 H   0  0  0  0  0  0  0  0  0  0  0  0
   -1.2418   -0.5965   -0.8530 H   0  0  0  0  0  0  0  0  0  0  0  0
    0.2714   -1.3307   -0.3980 H   0  0  0  0  0  0  0  0  0  0  0  0
  1  2  1  0
  1  4  1  0
  1  5  1  0
  1  6  1  0
  2  3  3  0
  7  8  1  0
  7 11  1  0
  7 12  1  0
  8  9  1  0
  8 13  1  0
  8 14  1  0
  9 10  2  0
M  RAD  1   7   2
M  END
>  <reaction>  (18) 
rmg_rxn_183

>  <mol_properties>  (18) 
{"0": {"label": "*1", "atom_type": "Cs"}, "1": {"label": "*0", "atom_type": "Ct"}, "3": {"label": "*2", "atom_type": "H0"}, "6": {"label": "*3", "atom_type": "Cs"}, "7": {"label": "*4", "atom_type": "Cs"}}

>  <type>  (18) 
unop_14

>  <geom_source>  (18) 
gaussian_log

$$$$
