
     RDKit          3D

  9  8  0  0  0  0  0  0  0  0999 V2000
   -1.5470   -0.0755   -0.1976 C   0  0  0  0  0  0  0  0  0  0  0  0
   -0.2885    0.4507    0.1749 O   0  0  0  0  0  0  0  0  0  0  0  0
   -0.1502    1.7216   -0.3294 N   0  0  0  0  0  0  0  0  0  0  0  0
    0.9626    2.2353   -0.0219 C   0  0  0  0  0  0  0  0  0  0  0  0
   -1.6392   -0.1356   -1.2844 H   0  0  0  0  0  0  0  0  0  0  0  0
   -2.3597    0.5337    0.2044 H   0  0  0  0  0  0  0  0  0  0  0  0
   -1.5879   -1.0750    0.2318 H   0  0  0  0  0  0  0  0  0  0  0  0
    1.1497    3.2381   -0.3820 H   0  0  0  0  0  0  0  0  0  0  0  0
    1.7060    1.7101    0.5739 H   0  0  0  0  0  0  0  0  0  0  0  0
  1  2  1  0
  1  5  1  0
  1  6  1  0
  1  7  1  0
  2  3  1  0
  3  4  2  3
  4  8  1  0
  4  9  1  0
M  END
>  <reaction>  (1) 
rmg_rxn_15612

>  <mol_properties>  (1) 
{"0": {"label": "donator", "atom_type": "Cs"}, "4": {"label": "d_hydrogen", "atom_type": "H0"}}

>  <type>  (1) 
r1h

$$$$

     RDKit          3D

  8  7  0  0  0  0  0  0  0  0999 V2000
   -0.7895    0.0669   -0.0653 C   0  0  0  0  0  0  0  0  0  0  0  0
    0.7246   -0.0449   -0.0106 C   0  0  0  0  0  0  0  0  0  0  0  0
    1.3076   -0.6881   -1.0542 O   0  0  0  0  0  1  0  0  0  0  0  0
   -1.2430   -0.9244   -0.0962 H   0  0  0  0  0  0  0  0  0  0  0  0
   -1.1693    0.5943    0.8120 H   0  0  0  0  0  0  0  0  0  0  0  0
   -1.0981    0.6133   -0.9573 H   0  0  0  0  0  0  0  0  0  0  0  0
    1.2041    0.9484    0.0705 H   0  0  0  0  0  0  0  0  0  0  0  0
    1.0612   -0.5559    0.9110 H   0  0  0  0  0  0  0  0  0  0  0  0
  1  2  1  0
  1  4  1  0
  1  5  1  0
  1  6  1  0
  2  3  1  0
  2  7  1  0
  2  8  1  0
M  RAD  1   3   2
M  END
>  <reaction>  (2) 
rmg_rxn_15612

>  <mol_properties>  (2) 
{"2": {"label": "acceptor", "atom_type": "O2s"}}

>  <type>  (2) 
r2

$$$$

     RDKit          3D

  9  8  0  0  0  0  0  0  0  0999 V2000
   -0.9895    0.3048    0.1041 C   0  0  0  0  0  0  0  0  0  0  0  0
    0.3761   -0.3562    0.0721 C   0  0  0  0  0  0  0  0  0  0  0  0
    0.3441   -1.6564   -0.4834 O   0  0  0  0  0  0  0  0  0  0  0  0
   -1.6997   -0.3114    0.6572 H   0  0  0  0  0  0  0  0  0  0  0  0
   -0.9320    1.2848    0.5822 H   0  0  0  0  0  0  0  0  0  0  0  0
   -1.3774    0.4507   -0.9077 H   0  0  0  0  0  0  0  0  0  0  0  0
    0.7581   -0.4813    1.0862 H   0  0  0  0  0  0  0  0  0  0  0  0
    1.0900    0.2787   -0.4681 H   0  0  0  0  0  0  0  0  0  0  0  0
    0.0089   -1.5959   -1.3792 H   0  0  0  0  0  0  0  0  0  0  0  0
  1  2  1  0
  1  4  1  0
  1  5  1  0
  1  6  1  0
  2  3  1  0
  2  7  1  0
  2  8  1  0
  3  9  1  0
M  END
>  <reaction>  (3) 
rmg_rxn_15612

>  <mol_properties>  (3) 
{"2": {"label": "acceptor", "atom_type": "O2s"}, "8": {"label": "a_hydrogen", "atom_type": "H0"}}

>  <type>  (3) 
r2h

$$$$

     RDKit          3D

 17 15  0  0  0  0  0  0  0  0999 V2000
    2.1909    0.2873   -0.2532 C   0  0  0  0  0  0  0  0  0  0  0  0
    1.6470   -0.6436    0.8181 C   0  0  0  0  0  0  0  0  0  0  0  0
    1.0076    0.0161    1.8665 O   0  0  0  0  0  1  0  0  0  0  0  0
    2.8792    1.0110    0.1854 H   0  0  0  0  0  0  0  0  0  0  0  0
    2.7225   -0.2785   -1.0219 H   0  0  0  0  0  0  0  0  0  0  0  0
    1.3778    0.8361   -0.7316 H   0  0  0  0  0  0  0  0  0  0  0  0
    0.9873   -1.4013    0.3740 H   0  0  0  0  0  0  0  0  0  0  0  0
    2.4698   -1.1974    1.2906 H   0  0  0  0  0  0  0  0  0  0  0  0
   -1.2878    0.6318    1.0024 C   0  0  0  0  0  0  0  0  0  0  0  0
   -1.2660    0.7778   -0.3726 O   0  0  0  0  0  0  0  0  0  0  0  0
   -1.3149   -0.4522   -1.0036 N   0  0  0  0  0  0  0  0  0  0  0  0
   -1.1613   -0.3346   -2.2517 C   0  0  0  0  0  0  0  0  0  0  0  0
   -0.1565    0.3660    1.4446 H   0  0  0  0  0  0  0  0  0  0  0  0
   -1.9217   -0.1916    1.3302 H   0  0  0  0  0  0  0  0  0  0  0  0
   -1.5379    1.5947    1.4418 H   0  0  0  0  0  0  0  0  0  0  0  0
   -1.1999   -1.2484   -2.8294 H   0  0  0  0  0  0  0  0  0  0  0  0
   -1.0008    0.6255   -2.7362 H   0  0  0  0  0  0  0  0  0  0  0  0
  1  2  1  0
  1  4  1  0
  1  5  1  0
  1  6  1  0
  2  3  1  0
  2  7  1  0
  2  8  1  0
  9 10  1  0
  9 13  1  0
  9 14  1  0
  9 15  1  0
 10 11  1  0
 11 12  2  3
 12 16  1  0
 12 17  1  0
M  RAD  1   3   2
M  END
>  <reaction>  (4) 
rmg_rxn_15612

>  <mol_properties>  (4) 
{"1": {"label": "*4", "atom_type": "Cs"}, "2": {"label": "*3", "atom_type": "O2s"}, "8": {"label": "*1", "atom_type": "Cs"}, "9": {"label": "*0", "atom_type": "O2s"}, "12": {"label": "*2", "atom_type": "H0"}}

>  <type>  (4) 
ts

$$$$

     RDKit          3D

 17 15  0  0  0  0  0  0  0  0999 V2000
    1.9773    1.1656    0.6194 C   0  0  0  0  0  0  0  0  0  0  0  0
    2.3475   -0.1157   -0.1284 C   0  0  0  0  0  0  0  0  0  0  0  0
    1.3246   -0.6243   -0.9047 O   0  0  0  0  0  0  0  0  0  0  0  0
    1.6116    1.9138   -0.0801 H   0  0  0  0  0  0  0  0  0  0  0  0
    1.1969    0.9654    1.3508 H   0  0  0  0  0  0  0  0  0  0  0  0
    2.8482    1.5591    1.1363 H   0  0  0  0  0  0  0  0  0  0  0  0
    3.1639    0.0959   -0.8332 H   0  0  0  0  0  0  0  0  0  0  0  0
    2.7159   -0.8730    0.5846 H   0  0  0  0  0  0  0  0  0  0  0  0
   -0.6562   -1.3027    0.4340 C   0  0  0  0  0  3  0  0  0  0  0  0
   -1.3007   -0.2005    0.9414 O   0  0  0  0  0  0  0  0  0  0  0  0
   -2.0187    0.6249    0.1481 N   0  0  0  0  0  0  0  0  0  0  0  0
   -1.9085    0.6017   -1.1084 C   0  0  0  0  0  0  0  0  0  0  0  0
    0.4241   -0.9233   -0.2539 H   0  0  0  0  0  0  0  0  0  0  0  0
   -1.2205   -1.8716   -0.3029 H   0  0  0  0  0  0  0  0  0  0  0  0
   -0.2852   -1.8878    1.2670 H   0  0  0  0  0  0  0  0  0  0  0  0
   -2.5294    1.2984   -1.6440 H   0  0  0  0  0  0  0  0  0  0  0  0
   -1.2276   -0.0246   -1.6784 H   0  0  0  0  0  0  0  0  0  0  0  0
  1  2  1  0
  1  4  1  0
  1  5  1  0
  1  6  1  0
  2  3  1  0
  2  7  1  0
  2  8  1  0
  3 13  1  0
  9 10  1  0
  9 14  1  0
  9 15  1  0
 10 11  1  0
 11 12  2  3
 12 16  1  0
 12 17  1  0
M  RAD  1   9   2
M  END
>  <reaction>  (5) 
rmg_rxn_15612

>  <mol_properties>  (5) 
{"1": {"label": "*4", "atom_type": "Cs"}, "2": {"label": "*3", "atom_type": "O2s"}, "8": {"label": "*1", "atom_type": "Cs"}, "9": {"label": "*0", "atom_type": "O2s"}, "12": {"label": "*2", "atom_type": "H0"}}

>  <type>  (5) 
unop_1

>  <geom_source>  (5) 
crest_best.xyz

$$$$

     RDKit          3D

 17 15  0  0  0  0  0  0  0  0999 V2000
    0.9411    1.3268    2.3434 C   0  0  0  0  0  0  0  0  0  0  0  0
    1.7714    0.1355    1.9025 C   0  0  0  0  0  0  0  0  0  0  0  0
    1.0518   -0.7607    1.0785 O   0  0  0  0  0  0  0  0  0  0  0  0
    0.0416    0.9945    2.8634 H   0  0  0  0  0  0  0  0  0  0  0  0
    1.5149    1.9689    3.0149 H   0  0  0  0  0  0  0  0  0  0  0  0
    0.6372    1.9312    1.4844 H   0  0  0  0  0  0  0  0  0  0  0  0
    2.6843    0.4777    1.3984 H   0  0  0  0  0  0  0  0  0  0  0  0
    2.0811   -0.4496    2.7695 H   0  0  0  0  0  0  0  0  0  0  0  0
   -0.9581    0.3886    0.2447 C   0  0  0  0  0  3  0  0  0  0  0  0
   -0.9582    0.4465   -1.1682 O   0  0  0  0  0  0  0  0  0  0  0  0
   -0.9582   -0.8274   -1.6840 N   0  0  0  0  0  0  0  0  0  0  0  0
   -0.9582   -0.8274   -2.9476 C   0  0  0  0  0  0  0  0  0  0  0  0
    0.1125   -0.2236    0.6888 H   0  0  0  0  0  0  0  0  0  0  0  0
   -1.8503   -0.1216    0.6148 H   0  0  0  0  0  0  0  0  0  0  0  0
   -0.9582    1.4235    0.5825 H   0  0  0  0  0  0  0  0  0  0  0  0
   -0.9582   -1.7945   -3.4324 H   0  0  0  0  0  0  0  0  0  0  0  0
   -0.9582    0.0891   -3.5337 H   0  0  0  0  0  0  0  0  0  0  0  0
  1  2  1  0
  1  4  1  0
  1  5  1  0
  1  6  1  0
  2  3  1  0
  2  7  1  0
  2  8  1  0
  3 13  1  0
  9 10  1  0
  9 14  1  0
  9 15  1  0
 10 11  1  0
 11 12  2  3
 12 16  1  0
 12 17  1  0
M  RAD  1   9   2
M  END
>  <reaction>  (6) 
rmg_rxn_15612

>  <mol_properties>  (6) 
{"1": {"label": "*4", "atom_type": "Cs"}, "2": {"label": "*3", "atom_type": "O2s"}, "8": {"label": "*1", "atom_type": "Cs"}, "9": {"label": "*0", "atom_type": "O2s"}, "12": {"label": "*2", "atom_type": "H0"}}

>  <type>  (6) 
unop_2

>  <geom_source>  (6) 
Heuristics

$$$$

     RDKit          3D

 17 15  0  0  0  0  0  0  0  0999 V2000
    1.9769    1.1615    0.6254 C   0  0  0  0  0  0  0  0  0  0  0  0
    2.3472   -0.1148   -0.1311 C   0  0  0  0  0  0  0  0  0  0  0  0
    1.3228   -0.6212   -0.9066 O   0  0  0  0  0  0  0  0  0  0  0  0
    2.8492    1.5550    1.1398 H   0  0  0  0  0  0  0  0  0  0  0  0
    1.6054    1.9122   -0.0684 H   0  0  0  0  0  0  0  0  0  0  0  0
    1.2008    0.9549    1.3596 H   0  0  0  0  0  0  0  0  0  0  0  0
    3.1606    0.1028   -0.8376 H   0  0  0  0  0  0  0  0  0  0  0  0
    2.7199   -0.8752    0.5763 H   0  0  0  0  0  0  0  0  0  0  0  0
   -0.6564   -1.3035    0.4325 C   0  0  0  0  0  3  0  0  0  0  0  0
   -1.3015   -0.2023    0.9411 O   0  0  0  0  0  0  0  0  0  0  0  0
   -2.0182    0.6248    0.1482 N   0  0  0  0  0  0  0  0  0  0  0  0
   -1.9053    0.6043   -1.1081 C   0  0  0  0  0  0  0  0  0  0  0  0
    0.4234   -0.9225   -0.2548 H   0  0  0  0  0  0  0  0  0  0  0  0
   -1.2205   -1.8715   -0.3054 H   0  0  0  0  0  0  0  0  0  0  0  0
   -0.2858   -1.8898    1.2649 H   0  0  0  0  0  0  0  0  0  0  0  0
   -2.5246    1.3025   -1.6436 H   0  0  0  0  0  0  0  0  0  0  0  0
   -1.2228   -0.0206   -1.6778 H   0  0  0  0  0  0  0  0  0  0  0  0
  1  2  1  0
  1  4  1  0
  1  5  1  0
  1  6  1  0
  2  3  1  0
  2  7  1  0
  2  8  1  0
  3 13  1  0
  9 10  1  0
  9 14  1  0
  9 15  1  0
 10 11  1  0
 11 12  2  3
 12 16  1  0
 12 17  1  0
M  RAD  1   9   2
M  END
>  <reaction>  (7) 
rmg_rxn_15612

>  <mol_properties>  (7) 
{"1": {"label": "*4", "atom_type": "Cs"}, "2": {"label": "*3", "atom_type": "O2s"}, "8": {"label": "*1", "atom_type": "Cs"}, "9": {"label": "*0", "atom_type": "O2s"}, "12": {"label": "*2", "atom_type": "H0"}}

>  <type>  (7) 
unop_3

>  <geom_source>  (7) 
Heuristics

$$$$

     RDKit          3D

 17 15  0  0  0  0  0  0  0  0999 V2000
    1.9810   -1.1624   -0.6204 C   0  0  0  0  0  0  0  0  0  0  0  0
    2.3484    0.1160    0.1337 C   0  0  0  0  0  0  0  0  0  0  0  0
    1.3213    0.6240    0.9048 O   0  0  0  0  0  0  0  0  0  0  0  0
    1.2074   -0.9581   -1.3579 H   0  0  0  0  0  0  0  0  0  0  0  0
    2.8552   -1.5571   -1.1306 H   0  0  0  0  0  0  0  0  0  0  0  0
    1.6072   -1.9113    0.0742 H   0  0  0  0  0  0  0  0  0  0  0  0
    3.1596   -0.0992    0.8432 H   0  0  0  0  0  0  0  0  0  0  0  0
    2.7227    0.8748   -0.5746 H   0  0  0  0  0  0  0  0  0  0  0  0
   -0.6552    1.2990   -0.4421 C   0  0  0  0  0  3  0  0  0  0  0  0
   -1.3008    0.1947   -0.9431 O   0  0  0  0  0  0  0  0  0  0  0  0
   -2.0201   -0.6251   -0.1449 N   0  0  0  0  0  0  0  0  0  0  0  0
   -1.9094   -0.5948    1.1115 C   0  0  0  0  0  0  0  0  0  0  0  0
    0.4235    0.9219    0.2496 H   0  0  0  0  0  0  0  0  0  0  0  0
   -1.2192    1.8732    0.2909 H   0  0  0  0  0  0  0  0  0  0  0  0
   -0.2827    1.8785   -1.2783 H   0  0  0  0  0  0  0  0  0  0  0  0
   -2.5309   -1.2877    1.6513 H   0  0  0  0  0  0  0  0  0  0  0  0
   -1.2269    0.0334    1.6774 H   0  0  0  0  0  0  0  0  0  0  0  0
  1  2  1  0
  1  4  1  0
  1  5  1  0
  1  6  1  0
  2  3  1  0
  2  7  1  0
  2  8  1  0
  3 13  1  0
  9 10  1  0
  9 14  1  0
  9 15  1  0
 10 11  1  0
 11 12  2  3
 12 16  1  0
 12 17  1  0
M  RAD  1   9   2
M  END
>  <reaction>  (8) 
rmg_rxn_15612

>  <mol_properties>  (8) 
{"1": {"label": "*4", "atom_type": "Cs"}, "2": {"label": "*3", "atom_type": "O2s"}, "8": {"label": "*1", "atom_type": "Cs"}, "9": {"label": "*0", "atom_type": "O2s"}, "12": {"label": "*2", "atom_type": "H0"}}

>  <type>  (8) 
unop_4

>  <geom_source>  (8) 
Heuristics

$$$$

     RDKit          3D

 17 15  0  0  0  0  0  0  0  0999 V2000
    1.8987    1.0315    0.2456 C   0  0  0  0  0  0  0  0  0  0  0  0
    1.8889   -0.3788    0.8058 C   0  0  0  0  0  0  0  0  0  0  0  0
    0.8342   -0.5986    1.7220 O   0  0  0  0  0  0  0  0  0  0  0  0
    1.9574    1.7631    1.0526 H   0  0  0  0  0  0  0  0  0  0  0  0
    2.7530    1.1762   -0.4189 H   0  0  0  0  0  0  0  0  0  0  0  0
    0.9913    1.2296   -0.3314 H   0  0  0  0  0  0  0  0  0  0  0  0
    1.8503   -1.1094   -0.0123 H   0  0  0  0  0  0  0  0  0  0  0  0
    2.8060   -0.5684    1.3653 H   0  0  0  0  0  0  0  0  0  0  0  0
   -1.1757    0.5507    0.8882 C   0  0  0  0  0  3  0  0  0  0  0  0
   -1.1757    0.6086   -0.5247 O   0  0  0  0  0  0  0  0  0  0  0  0
   -1.1757   -0.6652   -1.0404 N   0  0  0  0  0  0  0  0  0  0  0  0
   -1.1757   -0.6652   -2.3040 C   0  0  0  0  0  0  0  0  0  0  0  0
   -0.1051   -0.0615    1.3323 H   0  0  0  0  0  0  0  0  0  0  0  0
   -2.0679    0.0405    1.2583 H   0  0  0  0  0  0  0  0  0  0  0  0
   -1.1758    1.5856    1.2260 H   0  0  0  0  0  0  0  0  0  0  0  0
   -1.1758   -1.6323   -2.7889 H   0  0  0  0  0  0  0  0  0  0  0  0
   -1.1757    0.2512   -2.8902 H   0  0  0  0  0  0  0  0  0  0  0  0
  1  2  1  0
  1  4  1  0
  1  5  1  0
  1  6  1  0
  2  3  1  0
  2  7  1  0
  2  8  1  0
  3 13  1  0
  9 10  1  0
  9 14  1  0
  9 15  1  0
 10 11  1  0
 11 12  2  3
 12 16  1  0
 12 17  1  0
M  RAD  1   9   2
M  END
>  <reaction>  (9) 
rmg_rxn_15612

>  <mol_properties>  (9) 
{"1": {"label": "*4", "atom_type": "Cs"}, "2": {"label": "*3", "atom_type": "O2s"}, "8": {"label": "*1", "atom_type": "Cs"}, "9": {"label": "*0", "atom_type": "O2s"}, "12": {"label": "*2", "atom_type": "H0"}}

>  <type>  (9) 
unop_5

>  <geom_source>  (9) 
Heuristics

$$$$

     RDKit          3D

 17 15  0  0  0  0  0  0  0  0999 V2000
    1.9730    1.1617   -0.6275 C   0  0  0  0  0  0  0  0  0  0  0  0
    2.3460   -0.1138    0.1290 C   0  0  0  0  0  0  0  0  0  0  0  0
    1.3237   -0.6205    0.9072 O   0  0  0  0  0  0  0  0  0  0  0  0
    1.1936    0.9545   -1.3581 H   0  0  0  0  0  0  0  0  0  0  0  0
    1.6048    1.9137    0.0667 H   0  0  0  0  0  0  0  0  0  0  0  0
    2.8432    1.5539   -1.1464 H   0  0  0  0  0  0  0  0  0  0  0  0
    2.7177   -0.8745   -0.5786 H   0  0  0  0  0  0  0  0  0  0  0  0
    3.1607    0.1050    0.8335 H   0  0  0  0  0  0  0  0  0  0  0  0
   -0.6575   -1.3067   -0.4270 C   0  0  0  0  0  3  0  0  0  0  0  0
   -1.3013   -0.2067   -0.9399 O   0  0  0  0  0  0  0  0  0  0  0  0
   -2.0158    0.6252   -0.1500 N   0  0  0  0  0  0  0  0  0  0  0  0
   -1.9021    0.6099    1.1063 C   0  0  0  0  0  0  0  0  0  0  0  0
    0.4237   -0.9240    0.2577 H   0  0  0  0  0  0  0  0  0  0  0  0
   -0.2884   -1.8973   -1.2569 H   0  0  0  0  0  0  0  0  0  0  0  0
   -1.2216   -1.8704    0.3142 H   0  0  0  0  0  0  0  0  0  0  0  0
   -2.5196    1.3117    1.6391 H   0  0  0  0  0  0  0  0  0  0  0  0
   -1.2205   -0.0138    1.6783 H   0  0  0  0  0  0  0  0  0  0  0  0
  1  2  1  0
  1  4  1  0
  1  5  1  0
  1  6  1  0
  2  3  1  0
  2  7  1  0
  2  8  1  0
  3 13  1  0
  9 10  1  0
  9 14  1  0
  9 15  1  0
 10 11  1  0
 11 12  2  3
 12 16  1  0
 12 17  1  0
M  RAD  1   9   2
M  END
>  <reaction>  (10) 
rmg_rxn_15612

>  <mol_properties>  (10) 
{"1": {"label": "*4", "atom_type": "Cs"}, "2": {"label": "*3", "atom_type": "O2s"}, "8": {"label": "*1", "atom_type": "Cs"}, "9": {"label": "*0", "atom_type": "O2s"}, "12": {"label": "*2", "atom_type": "H0"}}

>  <type>  (10) 
unop_6

>  <geom_source>  (10) 
Heuristics

$$$$

     RDKit          3D

 17 15  0  0  0  0  0  0  0  0999 V2000
    0.3379    0.5081    2.9198 C   0  0  0  0  0  0  0  0  0  0  0  0
    1.5466   -0.0286    2.1756 C   0  0  0  0  0  0  0  0  0  0  0  0
    1.2186   -0.5622    0.9076 O   0  0  0  0  0  0  0  0  0  0  0  0
   -0.4169   -0.2709    3.0353 H   0  0  0  0  0  0  0  0  0  0  0  0
    0.6236    0.8665    3.9109 H   0  0  0  0  0  0  0  0  0  0  0  0
   -0.1133    1.3455    2.3806 H   0  0  0  0  0  0  0  0  0  0  0  0
    2.3098    0.7544    2.0811 H   0  0  0  0  0  0  0  0  0  0  0  0
    1.9962   -0.8525    2.7316 H   0  0  0  0  0  0  0  0  0  0  0  0
   -0.7913    0.5871    0.0738 C   0  0  0  0  0  3  0  0  0  0  0  0
   -0.7913    0.6451   -1.3391 O   0  0  0  0  0  0  0  0  0  0  0  0
   -0.7913   -0.6288   -1.8549 N   0  0  0  0  0  0  0  0  0  0  0  0
   -0.7913   -0.6288   -3.1185 C   0  0  0  0  0  0  0  0  0  0  0  0
    0.2793   -0.0250    0.5179 H   0  0  0  0  0  0  0  0  0  0  0  0
   -1.6835    0.0770    0.4439 H   0  0  0  0  0  0  0  0  0  0  0  0
   -0.7913    1.6220    0.4116 H   0  0  0  0  0  0  0  0  0  0  0  0
   -0.7913   -1.5959   -3.6033 H   0  0  0  0  0  0  0  0  0  0  0  0
   -0.7913    0.2877   -3.7046 H   0  0  0  0  0  0  0  0  0  0  0  0
  1  2  1  0
  1  4  1  0
  1  5  1  0
  1  6  1  0
  2  3  1  0
  2  7  1  0
  2  8  1  0
  3 13  1  0
  9 10  1  0
  9 14  1  0
  9 15  1  0
 10 11  1  0
 11 12  2  3
 12 16  1  0
 12 17  1  0
M  RAD  1   9   2
M  END
>  <reaction>  (11) 
rmg_rxn_15612

>  <mol_properties>  (11) 
{"1": {"label": "*4", "atom_type": "Cs"}, "2": {"label": "*3", "atom_type": "O2s"}, "8": {"label": "*1", "atom_type": "Cs"}, "9": {"label": "*0", "atom_type": "O2s"}, "12": {"label": "*2", "atom_type": "H0"}}

>  <type>  (11) 
unop_7

>  <geom_source>  (11) 
Heuristics

$$$$

     RDKit          3D

 17 15  0  0  0  0  0  0  0  0999 V2000
    1.8376   -1.3723   -0.0879 C   0  0  0  0  0  0  0  0  0  0  0  0
    1.0310   -1.2526    1.1920 C   0  0  0  0  0  0  0  0  0  0  0  0
    1.0182    0.0625    1.7122 O   0  0  0  0  0  0  0  0  0  0  0  0
    2.8618   -1.0330    0.0725 H   0  0  0  0  0  0  0  0  0  0  0  0
    1.8634   -2.4085   -0.4314 H   0  0  0  0  0  0  0  0  0  0  0  0
    1.3971   -0.7683   -0.8858 H   0  0  0  0  0  0  0  0  0  0  0  0
    0.0079   -1.6147    1.0284 H   0  0  0  0  0  0  0  0  0  0  0  0
    1.4716   -1.8718    1.9745 H   0  0  0  0  0  0  0  0  0  0  0  0
   -0.9917    1.2118    0.8784 C   0  0  0  0  0  3  0  0  0  0  0  0
   -0.9917    1.2697   -0.5345 O   0  0  0  0  0  0  0  0  0  0  0  0
   -0.9917   -0.0042   -1.0502 N   0  0  0  0  0  0  0  0  0  0  0  0
   -0.9917   -0.0042   -2.3138 C   0  0  0  0  0  0  0  0  0  0  0  0
    0.0789    0.5996    1.3225 H   0  0  0  0  0  0  0  0  0  0  0  0
   -1.8839    0.7016    1.2485 H   0  0  0  0  0  0  0  0  0  0  0  0
   -0.9917    2.2467    1.2162 H   0  0  0  0  0  0  0  0  0  0  0  0
   -0.9917   -0.9713   -2.7987 H   0  0  0  0  0  0  0  0  0  0  0  0
   -0.9917    0.9123   -2.9000 H   0  0  0  0  0  0  0  0  0  0  0  0
  1  2  1  0
  1  4  1  0
  1  5  1  0
  1  6  1  0
  2  3  1  0
  2  7  1  0
  2  8  1  0
  3 13  1  0
  9 10  1  0
  9 14  1  0
  9 15  1  0
 10 11  1  0
 11 12  2  3
 12 16  1  0
 12 17  1  0
M  RAD  1   9   2
M  END
>  <reaction>  (12) 
rmg_rxn_15612

>  <mol_properties>  (12) 
{"1": {"label": "*4", "atom_type": "Cs"}, "2": {"label": "*3", "atom_type": "O2s"}, "8": {"label": "*1", "atom_type": "Cs"}, "9": {"label": "*0", "atom_type": "O2s"}, "12": {"label": "*2", "atom_type": "H0"}}

>  <type>  (12) 
unop_8

>  <geom_source>  (12) 
Heuristics

$$$$

     RDKit          3D

 17 15  0  0  0  0  0  0  0  0999 V2000
    1.9795    1.1605   -0.6254 C   0  0  0  0  0  0  0  0  0  0  0  0
    2.3476   -0.1155    0.1325 C   0  0  0  0  0  0  0  0  0  0  0  0
    1.3215   -0.6207    0.9068 O   0  0  0  0  0  0  0  0  0  0  0  0
    1.2024    0.9545   -1.3588 H   0  0  0  0  0  0  0  0  0  0  0  0
    1.6100    1.9131    0.0675 H   0  0  0  0  0  0  0  0  0  0  0  0
    2.8522    1.5514   -1.1410 H   0  0  0  0  0  0  0  0  0  0  0  0
    2.7207   -0.8767   -0.5738 H   0  0  0  0  0  0  0  0  0  0  0  0
    3.1599    0.1019    0.8401 H   0  0  0  0  0  0  0  0  0  0  0  0
   -0.6564   -1.3025   -0.4344 C   0  0  0  0  0  3  0  0  0  0  0  0
   -1.3016   -0.2008   -0.9416 O   0  0  0  0  0  0  0  0  0  0  0  0
   -2.0188    0.6250   -0.1478 N   0  0  0  0  0  0  0  0  0  0  0  0
   -1.9063    0.6027    1.1086 C   0  0  0  0  0  0  0  0  0  0  0  0
    0.4231   -0.9219    0.2540 H   0  0  0  0  0  0  0  0  0  0  0  0
   -0.2852   -1.8876   -1.2674 H   0  0  0  0  0  0  0  0  0  0  0  0
   -1.2203   -1.8717    0.3027 H   0  0  0  0  0  0  0  0  0  0  0  0
   -2.5260    1.3000    1.6448 H   0  0  0  0  0  0  0  0  0  0  0  0
   -1.2237   -0.0227    1.6776 H   0  0  0  0  0  0  0  0  0  0  0  0
  1  2  1  0
  1  4  1  0
  1  5  1  0
  1  6  1  0
  2  3  1  0
  2  7  1  0
  2  8  1  0
  3 13  1  0
  9 10  1  0
  9 14  1  0
  9 15  1  0
 10 11  1  0
 11 12  2  3
 12 16  1  0
 12 17  1  0
M  RAD  1   9   2
M  END
>  <reaction>  (13) 
rmg_rxn_15612

>  <mol_properties>  (13) 
{"1": {"label": "*4", "atom_type": "Cs"}, "2": {"label": "*3", "atom_type": "O2s"}, "8": {"label": "*1", "atom_type": "Cs"}, "9": {"label": "*0", "atom_type": "O2s"}, "12": {"label": "*2", "atom_type": "H0"}}

>  <type>  (13) 
unop_9

>  <geom_source>  (13) 
Heuristics

$$$$

     RDKit          3D

 17 15  0  0  0  0  0  0  0  0999 V2000
    0.0487   -0.9653    2.8393 C   0  0  0  0  0  0  0  0  0  0  0  0
    1.2772   -0.2487    2.3101 C   0  0  0  0  0  0  0  0  0  0  0  0
    1.3306   -0.2204    0.8971 O   0  0  0  0  0  0  0  0  0  0  0  0
    0.0036   -1.9839    2.4516 H   0  0  0  0  0  0  0  0  0  0  0  0
    0.0677   -1.0081    3.9302 H   0  0  0  0  0  0  0  0  0  0  0  0
   -0.8660   -0.4447    2.5428 H   0  0  0  0  0  0  0  0  0  0  0  0
    1.3268    0.7681    2.7203 H   0  0  0  0  0  0  0  0  0  0  0  0
    2.1824   -0.7690    2.6261 H   0  0  0  0  0  0  0  0  0  0  0  0
   -0.6794    0.9289    0.0633 C   0  0  0  0  0  3  0  0  0  0  0  0
   -0.6794    0.9868   -1.3495 O   0  0  0  0  0  0  0  0  0  0  0  0
   -0.6794   -0.2871   -1.8653 N   0  0  0  0  0  0  0  0  0  0  0  0
   -0.6794   -0.2871   -3.1289 C   0  0  0  0  0  0  0  0  0  0  0  0
    0.3912    0.3167    0.5075 H   0  0  0  0  0  0  0  0  0  0  0  0
   -1.5715    0.4187    0.4335 H   0  0  0  0  0  0  0  0  0  0  0  0
   -0.6794    1.9638    0.4012 H   0  0  0  0  0  0  0  0  0  0  0  0
   -0.6794   -1.2541   -3.6137 H   0  0  0  0  0  0  0  0  0  0  0  0
   -0.6794    0.6294   -3.7150 H   0  0  0  0  0  0  0  0  0  0  0  0
  1  2  1  0
  1  4  1  0
  1  5  1  0
  1  6  1  0
  2  3  1  0
  2  7  1  0
  2  8  1  0
  3 13  1  0
  9 10  1  0
  9 14  1  0
  9 15  1  0
 10 11  1  0
 11 12  2  3
 12 16  1  0
 12 17  1  0
M  RAD  1   9   2
M  END
>  <reaction>  (14) 
rmg_rxn_15612

>  <mol_properties>  (14) 
{"1": {"label": "*4", "atom_type": "Cs"}, "2": {"label": "*3", "atom_type": "O2s"}, "8": {"label": "*1", "atom_type": "Cs"}, "9": {"label": "*0", "atom_type": "O2s"}, "12": {"label": "*2", "atom_type": "H0"}}

>  <type>  (14) 
unop_10

>  <geom_source>  (14) 
Heuristics

$$$$

     RDKit          3D

 17 15  0  0  0  0  0  0  0  0999 V2000
    1.9733    1.1623    0.6276 C   0  0  0  0  0  0  0  0  0  0  0  0
    2.3464   -0.1140   -0.1276 C   0  0  0  0  0  0  0  0  0  0  0  0
    1.3248   -0.6202   -0.9072 O   0  0  0  0  0  0  0  0  0  0  0  0
    1.6055    1.9135   -0.0677 H   0  0  0  0  0  0  0  0  0  0  0  0
    1.1937    0.9560    1.3581 H   0  0  0  0  0  0  0  0  0  0  0  0
    2.8434    1.5550    1.1462 H   0  0  0  0  0  0  0  0  0  0  0  0
    3.1624    0.1036   -0.8309 H   0  0  0  0  0  0  0  0  0  0  0  0
    2.7161   -0.8745    0.5811 H   0  0  0  0  0  0  0  0  0  0  0  0
   -0.6579   -1.3075    0.4240 C   0  0  0  0  0  3  0  0  0  0  0  0
   -1.3019   -0.2088    0.9393 O   0  0  0  0  0  0  0  0  0  0  0  0
   -2.0165    0.6248    0.1513 N   0  0  0  0  0  0  0  0  0  0  0  0
   -1.9024    0.6125   -1.1051 C   0  0  0  0  0  0  0  0  0  0  0  0
    0.4240   -0.9239   -0.2590 H   0  0  0  0  0  0  0  0  0  0  0  0
   -1.2216   -1.8693   -0.3189 H   0  0  0  0  0  0  0  0  0  0  0  0
   -0.2895   -1.9003    1.2527 H   0  0  0  0  0  0  0  0  0  0  0  0
   -2.5203    1.3152   -1.6363 H   0  0  0  0  0  0  0  0  0  0  0  0
   -1.2205   -0.0096   -1.6784 H   0  0  0  0  0  0  0  0  0  0  0  0
  1  2  1  0
  1  4  1  0
  1  5  1  0
  1  6  1  0
  2  3  1  0
  2  7  1  0
  2  8  1  0
  3 13  1  0
  9 10  1  0
  9 14  1  0
  9 15  1  0
 10 11  1  0
 11 12  2  3
 12 16  1  0
 12 17  1  0
M  RAD  1   9   2
M  END
>  <reaction>  (15) 
rmg_rxn_15612

>  <mol_properties>  (15) 
{"1": {"label": "*4", "atom_type": "Cs"}, "2": {"label": "*3", "atom_type": "O2s"}, "8": {"label": "*1", "atom_type": "Cs"}, "9": {"label": "*0", "atom_type": "O2s"}, "12": {"label": "*2", "atom_type": "H0"}}

>  <type>  (15) 
unop_11

>  <geom_source>  (15) 
Heuristics

$$$$

     RDKit          3D

 17 15  0  0  0  0  0  0  0  0999 V2000
    1.4288   -2.0090    0.4702 C   0  0  0  0  0  0  0  0  0  0  0  0
    0.8524   -1.2008    1.6180 C   0  0  0  0  0  0  0  0  0  0  0  0
    1.1365    0.1807    1.5141 O   0  0  0  0  0  0  0  0  0  0  0  0
    2.5076   -1.8620    0.4030 H   0  0  0  0  0  0  0  0  0  0  0  0
    1.2301   -3.0735    0.6107 H   0  0  0  0  0  0  0  0  0  0  0  0
    0.9819   -1.7102   -0.4819 H   0  0  0  0  0  0  0  0  0  0  0  0
   -0.2296   -1.3695    1.6923 H   0  0  0  0  0  0  0  0  0  0  0  0
    1.2947   -1.5196    2.5628 H   0  0  0  0  0  0  0  0  0  0  0  0
   -0.8734    1.3300    0.6803 C   0  0  0  0  0  3  0  0  0  0  0  0
   -0.8734    1.3879   -0.7326 O   0  0  0  0  0  0  0  0  0  0  0  0
   -0.8734    0.1140   -1.2483 N   0  0  0  0  0  0  0  0  0  0  0  0
   -0.8734    0.1140   -2.5119 C   0  0  0  0  0  0  0  0  0  0  0  0
    0.1972    0.7178    1.1244 H   0  0  0  0  0  0  0  0  0  0  0  0
   -1.7655    0.8198    1.0504 H   0  0  0  0  0  0  0  0  0  0  0  0
   -0.8734    2.3649    1.0181 H   0  0  0  0  0  0  0  0  0  0  0  0
   -0.8734   -0.8530   -2.9967 H   0  0  0  0  0  0  0  0  0  0  0  0
   -0.8734    1.0305   -3.0981 H   0  0  0  0  0  0  0  0  0  0  0  0
  1  2  1  0
  1  4  1  0
  1  5  1  0
  1  6  1  0
  2  3  1  0
  2  7  1  0
  2  8  1  0
  3 13  1  0
  9 10  1  0
  9 14  1  0
  9 15  1  0
 10 11  1  0
 11 12  2  3
 12 16  1  0
 12 17  1  0
M  RAD  1   9   2
M  END
>  <reaction>  (16) 
rmg_rxn_15612

>  <mol_properties>  (16) 
{"1": {"label": "*4", "atom_type": "Cs"}, "2": {"label": "*3", "atom_type": "O2s"}, "8": {"label": "*1", "atom_type": "Cs"}, "9": {"label": "*0", "atom_type": "O2s"}, "12": {"label": "*2", "atom_type": "H0"}}

>  <type>  (16) 
unop_12

>  <geom_source>  (16) 
Heuristics

$$$$

     RDKit          3D

 17 15  0  0  0  0  0  0  0  0999 V2000
    1.9855   -1.1626   -0.6187 C   0  0  0  0  0  0  0  0  0  0  0  0
    2.3492    0.1179    0.1339 C   0  0  0  0  0  0  0  0  0  0  0  0
    1.3208    0.6234    0.9049 O   0  0  0  0  0  0  0  0  0  0  0  0
    1.6178   -1.9131    0.0773 H   0  0  0  0  0  0  0  0  0  0  0  0
    1.2084   -0.9621   -1.3534 H   0  0  0  0  0  0  0  0  0  0  0  0
    2.8599   -1.5530   -1.1319 H   0  0  0  0  0  0  0  0  0  0  0  0
    3.1616   -0.0940    0.8431 H   0  0  0  0  0  0  0  0  0  0  0  0
    2.7206    0.8771   -0.5754 H   0  0  0  0  0  0  0  0  0  0  0  0
   -0.6549    1.2974   -0.4435 C   0  0  0  0  0  3  0  0  0  0  0  0
   -1.3012    0.1931   -0.9436 O   0  0  0  0  0  0  0  0  0  0  0  0
   -2.0223   -0.6246   -0.1449 N   0  0  0  0  0  0  0  0  0  0  0  0
   -1.9122   -0.5931    1.1114 C   0  0  0  0  0  0  0  0  0  0  0  0
    0.4231    0.9203    0.2493 H   0  0  0  0  0  0  0  0  0  0  0  0
   -1.2190    1.8731    0.2884 H   0  0  0  0  0  0  0  0  0  0  0  0
   -0.2812    1.8756   -1.2802 H   0  0  0  0  0  0  0  0  0  0  0  0
   -2.5350   -1.2844    1.6517 H   0  0  0  0  0  0  0  0  0  0  0  0
   -1.2290    0.0347    1.6770 H   0  0  0  0  0  0  0  0  0  0  0  0
  1  2  1  0
  1  4  1  0
  1  5  1  0
  1  6  1  0
  2  3  1  0
  2  7  1  0
  2  8  1  0
  3 13  1  0
  9 10  1  0
  9 14  1  0
  9 15  1  0
 10 11  1  0
 11 12  2  3
 12 16  1  0
 12 17  1  0
M  RAD  1   9   2
M  END
>  <reaction>  (17) 
rmg_rxn_15612

>  <mol_properties>  (17) 
{"1": {"label": "*4", "atom_type": "Cs"}, "2": {"label": "*3", "atom_type": "O2s"}, "8": {"label": "*1", "atom_type": "Cs"}, "9": {"label": "*0", "atom_type": "O2s"}, "12": {"label": "*2", "atom_type": "H0"}}

>  <type>  (17) 
unop_13

>  <geom_source>  (17) 
Heuristics

$$$$

     RDKit          3D

 17 15  0  0  0  0  0  0  0  0999 V2000
    0.9789   -2.2500    1.2440 C   0  0  0  0  0  0  0  0  0  0  0  0
    0.8259   -0.9540    2.0185 C   0  0  0  0  0  0  0  0  0  0  0  0
    1.2327    0.1799    1.2777 O   0  0  0  0  0  0  0  0  0  0  0  0
    2.0110   -2.3794    0.9154 H   0  0  0  0  0  0  0  0  0  0  0  0
    0.7009   -3.1046    1.8643 H   0  0  0  0  0  0  0  0  0  0  0  0
    0.3344   -2.2564    0.3609 H   0  0  0  0  0  0  0  0  0  0  0  0
   -0.2099   -0.8406    2.3633 H   0  0  0  0  0  0  0  0  0  0  0  0
    1.4618   -0.9672    2.9048 H   0  0  0  0  0  0  0  0  0  0  0  0
   -0.7772    1.3293    0.4439 C   0  0  0  0  0  3  0  0  0  0  0  0
   -0.7773    1.3872   -0.9690 O   0  0  0  0  0  0  0  0  0  0  0  0
   -0.7773    0.1133   -1.4848 N   0  0  0  0  0  0  0  0  0  0  0  0
   -0.7773    0.1133   -2.7484 C   0  0  0  0  0  0  0  0  0  0  0  0
    0.2934    0.7171    0.8880 H   0  0  0  0  0  0  0  0  0  0  0  0
   -1.6694    0.8191    0.8140 H   0  0  0  0  0  0  0  0  0  0  0  0
   -0.7773    2.3641    0.7817 H   0  0  0  0  0  0  0  0  0  0  0  0
   -0.7773   -0.8538   -3.2332 H   0  0  0  0  0  0  0  0  0  0  0  0
   -0.7773    1.0298   -3.3345 H   0  0  0  0  0  0  0  0  0  0  0  0
  1  2  1  0
  1  4  1  0
  1  5  1  0
  1  6  1  0
  2  3  1  0
  2  7  1  0
  2  8  1  0
  3 13  1  0
  9 10  1  0
  9 14  1  0
  9 15  1  0
 10 11  1  0
 11 12  2  3
 12 16  1  0
 12 17  1  0
M  RAD  1   9   2
M  END
>  <reaction>  (18) 
rmg_rxn_15612

>  <mol_properties>  (18) 
{"1": {"label": "*4", "atom_type": "Cs"}, "2": {"label": "*3", "atom_type": "O2s"}, "8": {"label": "*1", "atom_type": "Cs"}, "9": {"label": "*0", "atom_type": "O2s"}, "12": {"label": "*2", "atom_type": "H0"}}

>  <type>  (18) 
unop_14

>  <geom_source>  (18) 
Heuristics

$$$$

     RDKit          3D

 17 15  0  0  0  0  0  0  0  0999 V2000
    1.9840    1.1638   -0.6185 C   0  0  0  0  0  0  0  0  0  0  0  0
    2.3487   -0.1177    0.1317 C   0  0  0  0  0  0  0  0  0  0  0  0
    1.3222   -0.6234    0.9049 O   0  0  0  0  0  0  0  0  0  0  0  0
    2.8569    1.5535   -1.1347 H   0  0  0  0  0  0  0  0  0  0  0  0
    1.2039    0.9651   -1.3505 H   0  0  0  0  0  0  0  0  0  0  0  0
    1.6198    1.9144    0.0793 H   0  0  0  0  0  0  0  0  0  0  0  0
    2.7179   -0.8764   -0.5795 H   0  0  0  0  0  0  0  0  0  0  0  0
    3.1631    0.0926    0.8390 H   0  0  0  0  0  0  0  0  0  0  0  0
   -0.6556   -1.2995   -0.4395 C   0  0  0  0  0  3  0  0  0  0  0  0
   -1.3011   -0.1961   -0.9427 O   0  0  0  0  0  0  0  0  0  0  0  0
   -2.0212    0.6249   -0.1466 N   0  0  0  0  0  0  0  0  0  0  0  0
   -1.9119    0.5965    1.1099 C   0  0  0  0  0  0  0  0  0  0  0  0
    0.4231   -0.9212    0.2515 H   0  0  0  0  0  0  0  0  0  0  0  0
   -0.2829   -1.8805   -1.2746 H   0  0  0  0  0  0  0  0  0  0  0  0
   -1.2200   -1.8723    0.2944 H   0  0  0  0  0  0  0  0  0  0  0  0
   -2.5332    1.2910    1.6478 H   0  0  0  0  0  0  0  0  0  0  0  0
   -1.2298   -0.0304    1.6776 H   0  0  0  0  0  0  0  0  0  0  0  0
  1  2  1  0
  1  4  1  0
  1  5  1  0
  1  6  1  0
  2  3  1  0
  2  7  1  0
  2  8  1  0
  3 13  1  0
  9 10  1  0
  9 14  1  0
  9 15  1  0
 10 11  1  0
 11 12  2  3
 12 16  1  0
 12 17  1  0
M  RAD  1   9   2
M  END
>  <reaction>  (19) 
rmg_rxn_15612

>  <mol_properties>  (19) 
{"1": {"label": "*4", "atom_type": "Cs"}, "2": {"label": "*3", "atom_type": "O2s"}, "8": {"label": "*1", "atom_type": "Cs"}, "9": {"label": "*0", "atom_type": "O2s"}, "12": {"label": "*2", "atom_type": "H0"}}

>  <type>  (19) 
unop_15

>  <geom_source>  (19) 
Heuristics

$$$$

     RDKit          3D

 17 15  0  0  0  0  0  0  0  0999 V2000
    1.4063    1.5694    1.5629 C   0  0  0  0  0  0  0  0  0  0  0  0
    1.9403    0.1498    1.5138 C   0  0  0  0  0  0  0  0  0  0  0  0
    0.9239   -0.8129    1.3139 O   0  0  0  0  0  0  0  0  0  0  0  0
    0.6517    1.6672    2.3445 H   0  0  0  0  0  0  0  0  0  0  0  0
    2.2123    2.2775    1.7659 H   0  0  0  0  0  0  0  0  0  0  0  0
    0.9504    1.8491    0.6092 H   0  0  0  0  0  0  0  0  0  0  0  0
    2.7132    0.0641    0.7393 H   0  0  0  0  0  0  0  0  0  0  0  0
    2.4061   -0.1106    2.4652 H   0  0  0  0  0  0  0  0  0  0  0  0
   -1.0861    0.3364    0.4801 C   0  0  0  0  0  3  0  0  0  0  0  0
   -1.0861    0.3943   -0.9328 O   0  0  0  0  0  0  0  0  0  0  0  0
   -1.0861   -0.8795   -1.4485 N   0  0  0  0  0  0  0  0  0  0  0  0
   -1.0861   -0.8795   -2.7121 C   0  0  0  0  0  0  0  0  0  0  0  0
   -0.0155   -0.2758    0.9242 H   0  0  0  0  0  0  0  0  0  0  0  0
   -1.9782   -0.1738    0.8502 H   0  0  0  0  0  0  0  0  0  0  0  0
   -1.0861    1.3713    0.8179 H   0  0  0  0  0  0  0  0  0  0  0  0
   -1.0861   -1.8466   -3.1970 H   0  0  0  0  0  0  0  0  0  0  0  0
   -1.0861    0.0369   -3.2983 H   0  0  0  0  0  0  0  0  0  0  0  0
  1  2  1  0
  1  4  1  0
  1  5  1  0
  1  6  1  0
  2  3  1  0
  2  7  1  0
  2  8  1  0
  3 13  1  0
  9 10  1  0
  9 14  1  0
  9 15  1  0
 10 11  1  0
 11 12  2  3
 12 16  1  0
 12 17  1  0
M  RAD  1   9   2
M  END
>  <reaction>  (20) 
rmg_rxn_15612

>  <mol_properties>  (20) 
{"1": {"label": "*4", "atom_type": "Cs"}, "2": {"label": "*3", "atom_type": "O2s"}, "8": {"label": "*1", "atom_type": "Cs"}, "9": {"label": "*0", "atom_type": "O2s"}, "12": {"label": "*2", "atom_type": "H0"}}

>  <type>  (20) 
unop_16

>  <geom_source>  (20) 
Heuristics

$$$$

     RDKit          3D

 17 15  0  0  0  0  0  0  0  0999 V2000
    1.9773    1.1656    0.6194 C   0  0  0  0  0  0  0  0  0  0  0  0
    2.3475   -0.1157   -0.1284 C   0  0  0  0  0  0  0  0  0  0  0  0
    1.3246   -0.6243   -0.9047 O   0  0  0  0  0  0  0  0  0  0  0  0
    1.6116    1.9138   -0.0801 H   0  0  0  0  0  0  0  0  0  0  0  0
    1.1969    0.9654    1.3508 H   0  0  0  0  0  0  0  0  0  0  0  0
    2.8482    1.5591    1.1363 H   0  0  0  0  0  0  0  0  0  0  0  0
    3.1639    0.0959   -0.8332 H   0  0  0  0  0  0  0  0  0  0  0  0
    2.7159   -0.8730    0.5846 H   0  0  0  0  0  0  0  0  0  0  0  0
   -0.6562   -1.3027    0.4340 C   0  0  0  0  0  3  0  0  0  0  0  0
   -1.3007   -0.2005    0.9414 O   0  0  0  0  0  0  0  0  0  0  0  0
   -2.0187    0.6249    0.1481 N   0  0  0  0  0  0  0  0  0  0  0  0
   -1.9085    0.6017   -1.1084 C   0  0  0  0  0  0  0  0  0  0  0  0
    0.4241   -0.9233   -0.2539 H   0  0  0  0  0  0  0  0  0  0  0  0
   -1.2205   -1.8716   -0.3029 H   0  0  0  0  0  0  0  0  0  0  0  0
   -0.2852   -1.8878    1.2670 H   0  0  0  0  0  0  0  0  0  0  0  0
   -2.5294    1.2984   -1.6440 H   0  0  0  0  0  0  0  0  0  0  0  0
   -1.2276   -0.0246   -1.6784 H   0  0  0  0  0  0  0  0  0  0  0  0
  1  2  1  0
  1  4  1  0
  1  5  1  0
  1  6  1  0
  2  3  1  0
  2  7  1  0
  2  8  1  0
  3 13  1  0
  9 10  1  0
  9 14  1  0
  9 15  1  0
 10 11  1  0
 11 12  2  3
 12 16  1  0
 12 17  1  0
M  RAD  1   9   2
M  END
>  <reaction>  (21) 
rmg_rxn_15612

>  <mol_properties>  (21) 
{"1": {"label": "*4", "atom_type": "Cs"}, "2": {"label": "*3", "atom_type": "O2s"}, "8": {"label": "*1", "atom_type": "Cs"}, "9": {"label": "*0", "atom_type": "O2s"}, "12": {"label": "*2", "atom_type": "H0"}}

>  <type>  (21) 
unop_17

>  <geom_source>  (21) 
Heuristics

$$$$

     RDKit          3D

 17 15  0  0  0  0  0  0  0  0999 V2000
    2.0811   -0.4813   -0.2978 C   0  0  0  0  0  0  0  0  0  0  0  0
    1.3162   -1.1004    0.8574 C   0  0  0  0  0  0  0  0  0  0  0  0
    0.9118   -0.1481    1.8216 O   0  0  0  0  0  0  0  0  0  0  0  0
    2.9539    0.0610    0.0685 H   0  0  0  0  0  0  0  0  0  0  0  0
    2.4167   -1.2520   -0.9947 H   0  0  0  0  0  0  0  0  0  0  0  0
    1.4512    0.2183   -0.8538 H   0  0  0  0  0  0  0  0  0  0  0  0
    0.4515   -1.6611    0.4799 H   0  0  0  0  0  0  0  0  0  0  0  0
    1.9507   -1.8075    1.3936 H   0  0  0  0  0  0  0  0  0  0  0  0
   -1.0981    1.0012    0.9878 C   0  0  0  0  0  3  0  0  0  0  0  0
   -1.0981    1.0591   -0.4251 O   0  0  0  0  0  0  0  0  0  0  0  0
   -1.0981   -0.2148   -0.9408 N   0  0  0  0  0  0  0  0  0  0  0  0
   -1.0981   -0.2148   -2.2044 C   0  0  0  0  0  0  0  0  0  0  0  0
   -0.0275    0.3890    1.4319 H   0  0  0  0  0  0  0  0  0  0  0  0
   -1.9902    0.4910    1.3579 H   0  0  0  0  0  0  0  0  0  0  0  0
   -1.0981    2.0361    1.3256 H   0  0  0  0  0  0  0  0  0  0  0  0
   -1.0981   -1.1818   -2.6892 H   0  0  0  0  0  0  0  0  0  0  0  0
   -1.0981    0.7017   -2.7906 H   0  0  0  0  0  0  0  0  0  0  0  0
  1  2  1  0
  1  4  1  0
  1  5  1  0
  1  6  1  0
  2  3  1  0
  2  7  1  0
  2  8  1  0
  3 13  1  0
  9 10  1  0
  9 14  1  0
  9 15  1  0
 10 11  1  0
 11 12  2  3
 12 16  1  0
 12 17  1  0
M  RAD  1   9   2
M  END
>  <reaction>  (22) 
rmg_rxn_15612

>  <mol_properties>  (22) 
{"1": {"label": "*4", "atom_type": "Cs"}, "2": {"label": "*3", "atom_type": "O2s"}, "8": {"label": "*1", "atom_type": "Cs"}, "9": {"label": "*0", "atom_type": "O2s"}, "12": {"label": "*2", "atom_type": "H0"}}

>  <type>  (22) 
unop_18

>  <geom_source>  (22) 
Heuristics

$$$$

     RDKit          3D

 17 15  0  0  0  0  0  0  0  0999 V2000
    1.6988    1.4286    0.8245 C   0  0  0  0  0  0  0  0  0  0  0  0
    1.9931   -0.0329    1.1075 C   0  0  0  0  0  0  0  0  0  0  0  0
    0.8540   -0.7480    1.5445 O   0  0  0  0  0  0  0  0  0  0  0  0
    1.2805    1.9125    1.7081 H   0  0  0  0  0  0  0  0  0  0  0  0
    2.6103    1.9565    0.5365 H   0  0  0  0  0  0  0  0  0  0  0  0
    0.9819    1.5318    0.0053 H   0  0  0  0  0  0  0  0  0  0  0  0
    2.4324   -0.5078    0.2208 H   0  0  0  0  0  0  0  0  0  0  0  0
    2.7209   -0.1212    1.9152 H   0  0  0  0  0  0  0  0  0  0  0  0
   -1.1560    0.4013    0.7107 C   0  0  0  0  0  3  0  0  0  0  0  0
   -1.1560    0.4592   -0.7022 O   0  0  0  0  0  0  0  0  0  0  0  0
   -1.1560   -0.8147   -1.2179 N   0  0  0  0  0  0  0  0  0  0  0  0
   -1.1560   -0.8147   -2.4815 C   0  0  0  0  0  0  0  0  0  0  0  0
   -0.0854   -0.2109    1.1548 H   0  0  0  0  0  0  0  0  0  0  0  0
   -2.0481   -0.1089    1.0808 H   0  0  0  0  0  0  0  0  0  0  0  0
   -1.1560    1.4362    1.0485 H   0  0  0  0  0  0  0  0  0  0  0  0
   -1.1560   -1.7818   -2.9664 H   0  0  0  0  0  0  0  0  0  0  0  0
   -1.1560    0.1018   -3.0677 H   0  0  0  0  0  0  0  0  0  0  0  0
  1  2  1  0
  1  4  1  0
  1  5  1  0
  1  6  1  0
  2  3  1  0
  2  7  1  0
  2  8  1  0
  3 13  1  0
  9 10  1  0
  9 14  1  0
  9 15  1  0
 10 11  1  0
 11 12  2  3
 12 16  1  0
 12 17  1  0
M  RAD  1   9   2
M  END
>  <reaction>  (23) 
rmg_rxn_15612

>  <mol_properties>  (23) 
{"1": {"label": "*4", "atom_type": "Cs"}, "2": {"label": "*3", "atom_type": "O2s"}, "8": {"label": "*1", "atom_type": "Cs"}, "9": {"label": "*0", "atom_type": "O2s"}, "12": {"label": "*2", "atom_type": "H0"}}

>  <type>  (23) 
unop_19

>  <geom_source>  (23) 
Heuristics

$$$$

     RDKit          3D

 17 15  0  0  0  0  0  0  0  0999 V2000
    0.4942   -2.0076    2.0854 C   0  0  0  0  0  0  0  0  0  0  0  0
    0.9779   -0.5820    2.2762 C   0  0  0  0  0  0  0  0  0  0  0  0
    1.3002    0.0566    1.0562 O   0  0  0  0  0  0  0  0  0  0  0  0
    1.2410   -2.5964    1.5511 H   0  0  0  0  0  0  0  0  0  0  0  0
    0.3017   -2.4815    3.0502 H   0  0  0  0  0  0  0  0  0  0  0  0
   -0.4362   -2.0316    1.5116 H   0  0  0  0  0  0  0  0  0  0  0  0
    0.2306   -0.0013    2.8321 H   0  0  0  0  0  0  0  0  0  0  0  0
    1.8973   -0.5713    2.8632 H   0  0  0  0  0  0  0  0  0  0  0  0
   -0.7097    1.2059    0.2224 C   0  0  0  0  0  3  0  0  0  0  0  0
   -0.7097    1.2638   -1.1905 O   0  0  0  0  0  0  0  0  0  0  0  0
   -0.7097   -0.0100   -1.7062 N   0  0  0  0  0  0  0  0  0  0  0  0
   -0.7097   -0.0100   -2.9698 C   0  0  0  0  0  0  0  0  0  0  0  0
    0.3609    0.5938    0.6665 H   0  0  0  0  0  0  0  0  0  0  0  0
   -1.6018    0.6957    0.5925 H   0  0  0  0  0  0  0  0  0  0  0  0
   -0.7097    2.2408    0.5602 H   0  0  0  0  0  0  0  0  0  0  0  0
   -0.7097   -0.9771   -3.4546 H   0  0  0  0  0  0  0  0  0  0  0  0
   -0.7097    0.9064   -3.5560 H   0  0  0  0  0  0  0  0  0  0  0  0
  1  2  1  0
  1  4  1  0
  1  5  1  0
  1  6  1  0
  2  3  1  0
  2  7  1  0
  2  8  1  0
  3 13  1  0
  9 10  1  0
  9 14  1  0
  9 15  1  0
 10 11  1  0
 11 12  2  3
 12 16  1  0
 12 17  1  0
M  RAD  1   9   2
M  END
>  <reaction>  (24) 
rmg_rxn_15612

>  <mol_properties>  (24) 
{"1": {"label": "*4", "atom_type": "Cs"}, "2": {"label": "*3", "atom_type": "O2s"}, "8": {"label": "*1", "atom_type": "Cs"}, "9": {"label": "*0", "atom_type": "O2s"}, "12": {"label": "*2", "atom_type": "H0"}}

>  <type>  (24) 
unop_20

>  <geom_source>  (24) 
Heuristics

$$$$

     RDKit          3D

 17 15  0  0  0  0  0  0  0  0999 V2000
    2.0657    0.3940   -0.1492 C   0  0  0  0  0  0  0  0  0  0  0  0
    1.6366   -0.7798    0.7116 C   0  0  0  0  0  0  0  0  0  0  0  0
    0.8508   -0.3893    1.8208 O   0  0  0  0  0  0  0  0  0  0  0  0
    2.6131    1.1253    0.4469 H   0  0  0  0  0  0  0  0  0  0  0  0
    2.7084    0.0583   -0.9656 H   0  0  0  0  0  0  0  0  0  0  0  0
    1.1988    0.8921   -0.5918 H   0  0  0  0  0  0  0  0  0  0  0  0
    1.1045   -1.5207    0.1012 H   0  0  0  0  0  0  0  0  0  0  0  0
    2.5109   -1.2770    1.1338 H   0  0  0  0  0  0  0  0  0  0  0  0
   -1.1591    0.7600    0.9870 C   0  0  0  0  0  3  0  0  0  0  0  0
   -1.1591    0.8179   -0.4259 O   0  0  0  0  0  0  0  0  0  0  0  0
   -1.1591   -0.4560   -0.9417 N   0  0  0  0  0  0  0  0  0  0  0  0
   -1.1591   -0.4560   -2.2053 C   0  0  0  0  0  0  0  0  0  0  0  0
   -0.0885    0.1478    1.4311 H   0  0  0  0  0  0  0  0  0  0  0  0
   -2.0512    0.2498    1.3571 H   0  0  0  0  0  0  0  0  0  0  0  0
   -1.1591    1.7949    1.3248 H   0  0  0  0  0  0  0  0  0  0  0  0
   -1.1591   -1.4230   -2.6901 H   0  0  0  0  0  0  0  0  0  0  0  0
   -1.1591    0.4605   -2.7914 H   0  0  0  0  0  0  0  0  0  0  0  0
  1  2  1  0
  1  4  1  0
  1  5  1  0
  1  6  1  0
  2  3  1  0
  2  7  1  0
  2  8  1  0
  3 13  1  0
  9 10  1  0
  9 14  1  0
  9 15  1  0
 10 11  1  0
 11 12  2  3
 12 16  1  0
 12 17  1  0
M  RAD  1   9   2
M  END
>  <reaction>  (25) 
rmg_rxn_15612

>  <mol_properties>  (25) 
{"1": {"label": "*4", "atom_type": "Cs"}, "2": {"label": "*3", "atom_type": "O2s"}, "8": {"label": "*1", "atom_type": "Cs"}, "9": {"label": "*0", "atom_type": "O2s"}, "12": {"label": "*2", "atom_type": "H0"}}

>  <type>  (25) 
unop_21

>  <geom_source>  (25) 
Heuristics

$$$$

     RDKit          3D

 17 15  0  0  0  0  0  0  0  0999 V2000
    1.9751   -1.1610    0.6280 C   0  0  0  0  0  0  0  0  0  0  0  0
    2.3466    0.1144   -0.1293 C   0  0  0  0  0  0  0  0  0  0  0  0
    1.3235    0.6195   -0.9076 O   0  0  0  0  0  0  0  0  0  0  0  0
    2.8461   -1.5525    1.1462 H   0  0  0  0  0  0  0  0  0  0  0  0
    1.1962   -0.9542    1.3590 H   0  0  0  0  0  0  0  0  0  0  0  0
    1.6071   -1.9135   -0.0658 H   0  0  0  0  0  0  0  0  0  0  0  0
    2.7174    0.8759    0.5778 H   0  0  0  0  0  0  0  0  0  0  0  0
    3.1614   -0.1037   -0.8338 H   0  0  0  0  0  0  0  0  0  0  0  0
   -0.6574    1.3062    0.4266 C   0  0  0  0  0  3  0  0  0  0  0  0
   -1.3019    0.2069    0.9399 O   0  0  0  0  0  0  0  0  0  0  0  0
   -2.0171   -0.6247    0.1504 N   0  0  0  0  0  0  0  0  0  0  0  0
   -1.9031   -0.6103   -1.1059 C   0  0  0  0  0  0  0  0  0  0  0  0
    0.4235    0.9229   -0.2581 H   0  0  0  0  0  0  0  0  0  0  0  0
   -0.2880    1.8969    1.2563 H   0  0  0  0  0  0  0  0  0  0  0  0
   -1.2212    1.8700   -0.3147 H   0  0  0  0  0  0  0  0  0  0  0  0
   -2.5214   -1.3115   -1.6385 H   0  0  0  0  0  0  0  0  0  0  0  0
   -1.2205    0.0124   -1.6780 H   0  0  0  0  0  0  0  0  0  0  0  0
  1  2  1  0
  1  4  1  0
  1  5  1  0
  1  6  1  0
  2  3  1  0
  2  7  1  0
  2  8  1  0
  3 13  1  0
  9 10  1  0
  9 14  1  0
  9 15  1  0
 10 11  1  0
 11 12  2  3
 12 16  1  0
 12 17  1  0
M  RAD  1   9   2
M  END
>  <reaction>  (26) 
rmg_rxn_15612

>  <mol_properties>  (26) 
{"1": {"label": "*4", "atom_type": "Cs"}, "2": {"label": "*3", "atom_type": "O2s"}, "8": {"label": "*1", "atom_type": "Cs"}, "9": {"label": "*0", "atom_type": "O2s"}, "12": {"label": "*2", "atom_type": "H0"}}

>  <type>  (26) 
unop_22

>  <geom_source>  (26) 
Heuristics

$$$$

     RDKit          3D

 17 15  0  0  0  0  0  0  0  0999 V2000
   -1.2100   -1.0475    0.1474 O   0  0  0  0  0  0  0  0  0  0  0  0
    2.1485   -0.6534   -0.2338 O   0  0  0  0  0  0  0  0  0  0  0  0
    2.4905    0.5894    0.2468 N   0  0  0  0  0  0  0  0  0  0  0  0
   -1.6627    0.2333   -0.1822 C   0  0  0  0  0  0  0  0  0  0  0  0
   -3.1449    0.3508    0.1368 C   0  0  0  0  0  0  0  0  0  0  0  0
    1.1211   -1.4010    0.3926 C   0  0  0  0  0  3  0  0  0  0  0  0
    3.4270    1.2767   -0.3187 C   0  0  0  0  0  0  0  0  0  0  0  0
   -1.0983    0.9912    0.4033 H   0  0  0  0  0  0  0  0  0  0  0  0
   -1.5031    0.4183   -1.2666 H   0  0  0  0  0  0  0  0  0  0  0  0
   -3.3158    0.1758    1.2203 H   0  0  0  0  0  0  0  0  0  0  0  0
   -3.7205   -0.3969   -0.4492 H   0  0  0  0  0  0  0  0  0  0  0  0
   -3.5050    1.3681   -0.1249 H   0  0  0  0  0  0  0  0  0  0  0  0
    3.9560    0.8849   -1.1784 H   0  0  0  0  0  0  0  0  0  0  0  0
    3.6868    2.2524    0.0684 H   0  0  0  0  0  0  0  0  0  0  0  0
    0.9591   -2.3453   -0.1665 H   0  0  0  0  0  0  0  0  0  0  0  0
    1.4134   -1.6391    1.4368 H   0  0  0  0  0  0  0  0  0  0  0  0
   -0.0423   -1.0578   -0.1321 H   0  0  0  0  0  0  0  0  0  0  0  0
  1  4  1  0
  1 17  1  0
  2  6  1  0
  2  3  1  0
  3  7  2  3
  4  5  1  0
  4  8  1  0
  4  9  1  0
  5 10  1  0
  5 11  1  0
  5 12  1  0
  6 15  1  0
  6 16  1  0
  7 13  1  0
  7 14  1  0
M  RAD  1   6   2
M  END
>  <reaction>  (27) 
rmg_rxn_15612

>  <mol_properties>  (27) 
{"1": {"label": "*4", "atom_type": "Cs"}, "2": {"label": "*3", "atom_type": "O2s"}, "8": {"label": "*1", "atom_type": "Cs"}, "9": {"label": "*0", "atom_type": "O2s"}, "12": {"label": "*2", "atom_type": "H0"}}

>  <type>  (27) 
unop_23

>  <geom_source>  (27) 
AutoTST

$$$$

     RDKit          3D

 17 15  0  0  0  0  0  0  0  0999 V2000
    1.8987    1.0315    0.2456 C   0  0  0  0  0  0  0  0  0  0  0  0
    1.8889   -0.3788    0.8058 C   0  0  0  0  0  0  0  0  0  0  0  0
    0.8342   -0.5986    1.7220 O   0  0  0  0  0  0  0  0  0  0  0  0
    1.9574    1.7631    1.0526 H   0  0  0  0  0  0  0  0  0  0  0  0
    2.7530    1.1762   -0.4189 H   0  0  0  0  0  0  0  0  0  0  0  0
    0.9913    1.2296   -0.3314 H   0  0  0  0  0  0  0  0  0  0  0  0
    1.8503   -1.1094   -0.0123 H   0  0  0  0  0  0  0  0  0  0  0  0
    2.8060   -0.5684    1.3653 H   0  0  0  0  0  0  0  0  0  0  0  0
   -1.1757    0.5507    0.8882 C   0  0  0  0  0  3  0  0  0  0  0  0
   -1.1758    0.6086   -0.5247 O   0  0  0  0  0  0  0  0  0  0  0  0
   -1.1758   -0.6652   -1.0404 N   0  0  0  0  0  0  0  0  0  0  0  0
   -1.1758   -0.6652   -2.3040 C   0  0  0  0  0  0  0  0  0  0  0  0
   -0.1051   -0.0615    1.3323 H   0  0  0  0  0  0  0  0  0  0  0  0
   -2.0678    0.0405    1.2583 H   0  0  0  0  0  0  0  0  0  0  0  0
   -1.1758    1.5856    1.2260 H   0  0  0  0  0  0  0  0  0  0  0  0
   -1.1758   -1.6323   -2.7889 H   0  0  0  0  0  0  0  0  0  0  0  0
   -1.1758    0.2512   -2.8902 H   0  0  0  0  0  0  0  0  0  0  0  0
  1  2  1  0
  1  4  1  0
  1  5  1  0
  1  6  1  0
  2  3  1  0
  2  7  1  0
  2  8  1  0
  3 13  1  0
  9 10  1  0
  9 14  1  0
  9 15  1  0
 10 11  1  0
 11 12  2  3
 12 16  1  0
 12 17  1  0
M  RAD  1   9   2
M  END
>  <reaction>  (28) 
rmg_rxn_15612

>  <mol_properties>  (28) 
{"1": {"label": "*4", "atom_type": "Cs"}, "2": {"label": "*3", "atom_type": "O2s"}, "8": {"label": "*1", "atom_type": "Cs"}, "9": {"label": "*0", "atom_type": "O2s"}, "12": {"label": "*2", "atom_type": "H0"}}

>  <type>  (28) 
unop_24

>  <geom_source>  (28) 
gaussian_log

$$$$
