
     RDKit          3D

  9  8  0  0  0  0  0  0  0  0999 V2000
    1.1303   -0.2933   -0.7510 C   0  0  0  0  0  0  0  0  0  0  0  0
    0.2866    0.4560   -0.0588 C   0  0  0  0  0  0  0  0  0  0  0  0
   -0.9719   -0.0331    0.5823 C   0  0  0  0  0  0  0  0  0  0  0  0
    2.0274    0.1230   -1.1916 H   0  0  0  0  0  0  0  0  0  0  0  0
    0.9532   -1.3530   -0.9023 H   0  0  0  0  0  0  0  0  0  0  0  0
    0.5065    1.5132    0.0659 H   0  0  0  0  0  0  0  0  0  0  0  0
   -0.9526    0.1426    1.6610 H   0  0  0  0  0  0  0  0  0  0  0  0
   -1.1182   -1.1002    0.4106 H   0  0  0  0  0  0  0  0  0  0  0  0
   -1.8412    0.5010    0.1901 H   0  0  0  0  0  0  0  0  0  0  0  0
  1  2  2  3
  1  4  1  0
  1  5  1  0
  2  3  1  0
  2  6  1  0
  3  7  1  0
  3  8  1  0
  3  9  1  0
M  END
>  <reaction>  (1) 
rmg_rxn_354

>  <mol_properties>  (1) 
{"0": {"label": "donator", "atom_type": "Cd"}, "3": {"label": "d_hydrogen", "atom_type": "H0"}}

>  <type>  (1) 
r1h

$$$$

     RDKit          3D

 14 13  0  0  0  0  0  0  0  0999 V2000
    2.6194    0.1388   -0.2451 C   0  0  0  0  0  0  0  0  0  0  0  0
    1.2416   -0.4914   -0.3670 C   0  0  0  0  0  0  0  0  0  0  0  0
    0.9567   -1.8675    0.7732 S   0  0  0  0  0  0  0  0  0  0  0  0
    1.9992   -3.0673    0.1320 C   0  0  0  0  0  3  0  0  0  0  0  0
    2.1769   -4.3519    0.8615 C   0  0  0  0  0  0  0  0  0  0  0  0
    3.4009   -0.5920   -0.4552 H   0  0  0  0  0  0  0  0  0  0  0  0
    2.7219    0.9635   -0.9540 H   0  0  0  0  0  0  0  0  0  0  0  0
    2.7821    0.5262    0.7612 H   0  0  0  0  0  0  0  0  0  0  0  0
    1.0587   -0.8507   -1.3815 H   0  0  0  0  0  0  0  0  0  0  0  0
    0.4587    0.2313   -0.1333 H   0  0  0  0  0  0  0  0  0  0  0  0
    2.2677   -2.9922   -0.9152 H   0  0  0  0  0  0  0  0  0  0  0  0
    1.3745   -5.0711    0.6500 H   0  0  0  0  0  0  0  0  0  0  0  0
    3.1173   -4.8269    0.5747 H   0  0  0  0  0  0  0  0  0  0  0  0
    2.1945   -4.1971    1.9428 H   0  0  0  0  0  0  0  0  0  0  0  0
  1  2  1  0
  1  6  1  0
  1  7  1  0
  1  8  1  0
  2  3  1  0
  2  9  1  0
  2 10  1  0
  3  4  1  0
  4  5  1  0
  4 11  1  0
  5 12  1  0
  5 13  1  0
  5 14  1  0
M  RAD  1   4   2
M  END
>  <reaction>  (2) 
rmg_rxn_354

>  <mol_properties>  (2) 
{"3": {"label": "acceptor", "atom_type": "Cs"}}

>  <type>  (2) 
r2

$$$$

     RDKit          3D

 15 14  0  0  0  0  0  0  0  0999 V2000
   -2.0554    0.0723   -0.4910 C   0  0  0  0  0  0  0  0  0  0  0  0
   -0.7461   -0.6266   -0.8178 C   0  0  0  0  0  0  0  0  0  0  0  0
    0.3249    0.2591   -1.9782 S   0  0  0  0  0  0  0  0  0  0  0  0
   -0.7172    0.3642   -3.4551 C   0  0  0  0  0  0  0  0  0  0  0  0
   -1.1375   -0.9737   -4.0409 C   0  0  0  0  0  0  0  0  0  0  0  0
   -2.7005    0.1427   -1.3684 H   0  0  0  0  0  0  0  0  0  0  0  0
   -2.6016   -0.4848    0.2733 H   0  0  0  0  0  0  0  0  0  0  0  0
   -1.8758    1.0825   -0.1213 H   0  0  0  0  0  0  0  0  0  0  0  0
   -0.1320   -0.7246    0.0789 H   0  0  0  0  0  0  0  0  0  0  0  0
   -0.9254   -1.6374   -1.1879 H   0  0  0  0  0  0  0  0  0  0  0  0
   -1.5873    0.9874   -3.2422 H   0  0  0  0  0  0  0  0  0  0  0  0
   -0.1021    0.9161   -4.1678 H   0  0  0  0  0  0  0  0  0  0  0  0
   -1.7876   -1.5224   -3.3574 H   0  0  0  0  0  0  0  0  0  0  0  0
   -0.2676   -1.5962   -4.2534 H   0  0  0  0  0  0  0  0  0  0  0  0
   -1.6916   -0.8229   -4.9700 H   0  0  0  0  0  0  0  0  0  0  0  0
  1  2  1  0
  1  6  1  0
  1  7  1  0
  1  8  1  0
  2  3  1  0
  2  9  1  0
  2 10  1  0
  3  4  1  0
  4  5  1  0
  4 11  1  0
  4 12  1  0
  5 13  1  0
  5 14  1  0
  5 15  1  0
M  END
>  <reaction>  (3) 
rmg_rxn_354

>  <mol_properties>  (3) 
{"0": {"label": "a_hydrogen", "atom_type": "H0"}, "4": {"label": "acceptor", "atom_type": "Cs"}}

>  <type>  (3) 
r2h

$$$$

     RDKit          3D

 23 21  0  0  0  0  0  0  0  0999 V2000
    0.9200    0.8359   -1.3522 C   0  0  0  0  0  3  0  0  0  0  0  0
    0.3528   -0.2060   -1.9151 C   0  0  0  0  0  0  0  0  0  0  0  0
    0.7693   -0.8404   -3.2114 C   0  0  0  0  0  0  0  0  0  0  0  0
    0.2634    1.2445   -0.0989 H   0  0  0  0  0  0  0  0  0  0  0  0
    1.7602    1.4272   -1.7009 H   0  0  0  0  0  0  0  0  0  0  0  0
   -0.4950   -0.6662   -1.4062 H   0  0  0  0  0  0  0  0  0  0  0  0
    1.0419   -1.8873   -3.0558 H   0  0  0  0  0  0  0  0  0  0  0  0
    1.6206   -0.3237   -3.6548 H   0  0  0  0  0  0  0  0  0  0  0  0
   -0.0562   -0.8263   -3.9275 H   0  0  0  0  0  0  0  0  0  0  0  0
    0.8377   -1.3660    1.5953 C   0  0  0  0  0  0  0  0  0  0  0  0
   -0.2576   -0.6816    2.3961 C   0  0  0  0  0  0  0  0  0  0  0  0
   -1.4531    0.2578    1.4149 S   0  0  0  0  0  0  0  0  0  0  0  0
   -0.4526    1.6162    0.8431 C   0  0  0  0  0  0  0  0  0  0  0  0
   -1.2894    2.7518    0.2970 C   0  0  0  0  0  0  0  0  0  0  0  0
    1.4456   -0.6429    1.0516 H   0  0  0  0  0  0  0  0  0  0  0  0
    1.4930   -1.9308    2.2626 H   0  0  0  0  0  0  0  0  0  0  0  0
    0.4128   -2.0545    0.8641 H   0  0  0  0  0  0  0  0  0  0  0  0
    0.1660   -0.0105    3.1463 H   0  0  0  0  0  0  0  0  0  0  0  0
   -0.8619   -1.4172    2.9295 H   0  0  0  0  0  0  0  0  0  0  0  0
    0.2436    1.9358    1.6213 H   0  0  0  0  0  0  0  0  0  0  0  0
   -1.9081    3.2059    1.0738 H   0  0  0  0  0  0  0  0  0  0  0  0
   -0.6408    3.5229   -0.1222 H   0  0  0  0  0  0  0  0  0  0  0  0
   -1.9457    2.4006   -0.5014 H   0  0  0  0  0  0  0  0  0  0  0  0
  1  2  2  3
  1  5  1  0
  2  3  1  0
  2  6  1  0
  3  7  1  0
  3  8  1  0
  3  9  1  0
  4 13  1  0
 10 11  1  0
 10 15  1  0
 10 16  1  0
 10 17  1  0
 11 12  1  0
 11 18  1  0
 11 19  1  0
 12 13  1  0
 13 14  1  0
 13 20  1  0
 14 21  1  0
 14 22  1  0
 14 23  1  0
M  RAD  1   1   2
M  END
>  <reaction>  (4) 
rmg_rxn_354

>  <mol_properties>  (4) 
{"0": {"label": "*3", "atom_type": "Cd"}, "1": {"label": "*4", "atom_type": "Cd"}, "3": {"label": "*2", "atom_type": "H0"}, "11": {"label": "*0", "atom_type": "S2s"}, "12": {"label": "*1", "atom_type": "Cs"}}

>  <type>  (4) 
ts

$$$$

     RDKit          3D

 23 21  0  0  0  0  0  0  0  0999 V2000
   -0.3938   -0.2523   -2.1003 C   0  0  0  0  0  0  0  0  0  0  0  0
   -0.3938   -1.3346   -2.8624 C   0  0  0  0  0  0  0  0  0  0  0  0
   -0.3938   -1.3346   -4.3571 C   0  0  0  0  0  0  0  0  0  0  0  0
   -0.3938   -0.3339   -0.8035 H   0  0  0  0  0  0  0  0  0  0  0  0
   -0.3938    0.7434   -2.5312 H   0  0  0  0  0  0  0  0  0  0  0  0
   -0.3938   -2.3111   -2.3848 H   0  0  0  0  0  0  0  0  0  0  0  0
    0.4839   -1.8573   -4.7460 H   0  0  0  0  0  0  0  0  0  0  0  0
   -0.3938   -0.3194   -4.7558 H   0  0  0  0  0  0  0  0  0  0  0  0
   -1.2715   -1.8573   -4.7460 H   0  0  0  0  0  0  0  0  0  0  0  0
   -0.5084    2.3110    2.2955 C   0  0  0  0  0  0  0  0  0  0  0  0
    0.6172    1.3083    2.4888 C   0  0  0  0  0  0  0  0  0  0  0  0
    1.1293    0.4344    0.9881 S   0  0  0  0  0  0  0  0  0  0  0  0
   -0.3938   -0.4162    0.5034 C   0  0  0  0  0  3  0  0  0  0  0  0
   -0.9339   -1.3997    1.5283 C   0  0  0  0  0  0  0  0  0  0  0  0
   -1.4377    1.8173    2.0062 H   0  0  0  0  0  0  0  0  0  0  0  0
   -0.6996    2.8498    3.2261 H   0  0  0  0  0  0  0  0  0  0  0  0
   -0.2553    3.0360    1.5212 H   0  0  0  0  0  0  0  0  0  0  0  0
    0.3643    0.5826    3.2635 H   0  0  0  0  0  0  0  0  0  0  0  0
    1.5265    1.8145    2.8172 H   0  0  0  0  0  0  0  0  0  0  0  0
   -1.1515    0.3212    0.2333 H   0  0  0  0  0  0  0  0  0  0  0  0
   -1.2520   -0.8917    2.4403 H   0  0  0  0  0  0  0  0  0  0  0  0
   -1.8025   -1.9263    1.1267 H   0  0  0  0  0  0  0  0  0  0  0  0
   -0.1764   -2.1363    1.7981 H   0  0  0  0  0  0  0  0  0  0  0  0
  1  2  2  3
  1  4  1  0
  1  5  1  0
  2  3  1  0
  2  6  1  0
  3  7  1  0
  3  8  1  0
  3  9  1  0
 10 11  1  0
 10 15  1  0
 10 16  1  0
 10 17  1  0
 11 12  1  0
 11 18  1  0
 11 19  1  0
 12 13  1  0
 13 14  1  0
 13 20  1  0
 14 21  1  0
 14 22  1  0
 14 23  1  0
M  RAD  1  13   2
M  END
>  <reaction>  (5) 
rmg_rxn_354

>  <mol_properties>  (5) 
{"0": {"label": "*3", "atom_type": "Cd"}, "1": {"label": "*4", "atom_type": "Cd"}, "3": {"label": "*2", "atom_type": "H0"}, "11": {"label": "*0", "atom_type": "S2s"}, "12": {"label": "*1", "atom_type": "Cs"}}

>  <type>  (5) 
unop_1

>  <geom_source>  (5) 
Heuristics

$$$$

     RDKit          3D

 23 21  0  0  0  0  0  0  0  0999 V2000
   -0.4883    0.8424   -2.1171 C   0  0  0  0  0  0  0  0  0  0  0  0
   -0.4883   -0.2400   -2.8792 C   0  0  0  0  0  0  0  0  0  0  0  0
   -0.4883   -0.2400   -4.3739 C   0  0  0  0  0  0  0  0  0  0  0  0
   -0.4883    0.7607   -0.8204 H   0  0  0  0  0  0  0  0  0  0  0  0
   -0.4883    1.8380   -2.5481 H   0  0  0  0  0  0  0  0  0  0  0  0
   -0.4883   -1.2165   -2.4016 H   0  0  0  0  0  0  0  0  0  0  0  0
    0.3894   -0.7626   -4.7628 H   0  0  0  0  0  0  0  0  0  0  0  0
   -0.4883    0.7752   -4.7726 H   0  0  0  0  0  0  0  0  0  0  0  0
   -1.3660   -0.7626   -4.7628 H   0  0  0  0  0  0  0  0  0  0  0  0
    1.8108    0.5365    2.8008 C   0  0  0  0  0  0  0  0  0  0  0  0
    0.9010   -0.6534    2.5442 C   0  0  0  0  0  0  0  0  0  0  0  0
    0.3910   -0.8687    0.8203 S   0  0  0  0  0  0  0  0  0  0  0  0
   -0.4883    0.6785    0.4865 C   0  0  0  0  0  3  0  0  0  0  0  0
   -1.7005    0.9309    1.3677 C   0  0  0  0  0  0  0  0  0  0  0  0
    1.2977    1.4803    2.6088 H   0  0  0  0  0  0  0  0  0  0  0  0
    2.1359    0.5467    3.8435 H   0  0  0  0  0  0  0  0  0  0  0  0
    2.6943    0.4959    2.1629 H   0  0  0  0  0  0  0  0  0  0  0  0
    0.0166   -0.6131    3.1823 H   0  0  0  0  0  0  0  0  0  0  0  0
    1.4167   -1.5857    2.7805 H   0  0  0  0  0  0  0  0  0  0  0  0
    0.2125    1.5133    0.5388 H   0  0  0  0  0  0  0  0  0  0  0  0
   -1.4138    1.0673    2.4118 H   0  0  0  0  0  0  0  0  0  0  0  0
   -2.2180    1.8384    1.0489 H   0  0  0  0  0  0  0  0  0  0  0  0
   -2.4006    0.0964    1.3154 H   0  0  0  0  0  0  0  0  0  0  0  0
  1  2  2  3
  1  4  1  0
  1  5  1  0
  2  3  1  0
  2  6  1  0
  3  7  1  0
  3  8  1  0
  3  9  1  0
 10 11  1  0
 10 15  1  0
 10 16  1  0
 10 17  1  0
 11 12  1  0
 11 18  1  0
 11 19  1  0
 12 13  1  0
 13 14  1  0
 13 20  1  0
 14 21  1  0
 14 22  1  0
 14 23  1  0
M  RAD  1  13   2
M  END
>  <reaction>  (6) 
rmg_rxn_354

>  <mol_properties>  (6) 
{"0": {"label": "*3", "atom_type": "Cd"}, "1": {"label": "*4", "atom_type": "Cd"}, "3": {"label": "*2", "atom_type": "H0"}, "11": {"label": "*0", "atom_type": "S2s"}, "12": {"label": "*1", "atom_type": "Cs"}}

>  <type>  (6) 
unop_2

>  <geom_source>  (6) 
Heuristics

$$$$

     RDKit          3D

 23 21  0  0  0  0  0  0  0  0999 V2000
   -0.1017   -0.2972   -2.1642 C   0  0  0  0  0  0  0  0  0  0  0  0
   -0.1017   -1.3796   -2.9263 C   0  0  0  0  0  0  0  0  0  0  0  0
   -0.1017   -1.3796   -4.4210 C   0  0  0  0  0  0  0  0  0  0  0  0
   -0.1017   -0.3789   -0.8675 H   0  0  0  0  0  0  0  0  0  0  0  0
   -0.1017    0.6984   -2.5952 H   0  0  0  0  0  0  0  0  0  0  0  0
   -0.1017   -2.3561   -2.4488 H   0  0  0  0  0  0  0  0  0  0  0  0
    0.7760   -1.9022   -4.8099 H   0  0  0  0  0  0  0  0  0  0  0  0
   -0.1017   -0.3644   -4.8197 H   0  0  0  0  0  0  0  0  0  0  0  0
   -0.9794   -1.9022   -4.8099 H   0  0  0  0  0  0  0  0  0  0  0  0
   -1.4077    1.5457    2.6595 C   0  0  0  0  0  0  0  0  0  0  0  0
    0.0940    1.3161    2.6169 C   0  0  0  0  0  0  0  0  0  0  0  0
    0.7777    1.0319    0.9646 S   0  0  0  0  0  0  0  0  0  0  0  0
   -0.1017   -0.4611    0.4394 C   0  0  0  0  0  3  0  0  0  0  0  0
    0.1207   -1.6802    1.3192 C   0  0  0  0  0  0  0  0  0  0  0  0
   -1.9569    0.6550    2.3497 H   0  0  0  0  0  0  0  0  0  0  0  0
   -1.7248    1.7890    3.6760 H   0  0  0  0  0  0  0  0  0  0  0  0
   -1.6950    2.3663    2.0013 H   0  0  0  0  0  0  0  0  0  0  0  0
    0.3819    0.4949    3.2753 H   0  0  0  0  0  0  0  0  0  0  0  0
    0.6253    2.2020    2.9685 H   0  0  0  0  0  0  0  0  0  0  0  0
   -1.1658   -0.2403    0.3407 H   0  0  0  0  0  0  0  0  0  0  0  0
   -0.2881   -1.5304    2.3199 H   0  0  0  0  0  0  0  0  0  0  0  0
   -0.3760   -2.5529    0.8897 H   0  0  0  0  0  0  0  0  0  0  0  0
    1.1842   -1.9005    1.4178 H   0  0  0  0  0  0  0  0  0  0  0  0
  1  2  2  3
  1  4  1  0
  1  5  1  0
  2  3  1  0
  2  6  1  0
  3  7  1  0
  3  8  1  0
  3  9  1  0
 10 11  1  0
 10 15  1  0
 10 16  1  0
 10 17  1  0
 11 12  1  0
 11 18  1  0
 11 19  1  0
 12 13  1  0
 13 14  1  0
 13 20  1  0
 14 21  1  0
 14 22  1  0
 14 23  1  0
M  RAD  1  13   2
M  END
>  <reaction>  (7) 
rmg_rxn_354

>  <mol_properties>  (7) 
{"0": {"label": "*3", "atom_type": "Cd"}, "1": {"label": "*4", "atom_type": "Cd"}, "3": {"label": "*2", "atom_type": "H0"}, "11": {"label": "*0", "atom_type": "S2s"}, "12": {"label": "*1", "atom_type": "Cs"}}

>  <type>  (7) 
unop_3

>  <geom_source>  (7) 
Heuristics

$$$$

     RDKit          3D

 23 21  0  0  0  0  0  0  0  0999 V2000
    0.7087    0.4562   -2.0965 C   0  0  0  0  0  0  0  0  0  0  0  0
    0.7087   -0.6262   -2.8586 C   0  0  0  0  0  0  0  0  0  0  0  0
    0.7087   -0.6262   -4.3534 C   0  0  0  0  0  0  0  0  0  0  0  0
    0.7087    0.3746   -0.7998 H   0  0  0  0  0  0  0  0  0  0  0  0
    0.7087    1.4519   -2.5275 H   0  0  0  0  0  0  0  0  0  0  0  0
    0.7087   -1.6027   -2.3811 H   0  0  0  0  0  0  0  0  0  0  0  0
    1.5864   -1.1488   -4.7423 H   0  0  0  0  0  0  0  0  0  0  0  0
    0.7087    0.3891   -4.7520 H   0  0  0  0  0  0  0  0  0  0  0  0
   -0.1690   -1.1488   -4.7423 H   0  0  0  0  0  0  0  0  0  0  0  0
   -0.2484   -0.1494    3.5976 C   0  0  0  0  0  0  0  0  0  0  0  0
   -1.2736    0.0651    2.4964 C   0  0  0  0  0  0  0  0  0  0  0  0
   -0.8144   -0.6124    0.8813 S   0  0  0  0  0  0  0  0  0  0  0  0
    0.7087    0.2923    0.5071 C   0  0  0  0  0  3  0  0  0  0  0  0
    0.5543    1.8017    0.4215 C   0  0  0  0  0  0  0  0  0  0  0  0
    0.6771    0.3914    3.3926 H   0  0  0  0  0  0  0  0  0  0  0  0
   -0.6359    0.2144    4.5518 H   0  0  0  0  0  0  0  0  0  0  0  0
   -0.0057   -1.2073    3.7029 H   0  0  0  0  0  0  0  0  0  0  0  0
   -1.5166    1.1237    2.3905 H   0  0  0  0  0  0  0  0  0  0  0  0
   -2.2055   -0.4487    2.7377 H   0  0  0  0  0  0  0  0  0  0  0  0
    1.4801    0.0194    1.2291 H   0  0  0  0  0  0  0  0  0  0  0  0
    0.2810    2.2307    1.3870 H   0  0  0  0  0  0  0  0  0  0  0  0
    1.4958    2.2618    0.1134 H   0  0  0  0  0  0  0  0  0  0  0  0
   -0.2167    2.0740   -0.3001 H   0  0  0  0  0  0  0  0  0  0  0  0
  1  2  2  3
  1  4  1  0
  1  5  1  0
  2  3  1  0
  2  6  1  0
  3  7  1  0
  3  8  1  0
  3  9  1  0
 10 11  1  0
 10 15  1  0
 10 16  1  0
 10 17  1  0
 11 12  1  0
 11 18  1  0
 11 19  1  0
 12 13  1  0
 13 14  1  0
 13 20  1  0
 14 21  1  0
 14 22  1  0
 14 23  1  0
M  RAD  1  13   2
M  END
>  <reaction>  (8) 
rmg_rxn_354

>  <mol_properties>  (8) 
{"0": {"label": "*3", "atom_type": "Cd"}, "1": {"label": "*4", "atom_type": "Cd"}, "3": {"label": "*2", "atom_type": "H0"}, "11": {"label": "*0", "atom_type": "S2s"}, "12": {"label": "*1", "atom_type": "Cs"}}

>  <type>  (8) 
unop_4

>  <geom_source>  (8) 
Heuristics

$$$$

     RDKit          3D

 23 21  0  0  0  0  0  0  0  0999 V2000
    0.0122   -0.2386   -2.2184 C   0  0  0  0  0  0  0  0  0  0  0  0
    0.0122   -1.3210   -2.9805 C   0  0  0  0  0  0  0  0  0  0  0  0
    0.0122   -1.3210   -4.4752 C   0  0  0  0  0  0  0  0  0  0  0  0
    0.0122   -0.3202   -0.9217 H   0  0  0  0  0  0  0  0  0  0  0  0
    0.0122    0.7571   -2.6494 H   0  0  0  0  0  0  0  0  0  0  0  0
    0.0122   -2.2975   -2.5029 H   0  0  0  0  0  0  0  0  0  0  0  0
    0.8899   -1.8436   -4.8641 H   0  0  0  0  0  0  0  0  0  0  0  0
    0.0122   -0.3058   -4.8739 H   0  0  0  0  0  0  0  0  0  0  0  0
   -0.8655   -1.8436   -4.8641 H   0  0  0  0  0  0  0  0  0  0  0  0
   -1.2412    0.4365    3.2813 C   0  0  0  0  0  0  0  0  0  0  0  0
   -0.0259    1.1621    2.7280 C   0  0  0  0  0  0  0  0  0  0  0  0
    0.0122    1.3257    0.9252 S   0  0  0  0  0  0  0  0  0  0  0  0
    0.0122   -0.4025    0.3853 C   0  0  0  0  0  3  0  0  0  0  0  0
    1.1963   -1.2252    0.8655 C   0  0  0  0  0  0  0  0  0  0  0  0
   -1.2579   -0.6093    2.9700 H   0  0  0  0  0  0  0  0  0  0  0  0
   -1.2273    0.4530    4.3734 H   0  0  0  0  0  0  0  0  0  0  0  0
   -2.1642    0.9061    2.9394 H   0  0  0  0  0  0  0  0  0  0  0  0
    0.8979    0.6925    3.0698 H   0  0  0  0  0  0  0  0  0  0  0  0
   -0.0038    2.1940    3.0825 H   0  0  0  0  0  0  0  0  0  0  0  0
   -0.9306   -0.8723    0.6706 H   0  0  0  0  0  0  0  0  0  0  0  0
    1.1897   -1.3389    1.9509 H   0  0  0  0  0  0  0  0  0  0  0  0
    1.1626   -2.2268    0.4310 H   0  0  0  0  0  0  0  0  0  0  0  0
    2.1382   -0.7553    0.5803 H   0  0  0  0  0  0  0  0  0  0  0  0
  1  2  2  3
  1  4  1  0
  1  5  1  0
  2  3  1  0
  2  6  1  0
  3  7  1  0
  3  8  1  0
  3  9  1  0
 10 11  1  0
 10 15  1  0
 10 16  1  0
 10 17  1  0
 11 12  1  0
 11 18  1  0
 11 19  1  0
 12 13  1  0
 13 14  1  0
 13 20  1  0
 14 21  1  0
 14 22  1  0
 14 23  1  0
M  RAD  1  13   2
M  END
>  <reaction>  (9) 
rmg_rxn_354

>  <mol_properties>  (9) 
{"0": {"label": "*3", "atom_type": "Cd"}, "1": {"label": "*4", "atom_type": "Cd"}, "3": {"label": "*2", "atom_type": "H0"}, "11": {"label": "*0", "atom_type": "S2s"}, "12": {"label": "*1", "atom_type": "Cs"}}

>  <type>  (9) 
unop_5

>  <geom_source>  (9) 
Heuristics

$$$$

     RDKit          3D

 23 21  0  0  0  0  0  0  0  0999 V2000
    0.6575    0.0390   -2.0888 C   0  0  0  0  0  0  0  0  0  0  0  0
    0.6575   -1.0434   -2.8509 C   0  0  0  0  0  0  0  0  0  0  0  0
    0.6575   -1.0434   -4.3457 C   0  0  0  0  0  0  0  0  0  0  0  0
    0.6575   -0.0427   -0.7921 H   0  0  0  0  0  0  0  0  0  0  0  0
    0.6575    1.0346   -2.5198 H   0  0  0  0  0  0  0  0  0  0  0  0
    0.6575   -2.0199   -2.3734 H   0  0  0  0  0  0  0  0  0  0  0  0
    1.5352   -1.5660   -4.7346 H   0  0  0  0  0  0  0  0  0  0  0  0
    0.6575   -0.0282   -4.7443 H   0  0  0  0  0  0  0  0  0  0  0  0
   -0.2202   -1.5660   -4.7346 H   0  0  0  0  0  0  0  0  0  0  0  0
   -0.3055    0.2497    3.6123 C   0  0  0  0  0  0  0  0  0  0  0  0
   -1.1356    0.8176    2.4730 C   0  0  0  0  0  0  0  0  0  0  0  0
   -1.1012   -0.1520    0.9443 S   0  0  0  0  0  0  0  0  0  0  0  0
    0.6575   -0.1249    0.5148 C   0  0  0  0  0  3  0  0  0  0  0  0
    1.2387    1.2587    0.2752 C   0  0  0  0  0  0  0  0  0  0  0  0
    0.7595    0.2606    3.3745 H   0  0  0  0  0  0  0  0  0  0  0  0
   -0.4453    0.8461    4.5166 H   0  0  0  0  0  0  0  0  0  0  0  0
   -0.5934   -0.7797    3.8283 H   0  0  0  0  0  0  0  0  0  0  0  0
   -0.8478    1.8477    2.2564 H   0  0  0  0  0  0  0  0  0  0  0  0
   -2.1925    0.8370    2.7441 H   0  0  0  0  0  0  0  0  0  0  0  0
    1.2260   -0.6601    1.2772 H   0  0  0  0  0  0  0  0  0  0  0  0
    1.2305    1.8587    1.1867 H   0  0  0  0  0  0  0  0  0  0  0  0
    2.2764    1.1812   -0.0567 H   0  0  0  0  0  0  0  0  0  0  0  0
    0.6703    1.7932   -0.4867 H   0  0  0  0  0  0  0  0  0  0  0  0
  1  2  2  3
  1  4  1  0
  1  5  1  0
  2  3  1  0
  2  6  1  0
  3  7  1  0
  3  8  1  0
  3  9  1  0
 10 11  1  0
 10 15  1  0
 10 16  1  0
 10 17  1  0
 11 12  1  0
 11 18  1  0
 11 19  1  0
 12 13  1  0
 13 14  1  0
 13 20  1  0
 14 21  1  0
 14 22  1  0
 14 23  1  0
M  RAD  1  13   2
M  END
>  <reaction>  (10) 
rmg_rxn_354

>  <mol_properties>  (10) 
{"0": {"label": "*3", "atom_type": "Cd"}, "1": {"label": "*4", "atom_type": "Cd"}, "3": {"label": "*2", "atom_type": "H0"}, "11": {"label": "*0", "atom_type": "S2s"}, "12": {"label": "*1", "atom_type": "Cs"}}

>  <type>  (10) 
unop_6

>  <geom_source>  (10) 
Heuristics

$$$$

     RDKit          3D

 23 21  0  0  0  0  0  0  0  0999 V2000
    0.4005   -0.2328   -2.1133 C   0  0  0  0  0  0  0  0  0  0  0  0
    0.4005   -1.3152   -2.8753 C   0  0  0  0  0  0  0  0  0  0  0  0
    0.4005   -1.3152   -4.3701 C   0  0  0  0  0  0  0  0  0  0  0  0
    0.4005   -0.3145   -0.8165 H   0  0  0  0  0  0  0  0  0  0  0  0
    0.4005    0.7628   -2.5442 H   0  0  0  0  0  0  0  0  0  0  0  0
    0.4005   -2.2917   -2.3978 H   0  0  0  0  0  0  0  0  0  0  0  0
    1.2782   -1.8378   -4.7590 H   0  0  0  0  0  0  0  0  0  0  0  0
    0.4005   -0.3000   -4.7687 H   0  0  0  0  0  0  0  0  0  0  0  0
   -0.4772   -1.8378   -4.7590 H   0  0  0  0  0  0  0  0  0  0  0  0
   -0.1772    0.3276    3.6214 C   0  0  0  0  0  0  0  0  0  0  0  0
   -0.6315    1.2670    2.5165 C   0  0  0  0  0  0  0  0  0  0  0  0
   -1.1226    0.4538    0.9751 S   0  0  0  0  0  0  0  0  0  0  0  0
    0.4005   -0.3967    0.4904 C   0  0  0  0  0  3  0  0  0  0  0  0
    1.5948    0.5119    0.2503 C   0  0  0  0  0  0  0  0  0  0  0  0
    0.7428   -0.1928    3.3501 H   0  0  0  0  0  0  0  0  0  0  0  0
    0.0216    0.8885    4.5373 H   0  0  0  0  0  0  0  0  0  0  0  0
   -0.9402   -0.4223    3.8332 H   0  0  0  0  0  0  0  0  0  0  0  0
    0.1318    2.0174    2.3042 H   0  0  0  0  0  0  0  0  0  0  0  0
   -1.5286    1.8085    2.8213 H   0  0  0  0  0  0  0  0  0  0  0  0
    0.6375   -1.1658    1.2274 H   0  0  0  0  0  0  0  0  0  0  0  0
    1.9093    1.0094    1.1693 H   0  0  0  0  0  0  0  0  0  0  0  0
    2.4447   -0.0685   -0.1154 H   0  0  0  0  0  0  0  0  0  0  0  0
    1.3575    1.2804   -0.4862 H   0  0  0  0  0  0  0  0  0  0  0  0
  1  2  2  3
  1  4  1  0
  1  5  1  0
  2  3  1  0
  2  6  1  0
  3  7  1  0
  3  8  1  0
  3  9  1  0
 10 11  1  0
 10 15  1  0
 10 16  1  0
 10 17  1  0
 11 12  1  0
 11 18  1  0
 11 19  1  0
 12 13  1  0
 13 14  1  0
 13 20  1  0
 14 21  1  0
 14 22  1  0
 14 23  1  0
M  RAD  1  13   2
M  END
>  <reaction>  (11) 
rmg_rxn_354

>  <mol_properties>  (11) 
{"0": {"label": "*3", "atom_type": "Cd"}, "1": {"label": "*4", "atom_type": "Cd"}, "3": {"label": "*2", "atom_type": "H0"}, "11": {"label": "*0", "atom_type": "S2s"}, "12": {"label": "*1", "atom_type": "Cs"}}

>  <type>  (11) 
unop_7

>  <geom_source>  (11) 
Heuristics

$$$$

     RDKit          3D

 23 21  0  0  0  0  0  0  0  0999 V2000
   -0.6611    0.0190   -2.0755 C   0  0  0  0  0  0  0  0  0  0  0  0
   -0.6611   -1.0634   -2.8376 C   0  0  0  0  0  0  0  0  0  0  0  0
   -0.6611   -1.0634   -4.3323 C   0  0  0  0  0  0  0  0  0  0  0  0
   -0.6611   -0.0627   -0.7787 H   0  0  0  0  0  0  0  0  0  0  0  0
   -0.6611    1.0146   -2.5064 H   0  0  0  0  0  0  0  0  0  0  0  0
   -0.6611   -2.0399   -2.3600 H   0  0  0  0  0  0  0  0  0  0  0  0
    0.2166   -1.5860   -4.7212 H   0  0  0  0  0  0  0  0  0  0  0  0
   -0.6611   -0.0482   -4.7310 H   0  0  0  0  0  0  0  0  0  0  0  0
   -1.5388   -1.5860   -4.7212 H   0  0  0  0  0  0  0  0  0  0  0  0
    0.6701    2.2909    2.2476 C   0  0  0  0  0  0  0  0  0  0  0  0
    1.1432    0.8602    2.4445 C   0  0  0  0  0  0  0  0  0  0  0  0
    1.0976   -0.1720    0.9576 S   0  0  0  0  0  0  0  0  0  0  0  0
   -0.6611   -0.1449    0.5282 C   0  0  0  0  0  3  0  0  0  0  0  0
   -1.5901   -0.7087    1.5905 C   0  0  0  0  0  0  0  0  0  0  0  0
   -0.3900    2.3294    1.9914 H   0  0  0  0  0  0  0  0  0  0  0  0
    0.8059    2.8646    3.1671 H   0  0  0  0  0  0  0  0  0  0  0  0
    1.2291    2.7795    1.4488 H   0  0  0  0  0  0  0  0  0  0  0  0
    0.5840    0.3710    3.2437 H   0  0  0  0  0  0  0  0  0  0  0  0
    2.1936    0.8432    2.7399 H   0  0  0  0  0  0  0  0  0  0  0  0
   -0.9526    0.8703    0.2541 H   0  0  0  0  0  0  0  0  0  0  0  0
   -1.5800   -0.0980    2.4949 H   0  0  0  0  0  0  0  0  0  0  0  0
   -2.6180   -0.7309    1.2216 H   0  0  0  0  0  0  0  0  0  0  0  0
   -1.2984   -1.7233    1.8643 H   0  0  0  0  0  0  0  0  0  0  0  0
  1  2  2  3
  1  4  1  0
  1  5  1  0
  2  3  1  0
  2  6  1  0
  3  7  1  0
  3  8  1  0
  3  9  1  0
 10 11  1  0
 10 15  1  0
 10 16  1  0
 10 17  1  0
 11 12  1  0
 11 18  1  0
 11 19  1  0
 12 13  1  0
 13 14  1  0
 13 20  1  0
 14 21  1  0
 14 22  1  0
 14 23  1  0
M  RAD  1  13   2
M  END
>  <reaction>  (12) 
rmg_rxn_354

>  <mol_properties>  (12) 
{"0": {"label": "*3", "atom_type": "Cd"}, "1": {"label": "*4", "atom_type": "Cd"}, "3": {"label": "*2", "atom_type": "H0"}, "11": {"label": "*0", "atom_type": "S2s"}, "12": {"label": "*1", "atom_type": "Cs"}}

>  <type>  (12) 
unop_8

>  <geom_source>  (12) 
Heuristics

$$$$

     RDKit          3D

 23 21  0  0  0  0  0  0  0  0999 V2000
    0.4674    0.8527   -2.1240 C   0  0  0  0  0  0  0  0  0  0  0  0
    0.4674   -0.2296   -2.8861 C   0  0  0  0  0  0  0  0  0  0  0  0
    0.4674   -0.2296   -4.3808 C   0  0  0  0  0  0  0  0  0  0  0  0
    0.4674    0.7711   -0.8273 H   0  0  0  0  0  0  0  0  0  0  0  0
    0.4674    1.8484   -2.5550 H   0  0  0  0  0  0  0  0  0  0  0  0
    0.4674   -1.2061   -2.4086 H   0  0  0  0  0  0  0  0  0  0  0  0
    1.3451   -0.7523   -4.7697 H   0  0  0  0  0  0  0  0  0  0  0  0
    0.4674    0.7856   -4.7795 H   0  0  0  0  0  0  0  0  0  0  0  0
   -0.4103   -0.7523   -4.7697 H   0  0  0  0  0  0  0  0  0  0  0  0
    0.3201   -0.5220    3.5085 C   0  0  0  0  0  0  0  0  0  0  0  0
   -0.8565   -0.6755    2.5590 C   0  0  0  0  0  0  0  0  0  0  0  0
   -0.4119   -0.8583    0.8134 S   0  0  0  0  0  0  0  0  0  0  0  0
    0.4674    0.6888    0.4796 C   0  0  0  0  0  3  0  0  0  0  0  0
   -0.3533    1.9512    0.6856 C   0  0  0  0  0  0  0  0  0  0  0  0
    0.8620    0.4076    3.3260 H   0  0  0  0  0  0  0  0  0  0  0  0
   -0.0287   -0.5000    4.5433 H   0  0  0  0  0  0  0  0  0  0  0  0
    1.0212   -1.3498    3.3968 H   0  0  0  0  0  0  0  0  0  0  0  0
   -1.5583    0.1527    2.6704 H   0  0  0  0  0  0  0  0  0  0  0  0
   -1.4102   -1.5889    2.7826 H   0  0  0  0  0  0  0  0  0  0  0  0
    1.3851    0.7197    1.0693 H   0  0  0  0  0  0  0  0  0  0  0  0
   -0.6287    2.0819    1.7335 H   0  0  0  0  0  0  0  0  0  0  0  0
    0.2219    2.8300    0.3860 H   0  0  0  0  0  0  0  0  0  0  0  0
   -1.2704    1.9199    0.0962 H   0  0  0  0  0  0  0  0  0  0  0  0
  1  2  2  3
  1  4  1  0
  1  5  1  0
  2  3  1  0
  2  6  1  0
  3  7  1  0
  3  8  1  0
  3  9  1  0
 10 11  1  0
 10 15  1  0
 10 16  1  0
 10 17  1  0
 11 12  1  0
 11 18  1  0
 11 19  1  0
 12 13  1  0
 13 14  1  0
 13 20  1  0
 14 21  1  0
 14 22  1  0
 14 23  1  0
M  RAD  1  13   2
M  END
>  <reaction>  (13) 
rmg_rxn_354

>  <mol_properties>  (13) 
{"0": {"label": "*3", "atom_type": "Cd"}, "1": {"label": "*4", "atom_type": "Cd"}, "3": {"label": "*2", "atom_type": "H0"}, "11": {"label": "*0", "atom_type": "S2s"}, "12": {"label": "*1", "atom_type": "Cs"}}

>  <type>  (13) 
unop_9

>  <geom_source>  (13) 
Heuristics

$$$$

     RDKit          3D

 23 21  0  0  0  0  0  0  0  0999 V2000
   -0.7216    0.4391   -2.0851 C   0  0  0  0  0  0  0  0  0  0  0  0
   -0.7216   -0.6433   -2.8472 C   0  0  0  0  0  0  0  0  0  0  0  0
   -0.7216   -0.6433   -4.3419 C   0  0  0  0  0  0  0  0  0  0  0  0
   -0.7216    0.3575   -0.7884 H   0  0  0  0  0  0  0  0  0  0  0  0
   -0.7216    1.4348   -2.5161 H   0  0  0  0  0  0  0  0  0  0  0  0
   -0.7216   -1.6198   -2.3697 H   0  0  0  0  0  0  0  0  0  0  0  0
    0.1561   -1.1659   -4.7308 H   0  0  0  0  0  0  0  0  0  0  0  0
   -0.7216    0.3720   -4.7406 H   0  0  0  0  0  0  0  0  0  0  0  0
   -1.5994   -1.1659   -4.7308 H   0  0  0  0  0  0  0  0  0  0  0  0
    1.5720    1.5964    2.4304 C   0  0  0  0  0  0  0  0  0  0  0  0
    1.3012    0.1016    2.4720 C   0  0  0  0  0  0  0  0  0  0  0  0
    0.8014   -0.6295    0.8928 S   0  0  0  0  0  0  0  0  0  0  0  0
   -0.7216    0.2752    0.5185 C   0  0  0  0  0  3  0  0  0  0  0  0
   -1.8301    0.1191    1.5464 C   0  0  0  0  0  0  0  0  0  0  0  0
    0.6645    2.1608    2.2097 H   0  0  0  0  0  0  0  0  0  0  0  0
    1.9448    1.9407    3.3976 H   0  0  0  0  0  0  0  0  0  0  0  0
    2.3137    1.8367    1.6679 H   0  0  0  0  0  0  0  0  0  0  0  0
    0.5590   -0.1393    3.2349 H   0  0  0  0  0  0  0  0  0  0  0  0
    2.2095   -0.4434    2.7342 H   0  0  0  0  0  0  0  0  0  0  0  0
   -0.4876    1.3283    0.3541 H   0  0  0  0  0  0  0  0  0  0  0  0
   -1.5498    0.5573    2.5058 H   0  0  0  0  0  0  0  0  0  0  0  0
   -2.7357    0.6265    1.2067 H   0  0  0  0  0  0  0  0  0  0  0  0
   -2.0636   -0.9334    1.7106 H   0  0  0  0  0  0  0  0  0  0  0  0
  1  2  2  3
  1  4  1  0
  1  5  1  0
  2  3  1  0
  2  6  1  0
  3  7  1  0
  3  8  1  0
  3  9  1  0
 10 11  1  0
 10 15  1  0
 10 16  1  0
 10 17  1  0
 11 12  1  0
 11 18  1  0
 11 19  1  0
 12 13  1  0
 13 14  1  0
 13 20  1  0
 14 21  1  0
 14 22  1  0
 14 23  1  0
M  RAD  1  13   2
M  END
>  <reaction>  (14) 
rmg_rxn_354

>  <mol_properties>  (14) 
{"0": {"label": "*3", "atom_type": "Cd"}, "1": {"label": "*4", "atom_type": "Cd"}, "3": {"label": "*2", "atom_type": "H0"}, "11": {"label": "*0", "atom_type": "S2s"}, "12": {"label": "*1", "atom_type": "Cs"}}

>  <type>  (14) 
unop_10

>  <geom_source>  (14) 
Heuristics

$$$$

     RDKit          3D

 23 21  0  0  0  0  0  0  0  0999 V2000
    0.1195   -0.2835   -2.1734 C   0  0  0  0  0  0  0  0  0  0  0  0
    0.1195   -1.3659   -2.9355 C   0  0  0  0  0  0  0  0  0  0  0  0
    0.1195   -1.3659   -4.4302 C   0  0  0  0  0  0  0  0  0  0  0  0
    0.1195   -0.3651   -0.8767 H   0  0  0  0  0  0  0  0  0  0  0  0
    0.1195    0.7122   -2.6044 H   0  0  0  0  0  0  0  0  0  0  0  0
    0.1195   -2.3424   -2.4580 H   0  0  0  0  0  0  0  0  0  0  0  0
    0.9972   -1.8885   -4.8191 H   0  0  0  0  0  0  0  0  0  0  0  0
    0.1195   -0.3506   -4.8289 H   0  0  0  0  0  0  0  0  0  0  0  0
   -0.7582   -1.8885   -4.8191 H   0  0  0  0  0  0  0  0  0  0  0  0
   -0.4134    0.1434    3.5971 C   0  0  0  0  0  0  0  0  0  0  0  0
   -0.1320    1.2868    2.6364 C   0  0  0  0  0  0  0  0  0  0  0  0
   -0.7598    1.0456    0.9554 S   0  0  0  0  0  0  0  0  0  0  0  0
    0.1195   -0.4474    0.4302 C   0  0  0  0  0  3  0  0  0  0  0  0
    1.6345   -0.3285    0.4156 C   0  0  0  0  0  0  0  0  0  0  0  0
    0.1112   -0.7663    3.2999 H   0  0  0  0  0  0  0  0  0  0  0  0
   -0.0760    0.4023    4.6031 H   0  0  0  0  0  0  0  0  0  0  0  0
   -1.4804   -0.0789    3.6360 H   0  0  0  0  0  0  0  0  0  0  0  0
    0.9356    1.5094    2.5971 H   0  0  0  0  0  0  0  0  0  0  0  0
   -0.6309    2.1978    2.9714 H   0  0  0  0  0  0  0  0  0  0  0  0
   -0.1996   -1.2917    1.0436 H   0  0  0  0  0  0  0  0  0  0  0  0
    2.0337   -0.1862    1.4213 H   0  0  0  0  0  0  0  0  0  0  0  0
    2.0819   -1.2393    0.0114 H   0  0  0  0  0  0  0  0  0  0  0  0
    1.9530    0.5154   -0.1973 H   0  0  0  0  0  0  0  0  0  0  0  0
  1  2  2  3
  1  4  1  0
  1  5  1  0
  2  3  1  0
  2  6  1  0
  3  7  1  0
  3  8  1  0
  3  9  1  0
 10 11  1  0
 10 15  1  0
 10 16  1  0
 10 17  1  0
 11 12  1  0
 11 18  1  0
 11 19  1  0
 12 13  1  0
 13 14  1  0
 13 20  1  0
 14 21  1  0
 14 22  1  0
 14 23  1  0
M  RAD  1  13   2
M  END
>  <reaction>  (15) 
rmg_rxn_354

>  <mol_properties>  (15) 
{"0": {"label": "*3", "atom_type": "Cd"}, "1": {"label": "*4", "atom_type": "Cd"}, "3": {"label": "*2", "atom_type": "H0"}, "11": {"label": "*0", "atom_type": "S2s"}, "12": {"label": "*1", "atom_type": "Cs"}}

>  <type>  (15) 
unop_11

>  <geom_source>  (15) 
Heuristics

$$$$

     RDKit          3D

 23 21  0  0  0  0  0  0  0  0999 V2000
   -0.0122    1.0192   -2.1392 C   0  0  0  0  0  0  0  0  0  0  0  0
   -0.0122   -0.0632   -2.9013 C   0  0  0  0  0  0  0  0  0  0  0  0
   -0.0122   -0.0632   -4.3960 C   0  0  0  0  0  0  0  0  0  0  0  0
   -0.0122    0.9375   -0.8425 H   0  0  0  0  0  0  0  0  0  0  0  0
   -0.0122    2.0148   -2.5702 H   0  0  0  0  0  0  0  0  0  0  0  0
   -0.0122   -1.0397   -2.4238 H   0  0  0  0  0  0  0  0  0  0  0  0
    0.8655   -0.5858   -4.7849 H   0  0  0  0  0  0  0  0  0  0  0  0
   -0.0122    0.9520   -4.7947 H   0  0  0  0  0  0  0  0  0  0  0  0
   -0.8899   -0.5858   -4.7849 H   0  0  0  0  0  0  0  0  0  0  0  0
    1.2412   -0.3403    3.2324 C   0  0  0  0  0  0  0  0  0  0  0  0
    0.0259   -0.9908    2.5925 C   0  0  0  0  0  0  0  0  0  0  0  0
   -0.0122   -0.9270    0.7834 S   0  0  0  0  0  0  0  0  0  0  0  0
   -0.0122    0.8553    0.4644 C   0  0  0  0  0  3  0  0  0  0  0  0
   -1.1963    1.6112    1.0441 C   0  0  0  0  0  0  0  0  0  0  0  0
    1.2579    0.7363    3.0547 H   0  0  0  0  0  0  0  0  0  0  0  0
    1.2273   -0.4936    4.3138 H   0  0  0  0  0  0  0  0  0  0  0  0
    2.1642   -0.7633    2.8343 H   0  0  0  0  0  0  0  0  0  0  0  0
   -0.8979   -0.5678    2.9904 H   0  0  0  0  0  0  0  0  0  0  0  0
    0.0038   -2.0590    2.8148 H   0  0  0  0  0  0  0  0  0  0  0  0
    0.9306    1.2856    0.8064 H   0  0  0  0  0  0  0  0  0  0  0  0
   -1.1897    1.5879    2.1351 H   0  0  0  0  0  0  0  0  0  0  0  0
   -1.1626    2.6594    0.7386 H   0  0  0  0  0  0  0  0  0  0  0  0
   -2.1382    1.1808    0.7022 H   0  0  0  0  0  0  0  0  0  0  0  0
  1  2  2  3
  1  4  1  0
  1  5  1  0
  2  3  1  0
  2  6  1  0
  3  7  1  0
  3  8  1  0
  3  9  1  0
 10 11  1  0
 10 15  1  0
 10 16  1  0
 10 17  1  0
 11 12  1  0
 11 18  1  0
 11 19  1  0
 12 13  1  0
 13 14  1  0
 13 20  1  0
 14 21  1  0
 14 22  1  0
 14 23  1  0
M  RAD  1  13   2
M  END
>  <reaction>  (16) 
rmg_rxn_354

>  <mol_properties>  (16) 
{"0": {"label": "*3", "atom_type": "Cd"}, "1": {"label": "*4", "atom_type": "Cd"}, "3": {"label": "*2", "atom_type": "H0"}, "11": {"label": "*0", "atom_type": "S2s"}, "12": {"label": "*1", "atom_type": "Cs"}}

>  <type>  (16) 
unop_12

>  <geom_source>  (16) 
Heuristics

$$$$

     RDKit          3D

 23 21  0  0  0  0  0  0  0  0999 V2000
   -1.0999    0.8001    1.1781 S   0  0  0  0  0  0  0  0  0  0  0  0
   -0.0785   -0.6660    0.7913 C   0  0  0  0  0  3  0  0  0  0  0  0
   -1.7795    1.0619   -0.5010 C   0  0  0  0  0  0  0  0  0  0  0  0
   -0.9370   -1.9174    0.6674 C   0  0  0  0  0  0  0  0  0  0  0  0
   -3.2891    0.8715   -0.4854 C   0  0  0  0  0  0  0  0  0  0  0  0
    3.3243    0.4918    0.7324 C   0  0  0  0  0  0  0  0  0  0  0  0
    2.8752    0.4199   -0.6916 C   0  0  0  0  0  0  0  0  0  0  0  0
    1.7444   -0.2075   -1.0114 C   0  0  0  0  0  0  0  0  0  0  0  0
    0.6434   -0.8103    1.6225 H   0  0  0  0  0  0  0  0  0  0  0  0
    0.6972   -0.4550   -0.4480 H   0  0  0  0  0  0  0  0  0  0  0  0
   -1.5498    2.1028   -0.8118 H   0  0  0  0  0  0  0  0  0  0  0  0
   -1.3315    0.3774   -1.2508 H   0  0  0  0  0  0  0  0  0  0  0  0
   -1.6217   -1.8342   -0.2010 H   0  0  0  0  0  0  0  0  0  0  0  0
   -0.2812   -2.7996    0.5138 H   0  0  0  0  0  0  0  0  0  0  0  0
   -1.5315   -2.0685    1.5932 H   0  0  0  0  0  0  0  0  0  0  0  0
   -3.5423   -0.1635   -0.1729 H   0  0  0  0  0  0  0  0  0  0  0  0
   -3.7581    1.5909    0.2189 H   0  0  0  0  0  0  0  0  0  0  0  0
   -3.6984    1.0485   -1.5023 H   0  0  0  0  0  0  0  0  0  0  0  0
    4.2812    1.0511    0.7949 H   0  0  0  0  0  0  0  0  0  0  0  0
    3.4801   -0.5321    1.1335 H   0  0  0  0  0  0  0  0  0  0  0  0
    2.5611    1.0167    1.3451 H   0  0  0  0  0  0  0  0  0  0  0  0
    3.4746    0.8820   -1.4704 H   0  0  0  0  0  0  0  0  0  0  0  0
    1.4172   -0.2604   -2.0446 H   0  0  0  0  0  0  0  0  0  0  0  0
  1  2  1  0
  1  3  1  0
  2  4  1  0
  2  9  1  0
  3  5  1  0
  3 11  1  0
  3 12  1  0
  4 13  1  0
  4 14  1  0
  4 15  1  0
  5 16  1  0
  5 17  1  0
  5 18  1  0
  6  7  1  0
  6 19  1  0
  6 20  1  0
  6 21  1  0
  7  8  2  3
  7 22  1  0
  8 10  1  0
  8 23  1  0
M  RAD  1   2   2
M  END
>  <reaction>  (17) 
rmg_rxn_354

>  <mol_properties>  (17) 
{"0": {"label": "*3", "atom_type": "Cd"}, "1": {"label": "*4", "atom_type": "Cd"}, "3": {"label": "*2", "atom_type": "H0"}, "11": {"label": "*0", "atom_type": "S2s"}, "12": {"label": "*1", "atom_type": "Cs"}}

>  <type>  (17) 
unop_13

>  <geom_source>  (17) 
AutoTST

$$$$

     RDKit          3D

 23 21  0  0  0  0  0  0  0  0999 V2000
   -0.4883    0.8424   -2.1171 C   0  0  0  0  0  0  0  0  0  0  0  0
   -0.4883   -0.2400   -2.8792 C   0  0  0  0  0  0  0  0  0  0  0  0
   -0.4883   -0.2400   -4.3739 C   0  0  0  0  0  0  0  0  0  0  0  0
   -0.4883    0.7607   -0.8204 H   0  0  0  0  0  0  0  0  0  0  0  0
   -0.4883    1.8380   -2.5481 H   0  0  0  0  0  0  0  0  0  0  0  0
   -0.4883   -1.2165   -2.4017 H   0  0  0  0  0  0  0  0  0  0  0  0
    0.3894   -0.7626   -4.7628 H   0  0  0  0  0  0  0  0  0  0  0  0
   -0.4883    0.7752   -4.7726 H   0  0  0  0  0  0  0  0  0  0  0  0
   -1.3660   -0.7626   -4.7628 H   0  0  0  0  0  0  0  0  0  0  0  0
    1.8108    0.5365    2.8009 C   0  0  0  0  0  0  0  0  0  0  0  0
    0.9010   -0.6534    2.5442 C   0  0  0  0  0  0  0  0  0  0  0  0
    0.3910   -0.8687    0.8203 S   0  0  0  0  0  0  0  0  0  0  0  0
   -0.4883    0.6785    0.4865 C   0  0  0  0  0  3  0  0  0  0  0  0
   -1.7005    0.9309    1.3677 C   0  0  0  0  0  0  0  0  0  0  0  0
    1.2977    1.4804    2.6088 H   0  0  0  0  0  0  0  0  0  0  0  0
    2.1359    0.5467    3.8435 H   0  0  0  0  0  0  0  0  0  0  0  0
    2.6943    0.4959    2.1629 H   0  0  0  0  0  0  0  0  0  0  0  0
    0.0167   -0.6131    3.1824 H   0  0  0  0  0  0  0  0  0  0  0  0
    1.4167   -1.5857    2.7805 H   0  0  0  0  0  0  0  0  0  0  0  0
    0.2125    1.5133    0.5388 H   0  0  0  0  0  0  0  0  0  0  0  0
   -1.4139    1.0673    2.4118 H   0  0  0  0  0  0  0  0  0  0  0  0
   -2.2180    1.8384    1.0489 H   0  0  0  0  0  0  0  0  0  0  0  0
   -2.4006    0.0964    1.3154 H   0  0  0  0  0  0  0  0  0  0  0  0
  1  2  2  3
  1  4  1  0
  1  5  1  0
  2  3  1  0
  2  6  1  0
  3  7  1  0
  3  8  1  0
  3  9  1  0
 10 11  1  0
 10 15  1  0
 10 16  1  0
 10 17  1  0
 11 12  1  0
 11 18  1  0
 11 19  1  0
 12 13  1  0
 13 14  1  0
 13 20  1  0
 14 21  1  0
 14 22  1  0
 14 23  1  0
M  RAD  1  13   2
M  END
>  <reaction>  (18) 
rmg_rxn_354

>  <mol_properties>  (18) 
{"0": {"label": "*3", "atom_type": "Cd"}, "1": {"label": "*4", "atom_type": "Cd"}, "3": {"label": "*2", "atom_type": "H0"}, "11": {"label": "*0", "atom_type": "S2s"}, "12": {"label": "*1", "atom_type": "Cs"}}

>  <type>  (18) 
unop_14

>  <geom_source>  (18) 
gaussian_log

$$$$
