
     RDKit          3D

 14 14  0  0  0  0  0  0  0  0999 V2000
   -1.1778    0.2241    0.1818 C   0  0  0  0  0  0  0  0  0  0  0  0
   -0.5633   -1.1636    0.0678 C   0  0  0  0  0  0  0  0  0  0  0  0
    0.6943   -1.1996    0.7146 O   0  0  0  0  0  0  0  0  0  0  0  0
    1.5547   -0.2288    0.2011 C   0  0  0  0  0  0  0  0  0  0  0  0
    1.0729    1.0696    0.3698 O   0  0  0  0  0  0  0  0  0  0  0  0
   -0.1607    1.2493   -0.2989 C   0  0  0  0  0  0  0  0  0  0  0  0
   -2.0927    0.2866   -0.4117 H   0  0  0  0  0  0  0  0  0  0  0  0
   -1.4303    0.4248    1.2248 H   0  0  0  0  0  0  0  0  0  0  0  0
   -1.1822   -1.9235    0.5431 H   0  0  0  0  0  0  0  0  0  0  0  0
   -0.4389   -1.4347   -0.9919 H   0  0  0  0  0  0  0  0  0  0  0  0
    1.7250   -0.4207   -0.8742 H   0  0  0  0  0  0  0  0  0  0  0  0
    2.4896   -0.3010    0.7524 H   0  0  0  0  0  0  0  0  0  0  0  0
   -0.0080    1.1481   -1.3844 H   0  0  0  0  0  0  0  0  0  0  0  0
   -0.4826    2.2695   -0.0942 H   0  0  0  0  0  0  0  0  0  0  0  0
  1  2  1  0
  1  6  1  0
  1  7  1  0
  1  8  1  0
  2  3  1  0
  2  9  1  0
  2 10  1  0
  3  4  1  0
  4  5  1  0
  4 11  1  0
  4 12  1  0
  5  6  1  0
  6 13  1  0
  6 14  1  0
M  END
>  <reaction>  (1) 
rmg_rxn_258

>  <mol_properties>  (1) 
{"1": {"label": "donator", "atom_type": "Cs"}, "8": {"label": "d_hydrogen", "atom_type": "H0"}}

>  <type>  (1) 
r1h

$$$$

     RDKit          3D

 13 13  0  0  0  0  0  0  0  0999 V2000
    0.5794    1.5990    0.2108 C   0  0  0  0  0  3  0  0  0  0  0  0
    1.4528    0.6621   -0.2496 O   0  0  0  0  0  0  0  0  0  0  0  0
    1.0751   -0.6763    0.0423 C   0  0  0  0  0  0  0  0  0  0  0  0
   -0.3579   -0.9282   -0.3924 C   0  0  0  0  0  0  0  0  0  0  0  0
   -1.2426    0.1393    0.2269 C   0  0  0  0  0  0  0  0  0  0  0  0
   -0.7410    1.4341   -0.0749 O   0  0  0  0  0  0  0  0  0  0  0  0
    0.9183    2.6078    0.0084 H   0  0  0  0  0  0  0  0  0  0  0  0
    1.1839   -0.8508    1.1199 H   0  0  0  0  0  0  0  0  0  0  0  0
    1.7816   -1.3130   -0.4874 H   0  0  0  0  0  0  0  0  0  0  0  0
   -0.6818   -1.9210   -0.0736 H   0  0  0  0  0  0  0  0  0  0  0  0
   -0.4271   -0.8785   -1.4810 H   0  0  0  0  0  0  0  0  0  0  0  0
   -1.2832    0.0173    1.3164 H   0  0  0  0  0  0  0  0  0  0  0  0
   -2.2575    0.1083   -0.1657 H   0  0  0  0  0  0  0  0  0  0  0  0
  1  2  1  0
  1  6  1  0
  1  7  1  0
  2  3  1  0
  3  4  1  0
  3  8  1  0
  3  9  1  0
  4  5  1  0
  4 10  1  0
  4 11  1  0
  5  6  1  0
  5 12  1  0
  5 13  1  0
M  RAD  1   1   2
M  END
>  <reaction>  (2) 
rmg_rxn_258

>  <mol_properties>  (2) 
{"0": {"label": "acceptor", "atom_type": "Cs"}}

>  <type>  (2) 
r2

$$$$

     RDKit          3D

 14 14  0  0  0  0  0  0  0  0999 V2000
   -1.1778    0.2241    0.1818 C   0  0  0  0  0  0  0  0  0  0  0  0
   -0.5633   -1.1636    0.0678 C   0  0  0  0  0  0  0  0  0  0  0  0
    0.6943   -1.1996    0.7146 O   0  0  0  0  0  0  0  0  0  0  0  0
    1.5547   -0.2288    0.2011 C   0  0  0  0  0  0  0  0  0  0  0  0
    1.0729    1.0696    0.3698 O   0  0  0  0  0  0  0  0  0  0  0  0
   -0.1607    1.2493   -0.2989 C   0  0  0  0  0  0  0  0  0  0  0  0
   -2.0927    0.2866   -0.4117 H   0  0  0  0  0  0  0  0  0  0  0  0
   -1.4303    0.4248    1.2248 H   0  0  0  0  0  0  0  0  0  0  0  0
   -1.1822   -1.9235    0.5431 H   0  0  0  0  0  0  0  0  0  0  0  0
   -0.4389   -1.4347   -0.9919 H   0  0  0  0  0  0  0  0  0  0  0  0
    1.7250   -0.4207   -0.8742 H   0  0  0  0  0  0  0  0  0  0  0  0
    2.4896   -0.3010    0.7524 H   0  0  0  0  0  0  0  0  0  0  0  0
   -0.0080    1.1481   -1.3844 H   0  0  0  0  0  0  0  0  0  0  0  0
   -0.4826    2.2695   -0.0942 H   0  0  0  0  0  0  0  0  0  0  0  0
  1  2  1  0
  1  6  1  0
  1  7  1  0
  1  8  1  0
  2  3  1  0
  2  9  1  0
  2 10  1  0
  3  4  1  0
  4  5  1  0
  4 11  1  0
  4 12  1  0
  5  6  1  0
  6 13  1  0
  6 14  1  0
M  END
>  <reaction>  (3) 
rmg_rxn_258

>  <mol_properties>  (3) 
{"0": {"label": "acceptor", "atom_type": "Cs"}, "13": {"label": "a_hydrogen", "atom_type": "H0"}}

>  <type>  (3) 
r2h

$$$$

     RDKit          3D

 27 27  0  0  0  0  0  0  0  0999 V2000
    0.6574   -0.9733    1.0203 C   0  0  0  0  0  3  0  0  0  0  0  0
   -0.6945   -1.2416    0.9933 O   0  0  0  0  0  0  0  0  0  0  0  0
   -1.0179   -2.4305    1.7030 C   0  0  0  0  0  0  0  0  0  0  0  0
   -0.2063   -3.5981    1.1641 C   0  0  0  0  0  0  0  0  0  0  0  0
    1.2641   -3.2100    1.1565 C   0  0  0  0  0  0  0  0  0  0  0  0
    1.4401   -1.9713    0.4811 O   0  0  0  0  0  0  0  0  0  0  0  0
    1.0034   -0.6561    2.0169 H   0  0  0  0  0  0  0  0  0  0  0  0
   -0.8094   -2.2822    2.7722 H   0  0  0  0  0  0  0  0  0  0  0  0
   -2.0889   -2.5844    1.5796 H   0  0  0  0  0  0  0  0  0  0  0  0
   -0.3622   -4.4864    1.7802 H   0  0  0  0  0  0  0  0  0  0  0  0
   -0.5278   -3.8257    0.1459 H   0  0  0  0  0  0  0  0  0  0  0  0
    1.8776   -3.9403    0.6308 H   0  0  0  0  0  0  0  0  0  0  0  0
    1.6392   -3.1183    2.1859 H   0  0  0  0  0  0  0  0  0  0  0  0
   -0.4571    1.1344   -1.4092 C   0  0  0  0  0  0  0  0  0  0  0  0
    0.8535    1.0914   -0.6672 C   0  0  0  0  0  0  0  0  0  0  0  0
    1.0368    2.2088    0.1490 O   0  0  0  0  0  0  0  0  0  0  0  0
    0.9006    3.4056   -0.5718 C   0  0  0  0  0  0  0  0  0  0  0  0
   -0.3476    3.5327   -1.1729 O   0  0  0  0  0  0  0  0  0  0  0  0
   -0.5823    2.4898   -2.1008 C   0  0  0  0  0  0  0  0  0  0  0  0
   -0.5106    0.3220   -2.1359 H   0  0  0  0  0  0  0  0  0  0  0  0
   -1.2786    1.0127   -0.7002 H   0  0  0  0  0  0  0  0  0  0  0  0
    0.8109    0.0737    0.1823 H   0  0  0  0  0  0  0  0  0  0  0  0
    1.7305    0.8927   -1.2956 H   0  0  0  0  0  0  0  0  0  0  0  0
    1.6917    3.4563   -1.3405 H   0  0  0  0  0  0  0  0  0  0  0  0
    1.0057    4.2214    0.1401 H   0  0  0  0  0  0  0  0  0  0  0  0
    0.1404    2.5634   -2.9270 H   0  0  0  0  0  0  0  0  0  0  0  0
   -1.5822    2.6489   -2.5031 H   0  0  0  0  0  0  0  0  0  0  0  0
  1  2  1  0
  1  6  1  0
  1  7  1  0
  2  3  1  0
  3  4  1  0
  3  8  1  0
  3  9  1  0
  4  5  1  0
  4 10  1  0
  4 11  1  0
  5  6  1  0
  5 12  1  0
  5 13  1  0
 14 15  1  0
 14 19  1  0
 14 20  1  0
 14 21  1  0
 15 16  1  0
 15 22  1  0
 15 23  1  0
 16 17  1  0
 17 18  1  0
 17 24  1  0
 17 25  1  0
 18 19  1  0
 19 26  1  0
 19 27  1  0
M  RAD  1   1   2
M  END
>  <reaction>  (4) 
rmg_rxn_258

>  <mol_properties>  (4) 
{"0": {"label": "*3", "atom_type": "Cs"}, "1": {"label": "*4", "atom_type": "O2s"}, "14": {"label": "*1", "atom_type": "Cs"}, "15": {"label": "*0", "atom_type": "O2s"}, "21": {"label": "*2", "atom_type": "H0"}}

>  <type>  (4) 
ts

$$$$

     RDKit          3D

 27 27  0  0  0  0  0  0  0  0999 V2000
    0.1268   -1.7154    0.1946 C   0  0  0  0  0  0  0  0  0  0  0  0
    1.2446   -2.0309    0.9675 O   0  0  0  0  0  0  0  0  0  0  0  0
    0.8749   -2.7213    2.1456 C   0  0  0  0  0  0  0  0  0  0  0  0
   -0.1276   -1.9027    2.9465 C   0  0  0  0  0  0  0  0  0  0  0  0
   -1.2752   -1.5036    2.0297 C   0  0  0  0  0  0  0  0  0  0  0  0
   -0.7773   -0.8858    0.8585 O   0  0  0  0  0  0  0  0  0  0  0  0
   -0.3846   -2.6473   -0.1091 H   0  0  0  0  0  0  0  0  0  0  0  0
    0.4377   -3.6956    1.8782 H   0  0  0  0  0  0  0  0  0  0  0  0
    1.7923   -2.9017    2.7042 H   0  0  0  0  0  0  0  0  0  0  0  0
   -0.5003   -2.4799    3.7957 H   0  0  0  0  0  0  0  0  0  0  0  0
    0.3606   -1.0043    3.3291 H   0  0  0  0  0  0  0  0  0  0  0  0
   -1.9438   -0.7858    2.5029 H   0  0  0  0  0  0  0  0  0  0  0  0
   -1.8637   -2.3922    1.7542 H   0  0  0  0  0  0  0  0  0  0  0  0
    0.5080    0.6771   -2.3044 C   0  0  0  0  0  0  0  0  0  0  0  0
    0.5080    0.6771   -0.7823 C   0  0  0  0  0  3  0  0  0  0  0  0
   -0.5403    1.4897   -0.2902 O   0  0  0  0  0  0  0  0  0  0  0  0
   -0.4494    2.7892   -0.7896 C   0  0  0  0  0  0  0  0  0  0  0  0
   -0.5403    2.8454   -2.1806 O   0  0  0  0  0  0  0  0  0  0  0  0
    0.5080    2.1187   -2.7925 C   0  0  0  0  0  0  0  0  0  0  0  0
    1.3820    0.1446   -2.6863 H   0  0  0  0  0  0  0  0  0  0  0  0
   -0.3886    0.1709   -2.6674 H   0  0  0  0  0  0  0  0  0  0  0  0
    0.3172   -0.5200   -0.2935 H   0  0  0  0  0  0  0  0  0  0  0  0
    1.4716    1.0530   -0.4056 H   0  0  0  0  0  0  0  0  0  0  0  0
    0.5059    3.2413   -0.4654 H   0  0  0  0  0  0  0  0  0  0  0  0
   -1.2905    3.3497   -0.3876 H   0  0  0  0  0  0  0  0  0  0  0  0
    1.4716    2.5961   -2.5572 H   0  0  0  0  0  0  0  0  0  0  0  0
    0.3490    2.1846   -3.8680 H   0  0  0  0  0  0  0  0  0  0  0  0
  1  2  1  0
  1  6  1  0
  1  7  1  0
  1 22  1  0
  2  3  1  0
  3  4  1  0
  3  8  1  0
  3  9  1  0
  4  5  1  0
  4 10  1  0
  4 11  1  0
  5  6  1  0
  5 12  1  0
  5 13  1  0
 14 15  1  0
 14 19  1  0
 14 20  1  0
 14 21  1  0
 15 16  1  0
 15 23  1  0
 16 17  1  0
 17 18  1  0
 17 24  1  0
 17 25  1  0
 18 19  1  0
 19 26  1  0
 19 27  1  0
M  RAD  1  15   2
M  END
>  <reaction>  (5) 
rmg_rxn_258

>  <mol_properties>  (5) 
{"0": {"label": "*3", "atom_type": "Cs"}, "1": {"label": "*4", "atom_type": "O2s"}, "14": {"label": "*1", "atom_type": "Cs"}, "15": {"label": "*0", "atom_type": "O2s"}, "21": {"label": "*2", "atom_type": "H0"}}

>  <type>  (5) 
unop_1

>  <geom_source>  (5) 
Heuristics

$$$$

     RDKit          3D

 27 27  0  0  0  0  0  0  0  0999 V2000
   -0.3434   -1.2781    0.6433 C   0  0  0  0  0  0  0  0  0  0  0  0
    0.1858   -2.1889   -0.2714 O   0  0  0  0  0  0  0  0  0  0  0  0
    0.4306   -3.4425    0.3368 C   0  0  0  0  0  0  0  0  0  0  0  0
    1.3522   -3.2778    1.5369 C   0  0  0  0  0  0  0  0  0  0  0  0
    0.7775   -2.2041    2.4499 C   0  0  0  0  0  0  0  0  0  0  0  0
    0.5120   -1.0243    1.7158 O   0  0  0  0  0  0  0  0  0  0  0  0
   -1.3081   -1.6597    1.0253 H   0  0  0  0  0  0  0  0  0  0  0  0
   -0.5242   -3.8894    0.6536 H   0  0  0  0  0  0  0  0  0  0  0  0
    0.8686   -4.0820   -0.4283 H   0  0  0  0  0  0  0  0  0  0  0  0
    1.4515   -4.2233    2.0748 H   0  0  0  0  0  0  0  0  0  0  0  0
    2.3425   -2.9713    1.1948 H   0  0  0  0  0  0  0  0  0  0  0  0
    1.4713   -1.9302    3.2435 H   0  0  0  0  0  0  0  0  0  0  0  0
   -0.1530   -2.5639    2.9154 H   0  0  0  0  0  0  0  0  0  0  0  0
    0.0378    1.1144   -1.8557 C   0  0  0  0  0  0  0  0  0  0  0  0
    0.0378    1.1144   -0.3336 C   0  0  0  0  0  3  0  0  0  0  0  0
   -1.0105    1.9270    0.1585 O   0  0  0  0  0  0  0  0  0  0  0  0
   -0.9196    3.2266   -0.3408 C   0  0  0  0  0  0  0  0  0  0  0  0
   -1.0105    3.2828   -1.7319 O   0  0  0  0  0  0  0  0  0  0  0  0
    0.0378    2.5561   -2.3438 C   0  0  0  0  0  0  0  0  0  0  0  0
    0.9118    0.5820   -2.2375 H   0  0  0  0  0  0  0  0  0  0  0  0
   -0.8588    0.6083   -2.2187 H   0  0  0  0  0  0  0  0  0  0  0  0
   -0.1530   -0.0826    0.1552 H   0  0  0  0  0  0  0  0  0  0  0  0
    1.0014    1.4904    0.0431 H   0  0  0  0  0  0  0  0  0  0  0  0
    0.0357    3.6786   -0.0166 H   0  0  0  0  0  0  0  0  0  0  0  0
   -1.7607    3.7871    0.0611 H   0  0  0  0  0  0  0  0  0  0  0  0
    1.0014    3.0335   -2.1085 H   0  0  0  0  0  0  0  0  0  0  0  0
   -0.1212    2.6220   -3.4192 H   0  0  0  0  0  0  0  0  0  0  0  0
  1  2  1  0
  1  6  1  0
  1  7  1  0
  1 22  1  0
  2  3  1  0
  3  4  1  0
  3  8  1  0
  3  9  1  0
  4  5  1  0
  4 10  1  0
  4 11  1  0
  5  6  1  0
  5 12  1  0
  5 13  1  0
 14 15  1  0
 14 19  1  0
 14 20  1  0
 14 21  1  0
 15 16  1  0
 15 23  1  0
 16 17  1  0
 17 18  1  0
 17 24  1  0
 17 25  1  0
 18 19  1  0
 19 26  1  0
 19 27  1  0
M  RAD  1  15   2
M  END
>  <reaction>  (6) 
rmg_rxn_258

>  <mol_properties>  (6) 
{"0": {"label": "*3", "atom_type": "Cs"}, "1": {"label": "*4", "atom_type": "O2s"}, "14": {"label": "*1", "atom_type": "Cs"}, "15": {"label": "*0", "atom_type": "O2s"}, "21": {"label": "*2", "atom_type": "H0"}}

>  <type>  (6) 
unop_2

>  <geom_source>  (6) 
Heuristics

$$$$

     RDKit          3D

 27 27  0  0  0  0  0  0  0  0999 V2000
    0.4083   -1.6075    0.3048 C   0  0  0  0  0  0  0  0  0  0  0  0
    1.0734   -1.6662    1.5298 O   0  0  0  0  0  0  0  0  0  0  0  0
    0.4579   -2.5935    2.4032 C   0  0  0  0  0  0  0  0  0  0  0  0
   -1.0107   -2.2441    2.5969 C   0  0  0  0  0  0  0  0  0  0  0  0
   -1.6617   -2.0960    1.2291 C   0  0  0  0  0  0  0  0  0  0  0  0
   -0.9200   -1.1983    0.4257 O   0  0  0  0  0  0  0  0  0  0  0  0
    0.4441   -2.6001   -0.1806 H   0  0  0  0  0  0  0  0  0  0  0  0
    0.5520   -3.6081    1.9867 H   0  0  0  0  0  0  0  0  0  0  0  0
    1.0122   -2.5573    3.3400 H   0  0  0  0  0  0  0  0  0  0  0  0
   -1.5145   -3.0201    3.1775 H   0  0  0  0  0  0  0  0  0  0  0  0
   -1.0908   -1.3010    3.1410 H   0  0  0  0  0  0  0  0  0  0  0  0
   -2.6710   -1.6928    1.2998 H   0  0  0  0  0  0  0  0  0  0  0  0
   -1.7168   -3.0756    0.7300 H   0  0  0  0  0  0  0  0  0  0  0  0
    0.7895    0.7850   -2.1942 C   0  0  0  0  0  0  0  0  0  0  0  0
    0.7895    0.7850   -0.6722 C   0  0  0  0  0  3  0  0  0  0  0  0
   -0.2588    1.5976   -0.1801 O   0  0  0  0  0  0  0  0  0  0  0  0
   -0.1679    2.8972   -0.6794 C   0  0  0  0  0  0  0  0  0  0  0  0
   -0.2588    2.9533   -2.0705 O   0  0  0  0  0  0  0  0  0  0  0  0
    0.7895    2.2266   -2.6823 C   0  0  0  0  0  0  0  0  0  0  0  0
    1.6635    0.2525   -2.5761 H   0  0  0  0  0  0  0  0  0  0  0  0
   -0.1071    0.2788   -2.5572 H   0  0  0  0  0  0  0  0  0  0  0  0
    0.5988   -0.4120   -0.1834 H   0  0  0  0  0  0  0  0  0  0  0  0
    1.7531    1.1610   -0.2955 H   0  0  0  0  0  0  0  0  0  0  0  0
    0.7875    3.3492   -0.3552 H   0  0  0  0  0  0  0  0  0  0  0  0
   -1.0089    3.4577   -0.2774 H   0  0  0  0  0  0  0  0  0  0  0  0
    1.7531    2.7040   -2.4470 H   0  0  0  0  0  0  0  0  0  0  0  0
    0.6306    2.2926   -3.7578 H   0  0  0  0  0  0  0  0  0  0  0  0
  1  2  1  0
  1  6  1  0
  1  7  1  0
  1 22  1  0
  2  3  1  0
  3  4  1  0
  3  8  1  0
  3  9  1  0
  4  5  1  0
  4 10  1  0
  4 11  1  0
  5  6  1  0
  5 12  1  0
  5 13  1  0
 14 15  1  0
 14 19  1  0
 14 20  1  0
 14 21  1  0
 15 16  1  0
 15 23  1  0
 16 17  1  0
 17 18  1  0
 17 24  1  0
 17 25  1  0
 18 19  1  0
 19 26  1  0
 19 27  1  0
M  RAD  1  15   2
M  END
>  <reaction>  (7) 
rmg_rxn_258

>  <mol_properties>  (7) 
{"0": {"label": "*3", "atom_type": "Cs"}, "1": {"label": "*4", "atom_type": "O2s"}, "14": {"label": "*1", "atom_type": "Cs"}, "15": {"label": "*0", "atom_type": "O2s"}, "21": {"label": "*2", "atom_type": "H0"}}

>  <type>  (7) 
unop_3

>  <geom_source>  (7) 
Heuristics

$$$$

     RDKit          3D

 27 27  0  0  0  0  0  0  0  0999 V2000
    0.2918   -1.1588    0.6707 C   0  0  0  0  0  0  0  0  0  0  0  0
   -0.9472   -1.6032    0.2082 O   0  0  0  0  0  0  0  0  0  0  0  0
   -1.5615   -2.4710    1.1415 C   0  0  0  0  0  0  0  0  0  0  0  0
   -0.6447   -3.6444    1.4563 C   0  0  0  0  0  0  0  0  0  0  0  0
    0.7196   -3.1035    1.8595 C   0  0  0  0  0  0  0  0  0  0  0  0
    1.1980   -2.1980    0.8834 O   0  0  0  0  0  0  0  0  0  0  0  0
    0.1520   -0.5951    1.6113 H   0  0  0  0  0  0  0  0  0  0  0  0
   -1.7918   -1.9150    2.0632 H   0  0  0  0  0  0  0  0  0  0  0  0
   -2.5008   -2.7960    0.6962 H   0  0  0  0  0  0  0  0  0  0  0  0
   -1.0663   -4.2537    2.2590 H   0  0  0  0  0  0  0  0  0  0  0  0
   -0.5389   -4.2709    0.5685 H   0  0  0  0  0  0  0  0  0  0  0  0
    1.4630   -3.8950    1.9439 H   0  0  0  0  0  0  0  0  0  0  0  0
    0.6498   -2.5919    2.8317 H   0  0  0  0  0  0  0  0  0  0  0  0
    0.6730    1.2337   -1.8283 C   0  0  0  0  0  0  0  0  0  0  0  0
    0.6730    1.2337   -0.3063 C   0  0  0  0  0  3  0  0  0  0  0  0
   -0.3753    2.0463    0.1858 O   0  0  0  0  0  0  0  0  0  0  0  0
   -0.2844    3.3458   -0.3135 C   0  0  0  0  0  0  0  0  0  0  0  0
   -0.3753    3.4020   -1.7045 O   0  0  0  0  0  0  0  0  0  0  0  0
    0.6730    2.6753   -2.3164 C   0  0  0  0  0  0  0  0  0  0  0  0
    1.5470    0.7012   -2.2102 H   0  0  0  0  0  0  0  0  0  0  0  0
   -0.2236    0.7275   -2.1913 H   0  0  0  0  0  0  0  0  0  0  0  0
    0.4822    0.0366    0.1825 H   0  0  0  0  0  0  0  0  0  0  0  0
    1.6366    1.6096    0.0705 H   0  0  0  0  0  0  0  0  0  0  0  0
    0.6709    3.7979    0.0107 H   0  0  0  0  0  0  0  0  0  0  0  0
   -1.1255    3.9063    0.0885 H   0  0  0  0  0  0  0  0  0  0  0  0
    1.6366    3.1527   -2.0811 H   0  0  0  0  0  0  0  0  0  0  0  0
    0.5140    2.7412   -3.3919 H   0  0  0  0  0  0  0  0  0  0  0  0
  1  2  1  0
  1  6  1  0
  1  7  1  0
  1 22  1  0
  2  3  1  0
  3  4  1  0
  3  8  1  0
  3  9  1  0
  4  5  1  0
  4 10  1  0
  4 11  1  0
  5  6  1  0
  5 12  1  0
  5 13  1  0
 14 15  1  0
 14 19  1  0
 14 20  1  0
 14 21  1  0
 15 16  1  0
 15 23  1  0
 16 17  1  0
 17 18  1  0
 17 24  1  0
 17 25  1  0
 18 19  1  0
 19 26  1  0
 19 27  1  0
M  RAD  1  15   2
M  END
>  <reaction>  (8) 
rmg_rxn_258

>  <mol_properties>  (8) 
{"0": {"label": "*3", "atom_type": "Cs"}, "1": {"label": "*4", "atom_type": "O2s"}, "14": {"label": "*1", "atom_type": "Cs"}, "15": {"label": "*0", "atom_type": "O2s"}, "21": {"label": "*2", "atom_type": "H0"}}

>  <type>  (8) 
unop_4

>  <geom_source>  (8) 
Heuristics

$$$$

     RDKit          3D

 27 27  0  0  0  0  0  0  0  0999 V2000
    0.4340   -1.3407    0.4891 C   0  0  0  0  0  0  0  0  0  0  0  0
    0.4518   -1.2287    1.8797 O   0  0  0  0  0  0  0  0  0  0  0  0
    0.2288   -2.4816    2.4977 C   0  0  0  0  0  0  0  0  0  0  0  0
   -1.0839   -3.0831    2.0164 C   0  0  0  0  0  0  0  0  0  0  0  0
   -1.0889   -3.0896    0.4944 C   0  0  0  0  0  0  0  0  0  0  0  0
   -0.7873   -1.8005   -0.0042 O   0  0  0  0  0  0  0  0  0  0  0  0
    1.2413   -2.0230    0.1652 H   0  0  0  0  0  0  0  0  0  0  0  0
    1.0629   -3.1605    2.2626 H   0  0  0  0  0  0  0  0  0  0  0  0
    0.2262   -2.3050    3.5724 H   0  0  0  0  0  0  0  0  0  0  0  0
   -1.2035   -4.0977    2.4031 H   0  0  0  0  0  0  0  0  0  0  0  0
   -1.9158   -2.4766    2.3796 H   0  0  0  0  0  0  0  0  0  0  0  0
   -2.0635   -3.3616    0.0914 H   0  0  0  0  0  0  0  0  0  0  0  0
   -0.3475   -3.8113    0.1184 H   0  0  0  0  0  0  0  0  0  0  0  0
    0.8152    1.0518   -2.0099 C   0  0  0  0  0  0  0  0  0  0  0  0
    0.8152    1.0518   -0.4878 C   0  0  0  0  0  3  0  0  0  0  0  0
   -0.2331    1.8644    0.0043 O   0  0  0  0  0  0  0  0  0  0  0  0
   -0.1422    3.1639   -0.4950 C   0  0  0  0  0  0  0  0  0  0  0  0
   -0.2331    3.2201   -1.8861 O   0  0  0  0  0  0  0  0  0  0  0  0
    0.8152    2.4934   -2.4980 C   0  0  0  0  0  0  0  0  0  0  0  0
    1.6892    0.5193   -2.3917 H   0  0  0  0  0  0  0  0  0  0  0  0
   -0.0814    0.5456   -2.3729 H   0  0  0  0  0  0  0  0  0  0  0  0
    0.6245   -0.1453    0.0010 H   0  0  0  0  0  0  0  0  0  0  0  0
    1.7788    1.4277   -0.1111 H   0  0  0  0  0  0  0  0  0  0  0  0
    0.8132    3.6160   -0.1708 H   0  0  0  0  0  0  0  0  0  0  0  0
   -0.9832    3.7244   -0.0931 H   0  0  0  0  0  0  0  0  0  0  0  0
    1.7788    2.9708   -2.2627 H   0  0  0  0  0  0  0  0  0  0  0  0
    0.6563    2.5593   -3.5734 H   0  0  0  0  0  0  0  0  0  0  0  0
  1  2  1  0
  1  6  1  0
  1  7  1  0
  1 22  1  0
  2  3  1  0
  3  4  1  0
  3  8  1  0
  3  9  1  0
  4  5  1  0
  4 10  1  0
  4 11  1  0
  5  6  1  0
  5 12  1  0
  5 13  1  0
 14 15  1  0
 14 19  1  0
 14 20  1  0
 14 21  1  0
 15 16  1  0
 15 23  1  0
 16 17  1  0
 17 18  1  0
 17 24  1  0
 17 25  1  0
 18 19  1  0
 19 26  1  0
 19 27  1  0
M  RAD  1  15   2
M  END
>  <reaction>  (9) 
rmg_rxn_258

>  <mol_properties>  (9) 
{"0": {"label": "*3", "atom_type": "Cs"}, "1": {"label": "*4", "atom_type": "O2s"}, "14": {"label": "*1", "atom_type": "Cs"}, "15": {"label": "*0", "atom_type": "O2s"}, "21": {"label": "*2", "atom_type": "H0"}}

>  <type>  (9) 
unop_5

>  <geom_source>  (9) 
Heuristics

$$$$

     RDKit          3D

 27 27  0  0  0  0  0  0  0  0999 V2000
    0.2977   -1.2184    0.5411 C   0  0  0  0  0  0  0  0  0  0  0  0
   -1.0783   -1.3888    0.6963 O   0  0  0  0  0  0  0  0  0  0  0  0
   -1.3753   -2.1139    1.8741 C   0  0  0  0  0  0  0  0  0  0  0  0
   -0.6579   -3.4562    1.8646 C   0  0  0  0  0  0  0  0  0  0  0  0
    0.8207   -3.2175    1.5938 C   0  0  0  0  0  0  0  0  0  0  0  0
    0.9869   -2.4266    0.4326 O   0  0  0  0  0  0  0  0  0  0  0  0
    0.6957   -0.6442    1.3979 H   0  0  0  0  0  0  0  0  0  0  0  0
   -1.0667   -1.5280    2.7535 H   0  0  0  0  0  0  0  0  0  0  0  0
   -2.4577   -2.2307    1.9058 H   0  0  0  0  0  0  0  0  0  0  0  0
   -0.7934   -3.9683    2.8199 H   0  0  0  0  0  0  0  0  0  0  0  0
   -1.0746   -4.0849    1.0754 H   0  0  0  0  0  0  0  0  0  0  0  0
    1.3582   -4.1484    1.4187 H   0  0  0  0  0  0  0  0  0  0  0  0
    1.2839   -2.7092    2.4535 H   0  0  0  0  0  0  0  0  0  0  0  0
    0.6789    1.1741   -1.9579 C   0  0  0  0  0  0  0  0  0  0  0  0
    0.6789    1.1741   -0.4359 C   0  0  0  0  0  3  0  0  0  0  0  0
   -0.3694    1.9867    0.0562 O   0  0  0  0  0  0  0  0  0  0  0  0
   -0.2785    3.2862   -0.4431 C   0  0  0  0  0  0  0  0  0  0  0  0
   -0.3694    3.3424   -1.8341 O   0  0  0  0  0  0  0  0  0  0  0  0
    0.6789    2.6157   -2.4460 C   0  0  0  0  0  0  0  0  0  0  0  0
    1.5529    0.6416   -2.3398 H   0  0  0  0  0  0  0  0  0  0  0  0
   -0.2177    0.6679   -2.3209 H   0  0  0  0  0  0  0  0  0  0  0  0
    0.4882   -0.0230    0.0529 H   0  0  0  0  0  0  0  0  0  0  0  0
    1.6425    1.5500   -0.0591 H   0  0  0  0  0  0  0  0  0  0  0  0
    0.6769    3.7383   -0.1189 H   0  0  0  0  0  0  0  0  0  0  0  0
   -1.1195    3.8467   -0.0411 H   0  0  0  0  0  0  0  0  0  0  0  0
    1.6425    3.0931   -2.2107 H   0  0  0  0  0  0  0  0  0  0  0  0
    0.5200    2.6816   -3.5215 H   0  0  0  0  0  0  0  0  0  0  0  0
  1  2  1  0
  1  6  1  0
  1  7  1  0
  1 22  1  0
  2  3  1  0
  3  4  1  0
  3  8  1  0
  3  9  1  0
  4  5  1  0
  4 10  1  0
  4 11  1  0
  5  6  1  0
  5 12  1  0
  5 13  1  0
 14 15  1  0
 14 19  1  0
 14 20  1  0
 14 21  1  0
 15 16  1  0
 15 23  1  0
 16 17  1  0
 17 18  1  0
 17 24  1  0
 17 25  1  0
 18 19  1  0
 19 26  1  0
 19 27  1  0
M  RAD  1  15   2
M  END
>  <reaction>  (10) 
rmg_rxn_258

>  <mol_properties>  (10) 
{"0": {"label": "*3", "atom_type": "Cs"}, "1": {"label": "*4", "atom_type": "O2s"}, "14": {"label": "*1", "atom_type": "Cs"}, "15": {"label": "*0", "atom_type": "O2s"}, "21": {"label": "*2", "atom_type": "H0"}}

>  <type>  (10) 
unop_6

>  <geom_source>  (10) 
Heuristics

$$$$

     RDKit          3D

 27 27  0  0  0  0  0  0  0  0999 V2000
    0.2380   -1.2298    0.4884 C   0  0  0  0  0  0  0  0  0  0  0  0
   -0.9225   -1.1822    1.2612 O   0  0  0  0  0  0  0  0  0  0  0  0
   -0.8024   -1.9899    2.4165 C   0  0  0  0  0  0  0  0  0  0  0  0
   -0.4648   -3.4223    2.0283 C   0  0  0  0  0  0  0  0  0  0  0  0
    0.7472   -3.4058    1.1077 C   0  0  0  0  0  0  0  0  0  0  0  0
    0.5347   -2.5138    0.0304 O   0  0  0  0  0  0  0  0  0  0  0  0
    1.0891   -0.8449    1.0797 H   0  0  0  0  0  0  0  0  0  0  0  0
   -0.0162   -1.5813    3.0698 H   0  0  0  0  0  0  0  0  0  0  0  0
   -1.7524   -1.9242    2.9451 H   0  0  0  0  0  0  0  0  0  0  0  0
   -0.2599   -4.0211    2.9186 H   0  0  0  0  0  0  0  0  0  0  0  0
   -1.3132   -3.8658    1.5036 H   0  0  0  0  0  0  0  0  0  0  0  0
    0.9402   -4.3846    0.6708 H   0  0  0  0  0  0  0  0  0  0  0  0
    1.6424   -3.0969    1.6689 H   0  0  0  0  0  0  0  0  0  0  0  0
    0.6192    1.1627   -2.0106 C   0  0  0  0  0  0  0  0  0  0  0  0
    0.6192    1.1627   -0.4886 C   0  0  0  0  0  3  0  0  0  0  0  0
   -0.4291    1.9753    0.0035 O   0  0  0  0  0  0  0  0  0  0  0  0
   -0.3381    3.2749   -0.4958 C   0  0  0  0  0  0  0  0  0  0  0  0
   -0.4291    3.3311   -1.8868 O   0  0  0  0  0  0  0  0  0  0  0  0
    0.6192    2.6044   -2.4987 C   0  0  0  0  0  0  0  0  0  0  0  0
    1.4932    0.6303   -2.3925 H   0  0  0  0  0  0  0  0  0  0  0  0
   -0.2773    0.6566   -2.3736 H   0  0  0  0  0  0  0  0  0  0  0  0
    0.4285   -0.0343    0.0002 H   0  0  0  0  0  0  0  0  0  0  0  0
    1.5829    1.5387   -0.1119 H   0  0  0  0  0  0  0  0  0  0  0  0
    0.6172    3.7269   -0.1716 H   0  0  0  0  0  0  0  0  0  0  0  0
   -1.1792    3.8354   -0.0938 H   0  0  0  0  0  0  0  0  0  0  0  0
    1.5829    3.0818   -2.2634 H   0  0  0  0  0  0  0  0  0  0  0  0
    0.4603    2.6703   -3.5742 H   0  0  0  0  0  0  0  0  0  0  0  0
  1  2  1  0
  1  6  1  0
  1  7  1  0
  1 22  1  0
  2  3  1  0
  3  4  1  0
  3  8  1  0
  3  9  1  0
  4  5  1  0
  4 10  1  0
  4 11  1  0
  5  6  1  0
  5 12  1  0
  5 13  1  0
 14 15  1  0
 14 19  1  0
 14 20  1  0
 14 21  1  0
 15 16  1  0
 15 23  1  0
 16 17  1  0
 17 18  1  0
 17 24  1  0
 17 25  1  0
 18 19  1  0
 19 26  1  0
 19 27  1  0
M  RAD  1  15   2
M  END
>  <reaction>  (11) 
rmg_rxn_258

>  <mol_properties>  (11) 
{"0": {"label": "*3", "atom_type": "Cs"}, "1": {"label": "*4", "atom_type": "O2s"}, "14": {"label": "*1", "atom_type": "Cs"}, "15": {"label": "*0", "atom_type": "O2s"}, "21": {"label": "*2", "atom_type": "H0"}}

>  <type>  (11) 
unop_7

>  <geom_source>  (11) 
Heuristics

$$$$

     RDKit          3D

 27 27  0  0  0  0  0  0  0  0999 V2000
   -0.1730   -1.6520    0.2443 C   0  0  0  0  0  0  0  0  0  0  0  0
    1.0819   -2.2415    0.3994 O   0  0  0  0  0  0  0  0  0  0  0  0
    1.1535   -2.9858    1.6004 C   0  0  0  0  0  0  0  0  0  0  0  0
    0.8161   -2.1014    2.7923 C   0  0  0  0  0  0  0  0  0  0  0  0
   -0.5127   -1.4087    2.5254 C   0  0  0  0  0  0  0  0  0  0  0  0
   -0.4850   -0.7584    1.2693 O   0  0  0  0  0  0  0  0  0  0  0  0
   -0.9461   -2.4408    0.1967 H   0  0  0  0  0  0  0  0  0  0  0  0
    0.4525   -3.8331    1.5495 H   0  0  0  0  0  0  0  0  0  0  0  0
    2.1653   -3.3843    1.6624 H   0  0  0  0  0  0  0  0  0  0  0  0
    0.7593   -2.6973    3.7060 H   0  0  0  0  0  0  0  0  0  0  0  0
    1.5979   -1.3502    2.9198 H   0  0  0  0  0  0  0  0  0  0  0  0
   -0.7300   -0.6439    3.2697 H   0  0  0  0  0  0  0  0  0  0  0  0
   -1.3309   -2.1450    2.5396 H   0  0  0  0  0  0  0  0  0  0  0  0
    0.2082    0.7405   -2.2547 C   0  0  0  0  0  0  0  0  0  0  0  0
    0.2082    0.7405   -0.7327 C   0  0  0  0  0  3  0  0  0  0  0  0
   -0.8401    1.5531   -0.2406 O   0  0  0  0  0  0  0  0  0  0  0  0
   -0.7492    2.8526   -0.7399 C   0  0  0  0  0  0  0  0  0  0  0  0
   -0.8401    2.9088   -2.1309 O   0  0  0  0  0  0  0  0  0  0  0  0
    0.2082    2.1821   -2.7428 C   0  0  0  0  0  0  0  0  0  0  0  0
    1.0822    0.2080   -2.6366 H   0  0  0  0  0  0  0  0  0  0  0  0
   -0.6884    0.2343   -2.6177 H   0  0  0  0  0  0  0  0  0  0  0  0
    0.0175   -0.4565   -0.2439 H   0  0  0  0  0  0  0  0  0  0  0  0
    1.1718    1.1164   -0.3559 H   0  0  0  0  0  0  0  0  0  0  0  0
    0.2062    3.3047   -0.4157 H   0  0  0  0  0  0  0  0  0  0  0  0
   -1.5902    3.4131   -0.3379 H   0  0  0  0  0  0  0  0  0  0  0  0
    1.1718    2.6595   -2.5075 H   0  0  0  0  0  0  0  0  0  0  0  0
    0.0493    2.2480   -3.8183 H   0  0  0  0  0  0  0  0  0  0  0  0
  1  2  1  0
  1  6  1  0
  1  7  1  0
  1 22  1  0
  2  3  1  0
  3  4  1  0
  3  8  1  0
  3  9  1  0
  4  5  1  0
  4 10  1  0
  4 11  1  0
  5  6  1  0
  5 12  1  0
  5 13  1  0
 14 15  1  0
 14 19  1  0
 14 20  1  0
 14 21  1  0
 15 16  1  0
 15 23  1  0
 16 17  1  0
 17 18  1  0
 17 24  1  0
 17 25  1  0
 18 19  1  0
 19 26  1  0
 19 27  1  0
M  RAD  1  15   2
M  END
>  <reaction>  (12) 
rmg_rxn_258

>  <mol_properties>  (12) 
{"0": {"label": "*3", "atom_type": "Cs"}, "1": {"label": "*4", "atom_type": "O2s"}, "14": {"label": "*1", "atom_type": "Cs"}, "15": {"label": "*0", "atom_type": "O2s"}, "21": {"label": "*2", "atom_type": "H0"}}

>  <type>  (12) 
unop_8

>  <geom_source>  (12) 
Heuristics

$$$$

     RDKit          3D

 27 27  0  0  0  0  0  0  0  0999 V2000
    0.1365   -1.0981    0.7930 C   0  0  0  0  0  0  0  0  0  0  0  0
   -0.6497   -1.7993   -0.1217 O   0  0  0  0  0  0  0  0  0  0  0  0
   -1.2354   -2.9406    0.4748 C   0  0  0  0  0  0  0  0  0  0  0  0
   -0.1596   -3.8383    1.0692 C   0  0  0  0  0  0  0  0  0  0  0  0
    0.7265   -3.0008    1.9803 C   0  0  0  0  0  0  0  0  0  0  0  0
    1.1953   -1.8559    1.2940 O   0  0  0  0  0  0  0  0  0  0  0  0
   -0.4959   -0.7514    1.6309 H   0  0  0  0  0  0  0  0  0  0  0  0
   -1.9384   -2.6240    1.2606 H   0  0  0  0  0  0  0  0  0  0  0  0
   -1.8024   -3.4462   -0.3056 H   0  0  0  0  0  0  0  0  0  0  0  0
   -0.6136   -4.6598    1.6280 H   0  0  0  0  0  0  0  0  0  0  0  0
    0.4447   -4.2623    0.2649 H   0  0  0  0  0  0  0  0  0  0  0  0
    1.6067   -3.5508    2.3104 H   0  0  0  0  0  0  0  0  0  0  0  0
    0.1615   -2.6884    2.8720 H   0  0  0  0  0  0  0  0  0  0  0  0
    0.5177    1.2944   -1.7060 C   0  0  0  0  0  0  0  0  0  0  0  0
    0.5177    1.2944   -0.1840 C   0  0  0  0  0  3  0  0  0  0  0  0
   -0.5306    2.1070    0.3081 O   0  0  0  0  0  0  0  0  0  0  0  0
   -0.4397    3.4065   -0.1912 C   0  0  0  0  0  0  0  0  0  0  0  0
   -0.5306    3.4627   -1.5823 O   0  0  0  0  0  0  0  0  0  0  0  0
    0.5177    2.7360   -2.1941 C   0  0  0  0  0  0  0  0  0  0  0  0
    1.3917    0.7619   -2.0879 H   0  0  0  0  0  0  0  0  0  0  0  0
   -0.3789    0.7882   -2.0690 H   0  0  0  0  0  0  0  0  0  0  0  0
    0.3270    0.0973    0.3048 H   0  0  0  0  0  0  0  0  0  0  0  0
    1.4813    1.6703    0.1927 H   0  0  0  0  0  0  0  0  0  0  0  0
    0.5157    3.8586    0.1330 H   0  0  0  0  0  0  0  0  0  0  0  0
   -1.2807    3.9670    0.2108 H   0  0  0  0  0  0  0  0  0  0  0  0
    1.4813    3.2134   -1.9588 H   0  0  0  0  0  0  0  0  0  0  0  0
    0.3588    2.8019   -3.2696 H   0  0  0  0  0  0  0  0  0  0  0  0
  1  2  1  0
  1  6  1  0
  1  7  1  0
  1 22  1  0
  2  3  1  0
  3  4  1  0
  3  8  1  0
  3  9  1  0
  4  5  1  0
  4 10  1  0
  4 11  1  0
  5  6  1  0
  5 12  1  0
  5 13  1  0
 14 15  1  0
 14 19  1  0
 14 20  1  0
 14 21  1  0
 15 16  1  0
 15 23  1  0
 16 17  1  0
 17 18  1  0
 17 24  1  0
 17 25  1  0
 18 19  1  0
 19 26  1  0
 19 27  1  0
M  RAD  1  15   2
M  END
>  <reaction>  (13) 
rmg_rxn_258

>  <mol_properties>  (13) 
{"0": {"label": "*3", "atom_type": "Cs"}, "1": {"label": "*4", "atom_type": "O2s"}, "14": {"label": "*1", "atom_type": "Cs"}, "15": {"label": "*0", "atom_type": "O2s"}, "21": {"label": "*2", "atom_type": "H0"}}

>  <type>  (13) 
unop_9

>  <geom_source>  (13) 
Heuristics

$$$$

     RDKit          3D

 27 27  0  0  0  0  0  0  0  0999 V2000
   -0.3560   -1.4842    0.4205 C   0  0  0  0  0  0  0  0  0  0  0  0
    0.6835   -2.2917   -0.0420 O   0  0  0  0  0  0  0  0  0  0  0  0
    1.0284   -3.2789    0.9108 C   0  0  0  0  0  0  0  0  0  0  0  0
    1.3925   -2.6293    2.2382 C   0  0  0  0  0  0  0  0  0  0  0  0
    0.2691   -1.6863    2.6446 C   0  0  0  0  0  0  0  0  0  0  0  0
   -0.0306   -0.7940    1.5885 O   0  0  0  0  0  0  0  0  0  0  0  0
   -1.2525   -2.1060    0.5990 H   0  0  0  0  0  0  0  0  0  0  0  0
    0.1811   -3.9680    1.0485 H   0  0  0  0  0  0  0  0  0  0  0  0
    1.8607   -3.8424    0.4912 H   0  0  0  0  0  0  0  0  0  0  0  0
    1.5486   -3.3906    3.0058 H   0  0  0  0  0  0  0  0  0  0  0  0
    2.3184   -2.0625    2.1230 H   0  0  0  0  0  0  0  0  0  0  0  0
    0.5412   -1.0750    3.5039 H   0  0  0  0  0  0  0  0  0  0  0  0
   -0.6317   -2.2634    2.9043 H   0  0  0  0  0  0  0  0  0  0  0  0
    0.0252    0.9082   -2.0785 C   0  0  0  0  0  0  0  0  0  0  0  0
    0.0252    0.9082   -0.5564 C   0  0  0  0  0  3  0  0  0  0  0  0
   -1.0231    1.7208   -0.0643 O   0  0  0  0  0  0  0  0  0  0  0  0
   -0.9322    3.0204   -0.5636 C   0  0  0  0  0  0  0  0  0  0  0  0
   -1.0231    3.0766   -1.9547 O   0  0  0  0  0  0  0  0  0  0  0  0
    0.0252    2.3499   -2.5666 C   0  0  0  0  0  0  0  0  0  0  0  0
    0.8992    0.3758   -2.4603 H   0  0  0  0  0  0  0  0  0  0  0  0
   -0.8714    0.4021   -2.4415 H   0  0  0  0  0  0  0  0  0  0  0  0
   -0.1655   -0.2888   -0.0676 H   0  0  0  0  0  0  0  0  0  0  0  0
    0.9888    1.2842   -0.1797 H   0  0  0  0  0  0  0  0  0  0  0  0
    0.0232    3.4725   -0.2394 H   0  0  0  0  0  0  0  0  0  0  0  0
   -1.7732    3.5809   -0.1617 H   0  0  0  0  0  0  0  0  0  0  0  0
    0.9888    2.8273   -2.3313 H   0  0  0  0  0  0  0  0  0  0  0  0
   -0.1337    2.4158   -3.6420 H   0  0  0  0  0  0  0  0  0  0  0  0
  1  2  1  0
  1  6  1  0
  1  7  1  0
  1 22  1  0
  2  3  1  0
  3  4  1  0
  3  8  1  0
  3  9  1  0
  4  5  1  0
  4 10  1  0
  4 11  1  0
  5  6  1  0
  5 12  1  0
  5 13  1  0
 14 15  1  0
 14 19  1  0
 14 20  1  0
 14 21  1  0
 15 16  1  0
 15 23  1  0
 16 17  1  0
 17 18  1  0
 17 24  1  0
 17 25  1  0
 18 19  1  0
 19 26  1  0
 19 27  1  0
M  RAD  1  15   2
M  END
>  <reaction>  (14) 
rmg_rxn_258

>  <mol_properties>  (14) 
{"0": {"label": "*3", "atom_type": "Cs"}, "1": {"label": "*4", "atom_type": "O2s"}, "14": {"label": "*1", "atom_type": "Cs"}, "15": {"label": "*0", "atom_type": "O2s"}, "21": {"label": "*2", "atom_type": "H0"}}

>  <type>  (14) 
unop_10

>  <geom_source>  (14) 
Heuristics

$$$$

     RDKit          3D

 27 27  0  0  0  0  0  0  0  0999 V2000
    0.2599   -1.2171    0.5188 C   0  0  0  0  0  0  0  0  0  0  0  0
   -0.3904   -1.0662    1.7438 O   0  0  0  0  0  0  0  0  0  0  0  0
   -0.1303   -2.1616    2.6005 C   0  0  0  0  0  0  0  0  0  0  0  0
   -0.5315   -3.4667    1.9279 C   0  0  0  0  0  0  0  0  0  0  0  0
    0.1271   -3.5320    0.5573 C   0  0  0  0  0  0  0  0  0  0  0  0
   -0.1483   -2.3550   -0.1776 O   0  0  0  0  0  0  0  0  0  0  0  0
    1.3519   -1.2606    0.6856 H   0  0  0  0  0  0  0  0  0  0  0  0
    0.9405   -2.1824    2.8548 H   0  0  0  0  0  0  0  0  0  0  0  0
   -0.6941   -1.9847    3.5155 H   0  0  0  0  0  0  0  0  0  0  0  0
   -0.2280   -4.3200    2.5386 H   0  0  0  0  0  0  0  0  0  0  0  0
   -1.6165   -3.4963    1.8110 H   0  0  0  0  0  0  0  0  0  0  0  0
   -0.2467   -4.3661   -0.0349 H   0  0  0  0  0  0  0  0  0  0  0  0
    1.2161   -3.6493    0.6679 H   0  0  0  0  0  0  0  0  0  0  0  0
    0.6412    1.1754   -1.9802 C   0  0  0  0  0  0  0  0  0  0  0  0
    0.6412    1.1754   -0.4582 C   0  0  0  0  0  3  0  0  0  0  0  0
   -0.4071    1.9880    0.0339 O   0  0  0  0  0  0  0  0  0  0  0  0
   -0.3162    3.2875   -0.4654 C   0  0  0  0  0  0  0  0  0  0  0  0
   -0.4071    3.3437   -1.8564 O   0  0  0  0  0  0  0  0  0  0  0  0
    0.6412    2.6170   -2.4683 C   0  0  0  0  0  0  0  0  0  0  0  0
    1.5152    0.6429   -2.3621 H   0  0  0  0  0  0  0  0  0  0  0  0
   -0.2554    0.6692   -2.3432 H   0  0  0  0  0  0  0  0  0  0  0  0
    0.4504   -0.0217    0.0306 H   0  0  0  0  0  0  0  0  0  0  0  0
    1.6048    1.5513   -0.0815 H   0  0  0  0  0  0  0  0  0  0  0  0
    0.6391    3.7396   -0.1412 H   0  0  0  0  0  0  0  0  0  0  0  0
   -1.1573    3.8480   -0.0634 H   0  0  0  0  0  0  0  0  0  0  0  0
    1.6048    3.0944   -2.2330 H   0  0  0  0  0  0  0  0  0  0  0  0
    0.4822    2.6829   -3.5438 H   0  0  0  0  0  0  0  0  0  0  0  0
  1  2  1  0
  1  6  1  0
  1  7  1  0
  1 22  1  0
  2  3  1  0
  3  4  1  0
  3  8  1  0
  3  9  1  0
  4  5  1  0
  4 10  1  0
  4 11  1  0
  5  6  1  0
  5 12  1  0
  5 13  1  0
 14 15  1  0
 14 19  1  0
 14 20  1  0
 14 21  1  0
 15 16  1  0
 15 23  1  0
 16 17  1  0
 17 18  1  0
 17 24  1  0
 17 25  1  0
 18 19  1  0
 19 26  1  0
 19 27  1  0
M  RAD  1  15   2
M  END
>  <reaction>  (15) 
rmg_rxn_258

>  <mol_properties>  (15) 
{"0": {"label": "*3", "atom_type": "Cs"}, "1": {"label": "*4", "atom_type": "O2s"}, "14": {"label": "*1", "atom_type": "Cs"}, "15": {"label": "*0", "atom_type": "O2s"}, "21": {"label": "*2", "atom_type": "H0"}}

>  <type>  (15) 
unop_11

>  <geom_source>  (15) 
Heuristics

$$$$

     RDKit          3D

 27 27  0  0  0  0  0  0  0  0999 V2000
   -0.1329   -1.1249    0.7965 C   0  0  0  0  0  0  0  0  0  0  0  0
   -0.2718   -1.9968   -0.2837 O   0  0  0  0  0  0  0  0  0  0  0  0
   -0.4607   -3.3288    0.1538 C   0  0  0  0  0  0  0  0  0  0  0  0
    0.6879   -3.7577    1.0558 C   0  0  0  0  0  0  0  0  0  0  0  0
    0.8570   -2.7208    2.1571 C   0  0  0  0  0  0  0  0  0  0  0  0
    0.9674   -1.4250    1.6001 O   0  0  0  0  0  0  0  0  0  0  0  0
   -1.0528   -1.1495    1.4091 H   0  0  0  0  0  0  0  0  0  0  0  0
   -1.4150   -3.4049    0.6972 H   0  0  0  0  0  0  0  0  0  0  0  0
   -0.5283   -3.9461   -0.7410 H   0  0  0  0  0  0  0  0  0  0  0  0
    0.4889   -4.7421    1.4854 H   0  0  0  0  0  0  0  0  0  0  0  0
    1.6069   -3.8178    0.4696 H   0  0  0  0  0  0  0  0  0  0  0  0
    1.7614   -2.8895    2.7400 H   0  0  0  0  0  0  0  0  0  0  0  0
   -0.0046   -2.7540    2.8414 H   0  0  0  0  0  0  0  0  0  0  0  0
    0.2483    1.2676   -1.7025 C   0  0  0  0  0  0  0  0  0  0  0  0
    0.2483    1.2676   -0.1805 C   0  0  0  0  0  3  0  0  0  0  0  0
   -0.8000    2.0802    0.3116 O   0  0  0  0  0  0  0  0  0  0  0  0
   -0.7090    3.3798   -0.1877 C   0  0  0  0  0  0  0  0  0  0  0  0
   -0.8000    3.4360   -1.5787 O   0  0  0  0  0  0  0  0  0  0  0  0
    0.2483    2.7092   -2.1906 C   0  0  0  0  0  0  0  0  0  0  0  0
    1.1223    0.7351   -2.0844 H   0  0  0  0  0  0  0  0  0  0  0  0
   -0.6482    0.7614   -2.0655 H   0  0  0  0  0  0  0  0  0  0  0  0
    0.0576    0.0706    0.3083 H   0  0  0  0  0  0  0  0  0  0  0  0
    1.2120    1.6436    0.1963 H   0  0  0  0  0  0  0  0  0  0  0  0
    0.2463    3.8318    0.1365 H   0  0  0  0  0  0  0  0  0  0  0  0
   -1.5501    3.9403    0.2143 H   0  0  0  0  0  0  0  0  0  0  0  0
    1.2120    3.1866   -1.9553 H   0  0  0  0  0  0  0  0  0  0  0  0
    0.0894    2.7752   -3.2661 H   0  0  0  0  0  0  0  0  0  0  0  0
  1  2  1  0
  1  6  1  0
  1  7  1  0
  1 22  1  0
  2  3  1  0
  3  4  1  0
  3  8  1  0
  3  9  1  0
  4  5  1  0
  4 10  1  0
  4 11  1  0
  5  6  1  0
  5 12  1  0
  5 13  1  0
 14 15  1  0
 14 19  1  0
 14 20  1  0
 14 21  1  0
 15 16  1  0
 15 23  1  0
 16 17  1  0
 17 18  1  0
 17 24  1  0
 17 25  1  0
 18 19  1  0
 19 26  1  0
 19 27  1  0
M  RAD  1  15   2
M  END
>  <reaction>  (16) 
rmg_rxn_258

>  <mol_properties>  (16) 
{"0": {"label": "*3", "atom_type": "Cs"}, "1": {"label": "*4", "atom_type": "O2s"}, "14": {"label": "*1", "atom_type": "Cs"}, "15": {"label": "*0", "atom_type": "O2s"}, "21": {"label": "*2", "atom_type": "H0"}}

>  <type>  (16) 
unop_12

>  <geom_source>  (16) 
Heuristics

$$$$

     RDKit          3D

 27 27  0  0  0  0  0  0  0  0999 V2000
    1.8744   -0.0397    1.0137 O   0  0  0  0  0  0  0  0  0  0  0  0
    1.6450    0.3423   -1.2747 O   0  0  0  0  0  0  0  0  0  0  0  0
   -4.0973    0.0728   -0.0034 O   0  0  0  0  0  0  0  0  0  0  0  0
   -2.1232   -0.7905    1.0510 O   0  0  0  0  0  0  0  0  0  0  0  0
    3.8568   -0.0589   -0.3758 C   0  0  0  0  0  0  0  0  0  0  0  0
   -2.0845    1.3909    0.0314 C   0  0  0  0  0  0  0  0  0  0  0  0
    3.1578   -0.6123    0.8655 C   0  0  0  0  0  0  0  0  0  0  0  0
    2.9137   -0.2059   -1.5694 C   0  0  0  0  0  0  0  0  0  0  0  0
   -3.5590    1.3036    0.4275 C   0  0  0  0  0  0  0  0  0  0  0  0
    1.1028   -0.3111   -0.1418 C   0  0  0  0  0  3  0  0  0  0  0  0
   -3.4842   -1.0097    0.6918 C   0  0  0  0  0  0  0  0  0  0  0  0
   -1.4795   -0.0102    0.0685 C   0  0  0  0  0  0  0  0  0  0  0  0
    4.8022   -0.6120   -0.5629 H   0  0  0  0  0  0  0  0  0  0  0  0
    4.0923    1.0165   -0.2199 H   0  0  0  0  0  0  0  0  0  0  0  0
   -1.9830    1.8107   -0.9928 H   0  0  0  0  0  0  0  0  0  0  0  0
   -1.5433    2.0499    0.7430 H   0  0  0  0  0  0  0  0  0  0  0  0
    3.7650   -0.3620    1.7608 H   0  0  0  0  0  0  0  0  0  0  0  0
    3.0888   -1.7231    0.8132 H   0  0  0  0  0  0  0  0  0  0  0  0
    3.3443    0.3385   -2.4360 H   0  0  0  0  0  0  0  0  0  0  0  0
    2.8204   -1.2761   -1.8648 H   0  0  0  0  0  0  0  0  0  0  0  0
   -4.1196    2.1330   -0.0529 H   0  0  0  0  0  0  0  0  0  0  0  0
   -3.6768    1.4178    1.5301 H   0  0  0  0  0  0  0  0  0  0  0  0
    0.9838   -1.4078   -0.3129 H   0  0  0  0  0  0  0  0  0  0  0  0
   -0.1596    0.1833    0.0673 H   0  0  0  0  0  0  0  0  0  0  0  0
   -3.5465   -1.9191    0.0571 H   0  0  0  0  0  0  0  0  0  0  0  0
   -4.0648   -1.2167    1.6156 H   0  0  0  0  0  0  0  0  0  0  0  0
   -1.5260   -0.5042   -0.9294 H   0  0  0  0  0  0  0  0  0  0  0  0
  1  7  1  0
  1 10  1  0
  2  8  1  0
  2 10  1  0
  3  9  1  0
  3 11  1  0
  4 12  1  0
  4 11  1  0
  5  7  1  0
  5  8  1  0
  5 13  1  0
  5 14  1  0
  6  9  1  0
  6 12  1  0
  6 15  1  0
  6 16  1  0
  7 17  1  0
  7 18  1  0
  8 19  1  0
  8 20  1  0
  9 21  1  0
  9 22  1  0
 10 23  1  0
 11 25  1  0
 11 26  1  0
 12 24  1  0
 12 27  1  0
M  RAD  1  10   2
M  END
>  <reaction>  (17) 
rmg_rxn_258

>  <mol_properties>  (17) 
{"0": {"label": "*3", "atom_type": "Cs"}, "1": {"label": "*4", "atom_type": "O2s"}, "14": {"label": "*1", "atom_type": "Cs"}, "15": {"label": "*0", "atom_type": "O2s"}, "21": {"label": "*2", "atom_type": "H0"}}

>  <type>  (17) 
unop_13

>  <geom_source>  (17) 
AutoTST

$$$$

     RDKit          3D

 27 27  0  0  0  0  0  0  0  0999 V2000
   -0.3434   -1.2781    0.6433 C   0  0  0  0  0  0  0  0  0  0  0  0
    0.1858   -2.1889   -0.2714 O   0  0  0  0  0  0  0  0  0  0  0  0
    0.4306   -3.4425    0.3368 C   0  0  0  0  0  0  0  0  0  0  0  0
    1.3522   -3.2778    1.5369 C   0  0  0  0  0  0  0  0  0  0  0  0
    0.7775   -2.2041    2.4499 C   0  0  0  0  0  0  0  0  0  0  0  0
    0.5120   -1.0243    1.7158 O   0  0  0  0  0  0  0  0  0  0  0  0
   -1.3081   -1.6597    1.0253 H   0  0  0  0  0  0  0  0  0  0  0  0
   -0.5242   -3.8894    0.6536 H   0  0  0  0  0  0  0  0  0  0  0  0
    0.8686   -4.0820   -0.4283 H   0  0  0  0  0  0  0  0  0  0  0  0
    1.4515   -4.2233    2.0748 H   0  0  0  0  0  0  0  0  0  0  0  0
    2.3425   -2.9713    1.1947 H   0  0  0  0  0  0  0  0  0  0  0  0
    1.4713   -1.9302    3.2435 H   0  0  0  0  0  0  0  0  0  0  0  0
   -0.1530   -2.5640    2.9154 H   0  0  0  0  0  0  0  0  0  0  0  0
    0.0378    1.1144   -1.8557 C   0  0  0  0  0  0  0  0  0  0  0  0
    0.0378    1.1144   -0.3336 C   0  0  0  0  0  3  0  0  0  0  0  0
   -1.0105    1.9270    0.1585 O   0  0  0  0  0  0  0  0  0  0  0  0
   -0.9196    3.2266   -0.3408 C   0  0  0  0  0  0  0  0  0  0  0  0
   -1.0105    3.2828   -1.7319 O   0  0  0  0  0  0  0  0  0  0  0  0
    0.0378    2.5561   -2.3438 C   0  0  0  0  0  0  0  0  0  0  0  0
    0.9118    0.5820   -2.2375 H   0  0  0  0  0  0  0  0  0  0  0  0
   -0.8588    0.6083   -2.2187 H   0  0  0  0  0  0  0  0  0  0  0  0
   -0.1530   -0.0826    0.1552 H   0  0  0  0  0  0  0  0  0  0  0  0
    1.0014    1.4904    0.0431 H   0  0  0  0  0  0  0  0  0  0  0  0
    0.0357    3.6787   -0.0166 H   0  0  0  0  0  0  0  0  0  0  0  0
   -1.7607    3.7871    0.0611 H   0  0  0  0  0  0  0  0  0  0  0  0
    1.0014    3.0335   -2.1085 H   0  0  0  0  0  0  0  0  0  0  0  0
   -0.1212    2.6220   -3.4192 H   0  0  0  0  0  0  0  0  0  0  0  0
  1  2  1  0
  1  6  1  0
  1  7  1  0
  1 22  1  0
  2  3  1  0
  3  4  1  0
  3  8  1  0
  3  9  1  0
  4  5  1  0
  4 10  1  0
  4 11  1  0
  5  6  1  0
  5 12  1  0
  5 13  1  0
 14 15  1  0
 14 19  1  0
 14 20  1  0
 14 21  1  0
 15 16  1  0
 15 23  1  0
 16 17  1  0
 17 18  1  0
 17 24  1  0
 17 25  1  0
 18 19  1  0
 19 26  1  0
 19 27  1  0
M  RAD  1  15   2
M  END
>  <reaction>  (18) 
rmg_rxn_258

>  <mol_properties>  (18) 
{"0": {"label": "*3", "atom_type": "Cs"}, "1": {"label": "*4", "atom_type": "O2s"}, "14": {"label": "*1", "atom_type": "Cs"}, "15": {"label": "*0", "atom_type": "O2s"}, "21": {"label": "*2", "atom_type": "H0"}}

>  <type>  (18) 
unop_14

>  <geom_source>  (18) 
gaussian_log

$$$$
