
     RDKit          3D

  9  8  0  0  0  0  0  0  0  0999 V2000
   -1.0314    0.2323   -0.1227 C   0  0  0  0  0  0  0  0  0  0  0  0
    0.3094   -0.4511    0.0063 C   0  0  0  0  0  0  0  0  0  0  0  0
    0.3197   -1.7698    0.6841 N   0  0  0  0  0  0  0  0  0  0  0  0
   -0.7498   -2.1455    1.0557 O   0  0  0  0  0  0  0  0  0  0  0  0
   -1.4744    0.4198    0.8552 H   0  0  0  0  0  0  0  0  0  0  0  0
   -0.9073    1.1865   -0.6350 H   0  0  0  0  0  0  0  0  0  0  0  0
   -1.7319   -0.3778   -0.6927 H   0  0  0  0  0  0  0  0  0  0  0  0
    1.0375    0.1401    0.5713 H   0  0  0  0  0  0  0  0  0  0  0  0
    0.7826   -0.6494   -0.9609 H   0  0  0  0  0  0  0  0  0  0  0  0
  1  2  1  0
  1  5  1  0
  1  6  1  0
  1  7  1  0
  2  3  1  0
  2  8  1  0
  2  9  1  0
  3  4  2  0
M  END
>  <reaction>  (1) 
rmg_rxn_276

>  <mol_properties>  (1) 
{"1": {"label": "donator", "atom_type": "Cs"}, "7": {"label": "d_hydrogen", "atom_type": "H0"}}

>  <type>  (1) 
r1h

$$$$

     RDKit          3D

 17 16  0  0  0  0  0  0  0  0999 V2000
   -3.2378    0.0781    0.0468 C   0  0  0  0  0  0  0  0  0  0  0  0
   -1.9072   -0.5430    0.2348 C   0  0  0  0  0  3  0  0  0  0  0  0
   -1.5607   -0.7743    1.5229 O   0  0  0  0  0  0  0  0  0  0  0  0
   -0.2678   -1.3170    1.7206 C   0  0  0  0  0  0  0  0  0  0  0  0
    0.0055   -1.4164    3.2061 C   0  0  0  0  0  0  0  0  0  0  0  0
    0.0347   -0.0632    3.9042 C   0  0  0  0  0  0  0  0  0  0  0  0
   -3.2816    1.0982    0.4537 H   0  0  0  0  0  0  0  0  0  0  0  0
   -3.4818    0.1310   -1.0144 H   0  0  0  0  0  0  0  0  0  0  0  0
   -4.0139   -0.5033    0.5509 H   0  0  0  0  0  0  0  0  0  0  0  0
   -1.0896   -0.3480   -0.4562 H   0  0  0  0  0  0  0  0  0  0  0  0
   -0.2142   -2.3036    1.2476 H   0  0  0  0  0  0  0  0  0  0  0  0
    0.4751   -0.6679    1.2371 H   0  0  0  0  0  0  0  0  0  0  0  0
   -0.7555   -2.0574    3.6583 H   0  0  0  0  0  0  0  0  0  0  0  0
    0.9642   -1.9267    3.3334 H   0  0  0  0  0  0  0  0  0  0  0  0
   -0.9209    0.4499    3.7952 H   0  0  0  0  0  0  0  0  0  0  0  0
    0.2399   -0.1765    4.9695 H   0  0  0  0  0  0  0  0  0  0  0  0
    0.8109    0.5782    3.4796 H   0  0  0  0  0  0  0  0  0  0  0  0
  1  2  1  0
  1  7  1  0
  1  8  1  0
  1  9  1  0
  2  3  1  0
  2 10  1  0
  3  4  1  0
  4  5  1  0
  4 11  1  0
  4 12  1  0
  5  6  1  0
  5 13  1  0
  5 14  1  0
  6 15  1  0
  6 16  1  0
  6 17  1  0
M  RAD  1   2   2
M  END
>  <reaction>  (2) 
rmg_rxn_276

>  <mol_properties>  (2) 
{"1": {"label": "acceptor", "atom_type": "Cs"}}

>  <type>  (2) 
r2

$$$$

     RDKit          3D

 18 17  0  0  0  0  0  0  0  0999 V2000
    2.2026   -0.7213   -0.2612 C   0  0  0  0  0  0  0  0  0  0  0  0
    1.5384    0.2638    0.6915 C   0  0  0  0  0  0  0  0  0  0  0  0
    2.2584    1.5946    0.7694 C   0  0  0  0  0  0  0  0  0  0  0  0
    2.2212    2.2185   -0.4893 O   0  0  0  0  0  0  0  0  0  0  0  0
    2.8988    3.4488   -0.5204 C   0  0  0  0  0  0  0  0  0  0  0  0
    2.7981    4.0296   -1.9118 C   0  0  0  0  0  0  0  0  0  0  0  0
    3.2294   -0.9309    0.0486 H   0  0  0  0  0  0  0  0  0  0  0  0
    2.2338   -0.3181   -1.2734 H   0  0  0  0  0  0  0  0  0  0  0  0
    1.6610   -1.6680   -0.2875 H   0  0  0  0  0  0  0  0  0  0  0  0
    1.4990   -0.1566    1.7002 H   0  0  0  0  0  0  0  0  0  0  0  0
    0.5055    0.4455    0.3835 H   0  0  0  0  0  0  0  0  0  0  0  0
    3.3038    1.4410    1.0808 H   0  0  0  0  0  0  0  0  0  0  0  0
    1.7844    2.2410    1.5226 H   0  0  0  0  0  0  0  0  0  0  0  0
    2.4596    4.1376    0.2164 H   0  0  0  0  0  0  0  0  0  0  0  0
    3.9524    3.3035   -0.2397 H   0  0  0  0  0  0  0  0  0  0  0  0
    1.7543    4.1869   -2.1856 H   0  0  0  0  0  0  0  0  0  0  0  0
    3.2472    3.3545   -2.6411 H   0  0  0  0  0  0  0  0  0  0  0  0
    3.3178    4.9878   -1.9600 H   0  0  0  0  0  0  0  0  0  0  0  0
  1  2  1  0
  1  7  1  0
  1  8  1  0
  1  9  1  0
  2  3  1  0
  2 10  1  0
  2 11  1  0
  3  4  1  0
  3 12  1  0
  3 13  1  0
  4  5  1  0
  5  6  1  0
  5 14  1  0
  5 15  1  0
  6 16  1  0
  6 17  1  0
  6 18  1  0
M  END
>  <reaction>  (3) 
rmg_rxn_276

>  <mol_properties>  (3) 
{"0": {"label": "a_hydrogen", "atom_type": "H0"}, "2": {"label": "acceptor", "atom_type": "Cs"}}

>  <type>  (3) 
r2h

$$$$

     RDKit          3D

 26 24  0  0  0  0  0  0  0  0999 V2000
   -2.6667    0.6789   -0.4845 C   0  0  0  0  0  0  0  0  0  0  0  0
   -1.4036    1.4259   -0.1348 C   0  0  0  0  0  0  0  0  0  0  0  0
   -0.5562    1.8709   -1.1728 N   0  0  0  0  0  0  0  0  0  0  0  0
   -0.6094    1.2129   -2.2024 O   0  0  0  0  0  0  0  0  0  0  0  0
   -2.4487   -0.1736   -1.1262 H   0  0  0  0  0  0  0  0  0  0  0  0
   -3.1549    0.3248    0.4243 H   0  0  0  0  0  0  0  0  0  0  0  0
   -3.3643    1.3278   -1.0176 H   0  0  0  0  0  0  0  0  0  0  0  0
   -0.6795    0.5786    0.4832 H   0  0  0  0  0  0  0  0  0  0  0  0
   -1.5093    2.2151    0.6082 H   0  0  0  0  0  0  0  0  0  0  0  0
    0.5410    0.2106    2.4065 C   0  0  0  0  0  0  0  0  0  0  0  0
    0.0760   -0.4539    1.1530 C   0  0  0  0  0  3  0  0  0  0  0  0
    1.0790   -0.7660    0.3084 O   0  0  0  0  0  0  0  0  0  0  0  0
    0.7108   -1.5409   -0.8299 C   0  0  0  0  0  0  0  0  0  0  0  0
    1.9424   -1.7904   -1.6697 C   0  0  0  0  0  0  0  0  0  0  0  0
    3.0129   -2.6021   -0.9528 C   0  0  0  0  0  0  0  0  0  0  0  0
    1.1601    1.0763    2.1677 H   0  0  0  0  0  0  0  0  0  0  0  0
   -0.3134    0.5404    2.9979 H   0  0  0  0  0  0  0  0  0  0  0  0
    1.1363   -0.4775    3.0136 H   0  0  0  0  0  0  0  0  0  0  0  0
   -0.6936   -1.2260    1.2533 H   0  0  0  0  0  0  0  0  0  0  0  0
    0.2717   -2.4862   -0.4848 H   0  0  0  0  0  0  0  0  0  0  0  0
   -0.0397   -0.9911   -1.4067 H   0  0  0  0  0  0  0  0  0  0  0  0
    1.6187   -2.3086   -2.5760 H   0  0  0  0  0  0  0  0  0  0  0  0
    2.3424   -0.8251   -1.9878 H   0  0  0  0  0  0  0  0  0  0  0  0
    2.6276   -3.5794   -0.6512 H   0  0  0  0  0  0  0  0  0  0  0  0
    3.8747   -2.7681   -1.6002 H   0  0  0  0  0  0  0  0  0  0  0  0
    3.3591   -2.0862   -0.0568 H   0  0  0  0  0  0  0  0  0  0  0  0
  1  2  1  0
  1  5  1  0
  1  6  1  0
  1  7  1  0
  2  3  1  0
  2  8  1  0
  2  9  1  0
  3  4  2  0
 10 11  1  0
 10 16  1  0
 10 17  1  0
 10 18  1  0
 11 12  1  0
 11 19  1  0
 12 13  1  0
 13 14  1  0
 13 20  1  0
 13 21  1  0
 14 15  1  0
 14 22  1  0
 14 23  1  0
 15 24  1  0
 15 25  1  0
 15 26  1  0
M  RAD  1  11   2
M  END
>  <reaction>  (4) 
rmg_rxn_276

>  <mol_properties>  (4) 
{"1": {"label": "*1", "atom_type": "Cs"}, "2": {"label": "*0", "atom_type": "N3d"}, "7": {"label": "*2", "atom_type": "H0"}, "10": {"label": "*3", "atom_type": "Cs"}, "11": {"label": "*4", "atom_type": "O2s"}}

>  <type>  (4) 
ts

$$$$

     RDKit          3D

 26 24  0  0  0  0  0  0  0  0999 V2000
   -1.9666   -0.2126   -2.5378 C   0  0  0  0  0  0  0  0  0  0  0  0
   -1.9666   -0.2126   -1.0273 C   0  0  0  0  0  0  0  0  0  0  0  0
   -1.9666    1.1133   -0.3638 N   0  0  0  0  0  0  0  0  0  0  0  0
   -1.9666    2.0429   -1.1115 O   0  0  0  0  0  0  0  0  0  0  0  0
   -1.0865    0.2948   -2.9323 H   0  0  0  0  0  0  0  0  0  0  0  0
   -1.9666   -1.2398   -2.9031 H   0  0  0  0  0  0  0  0  0  0  0  0
   -2.8468    0.2948   -2.9323 H   0  0  0  0  0  0  0  0  0  0  0  0
   -0.9212   -0.8214   -0.5148 H   0  0  0  0  0  0  0  0  0  0  0  0
   -2.8378   -0.7199   -0.6002 H   0  0  0  0  0  0  0  0  0  0  0  0
   -1.0243   -1.9768    0.8109 C   0  0  0  0  0  0  0  0  0  0  0  0
    0.1292   -1.4331    0.0003 C   0  0  0  0  0  3  0  0  0  0  0  0
    0.8634   -0.5371    0.7952 O   0  0  0  0  0  0  0  0  0  0  0  0
    1.9647    0.0252    0.1274 C   0  0  0  0  0  0  0  0  0  0  0  0
    2.7113    0.9421    1.0745 C   0  0  0  0  0  0  0  0  0  0  0  0
    3.3026    0.2118    2.2730 C   0  0  0  0  0  0  0  0  0  0  0  0
   -1.6777   -1.1668    1.1368 H   0  0  0  0  0  0  0  0  0  0  0  0
   -1.6105   -2.6761    0.2126 H   0  0  0  0  0  0  0  0  0  0  0  0
   -0.6573   -2.4996    1.6949 H   0  0  0  0  0  0  0  0  0  0  0  0
    0.7801   -2.2522   -0.3397 H   0  0  0  0  0  0  0  0  0  0  0  0
    2.6333   -0.7734   -0.2311 H   0  0  0  0  0  0  0  0  0  0  0  0
    1.6222    0.5856   -0.7549 H   0  0  0  0  0  0  0  0  0  0  0  0
    3.5041    1.4379    0.5074 H   0  0  0  0  0  0  0  0  0  0  0  0
    2.0267    1.7245    1.4122 H   0  0  0  0  0  0  0  0  0  0  0  0
    4.0080   -0.5582    1.9508 H   0  0  0  0  0  0  0  0  0  0  0  0
    3.8363    0.9013    2.9288 H   0  0  0  0  0  0  0  0  0  0  0  0
    2.5189   -0.2739    2.8542 H   0  0  0  0  0  0  0  0  0  0  0  0
  1  2  1  0
  1  5  1  0
  1  6  1  0
  1  7  1  0
  2  3  1  0
  2  8  1  0
  2  9  1  0
  3  4  2  0
 10 11  1  0
 10 16  1  0
 10 17  1  0
 10 18  1  0
 11 12  1  0
 11 19  1  0
 12 13  1  0
 13 14  1  0
 13 20  1  0
 13 21  1  0
 14 15  1  0
 14 22  1  0
 14 23  1  0
 15 24  1  0
 15 25  1  0
 15 26  1  0
M  RAD  1  11   2
M  END
>  <reaction>  (5) 
rmg_rxn_276

>  <mol_properties>  (5) 
{"1": {"label": "*1", "atom_type": "Cs"}, "2": {"label": "*0", "atom_type": "N3d"}, "7": {"label": "*2", "atom_type": "H0"}, "10": {"label": "*3", "atom_type": "Cs"}, "11": {"label": "*4", "atom_type": "O2s"}}

>  <type>  (5) 
unop_1

>  <geom_source>  (5) 
Heuristics

$$$$

     RDKit          3D

 26 24  0  0  0  0  0  0  0  0999 V2000
   -2.0714    0.4763   -1.3704 C   0  0  0  0  0  0  0  0  0  0  0  0
   -2.0714    0.4763    0.1400 C   0  0  0  0  0  0  0  0  0  0  0  0
   -2.0714    1.8022    0.8036 N   0  0  0  0  0  0  0  0  0  0  0  0
   -2.0714    2.7318    0.0559 O   0  0  0  0  0  0  0  0  0  0  0  0
   -1.1912    0.9836   -1.7649 H   0  0  0  0  0  0  0  0  0  0  0  0
   -2.0714   -0.5509   -1.7357 H   0  0  0  0  0  0  0  0  0  0  0  0
   -2.9515    0.9836   -1.7649 H   0  0  0  0  0  0  0  0  0  0  0  0
   -1.0259   -0.1325    0.6526 H   0  0  0  0  0  0  0  0  0  0  0  0
   -2.9426   -0.0311    0.5672 H   0  0  0  0  0  0  0  0  0  0  0  0
    0.1953    0.2199    2.3187 C   0  0  0  0  0  0  0  0  0  0  0  0
    0.0245   -0.7442    1.1677 C   0  0  0  0  0  3  0  0  0  0  0  0
    1.1236   -0.6201    0.3015 O   0  0  0  0  0  0  0  0  0  0  0  0
    1.0583   -1.4814   -0.8070 C   0  0  0  0  0  0  0  0  0  0  0  0
    2.3002   -1.3020   -1.6560 C   0  0  0  0  0  0  0  0  0  0  0  0
    3.5826   -1.6848   -0.9291 C   0  0  0  0  0  0  0  0  0  0  0  0
    0.2508    1.2458    1.9528 H   0  0  0  0  0  0  0  0  0  0  0  0
   -0.6487    0.1417    3.0058 H   0  0  0  0  0  0  0  0  0  0  0  0
    1.1114    0.0006    2.8682 H   0  0  0  0  0  0  0  0  0  0  0  0
   -0.0454   -1.7774    1.5387 H   0  0  0  0  0  0  0  0  0  0  0  0
    0.9812   -2.5260   -0.4660 H   0  0  0  0  0  0  0  0  0  0  0  0
    0.1572   -1.2634   -1.3989 H   0  0  0  0  0  0  0  0  0  0  0  0
    2.1824   -1.9106   -2.5569 H   0  0  0  0  0  0  0  0  0  0  0  0
    2.3504   -0.2599   -1.9820 H   0  0  0  0  0  0  0  0  0  0  0  0
    3.5564   -2.7321   -0.6181 H   0  0  0  0  0  0  0  0  0  0  0  0
    4.4538   -1.5482   -1.5715 H   0  0  0  0  0  0  0  0  0  0  0  0
    3.7177   -1.0736   -0.0368 H   0  0  0  0  0  0  0  0  0  0  0  0
  1  2  1  0
  1  5  1  0
  1  6  1  0
  1  7  1  0
  2  3  1  0
  2  8  1  0
  2  9  1  0
  3  4  2  0
 10 11  1  0
 10 16  1  0
 10 17  1  0
 10 18  1  0
 11 12  1  0
 11 19  1  0
 12 13  1  0
 13 14  1  0
 13 20  1  0
 13 21  1  0
 14 15  1  0
 14 22  1  0
 14 23  1  0
 15 24  1  0
 15 25  1  0
 15 26  1  0
M  RAD  1  11   2
M  END
>  <reaction>  (6) 
rmg_rxn_276

>  <mol_properties>  (6) 
{"1": {"label": "*1", "atom_type": "Cs"}, "2": {"label": "*0", "atom_type": "N3d"}, "7": {"label": "*2", "atom_type": "H0"}, "10": {"label": "*3", "atom_type": "Cs"}, "11": {"label": "*4", "atom_type": "O2s"}}

>  <type>  (6) 
unop_2

>  <geom_source>  (6) 
Heuristics

$$$$

     RDKit          3D

 26 24  0  0  0  0  0  0  0  0999 V2000
   -1.6894   -0.0749   -2.8732 C   0  0  0  0  0  0  0  0  0  0  0  0
   -1.6894   -0.0749   -1.3627 C   0  0  0  0  0  0  0  0  0  0  0  0
   -1.6894    1.2511   -0.6991 N   0  0  0  0  0  0  0  0  0  0  0  0
   -1.6894    2.1806   -1.4468 O   0  0  0  0  0  0  0  0  0  0  0  0
   -0.8093    0.4325   -3.2677 H   0  0  0  0  0  0  0  0  0  0  0  0
   -1.6894   -1.1020   -3.2385 H   0  0  0  0  0  0  0  0  0  0  0  0
   -2.5695    0.4325   -3.2677 H   0  0  0  0  0  0  0  0  0  0  0  0
   -0.6440   -0.6836   -0.8501 H   0  0  0  0  0  0  0  0  0  0  0  0
   -2.5606   -0.5822   -0.9356 H   0  0  0  0  0  0  0  0  0  0  0  0
   -0.5076   -2.4762   -0.1037 C   0  0  0  0  0  0  0  0  0  0  0  0
    0.4065   -1.2953   -0.3351 C   0  0  0  0  0  3  0  0  0  0  0  0
    0.7344   -0.7222    0.9049 O   0  0  0  0  0  0  0  0  0  0  0  0
    1.5869    0.3897    0.7958 C   0  0  0  0  0  0  0  0  0  0  0  0
    1.9125    0.9105    2.1807 C   0  0  0  0  0  0  0  0  0  0  0  0
    2.6753   -0.0942    3.0340 C   0  0  0  0  0  0  0  0  0  0  0  0
   -1.4220   -2.1590    0.3989 H   0  0  0  0  0  0  0  0  0  0  0  0
   -0.7767   -2.9381   -1.0549 H   0  0  0  0  0  0  0  0  0  0  0  0
   -0.0151   -3.2246    0.5182 H   0  0  0  0  0  0  0  0  0  0  0  0
    1.3223   -1.6140   -0.8545 H   0  0  0  0  0  0  0  0  0  0  0  0
    2.5128    0.1022    0.2728 H   0  0  0  0  0  0  0  0  0  0  0  0
    1.1037    1.1755    0.1968 H   0  0  0  0  0  0  0  0  0  0  0  0
    2.4971    1.8275    2.0662 H   0  0  0  0  0  0  0  0  0  0  0  0
    0.9785    1.1899    2.6750 H   0  0  0  0  0  0  0  0  0  0  0  0
    3.6236   -0.3648    2.5630 H   0  0  0  0  0  0  0  0  0  0  0  0
    2.8967    0.3163    4.0203 H   0  0  0  0  0  0  0  0  0  0  0  0
    2.0949   -1.0071    3.1671 H   0  0  0  0  0  0  0  0  0  0  0  0
  1  2  1  0
  1  5  1  0
  1  6  1  0
  1  7  1  0
  2  3  1  0
  2  8  1  0
  2  9  1  0
  3  4  2  0
 10 11  1  0
 10 16  1  0
 10 17  1  0
 10 18  1  0
 11 12  1  0
 11 19  1  0
 12 13  1  0
 13 14  1  0
 13 20  1  0
 13 21  1  0
 14 15  1  0
 14 22  1  0
 14 23  1  0
 15 24  1  0
 15 25  1  0
 15 26  1  0
M  RAD  1  11   2
M  END
>  <reaction>  (7) 
rmg_rxn_276

>  <mol_properties>  (7) 
{"1": {"label": "*1", "atom_type": "Cs"}, "2": {"label": "*0", "atom_type": "N3d"}, "7": {"label": "*2", "atom_type": "H0"}, "10": {"label": "*3", "atom_type": "Cs"}, "11": {"label": "*4", "atom_type": "O2s"}}

>  <type>  (7) 
unop_3

>  <geom_source>  (7) 
Heuristics

$$$$

     RDKit          3D

 26 24  0  0  0  0  0  0  0  0999 V2000
   -1.1093    1.3884   -1.8334 C   0  0  0  0  0  0  0  0  0  0  0  0
   -1.1093    1.3884   -0.3229 C   0  0  0  0  0  0  0  0  0  0  0  0
   -1.1093    2.7143    0.3407 N   0  0  0  0  0  0  0  0  0  0  0  0
   -1.1093    3.6439   -0.4070 O   0  0  0  0  0  0  0  0  0  0  0  0
   -0.2292    1.8957   -2.2279 H   0  0  0  0  0  0  0  0  0  0  0  0
   -1.1093    0.3612   -2.1986 H   0  0  0  0  0  0  0  0  0  0  0  0
   -1.9895    1.8957   -2.2279 H   0  0  0  0  0  0  0  0  0  0  0  0
   -0.0639    0.7796    0.1897 H   0  0  0  0  0  0  0  0  0  0  0  0
   -1.9805    0.8811    0.1043 H   0  0  0  0  0  0  0  0  0  0  0  0
    2.3986    0.6213    0.9945 C   0  0  0  0  0  0  0  0  0  0  0  0
    0.9865    0.1679    0.7047 C   0  0  0  0  0  3  0  0  0  0  0  0
    1.0148   -1.1720    0.2837 O   0  0  0  0  0  0  0  0  0  0  0  0
   -0.2581   -1.6896   -0.0109 C   0  0  0  0  0  0  0  0  0  0  0  0
   -0.1274   -3.1437   -0.4158 C   0  0  0  0  0  0  0  0  0  0  0  0
    0.4144   -4.0290    0.6986 C   0  0  0  0  0  0  0  0  0  0  0  0
    3.0176    0.5383    0.1005 H   0  0  0  0  0  0  0  0  0  0  0  0
    2.4017    1.6617    1.3234 H   0  0  0  0  0  0  0  0  0  0  0  0
    2.8434    0.0083    1.7791 H   0  0  0  0  0  0  0  0  0  0  0  0
    0.3595    0.2651    1.6033 H   0  0  0  0  0  0  0  0  0  0  0  0
   -0.9123   -1.6001    0.8708 H   0  0  0  0  0  0  0  0  0  0  0  0
   -0.7210   -1.1082   -0.8218 H   0  0  0  0  0  0  0  0  0  0  0  0
   -1.1142   -3.4953   -0.7295 H   0  0  0  0  0  0  0  0  0  0  0  0
    0.5232   -3.2029   -1.2921 H   0  0  0  0  0  0  0  0  0  0  0  0
   -0.2397   -3.9982    1.5736 H   0  0  0  0  0  0  0  0  0  0  0  0
    0.4897   -5.0677    0.3734 H   0  0  0  0  0  0  0  0  0  0  0  0
    1.4048   -3.6962    1.0090 H   0  0  0  0  0  0  0  0  0  0  0  0
  1  2  1  0
  1  5  1  0
  1  6  1  0
  1  7  1  0
  2  3  1  0
  2  8  1  0
  2  9  1  0
  3  4  2  0
 10 11  1  0
 10 16  1  0
 10 17  1  0
 10 18  1  0
 11 12  1  0
 11 19  1  0
 12 13  1  0
 13 14  1  0
 13 20  1  0
 13 21  1  0
 14 15  1  0
 14 22  1  0
 14 23  1  0
 15 24  1  0
 15 25  1  0
 15 26  1  0
M  RAD  1  11   2
M  END
>  <reaction>  (8) 
rmg_rxn_276

>  <mol_properties>  (8) 
{"1": {"label": "*1", "atom_type": "Cs"}, "2": {"label": "*0", "atom_type": "N3d"}, "7": {"label": "*2", "atom_type": "H0"}, "10": {"label": "*3", "atom_type": "Cs"}, "11": {"label": "*4", "atom_type": "O2s"}}

>  <type>  (8) 
unop_4

>  <geom_source>  (8) 
Heuristics

$$$$

     RDKit          3D

 26 24  0  0  0  0  0  0  0  0999 V2000
   -1.3453    0.1831   -3.0546 C   0  0  0  0  0  0  0  0  0  0  0  0
   -1.3453    0.1831   -1.5441 C   0  0  0  0  0  0  0  0  0  0  0  0
   -1.3453    1.5090   -0.8805 N   0  0  0  0  0  0  0  0  0  0  0  0
   -1.3453    2.4386   -1.6282 O   0  0  0  0  0  0  0  0  0  0  0  0
   -0.4652    0.6904   -3.4491 H   0  0  0  0  0  0  0  0  0  0  0  0
   -1.3453   -0.8441   -3.4198 H   0  0  0  0  0  0  0  0  0  0  0  0
   -2.2254    0.6904   -3.4491 H   0  0  0  0  0  0  0  0  0  0  0  0
   -0.2999   -0.4257   -1.0315 H   0  0  0  0  0  0  0  0  0  0  0  0
   -2.2165   -0.3243   -1.1169 H   0  0  0  0  0  0  0  0  0  0  0  0
    0.7960   -2.4789   -0.9677 C   0  0  0  0  0  0  0  0  0  0  0  0
    0.7506   -1.0374   -0.5165 C   0  0  0  0  0  3  0  0  0  0  0  0
    0.6865   -1.0001    0.8864 O   0  0  0  0  0  0  0  0  0  0  0  0
    0.6413    0.3045    1.4068 C   0  0  0  0  0  0  0  0  0  0  0  0
    0.6137    0.2407    2.9202 C   0  0  0  0  0  0  0  0  0  0  0  0
    1.8690   -0.3825    3.5161 C   0  0  0  0  0  0  0  0  0  0  0  0
   -0.0949   -3.0120   -0.6341 H   0  0  0  0  0  0  0  0  0  0  0  0
    0.8455   -2.5329   -2.0563 H   0  0  0  0  0  0  0  0  0  0  0  0
    1.6720   -2.9809   -0.5553 H   0  0  0  0  0  0  0  0  0  0  0  0
    1.6429   -0.4970   -0.8653 H   0  0  0  0  0  0  0  0  0  0  0  0
    1.5217    0.8737    1.0685 H   0  0  0  0  0  0  0  0  0  0  0  0
   -0.2503    0.8276    1.0309 H   0  0  0  0  0  0  0  0  0  0  0  0
    0.4837    1.2589    3.2973 H   0  0  0  0  0  0  0  0  0  0  0  0
   -0.2690   -0.3260    3.2277 H   0  0  0  0  0  0  0  0  0  0  0  0
    2.7579    0.1883    3.2363 H   0  0  0  0  0  0  0  0  0  0  0  0
    1.8161   -0.4068    4.6055 H   0  0  0  0  0  0  0  0  0  0  0  0
    2.0003   -1.4036    3.1582 H   0  0  0  0  0  0  0  0  0  0  0  0
  1  2  1  0
  1  5  1  0
  1  6  1  0
  1  7  1  0
  2  3  1  0
  2  8  1  0
  2  9  1  0
  3  4  2  0
 10 11  1  0
 10 16  1  0
 10 17  1  0
 10 18  1  0
 11 12  1  0
 11 19  1  0
 12 13  1  0
 13 14  1  0
 13 20  1  0
 13 21  1  0
 14 15  1  0
 14 22  1  0
 14 23  1  0
 15 24  1  0
 15 25  1  0
 15 26  1  0
M  RAD  1  11   2
M  END
>  <reaction>  (9) 
rmg_rxn_276

>  <mol_properties>  (9) 
{"1": {"label": "*1", "atom_type": "Cs"}, "2": {"label": "*0", "atom_type": "N3d"}, "7": {"label": "*2", "atom_type": "H0"}, "10": {"label": "*3", "atom_type": "Cs"}, "11": {"label": "*4", "atom_type": "O2s"}}

>  <type>  (9) 
unop_5

>  <geom_source>  (9) 
Heuristics

$$$$

     RDKit          3D

 26 24  0  0  0  0  0  0  0  0999 V2000
   -0.8963    1.3143   -2.2968 C   0  0  0  0  0  0  0  0  0  0  0  0
   -0.8963    1.3143   -0.7863 C   0  0  0  0  0  0  0  0  0  0  0  0
   -0.8963    2.6402   -0.1227 N   0  0  0  0  0  0  0  0  0  0  0  0
   -0.8963    3.5698   -0.8704 O   0  0  0  0  0  0  0  0  0  0  0  0
   -0.0161    1.8216   -2.6913 H   0  0  0  0  0  0  0  0  0  0  0  0
   -0.8963    0.2871   -2.6621 H   0  0  0  0  0  0  0  0  0  0  0  0
   -1.7764    1.8216   -2.6913 H   0  0  0  0  0  0  0  0  0  0  0  0
    0.1492    0.7055   -0.2737 H   0  0  0  0  0  0  0  0  0  0  0  0
   -1.7675    0.8069   -0.3592 H   0  0  0  0  0  0  0  0  0  0  0  0
    2.6984    0.2851    0.2194 C   0  0  0  0  0  0  0  0  0  0  0  0
    1.1996    0.0938    0.2413 C   0  0  0  0  0  3  0  0  0  0  0  0
    0.9162   -1.2694    0.4282 O   0  0  0  0  0  0  0  0  0  0  0  0
   -0.4600   -1.5518    0.4640 C   0  0  0  0  0  0  0  0  0  0  0  0
   -0.6623   -3.0333    0.7075 C   0  0  0  0  0  0  0  0  0  0  0  0
   -0.1253   -3.4975    2.0548 C   0  0  0  0  0  0  0  0  0  0  0  0
    3.1452   -0.2897   -0.5926 H   0  0  0  0  0  0  0  0  0  0  0  0
    2.9430    1.3386    0.0744 H   0  0  0  0  0  0  0  0  0  0  0  0
    3.1399   -0.0472    1.1596 H   0  0  0  0  0  0  0  0  0  0  0  0
    0.7484    0.6848    1.0519 H   0  0  0  0  0  0  0  0  0  0  0  0
   -0.9416   -0.9680    1.2645 H   0  0  0  0  0  0  0  0  0  0  0  0
   -0.9289   -1.2538   -0.4853 H   0  0  0  0  0  0  0  0  0  0  0  0
   -1.7334   -3.2424    0.6371 H   0  0  0  0  0  0  0  0  0  0  0  0
   -0.1778   -3.5873   -0.1007 H   0  0  0  0  0  0  0  0  0  0  0  0
   -0.6186   -2.9685    2.8741 H   0  0  0  0  0  0  0  0  0  0  0  0
   -0.2930   -4.5660    2.1974 H   0  0  0  0  0  0  0  0  0  0  0  0
    0.9453   -3.3073    2.1299 H   0  0  0  0  0  0  0  0  0  0  0  0
  1  2  1  0
  1  5  1  0
  1  6  1  0
  1  7  1  0
  2  3  1  0
  2  8  1  0
  2  9  1  0
  3  4  2  0
 10 11  1  0
 10 16  1  0
 10 17  1  0
 10 18  1  0
 11 12  1  0
 11 19  1  0
 12 13  1  0
 13 14  1  0
 13 20  1  0
 13 21  1  0
 14 15  1  0
 14 22  1  0
 14 23  1  0
 15 24  1  0
 15 25  1  0
 15 26  1  0
M  RAD  1  11   2
M  END
>  <reaction>  (10) 
rmg_rxn_276

>  <mol_properties>  (10) 
{"1": {"label": "*1", "atom_type": "Cs"}, "2": {"label": "*0", "atom_type": "N3d"}, "7": {"label": "*2", "atom_type": "H0"}, "10": {"label": "*3", "atom_type": "Cs"}, "11": {"label": "*4", "atom_type": "O2s"}}

>  <type>  (10) 
unop_6

>  <geom_source>  (10) 
Heuristics

$$$$

     RDKit          3D

 26 24  0  0  0  0  0  0  0  0999 V2000
   -0.8500    1.0243   -2.7347 C   0  0  0  0  0  0  0  0  0  0  0  0
   -0.8500    1.0243   -1.2243 C   0  0  0  0  0  0  0  0  0  0  0  0
   -0.8500    2.3502   -0.5607 N   0  0  0  0  0  0  0  0  0  0  0  0
   -0.8500    3.2798   -1.3084 O   0  0  0  0  0  0  0  0  0  0  0  0
    0.0301    1.5316   -3.1292 H   0  0  0  0  0  0  0  0  0  0  0  0
   -0.8500   -0.0029   -3.1000 H   0  0  0  0  0  0  0  0  0  0  0  0
   -1.7301    1.5316   -3.1292 H   0  0  0  0  0  0  0  0  0  0  0  0
    0.1954    0.4155   -0.7117 H   0  0  0  0  0  0  0  0  0  0  0  0
   -1.7212    0.5169   -0.7971 H   0  0  0  0  0  0  0  0  0  0  0  0
    2.6937   -0.3983   -0.5795 C   0  0  0  0  0  0  0  0  0  0  0  0
    1.2459   -0.1962   -0.1966 C   0  0  0  0  0  3  0  0  0  0  0  0
    0.8289   -1.2769    0.5983 O   0  0  0  0  0  0  0  0  0  0  0  0
   -0.5117   -1.1810    1.0087 C   0  0  0  0  0  0  0  0  0  0  0  0
   -0.8534   -2.3661    1.8884 C   0  0  0  0  0  0  0  0  0  0  0  0
   -0.0441   -2.4077    3.1778 C   0  0  0  0  0  0  0  0  0  0  0  0
    2.8147   -1.3254   -1.1409 H   0  0  0  0  0  0  0  0  0  0  0  0
    3.0401    0.4304   -1.1991 H   0  0  0  0  0  0  0  0  0  0  0  0
    3.3207   -0.4511    0.3113 H   0  0  0  0  0  0  0  0  0  0  0  0
    1.1226    0.7460    0.3575 H   0  0  0  0  0  0  0  0  0  0  0  0
   -0.6677   -0.2417    1.5626 H   0  0  0  0  0  0  0  0  0  0  0  0
   -1.1722   -1.1557    0.1296 H   0  0  0  0  0  0  0  0  0  0  0  0
   -1.9219   -2.3186    2.1162 H   0  0  0  0  0  0  0  0  0  0  0  0
   -0.6923   -3.2823    1.3145 H   0  0  0  0  0  0  0  0  0  0  0  0
   -0.2141   -1.5075    3.7737 H   0  0  0  0  0  0  0  0  0  0  0  0
   -0.3202   -3.2695    3.7871 H   0  0  0  0  0  0  0  0  0  0  0  0
    1.0226   -2.4701    2.9622 H   0  0  0  0  0  0  0  0  0  0  0  0
  1  2  1  0
  1  5  1  0
  1  6  1  0
  1  7  1  0
  2  3  1  0
  2  8  1  0
  2  9  1  0
  3  4  2  0
 10 11  1  0
 10 16  1  0
 10 17  1  0
 10 18  1  0
 11 12  1  0
 11 19  1  0
 12 13  1  0
 13 14  1  0
 13 20  1  0
 13 21  1  0
 14 15  1  0
 14 22  1  0
 14 23  1  0
 15 24  1  0
 15 25  1  0
 15 26  1  0
M  RAD  1  11   2
M  END
>  <reaction>  (11) 
rmg_rxn_276

>  <mol_properties>  (11) 
{"1": {"label": "*1", "atom_type": "Cs"}, "2": {"label": "*0", "atom_type": "N3d"}, "7": {"label": "*2", "atom_type": "H0"}, "10": {"label": "*3", "atom_type": "Cs"}, "11": {"label": "*4", "atom_type": "O2s"}}

>  <type>  (11) 
unop_7

>  <geom_source>  (11) 
Heuristics

$$$$

     RDKit          3D

 26 24  0  0  0  0  0  0  0  0999 V2000
   -2.1563   -0.1705   -2.1003 C   0  0  0  0  0  0  0  0  0  0  0  0
   -2.1563   -0.1705   -0.5899 C   0  0  0  0  0  0  0  0  0  0  0  0
   -2.1563    1.1554    0.0737 N   0  0  0  0  0  0  0  0  0  0  0  0
   -2.1563    2.0850   -0.6740 O   0  0  0  0  0  0  0  0  0  0  0  0
   -1.2762    0.3368   -2.4948 H   0  0  0  0  0  0  0  0  0  0  0  0
   -2.1563   -1.1977   -2.4656 H   0  0  0  0  0  0  0  0  0  0  0  0
   -3.0365    0.3368   -2.4948 H   0  0  0  0  0  0  0  0  0  0  0  0
   -1.1109   -0.7793   -0.0773 H   0  0  0  0  0  0  0  0  0  0  0  0
   -3.0275   -0.6778   -0.1627 H   0  0  0  0  0  0  0  0  0  0  0  0
   -1.0136   -1.2946    1.6064 C   0  0  0  0  0  0  0  0  0  0  0  0
   -0.0605   -1.3910    0.4378 C   0  0  0  0  0  3  0  0  0  0  0  0
    0.9853   -0.4718    0.6247 O   0  0  0  0  0  0  0  0  0  0  0  0
    1.9306   -0.4855   -0.4151 C   0  0  0  0  0  0  0  0  0  0  0  0
    3.0331    0.5060   -0.1045 C   0  0  0  0  0  0  0  0  0  0  0  0
    3.8181    0.1542    1.1522 C   0  0  0  0  0  0  0  0  0  0  0  0
   -1.4279   -0.2885    1.6796 H   0  0  0  0  0  0  0  0  0  0  0  0
   -1.8362   -2.0006    1.4827 H   0  0  0  0  0  0  0  0  0  0  0  0
   -0.4980   -1.5230    2.5399 H   0  0  0  0  0  0  0  0  0  0  0  0
    0.3463   -2.4098    0.3564 H   0  0  0  0  0  0  0  0  0  0  0  0
    2.3522   -1.4973   -0.5250 H   0  0  0  0  0  0  0  0  0  0  0  0
    1.4442   -0.2289   -1.3677 H   0  0  0  0  0  0  0  0  0  0  0  0
    3.7030    0.5454   -0.9679 H   0  0  0  0  0  0  0  0  0  0  0  0
    2.5882    1.4993   -0.0033 H   0  0  0  0  0  0  0  0  0  0  0  0
    4.2887   -0.8274    1.0555 H   0  0  0  0  0  0  0  0  0  0  0  0
    4.6053    0.8856    1.3411 H   0  0  0  0  0  0  0  0  0  0  0  0
    3.1620    0.1269    2.0222 H   0  0  0  0  0  0  0  0  0  0  0  0
  1  2  1  0
  1  5  1  0
  1  6  1  0
  1  7  1  0
  2  3  1  0
  2  8  1  0
  2  9  1  0
  3  4  2  0
 10 11  1  0
 10 16  1  0
 10 17  1  0
 10 18  1  0
 11 12  1  0
 11 19  1  0
 12 13  1  0
 13 14  1  0
 13 20  1  0
 13 21  1  0
 14 15  1  0
 14 22  1  0
 14 23  1  0
 15 24  1  0
 15 25  1  0
 15 26  1  0
M  RAD  1  11   2
M  END
>  <reaction>  (12) 
rmg_rxn_276

>  <mol_properties>  (12) 
{"1": {"label": "*1", "atom_type": "Cs"}, "2": {"label": "*0", "atom_type": "N3d"}, "7": {"label": "*2", "atom_type": "H0"}, "10": {"label": "*3", "atom_type": "Cs"}, "11": {"label": "*4", "atom_type": "O2s"}}

>  <type>  (12) 
unop_8

>  <geom_source>  (12) 
Heuristics

$$$$

     RDKit          3D

 26 24  0  0  0  0  0  0  0  0999 V2000
   -1.4320    1.2392   -1.4673 C   0  0  0  0  0  0  0  0  0  0  0  0
   -1.4320    1.2392    0.0432 C   0  0  0  0  0  0  0  0  0  0  0  0
   -1.4320    2.5652    0.7067 N   0  0  0  0  0  0  0  0  0  0  0  0
   -1.4320    3.4947   -0.0410 O   0  0  0  0  0  0  0  0  0  0  0  0
   -0.5519    1.7466   -1.8618 H   0  0  0  0  0  0  0  0  0  0  0  0
   -1.4320    0.2121   -1.8326 H   0  0  0  0  0  0  0  0  0  0  0  0
   -2.3122    1.7466   -1.8618 H   0  0  0  0  0  0  0  0  0  0  0  0
   -0.3866    0.6304    0.5557 H   0  0  0  0  0  0  0  0  0  0  0  0
   -2.3032    0.7319    0.4703 H   0  0  0  0  0  0  0  0  0  0  0  0
    1.8707    0.7323    1.6345 C   0  0  0  0  0  0  0  0  0  0  0  0
    0.6638    0.0187    1.0708 C   0  0  0  0  0  3  0  0  0  0  0  0
    1.0983   -0.9984    0.2046 O   0  0  0  0  0  0  0  0  0  0  0  0
    0.0435   -1.7251   -0.3734 C   0  0  0  0  0  0  0  0  0  0  0  0
    0.6112   -2.8183   -1.2555 C   0  0  0  0  0  0  0  0  0  0  0  0
    1.4276   -3.8466   -0.4839 C   0  0  0  0  0  0  0  0  0  0  0  0
    2.4639    1.1723    0.8321 H   0  0  0  0  0  0  0  0  0  0  0  0
    1.5572    1.5287    2.3112 H   0  0  0  0  0  0  0  0  0  0  0  0
    2.5025    0.0361    2.1874 H   0  0  0  0  0  0  0  0  0  0  0  0
    0.0588   -0.4128    1.8817 H   0  0  0  0  0  0  0  0  0  0  0  0
   -0.5854   -2.1654    0.4166 H   0  0  0  0  0  0  0  0  0  0  0  0
   -0.5962   -1.0526   -0.9636 H   0  0  0  0  0  0  0  0  0  0  0  0
   -0.2240   -3.3066   -1.7653 H   0  0  0  0  0  0  0  0  0  0  0  0
    1.2274   -2.3544   -2.0300 H   0  0  0  0  0  0  0  0  0  0  0  0
    0.8169   -4.3361    0.2789 H   0  0  0  0  0  0  0  0  0  0  0  0
    1.8151   -4.6196   -1.1492 H   0  0  0  0  0  0  0  0  0  0  0  0
    2.2720   -3.3726    0.0164 H   0  0  0  0  0  0  0  0  0  0  0  0
  1  2  1  0
  1  5  1  0
  1  6  1  0
  1  7  1  0
  2  3  1  0
  2  8  1  0
  2  9  1  0
  3  4  2  0
 10 11  1  0
 10 16  1  0
 10 17  1  0
 10 18  1  0
 11 12  1  0
 11 19  1  0
 12 13  1  0
 13 14  1  0
 13 20  1  0
 13 21  1  0
 14 15  1  0
 14 22  1  0
 14 23  1  0
 15 24  1  0
 15 25  1  0
 15 26  1  0
M  RAD  1  11   2
M  END
>  <reaction>  (13) 
rmg_rxn_276

>  <mol_properties>  (13) 
{"1": {"label": "*1", "atom_type": "Cs"}, "2": {"label": "*0", "atom_type": "N3d"}, "7": {"label": "*2", "atom_type": "H0"}, "10": {"label": "*3", "atom_type": "Cs"}, "11": {"label": "*4", "atom_type": "O2s"}}

>  <type>  (13) 
unop_9

>  <geom_source>  (13) 
Heuristics

$$$$

     RDKit          3D

 26 24  0  0  0  0  0  0  0  0999 V2000
   -2.2023    0.0774   -1.6696 C   0  0  0  0  0  0  0  0  0  0  0  0
   -2.2023    0.0774   -0.1592 C   0  0  0  0  0  0  0  0  0  0  0  0
   -2.2023    1.4034    0.5044 N   0  0  0  0  0  0  0  0  0  0  0  0
   -2.2023    2.3329   -0.2433 O   0  0  0  0  0  0  0  0  0  0  0  0
   -1.3222    0.5848   -2.0641 H   0  0  0  0  0  0  0  0  0  0  0  0
   -2.2023   -0.9497   -2.0349 H   0  0  0  0  0  0  0  0  0  0  0  0
   -3.0824    0.5848   -2.0641 H   0  0  0  0  0  0  0  0  0  0  0  0
   -1.1569   -0.5314    0.3534 H   0  0  0  0  0  0  0  0  0  0  0  0
   -3.0735   -0.4299    0.2680 H   0  0  0  0  0  0  0  0  0  0  0  0
   -0.5810   -0.4992    2.1506 C   0  0  0  0  0  0  0  0  0  0  0  0
   -0.1064   -1.1431    0.8685 C   0  0  0  0  0  3  0  0  0  0  0  0
    1.0729   -0.5064    0.4474 O   0  0  0  0  0  0  0  0  0  0  0  0
    1.5969   -1.0371   -0.7437 C   0  0  0  0  0  0  0  0  0  0  0  0
    2.8821   -0.3148   -1.0925 C   0  0  0  0  0  0  0  0  0  0  0  0
    3.9787   -0.5087   -0.0537 C   0  0  0  0  0  0  0  0  0  0  0  0
   -0.7811    0.5614    1.9943 H   0  0  0  0  0  0  0  0  0  0  0  0
   -1.4982   -0.9780    2.4971 H   0  0  0  0  0  0  0  0  0  0  0  0
    0.1761   -0.5955    2.9296 H   0  0  0  0  0  0  0  0  0  0  0  0
    0.0817   -2.2157    1.0236 H   0  0  0  0  0  0  0  0  0  0  0  0
    1.7903   -2.1146   -0.6207 H   0  0  0  0  0  0  0  0  0  0  0  0
    0.8649   -0.9272   -1.5573 H   0  0  0  0  0  0  0  0  0  0  0  0
    3.2185   -0.6789   -2.0672 H   0  0  0  0  0  0  0  0  0  0  0  0
    2.6612    0.7492   -1.2109 H   0  0  0  0  0  0  0  0  0  0  0  0
    4.2269   -1.5672    0.0578 H   0  0  0  0  0  0  0  0  0  0  0  0
    4.8890    0.0200   -0.3402 H   0  0  0  0  0  0  0  0  0  0  0  0
    3.6593   -0.1352    0.9192 H   0  0  0  0  0  0  0  0  0  0  0  0
  1  2  1  0
  1  5  1  0
  1  6  1  0
  1  7  1  0
  2  3  1  0
  2  8  1  0
  2  9  1  0
  3  4  2  0
 10 11  1  0
 10 16  1  0
 10 17  1  0
 10 18  1  0
 11 12  1  0
 11 19  1  0
 12 13  1  0
 13 14  1  0
 13 20  1  0
 13 21  1  0
 14 15  1  0
 14 22  1  0
 14 23  1  0
 15 24  1  0
 15 25  1  0
 15 26  1  0
M  RAD  1  11   2
M  END
>  <reaction>  (14) 
rmg_rxn_276

>  <mol_properties>  (14) 
{"1": {"label": "*1", "atom_type": "Cs"}, "2": {"label": "*0", "atom_type": "N3d"}, "7": {"label": "*2", "atom_type": "H0"}, "10": {"label": "*3", "atom_type": "Cs"}, "11": {"label": "*4", "atom_type": "O2s"}}

>  <type>  (14) 
unop_10

>  <geom_source>  (14) 
Heuristics

$$$$

     RDKit          3D

 26 24  0  0  0  0  0  0  0  0999 V2000
   -1.0071    0.5910   -3.0195 C   0  0  0  0  0  0  0  0  0  0  0  0
   -1.0071    0.5910   -1.5091 C   0  0  0  0  0  0  0  0  0  0  0  0
   -1.0071    1.9170   -0.8455 N   0  0  0  0  0  0  0  0  0  0  0  0
   -1.0071    2.8465   -1.5932 O   0  0  0  0  0  0  0  0  0  0  0  0
   -0.1269    1.0984   -3.4140 H   0  0  0  0  0  0  0  0  0  0  0  0
   -1.0071   -0.4361   -3.3848 H   0  0  0  0  0  0  0  0  0  0  0  0
   -1.8872    1.0984   -3.4140 H   0  0  0  0  0  0  0  0  0  0  0  0
    0.0384   -0.0177   -0.9965 H   0  0  0  0  0  0  0  0  0  0  0  0
   -1.8783    0.0837   -1.0819 H   0  0  0  0  0  0  0  0  0  0  0  0
    2.1539   -1.4776   -1.1370 C   0  0  0  0  0  0  0  0  0  0  0  0
    1.0888   -0.6294   -0.4814 C   0  0  0  0  0  3  0  0  0  0  0  0
    0.7522   -1.1975    0.7585 O   0  0  0  0  0  0  0  0  0  0  0  0
   -0.2360   -0.4768    1.4507 C   0  0  0  0  0  0  0  0  0  0  0  0
   -0.5006   -1.1427    2.7856 C   0  0  0  0  0  0  0  0  0  0  0  0
    0.7124   -1.1408    3.7064 C   0  0  0  0  0  0  0  0  0  0  0  0
    1.7903   -2.4938   -1.2938 H   0  0  0  0  0  0  0  0  0  0  0  0
    2.4315   -1.0552   -2.1040 H   0  0  0  0  0  0  0  0  0  0  0  0
    3.0450   -1.5240   -0.5101 H   0  0  0  0  0  0  0  0  0  0  0  0
    1.4515    0.3989   -0.3364 H   0  0  0  0  0  0  0  0  0  0  0  0
    0.0971    0.5617    1.6059 H   0  0  0  0  0  0  0  0  0  0  0  0
   -1.1593   -0.4383    0.8542 H   0  0  0  0  0  0  0  0  0  0  0  0
   -1.3354   -0.6211    3.2618 H   0  0  0  0  0  0  0  0  0  0  0  0
   -0.8311   -2.1684    2.6024 H   0  0  0  0  0  0  0  0  0  0  0  0
    1.0395   -0.1196    3.9177 H   0  0  0  0  0  0  0  0  0  0  0  0
    0.4836   -1.6226    4.6582 H   0  0  0  0  0  0  0  0  0  0  0  0
    1.5464   -1.6714    3.2473 H   0  0  0  0  0  0  0  0  0  0  0  0
  1  2  1  0
  1  5  1  0
  1  6  1  0
  1  7  1  0
  2  3  1  0
  2  8  1  0
  2  9  1  0
  3  4  2  0
 10 11  1  0
 10 16  1  0
 10 17  1  0
 10 18  1  0
 11 12  1  0
 11 19  1  0
 12 13  1  0
 13 14  1  0
 13 20  1  0
 13 21  1  0
 14 15  1  0
 14 22  1  0
 14 23  1  0
 15 24  1  0
 15 25  1  0
 15 26  1  0
M  RAD  1  11   2
M  END
>  <reaction>  (15) 
rmg_rxn_276

>  <mol_properties>  (15) 
{"1": {"label": "*1", "atom_type": "Cs"}, "2": {"label": "*0", "atom_type": "N3d"}, "7": {"label": "*2", "atom_type": "H0"}, "10": {"label": "*3", "atom_type": "Cs"}, "11": {"label": "*4", "atom_type": "O2s"}}

>  <type>  (15) 
unop_11

>  <geom_source>  (15) 
Heuristics

$$$$

     RDKit          3D

 26 24  0  0  0  0  0  0  0  0999 V2000
   -1.7862    0.9067   -1.2958 C   0  0  0  0  0  0  0  0  0  0  0  0
   -1.7862    0.9067    0.2146 C   0  0  0  0  0  0  0  0  0  0  0  0
   -1.7862    2.2327    0.8782 N   0  0  0  0  0  0  0  0  0  0  0  0
   -1.7862    3.1622    0.1305 O   0  0  0  0  0  0  0  0  0  0  0  0
   -0.9061    1.4141   -1.6903 H   0  0  0  0  0  0  0  0  0  0  0  0
   -1.7862   -0.1204   -1.6611 H   0  0  0  0  0  0  0  0  0  0  0  0
   -2.6663    1.4141   -1.6903 H   0  0  0  0  0  0  0  0  0  0  0  0
   -0.7408    0.2980    0.7272 H   0  0  0  0  0  0  0  0  0  0  0  0
   -2.6574    0.3994    0.6418 H   0  0  0  0  0  0  0  0  0  0  0  0
    1.1045    0.6384    2.1055 C   0  0  0  0  0  0  0  0  0  0  0  0
    0.3097   -0.3137    1.2423 C   0  0  0  0  0  3  0  0  0  0  0  0
    1.1361   -0.7950    0.2132 O   0  0  0  0  0  0  0  0  0  0  0  0
    0.4851   -1.6942   -0.6485 C   0  0  0  0  0  0  0  0  0  0  0  0
    1.4644   -2.1846   -1.6953 C   0  0  0  0  0  0  0  0  0  0  0  0
    2.6281   -2.9700   -1.1052 C   0  0  0  0  0  0  0  0  0  0  0  0
    1.4675    1.4789    1.5130 H   0  0  0  0  0  0  0  0  0  0  0  0
    0.4816    1.0263    2.9130 H   0  0  0  0  0  0  0  0  0  0  0  0
    1.9639    0.1299    2.5440 H   0  0  0  0  0  0  0  0  0  0  0  0
   -0.0678   -1.1540    1.8435 H   0  0  0  0  0  0  0  0  0  0  0  0
    0.0898   -2.5459   -0.0724 H   0  0  0  0  0  0  0  0  0  0  0  0
   -0.3713   -1.1994   -1.1297 H   0  0  0  0  0  0  0  0  0  0  0  0
    0.9131   -2.8061   -2.4065 H   0  0  0  0  0  0  0  0  0  0  0  0
    1.8382   -1.3216   -2.2523 H   0  0  0  0  0  0  0  0  0  0  0  0
    2.2701   -3.8500   -0.5650 H   0  0  0  0  0  0  0  0  0  0  0  0
    3.3083   -3.3110   -1.8870 H   0  0  0  0  0  0  0  0  0  0  0  0
    3.1937   -2.3547   -0.4055 H   0  0  0  0  0  0  0  0  0  0  0  0
  1  2  1  0
  1  5  1  0
  1  6  1  0
  1  7  1  0
  2  3  1  0
  2  8  1  0
  2  9  1  0
  3  4  2  0
 10 11  1  0
 10 16  1  0
 10 17  1  0
 10 18  1  0
 11 12  1  0
 11 19  1  0
 12 13  1  0
 13 14  1  0
 13 20  1  0
 13 21  1  0
 14 15  1  0
 14 22  1  0
 14 23  1  0
 15 24  1  0
 15 25  1  0
 15 26  1  0
M  RAD  1  11   2
M  END
>  <reaction>  (16) 
rmg_rxn_276

>  <mol_properties>  (16) 
{"1": {"label": "*1", "atom_type": "Cs"}, "2": {"label": "*0", "atom_type": "N3d"}, "7": {"label": "*2", "atom_type": "H0"}, "10": {"label": "*3", "atom_type": "Cs"}, "11": {"label": "*4", "atom_type": "O2s"}}

>  <type>  (16) 
unop_12

>  <geom_source>  (16) 
Heuristics

$$$$

     RDKit          3D

 26 24  0  0  0  0  0  0  0  0999 V2000
   -0.6132   -0.4851    0.0378 O   0  0  0  0  0  0  0  0  0  0  0  0
    3.0766    2.0936   -1.2631 O   0  0  0  0  0  1  0  0  0  0  0  0
    2.2101    1.3017   -1.0450 N   0  0  0  0  0  0  0  0  0  0  0  0
   -2.7485    0.5017    0.5483 C   0  0  0  0  0  0  0  0  0  0  0  0
   -1.7831    0.0495   -0.5482 C   0  0  0  0  0  0  0  0  0  0  0  0
    0.2377   -1.0254   -0.9555 C   0  0  0  0  0  0  0  0  0  0  0  0
   -2.1756    1.6527    1.3729 C   0  0  0  0  0  0  0  0  0  0  0  0
    0.0340   -2.5313   -1.0630 C   0  0  0  0  0  0  0  0  0  0  0  0
    2.7087    0.5122    1.2119 C   0  0  0  0  0  0  0  0  0  0  0  0
    2.4672    0.1316   -0.2425 C   0  0  0  0  0  0  0  0  0  0  0  0
   -2.9761   -0.3552    1.2188 H   0  0  0  0  0  0  0  0  0  0  0  0
   -3.6994    0.8349    0.0789 H   0  0  0  0  0  0  0  0  0  0  0  0
    0.1197   -0.5515   -1.9590 H   0  0  0  0  0  0  0  0  0  0  0  0
    1.4933   -0.8093   -0.5815 H   0  0  0  0  0  0  0  0  0  0  0  0
   -2.3031   -0.7185   -1.1649 H   0  0  0  0  0  0  0  0  0  0  0  0
   -1.5336    0.9225   -1.1937 H   0  0  0  0  0  0  0  0  0  0  0  0
    0.1960   -3.0061   -0.0724 H   0  0  0  0  0  0  0  0  0  0  0  0
    0.7620   -2.9536   -1.7868 H   0  0  0  0  0  0  0  0  0  0  0  0
   -0.9940   -2.7592   -1.4142 H   0  0  0  0  0  0  0  0  0  0  0  0
   -1.9543    2.5233    0.7194 H   0  0  0  0  0  0  0  0  0  0  0  0
   -2.9163    1.9640    2.1393 H   0  0  0  0  0  0  0  0  0  0  0  0
   -1.2451    1.3355    1.8898 H   0  0  0  0  0  0  0  0  0  0  0  0
    3.6152    1.1481    1.2992 H   0  0  0  0  0  0  0  0  0  0  0  0
    2.8556   -0.4089    1.8133 H   0  0  0  0  0  0  0  0  0  0  0  0
    1.8306    1.0631    1.6097 H   0  0  0  0  0  0  0  0  0  0  0  0
    3.3356   -0.4303   -0.6496 H   0  0  0  0  0  0  0  0  0  0  0  0
  1  6  1  0
  1  5  1  0
  2  3  1  0
  3 10  2  3
  4  7  1  0
  4  5  1  0
  4 11  1  0
  4 12  1  0
  5 15  1  0
  5 16  1  0
  6  8  1  0
  6 13  1  0
  6 14  1  0
  7 20  1  0
  7 21  1  0
  7 22  1  0
  8 17  1  0
  8 18  1  0
  8 19  1  0
  9 10  1  0
  9 23  1  0
  9 24  1  0
  9 25  1  0
 10 26  1  0
M  RAD  1   2   2
M  END
>  <reaction>  (17) 
rmg_rxn_276

>  <mol_properties>  (17) 
{"1": {"label": "*1", "atom_type": "Cs"}, "2": {"label": "*0", "atom_type": "N3d"}, "7": {"label": "*2", "atom_type": "H0"}, "10": {"label": "*3", "atom_type": "Cs"}, "11": {"label": "*4", "atom_type": "O2s"}}

>  <type>  (17) 
unop_13

>  <geom_source>  (17) 
AutoTST

$$$$

     RDKit          3D

 26 24  0  0  0  0  0  0  0  0999 V2000
   -2.0713    0.4763   -1.3704 C   0  0  0  0  0  0  0  0  0  0  0  0
   -2.0713    0.4763    0.1400 C   0  0  0  0  0  0  0  0  0  0  0  0
   -2.0713    1.8022    0.8036 N   0  0  0  0  0  0  0  0  0  0  0  0
   -2.0713    2.7318    0.0559 O   0  0  0  0  0  0  0  0  0  0  0  0
   -1.1912    0.9836   -1.7649 H   0  0  0  0  0  0  0  0  0  0  0  0
   -2.0713   -0.5509   -1.7357 H   0  0  0  0  0  0  0  0  0  0  0  0
   -2.9515    0.9836   -1.7649 H   0  0  0  0  0  0  0  0  0  0  0  0
   -1.0259   -0.1325    0.6526 H   0  0  0  0  0  0  0  0  0  0  0  0
   -2.9426   -0.0311    0.5672 H   0  0  0  0  0  0  0  0  0  0  0  0
    0.1953    0.2199    2.3187 C   0  0  0  0  0  0  0  0  0  0  0  0
    0.0245   -0.7442    1.1677 C   0  0  0  0  0  3  0  0  0  0  0  0
    1.1236   -0.6201    0.3015 O   0  0  0  0  0  0  0  0  0  0  0  0
    1.0583   -1.4814   -0.8070 C   0  0  0  0  0  0  0  0  0  0  0  0
    2.3002   -1.3020   -1.6560 C   0  0  0  0  0  0  0  0  0  0  0  0
    3.5826   -1.6848   -0.9291 C   0  0  0  0  0  0  0  0  0  0  0  0
    0.2508    1.2458    1.9528 H   0  0  0  0  0  0  0  0  0  0  0  0
   -0.6487    0.1417    3.0058 H   0  0  0  0  0  0  0  0  0  0  0  0
    1.1114    0.0006    2.8682 H   0  0  0  0  0  0  0  0  0  0  0  0
   -0.0454   -1.7774    1.5387 H   0  0  0  0  0  0  0  0  0  0  0  0
    0.9812   -2.5260   -0.4660 H   0  0  0  0  0  0  0  0  0  0  0  0
    0.1572   -1.2634   -1.3989 H   0  0  0  0  0  0  0  0  0  0  0  0
    2.1824   -1.9105   -2.5569 H   0  0  0  0  0  0  0  0  0  0  0  0
    2.3504   -0.2599   -1.9820 H   0  0  0  0  0  0  0  0  0  0  0  0
    3.5564   -2.7321   -0.6181 H   0  0  0  0  0  0  0  0  0  0  0  0
    4.4538   -1.5482   -1.5715 H   0  0  0  0  0  0  0  0  0  0  0  0
    3.7177   -1.0736   -0.0368 H   0  0  0  0  0  0  0  0  0  0  0  0
  1  2  1  0
  1  5  1  0
  1  6  1  0
  1  7  1  0
  2  3  1  0
  2  8  1  0
  2  9  1  0
  3  4  2  0
 10 11  1  0
 10 16  1  0
 10 17  1  0
 10 18  1  0
 11 12  1  0
 11 19  1  0
 12 13  1  0
 13 14  1  0
 13 20  1  0
 13 21  1  0
 14 15  1  0
 14 22  1  0
 14 23  1  0
 15 24  1  0
 15 25  1  0
 15 26  1  0
M  RAD  1  11   2
M  END
>  <reaction>  (18) 
rmg_rxn_276

>  <mol_properties>  (18) 
{"1": {"label": "*1", "atom_type": "Cs"}, "2": {"label": "*0", "atom_type": "N3d"}, "7": {"label": "*2", "atom_type": "H0"}, "10": {"label": "*3", "atom_type": "Cs"}, "11": {"label": "*4", "atom_type": "O2s"}}

>  <type>  (18) 
unop_14

>  <geom_source>  (18) 
gaussian_log

$$$$
