
     RDKit          3D

  8  7  0  0  0  0  0  0  0  0999 V2000
    1.2099   -0.1388    0.0025 C   0  0  0  0  0  0  0  0  0  0  0  0
   -0.1788    0.4141    0.0007 C   0  0  0  0  0  0  0  0  0  0  0  0
   -1.2100   -0.3603    0.0013 N   0  0  0  0  0  0  0  0  0  0  0  0
    1.7355    0.2223   -0.8851 H   0  0  0  0  0  0  0  0  0  0  0  0
    1.7521    0.1663    0.9007 H   0  0  0  0  0  0  0  0  0  0  0  0
    1.1564   -1.2296   -0.0424 H   0  0  0  0  0  0  0  0  0  0  0  0
   -0.2911    1.5112   -0.0010 H   0  0  0  0  0  0  0  0  0  0  0  0
   -2.0699    0.2005   -0.0002 H   0  0  0  0  0  0  0  0  0  0  0  0
  1  2  1  0
  1  4  1  0
  1  5  1  0
  1  6  1  0
  2  3  2  3
  2  7  1  0
  3  8  1  0
M  END
>  <reaction>  (1) 
rmg_rxn_16785

>  <mol_properties>  (1) 
{"2": {"label": "donator", "atom_type": "N3d"}, "7": {"label": "d_hydrogen", "atom_type": "H0"}}

>  <type>  (1) 
r1h

$$$$

     RDKit          3D

  1  0  0  0  0  0  0  0  0  0999 V2000
    0.0000    0.0000    0.0000 H   0  0  0  0  0 15  0  0  0  0  0  0
M  END
>  <reaction>  (2) 
rmg_rxn_16785

>  <mol_properties>  (2) 
{"0": {"label": "acceptor", "atom_type": "H0"}}

>  <type>  (2) 
r2

$$$$

     RDKit          3D

  2  1  0  0  0  0  0  0  0  0999 V2000
    0.0000    0.0000    0.3715 H   0  0  0  0  0  0  0  0  0  0  0  0
    0.0000    0.0000   -0.3715 H   0  0  0  0  0  0  0  0  0  0  0  0
  1  2  1  0
M  END
>  <reaction>  (3) 
rmg_rxn_16785

>  <mol_properties>  (3) 
{"0": {"label": "acceptor", "atom_type": "H0"}, "1": {"label": "a_hydrogen", "atom_type": "H0"}}

>  <type>  (3) 
r2h

$$$$

     RDKit          3D

  9  7  0  0  0  0  0  0  0  0999 V2000
   -2.9987    0.5002    0.0006 H   0  0  0  0  0 15  0  0  0  0  0  0
    1.3425   -0.0814    0.0000 C   0  0  0  0  0  0  0  0  0  0  0  0
   -0.0903    0.3596   -0.0001 C   0  0  0  0  0  0  0  0  0  0  0  0
   -1.0290   -0.4467   -0.0001 N   0  0  0  0  0  0  0  0  0  0  0  0
    1.8400    0.3168    0.8828 H   0  0  0  0  0  0  0  0  0  0  0  0
    1.4051   -1.1658   -0.0000 H   0  0  0  0  0  0  0  0  0  0  0  0
    1.8402    0.3169   -0.8826 H   0  0  0  0  0  0  0  0  0  0  0  0
   -0.2154    1.4517   -0.0002 H   0  0  0  0  0  0  0  0  0  0  0  0
   -2.1810    0.0379    0.0002 H   0  0  0  0  0  0  0  0  0  0  0  0
  2  3  1  0
  2  5  1  0
  2  6  1  0
  2  7  1  0
  3  4  2  3
  3  8  1  0
  4  9  1  0
M  END
>  <reaction>  (4) 
rmg_rxn_16785

>  <mol_properties>  (4) 
{"0": {"label": "*1", "atom_type": "H0"}, "2": {"label": "*4", "atom_type": "Cd"}, "3": {"label": "*3", "atom_type": "N3d"}, "8": {"label": "*2", "atom_type": "H0"}}

>  <type>  (4) 
ts

$$$$

     RDKit          3D

  9  7  0  0  0  0  0  0  0  0999 V2000
    2.9781   -0.6712    0.0006 H   0  0  0  0  0 15  0  0  0  0  0  0
   -1.3317    0.1102    0.0001 C   0  0  0  0  0  0  0  0  0  0  0  0
    0.0792   -0.3965   -0.0001 C   0  0  0  0  0  0  0  0  0  0  0  0
    1.0542    0.3656   -0.0001 N   0  0  0  0  0  0  0  0  0  0  0  0
   -1.8470   -0.2646    0.8829 H   0  0  0  0  0  0  0  0  0  0  0  0
   -1.3442    1.1963   -0.0000 H   0  0  0  0  0  0  0  0  0  0  0  0
   -1.8473   -0.2647   -0.8825 H   0  0  0  0  0  0  0  0  0  0  0  0
    0.1538   -1.4932   -0.0001 H   0  0  0  0  0  0  0  0  0  0  0  0
    2.1825   -0.1716    0.0002 H   0  0  0  0  0  0  0  0  0  0  0  0
  2  3  1  0
  2  5  1  0
  2  6  1  0
  2  7  1  0
  3  4  2  3
  3  8  1  0
  4  9  1  0
M  END
>  <reaction>  (5) 
rmg_rxn_16785

>  <mol_properties>  (5) 
{"0": {"label": "*1", "atom_type": "H0"}, "2": {"label": "*4", "atom_type": "Cd"}, "3": {"label": "*3", "atom_type": "N3d"}, "8": {"label": "*2", "atom_type": "H0"}}

>  <type>  (5) 
unop_1

>  <geom_source>  (5) 
crest_best.xyz

$$$$

     RDKit          3D

  9  7  0  0  0  0  0  0  0  0999 V2000
    2.9781   -0.6712    0.0006 H   0  0  0  0  0 15  0  0  0  0  0  0
   -1.3317    0.1102    0.0001 C   0  0  0  0  0  0  0  0  0  0  0  0
    0.0792   -0.3965   -0.0001 C   0  0  0  0  0  0  0  0  0  0  0  0
    1.0542    0.3656   -0.0001 N   0  0  0  0  0  0  0  0  0  0  0  0
   -1.8470   -0.2646    0.8829 H   0  0  0  0  0  0  0  0  0  0  0  0
   -1.3442    1.1963   -0.0000 H   0  0  0  0  0  0  0  0  0  0  0  0
   -1.8473   -0.2647   -0.8825 H   0  0  0  0  0  0  0  0  0  0  0  0
    0.1538   -1.4932   -0.0001 H   0  0  0  0  0  0  0  0  0  0  0  0
    2.1825   -0.1716    0.0002 H   0  0  0  0  0  0  0  0  0  0  0  0
  2  3  1  0
  2  5  1  0
  2  6  1  0
  2  7  1  0
  3  4  2  3
  3  8  1  0
  4  9  1  0
M  END
>  <reaction>  (6) 
rmg_rxn_16785

>  <mol_properties>  (6) 
{"0": {"label": "*1", "atom_type": "H0"}, "2": {"label": "*4", "atom_type": "Cd"}, "3": {"label": "*3", "atom_type": "N3d"}, "8": {"label": "*2", "atom_type": "H0"}}

>  <type>  (6) 
unop_2

>  <geom_source>  (6) 
Heuristics

$$$$

     RDKit          3D

  9  7  0  0  0  0  0  0  0  0999 V2000
   -0.0008    0.3179    2.9571 H   0  0  0  0  0 15  0  0  0  0  0  0
   -0.0008   -0.3632   -1.2909 C   0  0  0  0  0  0  0  0  0  0  0  0
   -0.0008   -0.3632    0.2038 C   0  0  0  0  0  0  0  0  0  0  0  0
   -0.0008    0.7377    0.8754 N   0  0  0  0  0  0  0  0  0  0  0  0
    0.8866   -0.8943   -1.6446 H   0  0  0  0  0  0  0  0  0  0  0  0
   -0.8992   -0.8462   -1.6828 H   0  0  0  0  0  0  0  0  0  0  0  0
    0.0457    0.6699   -1.6446 H   0  0  0  0  0  0  0  0  0  0  0  0
   -0.0008   -1.3410    0.7140 H   0  0  0  0  0  0  0  0  0  0  0  0
   -0.0008    0.4941    2.0830 H   0  0  0  0  0  0  0  0  0  0  0  0
  2  3  1  0
  2  5  1  0
  2  6  1  0
  2  7  1  0
  3  4  2  3
  3  8  1  0
  4  9  1  0
M  END
>  <reaction>  (7) 
rmg_rxn_16785

>  <mol_properties>  (7) 
{"0": {"label": "*1", "atom_type": "H0"}, "2": {"label": "*4", "atom_type": "Cd"}, "3": {"label": "*3", "atom_type": "N3d"}, "8": {"label": "*2", "atom_type": "H0"}}

>  <type>  (7) 
unop_3

>  <geom_source>  (7) 
Heuristics

$$$$

     RDKit          3D

  9  7  0  0  0  0  0  0  0  0999 V2000
    2.9781   -0.6713    0.0006 H   0  0  0  0  0 15  0  0  0  0  0  0
   -1.3317    0.1102    0.0001 C   0  0  0  0  0  0  0  0  0  0  0  0
    0.0792   -0.3965   -0.0001 C   0  0  0  0  0  0  0  0  0  0  0  0
    1.0541    0.3656   -0.0001 N   0  0  0  0  0  0  0  0  0  0  0  0
   -1.8470   -0.2646    0.8829 H   0  0  0  0  0  0  0  0  0  0  0  0
   -1.3442    1.1963   -0.0000 H   0  0  0  0  0  0  0  0  0  0  0  0
   -1.8473   -0.2647   -0.8825 H   0  0  0  0  0  0  0  0  0  0  0  0
    0.1538   -1.4932   -0.0001 H   0  0  0  0  0  0  0  0  0  0  0  0
    2.1825   -0.1716    0.0002 H   0  0  0  0  0  0  0  0  0  0  0  0
  2  3  1  0
  2  5  1  0
  2  6  1  0
  2  7  1  0
  3  4  2  3
  3  8  1  0
  4  9  1  0
M  END
>  <reaction>  (8) 
rmg_rxn_16785

>  <mol_properties>  (8) 
{"0": {"label": "*1", "atom_type": "H0"}, "2": {"label": "*4", "atom_type": "Cd"}, "3": {"label": "*3", "atom_type": "N3d"}, "8": {"label": "*2", "atom_type": "H0"}}

>  <type>  (8) 
unop_4

>  <geom_source>  (8) 
gaussian_log

$$$$
