
     RDKit          3D

 15 14  0  0  0  0  0  0  0  0999 V2000
   -1.2811   -0.4129    1.0228 C   0  0  0  0  0  0  0  0  0  0  0  0
   -1.0023   -0.5809   -0.4650 C   0  0  0  0  0  0  0  0  0  0  0  0
   -2.0576    0.0568   -1.3449 C   0  0  0  0  0  0  0  0  0  0  0  0
   -2.0663    1.4464   -1.1307 O   0  0  0  0  0  0  0  0  0  0  0  0
   -3.0424    2.1072   -1.8849 C   0  0  0  0  0  0  0  0  0  0  0  0
   -2.2382   -0.8657    1.2935 H   0  0  0  0  0  0  0  0  0  0  0  0
   -1.3219    0.6426    1.2914 H   0  0  0  0  0  0  0  0  0  0  0  0
   -0.5042   -0.8881    1.6236 H   0  0  0  0  0  0  0  0  0  0  0  0
   -0.0316   -0.1460   -0.7167 H   0  0  0  0  0  0  0  0  0  0  0  0
   -0.9494   -1.6429   -0.7203 H   0  0  0  0  0  0  0  0  0  0  0  0
   -1.8518   -0.1570   -2.4041 H   0  0  0  0  0  0  0  0  0  0  0  0
   -3.0491   -0.3636   -1.1124 H   0  0  0  0  0  0  0  0  0  0  0  0
   -4.0521    1.7545   -1.6343 H   0  0  0  0  0  0  0  0  0  0  0  0
   -2.8850    1.9634   -2.9626 H   0  0  0  0  0  0  0  0  0  0  0  0
   -2.9730    3.1700   -1.6570 H   0  0  0  0  0  0  0  0  0  0  0  0
  1  2  1  0
  1  6  1  0
  1  7  1  0
  1  8  1  0
  2  3  1  0
  2  9  1  0
  2 10  1  0
  3  4  1  0
  3 11  1  0
  3 12  1  0
  4  5  1  0
  5 13  1  0
  5 14  1  0
  5 15  1  0
M  END
>  <reaction>  (1) 
rmg_rxn_664

>  <mol_properties>  (1) 
{"4": {"label": "donator", "atom_type": "Cs"}, "12": {"label": "d_hydrogen", "atom_type": "H0"}}

>  <type>  (1) 
r1h

$$$$

     RDKit          3D

 13 13  0  0  0  0  0  0  0  0999 V2000
   -1.1371    0.3608    0.3110 C   0  0  0  0  0  3  0  0  0  0  0  0
   -0.0045    1.3224    0.2943 C   0  0  0  0  0  0  0  0  0  0  0  0
    1.2245    0.6965    0.6137 O   0  0  0  0  0  0  0  0  0  0  0  0
    1.3926   -0.4921   -0.0955 C   0  0  0  0  0  0  0  0  0  0  0  0
    0.4387   -1.4537    0.2351 O   0  0  0  0  0  0  0  0  0  0  0  0
   -0.8659   -1.0349   -0.1206 C   0  0  0  0  0  0  0  0  0  0  0  0
   -2.1544    0.7285    0.3341 H   0  0  0  0  0  0  0  0  0  0  0  0
   -0.1488    2.1272    1.0165 H   0  0  0  0  0  0  0  0  0  0  0  0
    0.0825    1.7949   -0.7036 H   0  0  0  0  0  0  0  0  0  0  0  0
    1.3549   -0.2872   -1.1815 H   0  0  0  0  0  0  0  0  0  0  0  0
    2.3646   -0.8956    0.1787 H   0  0  0  0  0  0  0  0  0  0  0  0
   -1.5620   -1.7401    0.3358 H   0  0  0  0  0  0  0  0  0  0  0  0
   -0.9852   -1.1268   -1.2179 H   0  0  0  0  0  0  0  0  0  0  0  0
  1  2  1  0
  1  6  1  0
  1  7  1  0
  2  3  1  0
  2  8  1  0
  2  9  1  0
  3  4  1  0
  4  5  1  0
  4 10  1  0
  4 11  1  0
  5  6  1  0
  6 12  1  0
  6 13  1  0
M  RAD  1   1   2
M  END
>  <reaction>  (2) 
rmg_rxn_664

>  <mol_properties>  (2) 
{"0": {"label": "acceptor", "atom_type": "Cs"}}

>  <type>  (2) 
r2

$$$$

     RDKit          3D

 14 14  0  0  0  0  0  0  0  0999 V2000
   -1.1778    0.2241    0.1818 C   0  0  0  0  0  0  0  0  0  0  0  0
   -0.5633   -1.1636    0.0678 C   0  0  0  0  0  0  0  0  0  0  0  0
    0.6943   -1.1996    0.7146 O   0  0  0  0  0  0  0  0  0  0  0  0
    1.5547   -0.2288    0.2011 C   0  0  0  0  0  0  0  0  0  0  0  0
    1.0729    1.0696    0.3698 O   0  0  0  0  0  0  0  0  0  0  0  0
   -0.1607    1.2493   -0.2989 C   0  0  0  0  0  0  0  0  0  0  0  0
   -2.0927    0.2866   -0.4117 H   0  0  0  0  0  0  0  0  0  0  0  0
   -1.4303    0.4248    1.2248 H   0  0  0  0  0  0  0  0  0  0  0  0
   -1.1822   -1.9235    0.5431 H   0  0  0  0  0  0  0  0  0  0  0  0
   -0.4389   -1.4347   -0.9919 H   0  0  0  0  0  0  0  0  0  0  0  0
    1.7250   -0.4207   -0.8742 H   0  0  0  0  0  0  0  0  0  0  0  0
    2.4896   -0.3010    0.7524 H   0  0  0  0  0  0  0  0  0  0  0  0
   -0.0080    1.1481   -1.3844 H   0  0  0  0  0  0  0  0  0  0  0  0
   -0.4826    2.2695   -0.0942 H   0  0  0  0  0  0  0  0  0  0  0  0
  1  2  1  0
  1  6  1  0
  1  7  1  0
  1  8  1  0
  2  3  1  0
  2  9  1  0
  2 10  1  0
  3  4  1  0
  4  5  1  0
  4 11  1  0
  4 12  1  0
  5  6  1  0
  6 13  1  0
  6 14  1  0
M  END
>  <reaction>  (3) 
rmg_rxn_664

>  <mol_properties>  (3) 
{"0": {"label": "acceptor", "atom_type": "Cs"}, "13": {"label": "a_hydrogen", "atom_type": "H0"}}

>  <type>  (3) 
r2h

$$$$

     RDKit          3D

 28 27  0  0  0  0  0  0  0  0999 V2000
   -0.5052    1.5668   -0.2487 C   0  0  0  0  0  3  0  0  0  0  0  0
    0.1780    1.8220    1.0686 C   0  0  0  0  0  0  0  0  0  0  0  0
    1.4428    2.4387    0.8562 O   0  0  0  0  0  0  0  0  0  0  0  0
    2.2308    1.6756   -0.0074 C   0  0  0  0  0  0  0  0  0  0  0  0
    1.6691    1.5248   -1.2744 O   0  0  0  0  0  0  0  0  0  0  0  0
    0.4172    0.8493   -1.1981 C   0  0  0  0  0  0  0  0  0  0  0  0
   -0.9699    2.4531   -0.6771 H   0  0  0  0  0  0  0  0  0  0  0  0
   -0.3917    2.4933    1.7093 H   0  0  0  0  0  0  0  0  0  0  0  0
    0.3318    0.8760    1.6112 H   0  0  0  0  0  0  0  0  0  0  0  0
    2.4021    0.6782    0.4397 H   0  0  0  0  0  0  0  0  0  0  0  0
    3.1749    2.2018   -0.1320 H   0  0  0  0  0  0  0  0  0  0  0  0
    0.5871   -0.1832   -0.8590 H   0  0  0  0  0  0  0  0  0  0  0  0
    0.0206    0.8107   -2.2111 H   0  0  0  0  0  0  0  0  0  0  0  0
    0.4145   -3.1761   -0.7382 C   0  0  0  0  0  0  0  0  0  0  0  0
   -0.5601   -3.3110    0.4241 C   0  0  0  0  0  0  0  0  0  0  0  0
   -1.1561   -1.9896    0.8590 C   0  0  0  0  0  0  0  0  0  0  0  0
   -1.9530   -1.4711   -0.1863 O   0  0  0  0  0  0  0  0  0  0  0  0
   -2.5016   -0.2395    0.0828 C   0  0  0  0  0  0  0  0  0  0  0  0
    1.2599   -2.5384   -0.4673 H   0  0  0  0  0  0  0  0  0  0  0  0
   -0.0746   -2.7346   -1.6068 H   0  0  0  0  0  0  0  0  0  0  0  0
    0.8125   -4.1484   -1.0308 H   0  0  0  0  0  0  0  0  0  0  0  0
   -1.3754   -3.9879    0.1568 H   0  0  0  0  0  0  0  0  0  0  0  0
   -0.0550   -3.7499    1.2887 H   0  0  0  0  0  0  0  0  0  0  0  0
   -1.7740   -2.1180    1.7575 H   0  0  0  0  0  0  0  0  0  0  0  0
   -0.3580   -1.2745    1.1037 H   0  0  0  0  0  0  0  0  0  0  0  0
   -1.5752    0.6831   -0.0238 H   0  0  0  0  0  0  0  0  0  0  0  0
   -2.9006   -0.1422    1.0991 H   0  0  0  0  0  0  0  0  0  0  0  0
   -3.2345    0.0114   -0.6812 H   0  0  0  0  0  0  0  0  0  0  0  0
  1  2  1  0
  1  6  1  0
  1  7  1  0
  2  3  1  0
  2  8  1  0
  2  9  1  0
  3  4  1  0
  4  5  1  0
  4 10  1  0
  4 11  1  0
  5  6  1  0
  6 12  1  0
  6 13  1  0
 14 15  1  0
 14 19  1  0
 14 20  1  0
 14 21  1  0
 15 16  1  0
 15 22  1  0
 15 23  1  0
 16 17  1  0
 16 24  1  0
 16 25  1  0
 17 18  1  0
 18 26  1  0
 18 27  1  0
 18 28  1  0
M  RAD  1   1   2
M  END
>  <reaction>  (4) 
rmg_rxn_664

>  <mol_properties>  (4) 
{"0": {"label": "*3", "atom_type": "Cs"}, "1": {"label": "*4", "atom_type": "Cs"}, "16": {"label": "*0", "atom_type": "O2s"}, "17": {"label": "*1", "atom_type": "Cs"}, "25": {"label": "*2", "atom_type": "H0"}}

>  <type>  (4) 
ts

$$$$

     RDKit          3D

 28 27  0  0  0  0  0  0  0  0999 V2000
    0.5405    0.8263   -0.3769 C   0  0  0  0  0  0  0  0  0  0  0  0
   -0.0034    2.0091   -1.1655 C   0  0  0  0  0  0  0  0  0  0  0  0
    0.6707    3.1973   -0.7979 O   0  0  0  0  0  0  0  0  0  0  0  0
    0.5774    3.4272    0.5750 C   0  0  0  0  0  0  0  0  0  0  0  0
    1.1503    2.4090    1.3375 O   0  0  0  0  0  0  0  0  0  0  0  0
    0.5066    1.1708    1.1052 C   0  0  0  0  0  0  0  0  0  0  0  0
    1.5706    0.6303   -0.6806 H   0  0  0  0  0  0  0  0  0  0  0  0
    0.1418    1.8851   -2.2378 H   0  0  0  0  0  0  0  0  0  0  0  0
   -1.0815    2.1248   -0.9754 H   0  0  0  0  0  0  0  0  0  0  0  0
   -0.4853    3.5436    0.8566 H   0  0  0  0  0  0  0  0  0  0  0  0
    1.1289    4.3402    0.7882 H   0  0  0  0  0  0  0  0  0  0  0  0
   -0.5356    1.2276    1.4551 H   0  0  0  0  0  0  0  0  0  0  0  0
    1.0280    0.4284    1.7080 H   0  0  0  0  0  0  0  0  0  0  0  0
   -0.1855   -4.0069   -1.6820 C   0  0  0  0  0  0  0  0  0  0  0  0
   -0.1855   -4.0069   -0.1591 C   0  0  0  0  0  0  0  0  0  0  0  0
   -0.1855   -2.6143    0.4370 C   0  0  0  0  0  0  0  0  0  0  0  0
   -1.3706   -1.9509    0.0728 O   0  0  0  0  0  0  0  0  0  0  0  0
   -1.4314   -0.6398    0.5580 C   0  0  0  0  0  3  0  0  0  0  0  0
    0.6968   -3.4932   -2.0717 H   0  0  0  0  0  0  0  0  0  0  0  0
   -1.0680   -3.4970   -2.0684 H   0  0  0  0  0  0  0  0  0  0  0  0
   -0.1806   -5.0249   -2.0743 H   0  0  0  0  0  0  0  0  0  0  0  0
   -1.0596   -4.5450    0.2165 H   0  0  0  0  0  0  0  0  0  0  0  0
    0.6962   -4.5330    0.2172 H   0  0  0  0  0  0  0  0  0  0  0  0
   -0.1087   -2.6680    1.5330 H   0  0  0  0  0  0  0  0  0  0  0  0
    0.6868   -2.0473    0.0748 H   0  0  0  0  0  0  0  0  0  0  0  0
   -0.4427    0.0953    0.0892 H   0  0  0  0  0  0  0  0  0  0  0  0
   -1.3894   -0.6137    1.6555 H   0  0  0  0  0  0  0  0  0  0  0  0
   -2.3770   -0.2096    0.2308 H   0  0  0  0  0  0  0  0  0  0  0  0
  1  2  1  0
  1  6  1  0
  1  7  1  0
  1 26  1  0
  2  3  1  0
  2  8  1  0
  2  9  1  0
  3  4  1  0
  4  5  1  0
  4 10  1  0
  4 11  1  0
  5  6  1  0
  6 12  1  0
  6 13  1  0
 14 15  1  0
 14 19  1  0
 14 20  1  0
 14 21  1  0
 15 16  1  0
 15 22  1  0
 15 23  1  0
 16 17  1  0
 16 24  1  0
 16 25  1  0
 17 18  1  0
 18 27  1  0
 18 28  1  0
M  RAD  1  18   2
M  END
>  <reaction>  (5) 
rmg_rxn_664

>  <mol_properties>  (5) 
{"0": {"label": "*3", "atom_type": "Cs"}, "1": {"label": "*4", "atom_type": "Cs"}, "16": {"label": "*0", "atom_type": "O2s"}, "17": {"label": "*1", "atom_type": "Cs"}, "25": {"label": "*2", "atom_type": "H0"}}

>  <type>  (5) 
unop_1

>  <geom_source>  (5) 
Heuristics

$$$$

     RDKit          3D

 28 27  0  0  0  0  0  0  0  0999 V2000
    0.4972    1.0930    0.5296 C   0  0  0  0  0  0  0  0  0  0  0  0
    0.9154    0.6048   -0.8500 C   0  0  0  0  0  0  0  0  0  0  0  0
    1.5290    1.6517   -1.5773 O   0  0  0  0  0  0  0  0  0  0  0  0
    0.6879    2.7606   -1.6738 C   0  0  0  0  0  0  0  0  0  0  0  0
    0.3541    3.3003   -0.4313 O   0  0  0  0  0  0  0  0  0  0  0  0
   -0.3339    2.3578    0.3687 C   0  0  0  0  0  0  0  0  0  0  0  0
    1.3873    1.3163    1.1209 H   0  0  0  0  0  0  0  0  0  0  0  0
    1.6417   -0.2048   -0.7928 H   0  0  0  0  0  0  0  0  0  0  0  0
    0.0363    0.2399   -1.4030 H   0  0  0  0  0  0  0  0  0  0  0  0
   -0.2355    2.4756   -2.2105 H   0  0  0  0  0  0  0  0  0  0  0  0
    1.2264    3.5279   -2.2255 H   0  0  0  0  0  0  0  0  0  0  0  0
   -1.3009    2.1163   -0.0986 H   0  0  0  0  0  0  0  0  0  0  0  0
   -0.5292    2.8414    1.3248 H   0  0  0  0  0  0  0  0  0  0  0  0
   -0.2288   -3.7402   -0.7754 C   0  0  0  0  0  0  0  0  0  0  0  0
   -0.2288   -3.7402    0.7475 C   0  0  0  0  0  0  0  0  0  0  0  0
   -0.2288   -2.3476    1.3435 C   0  0  0  0  0  0  0  0  0  0  0  0
   -1.4138   -1.6842    0.9794 O   0  0  0  0  0  0  0  0  0  0  0  0
   -1.4746   -0.3731    1.4646 C   0  0  0  0  0  3  0  0  0  0  0  0
    0.6536   -3.2266   -1.1651 H   0  0  0  0  0  0  0  0  0  0  0  0
   -1.1112   -3.2303   -1.1618 H   0  0  0  0  0  0  0  0  0  0  0  0
   -0.2239   -4.7582   -1.1677 H   0  0  0  0  0  0  0  0  0  0  0  0
   -1.1029   -4.2784    1.1231 H   0  0  0  0  0  0  0  0  0  0  0  0
    0.6529   -4.2664    1.1238 H   0  0  0  0  0  0  0  0  0  0  0  0
   -0.1520   -2.4013    2.4396 H   0  0  0  0  0  0  0  0  0  0  0  0
    0.6436   -1.7806    0.9814 H   0  0  0  0  0  0  0  0  0  0  0  0
   -0.4859    0.3620    0.9958 H   0  0  0  0  0  0  0  0  0  0  0  0
   -1.4326   -0.3470    2.5621 H   0  0  0  0  0  0  0  0  0  0  0  0
   -2.4203    0.0571    1.1374 H   0  0  0  0  0  0  0  0  0  0  0  0
  1  2  1  0
  1  6  1  0
  1  7  1  0
  1 26  1  0
  2  3  1  0
  2  8  1  0
  2  9  1  0
  3  4  1  0
  4  5  1  0
  4 10  1  0
  4 11  1  0
  5  6  1  0
  6 12  1  0
  6 13  1  0
 14 15  1  0
 14 19  1  0
 14 20  1  0
 14 21  1  0
 15 16  1  0
 15 22  1  0
 15 23  1  0
 16 17  1  0
 16 24  1  0
 16 25  1  0
 17 18  1  0
 18 27  1  0
 18 28  1  0
M  RAD  1  18   2
M  END
>  <reaction>  (6) 
rmg_rxn_664

>  <mol_properties>  (6) 
{"0": {"label": "*3", "atom_type": "Cs"}, "1": {"label": "*4", "atom_type": "Cs"}, "16": {"label": "*0", "atom_type": "O2s"}, "17": {"label": "*1", "atom_type": "Cs"}, "25": {"label": "*2", "atom_type": "H0"}}

>  <type>  (6) 
unop_2

>  <geom_source>  (6) 
Heuristics

$$$$

     RDKit          3D

 28 27  0  0  0  0  0  0  0  0999 V2000
    0.2072    0.9878   -0.5122 C   0  0  0  0  0  0  0  0  0  0  0  0
   -0.2199    2.4443   -0.6253 C   0  0  0  0  0  0  0  0  0  0  0  0
    0.8694    3.3002   -0.3384 O   0  0  0  0  0  0  0  0  0  0  0  0
    1.4037    3.0330    0.9223 C   0  0  0  0  0  0  0  0  0  0  0  0
    1.8953    1.7327    1.0407 O   0  0  0  0  0  0  0  0  0  0  0  0
    0.8710    0.7775    0.8412 C   0  0  0  0  0  0  0  0  0  0  0  0
    0.9198    0.7558   -1.3061 H   0  0  0  0  0  0  0  0  0  0  0  0
   -0.5577    2.6929   -1.6305 H   0  0  0  0  0  0  0  0  0  0  0  0
   -1.0435    2.6509    0.0753 H   0  0  0  0  0  0  0  0  0  0  0  0
    0.6300    3.2048    1.6931 H   0  0  0  0  0  0  0  0  0  0  0  0
    2.2422    3.7103    1.0684 H   0  0  0  0  0  0  0  0  0  0  0  0
    0.1242    0.8667    1.6450 H   0  0  0  0  0  0  0  0  0  0  0  0
    1.3379   -0.2035    0.9178 H   0  0  0  0  0  0  0  0  0  0  0  0
   -0.5188   -3.8454   -1.8173 C   0  0  0  0  0  0  0  0  0  0  0  0
   -0.5188   -3.8454   -0.2944 C   0  0  0  0  0  0  0  0  0  0  0  0
   -0.5188   -2.4528    0.3017 C   0  0  0  0  0  0  0  0  0  0  0  0
   -1.7038   -1.7893   -0.0625 O   0  0  0  0  0  0  0  0  0  0  0  0
   -1.7646   -0.4782    0.4227 C   0  0  0  0  0  3  0  0  0  0  0  0
    0.3636   -3.3317   -2.2070 H   0  0  0  0  0  0  0  0  0  0  0  0
   -1.4012   -3.3355   -2.2037 H   0  0  0  0  0  0  0  0  0  0  0  0
   -0.5139   -4.8634   -2.2096 H   0  0  0  0  0  0  0  0  0  0  0  0
   -1.3929   -4.3835    0.0812 H   0  0  0  0  0  0  0  0  0  0  0  0
    0.3629   -4.3715    0.0819 H   0  0  0  0  0  0  0  0  0  0  0  0
   -0.4420   -2.5065    1.3977 H   0  0  0  0  0  0  0  0  0  0  0  0
    0.3536   -1.8858   -0.0605 H   0  0  0  0  0  0  0  0  0  0  0  0
   -0.7760    0.2568   -0.0461 H   0  0  0  0  0  0  0  0  0  0  0  0
   -1.7226   -0.4521    1.5202 H   0  0  0  0  0  0  0  0  0  0  0  0
   -2.7103   -0.0481    0.0955 H   0  0  0  0  0  0  0  0  0  0  0  0
  1  2  1  0
  1  6  1  0
  1  7  1  0
  1 26  1  0
  2  3  1  0
  2  8  1  0
  2  9  1  0
  3  4  1  0
  4  5  1  0
  4 10  1  0
  4 11  1  0
  5  6  1  0
  6 12  1  0
  6 13  1  0
 14 15  1  0
 14 19  1  0
 14 20  1  0
 14 21  1  0
 15 16  1  0
 15 22  1  0
 15 23  1  0
 16 17  1  0
 16 24  1  0
 16 25  1  0
 17 18  1  0
 18 27  1  0
 18 28  1  0
M  RAD  1  18   2
M  END
>  <reaction>  (7) 
rmg_rxn_664

>  <mol_properties>  (7) 
{"0": {"label": "*3", "atom_type": "Cs"}, "1": {"label": "*4", "atom_type": "Cs"}, "16": {"label": "*0", "atom_type": "O2s"}, "17": {"label": "*1", "atom_type": "Cs"}, "25": {"label": "*2", "atom_type": "H0"}}

>  <type>  (7) 
unop_3

>  <geom_source>  (7) 
Heuristics

$$$$

     RDKit          3D

 28 27  0  0  0  0  0  0  0  0999 V2000
   -0.1402    1.2621    0.1182 C   0  0  0  0  0  0  0  0  0  0  0  0
    1.2018    0.6728    0.5283 C   0  0  0  0  0  0  0  0  0  0  0  0
    2.1938    1.6810    0.5574 O   0  0  0  0  0  0  0  0  0  0  0  0
    2.2893    2.3317   -0.6730 C   0  0  0  0  0  0  0  0  0  0  0  0
    1.1050    2.9685   -1.0452 O   0  0  0  0  0  0  0  0  0  0  0  0
    0.0441    2.0418   -1.1759 C   0  0  0  0  0  0  0  0  0  0  0  0
   -0.4951    1.9358    0.9005 H   0  0  0  0  0  0  0  0  0  0  0  0
    1.1678    0.2376    1.5262 H   0  0  0  0  0  0  0  0  0  0  0  0
    1.4998   -0.1150   -0.1806 H   0  0  0  0  0  0  0  0  0  0  0  0
    2.5751    1.6024   -1.4530 H   0  0  0  0  0  0  0  0  0  0  0  0
    3.0525    3.1004   -0.5739 H   0  0  0  0  0  0  0  0  0  0  0  0
    0.2606    1.3504   -2.0047 H   0  0  0  0  0  0  0  0  0  0  0  0
   -0.8440    2.6165   -1.4352 H   0  0  0  0  0  0  0  0  0  0  0  0
   -0.8662   -3.5711   -1.1868 C   0  0  0  0  0  0  0  0  0  0  0  0
   -0.8662   -3.5711    0.3361 C   0  0  0  0  0  0  0  0  0  0  0  0
   -0.8662   -2.1785    0.9321 C   0  0  0  0  0  0  0  0  0  0  0  0
   -2.0512   -1.5151    0.5680 O   0  0  0  0  0  0  0  0  0  0  0  0
   -2.1120   -0.2040    1.0532 C   0  0  0  0  0  3  0  0  0  0  0  0
    0.0162   -3.0574   -1.5765 H   0  0  0  0  0  0  0  0  0  0  0  0
   -1.7486   -3.0612   -1.5732 H   0  0  0  0  0  0  0  0  0  0  0  0
   -0.8613   -4.5891   -1.5791 H   0  0  0  0  0  0  0  0  0  0  0  0
   -1.7403   -4.1092    0.7117 H   0  0  0  0  0  0  0  0  0  0  0  0
    0.0155   -4.0972    0.7123 H   0  0  0  0  0  0  0  0  0  0  0  0
   -0.7894   -2.2322    2.0282 H   0  0  0  0  0  0  0  0  0  0  0  0
    0.0062   -1.6115    0.5699 H   0  0  0  0  0  0  0  0  0  0  0  0
   -1.1234    0.5311    0.5844 H   0  0  0  0  0  0  0  0  0  0  0  0
   -2.0700   -0.1778    2.1506 H   0  0  0  0  0  0  0  0  0  0  0  0
   -3.0577    0.2262    0.7260 H   0  0  0  0  0  0  0  0  0  0  0  0
  1  2  1  0
  1  6  1  0
  1  7  1  0
  1 26  1  0
  2  3  1  0
  2  8  1  0
  2  9  1  0
  3  4  1  0
  4  5  1  0
  4 10  1  0
  4 11  1  0
  5  6  1  0
  6 12  1  0
  6 13  1  0
 14 15  1  0
 14 19  1  0
 14 20  1  0
 14 21  1  0
 15 16  1  0
 15 22  1  0
 15 23  1  0
 16 17  1  0
 16 24  1  0
 16 25  1  0
 17 18  1  0
 18 27  1  0
 18 28  1  0
M  RAD  1  18   2
M  END
>  <reaction>  (8) 
rmg_rxn_664

>  <mol_properties>  (8) 
{"0": {"label": "*3", "atom_type": "Cs"}, "1": {"label": "*4", "atom_type": "Cs"}, "16": {"label": "*0", "atom_type": "O2s"}, "17": {"label": "*1", "atom_type": "Cs"}, "25": {"label": "*2", "atom_type": "H0"}}

>  <type>  (8) 
unop_4

>  <geom_source>  (8) 
Heuristics

$$$$

     RDKit          3D

 28 27  0  0  0  0  0  0  0  0999 V2000
   -0.0840    1.1310   -0.2609 C   0  0  0  0  0  0  0  0  0  0  0  0
   -0.1730    2.5504    0.2812 C   0  0  0  0  0  0  0  0  0  0  0  0
    0.9663    3.2961   -0.1029 O   0  0  0  0  0  0  0  0  0  0  0  0
    2.1425    2.6742    0.3167 C   0  0  0  0  0  0  0  0  0  0  0  0
    2.3121    1.4031   -0.2329 O   0  0  0  0  0  0  0  0  0  0  0  0
    1.2581    0.5375    0.1430 C   0  0  0  0  0  0  0  0  0  0  0  0
   -0.1583    1.1529   -1.3498 H   0  0  0  0  0  0  0  0  0  0  0  0
   -1.0409    3.0813   -0.1076 H   0  0  0  0  0  0  0  0  0  0  0  0
   -0.2454    2.5305    1.3794 H   0  0  0  0  0  0  0  0  0  0  0  0
    2.1458    2.6008    1.4198 H   0  0  0  0  0  0  0  0  0  0  0  0
    2.9727    3.2880   -0.0255 H   0  0  0  0  0  0  0  0  0  0  0  0
    1.2864    0.3759    1.2315 H   0  0  0  0  0  0  0  0  0  0  0  0
    1.4459   -0.4165   -0.3478 H   0  0  0  0  0  0  0  0  0  0  0  0
   -0.8100   -3.7022   -1.5659 C   0  0  0  0  0  0  0  0  0  0  0  0
   -0.8100   -3.7022   -0.0430 C   0  0  0  0  0  0  0  0  0  0  0  0
   -0.8100   -2.3096    0.5530 C   0  0  0  0  0  0  0  0  0  0  0  0
   -1.9950   -1.6462    0.1889 O   0  0  0  0  0  0  0  0  0  0  0  0
   -2.0558   -0.3351    0.6741 C   0  0  0  0  0  3  0  0  0  0  0  0
    0.0724   -3.1886   -1.9556 H   0  0  0  0  0  0  0  0  0  0  0  0
   -1.6924   -3.1923   -1.9523 H   0  0  0  0  0  0  0  0  0  0  0  0
   -0.8051   -4.7202   -1.9582 H   0  0  0  0  0  0  0  0  0  0  0  0
   -1.6841   -4.2404    0.3326 H   0  0  0  0  0  0  0  0  0  0  0  0
    0.0717   -4.2283    0.3332 H   0  0  0  0  0  0  0  0  0  0  0  0
   -0.7332   -2.3633    1.6491 H   0  0  0  0  0  0  0  0  0  0  0  0
    0.0624   -1.7426    0.1908 H   0  0  0  0  0  0  0  0  0  0  0  0
   -1.0672    0.4000    0.2053 H   0  0  0  0  0  0  0  0  0  0  0  0
   -2.0138   -0.3090    1.7715 H   0  0  0  0  0  0  0  0  0  0  0  0
   -3.0015    0.0951    0.3469 H   0  0  0  0  0  0  0  0  0  0  0  0
  1  2  1  0
  1  6  1  0
  1  7  1  0
  1 26  1  0
  2  3  1  0
  2  8  1  0
  2  9  1  0
  3  4  1  0
  4  5  1  0
  4 10  1  0
  4 11  1  0
  5  6  1  0
  6 12  1  0
  6 13  1  0
 14 15  1  0
 14 19  1  0
 14 20  1  0
 14 21  1  0
 15 16  1  0
 15 22  1  0
 15 23  1  0
 16 17  1  0
 16 24  1  0
 16 25  1  0
 17 18  1  0
 18 27  1  0
 18 28  1  0
M  RAD  1  18   2
M  END
>  <reaction>  (9) 
rmg_rxn_664

>  <mol_properties>  (9) 
{"0": {"label": "*3", "atom_type": "Cs"}, "1": {"label": "*4", "atom_type": "Cs"}, "16": {"label": "*0", "atom_type": "O2s"}, "17": {"label": "*1", "atom_type": "Cs"}, "25": {"label": "*2", "atom_type": "H0"}}

>  <type>  (9) 
unop_5

>  <geom_source>  (9) 
Heuristics

$$$$

     RDKit          3D

 28 27  0  0  0  0  0  0  0  0999 V2000
   -0.0989    1.1377    0.0023 C   0  0  0  0  0  0  0  0  0  0  0  0
    1.1072    1.0595    0.9273 C   0  0  0  0  0  0  0  0  0  0  0  0
    1.8152    2.2843    0.9175 O   0  0  0  0  0  0  0  0  0  0  0  0
    2.2004    2.6351   -0.3768 C   0  0  0  0  0  0  0  0  0  0  0  0
    1.1172    2.8104   -1.2384 O   0  0  0  0  0  0  0  0  0  0  0  0
    0.3650    1.6189   -1.3651 C   0  0  0  0  0  0  0  0  0  0  0  0
   -0.8235    1.8455    0.4096 H   0  0  0  0  0  0  0  0  0  0  0  0
    0.8169    0.8735    1.9604 H   0  0  0  0  0  0  0  0  0  0  0  0
    1.7762    0.2464    0.6062 H   0  0  0  0  0  0  0  0  0  0  0  0
    2.8714    1.8565   -0.7840 H   0  0  0  0  0  0  0  0  0  0  0  0
    2.7201    3.5884   -0.3124 H   0  0  0  0  0  0  0  0  0  0  0  0
    0.9818    0.8451   -1.8475 H   0  0  0  0  0  0  0  0  0  0  0  0
   -0.4728    1.8456   -2.0230 H   0  0  0  0  0  0  0  0  0  0  0  0
   -0.8249   -3.6955   -1.3028 C   0  0  0  0  0  0  0  0  0  0  0  0
   -0.8249   -3.6955    0.2201 C   0  0  0  0  0  0  0  0  0  0  0  0
   -0.8249   -2.3029    0.8162 C   0  0  0  0  0  0  0  0  0  0  0  0
   -2.0099   -1.6394    0.4520 O   0  0  0  0  0  0  0  0  0  0  0  0
   -2.0707   -0.3283    0.9372 C   0  0  0  0  0  3  0  0  0  0  0  0
    0.0575   -3.1818   -1.6925 H   0  0  0  0  0  0  0  0  0  0  0  0
   -1.7073   -3.1856   -1.6892 H   0  0  0  0  0  0  0  0  0  0  0  0
   -0.8200   -4.7135   -1.6951 H   0  0  0  0  0  0  0  0  0  0  0  0
   -1.6990   -4.2336    0.5957 H   0  0  0  0  0  0  0  0  0  0  0  0
    0.0568   -4.2216    0.5964 H   0  0  0  0  0  0  0  0  0  0  0  0
   -0.7481   -2.3566    1.9122 H   0  0  0  0  0  0  0  0  0  0  0  0
    0.0475   -1.7358    0.4540 H   0  0  0  0  0  0  0  0  0  0  0  0
   -1.0821    0.4067    0.4684 H   0  0  0  0  0  0  0  0  0  0  0  0
   -2.0287   -0.3022    2.0347 H   0  0  0  0  0  0  0  0  0  0  0  0
   -3.0164    0.1018    0.6101 H   0  0  0  0  0  0  0  0  0  0  0  0
  1  2  1  0
  1  6  1  0
  1  7  1  0
  1 26  1  0
  2  3  1  0
  2  8  1  0
  2  9  1  0
  3  4  1  0
  4  5  1  0
  4 10  1  0
  4 11  1  0
  5  6  1  0
  6 12  1  0
  6 13  1  0
 14 15  1  0
 14 19  1  0
 14 20  1  0
 14 21  1  0
 15 16  1  0
 15 22  1  0
 15 23  1  0
 16 17  1  0
 16 24  1  0
 16 25  1  0
 17 18  1  0
 18 27  1  0
 18 28  1  0
M  RAD  1  18   2
M  END
>  <reaction>  (10) 
rmg_rxn_664

>  <mol_properties>  (10) 
{"0": {"label": "*3", "atom_type": "Cs"}, "1": {"label": "*4", "atom_type": "Cs"}, "16": {"label": "*0", "atom_type": "O2s"}, "17": {"label": "*1", "atom_type": "Cs"}, "25": {"label": "*2", "atom_type": "H0"}}

>  <type>  (10) 
unop_6

>  <geom_source>  (10) 
Heuristics

$$$$

     RDKit          3D

 28 27  0  0  0  0  0  0  0  0999 V2000
   -0.0378    1.0586    0.0062 C   0  0  0  0  0  0  0  0  0  0  0  0
    0.8162    1.5920    1.1476 C   0  0  0  0  0  0  0  0  0  0  0  0
    1.3315    2.8686    0.8216 O   0  0  0  0  0  0  0  0  0  0  0  0
    2.0567    2.8318   -0.3697 C   0  0  0  0  0  0  0  0  0  0  0  0
    1.2862    2.4377   -1.4639 O   0  0  0  0  0  0  0  0  0  0  0  0
    0.7680    1.1338   -1.2828 C   0  0  0  0  0  0  0  0  0  0  0  0
   -0.9366    1.6706   -0.0914 H   0  0  0  0  0  0  0  0  0  0  0  0
    0.2416    1.7108    2.0651 H   0  0  0  0  0  0  0  0  0  0  0  0
    1.6487    0.9009    1.3500 H   0  0  0  0  0  0  0  0  0  0  0  0
    2.9139    2.1429   -0.2567 H   0  0  0  0  0  0  0  0  0  0  0  0
    2.4056    3.8429   -0.5672 H   0  0  0  0  0  0  0  0  0  0  0  0
    1.5972    0.4104   -1.2514 H   0  0  0  0  0  0  0  0  0  0  0  0
    0.1580    0.9145   -2.1580 H   0  0  0  0  0  0  0  0  0  0  0  0
   -0.7638   -3.7746   -1.2989 C   0  0  0  0  0  0  0  0  0  0  0  0
   -0.7638   -3.7746    0.2240 C   0  0  0  0  0  0  0  0  0  0  0  0
   -0.7638   -2.3820    0.8201 C   0  0  0  0  0  0  0  0  0  0  0  0
   -1.9489   -1.7185    0.4559 O   0  0  0  0  0  0  0  0  0  0  0  0
   -2.0097   -0.4074    0.9411 C   0  0  0  0  0  3  0  0  0  0  0  0
    0.1185   -3.2609   -1.6886 H   0  0  0  0  0  0  0  0  0  0  0  0
   -1.6463   -3.2647   -1.6853 H   0  0  0  0  0  0  0  0  0  0  0  0
   -0.7589   -4.7925   -1.6912 H   0  0  0  0  0  0  0  0  0  0  0  0
   -1.6380   -4.3127    0.5996 H   0  0  0  0  0  0  0  0  0  0  0  0
    0.1179   -4.3007    0.6003 H   0  0  0  0  0  0  0  0  0  0  0  0
   -0.6870   -2.4357    1.9161 H   0  0  0  0  0  0  0  0  0  0  0  0
    0.1085   -1.8149    0.4579 H   0  0  0  0  0  0  0  0  0  0  0  0
   -1.0210    0.3277    0.4723 H   0  0  0  0  0  0  0  0  0  0  0  0
   -1.9677   -0.3813    2.0386 H   0  0  0  0  0  0  0  0  0  0  0  0
   -2.9554    0.0227    0.6140 H   0  0  0  0  0  0  0  0  0  0  0  0
  1  2  1  0
  1  6  1  0
  1  7  1  0
  1 26  1  0
  2  3  1  0
  2  8  1  0
  2  9  1  0
  3  4  1  0
  4  5  1  0
  4 10  1  0
  4 11  1  0
  5  6  1  0
  6 12  1  0
  6 13  1  0
 14 15  1  0
 14 19  1  0
 14 20  1  0
 14 21  1  0
 15 16  1  0
 15 22  1  0
 15 23  1  0
 16 17  1  0
 16 24  1  0
 16 25  1  0
 17 18  1  0
 18 27  1  0
 18 28  1  0
M  RAD  1  18   2
M  END
>  <reaction>  (11) 
rmg_rxn_664

>  <mol_properties>  (11) 
{"0": {"label": "*3", "atom_type": "Cs"}, "1": {"label": "*4", "atom_type": "Cs"}, "16": {"label": "*0", "atom_type": "O2s"}, "17": {"label": "*1", "atom_type": "Cs"}, "25": {"label": "*2", "atom_type": "H0"}}

>  <type>  (11) 
unop_7

>  <geom_source>  (11) 
Heuristics

$$$$

     RDKit          3D

 28 27  0  0  0  0  0  0  0  0999 V2000
    0.7162    0.7952   -0.0471 C   0  0  0  0  0  0  0  0  0  0  0  0
    0.3082    1.4668   -1.3506 C   0  0  0  0  0  0  0  0  0  0  0  0
    0.6880    2.8296   -1.3419 O   0  0  0  0  0  0  0  0  0  0  0  0
    0.1454    3.4985   -0.2444 C   0  0  0  0  0  0  0  0  0  0  0  0
    0.5692    2.9737    0.9769 O   0  0  0  0  0  0  0  0  0  0  0  0
    0.1819    1.6201    1.1151 C   0  0  0  0  0  0  0  0  0  0  0  0
    1.8053    0.7480    0.0116 H   0  0  0  0  0  0  0  0  0  0  0  0
    0.7937    1.0115   -2.2127 H   0  0  0  0  0  0  0  0  0  0  0  0
   -0.7812    1.3903   -1.4889 H   0  0  0  0  0  0  0  0  0  0  0  0
   -0.9581    3.4581   -0.2984 H   0  0  0  0  0  0  0  0  0  0  0  0
    0.4904    4.5290   -0.2907 H   0  0  0  0  0  0  0  0  0  0  0  0
   -0.9164    1.5543    1.1502 H   0  0  0  0  0  0  0  0  0  0  0  0
    0.5742    1.2778    2.0718 H   0  0  0  0  0  0  0  0  0  0  0  0
   -0.0098   -4.0380   -1.3522 C   0  0  0  0  0  0  0  0  0  0  0  0
   -0.0098   -4.0380    0.1707 C   0  0  0  0  0  0  0  0  0  0  0  0
   -0.0098   -2.6454    0.7668 C   0  0  0  0  0  0  0  0  0  0  0  0
   -1.1949   -1.9820    0.4026 O   0  0  0  0  0  0  0  0  0  0  0  0
   -1.2557   -0.6709    0.8878 C   0  0  0  0  0  3  0  0  0  0  0  0
    0.8726   -3.5243   -1.7419 H   0  0  0  0  0  0  0  0  0  0  0  0
   -0.8923   -3.5281   -1.7386 H   0  0  0  0  0  0  0  0  0  0  0  0
   -0.0049   -5.0560   -1.7445 H   0  0  0  0  0  0  0  0  0  0  0  0
   -0.8839   -4.5762    0.5464 H   0  0  0  0  0  0  0  0  0  0  0  0
    0.8719   -4.5641    0.5470 H   0  0  0  0  0  0  0  0  0  0  0  0
    0.0670   -2.6991    1.8628 H   0  0  0  0  0  0  0  0  0  0  0  0
    0.8625   -2.0784    0.4046 H   0  0  0  0  0  0  0  0  0  0  0  0
   -0.2670    0.0642    0.4190 H   0  0  0  0  0  0  0  0  0  0  0  0
   -1.2137   -0.6448    1.9853 H   0  0  0  0  0  0  0  0  0  0  0  0
   -2.2013   -0.2407    0.5607 H   0  0  0  0  0  0  0  0  0  0  0  0
  1  2  1  0
  1  6  1  0
  1  7  1  0
  1 26  1  0
  2  3  1  0
  2  8  1  0
  2  9  1  0
  3  4  1  0
  4  5  1  0
  4 10  1  0
  4 11  1  0
  5  6  1  0
  6 12  1  0
  6 13  1  0
 14 15  1  0
 14 19  1  0
 14 20  1  0
 14 21  1  0
 15 16  1  0
 15 22  1  0
 15 23  1  0
 16 17  1  0
 16 24  1  0
 16 25  1  0
 17 18  1  0
 18 27  1  0
 18 28  1  0
M  RAD  1  18   2
M  END
>  <reaction>  (12) 
rmg_rxn_664

>  <mol_properties>  (12) 
{"0": {"label": "*3", "atom_type": "Cs"}, "1": {"label": "*4", "atom_type": "Cs"}, "16": {"label": "*0", "atom_type": "O2s"}, "17": {"label": "*1", "atom_type": "Cs"}, "25": {"label": "*2", "atom_type": "H0"}}

>  <type>  (12) 
unop_8

>  <geom_source>  (12) 
Heuristics

$$$$

     RDKit          3D

 28 27  0  0  0  0  0  0  0  0999 V2000
   -0.0572    1.3327    0.3418 C   0  0  0  0  0  0  0  0  0  0  0  0
    1.1681    0.4697    0.0765 C   0  0  0  0  0  0  0  0  0  0  0  0
    2.2995    1.2832   -0.1678 O   0  0  0  0  0  0  0  0  0  0  0  0
    2.0701    2.1634   -1.2257 C   0  0  0  0  0  0  0  0  0  0  0  0
    1.0116    3.0397   -0.9848 O   0  0  0  0  0  0  0  0  0  0  0  0
   -0.2014    2.3375   -0.7922 C   0  0  0  0  0  0  0  0  0  0  0  0
    0.0722    1.8664    1.2854 H   0  0  0  0  0  0  0  0  0  0  0  0
    1.4141   -0.1616    0.9292 H   0  0  0  0  0  0  0  0  0  0  0  0
    0.9893   -0.1811   -0.7932 H   0  0  0  0  0  0  0  0  0  0  0  0
    1.8669    1.5862   -2.1463 H   0  0  0  0  0  0  0  0  0  0  0  0
    2.9678    2.7658   -1.3456 H   0  0  0  0  0  0  0  0  0  0  0  0
   -0.4765    1.8182   -1.7230 H   0  0  0  0  0  0  0  0  0  0  0  0
   -0.9656    3.0841   -0.5803 H   0  0  0  0  0  0  0  0  0  0  0  0
   -0.7832   -3.5004   -0.9632 C   0  0  0  0  0  0  0  0  0  0  0  0
   -0.7832   -3.5004    0.5597 C   0  0  0  0  0  0  0  0  0  0  0  0
   -0.7832   -2.1078    1.1557 C   0  0  0  0  0  0  0  0  0  0  0  0
   -1.9682   -1.4444    0.7916 O   0  0  0  0  0  0  0  0  0  0  0  0
   -2.0290   -0.1333    1.2768 C   0  0  0  0  0  3  0  0  0  0  0  0
    0.0992   -2.9868   -1.3529 H   0  0  0  0  0  0  0  0  0  0  0  0
   -1.6656   -2.9905   -1.3496 H   0  0  0  0  0  0  0  0  0  0  0  0
   -0.7783   -4.5184   -1.3555 H   0  0  0  0  0  0  0  0  0  0  0  0
   -1.6573   -4.0386    0.9353 H   0  0  0  0  0  0  0  0  0  0  0  0
    0.0985   -4.0266    0.9360 H   0  0  0  0  0  0  0  0  0  0  0  0
   -0.7064   -2.1615    2.2518 H   0  0  0  0  0  0  0  0  0  0  0  0
    0.0892   -1.5408    0.7936 H   0  0  0  0  0  0  0  0  0  0  0  0
   -1.0403    0.6018    0.8080 H   0  0  0  0  0  0  0  0  0  0  0  0
   -1.9870   -0.1072    2.3743 H   0  0  0  0  0  0  0  0  0  0  0  0
   -2.9747    0.2968    0.9496 H   0  0  0  0  0  0  0  0  0  0  0  0
  1  2  1  0
  1  6  1  0
  1  7  1  0
  1 26  1  0
  2  3  1  0
  2  8  1  0
  2  9  1  0
  3  4  1  0
  4  5  1  0
  4 10  1  0
  4 11  1  0
  5  6  1  0
  6 12  1  0
  6 13  1  0
 14 15  1  0
 14 19  1  0
 14 20  1  0
 14 21  1  0
 15 16  1  0
 15 22  1  0
 15 23  1  0
 16 17  1  0
 16 24  1  0
 16 25  1  0
 17 18  1  0
 18 27  1  0
 18 28  1  0
M  RAD  1  18   2
M  END
>  <reaction>  (13) 
rmg_rxn_664

>  <mol_properties>  (13) 
{"0": {"label": "*3", "atom_type": "Cs"}, "1": {"label": "*4", "atom_type": "Cs"}, "16": {"label": "*0", "atom_type": "O2s"}, "17": {"label": "*1", "atom_type": "Cs"}, "25": {"label": "*2", "atom_type": "H0"}}

>  <type>  (13) 
unop_9

>  <geom_source>  (13) 
Heuristics

$$$$

     RDKit          3D

 28 27  0  0  0  0  0  0  0  0999 V2000
    0.7000    0.9018    0.3009 C   0  0  0  0  0  0  0  0  0  0  0  0
    0.6441    0.9619   -1.2189 C   0  0  0  0  0  0  0  0  0  0  0  0
    1.0014    2.2529   -1.6739 O   0  0  0  0  0  0  0  0  0  0  0  0
    0.1868    3.2325   -1.1052 C   0  0  0  0  0  0  0  0  0  0  0  0
    0.2788    3.2764    0.2862 O   0  0  0  0  0  0  0  0  0  0  0  0
   -0.1243    2.0501    0.8654 C   0  0  0  0  0  0  0  0  0  0  0  0
    1.7359    1.0023    0.6304 H   0  0  0  0  0  0  0  0  0  0  0  0
    1.3408    0.2631   -1.6800 H   0  0  0  0  0  0  0  0  0  0  0  0
   -0.3706    0.7172   -1.5686 H   0  0  0  0  0  0  0  0  0  0  0  0
   -0.8637    3.0523   -1.3984 H   0  0  0  0  0  0  0  0  0  0  0  0
    0.5266    4.1945   -1.4823 H   0  0  0  0  0  0  0  0  0  0  0  0
   -1.1931    1.8821    0.6623 H   0  0  0  0  0  0  0  0  0  0  0  0
    0.0055    2.1541    1.9417 H   0  0  0  0  0  0  0  0  0  0  0  0
   -0.0261   -3.9313   -1.0041 C   0  0  0  0  0  0  0  0  0  0  0  0
   -0.0261   -3.9313    0.5188 C   0  0  0  0  0  0  0  0  0  0  0  0
   -0.0261   -2.5388    1.1148 C   0  0  0  0  0  0  0  0  0  0  0  0
   -1.2111   -1.8753    0.7507 O   0  0  0  0  0  0  0  0  0  0  0  0
   -1.2719   -0.5642    1.2358 C   0  0  0  0  0  3  0  0  0  0  0  0
    0.8563   -3.4177   -1.3939 H   0  0  0  0  0  0  0  0  0  0  0  0
   -0.9085   -3.4214   -1.3906 H   0  0  0  0  0  0  0  0  0  0  0  0
   -0.0211   -4.9493   -1.3964 H   0  0  0  0  0  0  0  0  0  0  0  0
   -0.9002   -4.4695    0.8944 H   0  0  0  0  0  0  0  0  0  0  0  0
    0.8557   -4.4575    0.8950 H   0  0  0  0  0  0  0  0  0  0  0  0
    0.0508   -2.5925    2.2109 H   0  0  0  0  0  0  0  0  0  0  0  0
    0.8463   -1.9717    0.7526 H   0  0  0  0  0  0  0  0  0  0  0  0
   -0.2832    0.1709    0.7671 H   0  0  0  0  0  0  0  0  0  0  0  0
   -1.2299   -0.5381    2.3333 H   0  0  0  0  0  0  0  0  0  0  0  0
   -2.2176   -0.1341    0.9087 H   0  0  0  0  0  0  0  0  0  0  0  0
  1  2  1  0
  1  6  1  0
  1  7  1  0
  1 26  1  0
  2  3  1  0
  2  8  1  0
  2  9  1  0
  3  4  1  0
  4  5  1  0
  4 10  1  0
  4 11  1  0
  5  6  1  0
  6 12  1  0
  6 13  1  0
 14 15  1  0
 14 19  1  0
 14 20  1  0
 14 21  1  0
 15 16  1  0
 15 22  1  0
 15 23  1  0
 16 17  1  0
 16 24  1  0
 16 25  1  0
 17 18  1  0
 18 27  1  0
 18 28  1  0
M  RAD  1  18   2
M  END
>  <reaction>  (14) 
rmg_rxn_664

>  <mol_properties>  (14) 
{"0": {"label": "*3", "atom_type": "Cs"}, "1": {"label": "*4", "atom_type": "Cs"}, "16": {"label": "*0", "atom_type": "O2s"}, "17": {"label": "*1", "atom_type": "Cs"}, "25": {"label": "*2", "atom_type": "H0"}}

>  <type>  (14) 
unop_10

>  <geom_source>  (14) 
Heuristics

$$$$

     RDKit          3D

 28 27  0  0  0  0  0  0  0  0999 V2000
   -0.0602    1.0849    0.0030 C   0  0  0  0  0  0  0  0  0  0  0  0
    0.3197    2.1665    1.0041 C   0  0  0  0  0  0  0  0  0  0  0  0
    0.9849    3.2303    0.3505 O   0  0  0  0  0  0  0  0  0  0  0  0
    2.1069    2.7750   -0.3425 C   0  0  0  0  0  0  0  0  0  0  0  0
    1.7932    1.8489   -1.3376 O   0  0  0  0  0  0  0  0  0  0  0  0
    1.1792    0.6975   -0.7910 C   0  0  0  0  0  0  0  0  0  0  0  0
   -0.8212    1.4714   -0.6777 H   0  0  0  0  0  0  0  0  0  0  0  0
   -0.5546    2.5957    1.4915 H   0  0  0  0  0  0  0  0  0  0  0  0
    0.9756    1.7462    1.7820 H   0  0  0  0  0  0  0  0  0  0  0  0
    2.8197    2.3211    0.3702 H   0  0  0  0  0  0  0  0  0  0  0  0
    2.5560    3.6362   -0.8322 H   0  0  0  0  0  0  0  0  0  0  0  0
    1.8955    0.1739   -0.1394 H   0  0  0  0  0  0  0  0  0  0  0  0
    0.9389    0.0431   -1.6278 H   0  0  0  0  0  0  0  0  0  0  0  0
   -0.7862   -3.7483   -1.3021 C   0  0  0  0  0  0  0  0  0  0  0  0
   -0.7862   -3.7483    0.2208 C   0  0  0  0  0  0  0  0  0  0  0  0
   -0.7862   -2.3557    0.8169 C   0  0  0  0  0  0  0  0  0  0  0  0
   -1.9713   -1.6923    0.4527 O   0  0  0  0  0  0  0  0  0  0  0  0
   -2.0321   -0.3812    0.9379 C   0  0  0  0  0  3  0  0  0  0  0  0
    0.0962   -3.2346   -1.6918 H   0  0  0  0  0  0  0  0  0  0  0  0
   -1.6687   -3.2384   -1.6885 H   0  0  0  0  0  0  0  0  0  0  0  0
   -0.7813   -4.7663   -1.6944 H   0  0  0  0  0  0  0  0  0  0  0  0
   -1.6603   -4.2865    0.5964 H   0  0  0  0  0  0  0  0  0  0  0  0
    0.0955   -4.2744    0.5971 H   0  0  0  0  0  0  0  0  0  0  0  0
   -0.7094   -2.4094    1.9129 H   0  0  0  0  0  0  0  0  0  0  0  0
    0.0862   -1.7887    0.4547 H   0  0  0  0  0  0  0  0  0  0  0  0
   -1.0434    0.3539    0.4691 H   0  0  0  0  0  0  0  0  0  0  0  0
   -1.9901   -0.3551    2.0354 H   0  0  0  0  0  0  0  0  0  0  0  0
   -2.9777    0.0490    0.6107 H   0  0  0  0  0  0  0  0  0  0  0  0
  1  2  1  0
  1  6  1  0
  1  7  1  0
  1 26  1  0
  2  3  1  0
  2  8  1  0
  2  9  1  0
  3  4  1  0
  4  5  1  0
  4 10  1  0
  4 11  1  0
  5  6  1  0
  6 12  1  0
  6 13  1  0
 14 15  1  0
 14 19  1  0
 14 20  1  0
 14 21  1  0
 15 16  1  0
 15 22  1  0
 15 23  1  0
 16 17  1  0
 16 24  1  0
 16 25  1  0
 17 18  1  0
 18 27  1  0
 18 28  1  0
M  RAD  1  18   2
M  END
>  <reaction>  (15) 
rmg_rxn_664

>  <mol_properties>  (15) 
{"0": {"label": "*3", "atom_type": "Cs"}, "1": {"label": "*4", "atom_type": "Cs"}, "16": {"label": "*0", "atom_type": "O2s"}, "17": {"label": "*1", "atom_type": "Cs"}, "25": {"label": "*2", "atom_type": "H0"}}

>  <type>  (15) 
unop_11

>  <geom_source>  (15) 
Heuristics

$$$$

     RDKit          3D

 28 27  0  0  0  0  0  0  0  0999 V2000
    0.1896    1.2708    0.5353 C   0  0  0  0  0  0  0  0  0  0  0  0
    1.0767    0.4448   -0.3852 C   0  0  0  0  0  0  0  0  0  0  0  0
    2.0479    1.2681   -1.0017 O   0  0  0  0  0  0  0  0  0  0  0  0
    1.4510    2.3208   -1.6960 C   0  0  0  0  0  0  0  0  0  0  0  0
    0.7021    3.1611   -0.8717 O   0  0  0  0  0  0  0  0  0  0  0  0
   -0.3544    2.4577   -0.2469 C   0  0  0  0  0  0  0  0  0  0  0  0
    0.7795    1.6322    1.3798 H   0  0  0  0  0  0  0  0  0  0  0  0
    1.6196   -0.3277    0.1578 H   0  0  0  0  0  0  0  0  0  0  0  0
    0.4650   -0.0439   -1.1591 H   0  0  0  0  0  0  0  0  0  0  0  0
    0.8016    1.9138   -2.4928 H   0  0  0  0  0  0  0  0  0  0  0  0
    2.2508    2.9190   -2.1267 H   0  0  0  0  0  0  0  0  0  0  0  0
   -1.0667    2.1107   -1.0111 H   0  0  0  0  0  0  0  0  0  0  0  0
   -0.8672    3.1701    0.3979 H   0  0  0  0  0  0  0  0  0  0  0  0
   -0.5365   -3.5624   -0.7697 C   0  0  0  0  0  0  0  0  0  0  0  0
   -0.5365   -3.5624    0.7532 C   0  0  0  0  0  0  0  0  0  0  0  0
   -0.5365   -2.1698    1.3492 C   0  0  0  0  0  0  0  0  0  0  0  0
   -1.7215   -1.5064    0.9851 O   0  0  0  0  0  0  0  0  0  0  0  0
   -1.7823   -0.1953    1.4703 C   0  0  0  0  0  3  0  0  0  0  0  0
    0.3459   -3.0487   -1.1594 H   0  0  0  0  0  0  0  0  0  0  0  0
   -1.4189   -3.0525   -1.1561 H   0  0  0  0  0  0  0  0  0  0  0  0
   -0.5315   -4.5804   -1.1620 H   0  0  0  0  0  0  0  0  0  0  0  0
   -1.4106   -4.1005    1.1288 H   0  0  0  0  0  0  0  0  0  0  0  0
    0.3453   -4.0885    1.1294 H   0  0  0  0  0  0  0  0  0  0  0  0
   -0.4596   -2.2235    2.4453 H   0  0  0  0  0  0  0  0  0  0  0  0
    0.3359   -1.6028    0.9870 H   0  0  0  0  0  0  0  0  0  0  0  0
   -0.7936    0.5398    1.0015 H   0  0  0  0  0  0  0  0  0  0  0  0
   -1.7403   -0.1692    2.5677 H   0  0  0  0  0  0  0  0  0  0  0  0
   -2.7280    0.2349    1.1431 H   0  0  0  0  0  0  0  0  0  0  0  0
  1  2  1  0
  1  6  1  0
  1  7  1  0
  1 26  1  0
  2  3  1  0
  2  8  1  0
  2  9  1  0
  3  4  1  0
  4  5  1  0
  4 10  1  0
  4 11  1  0
  5  6  1  0
  6 12  1  0
  6 13  1  0
 14 15  1  0
 14 19  1  0
 14 20  1  0
 14 21  1  0
 15 16  1  0
 15 22  1  0
 15 23  1  0
 16 17  1  0
 16 24  1  0
 16 25  1  0
 17 18  1  0
 18 27  1  0
 18 28  1  0
M  RAD  1  18   2
M  END
>  <reaction>  (16) 
rmg_rxn_664

>  <mol_properties>  (16) 
{"0": {"label": "*3", "atom_type": "Cs"}, "1": {"label": "*4", "atom_type": "Cs"}, "16": {"label": "*0", "atom_type": "O2s"}, "17": {"label": "*1", "atom_type": "Cs"}, "25": {"label": "*2", "atom_type": "H0"}}

>  <type>  (16) 
unop_12

>  <geom_source>  (16) 
Heuristics

$$$$

     RDKit          3D

 28 27  0  0  0  0  0  0  0  0999 V2000
   -3.6272    0.1326   -0.9213 O   0  0  0  0  0  0  0  0  0  0  0  0
   -2.1915    1.6212    0.2931 O   0  0  0  0  0  0  0  0  0  0  0  0
    1.5985   -1.6490    0.7793 O   0  0  0  0  0  0  0  0  0  0  0  0
   -1.7687   -0.7472    0.3300 C   0  0  0  0  0  0  0  0  0  0  0  0
    3.1627   -0.1339   -0.2854 C   0  0  0  0  0  0  0  0  0  0  0  0
   -2.4395   -0.6197   -1.0376 C   0  0  0  0  0  0  0  0  0  0  0  0
   -2.0707    0.5070    1.1497 C   0  0  0  0  0  0  0  0  0  0  0  0
    2.1088   -0.3342    0.8112 C   0  0  0  0  0  0  0  0  0  0  0  0
    3.7901    1.2546   -0.2036 C   0  0  0  0  0  0  0  0  0  0  0  0
   -3.3296    1.4761   -0.5518 C   0  0  0  0  0  0  0  0  0  0  0  0
    0.5646   -1.6985   -0.1684 C   0  0  0  0  0  3  0  0  0  0  0  0
   -2.1511   -1.6424    0.8670 H   0  0  0  0  0  0  0  0  0  0  0  0
   -0.4644   -0.8759    0.1642 H   0  0  0  0  0  0  0  0  0  0  0  0
    2.6929   -0.2575   -1.2849 H   0  0  0  0  0  0  0  0  0  0  0  0
    3.9602   -0.9004   -0.1757 H   0  0  0  0  0  0  0  0  0  0  0  0
   -1.7441   -0.1455   -1.7676 H   0  0  0  0  0  0  0  0  0  0  0  0
   -2.6862   -1.6312   -1.4234 H   0  0  0  0  0  0  0  0  0  0  0  0
   -3.0003    0.3708    1.7497 H   0  0  0  0  0  0  0  0  0  0  0  0
   -1.2379    0.6852    1.8614 H   0  0  0  0  0  0  0  0  0  0  0  0
    2.5961   -0.1878    1.7990 H   0  0  0  0  0  0  0  0  0  0  0  0
    1.3071    0.4409    0.7394 H   0  0  0  0  0  0  0  0  0  0  0  0
    4.2935    1.3940    0.7768 H   0  0  0  0  0  0  0  0  0  0  0  0
    4.5452    1.3693   -1.0097 H   0  0  0  0  0  0  0  0  0  0  0  0
    3.0122    2.0373   -0.3315 H   0  0  0  0  0  0  0  0  0  0  0  0
   -4.2152    1.9065   -0.0380 H   0  0  0  0  0  0  0  0  0  0  0  0
   -3.1649    2.0737   -1.4734 H   0  0  0  0  0  0  0  0  0  0  0  0
    0.8325   -2.4155   -0.9720 H   0  0  0  0  0  0  0  0  0  0  0  0
   -0.3731   -2.0303    0.3236 H   0  0  0  0  0  0  0  0  0  0  0  0
  1  6  1  0
  1 10  1  0
  2  7  1  0
  2 10  1  0
  3 11  1  0
  3  8  1  0
  4  6  1  0
  4  7  1  0
  4 12  1  0
  4 13  1  0
  5  9  1  0
  5  8  1  0
  5 14  1  0
  5 15  1  0
  6 16  1  0
  6 17  1  0
  7 18  1  0
  7 19  1  0
  8 20  1  0
  8 21  1  0
  9 22  1  0
  9 23  1  0
  9 24  1  0
 10 25  1  0
 10 26  1  0
 11 27  1  0
 11 28  1  0
M  RAD  1  11   2
M  END
>  <reaction>  (17) 
rmg_rxn_664

>  <mol_properties>  (17) 
{"0": {"label": "*3", "atom_type": "Cs"}, "1": {"label": "*4", "atom_type": "Cs"}, "16": {"label": "*0", "atom_type": "O2s"}, "17": {"label": "*1", "atom_type": "Cs"}, "25": {"label": "*2", "atom_type": "H0"}}

>  <type>  (17) 
unop_13

>  <geom_source>  (17) 
AutoTST

$$$$

     RDKit          3D

 28 27  0  0  0  0  0  0  0  0999 V2000
    0.4972    1.0930    0.5296 C   0  0  0  0  0  0  0  0  0  0  0  0
    0.9154    0.6048   -0.8500 C   0  0  0  0  0  0  0  0  0  0  0  0
    1.5290    1.6517   -1.5773 O   0  0  0  0  0  0  0  0  0  0  0  0
    0.6879    2.7606   -1.6738 C   0  0  0  0  0  0  0  0  0  0  0  0
    0.3541    3.3003   -0.4313 O   0  0  0  0  0  0  0  0  0  0  0  0
   -0.3339    2.3578    0.3686 C   0  0  0  0  0  0  0  0  0  0  0  0
    1.3874    1.3163    1.1209 H   0  0  0  0  0  0  0  0  0  0  0  0
    1.6417   -0.2048   -0.7927 H   0  0  0  0  0  0  0  0  0  0  0  0
    0.0363    0.2399   -1.4030 H   0  0  0  0  0  0  0  0  0  0  0  0
   -0.2355    2.4756   -2.2105 H   0  0  0  0  0  0  0  0  0  0  0  0
    1.2264    3.5279   -2.2255 H   0  0  0  0  0  0  0  0  0  0  0  0
   -1.3010    2.1162   -0.0986 H   0  0  0  0  0  0  0  0  0  0  0  0
   -0.5292    2.8414    1.3248 H   0  0  0  0  0  0  0  0  0  0  0  0
   -0.2288   -3.7402   -0.7754 C   0  0  0  0  0  0  0  0  0  0  0  0
   -0.2288   -3.7402    0.7475 C   0  0  0  0  0  0  0  0  0  0  0  0
   -0.2288   -2.3476    1.3436 C   0  0  0  0  0  0  0  0  0  0  0  0
   -1.4138   -1.6842    0.9794 O   0  0  0  0  0  0  0  0  0  0  0  0
   -1.4746   -0.3731    1.4646 C   0  0  0  0  0  3  0  0  0  0  0  0
    0.6536   -3.2266   -1.1651 H   0  0  0  0  0  0  0  0  0  0  0  0
   -1.1112   -3.2303   -1.1618 H   0  0  0  0  0  0  0  0  0  0  0  0
   -0.2239   -4.7582   -1.1677 H   0  0  0  0  0  0  0  0  0  0  0  0
   -1.1029   -4.2784    1.1231 H   0  0  0  0  0  0  0  0  0  0  0  0
    0.6529   -4.2664    1.1238 H   0  0  0  0  0  0  0  0  0  0  0  0
   -0.1520   -2.4013    2.4396 H   0  0  0  0  0  0  0  0  0  0  0  0
    0.6436   -1.7806    0.9814 H   0  0  0  0  0  0  0  0  0  0  0  0
   -0.4859    0.3620    0.9958 H   0  0  0  0  0  0  0  0  0  0  0  0
   -1.4326   -0.3470    2.5621 H   0  0  0  0  0  0  0  0  0  0  0  0
   -2.4203    0.0570    1.1374 H   0  0  0  0  0  0  0  0  0  0  0  0
  1  2  1  0
  1  6  1  0
  1  7  1  0
  1 26  1  0
  2  3  1  0
  2  8  1  0
  2  9  1  0
  3  4  1  0
  4  5  1  0
  4 10  1  0
  4 11  1  0
  5  6  1  0
  6 12  1  0
  6 13  1  0
 14 15  1  0
 14 19  1  0
 14 20  1  0
 14 21  1  0
 15 16  1  0
 15 22  1  0
 15 23  1  0
 16 17  1  0
 16 24  1  0
 16 25  1  0
 17 18  1  0
 18 27  1  0
 18 28  1  0
M  RAD  1  18   2
M  END
>  <reaction>  (18) 
rmg_rxn_664

>  <mol_properties>  (18) 
{"0": {"label": "*3", "atom_type": "Cs"}, "1": {"label": "*4", "atom_type": "Cs"}, "16": {"label": "*0", "atom_type": "O2s"}, "17": {"label": "*1", "atom_type": "Cs"}, "25": {"label": "*2", "atom_type": "H0"}}

>  <type>  (18) 
unop_14

>  <geom_source>  (18) 
gaussian_log

$$$$
