
     RDKit          3D

 14 13  0  0  0  0  0  0  0  0999 V2000
    1.8106   -0.5953    0.5577 C   0  0  0  0  0  0  0  0  0  0  0  0
    0.5197    0.2064    0.6554 C   0  0  0  0  0  0  0  0  0  0  0  0
   -0.5206   -0.2080   -0.3788 C   0  0  0  0  0  0  0  0  0  0  0  0
   -1.8114    0.5937   -0.2812 C   0  0  0  0  0  0  0  0  0  0  0  0
    2.2725   -0.4752   -0.4251 H   0  0  0  0  0  0  0  0  0  0  0  0
    1.6214   -1.6612    0.7052 H   0  0  0  0  0  0  0  0  0  0  0  0
    2.5364   -0.2784    1.3084 H   0  0  0  0  0  0  0  0  0  0  0  0
    0.0930    0.0950    1.6574 H   0  0  0  0  0  0  0  0  0  0  0  0
    0.7393    1.2723    0.5354 H   0  0  0  0  0  0  0  0  0  0  0  0
   -0.7402   -1.2739   -0.2588 H   0  0  0  0  0  0  0  0  0  0  0  0
   -0.0938   -0.0965   -1.3808 H   0  0  0  0  0  0  0  0  0  0  0  0
   -1.6222    1.6596   -0.4287 H   0  0  0  0  0  0  0  0  0  0  0  0
   -2.2734    0.4736    0.7017 H   0  0  0  0  0  0  0  0  0  0  0  0
   -2.5373    0.2768   -1.0318 H   0  0  0  0  0  0  0  0  0  0  0  0
  1  2  1  0
  1  5  1  0
  1  6  1  0
  1  7  1  0
  2  3  1  0
  2  8  1  0
  2  9  1  0
  3  4  1  0
  3 10  1  0
  3 11  1  0
  4 12  1  0
  4 13  1  0
  4 14  1  0
M  END
>  <reaction>  (1) 
rmg_rxn_178

>  <mol_properties>  (1) 
{"3": {"label": "donator", "atom_type": "Cs"}, "12": {"label": "d_hydrogen", "atom_type": "H0"}}

>  <type>  (1) 
r1h

$$$$

     RDKit          3D

  8  7  0  0  0  0  0  0  0  0999 V2000
   -1.0336    0.3440   -0.0356 C   0  0  0  0  0  3  0  0  0  0  0  0
    0.1991   -0.4326   -0.0698 C   0  0  0  0  0  0  0  0  0  0  0  0
    0.9631   -0.0368    1.2269 N   0  0  0  0  0  0  0  0  0  0  0  0
    0.8138   -0.8074    2.1160 O   0  0  0  0  0  0  0  0  0  0  0  0
   -1.0668    1.3490   -0.4321 H   0  0  0  0  0  0  0  0  0  0  0  0
   -1.8598    0.0102    0.5774 H   0  0  0  0  0  0  0  0  0  0  0  0
    0.0447   -1.5108   -0.0264 H   0  0  0  0  0  0  0  0  0  0  0  0
    0.8639   -0.1518   -0.8851 H   0  0  0  0  0  0  0  0  0  0  0  0
  1  2  1  0
  1  5  1  0
  1  6  1  0
  2  3  1  0
  2  7  1  0
  2  8  1  0
  3  4  2  0
M  RAD  1   1   2
M  END
>  <reaction>  (2) 
rmg_rxn_178

>  <mol_properties>  (2) 
{"0": {"label": "acceptor", "atom_type": "Cs"}}

>  <type>  (2) 
r2

$$$$

     RDKit          3D

  9  8  0  0  0  0  0  0  0  0999 V2000
   -1.0314    0.2323   -0.1227 C   0  0  0  0  0  0  0  0  0  0  0  0
    0.3094   -0.4511    0.0063 C   0  0  0  0  0  0  0  0  0  0  0  0
    0.3197   -1.7698    0.6841 N   0  0  0  0  0  0  0  0  0  0  0  0
   -0.7498   -2.1455    1.0557 O   0  0  0  0  0  0  0  0  0  0  0  0
   -1.4744    0.4198    0.8552 H   0  0  0  0  0  0  0  0  0  0  0  0
   -0.9073    1.1865   -0.6350 H   0  0  0  0  0  0  0  0  0  0  0  0
   -1.7319   -0.3778   -0.6927 H   0  0  0  0  0  0  0  0  0  0  0  0
    1.0375    0.1401    0.5713 H   0  0  0  0  0  0  0  0  0  0  0  0
    0.7826   -0.6494   -0.9609 H   0  0  0  0  0  0  0  0  0  0  0  0
  1  2  1  0
  1  5  1  0
  1  6  1  0
  1  7  1  0
  2  3  1  0
  2  8  1  0
  2  9  1  0
  3  4  2  0
M  END
>  <reaction>  (3) 
rmg_rxn_178

>  <mol_properties>  (3) 
{"0": {"label": "acceptor", "atom_type": "Cs"}, "8": {"label": "a_hydrogen", "atom_type": "H0"}}

>  <type>  (3) 
r2h

$$$$

     RDKit          3D

 22 20  0  0  0  0  0  0  0  0999 V2000
   -0.2857   -0.1269    1.4888 C   0  0  0  0  0  3  0  0  0  0  0  0
   -1.3919    0.0491    0.5028 C   0  0  0  0  0  0  0  0  0  0  0  0
   -2.6562   -0.7158    0.7397 N   0  0  0  0  0  0  0  0  0  0  0  0
   -2.6475   -1.4077    1.7089 O   0  0  0  0  0  0  0  0  0  0  0  0
   -0.5040    0.2372    2.4896 H   0  0  0  0  0  0  0  0  0  0  0  0
    0.1540   -1.1209    1.5099 H   0  0  0  0  0  0  0  0  0  0  0  0
   -1.7334    1.0869    0.4260 H   0  0  0  0  0  0  0  0  0  0  0  0
   -1.1072   -0.2436   -0.5138 H   0  0  0  0  0  0  0  0  0  0  0  0
    1.8185   -0.2509   -2.9318 C   0  0  0  0  0  0  0  0  0  0  0  0
    1.9210   -0.0958   -1.4211 C   0  0  0  0  0  0  0  0  0  0  0  0
    1.5952    1.3160   -0.9446 C   0  0  0  0  0  0  0  0  0  0  0  0
    1.6621    1.4708    0.5523 C   0  0  0  0  0  0  0  0  0  0  0  0
    2.5034    0.4296   -3.4428 H   0  0  0  0  0  0  0  0  0  0  0  0
    0.8080   -0.0257   -3.2812 H   0  0  0  0  0  0  0  0  0  0  0  0
    2.0610   -1.2670   -3.2461 H   0  0  0  0  0  0  0  0  0  0  0  0
    1.2477   -0.8065   -0.9316 H   0  0  0  0  0  0  0  0  0  0  0  0
    2.9298   -0.3597   -1.0892 H   0  0  0  0  0  0  0  0  0  0  0  0
    0.5977    1.5988   -1.2995 H   0  0  0  0  0  0  0  0  0  0  0  0
    2.2878    2.0214   -1.4212 H   0  0  0  0  0  0  0  0  0  0  0  0
    2.5821    1.1040    1.0068 H   0  0  0  0  0  0  0  0  0  0  0  0
    0.7213    0.6776    1.0601 H   0  0  0  0  0  0  0  0  0  0  0  0
    1.3953    2.4577    0.9265 H   0  0  0  0  0  0  0  0  0  0  0  0
  1  2  1  0
  1  5  1  0
  1  6  1  0
  2  3  1  0
  2  7  1  0
  2  8  1  0
  3  4  2  0
  9 10  1  0
  9 13  1  0
  9 14  1  0
  9 15  1  0
 10 11  1  0
 10 16  1  0
 10 17  1  0
 11 12  1  0
 11 18  1  0
 11 19  1  0
 12 20  1  0
 12 21  1  0
 12 22  1  0
M  RAD  1   1   2
M  END
>  <reaction>  (4) 
rmg_rxn_178

>  <mol_properties>  (4) 
{"0": {"label": "*3", "atom_type": "Cs"}, "1": {"label": "*4", "atom_type": "Cs"}, "10": {"label": "*0", "atom_type": "Cs"}, "11": {"label": "*1", "atom_type": "Cs"}, "20": {"label": "*2", "atom_type": "H0"}}

>  <type>  (4) 
ts

$$$$

     RDKit          3D

 22 20  0  0  0  0  0  0  0  0999 V2000
   -0.8942    0.1414    0.7143 C   0  0  0  0  0  0  0  0  0  0  0  0
   -0.4620   -1.0332    1.5600 C   0  0  0  0  0  0  0  0  0  0  0  0
   -1.2440   -1.2857    2.7941 N   0  0  0  0  0  0  0  0  0  0  0  0
   -2.1393   -0.5195    2.9803 O   0  0  0  0  0  0  0  0  0  0  0  0
   -1.9221    0.0240    0.3720 H   0  0  0  0  0  0  0  0  0  0  0  0
   -0.8357    1.0740    1.2752 H   0  0  0  0  0  0  0  0  0  0  0  0
   -0.5056   -1.9858    1.0220 H   0  0  0  0  0  0  0  0  0  0  0  0
    0.5697   -0.9465    1.9161 H   0  0  0  0  0  0  0  0  0  0  0  0
    1.2191   -0.0303   -3.8667 C   0  0  0  0  0  0  0  0  0  0  0  0
    1.2191   -0.0303   -2.3440 C   0  0  0  0  0  0  0  0  0  0  0  0
    1.2191    1.3721   -1.7466 C   0  0  0  0  0  0  0  0  0  0  0  0
    1.2191    1.3721   -0.2239 C   0  0  0  0  0  3  0  0  0  0  0  0
    2.1006    0.4831   -4.2581 H   0  0  0  0  0  0  0  0  0  0  0  0
    0.3376    0.4831   -4.2581 H   0  0  0  0  0  0  0  0  0  0  0  0
    1.2191   -1.0454   -4.2671 H   0  0  0  0  0  0  0  0  0  0  0  0
    0.3441   -0.5762   -1.9767 H   0  0  0  0  0  0  0  0  0  0  0  0
    2.0942   -0.5762   -1.9767 H   0  0  0  0  0  0  0  0  0  0  0  0
    0.3441    1.9180   -2.1139 H   0  0  0  0  0  0  0  0  0  0  0  0
    2.0942    1.9180   -2.1139 H   0  0  0  0  0  0  0  0  0  0  0  0
    2.1006    0.8588    0.1674 H   0  0  0  0  0  0  0  0  0  0  0  0
    0.1613    0.7561    0.2457 H   0  0  0  0  0  0  0  0  0  0  0  0
    1.2191    2.3872    0.1764 H   0  0  0  0  0  0  0  0  0  0  0  0
  1  2  1  0
  1  5  1  0
  1  6  1  0
  1 21  1  0
  2  3  1  0
  2  7  1  0
  2  8  1  0
  3  4  2  0
  9 10  1  0
  9 13  1  0
  9 14  1  0
  9 15  1  0
 10 11  1  0
 10 16  1  0
 10 17  1  0
 11 12  1  0
 11 18  1  0
 11 19  1  0
 12 20  1  0
 12 22  1  0
M  RAD  1  12   2
M  END
>  <reaction>  (5) 
rmg_rxn_178

>  <mol_properties>  (5) 
{"0": {"label": "*3", "atom_type": "Cs"}, "1": {"label": "*4", "atom_type": "Cs"}, "10": {"label": "*0", "atom_type": "Cs"}, "11": {"label": "*1", "atom_type": "Cs"}, "20": {"label": "*2", "atom_type": "H0"}}

>  <type>  (5) 
unop_1

>  <geom_source>  (5) 
Heuristics

$$$$

     RDKit          3D

 22 20  0  0  0  0  0  0  0  0999 V2000
   -0.6214    0.3991    1.4509 C   0  0  0  0  0  0  0  0  0  0  0  0
   -1.0532   -0.6758    0.4815 C   0  0  0  0  0  0  0  0  0  0  0  0
   -1.9493   -1.7297    1.0151 N   0  0  0  0  0  0  0  0  0  0  0  0
   -2.2308   -1.6054    2.1677 O   0  0  0  0  0  0  0  0  0  0  0  0
   -1.4800    0.9402    1.8480 H   0  0  0  0  0  0  0  0  0  0  0  0
   -0.0779   -0.0258    2.2946 H   0  0  0  0  0  0  0  0  0  0  0  0
   -1.5989   -0.2791   -0.3809 H   0  0  0  0  0  0  0  0  0  0  0  0
   -0.2111   -1.2353    0.0612 H   0  0  0  0  0  0  0  0  0  0  0  0
    1.4919    0.2274   -3.1301 C   0  0  0  0  0  0  0  0  0  0  0  0
    1.4919    0.2274   -1.6074 C   0  0  0  0  0  0  0  0  0  0  0  0
    1.4919    1.6297   -1.0100 C   0  0  0  0  0  0  0  0  0  0  0  0
    1.4919    1.6297    0.5127 C   0  0  0  0  0  3  0  0  0  0  0  0
    2.3734    0.7407   -3.5215 H   0  0  0  0  0  0  0  0  0  0  0  0
    0.6103    0.7407   -3.5215 H   0  0  0  0  0  0  0  0  0  0  0  0
    1.4919   -0.7877   -3.5305 H   0  0  0  0  0  0  0  0  0  0  0  0
    0.6168   -0.3185   -1.2401 H   0  0  0  0  0  0  0  0  0  0  0  0
    2.3669   -0.3185   -1.2401 H   0  0  0  0  0  0  0  0  0  0  0  0
    0.6168    2.1756   -1.3773 H   0  0  0  0  0  0  0  0  0  0  0  0
    2.3669    2.1756   -1.3773 H   0  0  0  0  0  0  0  0  0  0  0  0
    2.3734    1.1164    0.9040 H   0  0  0  0  0  0  0  0  0  0  0  0
    0.4340    1.0137    0.9823 H   0  0  0  0  0  0  0  0  0  0  0  0
    1.4919    2.6449    0.9130 H   0  0  0  0  0  0  0  0  0  0  0  0
  1  2  1  0
  1  5  1  0
  1  6  1  0
  1 21  1  0
  2  3  1  0
  2  7  1  0
  2  8  1  0
  3  4  2  0
  9 10  1  0
  9 13  1  0
  9 14  1  0
  9 15  1  0
 10 11  1  0
 10 16  1  0
 10 17  1  0
 11 12  1  0
 11 18  1  0
 11 19  1  0
 12 20  1  0
 12 22  1  0
M  RAD  1  12   2
M  END
>  <reaction>  (6) 
rmg_rxn_178

>  <mol_properties>  (6) 
{"0": {"label": "*3", "atom_type": "Cs"}, "1": {"label": "*4", "atom_type": "Cs"}, "10": {"label": "*0", "atom_type": "Cs"}, "11": {"label": "*1", "atom_type": "Cs"}, "20": {"label": "*2", "atom_type": "H0"}}

>  <type>  (6) 
unop_2

>  <geom_source>  (6) 
Heuristics

$$$$

     RDKit          3D

 22 20  0  0  0  0  0  0  0  0999 V2000
   -0.7459   -0.0355    0.6833 C   0  0  0  0  0  0  0  0  0  0  0  0
   -0.4146   -0.6660    2.0153 C   0  0  0  0  0  0  0  0  0  0  0  0
   -1.5381   -0.8322    2.9685 N   0  0  0  0  0  0  0  0  0  0  0  0
   -2.5917   -0.4423    2.5672 O   0  0  0  0  0  0  0  0  0  0  0  0
   -1.4848   -0.6248    0.1408 H   0  0  0  0  0  0  0  0  0  0  0  0
   -1.1511    0.9680    0.8117 H   0  0  0  0  0  0  0  0  0  0  0  0
   -0.0006   -1.6751    1.9191 H   0  0  0  0  0  0  0  0  0  0  0  0
    0.3298   -0.0985    2.5832 H   0  0  0  0  0  0  0  0  0  0  0  0
    1.3674   -0.2072   -3.8977 C   0  0  0  0  0  0  0  0  0  0  0  0
    1.3674   -0.2072   -2.3750 C   0  0  0  0  0  0  0  0  0  0  0  0
    1.3674    1.1952   -1.7777 C   0  0  0  0  0  0  0  0  0  0  0  0
    1.3674    1.1952   -0.2550 C   0  0  0  0  0  3  0  0  0  0  0  0
    2.2490    0.3062   -4.2891 H   0  0  0  0  0  0  0  0  0  0  0  0
    0.4859    0.3062   -4.2891 H   0  0  0  0  0  0  0  0  0  0  0  0
    1.3674   -1.2223   -4.2981 H   0  0  0  0  0  0  0  0  0  0  0  0
    0.4924   -0.7531   -2.0077 H   0  0  0  0  0  0  0  0  0  0  0  0
    2.2425   -0.7531   -2.0077 H   0  0  0  0  0  0  0  0  0  0  0  0
    0.4924    1.7411   -2.1450 H   0  0  0  0  0  0  0  0  0  0  0  0
    2.2425    1.7411   -2.1450 H   0  0  0  0  0  0  0  0  0  0  0  0
    2.2490    0.6818    0.1364 H   0  0  0  0  0  0  0  0  0  0  0  0
    0.3096    0.5792    0.2147 H   0  0  0  0  0  0  0  0  0  0  0  0
    1.3674    2.2103    0.1454 H   0  0  0  0  0  0  0  0  0  0  0  0
  1  2  1  0
  1  5  1  0
  1  6  1  0
  1 21  1  0
  2  3  1  0
  2  7  1  0
  2  8  1  0
  3  4  2  0
  9 10  1  0
  9 13  1  0
  9 14  1  0
  9 15  1  0
 10 11  1  0
 10 16  1  0
 10 17  1  0
 11 12  1  0
 11 18  1  0
 11 19  1  0
 12 20  1  0
 12 22  1  0
M  RAD  1  12   2
M  END
>  <reaction>  (7) 
rmg_rxn_178

>  <mol_properties>  (7) 
{"0": {"label": "*3", "atom_type": "Cs"}, "1": {"label": "*4", "atom_type": "Cs"}, "10": {"label": "*0", "atom_type": "Cs"}, "11": {"label": "*1", "atom_type": "Cs"}, "20": {"label": "*2", "atom_type": "H0"}}

>  <type>  (7) 
unop_3

>  <geom_source>  (7) 
Heuristics

$$$$

     RDKit          3D

 22 20  0  0  0  0  0  0  0  0999 V2000
   -0.3041   -0.4410    1.1870 C   0  0  0  0  0  0  0  0  0  0  0  0
   -1.5529    0.2580    0.7040 C   0  0  0  0  0  0  0  0  0  0  0  0
   -2.7242    0.2274    1.6127 N   0  0  0  0  0  0  0  0  0  0  0  0
   -2.5425   -0.3553    2.6376 O   0  0  0  0  0  0  0  0  0  0  0  0
    0.0564   -0.0055    2.1187 H   0  0  0  0  0  0  0  0  0  0  0  0
   -0.4888   -1.5001    1.3656 H   0  0  0  0  0  0  0  0  0  0  0  0
   -1.3980    1.3246    0.5112 H   0  0  0  0  0  0  0  0  0  0  0  0
   -1.9378   -0.1549   -0.2343 H   0  0  0  0  0  0  0  0  0  0  0  0
    1.8092   -0.6127   -3.3940 C   0  0  0  0  0  0  0  0  0  0  0  0
    1.8092   -0.6127   -1.8713 C   0  0  0  0  0  0  0  0  0  0  0  0
    1.8092    0.7896   -1.2739 C   0  0  0  0  0  0  0  0  0  0  0  0
    1.8092    0.7896    0.2488 C   0  0  0  0  0  3  0  0  0  0  0  0
    2.6907   -0.0994   -3.7853 H   0  0  0  0  0  0  0  0  0  0  0  0
    0.9277   -0.0994   -3.7853 H   0  0  0  0  0  0  0  0  0  0  0  0
    1.8092   -1.6278   -3.7943 H   0  0  0  0  0  0  0  0  0  0  0  0
    0.9341   -1.1586   -1.5040 H   0  0  0  0  0  0  0  0  0  0  0  0
    2.6842   -1.1586   -1.5040 H   0  0  0  0  0  0  0  0  0  0  0  0
    0.9341    1.3355   -1.6412 H   0  0  0  0  0  0  0  0  0  0  0  0
    2.6842    1.3355   -1.6412 H   0  0  0  0  0  0  0  0  0  0  0  0
    2.6907    0.2763    0.6402 H   0  0  0  0  0  0  0  0  0  0  0  0
    0.7514    0.1736    0.7184 H   0  0  0  0  0  0  0  0  0  0  0  0
    1.8092    1.8048    0.6492 H   0  0  0  0  0  0  0  0  0  0  0  0
  1  2  1  0
  1  5  1  0
  1  6  1  0
  1 21  1  0
  2  3  1  0
  2  7  1  0
  2  8  1  0
  3  4  2  0
  9 10  1  0
  9 13  1  0
  9 14  1  0
  9 15  1  0
 10 11  1  0
 10 16  1  0
 10 17  1  0
 11 12  1  0
 11 18  1  0
 11 19  1  0
 12 20  1  0
 12 22  1  0
M  RAD  1  12   2
M  END
>  <reaction>  (8) 
rmg_rxn_178

>  <mol_properties>  (8) 
{"0": {"label": "*3", "atom_type": "Cs"}, "1": {"label": "*4", "atom_type": "Cs"}, "10": {"label": "*0", "atom_type": "Cs"}, "11": {"label": "*1", "atom_type": "Cs"}, "20": {"label": "*2", "atom_type": "H0"}}

>  <type>  (8) 
unop_4

>  <geom_source>  (8) 
Heuristics

$$$$

     RDKit          3D

 22 20  0  0  0  0  0  0  0  0999 V2000
   -0.6627   -0.0352    0.7267 C   0  0  0  0  0  0  0  0  0  0  0  0
   -0.6305   -0.0164    2.2367 C   0  0  0  0  0  0  0  0  0  0  0  0
   -1.7618   -0.6752    2.9328 N   0  0  0  0  0  0  0  0  0  0  0  0
   -2.5808   -1.1522    2.2083 O   0  0  0  0  0  0  0  0  0  0  0  0
   -0.6665   -1.0559    0.3448 H   0  0  0  0  0  0  0  0  0  0  0  0
   -1.5523    0.4653    0.3448 H   0  0  0  0  0  0  0  0  0  0  0  0
    0.2553   -0.5087    2.6512 H   0  0  0  0  0  0  0  0  0  0  0  0
   -0.6215    0.9970    2.6512 H   0  0  0  0  0  0  0  0  0  0  0  0
    1.4506   -0.2069   -3.8543 C   0  0  0  0  0  0  0  0  0  0  0  0
    1.4506   -0.2069   -2.3316 C   0  0  0  0  0  0  0  0  0  0  0  0
    1.4506    1.1955   -1.7342 C   0  0  0  0  0  0  0  0  0  0  0  0
    1.4506    1.1955   -0.2115 C   0  0  0  0  0  3  0  0  0  0  0  0
    2.3322    0.3065   -4.2457 H   0  0  0  0  0  0  0  0  0  0  0  0
    0.5691    0.3065   -4.2457 H   0  0  0  0  0  0  0  0  0  0  0  0
    1.4506   -1.2220   -4.2547 H   0  0  0  0  0  0  0  0  0  0  0  0
    0.5756   -0.7527   -1.9643 H   0  0  0  0  0  0  0  0  0  0  0  0
    2.3257   -0.7527   -1.9643 H   0  0  0  0  0  0  0  0  0  0  0  0
    0.5756    1.7414   -2.1015 H   0  0  0  0  0  0  0  0  0  0  0  0
    2.3257    1.7414   -2.1015 H   0  0  0  0  0  0  0  0  0  0  0  0
    2.3322    0.6822    0.1798 H   0  0  0  0  0  0  0  0  0  0  0  0
    0.3928    0.5795    0.2581 H   0  0  0  0  0  0  0  0  0  0  0  0
    1.4506    2.2106    0.1888 H   0  0  0  0  0  0  0  0  0  0  0  0
  1  2  1  0
  1  5  1  0
  1  6  1  0
  1 21  1  0
  2  3  1  0
  2  7  1  0
  2  8  1  0
  3  4  2  0
  9 10  1  0
  9 13  1  0
  9 14  1  0
  9 15  1  0
 10 11  1  0
 10 16  1  0
 10 17  1  0
 11 12  1  0
 11 18  1  0
 11 19  1  0
 12 20  1  0
 12 22  1  0
M  RAD  1  12   2
M  END
>  <reaction>  (9) 
rmg_rxn_178

>  <mol_properties>  (9) 
{"0": {"label": "*3", "atom_type": "Cs"}, "1": {"label": "*4", "atom_type": "Cs"}, "10": {"label": "*0", "atom_type": "Cs"}, "11": {"label": "*1", "atom_type": "Cs"}, "20": {"label": "*2", "atom_type": "H0"}}

>  <type>  (9) 
unop_5

>  <geom_source>  (9) 
Heuristics

$$$$

     RDKit          3D

 22 20  0  0  0  0  0  0  0  0999 V2000
   -0.4535   -0.4712    0.9025 C   0  0  0  0  0  0  0  0  0  0  0  0
   -1.5780    0.5209    1.0838 C   0  0  0  0  0  0  0  0  0  0  0  0
   -2.4226    0.3533    2.2909 N   0  0  0  0  0  0  0  0  0  0  0  0
   -2.1117   -0.5608    2.9916 O   0  0  0  0  0  0  0  0  0  0  0  0
    0.2457   -0.4319    1.7376 H   0  0  0  0  0  0  0  0  0  0  0  0
   -0.8335   -1.4904    0.8356 H   0  0  0  0  0  0  0  0  0  0  0  0
   -1.2278    1.5561    1.1501 H   0  0  0  0  0  0  0  0  0  0  0  0
   -2.2960    0.5084    0.2573 H   0  0  0  0  0  0  0  0  0  0  0  0
    1.6598   -0.6429   -3.6785 C   0  0  0  0  0  0  0  0  0  0  0  0
    1.6598   -0.6429   -2.1558 C   0  0  0  0  0  0  0  0  0  0  0  0
    1.6598    0.7595   -1.5584 C   0  0  0  0  0  0  0  0  0  0  0  0
    1.6598    0.7595   -0.0357 C   0  0  0  0  0  3  0  0  0  0  0  0
    2.5413   -0.1295   -4.0698 H   0  0  0  0  0  0  0  0  0  0  0  0
    0.7783   -0.1295   -4.0698 H   0  0  0  0  0  0  0  0  0  0  0  0
    1.6598   -1.6580   -4.0788 H   0  0  0  0  0  0  0  0  0  0  0  0
    0.7848   -1.1888   -1.7885 H   0  0  0  0  0  0  0  0  0  0  0  0
    2.5348   -1.1888   -1.7885 H   0  0  0  0  0  0  0  0  0  0  0  0
    0.7848    1.3054   -1.9257 H   0  0  0  0  0  0  0  0  0  0  0  0
    2.5348    1.3054   -1.9257 H   0  0  0  0  0  0  0  0  0  0  0  0
    2.5413    0.2461    0.3557 H   0  0  0  0  0  0  0  0  0  0  0  0
    0.6020    0.1435    0.4339 H   0  0  0  0  0  0  0  0  0  0  0  0
    1.6598    1.7746    0.3647 H   0  0  0  0  0  0  0  0  0  0  0  0
  1  2  1  0
  1  5  1  0
  1  6  1  0
  1 21  1  0
  2  3  1  0
  2  7  1  0
  2  8  1  0
  3  4  2  0
  9 10  1  0
  9 13  1  0
  9 14  1  0
  9 15  1  0
 10 11  1  0
 10 16  1  0
 10 17  1  0
 11 12  1  0
 11 18  1  0
 11 19  1  0
 12 20  1  0
 12 22  1  0
M  RAD  1  12   2
M  END
>  <reaction>  (10) 
rmg_rxn_178

>  <mol_properties>  (10) 
{"0": {"label": "*3", "atom_type": "Cs"}, "1": {"label": "*4", "atom_type": "Cs"}, "10": {"label": "*0", "atom_type": "Cs"}, "11": {"label": "*1", "atom_type": "Cs"}, "20": {"label": "*2", "atom_type": "H0"}}

>  <type>  (10) 
unop_6

>  <geom_source>  (10) 
Heuristics

$$$$

     RDKit          3D

 22 20  0  0  0  0  0  0  0  0999 V2000
   -0.6233   -0.3237    0.7143 C   0  0  0  0  0  0  0  0  0  0  0  0
   -1.4316    0.6319    1.5600 C   0  0  0  0  0  0  0  0  0  0  0  0
   -2.0372    0.0764    2.7941 N   0  0  0  0  0  0  0  0  0  0  0  0
   -1.8126   -1.0804    2.9803 O   0  0  0  0  0  0  0  0  0  0  0  0
    0.2166   -0.7331    1.2752 H   0  0  0  0  0  0  0  0  0  0  0  0
   -1.2327   -1.1598    0.3720 H   0  0  0  0  0  0  0  0  0  0  0  0
   -0.8471    1.4865    1.9161 H   0  0  0  0  0  0  0  0  0  0  0  0
   -2.2817    1.0641    1.0220 H   0  0  0  0  0  0  0  0  0  0  0  0
    1.4900   -0.4954   -3.8667 C   0  0  0  0  0  0  0  0  0  0  0  0
    1.4900   -0.4954   -2.3440 C   0  0  0  0  0  0  0  0  0  0  0  0
    1.4900    0.9070   -1.7466 C   0  0  0  0  0  0  0  0  0  0  0  0
    1.4900    0.9070   -0.2239 C   0  0  0  0  0  3  0  0  0  0  0  0
    2.3715    0.0180   -4.2581 H   0  0  0  0  0  0  0  0  0  0  0  0
    0.6084    0.0180   -4.2581 H   0  0  0  0  0  0  0  0  0  0  0  0
    1.4900   -1.5105   -4.2671 H   0  0  0  0  0  0  0  0  0  0  0  0
    0.6149   -1.0413   -1.9767 H   0  0  0  0  0  0  0  0  0  0  0  0
    2.3650   -1.0413   -1.9767 H   0  0  0  0  0  0  0  0  0  0  0  0
    0.6149    1.4529   -2.1139 H   0  0  0  0  0  0  0  0  0  0  0  0
    2.3650    1.4529   -2.1139 H   0  0  0  0  0  0  0  0  0  0  0  0
    2.3715    0.3937    0.1674 H   0  0  0  0  0  0  0  0  0  0  0  0
    0.4321    0.2910    0.2457 H   0  0  0  0  0  0  0  0  0  0  0  0
    1.4900    1.9221    0.1764 H   0  0  0  0  0  0  0  0  0  0  0  0
  1  2  1  0
  1  5  1  0
  1  6  1  0
  1 21  1  0
  2  3  1  0
  2  7  1  0
  2  8  1  0
  3  4  2  0
  9 10  1  0
  9 13  1  0
  9 14  1  0
  9 15  1  0
 10 11  1  0
 10 16  1  0
 10 17  1  0
 11 12  1  0
 11 18  1  0
 11 19  1  0
 12 20  1  0
 12 22  1  0
M  RAD  1  12   2
M  END
>  <reaction>  (11) 
rmg_rxn_178

>  <mol_properties>  (11) 
{"0": {"label": "*3", "atom_type": "Cs"}, "1": {"label": "*4", "atom_type": "Cs"}, "10": {"label": "*0", "atom_type": "Cs"}, "11": {"label": "*1", "atom_type": "Cs"}, "20": {"label": "*2", "atom_type": "H0"}}

>  <type>  (11) 
unop_7

>  <geom_source>  (11) 
Heuristics

$$$$

     RDKit          3D

 22 20  0  0  0  0  0  0  0  0999 V2000
   -0.9387    0.3619    0.9025 C   0  0  0  0  0  0  0  0  0  0  0  0
   -0.6308   -1.1057    1.0838 C   0  0  0  0  0  0  0  0  0  0  0  0
   -1.1933   -1.7575    2.2909 N   0  0  0  0  0  0  0  0  0  0  0  0
   -1.8349   -1.0360    2.9916 O   0  0  0  0  0  0  0  0  0  0  0  0
   -2.0127    0.5344    0.8356 H   0  0  0  0  0  0  0  0  0  0  0  0
   -0.5595    0.9506    1.7376 H   0  0  0  0  0  0  0  0  0  0  0  0
   -0.9960   -1.7240    0.2573 H   0  0  0  0  0  0  0  0  0  0  0  0
    0.4424   -1.3120    1.1501 H   0  0  0  0  0  0  0  0  0  0  0  0
    1.1746    0.1902   -3.6785 C   0  0  0  0  0  0  0  0  0  0  0  0
    1.1746    0.1902   -2.1558 C   0  0  0  0  0  0  0  0  0  0  0  0
    1.1746    1.5926   -1.5584 C   0  0  0  0  0  0  0  0  0  0  0  0
    1.1746    1.5926   -0.0357 C   0  0  0  0  0  3  0  0  0  0  0  0
    2.0562    0.7036   -4.0698 H   0  0  0  0  0  0  0  0  0  0  0  0
    0.2931    0.7036   -4.0698 H   0  0  0  0  0  0  0  0  0  0  0  0
    1.1746   -0.8249   -4.0788 H   0  0  0  0  0  0  0  0  0  0  0  0
    0.2996   -0.3556   -1.7885 H   0  0  0  0  0  0  0  0  0  0  0  0
    2.0497   -0.3556   -1.7885 H   0  0  0  0  0  0  0  0  0  0  0  0
    0.2996    2.1385   -1.9257 H   0  0  0  0  0  0  0  0  0  0  0  0
    2.0497    2.1385   -1.9257 H   0  0  0  0  0  0  0  0  0  0  0  0
    2.0562    1.0793    0.3557 H   0  0  0  0  0  0  0  0  0  0  0  0
    0.1168    0.9766    0.4339 H   0  0  0  0  0  0  0  0  0  0  0  0
    1.1746    2.6077    0.3647 H   0  0  0  0  0  0  0  0  0  0  0  0
  1  2  1  0
  1  5  1  0
  1  6  1  0
  1 21  1  0
  2  3  1  0
  2  7  1  0
  2  8  1  0
  3  4  2  0
  9 10  1  0
  9 13  1  0
  9 14  1  0
  9 15  1  0
 10 11  1  0
 10 16  1  0
 10 17  1  0
 11 12  1  0
 11 18  1  0
 11 19  1  0
 12 20  1  0
 12 22  1  0
M  RAD  1  12   2
M  END
>  <reaction>  (12) 
rmg_rxn_178

>  <mol_properties>  (12) 
{"0": {"label": "*3", "atom_type": "Cs"}, "1": {"label": "*4", "atom_type": "Cs"}, "10": {"label": "*0", "atom_type": "Cs"}, "11": {"label": "*1", "atom_type": "Cs"}, "20": {"label": "*2", "atom_type": "H0"}}

>  <type>  (12) 
unop_8

>  <geom_source>  (12) 
Heuristics

$$$$

     RDKit          3D

 22 20  0  0  0  0  0  0  0  0999 V2000
   -0.2647   -0.2136    1.4509 C   0  0  0  0  0  0  0  0  0  0  0  0
   -1.4126   -0.0586    0.4815 C   0  0  0  0  0  0  0  0  0  0  0  0
   -2.7714   -0.3179    1.0151 N   0  0  0  0  0  0  0  0  0  0  0  0
   -2.8023   -0.6241    2.1677 O   0  0  0  0  0  0  0  0  0  0  0  0
   -0.3659    0.4688    2.2946 H   0  0  0  0  0  0  0  0  0  0  0  0
   -0.2177   -1.2274    1.8479 H   0  0  0  0  0  0  0  0  0  0  0  0
   -1.4836    0.9499    0.0612 H   0  0  0  0  0  0  0  0  0  0  0  0
   -1.3369   -0.7291   -0.3809 H   0  0  0  0  0  0  0  0  0  0  0  0
    1.8486   -0.3853   -3.1301 C   0  0  0  0  0  0  0  0  0  0  0  0
    1.8486   -0.3853   -1.6074 C   0  0  0  0  0  0  0  0  0  0  0  0
    1.8486    1.0171   -1.0100 C   0  0  0  0  0  0  0  0  0  0  0  0
    1.8486    1.0171    0.5127 C   0  0  0  0  0  3  0  0  0  0  0  0
    2.7302    0.1281   -3.5215 H   0  0  0  0  0  0  0  0  0  0  0  0
    0.9671    0.1281   -3.5215 H   0  0  0  0  0  0  0  0  0  0  0  0
    1.8486   -1.4004   -3.5305 H   0  0  0  0  0  0  0  0  0  0  0  0
    0.9736   -0.9312   -1.2401 H   0  0  0  0  0  0  0  0  0  0  0  0
    2.7237   -0.9312   -1.2401 H   0  0  0  0  0  0  0  0  0  0  0  0
    0.9736    1.5630   -1.3773 H   0  0  0  0  0  0  0  0  0  0  0  0
    2.7237    1.5630   -1.3773 H   0  0  0  0  0  0  0  0  0  0  0  0
    2.7302    0.5037    0.9040 H   0  0  0  0  0  0  0  0  0  0  0  0
    0.7908    0.4010    0.9823 H   0  0  0  0  0  0  0  0  0  0  0  0
    1.8486    2.0322    0.9130 H   0  0  0  0  0  0  0  0  0  0  0  0
  1  2  1  0
  1  5  1  0
  1  6  1  0
  1 21  1  0
  2  3  1  0
  2  7  1  0
  2  8  1  0
  3  4  2  0
  9 10  1  0
  9 13  1  0
  9 14  1  0
  9 15  1  0
 10 11  1  0
 10 16  1  0
 10 17  1  0
 11 12  1  0
 11 18  1  0
 11 19  1  0
 12 20  1  0
 12 22  1  0
M  RAD  1  12   2
M  END
>  <reaction>  (13) 
rmg_rxn_178

>  <mol_properties>  (13) 
{"0": {"label": "*3", "atom_type": "Cs"}, "1": {"label": "*4", "atom_type": "Cs"}, "10": {"label": "*0", "atom_type": "Cs"}, "11": {"label": "*1", "atom_type": "Cs"}, "20": {"label": "*2", "atom_type": "H0"}}

>  <type>  (13) 
unop_9

>  <geom_source>  (13) 
Heuristics

$$$$

     RDKit          3D

 22 20  0  0  0  0  0  0  0  0999 V2000
   -0.8387    0.4770    1.1870 C   0  0  0  0  0  0  0  0  0  0  0  0
   -0.8471   -0.9541    0.7040 C   0  0  0  0  0  0  0  0  0  0  0  0
   -1.4517   -1.9577    1.6127 N   0  0  0  0  0  0  0  0  0  0  0  0
   -1.8688   -1.5121    2.6376 O   0  0  0  0  0  0  0  0  0  0  0  0
   -1.8510    0.8390    1.3656 H   0  0  0  0  0  0  0  0  0  0  0  0
   -0.2819    0.5756    2.1187 H   0  0  0  0  0  0  0  0  0  0  0  0
   -1.3961   -1.0851   -0.2343 H   0  0  0  0  0  0  0  0  0  0  0  0
    0.1571   -1.3458    0.5112 H   0  0  0  0  0  0  0  0  0  0  0  0
    1.2746    0.3053   -3.3940 C   0  0  0  0  0  0  0  0  0  0  0  0
    1.2746    0.3053   -1.8713 C   0  0  0  0  0  0  0  0  0  0  0  0
    1.2746    1.7077   -1.2739 C   0  0  0  0  0  0  0  0  0  0  0  0
    1.2746    1.7077    0.2488 C   0  0  0  0  0  3  0  0  0  0  0  0
    2.1561    0.8186   -3.7853 H   0  0  0  0  0  0  0  0  0  0  0  0
    0.3931    0.8186   -3.7853 H   0  0  0  0  0  0  0  0  0  0  0  0
    1.2746   -0.7098   -3.7943 H   0  0  0  0  0  0  0  0  0  0  0  0
    0.3995   -0.2406   -1.5040 H   0  0  0  0  0  0  0  0  0  0  0  0
    2.1496   -0.2406   -1.5040 H   0  0  0  0  0  0  0  0  0  0  0  0
    0.3995    2.2535   -1.6412 H   0  0  0  0  0  0  0  0  0  0  0  0
    2.1496    2.2535   -1.6412 H   0  0  0  0  0  0  0  0  0  0  0  0
    2.1561    1.1943    0.6402 H   0  0  0  0  0  0  0  0  0  0  0  0
    0.2167    1.0916    0.7184 H   0  0  0  0  0  0  0  0  0  0  0  0
    1.2746    2.7228    0.6492 H   0  0  0  0  0  0  0  0  0  0  0  0
  1  2  1  0
  1  5  1  0
  1  6  1  0
  1 21  1  0
  2  3  1  0
  2  7  1  0
  2  8  1  0
  3  4  2  0
  9 10  1  0
  9 13  1  0
  9 14  1  0
  9 15  1  0
 10 11  1  0
 10 16  1  0
 10 17  1  0
 11 12  1  0
 11 18  1  0
 11 19  1  0
 12 20  1  0
 12 22  1  0
M  RAD  1  12   2
M  END
>  <reaction>  (14) 
rmg_rxn_178

>  <mol_properties>  (14) 
{"0": {"label": "*3", "atom_type": "Cs"}, "1": {"label": "*4", "atom_type": "Cs"}, "10": {"label": "*0", "atom_type": "Cs"}, "11": {"label": "*1", "atom_type": "Cs"}, "20": {"label": "*2", "atom_type": "H0"}}

>  <type>  (14) 
unop_10

>  <geom_source>  (14) 
Heuristics

$$$$

     RDKit          3D

 22 20  0  0  0  0  0  0  0  0999 V2000
   -0.7040   -0.1074    0.6833 C   0  0  0  0  0  0  0  0  0  0  0  0
   -1.0889    0.4919    2.0153 C   0  0  0  0  0  0  0  0  0  0  0  0
   -1.7879   -0.4032    2.9685 N   0  0  0  0  0  0  0  0  0  0  0  0
   -1.9688   -1.5120    2.5672 O   0  0  0  0  0  0  0  0  0  0  0  0
   -0.0312   -0.9550    0.8117 H   0  0  0  0  0  0  0  0  0  0  0  0
   -1.5812   -0.4593    0.1408 H   0  0  0  0  0  0  0  0  0  0  0  0
   -0.2279    0.8593    2.5832 H   0  0  0  0  0  0  0  0  0  0  0  0
   -1.7622    1.3500    1.9191 H   0  0  0  0  0  0  0  0  0  0  0  0
    1.4093   -0.2791   -3.8977 C   0  0  0  0  0  0  0  0  0  0  0  0
    1.4093   -0.2791   -2.3750 C   0  0  0  0  0  0  0  0  0  0  0  0
    1.4093    1.1233   -1.7777 C   0  0  0  0  0  0  0  0  0  0  0  0
    1.4093    1.1233   -0.2550 C   0  0  0  0  0  3  0  0  0  0  0  0
    2.2908    0.2343   -4.2891 H   0  0  0  0  0  0  0  0  0  0  0  0
    0.5278    0.2343   -4.2891 H   0  0  0  0  0  0  0  0  0  0  0  0
    1.4093   -1.2942   -4.2981 H   0  0  0  0  0  0  0  0  0  0  0  0
    0.5343   -0.8249   -2.0077 H   0  0  0  0  0  0  0  0  0  0  0  0
    2.2843   -0.8249   -2.0077 H   0  0  0  0  0  0  0  0  0  0  0  0
    0.5343    1.6692   -2.1450 H   0  0  0  0  0  0  0  0  0  0  0  0
    2.2843    1.6692   -2.1450 H   0  0  0  0  0  0  0  0  0  0  0  0
    2.2908    0.6100    0.1364 H   0  0  0  0  0  0  0  0  0  0  0  0
    0.3515    0.5073    0.2147 H   0  0  0  0  0  0  0  0  0  0  0  0
    1.4093    2.1384    0.1454 H   0  0  0  0  0  0  0  0  0  0  0  0
  1  2  1  0
  1  5  1  0
  1  6  1  0
  1 21  1  0
  2  3  1  0
  2  7  1  0
  2  8  1  0
  3  4  2  0
  9 10  1  0
  9 13  1  0
  9 14  1  0
  9 15  1  0
 10 11  1  0
 10 16  1  0
 10 17  1  0
 11 12  1  0
 11 18  1  0
 11 19  1  0
 12 20  1  0
 12 22  1  0
M  RAD  1  12   2
M  END
>  <reaction>  (15) 
rmg_rxn_178

>  <mol_properties>  (15) 
{"0": {"label": "*3", "atom_type": "Cs"}, "1": {"label": "*4", "atom_type": "Cs"}, "10": {"label": "*0", "atom_type": "Cs"}, "11": {"label": "*1", "atom_type": "Cs"}, "20": {"label": "*2", "atom_type": "H0"}}

>  <type>  (15) 
unop_11

>  <geom_source>  (15) 
Heuristics

$$$$

     RDKit          3D

 22 20  0  0  0  0  0  0  0  0999 V2000
   -0.3861    0.1259    1.5610 C   0  0  0  0  0  0  0  0  0  0  0  0
   -1.2349   -0.3684    0.4136 C   0  0  0  0  0  0  0  0  0  0  0  0
   -2.4783   -1.0925    0.7718 N   0  0  0  0  0  0  0  0  0  0  0  0
   -2.6683   -1.2031    1.9443 O   0  0  0  0  0  0  0  0  0  0  0  0
   -0.9403    0.8216    2.1907 H   0  0  0  0  0  0  0  0  0  0  0  0
   -0.0545   -0.6995    2.1907 H   0  0  0  0  0  0  0  0  0  0  0  0
   -1.5803    0.4386   -0.2408 H   0  0  0  0  0  0  0  0  0  0  0  0
   -0.7035   -1.0671   -0.2408 H   0  0  0  0  0  0  0  0  0  0  0  0
    1.7272   -0.0458   -3.0200 C   0  0  0  0  0  0  0  0  0  0  0  0
    1.7272   -0.0458   -1.4973 C   0  0  0  0  0  0  0  0  0  0  0  0
    1.7272    1.3566   -0.8999 C   0  0  0  0  0  0  0  0  0  0  0  0
    1.7272    1.3566    0.6228 C   0  0  0  0  0  3  0  0  0  0  0  0
    2.6088    0.4676   -3.4113 H   0  0  0  0  0  0  0  0  0  0  0  0
    0.8457    0.4676   -3.4113 H   0  0  0  0  0  0  0  0  0  0  0  0
    1.7272   -1.0609   -3.4203 H   0  0  0  0  0  0  0  0  0  0  0  0
    0.8522   -0.5917   -1.1299 H   0  0  0  0  0  0  0  0  0  0  0  0
    2.6023   -0.5917   -1.1299 H   0  0  0  0  0  0  0  0  0  0  0  0
    0.8522    1.9025   -1.2672 H   0  0  0  0  0  0  0  0  0  0  0  0
    2.6023    1.9025   -1.2672 H   0  0  0  0  0  0  0  0  0  0  0  0
    2.6088    0.8432    1.0142 H   0  0  0  0  0  0  0  0  0  0  0  0
    0.6694    0.7406    1.0924 H   0  0  0  0  0  0  0  0  0  0  0  0
    1.7272    2.3717    1.0232 H   0  0  0  0  0  0  0  0  0  0  0  0
  1  2  1  0
  1  5  1  0
  1  6  1  0
  1 21  1  0
  2  3  1  0
  2  7  1  0
  2  8  1  0
  3  4  2  0
  9 10  1  0
  9 13  1  0
  9 14  1  0
  9 15  1  0
 10 11  1  0
 10 16  1  0
 10 17  1  0
 11 12  1  0
 11 18  1  0
 11 19  1  0
 12 20  1  0
 12 22  1  0
M  RAD  1  12   2
M  END
>  <reaction>  (16) 
rmg_rxn_178

>  <mol_properties>  (16) 
{"0": {"label": "*3", "atom_type": "Cs"}, "1": {"label": "*4", "atom_type": "Cs"}, "10": {"label": "*0", "atom_type": "Cs"}, "11": {"label": "*1", "atom_type": "Cs"}, "20": {"label": "*2", "atom_type": "H0"}}

>  <type>  (16) 
unop_12

>  <geom_source>  (16) 
Heuristics

$$$$

     RDKit          3D

 22 20  0  0  0  0  0  0  0  0999 V2000
   -2.7566    2.6076   -0.4158 O   0  0  0  0  0  0  0  0  0  0  0  0
   -2.1643    1.6289   -0.0757 N   0  0  0  0  0  0  0  0  0  0  0  0
    1.7931    0.4461   -0.5517 C   0  0  0  0  0  0  0  0  0  0  0  0
    1.1873   -0.7940    0.1104 C   0  0  0  0  0  0  0  0  0  0  0  0
   -2.8622    0.3834    0.1126 C   0  0  0  0  0  0  0  0  0  0  0  0
    2.7905    1.1340    0.3759 C   0  0  0  0  0  0  0  0  0  0  0  0
   -1.8802   -0.6952    0.5407 C   0  0  0  0  0  0  0  0  0  0  0  0
    0.1812   -1.4597   -0.8184 C   0  0  0  0  0  3  0  0  0  0  0  0
    2.3161    0.1538   -1.4885 H   0  0  0  0  0  0  0  0  0  0  0  0
    0.9847    1.1652   -0.8090 H   0  0  0  0  0  0  0  0  0  0  0  0
    1.9895   -1.5221    0.3609 H   0  0  0  0  0  0  0  0  0  0  0  0
    0.6665   -0.5005    1.0475 H   0  0  0  0  0  0  0  0  0  0  0  0
   -3.3475    0.0808   -0.8402 H   0  0  0  0  0  0  0  0  0  0  0  0
   -3.6420    0.5065    0.8951 H   0  0  0  0  0  0  0  0  0  0  0  0
   -2.4167   -1.6582    0.6749 H   0  0  0  0  0  0  0  0  0  0  0  0
   -1.3983   -0.4149    1.5015 H   0  0  0  0  0  0  0  0  0  0  0  0
   -0.9452   -0.8486   -0.3908 H   0  0  0  0  0  0  0  0  0  0  0  0
    3.6220    0.4423    0.6293 H   0  0  0  0  0  0  0  0  0  0  0  0
    3.2135    2.0274   -0.1300 H   0  0  0  0  0  0  0  0  0  0  0  0
    2.2867    1.4604    1.3106 H   0  0  0  0  0  0  0  0  0  0  0  0
   -0.3032   -2.3152   -0.3021 H   0  0  0  0  0  0  0  0  0  0  0  0
    0.6852   -1.8279   -1.7374 H   0  0  0  0  0  0  0  0  0  0  0  0
  1  2  2  0
  2  5  1  0
  3  6  1  0
  3  4  1  0
  3  9  1  0
  3 10  1  0
  4  8  1  0
  4 11  1  0
  4 12  1  0
  5  7  1  0
  5 13  1  0
  5 14  1  0
  6 18  1  0
  6 19  1  0
  6 20  1  0
  7 15  1  0
  7 16  1  0
  7 17  1  0
  8 21  1  0
  8 22  1  0
M  RAD  1   8   2
M  END
>  <reaction>  (17) 
rmg_rxn_178

>  <mol_properties>  (17) 
{"0": {"label": "*3", "atom_type": "Cs"}, "1": {"label": "*4", "atom_type": "Cs"}, "10": {"label": "*0", "atom_type": "Cs"}, "11": {"label": "*1", "atom_type": "Cs"}, "20": {"label": "*2", "atom_type": "H0"}}

>  <type>  (17) 
unop_13

>  <geom_source>  (17) 
AutoTST

$$$$

     RDKit          3D

 22 20  0  0  0  0  0  0  0  0999 V2000
   -0.6214    0.3991    1.4509 C   0  0  0  0  0  0  0  0  0  0  0  0
   -1.0532   -0.6758    0.4815 C   0  0  0  0  0  0  0  0  0  0  0  0
   -1.9493   -1.7297    1.0151 N   0  0  0  0  0  0  0  0  0  0  0  0
   -2.2308   -1.6054    2.1677 O   0  0  0  0  0  0  0  0  0  0  0  0
   -1.4801    0.9402    1.8479 H   0  0  0  0  0  0  0  0  0  0  0  0
   -0.0779   -0.0258    2.2946 H   0  0  0  0  0  0  0  0  0  0  0  0
   -1.5989   -0.2791   -0.3809 H   0  0  0  0  0  0  0  0  0  0  0  0
   -0.2111   -1.2353    0.0612 H   0  0  0  0  0  0  0  0  0  0  0  0
    1.4919    0.2274   -3.1301 C   0  0  0  0  0  0  0  0  0  0  0  0
    1.4919    0.2274   -1.6074 C   0  0  0  0  0  0  0  0  0  0  0  0
    1.4919    1.6298   -1.0100 C   0  0  0  0  0  0  0  0  0  0  0  0
    1.4919    1.6298    0.5127 C   0  0  0  0  0  3  0  0  0  0  0  0
    2.3734    0.7407   -3.5215 H   0  0  0  0  0  0  0  0  0  0  0  0
    0.6103    0.7407   -3.5215 H   0  0  0  0  0  0  0  0  0  0  0  0
    1.4919   -0.7877   -3.5305 H   0  0  0  0  0  0  0  0  0  0  0  0
    0.6168   -0.3185   -1.2401 H   0  0  0  0  0  0  0  0  0  0  0  0
    2.3669   -0.3185   -1.2401 H   0  0  0  0  0  0  0  0  0  0  0  0
    0.6168    2.1756   -1.3773 H   0  0  0  0  0  0  0  0  0  0  0  0
    2.3669    2.1756   -1.3773 H   0  0  0  0  0  0  0  0  0  0  0  0
    2.3734    1.1164    0.9040 H   0  0  0  0  0  0  0  0  0  0  0  0
    0.4340    1.0137    0.9823 H   0  0  0  0  0  0  0  0  0  0  0  0
    1.4919    2.6448    0.9130 H   0  0  0  0  0  0  0  0  0  0  0  0
  1  2  1  0
  1  5  1  0
  1  6  1  0
  1 21  1  0
  2  3  1  0
  2  7  1  0
  2  8  1  0
  3  4  2  0
  9 10  1  0
  9 13  1  0
  9 14  1  0
  9 15  1  0
 10 11  1  0
 10 16  1  0
 10 17  1  0
 11 12  1  0
 11 18  1  0
 11 19  1  0
 12 20  1  0
 12 22  1  0
M  RAD  1  12   2
M  END
>  <reaction>  (18) 
rmg_rxn_178

>  <mol_properties>  (18) 
{"0": {"label": "*3", "atom_type": "Cs"}, "1": {"label": "*4", "atom_type": "Cs"}, "10": {"label": "*0", "atom_type": "Cs"}, "11": {"label": "*1", "atom_type": "Cs"}, "20": {"label": "*2", "atom_type": "H0"}}

>  <type>  (18) 
unop_14

>  <geom_source>  (18) 
gaussian_log

$$$$
