
     RDKit          3D

  9  8  0  0  0  0  0  0  0  0999 V2000
   -0.8818   -0.3578    0.1297 C   0  0  0  0  0  0  0  0  0  0  0  0
    0.6153   -0.3021   -0.1188 C   0  0  0  0  0  0  0  0  0  0  0  0
    1.5354   -1.7170    0.5545 S   0  0  0  0  0  0  0  0  0  0  0  0
   -1.1018   -0.3317    1.1984 H   0  0  0  0  0  0  0  0  0  0  0  0
   -1.3114   -1.2723   -0.2799 H   0  0  0  0  0  0  0  0  0  0  0  0
   -1.3767    0.4976   -0.3363 H   0  0  0  0  0  0  0  0  0  0  0  0
    1.0467    0.6194    0.2718 H   0  0  0  0  0  0  0  0  0  0  0  0
    0.8295   -0.3275   -1.1882 H   0  0  0  0  0  0  0  0  0  0  0  0
    1.2306   -1.5077    1.8423 H   0  0  0  0  0  0  0  0  0  0  0  0
  1  2  1  0
  1  4  1  0
  1  5  1  0
  1  6  1  0
  2  3  1  0
  2  7  1  0
  2  8  1  0
  3  9  1  0
M  END
>  <reaction>  (1) 
rmg_rxn_59

>  <mol_properties>  (1) 
{"2": {"label": "donator", "atom_type": "S2s"}, "8": {"label": "d_hydrogen", "atom_type": "H0"}}

>  <type>  (1) 
r1h

$$$$

     RDKit          3D

 14 13  0  0  0  0  0  0  0  0999 V2000
    2.6194    0.1388   -0.2451 C   0  0  0  0  0  0  0  0  0  0  0  0
    1.2416   -0.4914   -0.3670 C   0  0  0  0  0  0  0  0  0  0  0  0
    0.9567   -1.8675    0.7732 S   0  0  0  0  0  0  0  0  0  0  0  0
    1.9992   -3.0673    0.1320 C   0  0  0  0  0  3  0  0  0  0  0  0
    2.1769   -4.3519    0.8615 C   0  0  0  0  0  0  0  0  0  0  0  0
    3.4009   -0.5920   -0.4552 H   0  0  0  0  0  0  0  0  0  0  0  0
    2.7219    0.9635   -0.9540 H   0  0  0  0  0  0  0  0  0  0  0  0
    2.7821    0.5262    0.7612 H   0  0  0  0  0  0  0  0  0  0  0  0
    1.0587   -0.8507   -1.3815 H   0  0  0  0  0  0  0  0  0  0  0  0
    0.4587    0.2313   -0.1333 H   0  0  0  0  0  0  0  0  0  0  0  0
    2.2677   -2.9922   -0.9152 H   0  0  0  0  0  0  0  0  0  0  0  0
    1.3745   -5.0711    0.6500 H   0  0  0  0  0  0  0  0  0  0  0  0
    3.1173   -4.8269    0.5747 H   0  0  0  0  0  0  0  0  0  0  0  0
    2.1945   -4.1971    1.9428 H   0  0  0  0  0  0  0  0  0  0  0  0
  1  2  1  0
  1  6  1  0
  1  7  1  0
  1  8  1  0
  2  3  1  0
  2  9  1  0
  2 10  1  0
  3  4  1  0
  4  5  1  0
  4 11  1  0
  5 12  1  0
  5 13  1  0
  5 14  1  0
M  RAD  1   4   2
M  END
>  <reaction>  (2) 
rmg_rxn_59

>  <mol_properties>  (2) 
{"3": {"label": "acceptor", "atom_type": "Cs"}}

>  <type>  (2) 
r2

$$$$

     RDKit          3D

 15 14  0  0  0  0  0  0  0  0999 V2000
   -2.0554    0.0723   -0.4910 C   0  0  0  0  0  0  0  0  0  0  0  0
   -0.7461   -0.6266   -0.8178 C   0  0  0  0  0  0  0  0  0  0  0  0
    0.3249    0.2591   -1.9782 S   0  0  0  0  0  0  0  0  0  0  0  0
   -0.7172    0.3642   -3.4551 C   0  0  0  0  0  0  0  0  0  0  0  0
   -1.1375   -0.9737   -4.0409 C   0  0  0  0  0  0  0  0  0  0  0  0
   -2.7005    0.1427   -1.3684 H   0  0  0  0  0  0  0  0  0  0  0  0
   -2.6016   -0.4848    0.2733 H   0  0  0  0  0  0  0  0  0  0  0  0
   -1.8758    1.0825   -0.1213 H   0  0  0  0  0  0  0  0  0  0  0  0
   -0.1320   -0.7246    0.0789 H   0  0  0  0  0  0  0  0  0  0  0  0
   -0.9254   -1.6374   -1.1879 H   0  0  0  0  0  0  0  0  0  0  0  0
   -1.5873    0.9874   -3.2422 H   0  0  0  0  0  0  0  0  0  0  0  0
   -0.1021    0.9161   -4.1678 H   0  0  0  0  0  0  0  0  0  0  0  0
   -1.7876   -1.5224   -3.3574 H   0  0  0  0  0  0  0  0  0  0  0  0
   -0.2676   -1.5962   -4.2534 H   0  0  0  0  0  0  0  0  0  0  0  0
   -1.6916   -0.8229   -4.9700 H   0  0  0  0  0  0  0  0  0  0  0  0
  1  2  1  0
  1  6  1  0
  1  7  1  0
  1  8  1  0
  2  3  1  0
  2  9  1  0
  2 10  1  0
  3  4  1  0
  4  5  1  0
  4 11  1  0
  4 12  1  0
  5 13  1  0
  5 14  1  0
  5 15  1  0
M  END
>  <reaction>  (3) 
rmg_rxn_59

>  <mol_properties>  (3) 
{"0": {"label": "a_hydrogen", "atom_type": "H0"}, "4": {"label": "acceptor", "atom_type": "Cs"}}

>  <type>  (3) 
r2h

$$$$

     RDKit          3D

 23 21  0  0  0  0  0  0  0  0999 V2000
   -1.5134   -2.3376   -0.3040 C   0  0  0  0  0  0  0  0  0  0  0  0
   -0.9297   -2.2651    1.0973 C   0  0  0  0  0  0  0  0  0  0  0  0
   -0.9689   -0.6090    1.8404 S   0  0  0  0  0  1  0  0  0  0  0  0
   -0.9273   -1.7320   -0.9963 H   0  0  0  0  0  0  0  0  0  0  0  0
   -2.5406   -1.9706   -0.3150 H   0  0  0  0  0  0  0  0  0  0  0  0
   -1.5099   -3.3686   -0.6675 H   0  0  0  0  0  0  0  0  0  0  0  0
    0.1009   -2.6243    1.1077 H   0  0  0  0  0  0  0  0  0  0  0  0
   -1.4899   -2.9032    1.7830 H   0  0  0  0  0  0  0  0  0  0  0  0
    0.1976   -0.0801    1.0250 H   0  0  0  0  0  0  0  0  0  0  0  0
   -1.1107    1.3971   -1.5537 C   0  0  0  0  0  0  0  0  0  0  0  0
    0.3622    1.5620   -1.8914 C   0  0  0  0  0  0  0  0  0  0  0  0
    1.4261    0.2268   -1.2895 S   0  0  0  0  0  0  0  0  0  0  0  0
    1.4240    0.4351    0.4405 C   0  0  0  0  0  0  0  0  0  0  0  0
    1.4665    1.8027    1.0640 C   0  0  0  0  0  0  0  0  0  0  0  0
   -1.2760    1.3461   -0.4772 H   0  0  0  0  0  0  0  0  0  0  0  0
   -1.6788    2.2414   -1.9502 H   0  0  0  0  0  0  0  0  0  0  0  0
   -1.5099    0.4804   -1.9879 H   0  0  0  0  0  0  0  0  0  0  0  0
    0.7541    2.5120   -1.5273 H   0  0  0  0  0  0  0  0  0  0  0  0
    0.5172    1.5490   -2.9714 H   0  0  0  0  0  0  0  0  0  0  0  0
    2.1185   -0.2844    0.8692 H   0  0  0  0  0  0  0  0  0  0  0  0
    0.5997    2.4031    0.7841 H   0  0  0  0  0  0  0  0  0  0  0  0
    1.4645    1.7077    2.1504 H   0  0  0  0  0  0  0  0  0  0  0  0
    2.3682    2.3460    0.7672 H   0  0  0  0  0  0  0  0  0  0  0  0
  1  2  1  0
  1  4  1  0
  1  5  1  0
  1  6  1  0
  2  3  1  0
  2  7  1  0
  2  8  1  0
  9 13  1  0
 10 11  1  0
 10 15  1  0
 10 16  1  0
 10 17  1  0
 11 12  1  0
 11 18  1  0
 11 19  1  0
 12 13  1  0
 13 14  1  0
 13 20  1  0
 14 21  1  0
 14 22  1  0
 14 23  1  0
M  RAD  1   3   2
M  END
>  <reaction>  (4) 
rmg_rxn_59

>  <mol_properties>  (4) 
{"1": {"label": "*4", "atom_type": "Cs"}, "2": {"label": "*3", "atom_type": "S2s"}, "8": {"label": "*2", "atom_type": "H0"}, "11": {"label": "*0", "atom_type": "S2s"}, "12": {"label": "*1", "atom_type": "Cs"}}

>  <type>  (4) 
ts

$$$$

     RDKit          3D

 23 21  0  0  0  0  0  0  0  0999 V2000
   -2.0150   -1.4524   -0.7678 C   0  0  0  0  0  0  0  0  0  0  0  0
   -2.0150   -1.4524    0.7509 C   0  0  0  0  0  0  0  0  0  0  0  0
   -2.0150    0.2050    1.4959 S   0  0  0  0  0  1  0  0  0  0  0  0
   -1.1084   -0.9870   -1.1585 H   0  0  0  0  0  0  0  0  0  0  0  0
   -2.8710   -0.9012   -1.1579 H   0  0  0  0  0  0  0  0  0  0  0  0
   -2.0581   -2.4757   -1.1481 H   0  0  0  0  0  0  0  0  0  0  0  0
   -1.1718   -2.0185    1.1460 H   0  0  0  0  0  0  0  0  0  0  0  0
   -2.9226   -1.9194    1.1360 H   0  0  0  0  0  0  0  0  0  0  0  0
   -0.6053    0.6870    0.8916 H   0  0  0  0  0  0  0  0  0  0  0  0
    0.9326   -1.1543   -1.9499 C   0  0  0  0  0  0  0  0  0  0  0  0
    2.0834   -0.2445   -1.5529 C   0  0  0  0  0  0  0  0  0  0  0  0
    2.1231    0.2193    0.1969 S   0  0  0  0  0  0  0  0  0  0  0  0
    0.5430    1.0796    0.3995 C   0  0  0  0  0  0  0  0  0  0  0  0
    0.3679    2.3139   -0.4697 C   0  0  0  0  0  0  0  0  0  0  0  0
   -0.0300   -0.6525   -1.8384 H   0  0  0  0  0  0  0  0  0  0  0  0
    1.0282   -1.4508   -2.9968 H   0  0  0  0  0  0  0  0  0  0  0  0
    0.9180   -2.0547   -1.3348 H   0  0  0  0  0  0  0  0  0  0  0  0
    2.0983    0.6567   -2.1681 H   0  0  0  0  0  0  0  0  0  0  0  0
    3.0389   -0.7479   -1.7095 H   0  0  0  0  0  0  0  0  0  0  0  0
    0.5297    1.3523    1.4561 H   0  0  0  0  0  0  0  0  0  0  0  0
    0.3377    2.0551   -1.5294 H   0  0  0  0  0  0  0  0  0  0  0  0
   -0.5712    2.8169   -0.2284 H   0  0  0  0  0  0  0  0  0  0  0  0
    1.1870    3.0174   -0.3165 H   0  0  0  0  0  0  0  0  0  0  0  0
  1  2  1  0
  1  4  1  0
  1  5  1  0
  1  6  1  0
  2  3  1  0
  2  7  1  0
  2  8  1  0
  9 13  1  0
 10 11  1  0
 10 15  1  0
 10 16  1  0
 10 17  1  0
 11 12  1  0
 11 18  1  0
 11 19  1  0
 12 13  1  0
 13 14  1  0
 13 20  1  0
 14 21  1  0
 14 22  1  0
 14 23  1  0
M  RAD  1   3   2
M  END
>  <reaction>  (5) 
rmg_rxn_59

>  <mol_properties>  (5) 
{"1": {"label": "*4", "atom_type": "Cs"}, "2": {"label": "*3", "atom_type": "S2s"}, "8": {"label": "*2", "atom_type": "H0"}, "11": {"label": "*0", "atom_type": "S2s"}, "12": {"label": "*1", "atom_type": "Cs"}}

>  <type>  (5) 
unop_1

>  <geom_source>  (5) 
Heuristics

$$$$

     RDKit          3D

 23 21  0  0  0  0  0  0  0  0999 V2000
   -2.1421   -1.4545   -1.7168 C   0  0  0  0  0  0  0  0  0  0  0  0
   -2.1421   -1.4545   -0.1981 C   0  0  0  0  0  0  0  0  0  0  0  0
   -2.1421    0.2029    0.5469 S   0  0  0  0  0  1  0  0  0  0  0  0
   -1.2354   -0.9891   -2.1075 H   0  0  0  0  0  0  0  0  0  0  0  0
   -2.9980   -0.9033   -2.1069 H   0  0  0  0  0  0  0  0  0  0  0  0
   -2.1851   -2.4779   -2.0971 H   0  0  0  0  0  0  0  0  0  0  0  0
   -1.2988   -2.0206    0.1970 H   0  0  0  0  0  0  0  0  0  0  0  0
   -3.0497   -1.9215    0.1870 H   0  0  0  0  0  0  0  0  0  0  0  0
   -0.7323    0.6849   -0.0574 H   0  0  0  0  0  0  0  0  0  0  0  0
    1.4299   -1.3133    1.4299 C   0  0  0  0  0  0  0  0  0  0  0  0
    2.4343   -0.3979    0.7496 C   0  0  0  0  0  0  0  0  0  0  0  0
    1.8719    1.3053    0.5024 S   0  0  0  0  0  0  0  0  0  0  0  0
    0.4159    1.0775   -0.5495 C   0  0  0  0  0  0  0  0  0  0  0  0
    0.6889    0.4124   -1.8884 C   0  0  0  0  0  0  0  0  0  0  0  0
    0.5452   -1.4667    0.8096 H   0  0  0  0  0  0  0  0  0  0  0  0
    1.8750   -2.2936    1.6138 H   0  0  0  0  0  0  0  0  0  0  0  0
    1.1059   -0.8955    2.3837 H   0  0  0  0  0  0  0  0  0  0  0  0
    2.7586   -0.8156   -0.2050 H   0  0  0  0  0  0  0  0  0  0  0  0
    3.3288   -0.2889    1.3651 H   0  0  0  0  0  0  0  0  0  0  0  0
    0.0412    2.0917   -0.6969 H   0  0  0  0  0  0  0  0  0  0  0  0
    1.0259   -0.6178   -1.7614 H   0  0  0  0  0  0  0  0  0  0  0  0
   -0.2215    0.3873   -2.4914 H   0  0  0  0  0  0  0  0  0  0  0  0
    1.4566    0.9535   -2.4427 H   0  0  0  0  0  0  0  0  0  0  0  0
  1  2  1  0
  1  4  1  0
  1  5  1  0
  1  6  1  0
  2  3  1  0
  2  7  1  0
  2  8  1  0
  9 13  1  0
 10 11  1  0
 10 15  1  0
 10 16  1  0
 10 17  1  0
 11 12  1  0
 11 18  1  0
 11 19  1  0
 12 13  1  0
 13 14  1  0
 13 20  1  0
 14 21  1  0
 14 22  1  0
 14 23  1  0
M  RAD  1   3   2
M  END
>  <reaction>  (6) 
rmg_rxn_59

>  <mol_properties>  (6) 
{"1": {"label": "*4", "atom_type": "Cs"}, "2": {"label": "*3", "atom_type": "S2s"}, "8": {"label": "*2", "atom_type": "H0"}, "11": {"label": "*0", "atom_type": "S2s"}, "12": {"label": "*1", "atom_type": "Cs"}}

>  <type>  (6) 
unop_2

>  <geom_source>  (6) 
Heuristics

$$$$

     RDKit          3D

 23 21  0  0  0  0  0  0  0  0999 V2000
   -1.7003   -1.6681   -0.5159 C   0  0  0  0  0  0  0  0  0  0  0  0
   -1.7003   -1.6681    1.0027 C   0  0  0  0  0  0  0  0  0  0  0  0
   -1.7003   -0.0108    1.7477 S   0  0  0  0  0  1  0  0  0  0  0  0
   -0.7937   -1.2027   -0.9067 H   0  0  0  0  0  0  0  0  0  0  0  0
   -2.5563   -1.1169   -0.9060 H   0  0  0  0  0  0  0  0  0  0  0  0
   -1.7434   -2.6915   -0.8962 H   0  0  0  0  0  0  0  0  0  0  0  0
   -0.8571   -2.2342    1.3978 H   0  0  0  0  0  0  0  0  0  0  0  0
   -2.6079   -2.1352    1.3879 H   0  0  0  0  0  0  0  0  0  0  0  0
   -0.2906    0.4712    1.1435 H   0  0  0  0  0  0  0  0  0  0  0  0
   -0.1148   -0.0683   -2.3231 C   0  0  0  0  0  0  0  0  0  0  0  0
    1.3290    0.3364   -2.0759 C   0  0  0  0  0  0  0  0  0  0  0  0
    1.9670   -0.0719   -0.4313 S   0  0  0  0  0  0  0  0  0  0  0  0
    0.8577    0.8639    0.6513 C   0  0  0  0  0  0  0  0  0  0  0  0
    0.8715    2.3686    0.4386 C   0  0  0  0  0  0  0  0  0  0  0  0
   -0.8009    0.4879   -1.6820 H   0  0  0  0  0  0  0  0  0  0  0  0
   -0.3939    0.1383   -3.3587 H   0  0  0  0  0  0  0  0  0  0  0  0
   -0.2595   -1.1320   -2.1310 H   0  0  0  0  0  0  0  0  0  0  0  0
    1.4742    1.4008   -2.2679 H   0  0  0  0  0  0  0  0  0  0  0  0
    1.9964   -0.1990   -2.7532 H   0  0  0  0  0  0  0  0  0  0  0  0
    1.2066    0.6175    1.6555 H   0  0  0  0  0  0  0  0  0  0  0  0
    0.4867    2.6362   -0.5469 H   0  0  0  0  0  0  0  0  0  0  0  0
    0.2409    2.8618    1.1816 H   0  0  0  0  0  0  0  0  0  0  0  0
    1.8838    2.7648    0.5255 H   0  0  0  0  0  0  0  0  0  0  0  0
  1  2  1  0
  1  4  1  0
  1  5  1  0
  1  6  1  0
  2  3  1  0
  2  7  1  0
  2  8  1  0
  9 13  1  0
 10 11  1  0
 10 15  1  0
 10 16  1  0
 10 17  1  0
 11 12  1  0
 11 18  1  0
 11 19  1  0
 12 13  1  0
 13 14  1  0
 13 20  1  0
 14 21  1  0
 14 22  1  0
 14 23  1  0
M  RAD  1   3   2
M  END
>  <reaction>  (7) 
rmg_rxn_59

>  <mol_properties>  (7) 
{"1": {"label": "*4", "atom_type": "Cs"}, "2": {"label": "*3", "atom_type": "S2s"}, "8": {"label": "*2", "atom_type": "H0"}, "11": {"label": "*0", "atom_type": "S2s"}, "12": {"label": "*1", "atom_type": "Cs"}}

>  <type>  (7) 
unop_3

>  <geom_source>  (7) 
Heuristics

$$$$

     RDKit          3D

 23 21  0  0  0  0  0  0  0  0999 V2000
   -1.3246   -2.1169   -2.0912 C   0  0  0  0  0  0  0  0  0  0  0  0
   -1.3246   -2.1169   -0.5726 C   0  0  0  0  0  0  0  0  0  0  0  0
   -1.3246   -0.4596    0.1724 S   0  0  0  0  0  1  0  0  0  0  0  0
   -0.4180   -1.6515   -2.4820 H   0  0  0  0  0  0  0  0  0  0  0  0
   -2.1806   -1.5657   -2.4813 H   0  0  0  0  0  0  0  0  0  0  0  0
   -1.3677   -3.1403   -2.4715 H   0  0  0  0  0  0  0  0  0  0  0  0
   -0.4814   -2.6830   -0.1774 H   0  0  0  0  0  0  0  0  0  0  0  0
   -2.2322   -2.5840   -0.1874 H   0  0  0  0  0  0  0  0  0  0  0  0
    0.0851    0.0225   -0.4318 H   0  0  0  0  0  0  0  0  0  0  0  0
   -0.6731    0.2533    1.7220 C   0  0  0  0  0  0  0  0  0  0  0  0
    0.5588    1.1433    1.7128 C   0  0  0  0  0  0  0  0  0  0  0  0
    0.9597    1.8779    0.1073 S   0  0  0  0  0  0  0  0  0  0  0  0
    1.2334    0.4151   -0.9240 C   0  0  0  0  0  0  0  0  0  0  0  0
    2.3610   -0.4935   -0.4631 C   0  0  0  0  0  0  0  0  0  0  0  0
   -0.5270   -0.6372    1.1084 H   0  0  0  0  0  0  0  0  0  0  0  0
   -0.8908   -0.0815    2.7387 H   0  0  0  0  0  0  0  0  0  0  0  0
   -1.5430    0.7885    1.3398 H   0  0  0  0  0  0  0  0  0  0  0  0
    1.4295    0.6080    2.0951 H   0  0  0  0  0  0  0  0  0  0  0  0
    0.4102    2.0068    2.3633 H   0  0  0  0  0  0  0  0  0  0  0  0
    1.4560    0.8297   -1.9085 H   0  0  0  0  0  0  0  0  0  0  0  0
    2.1370   -0.9498    0.5026 H   0  0  0  0  0  0  0  0  0  0  0  0
    2.5125   -1.3030   -1.1807 H   0  0  0  0  0  0  0  0  0  0  0  0
    3.2942    0.0625   -0.3661 H   0  0  0  0  0  0  0  0  0  0  0  0
  1  2  1  0
  1  4  1  0
  1  5  1  0
  1  6  1  0
  2  3  1  0
  2  7  1  0
  2  8  1  0
  9 13  1  0
 10 11  1  0
 10 15  1  0
 10 16  1  0
 10 17  1  0
 11 12  1  0
 11 18  1  0
 11 19  1  0
 12 13  1  0
 13 14  1  0
 13 20  1  0
 14 21  1  0
 14 22  1  0
 14 23  1  0
M  RAD  1   3   2
M  END
>  <reaction>  (8) 
rmg_rxn_59

>  <mol_properties>  (8) 
{"1": {"label": "*4", "atom_type": "Cs"}, "2": {"label": "*3", "atom_type": "S2s"}, "8": {"label": "*2", "atom_type": "H0"}, "11": {"label": "*0", "atom_type": "S2s"}, "12": {"label": "*1", "atom_type": "Cs"}}

>  <type>  (8) 
unop_4

>  <geom_source>  (8) 
Heuristics

$$$$

     RDKit          3D

 23 21  0  0  0  0  0  0  0  0999 V2000
   -1.1691   -2.0885   -0.5883 C   0  0  0  0  0  0  0  0  0  0  0  0
   -1.1691   -2.0885    0.9304 C   0  0  0  0  0  0  0  0  0  0  0  0
   -1.1691   -0.4311    1.6754 S   0  0  0  0  0  1  0  0  0  0  0  0
   -0.2624   -1.6231   -0.9790 H   0  0  0  0  0  0  0  0  0  0  0  0
   -2.0250   -1.5373   -0.9784 H   0  0  0  0  0  0  0  0  0  0  0  0
   -1.2121   -3.1119   -0.9686 H   0  0  0  0  0  0  0  0  0  0  0  0
   -0.3258   -2.6546    1.3255 H   0  0  0  0  0  0  0  0  0  0  0  0
   -2.0767   -2.5555    1.3155 H   0  0  0  0  0  0  0  0  0  0  0  0
    0.2407    0.0509    1.0711 H   0  0  0  0  0  0  0  0  0  0  0  0
   -1.2747    1.0666   -1.2039 C   0  0  0  0  0  0  0  0  0  0  0  0
    0.1107    1.3322   -1.7693 C   0  0  0  0  0  0  0  0  0  0  0  0
    1.3966    0.1853   -1.2131 S   0  0  0  0  0  0  0  0  0  0  0  0
    1.3889    0.4435    0.5790 C   0  0  0  0  0  0  0  0  0  0  0  0
    1.7156    1.8591    1.0251 C   0  0  0  0  0  0  0  0  0  0  0  0
   -1.3016    1.2206   -0.1238 H   0  0  0  0  0  0  0  0  0  0  0  0
   -2.0027    1.7477   -1.6501 H   0  0  0  0  0  0  0  0  0  0  0  0
   -1.5886    0.0422   -1.4075 H   0  0  0  0  0  0  0  0  0  0  0  0
    0.4252    2.3571   -1.5657 H   0  0  0  0  0  0  0  0  0  0  0  0
    0.1090    1.2135   -2.8541 H   0  0  0  0  0  0  0  0  0  0  0  0
    2.1431   -0.2552    0.9449 H   0  0  0  0  0  0  0  0  0  0  0  0
    0.9496    2.5663    0.7025 H   0  0  0  0  0  0  0  0  0  0  0  0
    1.7701    1.9096    2.1148 H   0  0  0  0  0  0  0  0  0  0  0  0
    2.6719    2.1857    0.6149 H   0  0  0  0  0  0  0  0  0  0  0  0
  1  2  1  0
  1  4  1  0
  1  5  1  0
  1  6  1  0
  2  3  1  0
  2  7  1  0
  2  8  1  0
  9 13  1  0
 10 11  1  0
 10 15  1  0
 10 16  1  0
 10 17  1  0
 11 12  1  0
 11 18  1  0
 11 19  1  0
 12 13  1  0
 13 14  1  0
 13 20  1  0
 14 21  1  0
 14 22  1  0
 14 23  1  0
M  RAD  1   3   2
M  END
>  <reaction>  (9) 
rmg_rxn_59

>  <mol_properties>  (9) 
{"1": {"label": "*4", "atom_type": "Cs"}, "2": {"label": "*3", "atom_type": "S2s"}, "8": {"label": "*2", "atom_type": "H0"}, "11": {"label": "*0", "atom_type": "S2s"}, "12": {"label": "*1", "atom_type": "Cs"}}

>  <type>  (9) 
unop_5

>  <geom_source>  (9) 
Heuristics

$$$$

     RDKit          3D

 23 20  0  0  0  0  0  0  0  0999 V2000
   -1.0837   -2.2806   -1.8957 C   0  0  0  0  0  0  0  0  0  0  0  0
   -1.0837   -2.2806   -0.3771 C   0  0  0  0  0  3  0  0  0  0  0  0
   -1.0837   -0.6232    0.3679 S   0  0  0  0  0  1  0  0  0  0  0  0
   -0.1770   -1.8152   -2.2865 H   0  0  0  0  0  0  0  0  0  0  0  0
   -1.9396   -1.7294   -2.2858 H   0  0  0  0  0  0  0  0  0  0  0  0
   -1.1268   -3.3040   -2.2760 H   0  0  0  0  0  0  0  0  0  0  0  0
   -0.2404   -2.8467    0.0180 H   0  0  0  0  0  0  0  0  0  0  0  0
   -1.9913   -2.7476    0.0081 H   0  0  0  0  0  0  0  0  0  0  0  0
    0.3261   -0.1412   -0.2363 H   0  0  0  0  0  0  0  0  0  0  0  0
   -0.9571    0.3914    1.4464 C   0  0  0  0  0  3  0  0  0  0  0  0
    0.0187    1.5480    1.3057 C   0  0  0  0  0  0  0  0  0  0  0  0
    0.6450    1.8207   -0.3711 S   0  0  0  0  0  0  0  0  0  0  0  0
    1.4743    0.2514   -0.7285 C   0  0  0  0  0  0  0  0  0  0  0  0
    2.6164   -0.0997    0.2107 C   0  0  0  0  0  0  0  0  0  0  0  0
   -0.4752   -0.5653    1.2385 H   0  0  0  0  0  0  0  0  0  0  0  0
   -1.3473    0.3470    2.4657 H   0  0  0  0  0  0  0  0  0  0  0  0
   -1.7962    0.5041    0.7590 H   0  0  0  0  0  0  0  0  0  0  0  0
    0.8585    1.4356    1.9934 H   0  0  0  0  0  0  0  0  0  0  0  0
   -0.4692    2.4912    1.5570 H   0  0  0  0  0  0  0  0  0  0  0  0
    1.8441    0.3796   -1.7472 H   0  0  0  0  0  0  0  0  0  0  0  0
    2.2589   -0.2719    1.2273 H   0  0  0  0  0  0  0  0  0  0  0  0
    3.1123   -1.0144   -0.1215 H   0  0  0  0  0  0  0  0  0  0  0  0
    3.3546    0.7024    0.2430 H   0  0  0  0  0  0  0  0  0  0  0  0
  1  2  1  0
  1  4  1  0
  1  5  1  0
  1  6  1  0
  2  7  1  0
  2  8  1  0
  3 15  1  0
  9 13  1  0
 10 11  1  0
 10 16  1  0
 10 17  1  0
 11 12  1  0
 11 18  1  0
 11 19  1  0
 12 13  1  0
 13 14  1  0
 13 20  1  0
 14 21  1  0
 14 22  1  0
 14 23  1  0
M  RAD  3   2   2   3   2  10   2
M  END
>  <reaction>  (10) 
rmg_rxn_59

>  <mol_properties>  (10) 
{"1": {"label": "*4", "atom_type": "Cs"}, "2": {"label": "*3", "atom_type": "S2s"}, "8": {"label": "*2", "atom_type": "H0"}, "11": {"label": "*0", "atom_type": "S2s"}, "12": {"label": "*1", "atom_type": "Cs"}}

>  <type>  (10) 
unop_6

>  <geom_source>  (10) 
Heuristics

$$$$

     RDKit          3D

 23 20  0  0  0  0  0  0  0  0999 V2000
   -0.9168   -2.3724   -1.5915 C   0  0  0  0  0  0  0  0  0  0  0  0
   -0.9168   -2.3724   -0.0729 C   0  0  0  0  0  3  0  0  0  0  0  0
   -0.9168   -0.7151    0.6721 S   0  0  0  0  0  1  0  0  0  0  0  0
   -0.0102   -1.9070   -1.9823 H   0  0  0  0  0  0  0  0  0  0  0  0
   -1.7728   -1.8212   -1.9817 H   0  0  0  0  0  0  0  0  0  0  0  0
   -0.9599   -3.3958   -1.9718 H   0  0  0  0  0  0  0  0  0  0  0  0
   -0.0736   -2.9386    0.3222 H   0  0  0  0  0  0  0  0  0  0  0  0
   -1.8244   -2.8395    0.3122 H   0  0  0  0  0  0  0  0  0  0  0  0
    0.4930   -0.2331    0.0679 H   0  0  0  0  0  0  0  0  0  0  0  0
   -1.1584    0.6393    1.1863 C   0  0  0  0  0  3  0  0  0  0  0  0
   -0.3689    1.8195    0.6445 C   0  0  0  0  0  0  0  0  0  0  0  0
    0.5210    1.5002   -0.8997 S   0  0  0  0  0  0  0  0  0  0  0  0
    1.6412    0.1595   -0.4243 C   0  0  0  0  0  0  0  0  0  0  0  0
    2.6192    0.5037    0.6868 C   0  0  0  0  0  0  0  0  0  0  0  0
   -0.5003   -0.1793    1.4825 H   0  0  0  0  0  0  0  0  0  0  0  0
   -1.7276    0.9379    2.0694 H   0  0  0  0  0  0  0  0  0  0  0  0
   -1.8545    0.2598    0.4375 H   0  0  0  0  0  0  0  0  0  0  0  0
    0.3279    2.1995    1.3935 H   0  0  0  0  0  0  0  0  0  0  0  0
   -1.0390    2.6429    0.3922 H   0  0  0  0  0  0  0  0  0  0  0  0
    2.1773   -0.0698   -1.3467 H   0  0  0  0  0  0  0  0  0  0  0  0
    2.1024    0.6963    1.6285 H   0  0  0  0  0  0  0  0  0  0  0  0
    3.3084   -0.3268    0.8553 H   0  0  0  0  0  0  0  0  0  0  0  0
    3.2009    1.3905    0.4327 H   0  0  0  0  0  0  0  0  0  0  0  0
  1  2  1  0
  1  4  1  0
  1  5  1  0
  1  6  1  0
  2  7  1  0
  2  8  1  0
  3 15  1  0
  9 13  1  0
 10 11  1  0
 10 16  1  0
 10 17  1  0
 11 12  1  0
 11 18  1  0
 11 19  1  0
 12 13  1  0
 13 14  1  0
 13 20  1  0
 14 21  1  0
 14 22  1  0
 14 23  1  0
M  RAD  3   2   2   3   2  10   2
M  END
>  <reaction>  (11) 
rmg_rxn_59

>  <mol_properties>  (11) 
{"1": {"label": "*4", "atom_type": "Cs"}, "2": {"label": "*3", "atom_type": "S2s"}, "8": {"label": "*2", "atom_type": "H0"}, "11": {"label": "*0", "atom_type": "S2s"}, "12": {"label": "*1", "atom_type": "Cs"}}

>  <type>  (11) 
unop_7

>  <geom_source>  (11) 
Heuristics

$$$$

     RDKit          3D

 23 21  0  0  0  0  0  0  0  0999 V2000
   -2.1632   -1.3756   -1.0626 C   0  0  0  0  0  0  0  0  0  0  0  0
   -2.1632   -1.3756    0.4561 C   0  0  0  0  0  0  0  0  0  0  0  0
   -2.1632    0.2818    1.2011 S   0  0  0  0  0  1  0  0  0  0  0  0
   -1.2566   -0.9101   -1.4533 H   0  0  0  0  0  0  0  0  0  0  0  0
   -3.0192   -0.8244   -1.4527 H   0  0  0  0  0  0  0  0  0  0  0  0
   -2.2063   -2.3989   -1.4429 H   0  0  0  0  0  0  0  0  0  0  0  0
   -1.3200   -1.9417    0.8512 H   0  0  0  0  0  0  0  0  0  0  0  0
   -3.0708   -1.8426    0.8412 H   0  0  0  0  0  0  0  0  0  0  0  0
   -0.7535    0.7638    0.5968 H   0  0  0  0  0  0  0  0  0  0  0  0
    1.5486   -1.7208   -0.9212 C   0  0  0  0  0  0  0  0  0  0  0  0
    2.4554   -0.5026   -0.8646 C   0  0  0  0  0  0  0  0  0  0  0  0
    2.0948    0.6576    0.4778 S   0  0  0  0  0  0  0  0  0  0  0  0
    0.3948    1.1564    0.1047 C   0  0  0  0  0  0  0  0  0  0  0  0
    0.2053    1.8332   -1.2428 C   0  0  0  0  0  0  0  0  0  0  0  0
    0.5184   -1.4416   -1.1490 H   0  0  0  0  0  0  0  0  0  0  0  0
    1.8829   -2.4057   -1.7036 H   0  0  0  0  0  0  0  0  0  0  0  0
    1.5521   -2.2535    0.0303 H   0  0  0  0  0  0  0  0  0  0  0  0
    2.4520    0.0308   -1.8166 H   0  0  0  0  0  0  0  0  0  0  0  0
    3.4873   -0.8039   -0.6768 H   0  0  0  0  0  0  0  0  0  0  0  0
    0.1420    1.8424    0.9148 H   0  0  0  0  0  0  0  0  0  0  0  0
    0.4144    1.1486   -2.0665 H   0  0  0  0  0  0  0  0  0  0  0  0
   -0.8265    2.1737   -1.3538 H   0  0  0  0  0  0  0  0  0  0  0  0
    0.8669    2.6944   -1.3424 H   0  0  0  0  0  0  0  0  0  0  0  0
  1  2  1  0
  1  4  1  0
  1  5  1  0
  1  6  1  0
  2  3  1  0
  2  7  1  0
  2  8  1  0
  9 13  1  0
 10 11  1  0
 10 15  1  0
 10 16  1  0
 10 17  1  0
 11 12  1  0
 11 18  1  0
 11 19  1  0
 12 13  1  0
 13 14  1  0
 13 20  1  0
 14 21  1  0
 14 22  1  0
 14 23  1  0
M  RAD  1   3   2
M  END
>  <reaction>  (12) 
rmg_rxn_59

>  <mol_properties>  (12) 
{"1": {"label": "*4", "atom_type": "Cs"}, "2": {"label": "*3", "atom_type": "S2s"}, "8": {"label": "*2", "atom_type": "H0"}, "11": {"label": "*0", "atom_type": "S2s"}, "12": {"label": "*1", "atom_type": "Cs"}}

>  <type>  (12) 
unop_8

>  <geom_source>  (12) 
Heuristics

$$$$

     RDKit          3D

 23 21  0  0  0  0  0  0  0  0999 V2000
   -1.6276   -1.8868   -2.1499 C   0  0  0  0  0  0  0  0  0  0  0  0
   -1.6276   -1.8868   -0.6312 C   0  0  0  0  0  0  0  0  0  0  0  0
   -1.6276   -0.2294    0.1138 S   0  0  0  0  0  1  0  0  0  0  0  0
   -0.7209   -1.4214   -2.5406 H   0  0  0  0  0  0  0  0  0  0  0  0
   -2.4835   -1.3356   -2.5400 H   0  0  0  0  0  0  0  0  0  0  0  0
   -1.6707   -2.9101   -2.5302 H   0  0  0  0  0  0  0  0  0  0  0  0
   -0.7843   -2.4529   -0.2361 H   0  0  0  0  0  0  0  0  0  0  0  0
   -2.5352   -2.3538   -0.2461 H   0  0  0  0  0  0  0  0  0  0  0  0
   -0.2178    0.2526   -0.4905 H   0  0  0  0  0  0  0  0  0  0  0  0
   -0.1216   -0.0285    2.0343 C   0  0  0  0  0  0  0  0  0  0  0  0
    1.2427    0.6050    1.8172 C   0  0  0  0  0  0  0  0  0  0  0  0
    1.3465    1.7323    0.4042 S   0  0  0  0  0  0  0  0  0  0  0  0
    0.9304    0.6452   -0.9826 C   0  0  0  0  0  0  0  0  0  0  0  0
    1.8692   -0.5338   -1.1782 C   0  0  0  0  0  0  0  0  0  0  0  0
   -0.3898   -0.6914    1.2099 H   0  0  0  0  0  0  0  0  0  0  0  0
   -0.1203   -0.6263    2.9483 H   0  0  0  0  0  0  0  0  0  0  0  0
   -0.8959    0.7346    2.1205 H   0  0  0  0  0  0  0  0  0  0  0  0
    2.0178   -0.1582    1.7308 H   0  0  0  0  0  0  0  0  0  0  0  0
    1.5121    1.2315    2.6691 H   0  0  0  0  0  0  0  0  0  0  0  0
    0.9634    1.3068   -1.8498 H   0  0  0  0  0  0  0  0  0  0  0  0
    1.8188   -1.2282   -0.3378 H   0  0  0  0  0  0  0  0  0  0  0  0
    1.5973   -1.0890   -2.0787 H   0  0  0  0  0  0  0  0  0  0  0  0
    2.9017   -0.1971   -1.2774 H   0  0  0  0  0  0  0  0  0  0  0  0
  1  2  1  0
  1  4  1  0
  1  5  1  0
  1  6  1  0
  2  3  1  0
  2  7  1  0
  2  8  1  0
  9 13  1  0
 10 11  1  0
 10 15  1  0
 10 16  1  0
 10 17  1  0
 11 12  1  0
 11 18  1  0
 11 19  1  0
 12 13  1  0
 13 14  1  0
 13 20  1  0
 14 21  1  0
 14 22  1  0
 14 23  1  0
M  RAD  1   3   2
M  END
>  <reaction>  (13) 
rmg_rxn_59

>  <mol_properties>  (13) 
{"1": {"label": "*4", "atom_type": "Cs"}, "2": {"label": "*3", "atom_type": "S2s"}, "8": {"label": "*2", "atom_type": "H0"}, "11": {"label": "*0", "atom_type": "S2s"}, "12": {"label": "*1", "atom_type": "Cs"}}

>  <type>  (13) 
unop_9

>  <geom_source>  (13) 
Heuristics

$$$$

     RDKit          3D

 23 21  0  0  0  0  0  0  0  0999 V2000
   -2.2084   -1.3752   -1.3777 C   0  0  0  0  0  0  0  0  0  0  0  0
   -2.2084   -1.3752    0.1410 C   0  0  0  0  0  0  0  0  0  0  0  0
   -2.2084    0.2822    0.8859 S   0  0  0  0  0  1  0  0  0  0  0  0
   -1.3017   -0.9098   -1.7685 H   0  0  0  0  0  0  0  0  0  0  0  0
   -3.0643   -0.8240   -1.7678 H   0  0  0  0  0  0  0  0  0  0  0  0
   -2.2515   -2.3986   -1.7580 H   0  0  0  0  0  0  0  0  0  0  0  0
   -1.3651   -1.9413    0.5361 H   0  0  0  0  0  0  0  0  0  0  0  0
   -3.1160   -1.8423    0.5261 H   0  0  0  0  0  0  0  0  0  0  0  0
   -0.7986    0.7642    0.2817 H   0  0  0  0  0  0  0  0  0  0  0  0
    1.7344   -1.7528    0.3173 C   0  0  0  0  0  0  0  0  0  0  0  0
    2.5813   -0.5588   -0.0907 C   0  0  0  0  0  0  0  0  0  0  0  0
    1.9984    1.0397    0.5284 S   0  0  0  0  0  0  0  0  0  0  0  0
    0.3496    1.1568   -0.2104 C   0  0  0  0  0  0  0  0  0  0  0  0
    0.3242    1.1383   -1.7298 C   0  0  0  0  0  0  0  0  0  0  0  0
    0.7363   -1.7032   -0.1214 H   0  0  0  0  0  0  0  0  0  0  0  0
    2.1974   -2.6806   -0.0262 H   0  0  0  0  0  0  0  0  0  0  0  0
    1.6254   -1.8008    1.4013 H   0  0  0  0  0  0  0  0  0  0  0  0
    2.6905   -0.5104   -1.1754 H   0  0  0  0  0  0  0  0  0  0  0  0
    3.5874   -0.6458    0.3229 H   0  0  0  0  0  0  0  0  0  0  0  0
   -0.0365    2.1056    0.1659 H   0  0  0  0  0  0  0  0  0  0  0  0
    0.6689    0.1807   -2.1235 H   0  0  0  0  0  0  0  0  0  0  0  0
   -0.6938    1.2947   -2.0934 H   0  0  0  0  0  0  0  0  0  0  0  0
    0.9625    1.9220   -2.1395 H   0  0  0  0  0  0  0  0  0  0  0  0
  1  2  1  0
  1  4  1  0
  1  5  1  0
  1  6  1  0
  2  3  1  0
  2  7  1  0
  2  8  1  0
  9 13  1  0
 10 11  1  0
 10 15  1  0
 10 16  1  0
 10 17  1  0
 11 12  1  0
 11 18  1  0
 11 19  1  0
 12 13  1  0
 13 14  1  0
 13 20  1  0
 14 21  1  0
 14 22  1  0
 14 23  1  0
M  RAD  1   3   2
M  END
>  <reaction>  (14) 
rmg_rxn_59

>  <mol_properties>  (14) 
{"1": {"label": "*4", "atom_type": "Cs"}, "2": {"label": "*3", "atom_type": "S2s"}, "8": {"label": "*2", "atom_type": "H0"}, "11": {"label": "*0", "atom_type": "S2s"}, "12": {"label": "*1", "atom_type": "Cs"}}

>  <type>  (14) 
unop_10

>  <geom_source>  (14) 
Heuristics

$$$$

     RDKit          3D

 23 21  0  0  0  0  0  0  0  0999 V2000
   -0.8733   -2.3609   -1.1339 C   0  0  0  0  0  0  0  0  0  0  0  0
   -0.8733   -2.3609    0.3848 C   0  0  0  0  0  0  0  0  0  0  0  0
   -0.8733   -0.7036    1.1298 S   0  0  0  0  0  1  0  0  0  0  0  0
    0.0333   -1.8955   -1.5246 H   0  0  0  0  0  0  0  0  0  0  0  0
   -1.7293   -1.8097   -1.5240 H   0  0  0  0  0  0  0  0  0  0  0  0
   -0.9164   -3.3843   -1.5142 H   0  0  0  0  0  0  0  0  0  0  0  0
   -0.0300   -2.9270    0.7799 H   0  0  0  0  0  0  0  0  0  0  0  0
   -1.7809   -2.8280    0.7699 H   0  0  0  0  0  0  0  0  0  0  0  0
    0.5365   -0.2215    0.5255 H   0  0  0  0  0  0  0  0  0  0  0  0
   -1.4189    1.0734    0.4973 C   0  0  0  0  0  0  0  0  0  0  0  0
   -0.5083    1.8833   -0.4107 C   0  0  0  0  0  0  0  0  0  0  0  0
    0.7294    0.9167   -1.3118 S   0  0  0  0  0  0  0  0  0  0  0  0
    1.6847    0.1711    0.0334 C   0  0  0  0  0  0  0  0  0  0  0  0
    2.3643    1.1618    0.9640 C   0  0  0  0  0  0  0  0  0  0  0  0
   -0.8622    0.6180    1.3180 H   0  0  0  0  0  0  0  0  0  0  0  0
   -2.1839    1.7167    0.9376 H   0  0  0  0  0  0  0  0  0  0  0  0
   -1.9143    0.2766   -0.0585 H   0  0  0  0  0  0  0  0  0  0  0  0
   -0.0123    2.6807    0.1452 H   0  0  0  0  0  0  0  0  0  0  0  0
   -1.0874    2.3642   -1.2008 H   0  0  0  0  0  0  0  0  0  0  0  0
    2.4280   -0.4384   -0.4832 H   0  0  0  0  0  0  0  0  0  0  0  0
    1.6345    1.7527    1.5201 H   0  0  0  0  0  0  0  0  0  0  0  0
    2.9824    0.6336    1.6934 H   0  0  0  0  0  0  0  0  0  0  0  0
    2.9999    1.8489    0.4043 H   0  0  0  0  0  0  0  0  0  0  0  0
  1  2  1  0
  1  4  1  0
  1  5  1  0
  1  6  1  0
  2  3  1  0
  2  7  1  0
  2  8  1  0
  9 13  1  0
 10 11  1  0
 10 15  1  0
 10 16  1  0
 10 17  1  0
 11 12  1  0
 11 18  1  0
 11 19  1  0
 12 13  1  0
 13 14  1  0
 13 20  1  0
 14 21  1  0
 14 22  1  0
 14 23  1  0
M  RAD  1   3   2
M  END
>  <reaction>  (15) 
rmg_rxn_59

>  <mol_properties>  (15) 
{"1": {"label": "*4", "atom_type": "Cs"}, "2": {"label": "*3", "atom_type": "S2s"}, "8": {"label": "*2", "atom_type": "H0"}, "11": {"label": "*0", "atom_type": "S2s"}, "12": {"label": "*1", "atom_type": "Cs"}}

>  <type>  (15) 
unop_11

>  <geom_source>  (15) 
Heuristics

$$$$

     RDKit          3D

 23 21  0  0  0  0  0  0  0  0999 V2000
   -1.9349   -1.6367   -2.0147 C   0  0  0  0  0  0  0  0  0  0  0  0
   -1.9349   -1.6367   -0.4961 C   0  0  0  0  0  0  0  0  0  0  0  0
   -1.9349    0.0206    0.2489 S   0  0  0  0  0  1  0  0  0  0  0  0
   -1.0283   -1.1713   -2.4055 H   0  0  0  0  0  0  0  0  0  0  0  0
   -2.7909   -1.0855   -2.4048 H   0  0  0  0  0  0  0  0  0  0  0  0
   -1.9780   -2.6601   -2.3950 H   0  0  0  0  0  0  0  0  0  0  0  0
   -1.0917   -2.2028   -0.1010 H   0  0  0  0  0  0  0  0  0  0  0  0
   -2.8425   -2.1038   -0.1109 H   0  0  0  0  0  0  0  0  0  0  0  0
   -0.5252    0.5027   -0.3553 H   0  0  0  0  0  0  0  0  0  0  0  0
    0.6934   -0.6145    2.0469 C   0  0  0  0  0  0  0  0  0  0  0  0
    1.9507    0.0235    1.4797 C   0  0  0  0  0  0  0  0  0  0  0  0
    1.6726    1.5149    0.4915 S   0  0  0  0  0  0  0  0  0  0  0  0
    0.6231    0.8953   -0.8475 C   0  0  0  0  0  0  0  0  0  0  0  0
    1.2490   -0.1946   -1.7019 C   0  0  0  0  0  0  0  0  0  0  0  0
    0.0481   -0.9983    1.2550 H   0  0  0  0  0  0  0  0  0  0  0  0
    0.9541   -1.4554    2.6935 H   0  0  0  0  0  0  0  0  0  0  0  0
    0.1202    0.1066    2.6307 H   0  0  0  0  0  0  0  0  0  0  0  0
    2.5245   -0.6977    0.8953 H   0  0  0  0  0  0  0  0  0  0  0  0
    2.6024    0.3643    2.2859 H   0  0  0  0  0  0  0  0  0  0  0  0
    0.4201    1.7824   -1.4496 H   0  0  0  0  0  0  0  0  0  0  0  0
    1.4216   -1.1047   -1.1249 H   0  0  0  0  0  0  0  0  0  0  0  0
    0.5867   -0.4530   -2.5310 H   0  0  0  0  0  0  0  0  0  0  0  0
    2.2053    0.1327   -2.1114 H   0  0  0  0  0  0  0  0  0  0  0  0
  1  2  1  0
  1  4  1  0
  1  5  1  0
  1  6  1  0
  2  3  1  0
  2  7  1  0
  2  8  1  0
  9 13  1  0
 10 11  1  0
 10 15  1  0
 10 16  1  0
 10 17  1  0
 11 12  1  0
 11 18  1  0
 11 19  1  0
 12 13  1  0
 13 14  1  0
 13 20  1  0
 14 21  1  0
 14 22  1  0
 14 23  1  0
M  RAD  1   3   2
M  END
>  <reaction>  (16) 
rmg_rxn_59

>  <mol_properties>  (16) 
{"1": {"label": "*4", "atom_type": "Cs"}, "2": {"label": "*3", "atom_type": "S2s"}, "8": {"label": "*2", "atom_type": "H0"}, "11": {"label": "*0", "atom_type": "S2s"}, "12": {"label": "*1", "atom_type": "Cs"}}

>  <type>  (16) 
unop_12

>  <geom_source>  (16) 
Heuristics

$$$$

     RDKit          3D

 23 21  0  0  0  0  0  0  0  0999 V2000
   -2.1421   -1.4545   -1.7168 C   0  0  0  0  0  0  0  0  0  0  0  0
   -2.1421   -1.4545   -0.1981 C   0  0  0  0  0  0  0  0  0  0  0  0
   -2.1421    0.2029    0.5469 S   0  0  0  0  0  1  0  0  0  0  0  0
   -1.2354   -0.9891   -2.1075 H   0  0  0  0  0  0  0  0  0  0  0  0
   -2.9980   -0.9033   -2.1069 H   0  0  0  0  0  0  0  0  0  0  0  0
   -2.1851   -2.4779   -2.0970 H   0  0  0  0  0  0  0  0  0  0  0  0
   -1.2988   -2.0206    0.1970 H   0  0  0  0  0  0  0  0  0  0  0  0
   -3.0497   -1.9216    0.1870 H   0  0  0  0  0  0  0  0  0  0  0  0
   -0.7323    0.6849   -0.0574 H   0  0  0  0  0  0  0  0  0  0  0  0
    1.4299   -1.3133    1.4299 C   0  0  0  0  0  0  0  0  0  0  0  0
    2.4343   -0.3979    0.7496 C   0  0  0  0  0  0  0  0  0  0  0  0
    1.8719    1.3053    0.5024 S   0  0  0  0  0  0  0  0  0  0  0  0
    0.4159    1.0775   -0.5495 C   0  0  0  0  0  0  0  0  0  0  0  0
    0.6889    0.4124   -1.8884 C   0  0  0  0  0  0  0  0  0  0  0  0
    0.5452   -1.4667    0.8096 H   0  0  0  0  0  0  0  0  0  0  0  0
    1.8750   -2.2936    1.6138 H   0  0  0  0  0  0  0  0  0  0  0  0
    1.1059   -0.8954    2.3838 H   0  0  0  0  0  0  0  0  0  0  0  0
    2.7586   -0.8156   -0.2050 H   0  0  0  0  0  0  0  0  0  0  0  0
    3.3288   -0.2889    1.3651 H   0  0  0  0  0  0  0  0  0  0  0  0
    0.0412    2.0917   -0.6969 H   0  0  0  0  0  0  0  0  0  0  0  0
    1.0259   -0.6178   -1.7614 H   0  0  0  0  0  0  0  0  0  0  0  0
   -0.2215    0.3872   -2.4914 H   0  0  0  0  0  0  0  0  0  0  0  0
    1.4566    0.9535   -2.4427 H   0  0  0  0  0  0  0  0  0  0  0  0
  1  2  1  0
  1  4  1  0
  1  5  1  0
  1  6  1  0
  2  3  1  0
  2  7  1  0
  2  8  1  0
  9 13  1  0
 10 11  1  0
 10 15  1  0
 10 16  1  0
 10 17  1  0
 11 12  1  0
 11 18  1  0
 11 19  1  0
 12 13  1  0
 13 14  1  0
 13 20  1  0
 14 21  1  0
 14 22  1  0
 14 23  1  0
M  RAD  1   3   2
M  END
>  <reaction>  (17) 
rmg_rxn_59

>  <mol_properties>  (17) 
{"1": {"label": "*4", "atom_type": "Cs"}, "2": {"label": "*3", "atom_type": "S2s"}, "8": {"label": "*2", "atom_type": "H0"}, "11": {"label": "*0", "atom_type": "S2s"}, "12": {"label": "*1", "atom_type": "Cs"}}

>  <type>  (17) 
unop_13

>  <geom_source>  (17) 
gaussian_log

$$$$
