
     RDKit          3D

 10  9  0  0  0  0  0  0  0  0999 V2000
    2.0403   -0.0570    0.0110 C   0  0  0  0  0  0  0  0  0  0  0  0
    0.5945   -0.0162    0.1892 C   0  0  0  0  0  0  0  0  0  0  0  0
   -0.5945    0.0174    0.3357 C   0  0  0  0  0  0  0  0  0  0  0  0
   -2.0403    0.0580    0.5138 C   0  0  0  0  0  0  0  0  0  0  0  0
    2.4767    0.9348    0.1407 H   0  0  0  0  0  0  0  0  0  0  0  0
    2.2995   -0.4116   -0.9880 H   0  0  0  0  0  0  0  0  0  0  0  0
    2.5033   -0.7269    0.7375 H   0  0  0  0  0  0  0  0  0  0  0  0
   -2.3766    1.0716    0.7385 H   0  0  0  0  0  0  0  0  0  0  0  0
   -2.3497   -0.5900    1.3355 H   0  0  0  0  0  0  0  0  0  0  0  0
   -2.5533   -0.2750   -0.3901 H   0  0  0  0  0  0  0  0  0  0  0  0
  1  2  1  0
  1  5  1  0
  1  6  1  0
  1  7  1  0
  2  3  3  0
  3  4  1  0
  4  8  1  0
  4  9  1  0
  4 10  1  0
M  END
>  <reaction>  (1) 
rmg_rxn_39

>  <mol_properties>  (1) 
{"3": {"label": "donator", "atom_type": "Cs"}, "9": {"label": "d_hydrogen", "atom_type": "H0"}}

>  <type>  (1) 
r1h

$$$$

     RDKit          3D

 13 13  0  0  0  0  0  0  0  0999 V2000
    0.5794    1.5990    0.2108 C   0  0  0  0  0  3  0  0  0  0  0  0
    1.4528    0.6621   -0.2496 O   0  0  0  0  0  0  0  0  0  0  0  0
    1.0751   -0.6763    0.0423 C   0  0  0  0  0  0  0  0  0  0  0  0
   -0.3579   -0.9282   -0.3924 C   0  0  0  0  0  0  0  0  0  0  0  0
   -1.2426    0.1393    0.2269 C   0  0  0  0  0  0  0  0  0  0  0  0
   -0.7410    1.4341   -0.0749 O   0  0  0  0  0  0  0  0  0  0  0  0
    0.9183    2.6078    0.0084 H   0  0  0  0  0  0  0  0  0  0  0  0
    1.1839   -0.8508    1.1199 H   0  0  0  0  0  0  0  0  0  0  0  0
    1.7816   -1.3130   -0.4874 H   0  0  0  0  0  0  0  0  0  0  0  0
   -0.6818   -1.9210   -0.0736 H   0  0  0  0  0  0  0  0  0  0  0  0
   -0.4271   -0.8785   -1.4810 H   0  0  0  0  0  0  0  0  0  0  0  0
   -1.2832    0.0173    1.3164 H   0  0  0  0  0  0  0  0  0  0  0  0
   -2.2575    0.1083   -0.1657 H   0  0  0  0  0  0  0  0  0  0  0  0
  1  2  1  0
  1  6  1  0
  1  7  1  0
  2  3  1  0
  3  4  1  0
  3  8  1  0
  3  9  1  0
  4  5  1  0
  4 10  1  0
  4 11  1  0
  5  6  1  0
  5 12  1  0
  5 13  1  0
M  RAD  1   1   2
M  END
>  <reaction>  (2) 
rmg_rxn_39

>  <mol_properties>  (2) 
{"0": {"label": "acceptor", "atom_type": "Cs"}}

>  <type>  (2) 
r2

$$$$

     RDKit          3D

 14 14  0  0  0  0  0  0  0  0999 V2000
   -1.1778    0.2241    0.1818 C   0  0  0  0  0  0  0  0  0  0  0  0
   -0.5633   -1.1636    0.0678 C   0  0  0  0  0  0  0  0  0  0  0  0
    0.6943   -1.1996    0.7146 O   0  0  0  0  0  0  0  0  0  0  0  0
    1.5547   -0.2288    0.2011 C   0  0  0  0  0  0  0  0  0  0  0  0
    1.0729    1.0696    0.3698 O   0  0  0  0  0  0  0  0  0  0  0  0
   -0.1607    1.2493   -0.2989 C   0  0  0  0  0  0  0  0  0  0  0  0
   -2.0927    0.2866   -0.4117 H   0  0  0  0  0  0  0  0  0  0  0  0
   -1.4303    0.4248    1.2248 H   0  0  0  0  0  0  0  0  0  0  0  0
   -1.1822   -1.9235    0.5431 H   0  0  0  0  0  0  0  0  0  0  0  0
   -0.4389   -1.4347   -0.9919 H   0  0  0  0  0  0  0  0  0  0  0  0
    1.7250   -0.4207   -0.8742 H   0  0  0  0  0  0  0  0  0  0  0  0
    2.4896   -0.3010    0.7524 H   0  0  0  0  0  0  0  0  0  0  0  0
   -0.0080    1.1481   -1.3844 H   0  0  0  0  0  0  0  0  0  0  0  0
   -0.4826    2.2695   -0.0942 H   0  0  0  0  0  0  0  0  0  0  0  0
  1  2  1  0
  1  6  1  0
  1  7  1  0
  1  8  1  0
  2  3  1  0
  2  9  1  0
  2 10  1  0
  3  4  1  0
  4  5  1  0
  4 11  1  0
  4 12  1  0
  5  6  1  0
  6 13  1  0
  6 14  1  0
M  END
>  <reaction>  (3) 
rmg_rxn_39

>  <mol_properties>  (3) 
{"0": {"label": "a_hydrogen", "atom_type": "H0"}, "1": {"label": "acceptor", "atom_type": "Cs"}}

>  <type>  (3) 
r2h

$$$$

     RDKit          3D

 23 22  0  0  0  0  0  0  0  0999 V2000
    3.3229    2.2120   -2.8080 C   0  0  0  0  0  0  0  0  0  0  0  0
    1.9632    1.9559   -2.3541 C   0  0  0  0  0  0  0  0  0  0  0  0
    0.8332    1.7572   -1.9913 C   0  0  0  0  0  0  0  0  0  0  0  0
   -0.4822    1.4747   -1.5145 C   0  0  0  0  0  0  0  0  0  0  0  0
    4.0518    1.8796   -2.0662 H   0  0  0  0  0  0  0  0  0  0  0  0
    3.4823    3.2782   -2.9800 H   0  0  0  0  0  0  0  0  0  0  0  0
    3.5281    1.6850   -3.7414 H   0  0  0  0  0  0  0  0  0  0  0  0
   -1.1347    0.9946   -2.2411 H   0  0  0  0  0  0  0  0  0  0  0  0
   -0.9708    2.3067   -1.0113 H   0  0  0  0  0  0  0  0  0  0  0  0
   -0.3904    0.5841   -0.5779 H   0  0  0  0  0  0  0  0  0  0  0  0
   -0.4007   -0.3736    0.4332 C   0  0  0  0  0  3  0  0  0  0  0  0
   -0.9723    0.2603    1.5089 O   0  0  0  0  0  0  0  0  0  0  0  0
   -1.2295   -0.6309    2.5886 C   0  0  0  0  0  0  0  0  0  0  0  0
   -2.0733   -1.8015    2.1111 C   0  0  0  0  0  0  0  0  0  0  0  0
   -1.4077   -2.4169    0.8908 C   0  0  0  0  0  0  0  0  0  0  0  0
   -1.1394   -1.4111   -0.0799 O   0  0  0  0  0  0  0  0  0  0  0  0
    0.6566   -0.6356    0.5975 H   0  0  0  0  0  0  0  0  0  0  0  0
   -0.2741   -0.9899    2.9969 H   0  0  0  0  0  0  0  0  0  0  0  0
   -1.7346   -0.0471    3.3566 H   0  0  0  0  0  0  0  0  0  0  0  0
   -2.1750   -2.5454    2.9044 H   0  0  0  0  0  0  0  0  0  0  0  0
   -3.0703   -1.4470    1.8426 H   0  0  0  0  0  0  0  0  0  0  0  0
   -2.0445   -3.1537    0.4037 H   0  0  0  0  0  0  0  0  0  0  0  0
   -0.4652   -2.9058    1.1754 H   0  0  0  0  0  0  0  0  0  0  0  0
  1  2  1  0
  1  5  1  0
  1  6  1  0
  1  7  1  0
  2  3  3  0
  3  4  1  0
  4  8  1  0
  4  9  1  0
  4 10  1  0
 11 12  1  0
 11 16  1  0
 11 17  1  0
 12 13  1  0
 13 14  1  0
 13 18  1  0
 13 19  1  0
 14 15  1  0
 14 20  1  0
 14 21  1  0
 15 16  1  0
 15 22  1  0
 15 23  1  0
M  RAD  1  11   2
M  END
>  <reaction>  (4) 
rmg_rxn_39

>  <mol_properties>  (4) 
{"2": {"label": "*0", "atom_type": "Ct"}, "3": {"label": "*1", "atom_type": "Cs"}, "9": {"label": "*2", "atom_type": "H0"}, "10": {"label": "*3", "atom_type": "Cs"}, "11": {"label": "*4", "atom_type": "O2s"}}

>  <type>  (4) 
ts

$$$$

     RDKit          3D

 23 22  0  0  0  0  0  0  0  0999 V2000
    0.8650    1.3331   -4.7224 C   0  0  0  0  0  0  0  0  0  0  0  0
    0.8650    1.3331   -3.2651 C   0  0  0  0  0  3  0  0  0  0  0  0
    0.8650    1.3331   -2.0666 C   0  0  0  0  0  0  0  0  0  0  0  0
    0.8650    1.3331   -0.6094 C   0  0  0  0  0  0  0  0  0  0  0  0
    0.3655    2.2219   -5.1117 H   0  0  0  0  0  0  0  0  0  0  0  0
    0.3451    0.4562   -5.1117 H   0  0  0  0  0  0  0  0  0  0  0  0
    1.8845    1.3213   -5.1117 H   0  0  0  0  0  0  0  0  0  0  0  0
    0.3650    2.2216   -0.2200 H   0  0  0  0  0  0  0  0  0  0  0  0
    1.8845    1.3219   -0.2200 H   0  0  0  0  0  0  0  0  0  0  0  0
    0.2417    0.2804   -0.1422 H   0  0  0  0  0  0  0  0  0  0  0  0
   -0.3796   -0.7688    0.3234 C   0  0  0  0  0  0  0  0  0  0  0  0
    0.5366   -1.4856    1.0936 O   0  0  0  0  0  0  0  0  0  0  0  0
   -0.0722   -2.0104    2.2578 C   0  0  0  0  0  0  0  0  0  0  0  0
   -0.7110   -0.8934    3.0706 C   0  0  0  0  0  0  0  0  0  0  0  0
   -1.6228   -0.0857    2.1580 C   0  0  0  0  0  0  0  0  0  0  0  0
   -0.9216    0.3244    0.9997 O   0  0  0  0  0  0  0  0  0  0  0  0
   -1.1949   -1.4424    0.0011 H   0  0  0  0  0  0  0  0  0  0  0  0
   -0.8344   -2.7512    1.9713 H   0  0  0  0  0  0  0  0  0  0  0  0
    0.7093   -2.5245    2.8157 H   0  0  0  0  0  0  0  0  0  0  0  0
   -1.2778   -1.3065    3.9080 H   0  0  0  0  0  0  0  0  0  0  0  0
    0.0696   -0.2437    3.4711 H   0  0  0  0  0  0  0  0  0  0  0  0
   -1.9851    0.8201    2.6422 H   0  0  0  0  0  0  0  0  0  0  0  0
   -2.4941   -0.6910    1.8644 H   0  0  0  0  0  0  0  0  0  0  0  0
  1  2  1  0
  1  5  1  0
  1  6  1  0
  1  7  1  0
  2  3  2  0
  3  4  2  0
  4  8  1  0
  4  9  1  0
 10 11  1  0
 11 12  1  0
 11 16  1  0
 11 17  1  0
 12 13  1  0
 13 14  1  0
 13 18  1  0
 13 19  1  0
 14 15  1  0
 14 20  1  0
 14 21  1  0
 15 16  1  0
 15 22  1  0
 15 23  1  0
M  RAD  1   2   2
M  END
>  <reaction>  (5) 
rmg_rxn_39

>  <mol_properties>  (5) 
{"2": {"label": "*0", "atom_type": "Ct"}, "3": {"label": "*1", "atom_type": "Cs"}, "9": {"label": "*2", "atom_type": "H0"}, "10": {"label": "*3", "atom_type": "Cs"}, "11": {"label": "*4", "atom_type": "O2s"}}

>  <type>  (5) 
unop_1

>  <geom_source>  (5) 
Heuristics

$$$$

     RDKit          3D

 23 22  0  0  0  0  0  0  0  0999 V2000
    0.5167    2.0435   -4.1574 C   0  0  0  0  0  0  0  0  0  0  0  0
    0.5167    2.0435   -2.7001 C   0  0  0  0  0  3  0  0  0  0  0  0
    0.5167    2.0435   -1.5016 C   0  0  0  0  0  0  0  0  0  0  0  0
    0.5167    2.0435   -0.0443 C   0  0  0  0  0  0  0  0  0  0  0  0
    0.0171    2.9323   -4.5467 H   0  0  0  0  0  0  0  0  0  0  0  0
   -0.0033    1.1665   -4.5467 H   0  0  0  0  0  0  0  0  0  0  0  0
    1.5361    2.0317   -4.5467 H   0  0  0  0  0  0  0  0  0  0  0  0
    0.0166    2.9320    0.3450 H   0  0  0  0  0  0  0  0  0  0  0  0
    1.5361    2.0323    0.3450 H   0  0  0  0  0  0  0  0  0  0  0  0
   -0.1067    0.9908    0.4228 H   0  0  0  0  0  0  0  0  0  0  0  0
   -0.7279   -0.0585    0.8884 C   0  0  0  0  0  0  0  0  0  0  0  0
   -0.5620   -1.0854   -0.0413 O   0  0  0  0  0  0  0  0  0  0  0  0
   -0.8010   -2.3507    0.5446 C   0  0  0  0  0  0  0  0  0  0  0  0
    0.1052   -2.5556    1.7501 C   0  0  0  0  0  0  0  0  0  0  0  0
   -0.0432   -1.3606    2.6810 C   0  0  0  0  0  0  0  0  0  0  0  0
    0.1507   -0.1543    1.9679 O   0  0  0  0  0  0  0  0  0  0  0  0
   -1.7689   -0.0646    1.2605 H   0  0  0  0  0  0  0  0  0  0  0  0
   -1.8562   -2.4202    0.8503 H   0  0  0  0  0  0  0  0  0  0  0  0
   -0.6216   -3.0942   -0.2309 H   0  0  0  0  0  0  0  0  0  0  0  0
   -0.1552   -3.4799    2.2708 H   0  0  0  0  0  0  0  0  0  0  0  0
    1.1420   -2.6294    1.4165 H   0  0  0  0  0  0  0  0  0  0  0  0
    0.6953   -1.3737    3.4815 H   0  0  0  0  0  0  0  0  0  0  0  0
   -1.0451   -1.3604    3.1371 H   0  0  0  0  0  0  0  0  0  0  0  0
  1  2  1  0
  1  5  1  0
  1  6  1  0
  1  7  1  0
  2  3  2  0
  3  4  2  0
  4  8  1  0
  4  9  1  0
 10 11  1  0
 11 12  1  0
 11 16  1  0
 11 17  1  0
 12 13  1  0
 13 14  1  0
 13 18  1  0
 13 19  1  0
 14 15  1  0
 14 20  1  0
 14 21  1  0
 15 16  1  0
 15 22  1  0
 15 23  1  0
M  RAD  1   2   2
M  END
>  <reaction>  (6) 
rmg_rxn_39

>  <mol_properties>  (6) 
{"2": {"label": "*0", "atom_type": "Ct"}, "3": {"label": "*1", "atom_type": "Cs"}, "9": {"label": "*2", "atom_type": "H0"}, "10": {"label": "*3", "atom_type": "Cs"}, "11": {"label": "*4", "atom_type": "O2s"}}

>  <type>  (6) 
unop_2

>  <geom_source>  (6) 
Heuristics

$$$$

     RDKit          3D

 23 22  0  0  0  0  0  0  0  0999 V2000
    1.2378    1.3270   -4.5822 C   0  0  0  0  0  0  0  0  0  0  0  0
    1.2378    1.3270   -3.1250 C   0  0  0  0  0  3  0  0  0  0  0  0
    1.2378    1.3270   -1.9265 C   0  0  0  0  0  0  0  0  0  0  0  0
    1.2378    1.3270   -0.4692 C   0  0  0  0  0  0  0  0  0  0  0  0
    0.7383    2.2158   -4.9716 H   0  0  0  0  0  0  0  0  0  0  0  0
    0.7179    0.4500   -4.9715 H   0  0  0  0  0  0  0  0  0  0  0  0
    2.2573    1.3152   -4.9716 H   0  0  0  0  0  0  0  0  0  0  0  0
    0.7378    2.2155   -0.0798 H   0  0  0  0  0  0  0  0  0  0  0  0
    2.2573    1.3158   -0.0799 H   0  0  0  0  0  0  0  0  0  0  0  0
    0.6145    0.2743   -0.0021 H   0  0  0  0  0  0  0  0  0  0  0  0
   -0.0068   -0.7750    0.4635 C   0  0  0  0  0  0  0  0  0  0  0  0
    0.5785   -1.0937    1.6892 O   0  0  0  0  0  0  0  0  0  0  0  0
   -0.3429   -1.7435    2.5436 C   0  0  0  0  0  0  0  0  0  0  0  0
   -1.5820   -0.8816    2.7394 C   0  0  0  0  0  0  0  0  0  0  0  0
   -2.1200   -0.4826    1.3727 C   0  0  0  0  0  0  0  0  0  0  0  0
   -1.0927    0.0921    0.5880 O   0  0  0  0  0  0  0  0  0  0  0  0
   -0.3338   -1.7033   -0.0398 H   0  0  0  0  0  0  0  0  0  0  0  0
   -0.6245   -2.7149    2.1089 H   0  0  0  0  0  0  0  0  0  0  0  0
    0.1770   -1.9287    3.4826 H   0  0  0  0  0  0  0  0  0  0  0  0
   -2.3413   -1.4271    3.3043 H   0  0  0  0  0  0  0  0  0  0  0  0
   -1.3149    0.0160    3.3006 H   0  0  0  0  0  0  0  0  0  0  0  0
   -2.9110    0.2623    1.4479 H   0  0  0  0  0  0  0  0  0  0  0  0
   -2.5267   -1.3653    0.8556 H   0  0  0  0  0  0  0  0  0  0  0  0
  1  2  1  0
  1  5  1  0
  1  6  1  0
  1  7  1  0
  2  3  2  0
  3  4  2  0
  4  8  1  0
  4  9  1  0
 10 11  1  0
 11 12  1  0
 11 16  1  0
 11 17  1  0
 12 13  1  0
 13 14  1  0
 13 18  1  0
 13 19  1  0
 14 15  1  0
 14 20  1  0
 14 21  1  0
 15 16  1  0
 15 22  1  0
 15 23  1  0
M  RAD  1   2   2
M  END
>  <reaction>  (7) 
rmg_rxn_39

>  <mol_properties>  (7) 
{"2": {"label": "*0", "atom_type": "Ct"}, "3": {"label": "*1", "atom_type": "Cs"}, "9": {"label": "*2", "atom_type": "H0"}, "10": {"label": "*3", "atom_type": "Cs"}, "11": {"label": "*4", "atom_type": "O2s"}}

>  <type>  (7) 
unop_3

>  <geom_source>  (7) 
Heuristics

$$$$

     RDKit          3D

 23 22  0  0  0  0  0  0  0  0999 V2000
    1.3038    1.8906   -4.1184 C   0  0  0  0  0  0  0  0  0  0  0  0
    1.3038    1.8906   -2.6611 C   0  0  0  0  0  3  0  0  0  0  0  0
    1.3038    1.8906   -1.4626 C   0  0  0  0  0  0  0  0  0  0  0  0
    1.3038    1.8906   -0.0054 C   0  0  0  0  0  0  0  0  0  0  0  0
    0.8043    2.7794   -4.5078 H   0  0  0  0  0  0  0  0  0  0  0  0
    0.7839    1.0137   -4.5077 H   0  0  0  0  0  0  0  0  0  0  0  0
    2.3232    1.8788   -4.5077 H   0  0  0  0  0  0  0  0  0  0  0  0
    0.8038    2.7791    0.3840 H   0  0  0  0  0  0  0  0  0  0  0  0
    2.3232    1.8794    0.3839 H   0  0  0  0  0  0  0  0  0  0  0  0
    0.6805    0.8379    0.4618 H   0  0  0  0  0  0  0  0  0  0  0  0
    0.0592   -0.2113    0.9274 C   0  0  0  0  0  0  0  0  0  0  0  0
   -1.2519   -0.1615    0.4532 O   0  0  0  0  0  0  0  0  0  0  0  0
   -2.1510   -0.7573    1.3686 C   0  0  0  0  0  0  0  0  0  0  0  0
   -1.7329   -2.1906    1.6646 C   0  0  0  0  0  0  0  0  0  0  0  0
   -0.2691   -2.1958    2.0815 C   0  0  0  0  0  0  0  0  0  0  0  0
    0.5178   -1.5143    1.1236 O   0  0  0  0  0  0  0  0  0  0  0  0
    0.1276    0.3492    1.8778 H   0  0  0  0  0  0  0  0  0  0  0  0
   -2.1695   -0.1704    2.2997 H   0  0  0  0  0  0  0  0  0  0  0  0
   -3.1398   -0.7070    0.9147 H   0  0  0  0  0  0  0  0  0  0  0  0
   -2.3565   -2.6149    2.4547 H   0  0  0  0  0  0  0  0  0  0  0  0
   -1.8565   -2.7978    0.7658 H   0  0  0  0  0  0  0  0  0  0  0  0
    0.1303   -3.2065    2.1536 H   0  0  0  0  0  0  0  0  0  0  0  0
   -0.1552   -1.7100    3.0628 H   0  0  0  0  0  0  0  0  0  0  0  0
  1  2  1  0
  1  5  1  0
  1  6  1  0
  1  7  1  0
  2  3  2  0
  3  4  2  0
  4  8  1  0
  4  9  1  0
 10 11  1  0
 11 12  1  0
 11 16  1  0
 11 17  1  0
 12 13  1  0
 13 14  1  0
 13 18  1  0
 13 19  1  0
 14 15  1  0
 14 20  1  0
 14 21  1  0
 15 16  1  0
 15 22  1  0
 15 23  1  0
M  RAD  1   2   2
M  END
>  <reaction>  (8) 
rmg_rxn_39

>  <mol_properties>  (8) 
{"2": {"label": "*0", "atom_type": "Ct"}, "3": {"label": "*1", "atom_type": "Cs"}, "9": {"label": "*2", "atom_type": "H0"}, "10": {"label": "*3", "atom_type": "Cs"}, "11": {"label": "*4", "atom_type": "O2s"}}

>  <type>  (8) 
unop_4

>  <geom_source>  (8) 
Heuristics

$$$$

     RDKit          3D

 23 22  0  0  0  0  0  0  0  0999 V2000
    1.3871    1.6195   -4.3473 C   0  0  0  0  0  0  0  0  0  0  0  0
    1.3871    1.6195   -2.8900 C   0  0  0  0  0  3  0  0  0  0  0  0
    1.3871    1.6195   -1.6915 C   0  0  0  0  0  0  0  0  0  0  0  0
    1.3871    1.6195   -0.2343 C   0  0  0  0  0  0  0  0  0  0  0  0
    0.8876    2.5082   -4.7367 H   0  0  0  0  0  0  0  0  0  0  0  0
    0.8671    0.7425   -4.7366 H   0  0  0  0  0  0  0  0  0  0  0  0
    2.4065    1.6076   -4.7366 H   0  0  0  0  0  0  0  0  0  0  0  0
    0.8871    2.5079    0.1551 H   0  0  0  0  0  0  0  0  0  0  0  0
    2.4065    1.6082    0.1550 H   0  0  0  0  0  0  0  0  0  0  0  0
    0.7637    0.5667    0.2329 H   0  0  0  0  0  0  0  0  0  0  0  0
    0.1425   -0.4825    0.6985 C   0  0  0  0  0  0  0  0  0  0  0  0
    0.1871   -0.4072    2.0909 O   0  0  0  0  0  0  0  0  0  0  0  0
   -0.4868   -1.4999    2.6852 C   0  0  0  0  0  0  0  0  0  0  0  0
   -1.9241   -1.5687    2.1891 C   0  0  0  0  0  0  0  0  0  0  0  0
   -1.9167   -1.5487    0.6673 C   0  0  0  0  0  0  0  0  0  0  0  0
   -1.1576   -0.4530    0.1932 O   0  0  0  0  0  0  0  0  0  0  0  0
    0.6454   -1.4086    0.3645 H   0  0  0  0  0  0  0  0  0  0  0  0
    0.0415   -2.4341    2.4401 H   0  0  0  0  0  0  0  0  0  0  0  0
   -0.4345   -1.3519    3.7629 H   0  0  0  0  0  0  0  0  0  0  0  0
   -2.4120   -2.4743    2.5568 H   0  0  0  0  0  0  0  0  0  0  0  0
   -2.4782   -0.7046    2.5609 H   0  0  0  0  0  0  0  0  0  0  0  0
   -2.9192   -1.4367    0.2565 H   0  0  0  0  0  0  0  0  0  0  0  0
   -1.4891   -2.4863    0.2802 H   0  0  0  0  0  0  0  0  0  0  0  0
  1  2  1  0
  1  5  1  0
  1  6  1  0
  1  7  1  0
  2  3  2  0
  3  4  2  0
  4  8  1  0
  4  9  1  0
 10 11  1  0
 11 12  1  0
 11 16  1  0
 11 17  1  0
 12 13  1  0
 13 14  1  0
 13 18  1  0
 13 19  1  0
 14 15  1  0
 14 20  1  0
 14 21  1  0
 15 16  1  0
 15 22  1  0
 15 23  1  0
M  RAD  1   2   2
M  END
>  <reaction>  (9) 
rmg_rxn_39

>  <mol_properties>  (9) 
{"2": {"label": "*0", "atom_type": "Ct"}, "3": {"label": "*1", "atom_type": "Cs"}, "9": {"label": "*2", "atom_type": "H0"}, "10": {"label": "*3", "atom_type": "Cs"}, "11": {"label": "*4", "atom_type": "O2s"}}

>  <type>  (9) 
unop_5

>  <geom_source>  (9) 
Heuristics

$$$$

     RDKit          3D

 23 22  0  0  0  0  0  0  0  0999 V2000
    1.2850    1.8217   -4.2805 C   0  0  0  0  0  0  0  0  0  0  0  0
    1.2850    1.8217   -2.8233 C   0  0  0  0  0  3  0  0  0  0  0  0
    1.2850    1.8217   -1.6248 C   0  0  0  0  0  0  0  0  0  0  0  0
    1.2850    1.8217   -0.1675 C   0  0  0  0  0  0  0  0  0  0  0  0
    0.7855    2.7105   -4.6699 H   0  0  0  0  0  0  0  0  0  0  0  0
    0.7650    0.9447   -4.6698 H   0  0  0  0  0  0  0  0  0  0  0  0
    2.3044    1.8099   -4.6699 H   0  0  0  0  0  0  0  0  0  0  0  0
    0.7850    2.7102    0.2218 H   0  0  0  0  0  0  0  0  0  0  0  0
    2.3044    1.8105    0.2218 H   0  0  0  0  0  0  0  0  0  0  0  0
    0.6617    0.7690    0.2996 H   0  0  0  0  0  0  0  0  0  0  0  0
    0.0404   -0.2803    0.7652 C   0  0  0  0  0  0  0  0  0  0  0  0
   -1.3033    0.0649    0.9132 O   0  0  0  0  0  0  0  0  0  0  0  0
   -1.8572   -0.5188    2.0767 C   0  0  0  0  0  0  0  0  0  0  0  0
   -1.6835   -2.0306    2.0447 C   0  0  0  0  0  0  0  0  0  0  0  0
   -0.2182   -2.3481    1.7827 C   0  0  0  0  0  0  0  0  0  0  0  0
    0.2381   -1.6553    0.6367 O   0  0  0  0  0  0  0  0  0  0  0  0
    0.6135    0.0936    1.6336 H   0  0  0  0  0  0  0  0  0  0  0  0
   -1.3631   -0.1016    2.9676 H   0  0  0  0  0  0  0  0  0  0  0  0
   -2.9070   -0.2299    2.1031 H   0  0  0  0  0  0  0  0  0  0  0  0
   -2.0068   -2.4722    2.9900 H   0  0  0  0  0  0  0  0  0  0  0  0
   -2.2947   -2.4493    1.2429 H   0  0  0  0  0  0  0  0  0  0  0  0
   -0.0590   -3.4085    1.5920 H   0  0  0  0  0  0  0  0  0  0  0  0
    0.3912   -2.0596    2.6528 H   0  0  0  0  0  0  0  0  0  0  0  0
  1  2  1  0
  1  5  1  0
  1  6  1  0
  1  7  1  0
  2  3  2  0
  3  4  2  0
  4  8  1  0
  4  9  1  0
 10 11  1  0
 11 12  1  0
 11 16  1  0
 11 17  1  0
 12 13  1  0
 13 14  1  0
 13 18  1  0
 13 19  1  0
 14 15  1  0
 14 20  1  0
 14 21  1  0
 15 16  1  0
 15 22  1  0
 15 23  1  0
M  RAD  1   2   2
M  END
>  <reaction>  (10) 
rmg_rxn_39

>  <mol_properties>  (10) 
{"2": {"label": "*0", "atom_type": "Ct"}, "3": {"label": "*1", "atom_type": "Cs"}, "9": {"label": "*2", "atom_type": "H0"}, "10": {"label": "*3", "atom_type": "Cs"}, "11": {"label": "*4", "atom_type": "O2s"}}

>  <type>  (10) 
unop_6

>  <geom_source>  (10) 
Heuristics

$$$$

     RDKit          3D

 23 22  0  0  0  0  0  0  0  0999 V2000
    1.2115    1.8369   -4.3464 C   0  0  0  0  0  0  0  0  0  0  0  0
    1.2115    1.8369   -2.8892 C   0  0  0  0  0  3  0  0  0  0  0  0
    1.2115    1.8369   -1.6907 C   0  0  0  0  0  0  0  0  0  0  0  0
    1.2115    1.8369   -0.2334 C   0  0  0  0  0  0  0  0  0  0  0  0
    0.7120    2.7257   -4.7358 H   0  0  0  0  0  0  0  0  0  0  0  0
    0.6916    0.9599   -4.7357 H   0  0  0  0  0  0  0  0  0  0  0  0
    2.2310    1.8251   -4.7357 H   0  0  0  0  0  0  0  0  0  0  0  0
    0.7115    2.7254    0.1560 H   0  0  0  0  0  0  0  0  0  0  0  0
    2.2310    1.8257    0.1559 H   0  0  0  0  0  0  0  0  0  0  0  0
    0.5882    0.7842    0.2337 H   0  0  0  0  0  0  0  0  0  0  0  0
   -0.0331   -0.2651    0.6994 C   0  0  0  0  0  0  0  0  0  0  0  0
   -1.1021    0.1936    1.4695 O   0  0  0  0  0  0  0  0  0  0  0  0
   -1.2983   -0.6200    2.6102 C   0  0  0  0  0  0  0  0  0  0  0  0
   -1.5073   -2.0698    2.1968 C   0  0  0  0  0  0  0  0  0  0  0  0
   -0.3655   -2.4854    1.2802 C   0  0  0  0  0  0  0  0  0  0  0  0
   -0.2249   -1.5607    0.2188 O   0  0  0  0  0  0  0  0  0  0  0  0
    0.8943   -0.2297    1.3001 H   0  0  0  0  0  0  0  0  0  0  0  0
   -0.4231   -0.5397    3.2732 H   0  0  0  0  0  0  0  0  0  0  0  0
   -2.1625   -0.2180    3.1371 H   0  0  0  0  0  0  0  0  0  0  0  0
   -1.5453   -2.7161    3.0766 H   0  0  0  0  0  0  0  0  0  0  0  0
   -2.4543   -2.1617    1.6615 H   0  0  0  0  0  0  0  0  0  0  0  0
   -0.5417   -3.4596    0.8260 H   0  0  0  0  0  0  0  0  0  0  0  0
    0.5753   -2.5364    1.8496 H   0  0  0  0  0  0  0  0  0  0  0  0
  1  2  1  0
  1  5  1  0
  1  6  1  0
  1  7  1  0
  2  3  2  0
  3  4  2  0
  4  8  1  0
  4  9  1  0
 10 11  1  0
 11 12  1  0
 11 16  1  0
 11 17  1  0
 12 13  1  0
 13 14  1  0
 13 18  1  0
 13 19  1  0
 14 15  1  0
 14 20  1  0
 14 21  1  0
 15 16  1  0
 15 22  1  0
 15 23  1  0
M  RAD  1   2   2
M  END
>  <reaction>  (11) 
rmg_rxn_39

>  <mol_properties>  (11) 
{"2": {"label": "*0", "atom_type": "Ct"}, "3": {"label": "*1", "atom_type": "Cs"}, "9": {"label": "*2", "atom_type": "H0"}, "10": {"label": "*3", "atom_type": "Cs"}, "11": {"label": "*4", "atom_type": "O2s"}}

>  <type>  (11) 
unop_7

>  <geom_source>  (11) 
Heuristics

$$$$

     RDKit          3D

 23 22  0  0  0  0  0  0  0  0999 V2000
    0.5474    1.5422   -4.6604 C   0  0  0  0  0  0  0  0  0  0  0  0
    0.5474    1.5422   -3.2031 C   0  0  0  0  0  3  0  0  0  0  0  0
    0.5474    1.5422   -2.0046 C   0  0  0  0  0  0  0  0  0  0  0  0
    0.5474    1.5422   -0.5474 C   0  0  0  0  0  0  0  0  0  0  0  0
    0.0479    2.4309   -5.0497 H   0  0  0  0  0  0  0  0  0  0  0  0
    0.0275    0.6652   -5.0497 H   0  0  0  0  0  0  0  0  0  0  0  0
    1.5669    1.5303   -5.0497 H   0  0  0  0  0  0  0  0  0  0  0  0
    0.0474    2.4306   -0.1580 H   0  0  0  0  0  0  0  0  0  0  0  0
    1.5669    1.5309   -0.1580 H   0  0  0  0  0  0  0  0  0  0  0  0
   -0.0759    0.4894   -0.0802 H   0  0  0  0  0  0  0  0  0  0  0  0
   -0.6972   -0.5598    0.3854 C   0  0  0  0  0  0  0  0  0  0  0  0
    0.2516   -1.5720    0.5334 O   0  0  0  0  0  0  0  0  0  0  0  0
    0.0332   -2.3095    1.7207 C   0  0  0  0  0  0  0  0  0  0  0  0
    0.0332   -1.3822    2.9276 C   0  0  0  0  0  0  0  0  0  0  0  0
   -0.9452   -0.2452    2.6695 C   0  0  0  0  0  0  0  0  0  0  0  0
   -0.6685    0.3694    1.4257 O   0  0  0  0  0  0  0  0  0  0  0  0
   -1.7056   -1.0082    0.3211 H   0  0  0  0  0  0  0  0  0  0  0  0
   -0.9297   -2.8387    1.6523 H   0  0  0  0  0  0  0  0  0  0  0  0
    0.8269   -3.0531    1.7783 H   0  0  0  0  0  0  0  0  0  0  0  0
   -0.2473   -1.9299    3.8301 H   0  0  0  0  0  0  0  0  0  0  0  0
    1.0352   -0.9733    3.0712 H   0  0  0  0  0  0  0  0  0  0  0  0
   -0.8732    0.5340    3.4271 H   0  0  0  0  0  0  0  0  0  0  0  0
   -1.9769   -0.6291    2.6678 H   0  0  0  0  0  0  0  0  0  0  0  0
  1  2  1  0
  1  5  1  0
  1  6  1  0
  1  7  1  0
  2  3  2  0
  3  4  2  0
  4  8  1  0
  4  9  1  0
 10 11  1  0
 11 12  1  0
 11 16  1  0
 11 17  1  0
 12 13  1  0
 13 14  1  0
 13 18  1  0
 13 19  1  0
 14 15  1  0
 14 20  1  0
 14 21  1  0
 15 16  1  0
 15 22  1  0
 15 23  1  0
M  RAD  1   2   2
M  END
>  <reaction>  (12) 
rmg_rxn_39

>  <mol_properties>  (12) 
{"2": {"label": "*0", "atom_type": "Ct"}, "3": {"label": "*1", "atom_type": "Cs"}, "9": {"label": "*2", "atom_type": "H0"}, "10": {"label": "*3", "atom_type": "Cs"}, "11": {"label": "*4", "atom_type": "O2s"}}

>  <type>  (12) 
unop_8

>  <geom_source>  (12) 
Heuristics

$$$$

     RDKit          3D

 23 22  0  0  0  0  0  0  0  0999 V2000
    1.1509    2.0291   -3.9659 C   0  0  0  0  0  0  0  0  0  0  0  0
    1.1509    2.0291   -2.5086 C   0  0  0  0  0  3  0  0  0  0  0  0
    1.1509    2.0291   -1.3101 C   0  0  0  0  0  0  0  0  0  0  0  0
    1.1509    2.0291    0.1472 C   0  0  0  0  0  0  0  0  0  0  0  0
    0.6514    2.9179   -4.3552 H   0  0  0  0  0  0  0  0  0  0  0  0
    0.6309    1.1521   -4.3552 H   0  0  0  0  0  0  0  0  0  0  0  0
    2.1703    2.0173   -4.3552 H   0  0  0  0  0  0  0  0  0  0  0  0
    0.6508    2.9176    0.5365 H   0  0  0  0  0  0  0  0  0  0  0  0
    2.1703    2.0179    0.5365 H   0  0  0  0  0  0  0  0  0  0  0  0
    0.5275    0.9764    0.6143 H   0  0  0  0  0  0  0  0  0  0  0  0
   -0.0937   -0.0729    1.0799 C   0  0  0  0  0  0  0  0  0  0  0  0
   -1.0739   -0.4211    0.1502 O   0  0  0  0  0  0  0  0  0  0  0  0
   -2.0438   -1.2763    0.7240 C   0  0  0  0  0  0  0  0  0  0  0  0
   -1.3791   -2.5162    1.3050 C   0  0  0  0  0  0  0  0  0  0  0  0
   -0.2558   -2.0779    2.2339 C   0  0  0  0  0  0  0  0  0  0  0  0
    0.6075   -1.1749    1.5701 O   0  0  0  0  0  0  0  0  0  0  0  0
   -0.5622    0.4687    1.9222 H   0  0  0  0  0  0  0  0  0  0  0  0
   -2.5886   -0.7360    1.5134 H   0  0  0  0  0  0  0  0  0  0  0  0
   -2.7496   -1.5255   -0.0672 H   0  0  0  0  0  0  0  0  0  0  0  0
   -2.1086   -3.1220    1.8473 H   0  0  0  0  0  0  0  0  0  0  0  0
   -0.9655   -3.1197    0.4948 H   0  0  0  0  0  0  0  0  0  0  0  0
    0.3573   -2.9182    2.5564 H   0  0  0  0  0  0  0  0  0  0  0  0
   -0.6748   -1.5939    3.1295 H   0  0  0  0  0  0  0  0  0  0  0  0
  1  2  1  0
  1  5  1  0
  1  6  1  0
  1  7  1  0
  2  3  2  0
  3  4  2  0
  4  8  1  0
  4  9  1  0
 10 11  1  0
 11 12  1  0
 11 16  1  0
 11 17  1  0
 12 13  1  0
 13 14  1  0
 13 18  1  0
 13 19  1  0
 14 15  1  0
 14 20  1  0
 14 21  1  0
 15 16  1  0
 15 22  1  0
 15 23  1  0
M  RAD  1   2   2
M  END
>  <reaction>  (13) 
rmg_rxn_39

>  <mol_properties>  (13) 
{"2": {"label": "*0", "atom_type": "Ct"}, "3": {"label": "*1", "atom_type": "Cs"}, "9": {"label": "*2", "atom_type": "H0"}, "10": {"label": "*3", "atom_type": "Cs"}, "11": {"label": "*4", "atom_type": "O2s"}}

>  <type>  (13) 
unop_9

>  <geom_source>  (13) 
Heuristics

$$$$

     RDKit          3D

 23 22  0  0  0  0  0  0  0  0999 V2000
    0.4107    1.8158   -4.4385 C   0  0  0  0  0  0  0  0  0  0  0  0
    0.4107    1.8158   -2.9813 C   0  0  0  0  0  3  0  0  0  0  0  0
    0.4107    1.8158   -1.7828 C   0  0  0  0  0  0  0  0  0  0  0  0
    0.4107    1.8158   -0.3255 C   0  0  0  0  0  0  0  0  0  0  0  0
   -0.0888    2.7045   -4.8279 H   0  0  0  0  0  0  0  0  0  0  0  0
   -0.1092    0.9388   -4.8278 H   0  0  0  0  0  0  0  0  0  0  0  0
    1.4301    1.8039   -4.8279 H   0  0  0  0  0  0  0  0  0  0  0  0
   -0.0893    2.7042    0.0638 H   0  0  0  0  0  0  0  0  0  0  0  0
    1.4301    1.8045    0.0638 H   0  0  0  0  0  0  0  0  0  0  0  0
   -0.2126    0.7630    0.1416 H   0  0  0  0  0  0  0  0  0  0  0  0
   -0.8339   -0.2862    0.6072 C   0  0  0  0  0  0  0  0  0  0  0  0
   -0.1598   -1.4119    0.1330 O   0  0  0  0  0  0  0  0  0  0  0  0
   -0.2110   -2.4719    1.0685 C   0  0  0  0  0  0  0  0  0  0  0  0
    0.3539   -2.0230    2.4087 C   0  0  0  0  0  0  0  0  0  0  0  0
   -0.3480   -0.7395    2.8290 C   0  0  0  0  0  0  0  0  0  0  0  0
   -0.2886    0.2172    1.7886 O   0  0  0  0  0  0  0  0  0  0  0  0
   -1.8979   -0.5374    0.7717 H   0  0  0  0  0  0  0  0  0  0  0  0
   -1.2536   -2.8032    1.1911 H   0  0  0  0  0  0  0  0  0  0  0  0
    0.3598   -3.2951    0.6411 H   0  0  0  0  0  0  0  0  0  0  0  0
    0.2118   -2.8005    3.1627 H   0  0  0  0  0  0  0  0  0  0  0  0
    1.4244   -1.8347    2.3066 H   0  0  0  0  0  0  0  0  0  0  0  0
    0.1217   -0.2849    3.7002 H   0  0  0  0  0  0  0  0  0  0  0  0
   -1.4002   -0.9490    3.0755 H   0  0  0  0  0  0  0  0  0  0  0  0
  1  2  1  0
  1  5  1  0
  1  6  1  0
  1  7  1  0
  2  3  2  0
  3  4  2  0
  4  8  1  0
  4  9  1  0
 10 11  1  0
 11 12  1  0
 11 16  1  0
 11 17  1  0
 12 13  1  0
 13 14  1  0
 13 18  1  0
 13 19  1  0
 14 15  1  0
 14 20  1  0
 14 21  1  0
 15 16  1  0
 15 22  1  0
 15 23  1  0
M  RAD  1   2   2
M  END
>  <reaction>  (14) 
rmg_rxn_39

>  <mol_properties>  (14) 
{"2": {"label": "*0", "atom_type": "Ct"}, "3": {"label": "*1", "atom_type": "Cs"}, "9": {"label": "*2", "atom_type": "H0"}, "10": {"label": "*3", "atom_type": "Cs"}, "11": {"label": "*4", "atom_type": "O2s"}}

>  <type>  (14) 
unop_10

>  <geom_source>  (14) 
Heuristics

$$$$

     RDKit          3D

 23 22  0  0  0  0  0  0  0  0999 V2000
    1.2423    1.8409   -4.3083 C   0  0  0  0  0  0  0  0  0  0  0  0
    1.2423    1.8409   -2.8511 C   0  0  0  0  0  3  0  0  0  0  0  0
    1.2423    1.8409   -1.6526 C   0  0  0  0  0  0  0  0  0  0  0  0
    1.2423    1.8409   -0.1953 C   0  0  0  0  0  0  0  0  0  0  0  0
    0.7428    2.7297   -4.6977 H   0  0  0  0  0  0  0  0  0  0  0  0
    0.7223    0.9639   -4.6976 H   0  0  0  0  0  0  0  0  0  0  0  0
    2.2617    1.8291   -4.6977 H   0  0  0  0  0  0  0  0  0  0  0  0
    0.7422    2.7294    0.1940 H   0  0  0  0  0  0  0  0  0  0  0  0
    2.2617    1.8297    0.1940 H   0  0  0  0  0  0  0  0  0  0  0  0
    0.6189    0.7882    0.2718 H   0  0  0  0  0  0  0  0  0  0  0  0
   -0.0023   -0.2611    0.7374 C   0  0  0  0  0  0  0  0  0  0  0  0
   -0.5632    0.0989    1.9631 O   0  0  0  0  0  0  0  0  0  0  0  0
   -0.7322   -1.0289    2.8004 C   0  0  0  0  0  0  0  0  0  0  0  0
   -1.5787   -2.0841    2.1028 C   0  0  0  0  0  0  0  0  0  0  0  0
   -0.9773   -2.3652    0.7332 C   0  0  0  0  0  0  0  0  0  0  0  0
   -0.7937   -1.1578    0.0191 O   0  0  0  0  0  0  0  0  0  0  0  0
    0.9955   -0.7058    0.9066 H   0  0  0  0  0  0  0  0  0  0  0  0
    0.2535   -1.4462    3.0574 H   0  0  0  0  0  0  0  0  0  0  0  0
   -1.2001   -0.6718    3.7167 H   0  0  0  0  0  0  0  0  0  0  0  0
   -1.6159   -2.9989    2.6986 H   0  0  0  0  0  0  0  0  0  0  0  0
   -2.5975   -1.7107    1.9822 H   0  0  0  0  0  0  0  0  0  0  0  0
   -1.6260   -2.9938    0.1247 H   0  0  0  0  0  0  0  0  0  0  0  0
   -0.0088   -2.8765    0.8447 H   0  0  0  0  0  0  0  0  0  0  0  0
  1  2  1  0
  1  5  1  0
  1  6  1  0
  1  7  1  0
  2  3  2  0
  3  4  2  0
  4  8  1  0
  4  9  1  0
 10 11  1  0
 11 12  1  0
 11 16  1  0
 11 17  1  0
 12 13  1  0
 13 14  1  0
 13 18  1  0
 13 19  1  0
 14 15  1  0
 14 20  1  0
 14 21  1  0
 15 16  1  0
 15 22  1  0
 15 23  1  0
M  RAD  1   2   2
M  END
>  <reaction>  (15) 
rmg_rxn_39

>  <mol_properties>  (15) 
{"2": {"label": "*0", "atom_type": "Ct"}, "3": {"label": "*1", "atom_type": "Cs"}, "9": {"label": "*2", "atom_type": "H0"}, "10": {"label": "*3", "atom_type": "Cs"}, "11": {"label": "*4", "atom_type": "O2s"}}

>  <type>  (15) 
unop_11

>  <geom_source>  (15) 
Heuristics

$$$$

     RDKit          3D

 23 22  0  0  0  0  0  0  0  0999 V2000
    0.8277    2.1211   -3.9631 C   0  0  0  0  0  0  0  0  0  0  0  0
    0.8277    2.1211   -2.5058 C   0  0  0  0  0  3  0  0  0  0  0  0
    0.8277    2.1211   -1.3073 C   0  0  0  0  0  0  0  0  0  0  0  0
    0.8277    2.1211    0.1499 C   0  0  0  0  0  0  0  0  0  0  0  0
    0.3282    3.0099   -4.3524 H   0  0  0  0  0  0  0  0  0  0  0  0
    0.3078    1.2441   -4.3524 H   0  0  0  0  0  0  0  0  0  0  0  0
    1.8472    2.1093   -4.3524 H   0  0  0  0  0  0  0  0  0  0  0  0
    0.3277    3.0096    0.5393 H   0  0  0  0  0  0  0  0  0  0  0  0
    1.8472    2.1099    0.5393 H   0  0  0  0  0  0  0  0  0  0  0  0
    0.2044    1.0684    0.6171 H   0  0  0  0  0  0  0  0  0  0  0  0
   -0.4169    0.0191    1.0827 C   0  0  0  0  0  0  0  0  0  0  0  0
   -0.8564   -0.7232   -0.0137 O   0  0  0  0  0  0  0  0  0  0  0  0
   -1.5259   -1.8992    0.3988 C   0  0  0  0  0  0  0  0  0  0  0  0
   -0.6240   -2.7348    1.2961 C   0  0  0  0  0  0  0  0  0  0  0  0
   -0.0959   -1.8505    2.4167 C   0  0  0  0  0  0  0  0  0  0  0  0
    0.4883   -0.6773    1.8839 O   0  0  0  0  0  0  0  0  0  0  0  0
   -1.2872    0.3248    1.6920 H   0  0  0  0  0  0  0  0  0  0  0  0
   -2.4464   -1.6276    0.9379 H   0  0  0  0  0  0  0  0  0  0  0  0
   -1.8072   -2.4340   -0.5074 H   0  0  0  0  0  0  0  0  0  0  0  0
   -1.1750   -3.5838    1.7070 H   0  0  0  0  0  0  0  0  0  0  0  0
    0.2140   -3.1193    0.7115 H   0  0  0  0  0  0  0  0  0  0  0  0
    0.6775   -2.3493    2.9991 H   0  0  0  0  0  0  0  0  0  0  0  0
   -0.9159   -1.5754    3.0977 H   0  0  0  0  0  0  0  0  0  0  0  0
  1  2  1  0
  1  5  1  0
  1  6  1  0
  1  7  1  0
  2  3  2  0
  3  4  2  0
  4  8  1  0
  4  9  1  0
 10 11  1  0
 11 12  1  0
 11 16  1  0
 11 17  1  0
 12 13  1  0
 13 14  1  0
 13 18  1  0
 13 19  1  0
 14 15  1  0
 14 20  1  0
 14 21  1  0
 15 16  1  0
 15 22  1  0
 15 23  1  0
M  RAD  1   2   2
M  END
>  <reaction>  (16) 
rmg_rxn_39

>  <mol_properties>  (16) 
{"2": {"label": "*0", "atom_type": "Ct"}, "3": {"label": "*1", "atom_type": "Cs"}, "9": {"label": "*2", "atom_type": "H0"}, "10": {"label": "*3", "atom_type": "Cs"}, "11": {"label": "*4", "atom_type": "O2s"}}

>  <type>  (16) 
unop_12

>  <geom_source>  (16) 
Heuristics

$$$$

     RDKit          3D

 23 22  0  0  0  0  0  0  0  0999 V2000
   -1.8225    0.8726   -1.1408 O   0  0  0  0  0  0  0  0  0  0  0  0
   -1.0781   -1.1545   -0.0977 O   0  0  0  0  0  0  0  0  0  0  0  0
   -3.1891   -0.1838    0.5339 C   0  0  0  0  0  0  0  0  0  0  0  0
   -2.4382    1.0801    0.1106 C   0  0  0  0  0  0  0  0  0  0  0  0
   -2.4653   -1.4040   -0.0385 C   0  0  0  0  0  0  0  0  0  0  0  0
   -0.7972   -0.1087   -1.0245 C   0  0  0  0  0  3  0  0  0  0  0  0
    4.9231   -0.5597    0.0291 C   0  0  0  0  0  0  0  0  0  0  0  0
    1.1254    1.0384    0.3344 C   0  0  0  0  0  0  0  0  0  0  0  0
    3.5782    0.0062    0.1372 C   0  0  0  0  0  0  0  0  0  0  0  0
    2.4702    0.4726    0.2263 C   0  0  0  0  0  0  0  0  0  0  0  0
   -3.2212   -0.2405    1.6437 H   0  0  0  0  0  0  0  0  0  0  0  0
   -4.2321   -0.1596    0.1497 H   0  0  0  0  0  0  0  0  0  0  0  0
   -3.1549    1.9243    0.0266 H   0  0  0  0  0  0  0  0  0  0  0  0
   -1.6813    1.3632    0.8786 H   0  0  0  0  0  0  0  0  0  0  0  0
   -2.8604   -1.6556   -1.0500 H   0  0  0  0  0  0  0  0  0  0  0  0
   -2.6485   -2.2820    0.6162 H   0  0  0  0  0  0  0  0  0  0  0  0
   -0.6177   -0.5548   -2.0255 H   0  0  0  0  0  0  0  0  0  0  0  0
    0.3768    0.5192   -0.6372 H   0  0  0  0  0  0  0  0  0  0  0  0
    5.5347    0.0673   -0.6519 H   0  0  0  0  0  0  0  0  0  0  0  0
    5.3957   -0.5848    1.0325 H   0  0  0  0  0  0  0  0  0  0  0  0
    4.8592   -1.5908   -0.3754 H   0  0  0  0  0  0  0  0  0  0  0  0
    1.1231    2.0684   -0.0779 H   0  0  0  0  0  0  0  0  0  0  0  0
    0.8202    1.0662    1.4007 H   0  0  0  0  0  0  0  0  0  0  0  0
  1  4  1  0
  1  6  1  0
  2  5  1  0
  2  6  1  0
  3  4  1  0
  3  5  1  0
  3 11  1  0
  3 12  1  0
  4 13  1  0
  4 14  1  0
  5 15  1  0
  5 16  1  0
  6 17  1  0
  7  9  1  0
  7 19  1  0
  7 20  1  0
  7 21  1  0
  8 10  1  0
  8 18  1  0
  8 22  1  0
  8 23  1  0
  9 10  3  0
M  RAD  1   6   2
M  END
>  <reaction>  (17) 
rmg_rxn_39

>  <mol_properties>  (17) 
{"2": {"label": "*0", "atom_type": "Ct"}, "3": {"label": "*1", "atom_type": "Cs"}, "9": {"label": "*2", "atom_type": "H0"}, "10": {"label": "*3", "atom_type": "Cs"}, "11": {"label": "*4", "atom_type": "O2s"}}

>  <type>  (17) 
unop_13

>  <geom_source>  (17) 
AutoTST

$$$$

     RDKit          3D

 23 22  0  0  0  0  0  0  0  0999 V2000
    0.5167    2.0435   -4.1574 C   0  0  0  0  0  0  0  0  0  0  0  0
    0.5167    2.0435   -2.7001 C   0  0  0  0  0  3  0  0  0  0  0  0
    0.5167    2.0435   -1.5016 C   0  0  0  0  0  0  0  0  0  0  0  0
    0.5167    2.0435   -0.0443 C   0  0  0  0  0  0  0  0  0  0  0  0
    0.0171    2.9323   -4.5467 H   0  0  0  0  0  0  0  0  0  0  0  0
   -0.0033    1.1665   -4.5466 H   0  0  0  0  0  0  0  0  0  0  0  0
    1.5361    2.0317   -4.5467 H   0  0  0  0  0  0  0  0  0  0  0  0
    0.0166    2.9320    0.3450 H   0  0  0  0  0  0  0  0  0  0  0  0
    1.5361    2.0323    0.3450 H   0  0  0  0  0  0  0  0  0  0  0  0
   -0.1067    0.9908    0.4228 H   0  0  0  0  0  0  0  0  0  0  0  0
   -0.7279   -0.0585    0.8884 C   0  0  0  0  0  0  0  0  0  0  0  0
   -0.5620   -1.0854   -0.0413 O   0  0  0  0  0  0  0  0  0  0  0  0
   -0.8010   -2.3507    0.5446 C   0  0  0  0  0  0  0  0  0  0  0  0
    0.1052   -2.5556    1.7501 C   0  0  0  0  0  0  0  0  0  0  0  0
   -0.0432   -1.3606    2.6810 C   0  0  0  0  0  0  0  0  0  0  0  0
    0.1507   -0.1543    1.9679 O   0  0  0  0  0  0  0  0  0  0  0  0
   -1.7689   -0.0646    1.2605 H   0  0  0  0  0  0  0  0  0  0  0  0
   -1.8562   -2.4202    0.8503 H   0  0  0  0  0  0  0  0  0  0  0  0
   -0.6216   -3.0941   -0.2309 H   0  0  0  0  0  0  0  0  0  0  0  0
   -0.1552   -3.4799    2.2708 H   0  0  0  0  0  0  0  0  0  0  0  0
    1.1421   -2.6294    1.4165 H   0  0  0  0  0  0  0  0  0  0  0  0
    0.6953   -1.3737    3.4815 H   0  0  0  0  0  0  0  0  0  0  0  0
   -1.0451   -1.3604    3.1371 H   0  0  0  0  0  0  0  0  0  0  0  0
  1  2  1  0
  1  5  1  0
  1  6  1  0
  1  7  1  0
  2  3  2  0
  3  4  2  0
  4  8  1  0
  4  9  1  0
 10 11  1  0
 11 12  1  0
 11 16  1  0
 11 17  1  0
 12 13  1  0
 13 14  1  0
 13 18  1  0
 13 19  1  0
 14 15  1  0
 14 20  1  0
 14 21  1  0
 15 16  1  0
 15 22  1  0
 15 23  1  0
M  RAD  1   2   2
M  END
>  <reaction>  (18) 
rmg_rxn_39

>  <mol_properties>  (18) 
{"2": {"label": "*0", "atom_type": "Ct"}, "3": {"label": "*1", "atom_type": "Cs"}, "9": {"label": "*2", "atom_type": "H0"}, "10": {"label": "*3", "atom_type": "Cs"}, "11": {"label": "*4", "atom_type": "O2s"}}

>  <type>  (18) 
unop_14

>  <geom_source>  (18) 
gaussian_log

$$$$
