
     RDKit          3D

 15 14  0  0  0  0  0  0  0  0999 V2000
   -2.0554    0.0723   -0.4910 C   0  0  0  0  0  0  0  0  0  0  0  0
   -0.7461   -0.6266   -0.8178 C   0  0  0  0  0  0  0  0  0  0  0  0
    0.3249    0.2591   -1.9782 S   0  0  0  0  0  0  0  0  0  0  0  0
   -0.7172    0.3642   -3.4551 C   0  0  0  0  0  0  0  0  0  0  0  0
   -1.1375   -0.9737   -4.0409 C   0  0  0  0  0  0  0  0  0  0  0  0
   -2.7005    0.1427   -1.3684 H   0  0  0  0  0  0  0  0  0  0  0  0
   -2.6016   -0.4848    0.2733 H   0  0  0  0  0  0  0  0  0  0  0  0
   -1.8758    1.0825   -0.1213 H   0  0  0  0  0  0  0  0  0  0  0  0
   -0.1320   -0.7246    0.0789 H   0  0  0  0  0  0  0  0  0  0  0  0
   -0.9254   -1.6374   -1.1879 H   0  0  0  0  0  0  0  0  0  0  0  0
   -1.5873    0.9874   -3.2422 H   0  0  0  0  0  0  0  0  0  0  0  0
   -0.1021    0.9161   -4.1678 H   0  0  0  0  0  0  0  0  0  0  0  0
   -1.7876   -1.5224   -3.3574 H   0  0  0  0  0  0  0  0  0  0  0  0
   -0.2676   -1.5962   -4.2534 H   0  0  0  0  0  0  0  0  0  0  0  0
   -1.6916   -0.8229   -4.9700 H   0  0  0  0  0  0  0  0  0  0  0  0
  1  2  1  0
  1  6  1  0
  1  7  1  0
  1  8  1  0
  2  3  1  0
  2  9  1  0
  2 10  1  0
  3  4  1  0
  4  5  1  0
  4 11  1  0
  4 12  1  0
  5 13  1  0
  5 14  1  0
  5 15  1  0
M  END
>  <reaction>  (1) 
rmg_rxn_15604

>  <mol_properties>  (1) 
{"1": {"label": "donator", "atom_type": "Cs"}, "8": {"label": "d_hydrogen", "atom_type": "H0"}}

>  <type>  (1) 
r1h

$$$$

     RDKit          3D

  8  7  0  0  0  0  0  0  0  0999 V2000
    1.7077   -0.1964   -0.0607 C   0  0  0  0  0  3  0  0  0  0  0  0
    0.4209   -0.4565    0.2808 O   0  0  0  0  0  0  0  0  0  0  0  0
   -0.4607    0.4385   -0.2968 N   0  0  0  0  0  0  0  0  0  0  0  0
   -1.6584    0.1416   -0.0244 C   0  0  0  0  0  0  0  0  0  0  0  0
    2.4163   -0.7685    0.5170 H   0  0  0  0  0  0  0  0  0  0  0  0
    1.9214    0.7645   -0.5045 H   0  0  0  0  0  0  0  0  0  0  0  0
   -2.4185    0.7953   -0.4307 H   0  0  0  0  0  0  0  0  0  0  0  0
   -1.9286   -0.7185    0.5831 H   0  0  0  0  0  0  0  0  0  0  0  0
  1  2  1  0
  1  5  1  0
  1  6  1  0
  2  3  1  0
  3  4  2  3
  4  7  1  0
  4  8  1  0
M  RAD  1   1   2
M  END
>  <reaction>  (2) 
rmg_rxn_15604

>  <mol_properties>  (2) 
{"0": {"label": "acceptor", "atom_type": "Cs"}}

>  <type>  (2) 
r2

$$$$

     RDKit          3D

  9  8  0  0  0  0  0  0  0  0999 V2000
   -1.5470   -0.0755   -0.1976 C   0  0  0  0  0  0  0  0  0  0  0  0
   -0.2885    0.4507    0.1749 O   0  0  0  0  0  0  0  0  0  0  0  0
   -0.1502    1.7216   -0.3294 N   0  0  0  0  0  0  0  0  0  0  0  0
    0.9626    2.2353   -0.0219 C   0  0  0  0  0  0  0  0  0  0  0  0
   -1.6392   -0.1356   -1.2844 H   0  0  0  0  0  0  0  0  0  0  0  0
   -2.3597    0.5337    0.2044 H   0  0  0  0  0  0  0  0  0  0  0  0
   -1.5879   -1.0750    0.2318 H   0  0  0  0  0  0  0  0  0  0  0  0
    1.1497    3.2381   -0.3820 H   0  0  0  0  0  0  0  0  0  0  0  0
    1.7060    1.7101    0.5739 H   0  0  0  0  0  0  0  0  0  0  0  0
  1  2  1  0
  1  5  1  0
  1  6  1  0
  1  7  1  0
  2  3  1  0
  3  4  2  3
  4  8  1  0
  4  9  1  0
M  END
>  <reaction>  (3) 
rmg_rxn_15604

>  <mol_properties>  (3) 
{"0": {"label": "acceptor", "atom_type": "Cs"}, "8": {"label": "a_hydrogen", "atom_type": "H0"}}

>  <type>  (3) 
r2h

$$$$

     RDKit          3D

 23 21  0  0  0  0  0  0  0  0999 V2000
   -1.5245    1.3624   -0.9087 C   0  0  0  0  0  3  0  0  0  0  0  0
   -2.4466    0.6340   -0.1662 O   0  0  0  0  0  0  0  0  0  0  0  0
   -2.1566   -0.7096   -0.2047 N   0  0  0  0  0  0  0  0  0  0  0  0
   -2.9649   -1.3877    0.4917 C   0  0  0  0  0  0  0  0  0  0  0  0
   -1.2754    0.9003   -1.8633 H   0  0  0  0  0  0  0  0  0  0  0  0
   -1.8794    2.3866   -0.9770 H   0  0  0  0  0  0  0  0  0  0  0  0
   -2.8074   -2.4577    0.5095 H   0  0  0  0  0  0  0  0  0  0  0  0
   -3.7824   -0.9349    1.0476 H   0  0  0  0  0  0  0  0  0  0  0  0
    0.4005    0.6931    1.8034 C   0  0  0  0  0  0  0  0  0  0  0  0
    0.7852    1.3542    0.5018 C   0  0  0  0  0  0  0  0  0  0  0  0
    2.0550    0.6262   -0.5004 S   0  0  0  0  0  0  0  0  0  0  0  0
    1.4596   -1.0749   -0.7222 C   0  0  0  0  0  0  0  0  0  0  0  0
    2.0246   -2.0756    0.2750 C   0  0  0  0  0  0  0  0  0  0  0  0
   -0.3861    1.2700    2.2945 H   0  0  0  0  0  0  0  0  0  0  0  0
    0.0116   -0.3123    1.6373 H   0  0  0  0  0  0  0  0  0  0  0  0
    1.2531    0.6224    2.4844 H   0  0  0  0  0  0  0  0  0  0  0  0
   -0.3173    1.3978   -0.2203 H   0  0  0  0  0  0  0  0  0  0  0  0
    1.0472    2.4063    0.6179 H   0  0  0  0  0  0  0  0  0  0  0  0
    0.3687   -1.0549   -0.6949 H   0  0  0  0  0  0  0  0  0  0  0  0
    1.7492   -1.3513   -1.7369 H   0  0  0  0  0  0  0  0  0  0  0  0
    1.6488   -3.0787    0.0571 H   0  0  0  0  0  0  0  0  0  0  0  0
    1.7446   -1.8214    1.2972 H   0  0  0  0  0  0  0  0  0  0  0  0
    3.1139   -2.1024    0.2257 H   0  0  0  0  0  0  0  0  0  0  0  0
  1  2  1  0
  1  5  1  0
  1  6  1  0
  2  3  1  0
  3  4  2  3
  4  7  1  0
  4  8  1  0
  9 10  1  0
  9 14  1  0
  9 15  1  0
  9 16  1  0
 10 11  1  0
 10 17  1  0
 10 18  1  0
 11 12  1  0
 12 13  1  0
 12 19  1  0
 12 20  1  0
 13 21  1  0
 13 22  1  0
 13 23  1  0
M  RAD  1   1   2
M  END
>  <reaction>  (4) 
rmg_rxn_15604

>  <mol_properties>  (4) 
{"0": {"label": "*3", "atom_type": "Cs"}, "1": {"label": "*4", "atom_type": "O2s"}, "9": {"label": "*1", "atom_type": "Cs"}, "10": {"label": "*0", "atom_type": "S2s"}, "16": {"label": "*2", "atom_type": "H0"}}

>  <type>  (4) 
ts

$$$$

     RDKit          3D

 23 21  0  0  0  0  0  0  0  0999 V2000
   -1.4876    1.4624   -0.8245 C   0  0  0  0  0  0  0  0  0  0  0  0
   -2.3705    0.6261   -0.1436 O   0  0  0  0  0  0  0  0  0  0  0  0
   -2.0302   -0.7039   -0.2735 N   0  0  0  0  0  0  0  0  0  0  0  0
   -2.7817   -1.5323    0.3135 C   0  0  0  0  0  0  0  0  0  0  0  0
   -1.2761    1.1274   -1.8385 H   0  0  0  0  0  0  0  0  0  0  0  0
   -1.8997    2.4641   -0.7817 H   0  0  0  0  0  0  0  0  0  0  0  0
   -2.5210   -2.5711    0.2143 H   0  0  0  0  0  0  0  0  0  0  0  0
   -3.6565   -1.2585    0.8945 H   0  0  0  0  0  0  0  0  0  0  0  0
    0.4472    0.7744    1.8379 C   0  0  0  0  0  0  0  0  0  0  0  0
    0.8020    1.3879    0.5084 C   0  0  0  0  0  3  0  0  0  0  0  0
    2.0002    0.5552   -0.4922 S   0  0  0  0  0  0  0  0  0  0  0  0
    1.2822   -1.1211   -0.6818 C   0  0  0  0  0  0  0  0  0  0  0  0
    1.8944   -2.1259    0.2766 C   0  0  0  0  0  0  0  0  0  0  0  0
    0.0218   -0.2193    1.7134 H   0  0  0  0  0  0  0  0  0  0  0  0
    1.3252    0.6982    2.4820 H   0  0  0  0  0  0  0  0  0  0  0  0
   -0.2906    1.3994    2.3384 H   0  0  0  0  0  0  0  0  0  0  0  0
   -0.3339    1.4631   -0.1959 H   0  0  0  0  0  0  0  0  0  0  0  0
    1.1394    2.4186    0.5948 H   0  0  0  0  0  0  0  0  0  0  0  0
    0.2031   -1.0350   -0.5517 H   0  0  0  0  0  0  0  0  0  0  0  0
    1.4972   -1.4018   -1.7127 H   0  0  0  0  0  0  0  0  0  0  0  0
    1.7115   -1.8448    1.3106 H   0  0  0  0  0  0  0  0  0  0  0  0
    2.9698   -2.1879    0.1246 H   0  0  0  0  0  0  0  0  0  0  0  0
    1.4615   -3.1094    0.1030 H   0  0  0  0  0  0  0  0  0  0  0  0
  1  2  1  0
  1  5  1  0
  1  6  1  0
  1 17  1  0
  2  3  1  0
  3  4  2  3
  4  7  1  0
  4  8  1  0
  9 10  1  0
  9 14  1  0
  9 15  1  0
  9 16  1  0
 10 11  1  0
 10 18  1  0
 11 12  1  0
 12 13  1  0
 12 19  1  0
 12 20  1  0
 13 21  1  0
 13 22  1  0
 13 23  1  0
M  RAD  1  10   2
M  END
>  <reaction>  (5) 
rmg_rxn_15604

>  <mol_properties>  (5) 
{"0": {"label": "*3", "atom_type": "Cs"}, "1": {"label": "*4", "atom_type": "O2s"}, "9": {"label": "*1", "atom_type": "Cs"}, "10": {"label": "*0", "atom_type": "S2s"}, "16": {"label": "*2", "atom_type": "H0"}}

>  <type>  (5) 
unop_1

>  <geom_source>  (5) 
crest_best.xyz

$$$$

     RDKit          3D

 23 21  0  0  0  0  0  0  0  0999 V2000
   -1.7656   -0.9657   -0.0291 C   0  0  0  0  0  0  0  0  0  0  0  0
   -1.3391   -2.0712    0.7425 O   0  0  0  0  0  0  0  0  0  0  0  0
   -2.1411   -2.1993    1.8511 N   0  0  0  0  0  0  0  0  0  0  0  0
   -1.7979   -3.1770    2.5743 C   0  0  0  0  0  0  0  0  0  0  0  0
   -2.7929   -1.1031   -0.3741 H   0  0  0  0  0  0  0  0  0  0  0  0
   -1.6939   -0.0384    0.5438 H   0  0  0  0  0  0  0  0  0  0  0  0
   -2.3814   -3.3464    3.4694 H   0  0  0  0  0  0  0  0  0  0  0  0
   -0.9609   -3.8255    2.3245 H   0  0  0  0  0  0  0  0  0  0  0  0
    0.4186    0.1462   -2.4629 C   0  0  0  0  0  0  0  0  0  0  0  0
    0.4186    0.1462   -0.9431 C   0  0  0  0  0  3  0  0  0  0  0  0
    0.4186    1.7873   -0.1782 S   0  0  0  0  0  0  0  0  0  0  0  0
    1.9592    2.5013   -0.8068 C   0  0  0  0  0  0  0  0  0  0  0  0
    3.2202    1.7424   -0.4276 C   0  0  0  0  0  0  0  0  0  0  0  0
    1.3417    0.5698   -2.8623 H   0  0  0  0  0  0  0  0  0  0  0  0
    0.3361   -0.8749   -2.8415 H   0  0  0  0  0  0  0  0  0  0  0  0
   -0.4171    0.7287   -2.8523 H   0  0  0  0  0  0  0  0  0  0  0  0
   -0.6748   -0.4104   -0.4856 H   0  0  0  0  0  0  0  0  0  0  0  0
    1.2548   -0.4364   -0.5531 H   0  0  0  0  0  0  0  0  0  0  0  0
    1.8881    2.6235   -1.8889 H   0  0  0  0  0  0  0  0  0  0  0  0
    1.9743    3.5044   -0.3776 H   0  0  0  0  0  0  0  0  0  0  0  0
    3.2414    0.7506   -0.8823 H   0  0  0  0  0  0  0  0  0  0  0  0
    3.2908    1.6204    0.6538 H   0  0  0  0  0  0  0  0  0  0  0  0
    4.1049    2.2808   -0.7746 H   0  0  0  0  0  0  0  0  0  0  0  0
  1  2  1  0
  1  5  1  0
  1  6  1  0
  1 17  1  0
  2  3  1  0
  3  4  2  3
  4  7  1  0
  4  8  1  0
  9 10  1  0
  9 14  1  0
  9 15  1  0
  9 16  1  0
 10 11  1  0
 10 18  1  0
 11 12  1  0
 12 13  1  0
 12 19  1  0
 12 20  1  0
 13 21  1  0
 13 22  1  0
 13 23  1  0
M  RAD  1  10   2
M  END
>  <reaction>  (6) 
rmg_rxn_15604

>  <mol_properties>  (6) 
{"0": {"label": "*3", "atom_type": "Cs"}, "1": {"label": "*4", "atom_type": "O2s"}, "9": {"label": "*1", "atom_type": "Cs"}, "10": {"label": "*0", "atom_type": "S2s"}, "16": {"label": "*2", "atom_type": "H0"}}

>  <type>  (6) 
unop_2

>  <geom_source>  (6) 
Heuristics

$$$$

     RDKit          3D

 23 21  0  0  0  0  0  0  0  0999 V2000
   -1.4896   -1.4643    0.8217 C   0  0  0  0  0  0  0  0  0  0  0  0
   -2.3707   -0.6252    0.1417 O   0  0  0  0  0  0  0  0  0  0  0  0
   -2.0279    0.7039    0.2739 N   0  0  0  0  0  0  0  0  0  0  0  0
   -2.7777    1.5349   -0.3116 C   0  0  0  0  0  0  0  0  0  0  0  0
   -1.2800   -1.1327    1.8373 H   0  0  0  0  0  0  0  0  0  0  0  0
   -1.9024   -2.4655    0.7749 H   0  0  0  0  0  0  0  0  0  0  0  0
   -2.5143    2.5728   -0.2111 H   0  0  0  0  0  0  0  0  0  0  0  0
   -3.6533    1.2641   -0.8929 H   0  0  0  0  0  0  0  0  0  0  0  0
    0.4487   -0.7759   -1.8376 C   0  0  0  0  0  0  0  0  0  0  0  0
    0.8021   -1.3883   -0.5072 C   0  0  0  0  0  3  0  0  0  0  0  0
    1.9990   -0.5549    0.4943 S   0  0  0  0  0  0  0  0  0  0  0  0
    1.2811    1.1217    0.6811 C   0  0  0  0  0  0  0  0  0  0  0  0
    1.8930    2.1250   -0.2790 C   0  0  0  0  0  0  0  0  0  0  0  0
    0.0215    0.2172   -1.7141 H   0  0  0  0  0  0  0  0  0  0  0  0
    1.3277   -0.6986   -2.4803 H   0  0  0  0  0  0  0  0  0  0  0  0
   -0.2874   -1.4021   -2.3391 H   0  0  0  0  0  0  0  0  0  0  0  0
   -0.3349   -1.4640    0.1953 H   0  0  0  0  0  0  0  0  0  0  0  0
    1.1399   -2.4190   -0.5926 H   0  0  0  0  0  0  0  0  0  0  0  0
    0.2020    1.0354    0.5516 H   0  0  0  0  0  0  0  0  0  0  0  0
    1.4964    1.4041    1.7115 H   0  0  0  0  0  0  0  0  0  0  0  0
    2.9683    2.1876   -0.1274 H   0  0  0  0  0  0  0  0  0  0  0  0
    1.4598    3.1088   -0.1070 H   0  0  0  0  0  0  0  0  0  0  0  0
    1.7099    1.8423   -1.3126 H   0  0  0  0  0  0  0  0  0  0  0  0
  1  2  1  0
  1  5  1  0
  1  6  1  0
  1 17  1  0
  2  3  1  0
  3  4  2  3
  4  7  1  0
  4  8  1  0
  9 10  1  0
  9 14  1  0
  9 15  1  0
  9 16  1  0
 10 11  1  0
 10 18  1  0
 11 12  1  0
 12 13  1  0
 12 19  1  0
 12 20  1  0
 13 21  1  0
 13 22  1  0
 13 23  1  0
M  RAD  1  10   2
M  END
>  <reaction>  (7) 
rmg_rxn_15604

>  <mol_properties>  (7) 
{"0": {"label": "*3", "atom_type": "Cs"}, "1": {"label": "*4", "atom_type": "O2s"}, "9": {"label": "*1", "atom_type": "Cs"}, "10": {"label": "*0", "atom_type": "S2s"}, "16": {"label": "*2", "atom_type": "H0"}}

>  <type>  (7) 
unop_3

>  <geom_source>  (7) 
Heuristics

$$$$

     RDKit          3D

 23 21  0  0  0  0  0  0  0  0999 V2000
    1.7544   -1.5032   -0.8609 C   0  0  0  0  0  0  0  0  0  0  0  0
    2.6013   -0.5825   -0.2202 O   0  0  0  0  0  0  0  0  0  0  0  0
    2.0022    0.6582   -0.1227 N   0  0  0  0  0  0  0  0  0  0  0  0
    2.6907    1.5724    0.3997 C   0  0  0  0  0  0  0  0  0  0  0  0
    1.6616   -1.3245   -1.9292 H   0  0  0  0  0  0  0  0  0  0  0  0
    2.0822   -2.4940   -0.6254 H   0  0  0  0  0  0  0  0  0  0  0  0
    2.2259    2.5396    0.4828 H   0  0  0  0  0  0  0  0  0  0  0  0
    3.7052    1.4430    0.7644 H   0  0  0  0  0  0  0  0  0  0  0  0
   -0.5595   -0.6040    1.9059 C   0  0  0  0  0  0  0  0  0  0  0  0
   -1.0708   -1.3377    0.7182 C   0  0  0  0  0  3  0  0  0  0  0  0
   -2.0439   -0.6098   -0.5009 S   0  0  0  0  0  0  0  0  0  0  0  0
   -1.2634    1.0267   -0.7855 C   0  0  0  0  0  0  0  0  0  0  0  0
   -1.9000    2.1239    0.0473 C   0  0  0  0  0  0  0  0  0  0  0  0
   -0.0376    0.3076    1.6187 H   0  0  0  0  0  0  0  0  0  0  0  0
   -1.3688   -0.3295    2.5936 H   0  0  0  0  0  0  0  0  0  0  0  0
    0.1362   -1.2399    2.4517 H   0  0  0  0  0  0  0  0  0  0  0  0
    0.7704   -1.6053   -0.3677 H   0  0  0  0  0  0  0  0  0  0  0  0
   -1.3353   -2.3761    0.8448 H   0  0  0  0  0  0  0  0  0  0  0  0
   -0.1970    0.9227   -0.5857 H   0  0  0  0  0  0  0  0  0  0  0  0
   -1.4163    1.2185   -1.8474 H   0  0  0  0  0  0  0  0  0  0  0  0
   -1.7733    1.9327    1.1098 H   0  0  0  0  0  0  0  0  0  0  0  0
   -2.9650    2.1927   -0.1639 H   0  0  0  0  0  0  0  0  0  0  0  0
   -1.4370    3.0799   -0.1903 H   0  0  0  0  0  0  0  0  0  0  0  0
  1  2  1  0
  1  5  1  0
  1  6  1  0
  1 17  1  0
  2  3  1  0
  3  4  2  3
  4  7  1  0
  4  8  1  0
  9 10  1  0
  9 14  1  0
  9 15  1  0
  9 16  1  0
 10 11  1  0
 10 18  1  0
 11 12  1  0
 12 13  1  0
 12 19  1  0
 12 20  1  0
 13 21  1  0
 13 22  1  0
 13 23  1  0
M  RAD  1  10   2
M  END
>  <reaction>  (8) 
rmg_rxn_15604

>  <mol_properties>  (8) 
{"0": {"label": "*3", "atom_type": "Cs"}, "1": {"label": "*4", "atom_type": "O2s"}, "9": {"label": "*1", "atom_type": "Cs"}, "10": {"label": "*0", "atom_type": "S2s"}, "16": {"label": "*2", "atom_type": "H0"}}

>  <type>  (8) 
unop_4

>  <geom_source>  (8) 
Heuristics

$$$$

     RDKit          3D

 23 21  0  0  0  0  0  0  0  0999 V2000
   -1.7820   -1.5236    0.7930 C   0  0  0  0  0  0  0  0  0  0  0  0
   -2.6389   -0.5433    0.2592 O   0  0  0  0  0  0  0  0  0  0  0  0
   -1.9808    0.6534    0.0770 N   0  0  0  0  0  0  0  0  0  0  0  0
   -2.6629    1.6041   -0.3871 C   0  0  0  0  0  0  0  0  0  0  0  0
   -1.3287   -1.2511    1.7268 H   0  0  0  0  0  0  0  0  0  0  0  0
   -2.3434   -2.4469    0.8419 H   0  0  0  0  0  0  0  0  0  0  0  0
   -2.1514    2.5398   -0.5325 H   0  0  0  0  0  0  0  0  0  0  0  0
   -3.7155    1.5342   -0.6431 H   0  0  0  0  0  0  0  0  0  0  0  0
    0.6159   -0.5678   -1.9380 C   0  0  0  0  0  0  0  0  0  0  0  0
    1.0552   -1.3293   -0.7390 C   0  0  0  0  0  3  0  0  0  0  0  0
    1.9943   -0.6429    0.5309 S   0  0  0  0  0  0  0  0  0  0  0  0
    1.2615    1.0205    0.7863 C   0  0  0  0  0  0  0  0  0  0  0  0
    1.9751    2.0954   -0.0124 C   0  0  0  0  0  0  0  0  0  0  0  0
    1.4623   -0.2984   -2.5817 H   0  0  0  0  0  0  0  0  0  0  0  0
   -0.0641   -1.1827   -2.5257 H   0  0  0  0  0  0  0  0  0  0  0  0
    0.0968    0.3488   -1.6618 H   0  0  0  0  0  0  0  0  0  0  0  0
   -0.8258   -1.6261    0.2473 H   0  0  0  0  0  0  0  0  0  0  0  0
    1.2992   -2.3724   -0.8678 H   0  0  0  0  0  0  0  0  0  0  0  0
    0.2023    0.9558    0.5372 H   0  0  0  0  0  0  0  0  0  0  0  0
    1.3726    1.2050    1.8548 H   0  0  0  0  0  0  0  0  0  0  0  0
    3.0308    2.1256    0.2486 H   0  0  0  0  0  0  0  0  0  0  0  0
    1.5362    3.0673    0.2058 H   0  0  0  0  0  0  0  0  0  0  0  0
    1.8914    1.9099   -1.0801 H   0  0  0  0  0  0  0  0  0  0  0  0
  1  2  1  0
  1  5  1  0
  1  6  1  0
  1 17  1  0
  2  3  1  0
  3  4  2  3
  4  7  1  0
  4  8  1  0
  9 10  1  0
  9 14  1  0
  9 15  1  0
  9 16  1  0
 10 11  1  0
 10 18  1  0
 11 12  1  0
 12 13  1  0
 12 19  1  0
 12 20  1  0
 13 21  1  0
 13 22  1  0
 13 23  1  0
M  RAD  1  10   2
M  END
>  <reaction>  (9) 
rmg_rxn_15604

>  <mol_properties>  (9) 
{"0": {"label": "*3", "atom_type": "Cs"}, "1": {"label": "*4", "atom_type": "O2s"}, "9": {"label": "*1", "atom_type": "Cs"}, "10": {"label": "*0", "atom_type": "S2s"}, "16": {"label": "*2", "atom_type": "H0"}}

>  <type>  (9) 
unop_5

>  <geom_source>  (9) 
Heuristics

$$$$

     RDKit          3D

 23 21  0  0  0  0  0  0  0  0999 V2000
   -1.4462   -0.8678    0.7424 C   0  0  0  0  0  0  0  0  0  0  0  0
   -1.8246   -1.8241   -0.2281 O   0  0  0  0  0  0  0  0  0  0  0  0
   -2.6949   -2.7301    0.3292 N   0  0  0  0  0  0  0  0  0  0  0  0
   -3.0626   -3.6077   -0.5023 C   0  0  0  0  0  0  0  0  0  0  0  0
   -2.3155   -0.3156    1.1065 H   0  0  0  0  0  0  0  0  0  0  0  0
   -0.9383   -1.3448    1.5837 H   0  0  0  0  0  0  0  0  0  0  0  0
   -3.7504   -4.3602   -0.1407 H   0  0  0  0  0  0  0  0  0  0  0  0
   -2.7150   -3.6206   -1.5331 H   0  0  0  0  0  0  0  0  0  0  0  0
    0.7381    0.2441   -1.6913 C   0  0  0  0  0  0  0  0  0  0  0  0
    0.7381    0.2441   -0.1716 C   0  0  0  0  0  3  0  0  0  0  0  0
    0.7381    1.8852    0.5933 S   0  0  0  0  0  0  0  0  0  0  0  0
    2.2787    2.5991   -0.0353 C   0  0  0  0  0  0  0  0  0  0  0  0
    3.5396    1.8403    0.3440 C   0  0  0  0  0  0  0  0  0  0  0  0
    1.6611    0.6677   -2.0907 H   0  0  0  0  0  0  0  0  0  0  0  0
    0.6556   -0.7771   -2.0700 H   0  0  0  0  0  0  0  0  0  0  0  0
   -0.0976    0.8266   -2.0807 H   0  0  0  0  0  0  0  0  0  0  0  0
   -0.3553   -0.3125    0.2860 H   0  0  0  0  0  0  0  0  0  0  0  0
    1.5743   -0.3385    0.2185 H   0  0  0  0  0  0  0  0  0  0  0  0
    2.2075    2.7213   -1.1173 H   0  0  0  0  0  0  0  0  0  0  0  0
    2.2938    3.6023    0.3940 H   0  0  0  0  0  0  0  0  0  0  0  0
    3.5608    0.8484   -0.1107 H   0  0  0  0  0  0  0  0  0  0  0  0
    3.6103    1.7182    1.4254 H   0  0  0  0  0  0  0  0  0  0  0  0
    4.4244    2.3787   -0.0030 H   0  0  0  0  0  0  0  0  0  0  0  0
  1  2  1  0
  1  5  1  0
  1  6  1  0
  1 17  1  0
  2  3  1  0
  3  4  2  3
  4  7  1  0
  4  8  1  0
  9 10  1  0
  9 14  1  0
  9 15  1  0
  9 16  1  0
 10 11  1  0
 10 18  1  0
 11 12  1  0
 12 13  1  0
 12 19  1  0
 12 20  1  0
 13 21  1  0
 13 22  1  0
 13 23  1  0
M  RAD  1  10   2
M  END
>  <reaction>  (10) 
rmg_rxn_15604

>  <mol_properties>  (10) 
{"0": {"label": "*3", "atom_type": "Cs"}, "1": {"label": "*4", "atom_type": "O2s"}, "9": {"label": "*1", "atom_type": "Cs"}, "10": {"label": "*0", "atom_type": "S2s"}, "16": {"label": "*2", "atom_type": "H0"}}

>  <type>  (10) 
unop_6

>  <geom_source>  (10) 
Heuristics

$$$$

     RDKit          3D

 23 21  0  0  0  0  0  0  0  0999 V2000
   -1.4859    1.4633   -0.8231 C   0  0  0  0  0  0  0  0  0  0  0  0
   -2.3702    0.6280   -0.1426 O   0  0  0  0  0  0  0  0  0  0  0  0
   -2.0309   -0.7024   -0.2715 N   0  0  0  0  0  0  0  0  0  0  0  0
   -2.7856   -1.5300    0.3125 C   0  0  0  0  0  0  0  0  0  0  0  0
   -1.2749    1.1284   -1.8373 H   0  0  0  0  0  0  0  0  0  0  0  0
   -1.8968    2.4655   -0.7801 H   0  0  0  0  0  0  0  0  0  0  0  0
   -2.5254   -2.5689    0.2148 H   0  0  0  0  0  0  0  0  0  0  0  0
   -3.6623   -1.2551    0.8903 H   0  0  0  0  0  0  0  0  0  0  0  0
    0.4536    0.7777    1.8384 C   0  0  0  0  0  0  0  0  0  0  0  0
    0.8054    1.3880    0.5067 C   0  0  0  0  0  3  0  0  0  0  0  0
    2.0004    0.5521   -0.4951 S   0  0  0  0  0  0  0  0  0  0  0  0
    1.2795   -1.1234   -0.6809 C   0  0  0  0  0  0  0  0  0  0  0  0
    1.8896   -2.1273    0.2797 C   0  0  0  0  0  0  0  0  0  0  0  0
    0.0237   -0.2144    1.7168 H   0  0  0  0  0  0  0  0  0  0  0  0
    1.3339    0.6988    2.4791 H   0  0  0  0  0  0  0  0  0  0  0  0
   -0.2797    1.4062    2.3411 H   0  0  0  0  0  0  0  0  0  0  0  0
   -0.3320    1.4629   -0.1950 H   0  0  0  0  0  0  0  0  0  0  0  0
    1.1440    2.4186    0.5901 H   0  0  0  0  0  0  0  0  0  0  0  0
    0.2006   -1.0351   -0.5513 H   0  0  0  0  0  0  0  0  0  0  0  0
    1.4943   -1.4067   -1.7112 H   0  0  0  0  0  0  0  0  0  0  0  0
    2.9651   -2.1903    0.1295 H   0  0  0  0  0  0  0  0  0  0  0  0
    1.4562   -3.1107    0.1066 H   0  0  0  0  0  0  0  0  0  0  0  0
    1.7051   -1.8450    1.3130 H   0  0  0  0  0  0  0  0  0  0  0  0
  1  2  1  0
  1  5  1  0
  1  6  1  0
  1 17  1  0
  2  3  1  0
  3  4  2  3
  4  7  1  0
  4  8  1  0
  9 10  1  0
  9 14  1  0
  9 15  1  0
  9 16  1  0
 10 11  1  0
 10 18  1  0
 11 12  1  0
 12 13  1  0
 12 19  1  0
 12 20  1  0
 13 21  1  0
 13 22  1  0
 13 23  1  0
M  RAD  1  10   2
M  END
>  <reaction>  (11) 
rmg_rxn_15604

>  <mol_properties>  (11) 
{"0": {"label": "*3", "atom_type": "Cs"}, "1": {"label": "*4", "atom_type": "O2s"}, "9": {"label": "*1", "atom_type": "Cs"}, "10": {"label": "*0", "atom_type": "S2s"}, "16": {"label": "*2", "atom_type": "H0"}}

>  <type>  (11) 
unop_7

>  <geom_source>  (11) 
Heuristics

$$$$

     RDKit          3D

 23 21  0  0  0  0  0  0  0  0999 V2000
   -1.6777   -1.1728   -0.1466 C   0  0  0  0  0  0  0  0  0  0  0  0
   -1.3220   -1.7554    1.0918 O   0  0  0  0  0  0  0  0  0  0  0  0
   -2.4311   -1.8410    1.8989 N   0  0  0  0  0  0  0  0  0  0  0  0
   -2.1625   -2.3570    3.0207 C   0  0  0  0  0  0  0  0  0  0  0  0
   -2.4220   -1.7813   -0.6652 H   0  0  0  0  0  0  0  0  0  0  0  0
   -2.0668   -0.1620   -0.0054 H   0  0  0  0  0  0  0  0  0  0  0  0
   -2.9847   -2.4601    3.7162 H   0  0  0  0  0  0  0  0  0  0  0  0
   -1.1612   -2.6863    3.2898 H   0  0  0  0  0  0  0  0  0  0  0  0
    0.5066   -0.0609   -2.5803 C   0  0  0  0  0  0  0  0  0  0  0  0
    0.5066   -0.0609   -1.0606 C   0  0  0  0  0  3  0  0  0  0  0  0
    0.5066    1.5802   -0.2957 S   0  0  0  0  0  0  0  0  0  0  0  0
    2.0472    2.2941   -0.9243 C   0  0  0  0  0  0  0  0  0  0  0  0
    3.3081    1.5352   -0.5451 C   0  0  0  0  0  0  0  0  0  0  0  0
    1.4296    0.3627   -2.9798 H   0  0  0  0  0  0  0  0  0  0  0  0
    0.4240   -1.0821   -2.9590 H   0  0  0  0  0  0  0  0  0  0  0  0
   -0.3291    0.5216   -2.9697 H   0  0  0  0  0  0  0  0  0  0  0  0
   -0.5869   -0.6175   -0.6031 H   0  0  0  0  0  0  0  0  0  0  0  0
    1.3428   -0.6436   -0.6706 H   0  0  0  0  0  0  0  0  0  0  0  0
    1.9760    2.4163   -2.0064 H   0  0  0  0  0  0  0  0  0  0  0  0
    2.0623    3.2973   -0.4950 H   0  0  0  0  0  0  0  0  0  0  0  0
    3.3293    0.5434   -0.9998 H   0  0  0  0  0  0  0  0  0  0  0  0
    3.3788    1.4132    0.5363 H   0  0  0  0  0  0  0  0  0  0  0  0
    4.1928    2.0736   -0.8920 H   0  0  0  0  0  0  0  0  0  0  0  0
  1  2  1  0
  1  5  1  0
  1  6  1  0
  1 17  1  0
  2  3  1  0
  3  4  2  3
  4  7  1  0
  4  8  1  0
  9 10  1  0
  9 14  1  0
  9 15  1  0
  9 16  1  0
 10 11  1  0
 10 18  1  0
 11 12  1  0
 12 13  1  0
 12 19  1  0
 12 20  1  0
 13 21  1  0
 13 22  1  0
 13 23  1  0
M  RAD  1  10   2
M  END
>  <reaction>  (12) 
rmg_rxn_15604

>  <mol_properties>  (12) 
{"0": {"label": "*3", "atom_type": "Cs"}, "1": {"label": "*4", "atom_type": "O2s"}, "9": {"label": "*1", "atom_type": "Cs"}, "10": {"label": "*0", "atom_type": "S2s"}, "16": {"label": "*2", "atom_type": "H0"}}

>  <type>  (12) 
unop_8

>  <geom_source>  (12) 
Heuristics

$$$$

     RDKit          3D

 23 21  0  0  0  0  0  0  0  0999 V2000
   -1.1509   -1.7070    0.4972 C   0  0  0  0  0  0  0  0  0  0  0  0
   -2.2177   -0.9274   -0.0065 O   0  0  0  0  0  0  0  0  0  0  0  0
   -3.2575   -0.9298    0.8921 N   0  0  0  0  0  0  0  0  0  0  0  0
   -4.2377   -0.2440    0.4849 C   0  0  0  0  0  0  0  0  0  0  0  0
   -0.7791   -1.2982    1.4395 H   0  0  0  0  0  0  0  0  0  0  0  0
   -1.4611   -2.7437    0.6464 H   0  0  0  0  0  0  0  0  0  0  0  0
   -5.0995   -0.1951    1.1369 H   0  0  0  0  0  0  0  0  0  0  0  0
   -4.2319    0.2772   -0.4700 H   0  0  0  0  0  0  0  0  0  0  0  0
    1.0334   -0.5951   -1.9365 C   0  0  0  0  0  0  0  0  0  0  0  0
    1.0334   -0.5951   -0.4168 C   0  0  0  0  0  3  0  0  0  0  0  0
    1.0334    1.0460    0.3481 S   0  0  0  0  0  0  0  0  0  0  0  0
    2.5740    1.7599   -0.2805 C   0  0  0  0  0  0  0  0  0  0  0  0
    3.8349    1.0010    0.0988 C   0  0  0  0  0  0  0  0  0  0  0  0
    1.9564   -0.1715   -2.3359 H   0  0  0  0  0  0  0  0  0  0  0  0
    0.9508   -1.6163   -2.3152 H   0  0  0  0  0  0  0  0  0  0  0  0
    0.1977   -0.0127   -2.3259 H   0  0  0  0  0  0  0  0  0  0  0  0
   -0.0601   -1.1517    0.0408 H   0  0  0  0  0  0  0  0  0  0  0  0
    1.8696   -1.1778   -0.0267 H   0  0  0  0  0  0  0  0  0  0  0  0
    2.5028    1.8821   -1.3625 H   0  0  0  0  0  0  0  0  0  0  0  0
    2.5891    2.7631    0.1488 H   0  0  0  0  0  0  0  0  0  0  0  0
    3.8561    0.0092   -0.3559 H   0  0  0  0  0  0  0  0  0  0  0  0
    3.9056    0.8790    1.1802 H   0  0  0  0  0  0  0  0  0  0  0  0
    4.7196    1.5394   -0.2482 H   0  0  0  0  0  0  0  0  0  0  0  0
  1  2  1  0
  1  5  1  0
  1  6  1  0
  1 17  1  0
  2  3  1  0
  3  4  2  3
  4  7  1  0
  4  8  1  0
  9 10  1  0
  9 14  1  0
  9 15  1  0
  9 16  1  0
 10 11  1  0
 10 18  1  0
 11 12  1  0
 12 13  1  0
 12 19  1  0
 12 20  1  0
 13 21  1  0
 13 22  1  0
 13 23  1  0
M  RAD  1  10   2
M  END
>  <reaction>  (13) 
rmg_rxn_15604

>  <mol_properties>  (13) 
{"0": {"label": "*3", "atom_type": "Cs"}, "1": {"label": "*4", "atom_type": "O2s"}, "9": {"label": "*1", "atom_type": "Cs"}, "10": {"label": "*0", "atom_type": "S2s"}, "16": {"label": "*2", "atom_type": "H0"}}

>  <type>  (13) 
unop_9

>  <geom_source>  (13) 
Heuristics

$$$$

     RDKit          3D

 23 21  0  0  0  0  0  0  0  0999 V2000
   -1.7787    1.5238    0.7949 C   0  0  0  0  0  0  0  0  0  0  0  0
   -2.6379    0.5447    0.2628 O   0  0  0  0  0  0  0  0  0  0  0  0
   -1.9807   -0.6515    0.0751 N   0  0  0  0  0  0  0  0  0  0  0  0
   -2.6642   -1.6007   -0.3900 C   0  0  0  0  0  0  0  0  0  0  0  0
   -2.3398    2.4466    0.8518 H   0  0  0  0  0  0  0  0  0  0  0  0
   -1.3148    1.2480    1.7218 H   0  0  0  0  0  0  0  0  0  0  0  0
   -2.1534   -2.5363   -0.5387 H   0  0  0  0  0  0  0  0  0  0  0  0
   -3.7173   -1.5299   -0.6434 H   0  0  0  0  0  0  0  0  0  0  0  0
    0.6155    0.5657   -1.9388 C   0  0  0  0  0  0  0  0  0  0  0  0
    1.0571    1.3280   -0.7413 C   0  0  0  0  0  3  0  0  0  0  0  0
    1.9956    0.6418    0.5291 S   0  0  0  0  0  0  0  0  0  0  0  0
    1.2592   -1.0195    0.7882 C   0  0  0  0  0  0  0  0  0  0  0  0
    1.9698   -2.0975   -0.0089 C   0  0  0  0  0  0  0  0  0  0  0  0
    0.0968   -0.3506   -1.6610 H   0  0  0  0  0  0  0  0  0  0  0  0
   -0.0656    1.1803   -2.5256 H   0  0  0  0  0  0  0  0  0  0  0  0
    1.4606    0.2959   -2.5840 H   0  0  0  0  0  0  0  0  0  0  0  0
   -0.8245    1.6277    0.2479 H   0  0  0  0  0  0  0  0  0  0  0  0
    1.3026    2.3706   -0.8717 H   0  0  0  0  0  0  0  0  0  0  0  0
    1.3706   -1.2020    1.8571 H   0  0  0  0  0  0  0  0  0  0  0  0
    0.2000   -0.9531    0.5395 H   0  0  0  0  0  0  0  0  0  0  0  0
    1.8860   -1.9137   -1.0769 H   0  0  0  0  0  0  0  0  0  0  0  0
    1.5286   -3.0679    0.2114 H   0  0  0  0  0  0  0  0  0  0  0  0
    3.0256   -2.1299    0.2517 H   0  0  0  0  0  0  0  0  0  0  0  0
  1  2  1  0
  1  5  1  0
  1  6  1  0
  1 17  1  0
  2  3  1  0
  3  4  2  3
  4  7  1  0
  4  8  1  0
  9 10  1  0
  9 14  1  0
  9 15  1  0
  9 16  1  0
 10 11  1  0
 10 18  1  0
 11 12  1  0
 12 13  1  0
 12 19  1  0
 12 20  1  0
 13 21  1  0
 13 22  1  0
 13 23  1  0
M  RAD  1  10   2
M  END
>  <reaction>  (14) 
rmg_rxn_15604

>  <mol_properties>  (14) 
{"0": {"label": "*3", "atom_type": "Cs"}, "1": {"label": "*4", "atom_type": "O2s"}, "9": {"label": "*1", "atom_type": "Cs"}, "10": {"label": "*0", "atom_type": "S2s"}, "16": {"label": "*2", "atom_type": "H0"}}

>  <type>  (14) 
unop_10

>  <geom_source>  (14) 
Heuristics

$$$$

     RDKit          3D

 23 21  0  0  0  0  0  0  0  0999 V2000
   -1.5807   -1.3185   -0.1640 C   0  0  0  0  0  0  0  0  0  0  0  0
   -1.4770   -1.2657    1.2452 O   0  0  0  0  0  0  0  0  0  0  0  0
   -2.5922   -1.8334    1.8133 N   0  0  0  0  0  0  0  0  0  0  0  0
   -2.5456   -1.8097    3.0758 C   0  0  0  0  0  0  0  0  0  0  0  0
   -1.6439   -2.3517   -0.5127 H   0  0  0  0  0  0  0  0  0  0  0  0
   -2.4534   -0.7616   -0.5127 H   0  0  0  0  0  0  0  0  0  0  0  0
   -3.3888   -2.2390    3.6003 H   0  0  0  0  0  0  0  0  0  0  0  0
   -1.7079   -1.3832    3.6235 H   0  0  0  0  0  0  0  0  0  0  0  0
    0.6036   -0.2066   -2.5978 C   0  0  0  0  0  0  0  0  0  0  0  0
    0.6036   -0.2066   -1.0780 C   0  0  0  0  0  3  0  0  0  0  0  0
    0.6036    1.4345   -0.3131 S   0  0  0  0  0  0  0  0  0  0  0  0
    2.1441    2.1484   -0.9417 C   0  0  0  0  0  0  0  0  0  0  0  0
    3.4051    1.3896   -0.5625 C   0  0  0  0  0  0  0  0  0  0  0  0
    1.5266    0.2170   -2.9972 H   0  0  0  0  0  0  0  0  0  0  0  0
    0.5210   -1.2277   -2.9764 H   0  0  0  0  0  0  0  0  0  0  0  0
   -0.2322    0.3759   -2.9872 H   0  0  0  0  0  0  0  0  0  0  0  0
   -0.4899   -0.7632   -0.6205 H   0  0  0  0  0  0  0  0  0  0  0  0
    1.4398   -0.7892   -0.6880 H   0  0  0  0  0  0  0  0  0  0  0  0
    2.0730    2.2707   -2.0238 H   0  0  0  0  0  0  0  0  0  0  0  0
    2.1592    3.1516   -0.5125 H   0  0  0  0  0  0  0  0  0  0  0  0
    3.4263    0.3977   -1.0172 H   0  0  0  0  0  0  0  0  0  0  0  0
    3.4757    1.2676    0.5189 H   0  0  0  0  0  0  0  0  0  0  0  0
    4.2898    1.9280   -0.9095 H   0  0  0  0  0  0  0  0  0  0  0  0
  1  2  1  0
  1  5  1  0
  1  6  1  0
  1 17  1  0
  2  3  1  0
  3  4  2  3
  4  7  1  0
  4  8  1  0
  9 10  1  0
  9 14  1  0
  9 15  1  0
  9 16  1  0
 10 11  1  0
 10 18  1  0
 11 12  1  0
 12 13  1  0
 12 19  1  0
 12 20  1  0
 13 21  1  0
 13 22  1  0
 13 23  1  0
M  RAD  1  10   2
M  END
>  <reaction>  (15) 
rmg_rxn_15604

>  <mol_properties>  (15) 
{"0": {"label": "*3", "atom_type": "Cs"}, "1": {"label": "*4", "atom_type": "O2s"}, "9": {"label": "*1", "atom_type": "Cs"}, "10": {"label": "*0", "atom_type": "S2s"}, "16": {"label": "*2", "atom_type": "H0"}}

>  <type>  (15) 
unop_11

>  <geom_source>  (15) 
Heuristics

$$$$

     RDKit          3D

 23 21  0  0  0  0  0  0  0  0999 V2000
   -1.4875   -1.4626    0.8252 C   0  0  0  0  0  0  0  0  0  0  0  0
   -2.3705   -0.6257    0.1449 O   0  0  0  0  0  0  0  0  0  0  0  0
   -2.0280    0.7039    0.2731 N   0  0  0  0  0  0  0  0  0  0  0  0
   -2.7788    1.5329   -0.3139 C   0  0  0  0  0  0  0  0  0  0  0  0
   -1.2753   -1.1279    1.8391 H   0  0  0  0  0  0  0  0  0  0  0  0
   -1.9002   -2.4640    0.7825 H   0  0  0  0  0  0  0  0  0  0  0  0
   -2.5160    2.5713   -0.2164 H   0  0  0  0  0  0  0  0  0  0  0  0
   -3.6546    1.2600   -0.8939 H   0  0  0  0  0  0  0  0  0  0  0  0
    0.4450   -0.7728   -1.8380 C   0  0  0  0  0  0  0  0  0  0  0  0
    0.8009   -1.3876   -0.5095 C   0  0  0  0  0  3  0  0  0  0  0  0
    2.0001   -0.5560    0.4908 S   0  0  0  0  0  0  0  0  0  0  0  0
    1.2823    1.1201    0.6831 C   0  0  0  0  0  0  0  0  0  0  0  0
    1.8931    2.1259   -0.2750 C   0  0  0  0  0  0  0  0  0  0  0  0
   -0.2930   -1.3974   -2.3388 H   0  0  0  0  0  0  0  0  0  0  0  0
    0.0194    0.2206   -1.7121 H   0  0  0  0  0  0  0  0  0  0  0  0
    1.3226   -0.6956   -2.4827 H   0  0  0  0  0  0  0  0  0  0  0  0
   -0.3344   -1.4634    0.1957 H   0  0  0  0  0  0  0  0  0  0  0  0
    1.1381   -2.4183   -0.5973 H   0  0  0  0  0  0  0  0  0  0  0  0
    0.2031    1.0341    0.5543 H   0  0  0  0  0  0  0  0  0  0  0  0
    1.4987    1.3997    1.7140 H   0  0  0  0  0  0  0  0  0  0  0  0
    1.4611    3.1094   -0.0990 H   0  0  0  0  0  0  0  0  0  0  0  0
    1.7077    1.8466   -1.3091 H   0  0  0  0  0  0  0  0  0  0  0  0
    2.9688    2.1871   -0.1252 H   0  0  0  0  0  0  0  0  0  0  0  0
  1  2  1  0
  1  5  1  0
  1  6  1  0
  1 17  1  0
  2  3  1  0
  3  4  2  3
  4  7  1  0
  4  8  1  0
  9 10  1  0
  9 14  1  0
  9 15  1  0
  9 16  1  0
 10 11  1  0
 10 18  1  0
 11 12  1  0
 12 13  1  0
 12 19  1  0
 12 20  1  0
 13 21  1  0
 13 22  1  0
 13 23  1  0
M  RAD  1  10   2
M  END
>  <reaction>  (16) 
rmg_rxn_15604

>  <mol_properties>  (16) 
{"0": {"label": "*3", "atom_type": "Cs"}, "1": {"label": "*4", "atom_type": "O2s"}, "9": {"label": "*1", "atom_type": "Cs"}, "10": {"label": "*0", "atom_type": "S2s"}, "16": {"label": "*2", "atom_type": "H0"}}

>  <type>  (16) 
unop_12

>  <geom_source>  (16) 
Heuristics

$$$$

     RDKit          3D

 23 21  0  0  0  0  0  0  0  0999 V2000
   -1.4866    1.4632   -0.8220 C   0  0  0  0  0  0  0  0  0  0  0  0
   -2.3697    0.6278   -0.1401 O   0  0  0  0  0  0  0  0  0  0  0  0
   -2.0330   -0.7028   -0.2731 N   0  0  0  0  0  0  0  0  0  0  0  0
   -2.7865   -1.5304    0.3126 C   0  0  0  0  0  0  0  0  0  0  0  0
   -1.2765    1.1277   -1.8361 H   0  0  0  0  0  0  0  0  0  0  0  0
   -1.8977    2.4653   -0.7791 H   0  0  0  0  0  0  0  0  0  0  0  0
   -2.5284   -2.5696    0.2115 H   0  0  0  0  0  0  0  0  0  0  0  0
   -3.6601   -1.2553    0.8950 H   0  0  0  0  0  0  0  0  0  0  0  0
    0.4565    0.7814    1.8380 C   0  0  0  0  0  0  0  0  0  0  0  0
    0.8066    1.3892    0.5047 C   0  0  0  0  0  3  0  0  0  0  0  0
    1.9994    0.5509   -0.4977 S   0  0  0  0  0  0  0  0  0  0  0  0
    1.2782   -1.1250   -0.6781 C   0  0  0  0  0  0  0  0  0  0  0  0
    1.8920   -2.1269    0.2822 C   0  0  0  0  0  0  0  0  0  0  0  0
   -0.2756    1.4112    2.3408 H   0  0  0  0  0  0  0  0  0  0  0  0
    0.0258   -0.2107    1.7188 H   0  0  0  0  0  0  0  0  0  0  0  0
    1.3378    0.7030    2.4774 H   0  0  0  0  0  0  0  0  0  0  0  0
   -0.3320    1.4636   -0.1954 H   0  0  0  0  0  0  0  0  0  0  0  0
    1.1459    2.4197    0.5859 H   0  0  0  0  0  0  0  0  0  0  0  0
    0.1997   -1.0367   -0.5451 H   0  0  0  0  0  0  0  0  0  0  0  0
    1.4894   -1.4103   -1.7086 H   0  0  0  0  0  0  0  0  0  0  0  0
    1.4589   -3.1110    0.1122 H   0  0  0  0  0  0  0  0  0  0  0  0
    1.7105   -1.8429    1.3157 H   0  0  0  0  0  0  0  0  0  0  0  0
    2.9671   -2.1893    0.1288 H   0  0  0  0  0  0  0  0  0  0  0  0
  1  2  1  0
  1  5  1  0
  1  6  1  0
  1 17  1  0
  2  3  1  0
  3  4  2  3
  4  7  1  0
  4  8  1  0
  9 10  1  0
  9 14  1  0
  9 15  1  0
  9 16  1  0
 10 11  1  0
 10 18  1  0
 11 12  1  0
 12 13  1  0
 12 19  1  0
 12 20  1  0
 13 21  1  0
 13 22  1  0
 13 23  1  0
M  RAD  1  10   2
M  END
>  <reaction>  (17) 
rmg_rxn_15604

>  <mol_properties>  (17) 
{"0": {"label": "*3", "atom_type": "Cs"}, "1": {"label": "*4", "atom_type": "O2s"}, "9": {"label": "*1", "atom_type": "Cs"}, "10": {"label": "*0", "atom_type": "S2s"}, "16": {"label": "*2", "atom_type": "H0"}}

>  <type>  (17) 
unop_13

>  <geom_source>  (17) 
Heuristics

$$$$

     RDKit          3D

 23 21  0  0  0  0  0  0  0  0999 V2000
   -1.2584   -1.7730    0.2071 C   0  0  0  0  0  0  0  0  0  0  0  0
   -2.1960   -0.7230    0.3411 O   0  0  0  0  0  0  0  0  0  0  0  0
   -2.9417   -0.9104    1.4802 N   0  0  0  0  0  0  0  0  0  0  0  0
   -3.7964    0.0058    1.6436 C   0  0  0  0  0  0  0  0  0  0  0  0
   -0.5716   -1.7942    1.0562 H   0  0  0  0  0  0  0  0  0  0  0  0
   -1.7625   -2.7383    0.1213 H   0  0  0  0  0  0  0  0  0  0  0  0
   -4.4256   -0.0688    2.5204 H   0  0  0  0  0  0  0  0  0  0  0  0
   -3.9074    0.8347    0.9478 H   0  0  0  0  0  0  0  0  0  0  0  0
    0.9258   -0.6611   -2.2266 C   0  0  0  0  0  0  0  0  0  0  0  0
    0.9258   -0.6611   -0.7069 C   0  0  0  0  0  3  0  0  0  0  0  0
    0.9258    0.9800    0.0580 S   0  0  0  0  0  0  0  0  0  0  0  0
    2.4664    1.6939   -0.5706 C   0  0  0  0  0  0  0  0  0  0  0  0
    3.7274    0.9351   -0.1914 C   0  0  0  0  0  0  0  0  0  0  0  0
    1.8489   -0.2375   -2.6260 H   0  0  0  0  0  0  0  0  0  0  0  0
    0.8433   -1.6823   -2.6053 H   0  0  0  0  0  0  0  0  0  0  0  0
    0.0901   -0.0786   -2.6160 H   0  0  0  0  0  0  0  0  0  0  0  0
   -0.1676   -1.2177   -0.2493 H   0  0  0  0  0  0  0  0  0  0  0  0
    1.7620   -1.2437   -0.3168 H   0  0  0  0  0  0  0  0  0  0  0  0
    2.3953    1.8161   -1.6526 H   0  0  0  0  0  0  0  0  0  0  0  0
    2.4815    2.6971   -0.1413 H   0  0  0  0  0  0  0  0  0  0  0  0
    3.7486   -0.0568   -0.6460 H   0  0  0  0  0  0  0  0  0  0  0  0
    3.7980    0.8130    0.8900 H   0  0  0  0  0  0  0  0  0  0  0  0
    4.6121    1.4735   -0.5383 H   0  0  0  0  0  0  0  0  0  0  0  0
  1  2  1  0
  1  5  1  0
  1  6  1  0
  1 17  1  0
  2  3  1  0
  3  4  2  3
  4  7  1  0
  4  8  1  0
  9 10  1  0
  9 14  1  0
  9 15  1  0
  9 16  1  0
 10 11  1  0
 10 18  1  0
 11 12  1  0
 12 13  1  0
 12 19  1  0
 12 20  1  0
 13 21  1  0
 13 22  1  0
 13 23  1  0
M  RAD  1  10   2
M  END
>  <reaction>  (18) 
rmg_rxn_15604

>  <mol_properties>  (18) 
{"0": {"label": "*3", "atom_type": "Cs"}, "1": {"label": "*4", "atom_type": "O2s"}, "9": {"label": "*1", "atom_type": "Cs"}, "10": {"label": "*0", "atom_type": "S2s"}, "16": {"label": "*2", "atom_type": "H0"}}

>  <type>  (18) 
unop_14

>  <geom_source>  (18) 
Heuristics

$$$$

     RDKit          3D

 23 21  0  0  0  0  0  0  0  0999 V2000
   -1.4863    1.4630   -0.8249 C   0  0  0  0  0  0  0  0  0  0  0  0
   -2.3687    0.6273   -0.1426 O   0  0  0  0  0  0  0  0  0  0  0  0
   -2.0306   -0.7031   -0.2745 N   0  0  0  0  0  0  0  0  0  0  0  0
   -2.7812   -1.5308    0.3146 C   0  0  0  0  0  0  0  0  0  0  0  0
   -1.2757    1.1271   -1.8388 H   0  0  0  0  0  0  0  0  0  0  0  0
   -1.8981    2.4648   -0.7826 H   0  0  0  0  0  0  0  0  0  0  0  0
   -2.5220   -2.5698    0.2140 H   0  0  0  0  0  0  0  0  0  0  0  0
   -3.6536   -1.2562    0.8989 H   0  0  0  0  0  0  0  0  0  0  0  0
    0.4489    0.7779    1.8373 C   0  0  0  0  0  0  0  0  0  0  0  0
    0.8040    1.3886    0.5067 C   0  0  0  0  0  3  0  0  0  0  0  0
    2.0009    0.5527   -0.4928 S   0  0  0  0  0  0  0  0  0  0  0  0
    1.2796   -1.1224   -0.6812 C   0  0  0  0  0  0  0  0  0  0  0  0
    1.8888   -2.1276    0.2787 C   0  0  0  0  0  0  0  0  0  0  0  0
    1.3274    0.7003    2.4807 H   0  0  0  0  0  0  0  0  0  0  0  0
   -0.2868    1.4055    2.3378 H   0  0  0  0  0  0  0  0  0  0  0  0
    0.0208   -0.2149    1.7146 H   0  0  0  0  0  0  0  0  0  0  0  0
   -0.3320    1.4635   -0.1974 H   0  0  0  0  0  0  0  0  0  0  0  0
    1.1427    2.4191    0.5912 H   0  0  0  0  0  0  0  0  0  0  0  0
    0.2007   -1.0340   -0.5522 H   0  0  0  0  0  0  0  0  0  0  0  0
    1.4951   -1.4045   -1.7116 H   0  0  0  0  0  0  0  0  0  0  0  0
    1.4541   -3.1104    0.1052 H   0  0  0  0  0  0  0  0  0  0  0  0
    1.7049   -1.8455    1.3123 H   0  0  0  0  0  0  0  0  0  0  0  0
    2.9642   -2.1919    0.1282 H   0  0  0  0  0  0  0  0  0  0  0  0
  1  2  1  0
  1  5  1  0
  1  6  1  0
  1 17  1  0
  2  3  1  0
  3  4  2  3
  4  7  1  0
  4  8  1  0
  9 10  1  0
  9 14  1  0
  9 15  1  0
  9 16  1  0
 10 11  1  0
 10 18  1  0
 11 12  1  0
 12 13  1  0
 12 19  1  0
 12 20  1  0
 13 21  1  0
 13 22  1  0
 13 23  1  0
M  RAD  1  10   2
M  END
>  <reaction>  (19) 
rmg_rxn_15604

>  <mol_properties>  (19) 
{"0": {"label": "*3", "atom_type": "Cs"}, "1": {"label": "*4", "atom_type": "O2s"}, "9": {"label": "*1", "atom_type": "Cs"}, "10": {"label": "*0", "atom_type": "S2s"}, "16": {"label": "*2", "atom_type": "H0"}}

>  <type>  (19) 
unop_15

>  <geom_source>  (19) 
Heuristics

$$$$

     RDKit          3D

 23 21  0  0  0  0  0  0  0  0999 V2000
   -1.4042   -1.6756   -0.0291 C   0  0  0  0  0  0  0  0  0  0  0  0
   -2.0472   -0.6802    0.7425 O   0  0  0  0  0  0  0  0  0  0  0  0
   -2.6226   -1.2534    1.8512 N   0  0  0  0  0  0  0  0  0  0  0  0
   -3.2112   -0.4006    2.5743 C   0  0  0  0  0  0  0  0  0  0  0  0
   -0.6123   -2.1632    0.5438 H   0  0  0  0  0  0  0  0  0  0  0  0
   -2.1198   -2.4254   -0.3741 H   0  0  0  0  0  0  0  0  0  0  0  0
   -3.6915   -0.7728    3.4694 H   0  0  0  0  0  0  0  0  0  0  0  0
   -3.2432    0.6577    2.3245 H   0  0  0  0  0  0  0  0  0  0  0  0
    0.7800   -0.5637   -2.4629 C   0  0  0  0  0  0  0  0  0  0  0  0
    0.7800   -0.5637   -0.9431 C   0  0  0  0  0  3  0  0  0  0  0  0
    0.7800    1.0774   -0.1783 S   0  0  0  0  0  0  0  0  0  0  0  0
    2.3206    1.7913   -0.8068 C   0  0  0  0  0  0  0  0  0  0  0  0
    3.5815    1.0325   -0.4276 C   0  0  0  0  0  0  0  0  0  0  0  0
    1.7031   -0.1401   -2.8623 H   0  0  0  0  0  0  0  0  0  0  0  0
    0.6975   -1.5849   -2.8415 H   0  0  0  0  0  0  0  0  0  0  0  0
   -0.0557    0.0188   -2.8523 H   0  0  0  0  0  0  0  0  0  0  0  0
   -0.3134   -1.1203   -0.4856 H   0  0  0  0  0  0  0  0  0  0  0  0
    1.6162   -1.1463   -0.5531 H   0  0  0  0  0  0  0  0  0  0  0  0
    2.2495    1.9135   -1.8889 H   0  0  0  0  0  0  0  0  0  0  0  0
    2.3357    2.7945   -0.3776 H   0  0  0  0  0  0  0  0  0  0  0  0
    3.6028    0.0406   -0.8823 H   0  0  0  0  0  0  0  0  0  0  0  0
    3.6522    0.9104    0.6538 H   0  0  0  0  0  0  0  0  0  0  0  0
    4.4663    1.5709   -0.7746 H   0  0  0  0  0  0  0  0  0  0  0  0
  1  2  1  0
  1  5  1  0
  1  6  1  0
  1 17  1  0
  2  3  1  0
  3  4  2  3
  4  7  1  0
  4  8  1  0
  9 10  1  0
  9 14  1  0
  9 15  1  0
  9 16  1  0
 10 11  1  0
 10 18  1  0
 11 12  1  0
 12 13  1  0
 12 19  1  0
 12 20  1  0
 13 21  1  0
 13 22  1  0
 13 23  1  0
M  RAD  1  10   2
M  END
>  <reaction>  (20) 
rmg_rxn_15604

>  <mol_properties>  (20) 
{"0": {"label": "*3", "atom_type": "Cs"}, "1": {"label": "*4", "atom_type": "O2s"}, "9": {"label": "*1", "atom_type": "Cs"}, "10": {"label": "*0", "atom_type": "S2s"}, "16": {"label": "*2", "atom_type": "H0"}}

>  <type>  (20) 
unop_16

>  <geom_source>  (20) 
Heuristics

$$$$

     RDKit          3D

 23 21  0  0  0  0  0  0  0  0999 V2000
   -1.4881   -1.4633    0.8228 C   0  0  0  0  0  0  0  0  0  0  0  0
   -2.3713   -0.6258    0.1434 O   0  0  0  0  0  0  0  0  0  0  0  0
   -2.0288    0.7037    0.2722 N   0  0  0  0  0  0  0  0  0  0  0  0
   -2.7813    1.5331   -0.3121 C   0  0  0  0  0  0  0  0  0  0  0  0
   -1.2764   -1.1300    1.8373 H   0  0  0  0  0  0  0  0  0  0  0  0
   -1.9005   -2.4648    0.7785 H   0  0  0  0  0  0  0  0  0  0  0  0
   -2.5186    2.5714   -0.2140 H   0  0  0  0  0  0  0  0  0  0  0  0
   -3.6587    1.2605   -0.8899 H   0  0  0  0  0  0  0  0  0  0  0  0
    0.4492   -0.7736   -1.8385 C   0  0  0  0  0  0  0  0  0  0  0  0
    0.8022   -1.3876   -0.5088 C   0  0  0  0  0  3  0  0  0  0  0  0
    1.9992   -0.5554    0.4937 S   0  0  0  0  0  0  0  0  0  0  0  0
    1.2816    1.1213    0.6817 C   0  0  0  0  0  0  0  0  0  0  0  0
    1.8949    2.1251   -0.2769 C   0  0  0  0  0  0  0  0  0  0  0  0
    1.3287   -0.6943   -2.4802 H   0  0  0  0  0  0  0  0  0  0  0  0
   -0.2856   -1.3999   -2.3417 H   0  0  0  0  0  0  0  0  0  0  0  0
    0.0208    0.2188   -1.7139 H   0  0  0  0  0  0  0  0  0  0  0  0
   -0.3346   -1.4632    0.1942 H   0  0  0  0  0  0  0  0  0  0  0  0
    1.1396   -2.4183   -0.5952 H   0  0  0  0  0  0  0  0  0  0  0  0
    0.2026    1.0354    0.5511 H   0  0  0  0  0  0  0  0  0  0  0  0
    1.4961    1.4024    1.7126 H   0  0  0  0  0  0  0  0  0  0  0  0
    1.7104    1.8449   -1.3108 H   0  0  0  0  0  0  0  0  0  0  0  0
    2.9704    2.1851   -0.1259 H   0  0  0  0  0  0  0  0  0  0  0  0
    1.4639    3.1094   -0.1025 H   0  0  0  0  0  0  0  0  0  0  0  0
  1  2  1  0
  1  5  1  0
  1  6  1  0
  1 17  1  0
  2  3  1  0
  3  4  2  3
  4  7  1  0
  4  8  1  0
  9 10  1  0
  9 14  1  0
  9 15  1  0
  9 16  1  0
 10 11  1  0
 10 18  1  0
 11 12  1  0
 12 13  1  0
 12 19  1  0
 12 20  1  0
 13 21  1  0
 13 22  1  0
 13 23  1  0
M  RAD  1  10   2
M  END
>  <reaction>  (21) 
rmg_rxn_15604

>  <mol_properties>  (21) 
{"0": {"label": "*3", "atom_type": "Cs"}, "1": {"label": "*4", "atom_type": "O2s"}, "9": {"label": "*1", "atom_type": "Cs"}, "10": {"label": "*0", "atom_type": "S2s"}, "16": {"label": "*2", "atom_type": "H0"}}

>  <type>  (21) 
unop_17

>  <geom_source>  (21) 
Heuristics

$$$$

     RDKit          3D

 23 21  0  0  0  0  0  0  0  0999 V2000
   -1.7586   -0.7905    0.2071 C   0  0  0  0  0  0  0  0  0  0  0  0
   -1.4612   -2.1664    0.3411 O   0  0  0  0  0  0  0  0  0  0  0  0
   -2.0516   -2.6591    1.4802 N   0  0  0  0  0  0  0  0  0  0  0  0
   -1.8136   -3.8893    1.6436 C   0  0  0  0  0  0  0  0  0  0  0  0
   -2.8357   -0.6301    0.1213 H   0  0  0  0  0  0  0  0  0  0  0  0
   -1.3716   -0.2227    1.0562 H   0  0  0  0  0  0  0  0  0  0  0  0
   -2.2442   -4.3541    2.5204 H   0  0  0  0  0  0  0  0  0  0  0  0
   -1.2085   -4.4667    0.9479 H   0  0  0  0  0  0  0  0  0  0  0  0
    0.4257    0.3214   -2.2266 C   0  0  0  0  0  0  0  0  0  0  0  0
    0.4257    0.3214   -0.7069 C   0  0  0  0  0  3  0  0  0  0  0  0
    0.4257    1.9625    0.0580 S   0  0  0  0  0  0  0  0  0  0  0  0
    1.9663    2.6765   -0.5706 C   0  0  0  0  0  0  0  0  0  0  0  0
    3.2272    1.9176   -0.1914 C   0  0  0  0  0  0  0  0  0  0  0  0
    1.3487    0.7450   -2.6260 H   0  0  0  0  0  0  0  0  0  0  0  0
    0.3431   -0.6997   -2.6053 H   0  0  0  0  0  0  0  0  0  0  0  0
   -0.4100    0.9039   -2.6160 H   0  0  0  0  0  0  0  0  0  0  0  0
   -0.6678   -0.2352   -0.2493 H   0  0  0  0  0  0  0  0  0  0  0  0
    1.2619   -0.2612   -0.3168 H   0  0  0  0  0  0  0  0  0  0  0  0
    1.8951    2.7987   -1.6526 H   0  0  0  0  0  0  0  0  0  0  0  0
    1.9813    3.6796   -0.1413 H   0  0  0  0  0  0  0  0  0  0  0  0
    3.2484    0.9258   -0.6460 H   0  0  0  0  0  0  0  0  0  0  0  0
    3.2979    1.7956    0.8900 H   0  0  0  0  0  0  0  0  0  0  0  0
    4.1119    2.4560   -0.5383 H   0  0  0  0  0  0  0  0  0  0  0  0
  1  2  1  0
  1  5  1  0
  1  6  1  0
  1 17  1  0
  2  3  1  0
  3  4  2  3
  4  7  1  0
  4  8  1  0
  9 10  1  0
  9 14  1  0
  9 15  1  0
  9 16  1  0
 10 11  1  0
 10 18  1  0
 11 12  1  0
 12 13  1  0
 12 19  1  0
 12 20  1  0
 13 21  1  0
 13 22  1  0
 13 23  1  0
M  RAD  1  10   2
M  END
>  <reaction>  (22) 
rmg_rxn_15604

>  <mol_properties>  (22) 
{"0": {"label": "*3", "atom_type": "Cs"}, "1": {"label": "*4", "atom_type": "O2s"}, "9": {"label": "*1", "atom_type": "Cs"}, "10": {"label": "*0", "atom_type": "S2s"}, "16": {"label": "*2", "atom_type": "H0"}}

>  <type>  (22) 
unop_18

>  <geom_source>  (22) 
Heuristics

$$$$

     RDKit          3D

 23 21  0  0  0  0  0  0  0  0999 V2000
   -1.4876    1.4624   -0.8245 C   0  0  0  0  0  0  0  0  0  0  0  0
   -2.3705    0.6261   -0.1436 O   0  0  0  0  0  0  0  0  0  0  0  0
   -2.0302   -0.7039   -0.2735 N   0  0  0  0  0  0  0  0  0  0  0  0
   -2.7817   -1.5323    0.3135 C   0  0  0  0  0  0  0  0  0  0  0  0
   -1.2761    1.1274   -1.8385 H   0  0  0  0  0  0  0  0  0  0  0  0
   -1.8997    2.4641   -0.7817 H   0  0  0  0  0  0  0  0  0  0  0  0
   -2.5210   -2.5711    0.2143 H   0  0  0  0  0  0  0  0  0  0  0  0
   -3.6565   -1.2585    0.8945 H   0  0  0  0  0  0  0  0  0  0  0  0
    0.4472    0.7744    1.8379 C   0  0  0  0  0  0  0  0  0  0  0  0
    0.8020    1.3879    0.5084 C   0  0  0  0  0  3  0  0  0  0  0  0
    2.0002    0.5552   -0.4922 S   0  0  0  0  0  0  0  0  0  0  0  0
    1.2822   -1.1211   -0.6818 C   0  0  0  0  0  0  0  0  0  0  0  0
    1.8944   -2.1259    0.2766 C   0  0  0  0  0  0  0  0  0  0  0  0
    0.0218   -0.2193    1.7134 H   0  0  0  0  0  0  0  0  0  0  0  0
    1.3252    0.6982    2.4820 H   0  0  0  0  0  0  0  0  0  0  0  0
   -0.2906    1.3994    2.3384 H   0  0  0  0  0  0  0  0  0  0  0  0
   -0.3339    1.4631   -0.1959 H   0  0  0  0  0  0  0  0  0  0  0  0
    1.1394    2.4186    0.5948 H   0  0  0  0  0  0  0  0  0  0  0  0
    0.2031   -1.0350   -0.5517 H   0  0  0  0  0  0  0  0  0  0  0  0
    1.4972   -1.4018   -1.7127 H   0  0  0  0  0  0  0  0  0  0  0  0
    1.7115   -1.8448    1.3106 H   0  0  0  0  0  0  0  0  0  0  0  0
    2.9698   -2.1879    0.1246 H   0  0  0  0  0  0  0  0  0  0  0  0
    1.4615   -3.1094    0.1030 H   0  0  0  0  0  0  0  0  0  0  0  0
  1  2  1  0
  1  5  1  0
  1  6  1  0
  1 17  1  0
  2  3  1  0
  3  4  2  3
  4  7  1  0
  4  8  1  0
  9 10  1  0
  9 14  1  0
  9 15  1  0
  9 16  1  0
 10 11  1  0
 10 18  1  0
 11 12  1  0
 12 13  1  0
 12 19  1  0
 12 20  1  0
 13 21  1  0
 13 22  1  0
 13 23  1  0
M  RAD  1  10   2
M  END
>  <reaction>  (23) 
rmg_rxn_15604

>  <mol_properties>  (23) 
{"0": {"label": "*3", "atom_type": "Cs"}, "1": {"label": "*4", "atom_type": "O2s"}, "9": {"label": "*1", "atom_type": "Cs"}, "10": {"label": "*0", "atom_type": "S2s"}, "16": {"label": "*2", "atom_type": "H0"}}

>  <type>  (23) 
unop_19

>  <geom_source>  (23) 
Heuristics

$$$$

     RDKit          3D

 23 21  0  0  0  0  0  0  0  0999 V2000
   -1.1371   -1.4749    0.7424 C   0  0  0  0  0  0  0  0  0  0  0  0
   -2.1330   -1.2182   -0.2281 O   0  0  0  0  0  0  0  0  0  0  0  0
   -3.3777   -1.3888    0.3292 N   0  0  0  0  0  0  0  0  0  0  0  0
   -4.3036   -1.1698   -0.5023 C   0  0  0  0  0  0  0  0  0  0  0  0
   -1.2240   -0.7836    1.5837 H   0  0  0  0  0  0  0  0  0  0  0  0
   -1.2020   -2.5027    1.1065 H   0  0  0  0  0  0  0  0  0  0  0  0
   -5.3168   -1.2831   -0.1407 H   0  0  0  0  0  0  0  0  0  0  0  0
   -4.1095   -0.8812   -1.5331 H   0  0  0  0  0  0  0  0  0  0  0  0
    1.0471   -0.3630   -1.6913 C   0  0  0  0  0  0  0  0  0  0  0  0
    1.0471   -0.3630   -0.1716 C   0  0  0  0  0  3  0  0  0  0  0  0
    1.0471    1.2781    0.5933 S   0  0  0  0  0  0  0  0  0  0  0  0
    2.5877    1.9921   -0.0353 C   0  0  0  0  0  0  0  0  0  0  0  0
    3.8486    1.2332    0.3440 C   0  0  0  0  0  0  0  0  0  0  0  0
    1.9702    0.0606   -2.0907 H   0  0  0  0  0  0  0  0  0  0  0  0
    0.9646   -1.3841   -2.0700 H   0  0  0  0  0  0  0  0  0  0  0  0
    0.2114    0.2195   -2.0807 H   0  0  0  0  0  0  0  0  0  0  0  0
   -0.0463   -0.9196    0.2860 H   0  0  0  0  0  0  0  0  0  0  0  0
    1.8833   -0.9456    0.2185 H   0  0  0  0  0  0  0  0  0  0  0  0
    2.5166    2.1143   -1.1173 H   0  0  0  0  0  0  0  0  0  0  0  0
    2.6028    2.9952    0.3940 H   0  0  0  0  0  0  0  0  0  0  0  0
    3.8699    0.2414   -0.1107 H   0  0  0  0  0  0  0  0  0  0  0  0
    3.9193    1.1112    1.4254 H   0  0  0  0  0  0  0  0  0  0  0  0
    4.7334    1.7716   -0.0030 H   0  0  0  0  0  0  0  0  0  0  0  0
  1  2  1  0
  1  5  1  0
  1  6  1  0
  1 17  1  0
  2  3  1  0
  3  4  2  3
  4  7  1  0
  4  8  1  0
  9 10  1  0
  9 14  1  0
  9 15  1  0
  9 16  1  0
 10 11  1  0
 10 18  1  0
 11 12  1  0
 12 13  1  0
 12 19  1  0
 12 20  1  0
 13 21  1  0
 13 22  1  0
 13 23  1  0
M  RAD  1  10   2
M  END
>  <reaction>  (24) 
rmg_rxn_15604

>  <mol_properties>  (24) 
{"0": {"label": "*3", "atom_type": "Cs"}, "1": {"label": "*4", "atom_type": "O2s"}, "9": {"label": "*1", "atom_type": "Cs"}, "10": {"label": "*0", "atom_type": "S2s"}, "16": {"label": "*2", "atom_type": "H0"}}

>  <type>  (24) 
unop_20

>  <geom_source>  (24) 
Heuristics

$$$$

     RDKit          3D

 23 21  0  0  0  0  0  0  0  0999 V2000
   -1.6420   -0.7423    0.4973 C   0  0  0  0  0  0  0  0  0  0  0  0
   -1.6392   -2.0636   -0.0065 O   0  0  0  0  0  0  0  0  0  0  0  0
   -2.2530   -2.9031    0.8921 N   0  0  0  0  0  0  0  0  0  0  0  0
   -2.2752   -4.0991    0.4849 C   0  0  0  0  0  0  0  0  0  0  0  0
   -2.6627   -0.3832    0.6464 H   0  0  0  0  0  0  0  0  0  0  0  0
   -1.0926   -0.6823    1.4395 H   0  0  0  0  0  0  0  0  0  0  0  0
   -2.7428   -4.8247    1.1369 H   0  0  0  0  0  0  0  0  0  0  0  0
   -1.8503   -4.4011   -0.4700 H   0  0  0  0  0  0  0  0  0  0  0  0
    0.5423    0.3696   -1.9365 C   0  0  0  0  0  0  0  0  0  0  0  0
    0.5423    0.3696   -0.4167 C   0  0  0  0  0  3  0  0  0  0  0  0
    0.5423    2.0107    0.3481 S   0  0  0  0  0  0  0  0  0  0  0  0
    2.0829    2.7246   -0.2804 C   0  0  0  0  0  0  0  0  0  0  0  0
    3.3438    1.9658    0.0988 C   0  0  0  0  0  0  0  0  0  0  0  0
    1.4653    0.7932   -2.3359 H   0  0  0  0  0  0  0  0  0  0  0  0
    0.4598   -0.6516   -2.3151 H   0  0  0  0  0  0  0  0  0  0  0  0
   -0.2934    0.9521   -2.3259 H   0  0  0  0  0  0  0  0  0  0  0  0
   -0.5511   -0.1870    0.0408 H   0  0  0  0  0  0  0  0  0  0  0  0
    1.3785   -0.2130   -0.0267 H   0  0  0  0  0  0  0  0  0  0  0  0
    2.0117    2.8468   -1.3625 H   0  0  0  0  0  0  0  0  0  0  0  0
    2.0980    3.7278    0.1488 H   0  0  0  0  0  0  0  0  0  0  0  0
    3.3650    0.9739   -0.3559 H   0  0  0  0  0  0  0  0  0  0  0  0
    3.4145    1.8437    1.1802 H   0  0  0  0  0  0  0  0  0  0  0  0
    4.2286    2.5042   -0.2482 H   0  0  0  0  0  0  0  0  0  0  0  0
  1  2  1  0
  1  5  1  0
  1  6  1  0
  1 17  1  0
  2  3  1  0
  3  4  2  3
  4  7  1  0
  4  8  1  0
  9 10  1  0
  9 14  1  0
  9 15  1  0
  9 16  1  0
 10 11  1  0
 10 18  1  0
 11 12  1  0
 12 13  1  0
 12 19  1  0
 12 20  1  0
 13 21  1  0
 13 22  1  0
 13 23  1  0
M  RAD  1  10   2
M  END
>  <reaction>  (25) 
rmg_rxn_15604

>  <mol_properties>  (25) 
{"0": {"label": "*3", "atom_type": "Cs"}, "1": {"label": "*4", "atom_type": "O2s"}, "9": {"label": "*1", "atom_type": "Cs"}, "10": {"label": "*0", "atom_type": "S2s"}, "16": {"label": "*2", "atom_type": "H0"}}

>  <type>  (25) 
unop_21

>  <geom_source>  (25) 
Heuristics

$$$$

     RDKit          3D

 23 21  0  0  0  0  0  0  0  0999 V2000
   -1.5200   -1.4826   -0.1466 C   0  0  0  0  0  0  0  0  0  0  0  0
   -1.7818   -0.8522    1.0918 O   0  0  0  0  0  0  0  0  0  0  0  0
   -2.5035   -1.6987    1.8989 N   0  0  0  0  0  0  0  0  0  0  0  0
   -2.7627   -1.1779    3.0207 C   0  0  0  0  0  0  0  0  0  0  0  0
   -0.9316   -2.3920   -0.0054 H   0  0  0  0  0  0  0  0  0  0  0  0
   -2.4499   -1.7264   -0.6652 H   0  0  0  0  0  0  0  0  0  0  0  0
   -3.3298   -1.7821    3.7162 H   0  0  0  0  0  0  0  0  0  0  0  0
   -2.4399   -0.1745    3.2898 H   0  0  0  0  0  0  0  0  0  0  0  0
    0.6643   -0.3707   -2.5803 C   0  0  0  0  0  0  0  0  0  0  0  0
    0.6643   -0.3707   -1.0606 C   0  0  0  0  0  3  0  0  0  0  0  0
    0.6643    1.2704   -0.2957 S   0  0  0  0  0  0  0  0  0  0  0  0
    2.2049    1.9843   -0.9243 C   0  0  0  0  0  0  0  0  0  0  0  0
    3.4658    1.2255   -0.5451 C   0  0  0  0  0  0  0  0  0  0  0  0
    1.5873    0.0529   -2.9798 H   0  0  0  0  0  0  0  0  0  0  0  0
    0.5817   -1.3919   -2.9590 H   0  0  0  0  0  0  0  0  0  0  0  0
   -0.1714    0.2118   -2.9697 H   0  0  0  0  0  0  0  0  0  0  0  0
   -0.4292   -0.9273   -0.6031 H   0  0  0  0  0  0  0  0  0  0  0  0
    1.5005   -0.9533   -0.6706 H   0  0  0  0  0  0  0  0  0  0  0  0
    2.1337    2.1065   -2.0064 H   0  0  0  0  0  0  0  0  0  0  0  0
    2.2199    2.9875   -0.4950 H   0  0  0  0  0  0  0  0  0  0  0  0
    3.4870    0.2336   -0.9998 H   0  0  0  0  0  0  0  0  0  0  0  0
    3.5365    1.1034    0.5363 H   0  0  0  0  0  0  0  0  0  0  0  0
    4.3505    1.7639   -0.8920 H   0  0  0  0  0  0  0  0  0  0  0  0
  1  2  1  0
  1  5  1  0
  1  6  1  0
  1 17  1  0
  2  3  1  0
  3  4  2  3
  4  7  1  0
  4  8  1  0
  9 10  1  0
  9 14  1  0
  9 15  1  0
  9 16  1  0
 10 11  1  0
 10 18  1  0
 11 12  1  0
 12 13  1  0
 12 19  1  0
 12 20  1  0
 13 21  1  0
 13 22  1  0
 13 23  1  0
M  RAD  1  10   2
M  END
>  <reaction>  (26) 
rmg_rxn_15604

>  <mol_properties>  (26) 
{"0": {"label": "*3", "atom_type": "Cs"}, "1": {"label": "*4", "atom_type": "O2s"}, "9": {"label": "*1", "atom_type": "Cs"}, "10": {"label": "*0", "atom_type": "S2s"}, "16": {"label": "*2", "atom_type": "H0"}}

>  <type>  (26) 
unop_22

>  <geom_source>  (26) 
Heuristics

$$$$

     RDKit          3D

 23 21  0  0  0  0  0  0  0  0999 V2000
   -1.2468   -1.1485    0.8406 C   0  0  0  0  0  0  0  0  0  0  0  0
   -1.9908   -1.5272   -0.3008 O   0  0  0  0  0  0  0  0  0  0  0  0
   -3.1652   -2.1251    0.0893 N   0  0  0  0  0  0  0  0  0  0  0  0
   -3.8666   -2.4822   -0.8992 C   0  0  0  0  0  0  0  0  0  0  0  0
   -1.8018   -0.4300    1.4479 H   0  0  0  0  0  0  0  0  0  0  0  0
   -0.9923   -2.0201    1.4479 H   0  0  0  0  0  0  0  0  0  0  0  0
   -4.8100   -2.9624   -0.6761 H   0  0  0  0  0  0  0  0  0  0  0  0
   -3.5531   -2.3226   -1.9287 H   0  0  0  0  0  0  0  0  0  0  0  0
    0.9374   -0.0366   -1.5931 C   0  0  0  0  0  0  0  0  0  0  0  0
    0.9374   -0.0366   -0.0734 C   0  0  0  0  0  3  0  0  0  0  0  0
    0.9374    1.6045    0.6915 S   0  0  0  0  0  0  0  0  0  0  0  0
    2.4780    2.3184    0.0629 C   0  0  0  0  0  0  0  0  0  0  0  0
    3.7389    1.5595    0.4421 C   0  0  0  0  0  0  0  0  0  0  0  0
    1.8605    0.3870   -1.9925 H   0  0  0  0  0  0  0  0  0  0  0  0
    0.8549   -1.0578   -1.9718 H   0  0  0  0  0  0  0  0  0  0  0  0
    0.1017    0.5459   -1.9825 H   0  0  0  0  0  0  0  0  0  0  0  0
   -0.1560   -0.5932    0.3842 H   0  0  0  0  0  0  0  0  0  0  0  0
    1.7736   -0.6193    0.3166 H   0  0  0  0  0  0  0  0  0  0  0  0
    2.4069    2.4406   -1.0191 H   0  0  0  0  0  0  0  0  0  0  0  0
    2.4931    3.3216    0.4922 H   0  0  0  0  0  0  0  0  0  0  0  0
    3.7602    0.5677   -0.0126 H   0  0  0  0  0  0  0  0  0  0  0  0
    3.8096    1.4375    1.5235 H   0  0  0  0  0  0  0  0  0  0  0  0
    4.6237    2.0979    0.0952 H   0  0  0  0  0  0  0  0  0  0  0  0
  1  2  1  0
  1  5  1  0
  1  6  1  0
  1 17  1  0
  2  3  1  0
  3  4  2  3
  4  7  1  0
  4  8  1  0
  9 10  1  0
  9 14  1  0
  9 15  1  0
  9 16  1  0
 10 11  1  0
 10 18  1  0
 11 12  1  0
 12 13  1  0
 12 19  1  0
 12 20  1  0
 13 21  1  0
 13 22  1  0
 13 23  1  0
M  RAD  1  10   2
M  END
>  <reaction>  (27) 
rmg_rxn_15604

>  <mol_properties>  (27) 
{"0": {"label": "*3", "atom_type": "Cs"}, "1": {"label": "*4", "atom_type": "O2s"}, "9": {"label": "*1", "atom_type": "Cs"}, "10": {"label": "*0", "atom_type": "S2s"}, "16": {"label": "*2", "atom_type": "H0"}}

>  <type>  (27) 
unop_23

>  <geom_source>  (27) 
Heuristics

$$$$

     RDKit          3D

 23 21  0  0  0  0  0  0  0  0999 V2000
   -1.7862   -1.5247    0.7900 C   0  0  0  0  0  0  0  0  0  0  0  0
   -2.6392   -0.5416    0.2554 O   0  0  0  0  0  0  0  0  0  0  0  0
   -1.9788    0.6549    0.0806 N   0  0  0  0  0  0  0  0  0  0  0  0
   -2.6571    1.6078   -0.3846 C   0  0  0  0  0  0  0  0  0  0  0  0
   -1.3295   -1.2540    1.7220 H   0  0  0  0  0  0  0  0  0  0  0  0
   -2.3493   -2.4468    0.8379 H   0  0  0  0  0  0  0  0  0  0  0  0
   -2.1438    2.5435   -0.5234 H   0  0  0  0  0  0  0  0  0  0  0  0
   -3.7080    1.5398   -0.6478 H   0  0  0  0  0  0  0  0  0  0  0  0
    0.6133   -0.5754   -1.9346 C   0  0  0  0  0  0  0  0  0  0  0  0
    1.0545   -1.3324   -0.7335 C   0  0  0  0  0  3  0  0  0  0  0  0
    1.9950   -0.6413    0.5328 S   0  0  0  0  0  0  0  0  0  0  0  0
    1.2622    1.0227    0.7837 C   0  0  0  0  0  0  0  0  0  0  0  0
    1.9731    2.0949   -0.0210 C   0  0  0  0  0  0  0  0  0  0  0  0
    1.4585   -0.3101   -2.5817 H   0  0  0  0  0  0  0  0  0  0  0  0
   -0.0690   -1.1919   -2.5179 H   0  0  0  0  0  0  0  0  0  0  0  0
    0.0962    0.3430   -1.6611 H   0  0  0  0  0  0  0  0  0  0  0  0
   -0.8275   -1.6277    0.2505 H   0  0  0  0  0  0  0  0  0  0  0  0
    1.2990   -2.3758   -0.8592 H   0  0  0  0  0  0  0  0  0  0  0  0
    0.2023    0.9566    0.5378 H   0  0  0  0  0  0  0  0  0  0  0  0
    1.3761    1.2112    1.8512 H   0  0  0  0  0  0  0  0  0  0  0  0
    1.5349    3.0676    0.1957 H   0  0  0  0  0  0  0  0  0  0  0  0
    1.8857    1.9061   -1.0878 H   0  0  0  0  0  0  0  0  0  0  0  0
    3.0297    2.1261    0.2363 H   0  0  0  0  0  0  0  0  0  0  0  0
  1  2  1  0
  1  5  1  0
  1  6  1  0
  1 17  1  0
  2  3  1  0
  3  4  2  3
  4  7  1  0
  4  8  1  0
  9 10  1  0
  9 14  1  0
  9 15  1  0
  9 16  1  0
 10 11  1  0
 10 18  1  0
 11 12  1  0
 12 13  1  0
 12 19  1  0
 12 20  1  0
 13 21  1  0
 13 22  1  0
 13 23  1  0
M  RAD  1  10   2
M  END
>  <reaction>  (28) 
rmg_rxn_15604

>  <mol_properties>  (28) 
{"0": {"label": "*3", "atom_type": "Cs"}, "1": {"label": "*4", "atom_type": "O2s"}, "9": {"label": "*1", "atom_type": "Cs"}, "10": {"label": "*0", "atom_type": "S2s"}, "16": {"label": "*2", "atom_type": "H0"}}

>  <type>  (28) 
unop_24

>  <geom_source>  (28) 
Heuristics

$$$$

     RDKit          3D

 23 21  0  0  0  0  0  0  0  0999 V2000
   -0.8752   -0.1427   -0.7130 S   0  0  0  0  0  0  0  0  0  0  0  0
    2.2333    1.1174   -0.1892 O   0  0  0  0  0  0  0  0  0  0  0  0
    3.4875    1.6804   -0.1256 N   0  0  0  0  0  0  0  0  0  0  0  0
   -2.2312    0.0667    0.4918 C   0  0  0  0  0  0  0  0  0  0  0  0
   -3.0947    1.2551    0.0970 C   0  0  0  0  0  0  0  0  0  0  0  0
   -0.7844   -2.8937   -0.3888 C   0  0  0  0  0  0  0  0  0  0  0  0
    2.0692   -0.2842   -0.0524 C   0  0  0  0  0  0  0  0  0  0  0  0
   -0.1352   -1.6057    0.0936 C   0  0  0  0  0  3  0  0  0  0  0  0
    3.6405    2.9572   -0.2498 C   0  0  0  0  0  0  0  0  0  0  0  0
   -1.8083    0.2450    1.5034 H   0  0  0  0  0  0  0  0  0  0  0  0
   -2.8615   -0.8466    0.5168 H   0  0  0  0  0  0  0  0  0  0  0  0
   -3.9167    1.3800    0.8330 H   0  0  0  0  0  0  0  0  0  0  0  0
   -3.5367    1.0892   -0.9084 H   0  0  0  0  0  0  0  0  0  0  0  0
   -2.4844    2.1830    0.0813 H   0  0  0  0  0  0  0  0  0  0  0  0
   -0.2538   -3.7603    0.0571 H   0  0  0  0  0  0  0  0  0  0  0  0
   -0.7127   -2.9627   -1.4944 H   0  0  0  0  0  0  0  0  0  0  0  0
   -1.8506   -2.9318   -0.0844 H   0  0  0  0  0  0  0  0  0  0  0  0
    2.4479   -0.6123    0.9383 H   0  0  0  0  0  0  0  0  0  0  0  0
    2.6270   -0.8085   -0.8565 H   0  0  0  0  0  0  0  0  0  0  0  0
    0.7874   -0.5848   -0.1474 H   0  0  0  0  0  0  0  0  0  0  0  0
   -0.1634   -1.5307    1.2014 H   0  0  0  0  0  0  0  0  0  0  0  0
    2.7850    3.6024   -0.4057 H   0  0  0  0  0  0  0  0  0  0  0  0
    4.6311    3.3877   -0.1980 H   0  0  0  0  0  0  0  0  0  0  0  0
  1  8  1  0
  1  4  1  0
  2  7  1  0
  2  3  1  0
  3  9  2  3
  4  5  1  0
  4 10  1  0
  4 11  1  0
  5 12  1  0
  5 13  1  0
  5 14  1  0
  6  8  1  0
  6 15  1  0
  6 16  1  0
  6 17  1  0
  7 18  1  0
  7 19  1  0
  7 20  1  0
  8 21  1  0
  9 22  1  0
  9 23  1  0
M  RAD  1   8   2
M  END
>  <reaction>  (29) 
rmg_rxn_15604

>  <mol_properties>  (29) 
{"0": {"label": "*3", "atom_type": "Cs"}, "1": {"label": "*4", "atom_type": "O2s"}, "9": {"label": "*1", "atom_type": "Cs"}, "10": {"label": "*0", "atom_type": "S2s"}, "16": {"label": "*2", "atom_type": "H0"}}

>  <type>  (29) 
unop_25

>  <geom_source>  (29) 
AutoTST

$$$$

     RDKit          3D

 23 21  0  0  0  0  0  0  0  0999 V2000
   -1.4462   -0.8678    0.7425 C   0  0  0  0  0  0  0  0  0  0  0  0
   -1.8246   -1.8241   -0.2281 O   0  0  0  0  0  0  0  0  0  0  0  0
   -2.6949   -2.7301    0.3292 N   0  0  0  0  0  0  0  0  0  0  0  0
   -3.0626   -3.6077   -0.5023 C   0  0  0  0  0  0  0  0  0  0  0  0
   -2.3154   -0.3155    1.1065 H   0  0  0  0  0  0  0  0  0  0  0  0
   -0.9383   -1.3448    1.5837 H   0  0  0  0  0  0  0  0  0  0  0  0
   -3.7504   -4.3602   -0.1407 H   0  0  0  0  0  0  0  0  0  0  0  0
   -2.7150   -3.6206   -1.5331 H   0  0  0  0  0  0  0  0  0  0  0  0
    0.7381    0.2441   -1.6913 C   0  0  0  0  0  0  0  0  0  0  0  0
    0.7381    0.2441   -0.1716 C   0  0  0  0  0  3  0  0  0  0  0  0
    0.7381    1.8852    0.5933 S   0  0  0  0  0  0  0  0  0  0  0  0
    2.2787    2.5991   -0.0352 C   0  0  0  0  0  0  0  0  0  0  0  0
    3.5396    1.8403    0.3439 C   0  0  0  0  0  0  0  0  0  0  0  0
    1.6611    0.6677   -2.0907 H   0  0  0  0  0  0  0  0  0  0  0  0
    0.6555   -0.7771   -2.0699 H   0  0  0  0  0  0  0  0  0  0  0  0
   -0.0976    0.8266   -2.0807 H   0  0  0  0  0  0  0  0  0  0  0  0
   -0.3553   -0.3125    0.2860 H   0  0  0  0  0  0  0  0  0  0  0  0
    1.5743   -0.3385    0.2185 H   0  0  0  0  0  0  0  0  0  0  0  0
    2.2075    2.7213   -1.1173 H   0  0  0  0  0  0  0  0  0  0  0  0
    2.2938    3.6023    0.3940 H   0  0  0  0  0  0  0  0  0  0  0  0
    3.5608    0.8484   -0.1107 H   0  0  0  0  0  0  0  0  0  0  0  0
    3.6103    1.7182    1.4254 H   0  0  0  0  0  0  0  0  0  0  0  0
    4.4244    2.3787   -0.0030 H   0  0  0  0  0  0  0  0  0  0  0  0
  1  2  1  0
  1  5  1  0
  1  6  1  0
  1 17  1  0
  2  3  1  0
  3  4  2  3
  4  7  1  0
  4  8  1  0
  9 10  1  0
  9 14  1  0
  9 15  1  0
  9 16  1  0
 10 11  1  0
 10 18  1  0
 11 12  1  0
 12 13  1  0
 12 19  1  0
 12 20  1  0
 13 21  1  0
 13 22  1  0
 13 23  1  0
M  RAD  1  10   2
M  END
>  <reaction>  (30) 
rmg_rxn_15604

>  <mol_properties>  (30) 
{"0": {"label": "*3", "atom_type": "Cs"}, "1": {"label": "*4", "atom_type": "O2s"}, "9": {"label": "*1", "atom_type": "Cs"}, "10": {"label": "*0", "atom_type": "S2s"}, "16": {"label": "*2", "atom_type": "H0"}}

>  <type>  (30) 
unop_26

>  <geom_source>  (30) 
gaussian_log

$$$$
