
     RDKit          3D

  9  8  0  0  0  0  0  0  0  0999 V2000
   -1.2461    0.5037    0.0950 C   0  0  0  0  0  0  0  0  0  0  0  0
   -0.0155   -0.3334    0.0640 C   0  0  0  0  0  0  0  0  0  0  0  0
    1.0697    0.1457   -0.3733 N   0  0  0  0  0  0  0  0  0  0  0  0
    2.1001   -0.7834   -0.3224 O   0  0  0  0  0  0  0  0  0  0  0  0
   -2.0357    0.0440   -0.5039 H   0  0  0  0  0  0  0  0  0  0  0  0
   -1.6237    0.5897    1.1166 H   0  0  0  0  0  0  0  0  0  0  0  0
   -1.0397    1.4998   -0.2929 H   0  0  0  0  0  0  0  0  0  0  0  0
   -0.0537   -1.3634    0.4205 H   0  0  0  0  0  0  0  0  0  0  0  0
    2.8478   -0.2985   -0.6758 H   0  0  0  0  0  0  0  0  0  0  0  0
  1  2  1  0
  1  5  1  0
  1  6  1  0
  1  7  1  0
  2  3  2  3
  2  8  1  0
  3  4  1  0
  4  9  1  0
M  END
>  <reaction>  (1) 
rmg_rxn_51

>  <mol_properties>  (1) 
{"3": {"label": "donator", "atom_type": "O2s"}, "8": {"label": "d_hydrogen", "atom_type": "H0"}}

>  <type>  (1) 
r1h

$$$$

     RDKit          3D

  8  7  0  0  0  0  0  0  0  0999 V2000
   -0.7853    0.0326    0.0393 C   0  0  0  0  0  0  0  0  0  0  0  0
    0.7379   -0.1211   -0.0579 C   0  0  0  0  0  0  0  0  0  0  0  0
    1.1315   -0.8282   -1.2106 N   0  0  0  0  0  1  0  0  0  0  0  0
   -1.2679   -0.9438    0.0768 H   0  0  0  0  0  0  0  0  0  0  0  0
   -1.0464    0.5840    0.9431 H   0  0  0  0  0  0  0  0  0  0  0  0
   -1.1718    0.5760   -0.8227 H   0  0  0  0  0  0  0  0  0  0  0  0
    1.2178    0.8698   -0.0686 H   0  0  0  0  0  0  0  0  0  0  0  0
    1.1219   -0.6479    0.8296 H   0  0  0  0  0  0  0  0  0  0  0  0
  1  2  1  0
  1  4  1  0
  1  5  1  0
  1  6  1  0
  2  3  1  0
  2  7  1  0
  2  8  1  0
M  RAD  1   3   3
M  END
>  <reaction>  (2) 
rmg_rxn_51

>  <mol_properties>  (2) 
{"2": {"label": "acceptor", "atom_type": "N3s"}}

>  <type>  (2) 
r2

$$$$

     RDKit          3D

  9  8  0  0  0  0  0  0  0  0999 V2000
   -1.0434   -0.0834    0.0221 C   0  0  0  0  0  0  0  0  0  0  0  0
    0.4680   -0.2131    0.0785 C   0  0  0  0  0  0  0  0  0  0  0  0
    0.9450   -1.3136   -0.7058 N   0  0  0  0  0  2  0  0  0  0  0  0
   -1.5170   -0.9919    0.3960 H   0  0  0  0  0  0  0  0  0  0  0  0
   -1.3864    0.7592    0.6249 H   0  0  0  0  0  0  0  0  0  0  0  0
   -1.3736    0.0696   -1.0061 H   0  0  0  0  0  0  0  0  0  0  0  0
    0.8045   -0.3309    1.1214 H   0  0  0  0  0  0  0  0  0  0  0  0
    0.9463    0.7186   -0.2648 H   0  0  0  0  0  0  0  0  0  0  0  0
    1.9638   -1.3321   -0.6157 H   0  0  0  0  0  0  0  0  0  0  0  0
  1  2  1  0
  1  4  1  0
  1  5  1  0
  1  6  1  0
  2  3  1  0
  2  7  1  0
  2  8  1  0
  3  9  1  0
M  RAD  1   3   2
M  END
>  <reaction>  (3) 
rmg_rxn_51

>  <mol_properties>  (3) 
{"2": {"label": "acceptor", "atom_type": "N3s"}, "8": {"label": "a_hydrogen", "atom_type": "H0"}}

>  <type>  (3) 
r2h

$$$$

     RDKit          3D

 17 15  0  0  0  0  0  0  0  0999 V2000
   -0.4124    2.6943    0.5990 C   0  0  0  0  0  0  0  0  0  0  0  0
    0.8533    1.8366    0.7461 C   0  0  0  0  0  0  0  0  0  0  0  0
    0.7864    1.0268    1.8934 N   0  0  0  0  0  2  0  0  0  0  0  0
   -0.5493    3.3364    1.4686 H   0  0  0  0  0  0  0  0  0  0  0  0
   -0.3281    3.3186   -0.2907 H   0  0  0  0  0  0  0  0  0  0  0  0
   -1.2889    2.0549    0.4938 H   0  0  0  0  0  0  0  0  0  0  0  0
    0.9555    1.1942   -0.1499 H   0  0  0  0  0  0  0  0  0  0  0  0
    1.7416    2.4777    0.8113 H   0  0  0  0  0  0  0  0  0  0  0  0
   -0.2108   -1.6293   -2.5297 C   0  0  0  0  0  0  0  0  0  0  0  0
   -0.3834   -1.7761   -1.0580 C   0  0  0  0  0  3  0  0  0  0  0  0
    0.0106   -0.8639   -0.2677 N   0  0  0  0  0  2  0  0  0  0  0  0
   -0.1585   -1.0230    1.0192 O   0  0  0  0  0  1  0  0  0  0  0  0
    0.3998   -2.4424   -2.9296 H   0  0  0  0  0  0  0  0  0  0  0  0
   -1.1772   -1.6718   -3.0378 H   0  0  0  0  0  0  0  0  0  0  0  0
    0.2694   -0.6804   -2.7649 H   0  0  0  0  0  0  0  0  0  0  0  0
   -0.8504   -2.6746   -0.6556 H   0  0  0  0  0  0  0  0  0  0  0  0
    0.3425   -0.0229    1.6142 H   0  0  0  0  0  0  0  0  0  0  0  0
  1  4  1  0
  1  2  1  0
  1  6  1  0
  1  5  1  0
  2  7  1  0
  2  3  1  0
  2  8  1  0
  3 17  1  0
  9 14  1  0
  9 15  1  0
  9 10  1  0
  9 13  1  0
 10 16  1  0
 10 11  1  0
 11 12  1  0
M  RAD  4   3   2  10   2  11   2  12   2
M  END
>  <reaction>  (4) 
rmg_rxn_51

>  <mol_properties>  (4) 
{"1": {"label": "*0", "atom_type": "Cs"}, "2": {"label": "*1", "atom_type": "N3s"}, "10": {"label": "*4", "atom_type": "N3s"}, "11": {"label": "*3", "atom_type": "O2s"}, "16": {"label": "*2", "atom_type": "H0"}}

>  <type>  (4) 
ts

$$$$

     RDKit          3D

 17 15  0  0  0  0  0  0  0  0999 V2000
   -0.6184    2.2608    3.1175 C   0  0  0  0  0  0  0  0  0  0  0  0
   -0.8761    1.4810    1.8408 C   0  0  0  0  0  0  0  0  0  0  0  0
    0.3089    1.3368    1.0479 N   0  0  0  0  0  1  0  0  0  0  0  0
   -0.2474    3.2596    2.8844 H   0  0  0  0  0  0  0  0  0  0  0  0
   -1.5319    2.3596    3.7065 H   0  0  0  0  0  0  0  0  0  0  0  0
    0.1328    1.7561    3.7261 H   0  0  0  0  0  0  0  0  0  0  0  0
   -1.2858    0.4851    2.0754 H   0  0  0  0  0  0  0  0  0  0  0  0
   -1.6617    1.9715    1.2433 H   0  0  0  0  0  0  0  0  0  0  0  0
    0.3089   -1.7617   -3.3258 C   0  0  0  0  0  0  0  0  0  0  0  0
    0.3089   -1.7617   -1.8372 C   0  0  0  0  0  0  0  0  0  0  0  0
    0.3089   -0.6696   -1.2004 N   0  0  0  0  0  0  0  0  0  0  0  0
    0.3089   -0.8743    0.1728 O   0  0  0  0  0  0  0  0  0  0  0  0
    1.1883   -2.2855   -3.7076 H   0  0  0  0  0  0  0  0  0  0  0  0
   -0.5705   -2.2855   -3.7076 H   0  0  0  0  0  0  0  0  0  0  0  0
    0.3089   -0.7420   -3.7072 H   0  0  0  0  0  0  0  0  0  0  0  0
    0.3089   -2.7092   -1.2970 H   0  0  0  0  0  0  0  0  0  0  0  0
    0.3089    0.1954    0.5962 H   0  0  0  0  0  0  0  0  0  0  0  0
  1  2  1  0
  1  4  1  0
  1  5  1  0
  1  6  1  0
  2  3  1  0
  2  7  1  0
  2  8  1  0
  9 10  1  0
  9 13  1  0
  9 14  1  0
  9 15  1  0
 10 11  2  3
 10 16  1  0
 11 12  1  0
 12 17  1  0
M  RAD  1   3   3
M  END
>  <reaction>  (5) 
rmg_rxn_51

>  <mol_properties>  (5) 
{"1": {"label": "*0", "atom_type": "Cs"}, "2": {"label": "*1", "atom_type": "N3s"}, "10": {"label": "*4", "atom_type": "N3s"}, "11": {"label": "*3", "atom_type": "O2s"}, "16": {"label": "*2", "atom_type": "H0"}}

>  <type>  (5) 
unop_1

>  <geom_source>  (5) 
Heuristics

$$$$

     RDKit          3D

 17 15  0  0  0  0  0  0  0  0999 V2000
   -0.8916    3.1906    1.3301 C   0  0  0  0  0  0  0  0  0  0  0  0
   -0.4138    1.8914    0.7073 C   0  0  0  0  0  0  0  0  0  0  0  0
    0.2703    1.0593    1.6525 N   0  0  0  0  0  1  0  0  0  0  0  0
   -0.0467    3.7562    1.7248 H   0  0  0  0  0  0  0  0  0  0  0  0
   -1.4094    3.8094    0.5952 H   0  0  0  0  0  0  0  0  0  0  0  0
   -1.5757    2.9877    2.1550 H   0  0  0  0  0  0  0  0  0  0  0  0
   -1.2633    1.3372    0.2759 H   0  0  0  0  0  0  0  0  0  0  0  0
    0.2483    2.0970   -0.1494 H   0  0  0  0  0  0  0  0  0  0  0  0
    0.2703   -2.0392   -2.7213 C   0  0  0  0  0  0  0  0  0  0  0  0
    0.2703   -2.0392   -1.2326 C   0  0  0  0  0  0  0  0  0  0  0  0
    0.2703   -0.9471   -0.5958 N   0  0  0  0  0  0  0  0  0  0  0  0
    0.2703   -1.1518    0.7774 O   0  0  0  0  0  0  0  0  0  0  0  0
    1.1497   -2.5630   -3.1031 H   0  0  0  0  0  0  0  0  0  0  0  0
   -0.6091   -2.5630   -3.1031 H   0  0  0  0  0  0  0  0  0  0  0  0
    0.2703   -1.0195   -3.1027 H   0  0  0  0  0  0  0  0  0  0  0  0
    0.2703   -2.9867   -0.6925 H   0  0  0  0  0  0  0  0  0  0  0  0
    0.2703   -0.0822    1.2007 H   0  0  0  0  0  0  0  0  0  0  0  0
  1  2  1  0
  1  4  1  0
  1  5  1  0
  1  6  1  0
  2  3  1  0
  2  7  1  0
  2  8  1  0
  9 10  1  0
  9 13  1  0
  9 14  1  0
  9 15  1  0
 10 11  2  3
 10 16  1  0
 11 12  1  0
 12 17  1  0
M  RAD  1   3   3
M  END
>  <reaction>  (6) 
rmg_rxn_51

>  <mol_properties>  (6) 
{"1": {"label": "*0", "atom_type": "Cs"}, "2": {"label": "*1", "atom_type": "N3s"}, "10": {"label": "*4", "atom_type": "N3s"}, "11": {"label": "*3", "atom_type": "O2s"}, "16": {"label": "*2", "atom_type": "H0"}}

>  <type>  (6) 
unop_2

>  <geom_source>  (6) 
Heuristics

$$$$

     RDKit          3D

 17 15  0  0  0  0  0  0  0  0999 V2000
   -0.0621    2.3799    3.1716 C   0  0  0  0  0  0  0  0  0  0  0  0
   -0.5566    1.3077    2.2176 C   0  0  0  0  0  0  0  0  0  0  0  0
    0.1276    1.3478    0.9590 N   0  0  0  0  0  1  0  0  0  0  0  0
   -0.2113    3.3705    2.7403 H   0  0  0  0  0  0  0  0  0  0  0  0
   -0.5947    2.3328    4.1230 H   0  0  0  0  0  0  0  0  0  0  0  0
    1.0038    2.2542    3.3653 H   0  0  0  0  0  0  0  0  0  0  0  0
   -0.4396    0.3089    2.6687 H   0  0  0  0  0  0  0  0  0  0  0  0
   -1.6410    1.4126    2.0509 H   0  0  0  0  0  0  0  0  0  0  0  0
    0.1276   -1.7507   -3.4147 C   0  0  0  0  0  0  0  0  0  0  0  0
    0.1276   -1.7507   -1.9261 C   0  0  0  0  0  0  0  0  0  0  0  0
    0.1276   -0.6586   -1.2893 N   0  0  0  0  0  0  0  0  0  0  0  0
    0.1276   -0.8633    0.0839 O   0  0  0  0  0  0  0  0  0  0  0  0
    1.0070   -2.2745   -3.7965 H   0  0  0  0  0  0  0  0  0  0  0  0
   -0.7518   -2.2745   -3.7965 H   0  0  0  0  0  0  0  0  0  0  0  0
    0.1276   -0.7310   -3.7962 H   0  0  0  0  0  0  0  0  0  0  0  0
    0.1276   -2.6982   -1.3859 H   0  0  0  0  0  0  0  0  0  0  0  0
    0.1276    0.2064    0.5073 H   0  0  0  0  0  0  0  0  0  0  0  0
  1  2  1  0
  1  4  1  0
  1  5  1  0
  1  6  1  0
  2  3  1  0
  2  7  1  0
  2  8  1  0
  9 10  1  0
  9 13  1  0
  9 14  1  0
  9 15  1  0
 10 11  2  3
 10 16  1  0
 11 12  1  0
 12 17  1  0
M  RAD  1   3   3
M  END
>  <reaction>  (7) 
rmg_rxn_51

>  <mol_properties>  (7) 
{"1": {"label": "*0", "atom_type": "Cs"}, "2": {"label": "*1", "atom_type": "N3s"}, "10": {"label": "*4", "atom_type": "N3s"}, "11": {"label": "*3", "atom_type": "O2s"}, "16": {"label": "*2", "atom_type": "H0"}}

>  <type>  (7) 
unop_3

>  <geom_source>  (7) 
Heuristics

$$$$

     RDKit          3D

 17 15  0  0  0  0  0  0  0  0999 V2000
    1.3124    2.7984    1.9859 C   0  0  0  0  0  0  0  0  0  0  0  0
    0.7567    1.8060    0.9806 C   0  0  0  0  0  0  0  0  0  0  0  0
   -0.4283    1.1583    1.4601 N   0  0  0  0  0  1  0  0  0  0  0  0
    1.5608    2.2940    2.9205 H   0  0  0  0  0  0  0  0  0  0  0  0
    2.2134    3.2804    1.6026 H   0  0  0  0  0  0  0  0  0  0  0  0
    0.5740    3.5703    2.2060 H   0  0  0  0  0  0  0  0  0  0  0  0
    0.5402    2.3090    0.0241 H   0  0  0  0  0  0  0  0  0  0  0  0
    1.5158    1.0471    0.7305 H   0  0  0  0  0  0  0  0  0  0  0  0
   -0.4283   -1.9402   -2.9137 C   0  0  0  0  0  0  0  0  0  0  0  0
   -0.4283   -1.9402   -1.4251 C   0  0  0  0  0  0  0  0  0  0  0  0
   -0.4283   -0.8482   -0.7883 N   0  0  0  0  0  0  0  0  0  0  0  0
   -0.4283   -1.0528    0.5849 O   0  0  0  0  0  0  0  0  0  0  0  0
    0.4511   -2.4641   -3.2955 H   0  0  0  0  0  0  0  0  0  0  0  0
   -1.3077   -2.4641   -3.2955 H   0  0  0  0  0  0  0  0  0  0  0  0
   -0.4283   -0.9206   -3.2951 H   0  0  0  0  0  0  0  0  0  0  0  0
   -0.4283   -2.8878   -0.8849 H   0  0  0  0  0  0  0  0  0  0  0  0
   -0.4283    0.0168    1.0083 H   0  0  0  0  0  0  0  0  0  0  0  0
  1  2  1  0
  1  4  1  0
  1  5  1  0
  1  6  1  0
  2  3  1  0
  2  7  1  0
  2  8  1  0
  9 10  1  0
  9 13  1  0
  9 14  1  0
  9 15  1  0
 10 11  2  3
 10 16  1  0
 11 12  1  0
 12 17  1  0
M  RAD  1   3   3
M  END
>  <reaction>  (8) 
rmg_rxn_51

>  <mol_properties>  (8) 
{"1": {"label": "*0", "atom_type": "Cs"}, "2": {"label": "*1", "atom_type": "N3s"}, "10": {"label": "*4", "atom_type": "N3s"}, "11": {"label": "*3", "atom_type": "O2s"}, "16": {"label": "*2", "atom_type": "H0"}}

>  <type>  (8) 
unop_4

>  <geom_source>  (8) 
Heuristics

$$$$

     RDKit          3D

 17 15  0  0  0  0  0  0  0  0999 V2000
    0.0000    2.5772    3.0547 C   0  0  0  0  0  0  0  0  0  0  0  0
    0.0000    1.2178    2.3791 C   0  0  0  0  0  0  0  0  0  0  0  0
    0.0000    1.3254    0.9500 N   0  0  0  0  0  1  0  0  0  0  0  0
   -0.8822    3.1474    2.7614 H   0  0  0  0  0  0  0  0  0  0  0  0
    0.0000    2.4738    4.1412 H   0  0  0  0  0  0  0  0  0  0  0  0
    0.8822    3.1474    2.7614 H   0  0  0  0  0  0  0  0  0  0  0  0
    0.8722    0.6276    2.7040 H   0  0  0  0  0  0  0  0  0  0  0  0
   -0.8722    0.6276    2.7040 H   0  0  0  0  0  0  0  0  0  0  0  0
   -0.0000   -1.7731   -3.4238 C   0  0  0  0  0  0  0  0  0  0  0  0
   -0.0000   -1.7731   -1.9351 C   0  0  0  0  0  0  0  0  0  0  0  0
   -0.0000   -0.6810   -1.2983 N   0  0  0  0  0  0  0  0  0  0  0  0
   -0.0000   -0.8857    0.0749 O   0  0  0  0  0  0  0  0  0  0  0  0
    0.8794   -2.2969   -3.8056 H   0  0  0  0  0  0  0  0  0  0  0  0
   -0.8794   -2.2969   -3.8056 H   0  0  0  0  0  0  0  0  0  0  0  0
   -0.0000   -0.7534   -3.8052 H   0  0  0  0  0  0  0  0  0  0  0  0
   -0.0000   -2.7206   -1.3950 H   0  0  0  0  0  0  0  0  0  0  0  0
   -0.0000    0.1840    0.4982 H   0  0  0  0  0  0  0  0  0  0  0  0
  1  2  1  0
  1  4  1  0
  1  5  1  0
  1  6  1  0
  2  3  1  0
  2  7  1  0
  2  8  1  0
  9 10  1  0
  9 13  1  0
  9 14  1  0
  9 15  1  0
 10 11  2  3
 10 16  1  0
 11 12  1  0
 12 17  1  0
M  RAD  1   3   3
M  END
>  <reaction>  (9) 
rmg_rxn_51

>  <mol_properties>  (9) 
{"1": {"label": "*0", "atom_type": "Cs"}, "2": {"label": "*1", "atom_type": "N3s"}, "10": {"label": "*4", "atom_type": "N3s"}, "11": {"label": "*3", "atom_type": "O2s"}, "16": {"label": "*2", "atom_type": "H0"}}

>  <type>  (9) 
unop_5

>  <geom_source>  (9) 
Heuristics

$$$$

     RDKit          3D

 17 15  0  0  0  0  0  0  0  0999 V2000
    1.1625    2.4322    2.6763 C   0  0  0  0  0  0  0  0  0  0  0  0
    0.9345    1.6603    1.3893 C   0  0  0  0  0  0  0  0  0  0  0  0
   -0.4339    1.2643    1.2326 N   0  0  0  0  0  1  0  0  0  0  0  0
    0.8889    1.8228    3.5385 H   0  0  0  0  0  0  0  0  0  0  0  0
    2.2092    2.7243    2.7770 H   0  0  0  0  0  0  0  0  0  0  0  0
    0.5486    3.3335    2.6928 H   0  0  0  0  0  0  0  0  0  0  0  0
    1.2455    2.2626    0.5202 H   0  0  0  0  0  0  0  0  0  0  0  0
    1.5820    0.7690    1.3563 H   0  0  0  0  0  0  0  0  0  0  0  0
   -0.4339   -1.8342   -3.1412 C   0  0  0  0  0  0  0  0  0  0  0  0
   -0.4339   -1.8342   -1.6526 C   0  0  0  0  0  0  0  0  0  0  0  0
   -0.4339   -0.7421   -1.0158 N   0  0  0  0  0  0  0  0  0  0  0  0
   -0.4339   -0.9468    0.3574 O   0  0  0  0  0  0  0  0  0  0  0  0
    0.4456   -2.3580   -3.5230 H   0  0  0  0  0  0  0  0  0  0  0  0
   -1.3133   -2.3580   -3.5230 H   0  0  0  0  0  0  0  0  0  0  0  0
   -0.4339   -0.8145   -3.5226 H   0  0  0  0  0  0  0  0  0  0  0  0
   -0.4339   -2.7817   -1.1124 H   0  0  0  0  0  0  0  0  0  0  0  0
   -0.4339    0.1229    0.7808 H   0  0  0  0  0  0  0  0  0  0  0  0
  1  2  1  0
  1  4  1  0
  1  5  1  0
  1  6  1  0
  2  3  1  0
  2  7  1  0
  2  8  1  0
  9 10  1  0
  9 13  1  0
  9 14  1  0
  9 15  1  0
 10 11  2  3
 10 16  1  0
 11 12  1  0
 12 17  1  0
M  RAD  1   3   3
M  END
>  <reaction>  (10) 
rmg_rxn_51

>  <mol_properties>  (10) 
{"1": {"label": "*0", "atom_type": "Cs"}, "2": {"label": "*1", "atom_type": "N3s"}, "10": {"label": "*4", "atom_type": "N3s"}, "11": {"label": "*3", "atom_type": "O2s"}, "16": {"label": "*2", "atom_type": "H0"}}

>  <type>  (10) 
unop_6

>  <geom_source>  (10) 
Heuristics

$$$$

     RDKit          3D

 17 15  0  0  0  0  0  0  0  0999 V2000
    0.6184    2.2608    3.1175 C   0  0  0  0  0  0  0  0  0  0  0  0
    0.8761    1.4810    1.8408 C   0  0  0  0  0  0  0  0  0  0  0  0
   -0.3089    1.3368    1.0479 N   0  0  0  0  0  1  0  0  0  0  0  0
   -0.1328    1.7561    3.7261 H   0  0  0  0  0  0  0  0  0  0  0  0
    1.5319    2.3596    3.7065 H   0  0  0  0  0  0  0  0  0  0  0  0
    0.2474    3.2596    2.8844 H   0  0  0  0  0  0  0  0  0  0  0  0
    1.6617    1.9715    1.2433 H   0  0  0  0  0  0  0  0  0  0  0  0
    1.2858    0.4851    2.0754 H   0  0  0  0  0  0  0  0  0  0  0  0
   -0.3089   -1.7617   -3.3258 C   0  0  0  0  0  0  0  0  0  0  0  0
   -0.3089   -1.7617   -1.8372 C   0  0  0  0  0  0  0  0  0  0  0  0
   -0.3089   -0.6696   -1.2004 N   0  0  0  0  0  0  0  0  0  0  0  0
   -0.3089   -0.8743    0.1728 O   0  0  0  0  0  0  0  0  0  0  0  0
    0.5705   -2.2855   -3.7076 H   0  0  0  0  0  0  0  0  0  0  0  0
   -1.1883   -2.2855   -3.7076 H   0  0  0  0  0  0  0  0  0  0  0  0
   -0.3089   -0.7420   -3.7072 H   0  0  0  0  0  0  0  0  0  0  0  0
   -0.3089   -2.7092   -1.2970 H   0  0  0  0  0  0  0  0  0  0  0  0
   -0.3089    0.1954    0.5962 H   0  0  0  0  0  0  0  0  0  0  0  0
  1  2  1  0
  1  4  1  0
  1  5  1  0
  1  6  1  0
  2  3  1  0
  2  7  1  0
  2  8  1  0
  9 10  1  0
  9 13  1  0
  9 14  1  0
  9 15  1  0
 10 11  2  3
 10 16  1  0
 11 12  1  0
 12 17  1  0
M  RAD  1   3   3
M  END
>  <reaction>  (11) 
rmg_rxn_51

>  <mol_properties>  (11) 
{"1": {"label": "*0", "atom_type": "Cs"}, "2": {"label": "*1", "atom_type": "N3s"}, "10": {"label": "*4", "atom_type": "N3s"}, "11": {"label": "*3", "atom_type": "O2s"}, "16": {"label": "*2", "atom_type": "H0"}}

>  <type>  (11) 
unop_7

>  <geom_source>  (11) 
Heuristics

$$$$

     RDKit          3D

 17 15  0  0  0  0  0  0  0  0999 V2000
   -1.1625    2.4322    2.6763 C   0  0  0  0  0  0  0  0  0  0  0  0
   -0.9345    1.6603    1.3893 C   0  0  0  0  0  0  0  0  0  0  0  0
    0.4339    1.2643    1.2326 N   0  0  0  0  0  1  0  0  0  0  0  0
   -0.5486    3.3335    2.6928 H   0  0  0  0  0  0  0  0  0  0  0  0
   -2.2092    2.7243    2.7770 H   0  0  0  0  0  0  0  0  0  0  0  0
   -0.8889    1.8228    3.5385 H   0  0  0  0  0  0  0  0  0  0  0  0
   -1.5820    0.7690    1.3563 H   0  0  0  0  0  0  0  0  0  0  0  0
   -1.2455    2.2626    0.5202 H   0  0  0  0  0  0  0  0  0  0  0  0
    0.4339   -1.8342   -3.1412 C   0  0  0  0  0  0  0  0  0  0  0  0
    0.4339   -1.8342   -1.6526 C   0  0  0  0  0  0  0  0  0  0  0  0
    0.4339   -0.7421   -1.0158 N   0  0  0  0  0  0  0  0  0  0  0  0
    0.4339   -0.9468    0.3574 O   0  0  0  0  0  0  0  0  0  0  0  0
    1.3133   -2.3580   -3.5230 H   0  0  0  0  0  0  0  0  0  0  0  0
   -0.4456   -2.3580   -3.5230 H   0  0  0  0  0  0  0  0  0  0  0  0
    0.4339   -0.8145   -3.5226 H   0  0  0  0  0  0  0  0  0  0  0  0
    0.4339   -2.7817   -1.1124 H   0  0  0  0  0  0  0  0  0  0  0  0
    0.4339    0.1229    0.7808 H   0  0  0  0  0  0  0  0  0  0  0  0
  1  2  1  0
  1  4  1  0
  1  5  1  0
  1  6  1  0
  2  3  1  0
  2  7  1  0
  2  8  1  0
  9 10  1  0
  9 13  1  0
  9 14  1  0
  9 15  1  0
 10 11  2  3
 10 16  1  0
 11 12  1  0
 12 17  1  0
M  RAD  1   3   3
M  END
>  <reaction>  (12) 
rmg_rxn_51

>  <mol_properties>  (12) 
{"1": {"label": "*0", "atom_type": "Cs"}, "2": {"label": "*1", "atom_type": "N3s"}, "10": {"label": "*4", "atom_type": "N3s"}, "11": {"label": "*3", "atom_type": "O2s"}, "16": {"label": "*2", "atom_type": "H0"}}

>  <type>  (12) 
unop_8

>  <geom_source>  (12) 
Heuristics

$$$$

     RDKit          3D

 17 15  0  0  0  0  0  0  0  0999 V2000
    0.8917    3.1906    1.3301 C   0  0  0  0  0  0  0  0  0  0  0  0
    0.4139    1.8914    0.7073 C   0  0  0  0  0  0  0  0  0  0  0  0
   -0.2703    1.0593    1.6525 N   0  0  0  0  0  1  0  0  0  0  0  0
    1.5757    2.9877    2.1550 H   0  0  0  0  0  0  0  0  0  0  0  0
    1.4095    3.8094    0.5952 H   0  0  0  0  0  0  0  0  0  0  0  0
    0.0467    3.7562    1.7248 H   0  0  0  0  0  0  0  0  0  0  0  0
   -0.2483    2.0970   -0.1494 H   0  0  0  0  0  0  0  0  0  0  0  0
    1.2633    1.3372    0.2759 H   0  0  0  0  0  0  0  0  0  0  0  0
   -0.2703   -2.0392   -2.7213 C   0  0  0  0  0  0  0  0  0  0  0  0
   -0.2703   -2.0392   -1.2326 C   0  0  0  0  0  0  0  0  0  0  0  0
   -0.2703   -0.9471   -0.5958 N   0  0  0  0  0  0  0  0  0  0  0  0
   -0.2703   -1.1518    0.7774 O   0  0  0  0  0  0  0  0  0  0  0  0
    0.6091   -2.5630   -3.1031 H   0  0  0  0  0  0  0  0  0  0  0  0
   -1.1497   -2.5630   -3.1031 H   0  0  0  0  0  0  0  0  0  0  0  0
   -0.2703   -1.0195   -3.1027 H   0  0  0  0  0  0  0  0  0  0  0  0
   -0.2703   -2.9867   -0.6925 H   0  0  0  0  0  0  0  0  0  0  0  0
   -0.2703   -0.0821    1.2007 H   0  0  0  0  0  0  0  0  0  0  0  0
  1  2  1  0
  1  4  1  0
  1  5  1  0
  1  6  1  0
  2  3  1  0
  2  7  1  0
  2  8  1  0
  9 10  1  0
  9 13  1  0
  9 14  1  0
  9 15  1  0
 10 11  2  3
 10 16  1  0
 11 12  1  0
 12 17  1  0
M  RAD  1   3   3
M  END
>  <reaction>  (13) 
rmg_rxn_51

>  <mol_properties>  (13) 
{"1": {"label": "*0", "atom_type": "Cs"}, "2": {"label": "*1", "atom_type": "N3s"}, "10": {"label": "*4", "atom_type": "N3s"}, "11": {"label": "*3", "atom_type": "O2s"}, "16": {"label": "*2", "atom_type": "H0"}}

>  <type>  (13) 
unop_9

>  <geom_source>  (13) 
Heuristics

$$$$

     RDKit          3D

 17 15  0  0  0  0  0  0  0  0999 V2000
   -1.3124    2.7984    1.9859 C   0  0  0  0  0  0  0  0  0  0  0  0
   -0.7567    1.8060    0.9806 C   0  0  0  0  0  0  0  0  0  0  0  0
    0.4283    1.1583    1.4601 N   0  0  0  0  0  1  0  0  0  0  0  0
   -0.5740    3.5703    2.2060 H   0  0  0  0  0  0  0  0  0  0  0  0
   -2.2134    3.2804    1.6026 H   0  0  0  0  0  0  0  0  0  0  0  0
   -1.5608    2.2940    2.9205 H   0  0  0  0  0  0  0  0  0  0  0  0
   -1.5158    1.0471    0.7305 H   0  0  0  0  0  0  0  0  0  0  0  0
   -0.5402    2.3090    0.0241 H   0  0  0  0  0  0  0  0  0  0  0  0
    0.4283   -1.9402   -2.9137 C   0  0  0  0  0  0  0  0  0  0  0  0
    0.4283   -1.9402   -1.4251 C   0  0  0  0  0  0  0  0  0  0  0  0
    0.4283   -0.8482   -0.7883 N   0  0  0  0  0  0  0  0  0  0  0  0
    0.4283   -1.0529    0.5849 O   0  0  0  0  0  0  0  0  0  0  0  0
    1.3077   -2.4641   -3.2955 H   0  0  0  0  0  0  0  0  0  0  0  0
   -0.4511   -2.4641   -3.2955 H   0  0  0  0  0  0  0  0  0  0  0  0
    0.4283   -0.9206   -3.2951 H   0  0  0  0  0  0  0  0  0  0  0  0
    0.4283   -2.8878   -0.8849 H   0  0  0  0  0  0  0  0  0  0  0  0
    0.4283    0.0168    1.0083 H   0  0  0  0  0  0  0  0  0  0  0  0
  1  2  1  0
  1  4  1  0
  1  5  1  0
  1  6  1  0
  2  3  1  0
  2  7  1  0
  2  8  1  0
  9 10  1  0
  9 13  1  0
  9 14  1  0
  9 15  1  0
 10 11  2  3
 10 16  1  0
 11 12  1  0
 12 17  1  0
M  RAD  1   3   3
M  END
>  <reaction>  (14) 
rmg_rxn_51

>  <mol_properties>  (14) 
{"1": {"label": "*0", "atom_type": "Cs"}, "2": {"label": "*1", "atom_type": "N3s"}, "10": {"label": "*4", "atom_type": "N3s"}, "11": {"label": "*3", "atom_type": "O2s"}, "16": {"label": "*2", "atom_type": "H0"}}

>  <type>  (14) 
unop_10

>  <geom_source>  (14) 
Heuristics

$$$$

     RDKit          3D

 17 15  0  0  0  0  0  0  0  0999 V2000
    0.0621    2.3799    3.1716 C   0  0  0  0  0  0  0  0  0  0  0  0
    0.5566    1.3077    2.2176 C   0  0  0  0  0  0  0  0  0  0  0  0
   -0.1276    1.3478    0.9590 N   0  0  0  0  0  1  0  0  0  0  0  0
   -1.0038    2.2542    3.3653 H   0  0  0  0  0  0  0  0  0  0  0  0
    0.5947    2.3328    4.1230 H   0  0  0  0  0  0  0  0  0  0  0  0
    0.2113    3.3705    2.7403 H   0  0  0  0  0  0  0  0  0  0  0  0
    1.6410    1.4126    2.0509 H   0  0  0  0  0  0  0  0  0  0  0  0
    0.4396    0.3089    2.6687 H   0  0  0  0  0  0  0  0  0  0  0  0
   -0.1276   -1.7507   -3.4147 C   0  0  0  0  0  0  0  0  0  0  0  0
   -0.1276   -1.7507   -1.9261 C   0  0  0  0  0  0  0  0  0  0  0  0
   -0.1276   -0.6586   -1.2893 N   0  0  0  0  0  0  0  0  0  0  0  0
   -0.1276   -0.8633    0.0839 O   0  0  0  0  0  0  0  0  0  0  0  0
    0.7518   -2.2745   -3.7965 H   0  0  0  0  0  0  0  0  0  0  0  0
   -1.0070   -2.2745   -3.7965 H   0  0  0  0  0  0  0  0  0  0  0  0
   -0.1276   -0.7310   -3.7962 H   0  0  0  0  0  0  0  0  0  0  0  0
   -0.1276   -2.6982   -1.3859 H   0  0  0  0  0  0  0  0  0  0  0  0
   -0.1276    0.2064    0.5073 H   0  0  0  0  0  0  0  0  0  0  0  0
  1  2  1  0
  1  4  1  0
  1  5  1  0
  1  6  1  0
  2  3  1  0
  2  7  1  0
  2  8  1  0
  9 10  1  0
  9 13  1  0
  9 14  1  0
  9 15  1  0
 10 11  2  3
 10 16  1  0
 11 12  1  0
 12 17  1  0
M  RAD  1   3   3
M  END
>  <reaction>  (15) 
rmg_rxn_51

>  <mol_properties>  (15) 
{"1": {"label": "*0", "atom_type": "Cs"}, "2": {"label": "*1", "atom_type": "N3s"}, "10": {"label": "*4", "atom_type": "N3s"}, "11": {"label": "*3", "atom_type": "O2s"}, "16": {"label": "*2", "atom_type": "H0"}}

>  <type>  (15) 
unop_11

>  <geom_source>  (15) 
Heuristics

$$$$

     RDKit          3D

 17 15  0  0  0  0  0  0  0  0999 V2000
    0.0000    3.3700    1.0515 C   0  0  0  0  0  0  0  0  0  0  0  0
    0.0000    1.9164    0.6139 C   0  0  0  0  0  0  0  0  0  0  0  0
    0.0000    1.0169    1.7295 N   0  0  0  0  0  1  0  0  0  0  0  0
    0.8822    3.5850    1.6556 H   0  0  0  0  0  0  0  0  0  0  0  0
    0.0000    4.0382    0.1886 H   0  0  0  0  0  0  0  0  0  0  0  0
   -0.8822    3.5850    1.6556 H   0  0  0  0  0  0  0  0  0  0  0  0
   -0.8722    1.7084   -0.0269 H   0  0  0  0  0  0  0  0  0  0  0  0
    0.8722    1.7084   -0.0269 H   0  0  0  0  0  0  0  0  0  0  0  0
   -0.0000   -2.0816   -2.6442 C   0  0  0  0  0  0  0  0  0  0  0  0
   -0.0000   -2.0816   -1.1556 C   0  0  0  0  0  0  0  0  0  0  0  0
   -0.0000   -0.9895   -0.5188 N   0  0  0  0  0  0  0  0  0  0  0  0
   -0.0000   -1.1942    0.8544 O   0  0  0  0  0  0  0  0  0  0  0  0
    0.8794   -2.6054   -3.0260 H   0  0  0  0  0  0  0  0  0  0  0  0
   -0.8794   -2.6054   -3.0260 H   0  0  0  0  0  0  0  0  0  0  0  0
   -0.0000   -1.0619   -3.0257 H   0  0  0  0  0  0  0  0  0  0  0  0
   -0.0000   -3.0291   -0.6154 H   0  0  0  0  0  0  0  0  0  0  0  0
   -0.0000   -0.1245    1.2778 H   0  0  0  0  0  0  0  0  0  0  0  0
  1  2  1  0
  1  4  1  0
  1  5  1  0
  1  6  1  0
  2  3  1  0
  2  7  1  0
  2  8  1  0
  9 10  1  0
  9 13  1  0
  9 14  1  0
  9 15  1  0
 10 11  2  3
 10 16  1  0
 11 12  1  0
 12 17  1  0
M  RAD  1   3   3
M  END
>  <reaction>  (16) 
rmg_rxn_51

>  <mol_properties>  (16) 
{"1": {"label": "*0", "atom_type": "Cs"}, "2": {"label": "*1", "atom_type": "N3s"}, "10": {"label": "*4", "atom_type": "N3s"}, "11": {"label": "*3", "atom_type": "O2s"}, "16": {"label": "*2", "atom_type": "H0"}}

>  <type>  (16) 
unop_12

>  <geom_source>  (16) 
Heuristics

$$$$

     RDKit          3D

 17 15  0  0  0  0  0  0  0  0999 V2000
   -0.8917    3.1906    1.3301 C   0  0  0  0  0  0  0  0  0  0  0  0
   -0.4138    1.8914    0.7073 C   0  0  0  0  0  0  0  0  0  0  0  0
    0.2703    1.0593    1.6525 N   0  0  0  0  0  1  0  0  0  0  0  0
   -0.0467    3.7562    1.7248 H   0  0  0  0  0  0  0  0  0  0  0  0
   -1.4095    3.8094    0.5952 H   0  0  0  0  0  0  0  0  0  0  0  0
   -1.5757    2.9877    2.1550 H   0  0  0  0  0  0  0  0  0  0  0  0
   -1.2633    1.3372    0.2759 H   0  0  0  0  0  0  0  0  0  0  0  0
    0.2483    2.0970   -0.1494 H   0  0  0  0  0  0  0  0  0  0  0  0
    0.2703   -2.0392   -2.7213 C   0  0  0  0  0  0  0  0  0  0  0  0
    0.2703   -2.0392   -1.2326 C   0  0  0  0  0  0  0  0  0  0  0  0
    0.2703   -0.9471   -0.5958 N   0  0  0  0  0  0  0  0  0  0  0  0
    0.2703   -1.1518    0.7773 O   0  0  0  0  0  0  0  0  0  0  0  0
    1.1497   -2.5630   -3.1031 H   0  0  0  0  0  0  0  0  0  0  0  0
   -0.6091   -2.5630   -3.1031 H   0  0  0  0  0  0  0  0  0  0  0  0
    0.2703   -1.0195   -3.1027 H   0  0  0  0  0  0  0  0  0  0  0  0
    0.2703   -2.9867   -0.6925 H   0  0  0  0  0  0  0  0  0  0  0  0
    0.2703   -0.0822    1.2007 H   0  0  0  0  0  0  0  0  0  0  0  0
  1  2  1  0
  1  4  1  0
  1  5  1  0
  1  6  1  0
  2  3  1  0
  2  7  1  0
  2  8  1  0
  9 10  1  0
  9 13  1  0
  9 14  1  0
  9 15  1  0
 10 11  2  3
 10 16  1  0
 11 12  1  0
 12 17  1  0
M  RAD  1   3   3
M  END
>  <reaction>  (17) 
rmg_rxn_51

>  <mol_properties>  (17) 
{"1": {"label": "*0", "atom_type": "Cs"}, "2": {"label": "*1", "atom_type": "N3s"}, "10": {"label": "*4", "atom_type": "N3s"}, "11": {"label": "*3", "atom_type": "O2s"}, "16": {"label": "*2", "atom_type": "H0"}}

>  <type>  (17) 
unop_13

>  <geom_source>  (17) 
gaussian_log

$$$$
