
     RDKit          3D

  9  8  0  0  0  0  0  0  0  0999 V2000
   -1.2461    0.5037    0.0950 C   0  0  0  0  0  0  0  0  0  0  0  0
   -0.0155   -0.3334    0.0640 C   0  0  0  0  0  0  0  0  0  0  0  0
    1.0697    0.1457   -0.3733 N   0  0  0  0  0  0  0  0  0  0  0  0
    2.1001   -0.7834   -0.3224 O   0  0  0  0  0  0  0  0  0  0  0  0
   -2.0357    0.0440   -0.5039 H   0  0  0  0  0  0  0  0  0  0  0  0
   -1.6237    0.5897    1.1166 H   0  0  0  0  0  0  0  0  0  0  0  0
   -1.0397    1.4998   -0.2929 H   0  0  0  0  0  0  0  0  0  0  0  0
   -0.0537   -1.3634    0.4205 H   0  0  0  0  0  0  0  0  0  0  0  0
    2.8478   -0.2985   -0.6758 H   0  0  0  0  0  0  0  0  0  0  0  0
  1  2  1  0
  1  5  1  0
  1  6  1  0
  1  7  1  0
  2  3  2  3
  2  8  1  0
  3  4  1  0
  4  9  1  0
M  END
>  <reaction>  (1) 
rmg_rxn_174

>  <mol_properties>  (1) 
{"3": {"label": "donator", "atom_type": "O2s"}, "8": {"label": "d_hydrogen", "atom_type": "H0"}}

>  <type>  (1) 
r1h

$$$$

     RDKit          3D

  8  7  0  0  0  0  0  0  0  0999 V2000
   -1.0336    0.3440   -0.0356 C   0  0  0  0  0  3  0  0  0  0  0  0
    0.1991   -0.4326   -0.0698 C   0  0  0  0  0  0  0  0  0  0  0  0
    0.9631   -0.0368    1.2269 N   0  0  0  0  0  0  0  0  0  0  0  0
    0.8138   -0.8074    2.1160 O   0  0  0  0  0  0  0  0  0  0  0  0
   -1.0668    1.3490   -0.4321 H   0  0  0  0  0  0  0  0  0  0  0  0
   -1.8598    0.0102    0.5774 H   0  0  0  0  0  0  0  0  0  0  0  0
    0.0447   -1.5108   -0.0264 H   0  0  0  0  0  0  0  0  0  0  0  0
    0.8639   -0.1518   -0.8851 H   0  0  0  0  0  0  0  0  0  0  0  0
  1  2  1  0
  1  5  1  0
  1  6  1  0
  2  3  1  0
  2  7  1  0
  2  8  1  0
  3  4  2  0
M  RAD  1   1   2
M  END
>  <reaction>  (2) 
rmg_rxn_174

>  <mol_properties>  (2) 
{"0": {"label": "acceptor", "atom_type": "Cs"}}

>  <type>  (2) 
r2

$$$$

     RDKit          3D

  9  8  0  0  0  0  0  0  0  0999 V2000
   -1.0314    0.2323   -0.1227 C   0  0  0  0  0  0  0  0  0  0  0  0
    0.3094   -0.4511    0.0063 C   0  0  0  0  0  0  0  0  0  0  0  0
    0.3197   -1.7698    0.6841 N   0  0  0  0  0  0  0  0  0  0  0  0
   -0.7498   -2.1455    1.0557 O   0  0  0  0  0  0  0  0  0  0  0  0
   -1.4744    0.4198    0.8552 H   0  0  0  0  0  0  0  0  0  0  0  0
   -0.9073    1.1865   -0.6350 H   0  0  0  0  0  0  0  0  0  0  0  0
   -1.7319   -0.3778   -0.6927 H   0  0  0  0  0  0  0  0  0  0  0  0
    1.0375    0.1401    0.5713 H   0  0  0  0  0  0  0  0  0  0  0  0
    0.7826   -0.6494   -0.9609 H   0  0  0  0  0  0  0  0  0  0  0  0
  1  2  1  0
  1  5  1  0
  1  6  1  0
  1  7  1  0
  2  3  1  0
  2  8  1  0
  2  9  1  0
  3  4  2  0
M  END
>  <reaction>  (3) 
rmg_rxn_174

>  <mol_properties>  (3) 
{"0": {"label": "acceptor", "atom_type": "Cs"}, "8": {"label": "a_hydrogen", "atom_type": "H0"}}

>  <type>  (3) 
r2h

$$$$

     RDKit          3D

 17 15  0  0  0  0  0  0  0  0999 V2000
    0.5883    0.7659    1.5215 C   0  0  0  0  0  3  0  0  0  0  0  0
    0.1847    1.5804    0.3426 C   0  0  0  0  0  0  0  0  0  0  0  0
   -1.2713    1.7347    0.1006 N   0  0  0  0  0  0  0  0  0  0  0  0
   -1.9689    1.1154    0.8418 O   0  0  0  0  0  0  0  0  0  0  0  0
    1.6402    0.8426    1.7829 H   0  0  0  0  0  0  0  0  0  0  0  0
   -0.0845    0.7991    2.3743 H   0  0  0  0  0  0  0  0  0  0  0  0
    0.5742    2.6053    0.3762 H   0  0  0  0  0  0  0  0  0  0  0  0
    0.5548    1.1513   -0.5976 H   0  0  0  0  0  0  0  0  0  0  0  0
    0.0348   -2.2224   -2.8865 C   0  0  0  0  0  0  0  0  0  0  0  0
    0.1601   -2.3648   -1.4097 C   0  0  0  0  0  0  0  0  0  0  0  0
    0.2988   -1.3398   -0.6765 N   0  0  0  0  0  0  0  0  0  0  0  0
    0.3993   -1.5758    0.6347 O   0  0  0  0  0  0  0  0  0  0  0  0
    0.8370   -2.7625   -3.3949 H   0  0  0  0  0  0  0  0  0  0  0  0
   -0.9105   -2.6468   -3.2328 H   0  0  0  0  0  0  0  0  0  0  0  0
    0.0762   -1.1729   -3.1739 H   0  0  0  0  0  0  0  0  0  0  0  0
    0.1288   -3.3579   -0.9615 H   0  0  0  0  0  0  0  0  0  0  0  0
    0.4757   -0.5061    1.1353 H   0  0  0  0  0  0  0  0  0  0  0  0
  1  2  1  0
  1  5  1  0
  1  6  1  0
  2  3  1  0
  2  7  1  0
  2  8  1  0
  3  4  2  0
  9 10  1  0
  9 13  1  0
  9 14  1  0
  9 15  1  0
 10 11  2  3
 10 16  1  0
 11 12  1  0
 12 17  1  0
M  RAD  1   1   2
M  END
>  <reaction>  (4) 
rmg_rxn_174

>  <mol_properties>  (4) 
{"0": {"label": "*3", "atom_type": "Cs"}, "1": {"label": "*4", "atom_type": "Cs"}, "10": {"label": "*0", "atom_type": "N3d"}, "11": {"label": "*1", "atom_type": "O2s"}, "16": {"label": "*2", "atom_type": "H0"}}

>  <type>  (4) 
ts

$$$$

     RDKit          3D

 17 15  0  0  0  0  0  0  0  0999 V2000
    0.2669    1.0064    0.6309 C   0  0  0  0  0  3  0  0  0  0  0  0
   -0.9656    1.2151    1.4788 C   0  0  0  0  0  0  0  0  0  0  0  0
   -0.7903    2.0049    2.7214 N   0  0  0  0  0  0  0  0  0  0  0  0
    0.3223    2.3910    2.9116 O   0  0  0  0  0  0  0  0  0  0  0  0
    0.6828    1.9573    0.2986 H   0  0  0  0  0  0  0  0  0  0  0  0
    1.0434    0.4807    1.1863 H   0  0  0  0  0  0  0  0  0  0  0  0
   -1.7669    1.7379    0.9464 H   0  0  0  0  0  0  0  0  0  0  0  0
   -1.4099    0.2762    1.8251 H   0  0  0  0  0  0  0  0  0  0  0  0
    0.2669   -2.1671   -3.7725 C   0  0  0  0  0  0  0  0  0  0  0  0
    0.2669   -2.1671   -2.2838 C   0  0  0  0  0  0  0  0  0  0  0  0
    0.2669   -1.0750   -1.6470 N   0  0  0  0  0  0  0  0  0  0  0  0
    0.2669   -1.2797   -0.2738 O   0  0  0  0  0  0  0  0  0  0  0  0
    1.1463   -2.6909   -4.1543 H   0  0  0  0  0  0  0  0  0  0  0  0
   -0.6125   -2.6909   -4.1543 H   0  0  0  0  0  0  0  0  0  0  0  0
    0.2669   -1.1474   -4.1539 H   0  0  0  0  0  0  0  0  0  0  0  0
    0.2669   -3.1146   -1.7437 H   0  0  0  0  0  0  0  0  0  0  0  0
    0.2669   -0.2100    0.1495 H   0  0  0  0  0  0  0  0  0  0  0  0
  1  2  1  0
  1  5  1  0
  1  6  1  0
  2  3  1  0
  2  7  1  0
  2  8  1  0
  3  4  2  0
  9 10  1  0
  9 13  1  0
  9 14  1  0
  9 15  1  0
 10 11  2  3
 10 16  1  0
 11 12  1  0
 12 17  1  0
M  RAD  1   1   2
M  END
>  <reaction>  (5) 
rmg_rxn_174

>  <mol_properties>  (5) 
{"0": {"label": "*3", "atom_type": "Cs"}, "1": {"label": "*4", "atom_type": "Cs"}, "10": {"label": "*0", "atom_type": "N3d"}, "11": {"label": "*1", "atom_type": "O2s"}, "16": {"label": "*2", "atom_type": "H0"}}

>  <type>  (5) 
unop_1

>  <geom_source>  (5) 
Heuristics

$$$$

     RDKit          3D

 17 15  0  0  0  0  0  0  0  0999 V2000
    0.3516    0.6364    1.3576 C   0  0  0  0  0  3  0  0  0  0  0  0
   -0.3600    1.5605    0.3979 C   0  0  0  0  0  0  0  0  0  0  0  0
   -0.8198    2.8595    0.9453 N   0  0  0  0  0  0  0  0  0  0  0  0
   -0.5707    3.0281    2.0997 O   0  0  0  0  0  0  0  0  0  0  0  0
    1.2513    1.1018    1.7596 H   0  0  0  0  0  0  0  0  0  0  0  0
   -0.2891    0.3716    2.1986 H   0  0  0  0  0  0  0  0  0  0  0  0
    0.2574    1.8416   -0.4615 H   0  0  0  0  0  0  0  0  0  0  0  0
   -1.2673    1.1188   -0.0270 H   0  0  0  0  0  0  0  0  0  0  0  0
    0.3516   -2.5371   -3.0458 C   0  0  0  0  0  0  0  0  0  0  0  0
    0.3516   -2.5371   -1.5571 C   0  0  0  0  0  0  0  0  0  0  0  0
    0.3516   -1.4450   -0.9203 N   0  0  0  0  0  0  0  0  0  0  0  0
    0.3516   -1.6497    0.4529 O   0  0  0  0  0  0  0  0  0  0  0  0
    1.2310   -3.0609   -3.4276 H   0  0  0  0  0  0  0  0  0  0  0  0
   -0.5278   -3.0609   -3.4276 H   0  0  0  0  0  0  0  0  0  0  0  0
    0.3516   -1.5174   -3.4272 H   0  0  0  0  0  0  0  0  0  0  0  0
    0.3516   -3.4846   -1.0170 H   0  0  0  0  0  0  0  0  0  0  0  0
    0.3516   -0.5800    0.8762 H   0  0  0  0  0  0  0  0  0  0  0  0
  1  2  1  0
  1  5  1  0
  1  6  1  0
  2  3  1  0
  2  7  1  0
  2  8  1  0
  3  4  2  0
  9 10  1  0
  9 13  1  0
  9 14  1  0
  9 15  1  0
 10 11  2  3
 10 16  1  0
 11 12  1  0
 12 17  1  0
M  RAD  1   1   2
M  END
>  <reaction>  (6) 
rmg_rxn_174

>  <mol_properties>  (6) 
{"0": {"label": "*3", "atom_type": "Cs"}, "1": {"label": "*4", "atom_type": "Cs"}, "10": {"label": "*0", "atom_type": "N3d"}, "11": {"label": "*1", "atom_type": "O2s"}, "16": {"label": "*2", "atom_type": "H0"}}

>  <type>  (6) 
unop_2

>  <geom_source>  (6) 
Heuristics

$$$$

     RDKit          3D

 17 15  0  0  0  0  0  0  0  0999 V2000
    0.0412    0.9679    0.5998 C   0  0  0  0  0  3  0  0  0  0  0  0
   -0.6703    0.9849    1.9320 C   0  0  0  0  0  0  0  0  0  0  0  0
   -0.2485    2.0293    2.8963 N   0  0  0  0  0  0  0  0  0  0  0  0
    0.6186    2.7477    2.5026 O   0  0  0  0  0  0  0  0  0  0  0  0
   -0.0961    1.9087    0.0671 H   0  0  0  0  0  0  0  0  0  0  0  0
    1.1123    0.8117    0.7266 H   0  0  0  0  0  0  0  0  0  0  0  0
   -1.7506    1.1359    1.8374 H   0  0  0  0  0  0  0  0  0  0  0  0
   -0.5545    0.0501    2.4901 H   0  0  0  0  0  0  0  0  0  0  0  0
    0.0412   -2.2056   -3.8037 C   0  0  0  0  0  0  0  0  0  0  0  0
    0.0412   -2.2056   -2.3150 C   0  0  0  0  0  0  0  0  0  0  0  0
    0.0412   -1.1135   -1.6782 N   0  0  0  0  0  0  0  0  0  0  0  0
    0.0412   -1.3182   -0.3050 O   0  0  0  0  0  0  0  0  0  0  0  0
    0.9207   -2.7294   -4.1855 H   0  0  0  0  0  0  0  0  0  0  0  0
   -0.8382   -2.7294   -4.1855 H   0  0  0  0  0  0  0  0  0  0  0  0
    0.0412   -1.1859   -4.1851 H   0  0  0  0  0  0  0  0  0  0  0  0
    0.0412   -3.1531   -1.7749 H   0  0  0  0  0  0  0  0  0  0  0  0
    0.0412   -0.2485    0.1183 H   0  0  0  0  0  0  0  0  0  0  0  0
  1  2  1  0
  1  5  1  0
  1  6  1  0
  2  3  1  0
  2  7  1  0
  2  8  1  0
  3  4  2  0
  9 10  1  0
  9 13  1  0
  9 14  1  0
  9 15  1  0
 10 11  2  3
 10 16  1  0
 11 12  1  0
 12 17  1  0
M  RAD  1   1   2
M  END
>  <reaction>  (7) 
rmg_rxn_174

>  <mol_properties>  (7) 
{"0": {"label": "*3", "atom_type": "Cs"}, "1": {"label": "*4", "atom_type": "Cs"}, "10": {"label": "*0", "atom_type": "N3d"}, "11": {"label": "*1", "atom_type": "O2s"}, "16": {"label": "*2", "atom_type": "H0"}}

>  <type>  (7) 
unop_3

>  <geom_source>  (7) 
Heuristics

$$$$

     RDKit          3D

 17 15  0  0  0  0  0  0  0  0999 V2000
   -0.5268    0.7864    1.0975 C   0  0  0  0  0  3  0  0  0  0  0  0
    0.7057    1.5189    0.6221 C   0  0  0  0  0  0  0  0  0  0  0  0
    1.2687    2.5368    1.5416 N   0  0  0  0  0  0  0  0  0  0  0  0
    0.6737    2.6622    2.5679 O   0  0  0  0  0  0  0  0  0  0  0  0
   -0.3319    0.2459    2.0235 H   0  0  0  0  0  0  0  0  0  0  0  0
   -1.3491    1.4771    1.2833 H   0  0  0  0  0  0  0  0  0  0  0  0
    1.5494    0.8503    0.4223 H   0  0  0  0  0  0  0  0  0  0  0  0
    0.5426    2.0691   -0.3104 H   0  0  0  0  0  0  0  0  0  0  0  0
   -0.5268   -2.3870   -3.3059 C   0  0  0  0  0  0  0  0  0  0  0  0
   -0.5268   -2.3870   -1.8173 C   0  0  0  0  0  0  0  0  0  0  0  0
   -0.5268   -1.2949   -1.1805 N   0  0  0  0  0  0  0  0  0  0  0  0
   -0.5268   -1.4996    0.1927 O   0  0  0  0  0  0  0  0  0  0  0  0
    0.3526   -2.9108   -3.6877 H   0  0  0  0  0  0  0  0  0  0  0  0
   -1.4062   -2.9108   -3.6877 H   0  0  0  0  0  0  0  0  0  0  0  0
   -0.5268   -1.3673   -3.6874 H   0  0  0  0  0  0  0  0  0  0  0  0
   -0.5268   -3.3345   -1.2771 H   0  0  0  0  0  0  0  0  0  0  0  0
   -0.5268   -0.4300    0.6161 H   0  0  0  0  0  0  0  0  0  0  0  0
  1  2  1  0
  1  5  1  0
  1  6  1  0
  2  3  1  0
  2  7  1  0
  2  8  1  0
  3  4  2  0
  9 10  1  0
  9 13  1  0
  9 14  1  0
  9 15  1  0
 10 11  2  3
 10 16  1  0
 11 12  1  0
 12 17  1  0
M  RAD  1   1   2
M  END
>  <reaction>  (8) 
rmg_rxn_174

>  <mol_properties>  (8) 
{"0": {"label": "*3", "atom_type": "Cs"}, "1": {"label": "*4", "atom_type": "Cs"}, "10": {"label": "*0", "atom_type": "N3d"}, "11": {"label": "*1", "atom_type": "O2s"}, "16": {"label": "*2", "atom_type": "H0"}}

>  <type>  (8) 
unop_4

>  <geom_source>  (8) 
Heuristics

$$$$

     RDKit          3D

 17 15  0  0  0  0  0  0  0  0999 V2000
    0.0000    0.8960    0.6421 C   0  0  0  0  0  3  0  0  0  0  0  0
    0.0000    0.8428    2.1516 C   0  0  0  0  0  0  0  0  0  0  0  0
    0.0000    2.1446    2.8614 N   0  0  0  0  0  0  0  0  0  0  0  0
    0.0000    3.0999    2.1469 O   0  0  0  0  0  0  0  0  0  0  0  0
   -0.8801    1.4169    0.2657 H   0  0  0  0  0  0  0  0  0  0  0  0
    0.8801    1.4169    0.2657 H   0  0  0  0  0  0  0  0  0  0  0  0
   -0.8712    0.3208    2.5607 H   0  0  0  0  0  0  0  0  0  0  0  0
    0.8712    0.3208    2.5607 H   0  0  0  0  0  0  0  0  0  0  0  0
   -0.0000   -2.2775   -3.7614 C   0  0  0  0  0  0  0  0  0  0  0  0
   -0.0000   -2.2775   -2.2727 C   0  0  0  0  0  0  0  0  0  0  0  0
   -0.0000   -1.1854   -1.6359 N   0  0  0  0  0  0  0  0  0  0  0  0
   -0.0000   -1.3901   -0.2627 O   0  0  0  0  0  0  0  0  0  0  0  0
    0.8794   -2.8013   -4.1432 H   0  0  0  0  0  0  0  0  0  0  0  0
   -0.8794   -2.8013   -4.1432 H   0  0  0  0  0  0  0  0  0  0  0  0
   -0.0000   -1.2578   -4.1428 H   0  0  0  0  0  0  0  0  0  0  0  0
   -0.0000   -3.2250   -1.7326 H   0  0  0  0  0  0  0  0  0  0  0  0
   -0.0000   -0.3204    0.1606 H   0  0  0  0  0  0  0  0  0  0  0  0
  1  2  1  0
  1  5  1  0
  1  6  1  0
  2  3  1  0
  2  7  1  0
  2  8  1  0
  3  4  2  0
  9 10  1  0
  9 13  1  0
  9 14  1  0
  9 15  1  0
 10 11  2  3
 10 16  1  0
 11 12  1  0
 12 17  1  0
M  RAD  1   1   2
M  END
>  <reaction>  (9) 
rmg_rxn_174

>  <mol_properties>  (9) 
{"0": {"label": "*3", "atom_type": "Cs"}, "1": {"label": "*4", "atom_type": "Cs"}, "10": {"label": "*0", "atom_type": "N3d"}, "11": {"label": "*1", "atom_type": "O2s"}, "16": {"label": "*2", "atom_type": "H0"}}

>  <type>  (9) 
unop_5

>  <geom_source>  (9) 
Heuristics

$$$$

     RDKit          3D

 17 15  0  0  0  0  0  0  0  0999 V2000
   -0.4781    0.9325    0.8168 C   0  0  0  0  0  3  0  0  0  0  0  0
    0.9451    1.4031    1.0031 C   0  0  0  0  0  0  0  0  0  0  0  0
    1.2253    2.2045    2.2187 N   0  0  0  0  0  0  0  0  0  0  0  0
    0.2789    2.3884    2.9214 O   0  0  0  0  0  0  0  0  0  0  0  0
   -0.7960    0.2998    1.6453 H   0  0  0  0  0  0  0  0  0  0  0  0
   -1.1676    1.7744    0.7588 H   0  0  0  0  0  0  0  0  0  0  0  0
    1.6634    0.5788    1.0607 H   0  0  0  0  0  0  0  0  0  0  0  0
    1.2956    2.0385    0.1832 H   0  0  0  0  0  0  0  0  0  0  0  0
   -0.4781   -2.2410   -3.5866 C   0  0  0  0  0  0  0  0  0  0  0  0
   -0.4781   -2.2410   -2.0979 C   0  0  0  0  0  0  0  0  0  0  0  0
   -0.4781   -1.1489   -1.4611 N   0  0  0  0  0  0  0  0  0  0  0  0
   -0.4781   -1.3536   -0.0879 O   0  0  0  0  0  0  0  0  0  0  0  0
    0.4013   -2.7648   -3.9684 H   0  0  0  0  0  0  0  0  0  0  0  0
   -1.3575   -2.7648   -3.9684 H   0  0  0  0  0  0  0  0  0  0  0  0
   -0.4781   -1.2213   -3.9680 H   0  0  0  0  0  0  0  0  0  0  0  0
   -0.4781   -3.1885   -1.5578 H   0  0  0  0  0  0  0  0  0  0  0  0
   -0.4781   -0.2839    0.3354 H   0  0  0  0  0  0  0  0  0  0  0  0
  1  2  1  0
  1  5  1  0
  1  6  1  0
  2  3  1  0
  2  7  1  0
  2  8  1  0
  3  4  2  0
  9 10  1  0
  9 13  1  0
  9 14  1  0
  9 15  1  0
 10 11  2  3
 10 16  1  0
 11 12  1  0
 12 17  1  0
M  RAD  1   1   2
M  END
>  <reaction>  (10) 
rmg_rxn_174

>  <mol_properties>  (10) 
{"0": {"label": "*3", "atom_type": "Cs"}, "1": {"label": "*4", "atom_type": "Cs"}, "10": {"label": "*0", "atom_type": "N3d"}, "11": {"label": "*1", "atom_type": "O2s"}, "16": {"label": "*2", "atom_type": "H0"}}

>  <type>  (10) 
unop_6

>  <geom_source>  (10) 
Heuristics

$$$$

     RDKit          3D

 17 15  0  0  0  0  0  0  0  0999 V2000
   -0.2669    1.0064    0.6309 C   0  0  0  0  0  3  0  0  0  0  0  0
    0.9656    1.2151    1.4788 C   0  0  0  0  0  0  0  0  0  0  0  0
    0.7903    2.0049    2.7214 N   0  0  0  0  0  0  0  0  0  0  0  0
   -0.3223    2.3910    2.9116 O   0  0  0  0  0  0  0  0  0  0  0  0
   -1.0434    0.4807    1.1863 H   0  0  0  0  0  0  0  0  0  0  0  0
   -0.6827    1.9573    0.2986 H   0  0  0  0  0  0  0  0  0  0  0  0
    1.4099    0.2762    1.8251 H   0  0  0  0  0  0  0  0  0  0  0  0
    1.7669    1.7379    0.9464 H   0  0  0  0  0  0  0  0  0  0  0  0
   -0.2669   -2.1671   -3.7725 C   0  0  0  0  0  0  0  0  0  0  0  0
   -0.2669   -2.1671   -2.2838 C   0  0  0  0  0  0  0  0  0  0  0  0
   -0.2669   -1.0750   -1.6470 N   0  0  0  0  0  0  0  0  0  0  0  0
   -0.2669   -1.2797   -0.2738 O   0  0  0  0  0  0  0  0  0  0  0  0
    0.6125   -2.6909   -4.1543 H   0  0  0  0  0  0  0  0  0  0  0  0
   -1.1463   -2.6909   -4.1543 H   0  0  0  0  0  0  0  0  0  0  0  0
   -0.2669   -1.1474   -4.1539 H   0  0  0  0  0  0  0  0  0  0  0  0
   -0.2669   -3.1146   -1.7437 H   0  0  0  0  0  0  0  0  0  0  0  0
   -0.2669   -0.2100    0.1495 H   0  0  0  0  0  0  0  0  0  0  0  0
  1  2  1  0
  1  5  1  0
  1  6  1  0
  2  3  1  0
  2  7  1  0
  2  8  1  0
  3  4  2  0
  9 10  1  0
  9 13  1  0
  9 14  1  0
  9 15  1  0
 10 11  2  3
 10 16  1  0
 11 12  1  0
 12 17  1  0
M  RAD  1   1   2
M  END
>  <reaction>  (11) 
rmg_rxn_174

>  <mol_properties>  (11) 
{"0": {"label": "*3", "atom_type": "Cs"}, "1": {"label": "*4", "atom_type": "Cs"}, "10": {"label": "*0", "atom_type": "N3d"}, "11": {"label": "*1", "atom_type": "O2s"}, "16": {"label": "*2", "atom_type": "H0"}}

>  <type>  (11) 
unop_7

>  <geom_source>  (11) 
Heuristics

$$$$

     RDKit          3D

 17 15  0  0  0  0  0  0  0  0999 V2000
    0.4781    0.9325    0.8168 C   0  0  0  0  0  3  0  0  0  0  0  0
   -0.9451    1.4031    1.0031 C   0  0  0  0  0  0  0  0  0  0  0  0
   -1.2253    2.2045    2.2187 N   0  0  0  0  0  0  0  0  0  0  0  0
   -0.2789    2.3884    2.9214 O   0  0  0  0  0  0  0  0  0  0  0  0
    1.1676    1.7744    0.7588 H   0  0  0  0  0  0  0  0  0  0  0  0
    0.7960    0.2998    1.6453 H   0  0  0  0  0  0  0  0  0  0  0  0
   -1.2956    2.0385    0.1832 H   0  0  0  0  0  0  0  0  0  0  0  0
   -1.6634    0.5788    1.0607 H   0  0  0  0  0  0  0  0  0  0  0  0
    0.4781   -2.2410   -3.5866 C   0  0  0  0  0  0  0  0  0  0  0  0
    0.4781   -2.2410   -2.0979 C   0  0  0  0  0  0  0  0  0  0  0  0
    0.4781   -1.1489   -1.4611 N   0  0  0  0  0  0  0  0  0  0  0  0
    0.4781   -1.3536   -0.0879 O   0  0  0  0  0  0  0  0  0  0  0  0
    1.3575   -2.7648   -3.9684 H   0  0  0  0  0  0  0  0  0  0  0  0
   -0.4013   -2.7648   -3.9684 H   0  0  0  0  0  0  0  0  0  0  0  0
    0.4781   -1.2213   -3.9680 H   0  0  0  0  0  0  0  0  0  0  0  0
    0.4781   -3.1885   -1.5578 H   0  0  0  0  0  0  0  0  0  0  0  0
    0.4781   -0.2839    0.3354 H   0  0  0  0  0  0  0  0  0  0  0  0
  1  2  1  0
  1  5  1  0
  1  6  1  0
  2  3  1  0
  2  7  1  0
  2  8  1  0
  3  4  2  0
  9 10  1  0
  9 13  1  0
  9 14  1  0
  9 15  1  0
 10 11  2  3
 10 16  1  0
 11 12  1  0
 12 17  1  0
M  RAD  1   1   2
M  END
>  <reaction>  (12) 
rmg_rxn_174

>  <mol_properties>  (12) 
{"0": {"label": "*3", "atom_type": "Cs"}, "1": {"label": "*4", "atom_type": "Cs"}, "10": {"label": "*0", "atom_type": "N3d"}, "11": {"label": "*1", "atom_type": "O2s"}, "16": {"label": "*2", "atom_type": "H0"}}

>  <type>  (12) 
unop_8

>  <geom_source>  (12) 
Heuristics

$$$$

     RDKit          3D

 17 15  0  0  0  0  0  0  0  0999 V2000
   -0.3516    0.6364    1.3576 C   0  0  0  0  0  3  0  0  0  0  0  0
    0.3600    1.5605    0.3979 C   0  0  0  0  0  0  0  0  0  0  0  0
    0.8198    2.8595    0.9453 N   0  0  0  0  0  0  0  0  0  0  0  0
    0.5707    3.0281    2.0997 O   0  0  0  0  0  0  0  0  0  0  0  0
    0.2891    0.3716    2.1986 H   0  0  0  0  0  0  0  0  0  0  0  0
   -1.2513    1.1018    1.7596 H   0  0  0  0  0  0  0  0  0  0  0  0
    1.2673    1.1188   -0.0270 H   0  0  0  0  0  0  0  0  0  0  0  0
   -0.2574    1.8416   -0.4615 H   0  0  0  0  0  0  0  0  0  0  0  0
   -0.3516   -2.5371   -3.0458 C   0  0  0  0  0  0  0  0  0  0  0  0
   -0.3516   -2.5371   -1.5571 C   0  0  0  0  0  0  0  0  0  0  0  0
   -0.3516   -1.4450   -0.9203 N   0  0  0  0  0  0  0  0  0  0  0  0
   -0.3516   -1.6497    0.4529 O   0  0  0  0  0  0  0  0  0  0  0  0
    0.5278   -3.0609   -3.4276 H   0  0  0  0  0  0  0  0  0  0  0  0
   -1.2310   -3.0609   -3.4276 H   0  0  0  0  0  0  0  0  0  0  0  0
   -0.3516   -1.5174   -3.4272 H   0  0  0  0  0  0  0  0  0  0  0  0
   -0.3516   -3.4846   -1.0170 H   0  0  0  0  0  0  0  0  0  0  0  0
   -0.3516   -0.5800    0.8762 H   0  0  0  0  0  0  0  0  0  0  0  0
  1  2  1  0
  1  5  1  0
  1  6  1  0
  2  3  1  0
  2  7  1  0
  2  8  1  0
  3  4  2  0
  9 10  1  0
  9 13  1  0
  9 14  1  0
  9 15  1  0
 10 11  2  3
 10 16  1  0
 11 12  1  0
 12 17  1  0
M  RAD  1   1   2
M  END
>  <reaction>  (13) 
rmg_rxn_174

>  <mol_properties>  (13) 
{"0": {"label": "*3", "atom_type": "Cs"}, "1": {"label": "*4", "atom_type": "Cs"}, "10": {"label": "*0", "atom_type": "N3d"}, "11": {"label": "*1", "atom_type": "O2s"}, "16": {"label": "*2", "atom_type": "H0"}}

>  <type>  (13) 
unop_9

>  <geom_source>  (13) 
Heuristics

$$$$

     RDKit          3D

 17 15  0  0  0  0  0  0  0  0999 V2000
    0.5268    0.7864    1.0975 C   0  0  0  0  0  3  0  0  0  0  0  0
   -0.7057    1.5189    0.6221 C   0  0  0  0  0  0  0  0  0  0  0  0
   -1.2687    2.5368    1.5416 N   0  0  0  0  0  0  0  0  0  0  0  0
   -0.6737    2.6622    2.5679 O   0  0  0  0  0  0  0  0  0  0  0  0
    1.3491    1.4771    1.2833 H   0  0  0  0  0  0  0  0  0  0  0  0
    0.3319    0.2459    2.0235 H   0  0  0  0  0  0  0  0  0  0  0  0
   -0.5425    2.0691   -0.3104 H   0  0  0  0  0  0  0  0  0  0  0  0
   -1.5494    0.8503    0.4223 H   0  0  0  0  0  0  0  0  0  0  0  0
    0.5268   -2.3870   -3.3059 C   0  0  0  0  0  0  0  0  0  0  0  0
    0.5268   -2.3870   -1.8173 C   0  0  0  0  0  0  0  0  0  0  0  0
    0.5268   -1.2949   -1.1805 N   0  0  0  0  0  0  0  0  0  0  0  0
    0.5268   -1.4996    0.1927 O   0  0  0  0  0  0  0  0  0  0  0  0
    1.4062   -2.9108   -3.6877 H   0  0  0  0  0  0  0  0  0  0  0  0
   -0.3526   -2.9108   -3.6877 H   0  0  0  0  0  0  0  0  0  0  0  0
    0.5268   -1.3673   -3.6874 H   0  0  0  0  0  0  0  0  0  0  0  0
    0.5268   -3.3345   -1.2771 H   0  0  0  0  0  0  0  0  0  0  0  0
    0.5268   -0.4300    0.6161 H   0  0  0  0  0  0  0  0  0  0  0  0
  1  2  1  0
  1  5  1  0
  1  6  1  0
  2  3  1  0
  2  7  1  0
  2  8  1  0
  3  4  2  0
  9 10  1  0
  9 13  1  0
  9 14  1  0
  9 15  1  0
 10 11  2  3
 10 16  1  0
 11 12  1  0
 12 17  1  0
M  RAD  1   1   2
M  END
>  <reaction>  (14) 
rmg_rxn_174

>  <mol_properties>  (14) 
{"0": {"label": "*3", "atom_type": "Cs"}, "1": {"label": "*4", "atom_type": "Cs"}, "10": {"label": "*0", "atom_type": "N3d"}, "11": {"label": "*1", "atom_type": "O2s"}, "16": {"label": "*2", "atom_type": "H0"}}

>  <type>  (14) 
unop_10

>  <geom_source>  (14) 
Heuristics

$$$$

     RDKit          3D

 17 15  0  0  0  0  0  0  0  0999 V2000
   -0.0412    0.9679    0.5998 C   0  0  0  0  0  3  0  0  0  0  0  0
    0.6703    0.9849    1.9320 C   0  0  0  0  0  0  0  0  0  0  0  0
    0.2485    2.0293    2.8963 N   0  0  0  0  0  0  0  0  0  0  0  0
   -0.6186    2.7477    2.5026 O   0  0  0  0  0  0  0  0  0  0  0  0
   -1.1123    0.8117    0.7266 H   0  0  0  0  0  0  0  0  0  0  0  0
    0.0961    1.9087    0.0671 H   0  0  0  0  0  0  0  0  0  0  0  0
    0.5545    0.0501    2.4901 H   0  0  0  0  0  0  0  0  0  0  0  0
    1.7507    1.1359    1.8374 H   0  0  0  0  0  0  0  0  0  0  0  0
   -0.0412   -2.2056   -3.8037 C   0  0  0  0  0  0  0  0  0  0  0  0
   -0.0412   -2.2056   -2.3150 C   0  0  0  0  0  0  0  0  0  0  0  0
   -0.0412   -1.1135   -1.6782 N   0  0  0  0  0  0  0  0  0  0  0  0
   -0.0412   -1.3182   -0.3050 O   0  0  0  0  0  0  0  0  0  0  0  0
    0.8382   -2.7294   -4.1855 H   0  0  0  0  0  0  0  0  0  0  0  0
   -0.9207   -2.7294   -4.1855 H   0  0  0  0  0  0  0  0  0  0  0  0
   -0.0412   -1.1859   -4.1851 H   0  0  0  0  0  0  0  0  0  0  0  0
   -0.0412   -3.1531   -1.7749 H   0  0  0  0  0  0  0  0  0  0  0  0
   -0.0412   -0.2485    0.1183 H   0  0  0  0  0  0  0  0  0  0  0  0
  1  2  1  0
  1  5  1  0
  1  6  1  0
  2  3  1  0
  2  7  1  0
  2  8  1  0
  3  4  2  0
  9 10  1  0
  9 13  1  0
  9 14  1  0
  9 15  1  0
 10 11  2  3
 10 16  1  0
 11 12  1  0
 12 17  1  0
M  RAD  1   1   2
M  END
>  <reaction>  (15) 
rmg_rxn_174

>  <mol_properties>  (15) 
{"0": {"label": "*3", "atom_type": "Cs"}, "1": {"label": "*4", "atom_type": "Cs"}, "10": {"label": "*0", "atom_type": "N3d"}, "11": {"label": "*1", "atom_type": "O2s"}, "16": {"label": "*2", "atom_type": "H0"}}

>  <type>  (15) 
unop_11

>  <geom_source>  (15) 
Heuristics

$$$$

     RDKit          3D

 17 15  0  0  0  0  0  0  0  0999 V2000
    0.0000    0.5698    1.4662 C   0  0  0  0  0  3  0  0  0  0  0  0
    0.0000    1.5641    0.3291 C   0  0  0  0  0  0  0  0  0  0  0  0
    0.0000    2.9991    0.7025 N   0  0  0  0  0  0  0  0  0  0  0  0
    0.0000    3.2066    1.8772 O   0  0  0  0  0  0  0  0  0  0  0  0
    0.8801    0.6920    2.0971 H   0  0  0  0  0  0  0  0  0  0  0  0
   -0.8801    0.6920    2.0971 H   0  0  0  0  0  0  0  0  0  0  0  0
    0.8712    1.4634   -0.3264 H   0  0  0  0  0  0  0  0  0  0  0  0
   -0.8712    1.4634   -0.3264 H   0  0  0  0  0  0  0  0  0  0  0  0
   -0.0000   -2.6037   -2.9373 C   0  0  0  0  0  0  0  0  0  0  0  0
   -0.0000   -2.6037   -1.4486 C   0  0  0  0  0  0  0  0  0  0  0  0
   -0.0000   -1.5116   -0.8118 N   0  0  0  0  0  0  0  0  0  0  0  0
   -0.0000   -1.7163    0.5614 O   0  0  0  0  0  0  0  0  0  0  0  0
    0.8794   -3.1275   -3.3191 H   0  0  0  0  0  0  0  0  0  0  0  0
   -0.8794   -3.1275   -3.3191 H   0  0  0  0  0  0  0  0  0  0  0  0
   -0.0000   -1.5840   -3.3187 H   0  0  0  0  0  0  0  0  0  0  0  0
   -0.0000   -3.5512   -0.9085 H   0  0  0  0  0  0  0  0  0  0  0  0
   -0.0000   -0.6466    0.9848 H   0  0  0  0  0  0  0  0  0  0  0  0
  1  2  1  0
  1  5  1  0
  1  6  1  0
  2  3  1  0
  2  7  1  0
  2  8  1  0
  3  4  2  0
  9 10  1  0
  9 13  1  0
  9 14  1  0
  9 15  1  0
 10 11  2  3
 10 16  1  0
 11 12  1  0
 12 17  1  0
M  RAD  1   1   2
M  END
>  <reaction>  (16) 
rmg_rxn_174

>  <mol_properties>  (16) 
{"0": {"label": "*3", "atom_type": "Cs"}, "1": {"label": "*4", "atom_type": "Cs"}, "10": {"label": "*0", "atom_type": "N3d"}, "11": {"label": "*1", "atom_type": "O2s"}, "16": {"label": "*2", "atom_type": "H0"}}

>  <type>  (16) 
unop_12

>  <geom_source>  (16) 
Heuristics

$$$$

     RDKit          3D

 17 15  0  0  0  0  0  0  0  0999 V2000
   -4.2282    1.3053   -0.0465 O   0  0  0  0  0  1  0  0  0  0  0  0
    0.6093   -0.3262    1.0773 O   0  0  0  0  0  1  0  0  0  0  0  0
   -3.7178    0.4792   -0.7414 N   0  0  0  0  0  2  0  0  0  0  0  0
    1.7200   -1.1321    1.1859 N   0  0  0  0  0  2  0  0  0  0  0  0
   -2.2830    0.3417   -0.7906 C   0  0  0  0  0  0  0  0  0  0  0  0
   -1.7479   -0.1879    0.5347 C   0  0  0  0  0  0  0  0  0  0  0  0
    2.9174    0.2759   -0.4088 C   0  0  0  0  0  0  0  0  0  0  0  0
    2.8055   -0.8921    0.5194 C   0  0  0  0  0  3  0  0  0  0  0  0
   -2.0173   -0.3708   -1.5996 H   0  0  0  0  0  0  0  0  0  0  0  0
   -1.8178    1.3247   -1.0204 H   0  0  0  0  0  0  0  0  0  0  0  0
   -0.5572   -0.3289    0.4586 H   0  0  0  0  0  0  0  0  0  0  0  0
   -1.9709    0.5281    1.3540 H   0  0  0  0  0  0  0  0  0  0  0  0
   -2.2113   -1.1699    0.7692 H   0  0  0  0  0  0  0  0  0  0  0  0
    2.1546    0.1949   -1.2114 H   0  0  0  0  0  0  0  0  0  0  0  0
    3.9261    0.2914   -0.8720 H   0  0  0  0  0  0  0  0  0  0  0  0
    2.7658    1.2211    0.1536 H   0  0  0  0  0  0  0  0  0  0  0  0
    3.6530   -1.5545    0.6380 H   0  0  0  0  0  0  0  0  0  0  0  0
  1  3  1  0
  2  4  1  0
  3  5  1  0
  4  8  1  0
  5 10  1  0
  5  9  1  0
  5  6  1  0
  6 12  1  0
  6 11  1  0
  6 13  1  0
  7 14  1  0
  7  8  1  0
  7 16  1  0
  7 15  1  0
  8 17  1  0
M  RAD  5   1   2   2   2   3   2   4   2   8   2
M  END
>  <reaction>  (17) 
rmg_rxn_174

>  <mol_properties>  (17) 
{"0": {"label": "*3", "atom_type": "Cs"}, "1": {"label": "*4", "atom_type": "Cs"}, "10": {"label": "*0", "atom_type": "N3d"}, "11": {"label": "*1", "atom_type": "O2s"}, "16": {"label": "*2", "atom_type": "H0"}}

>  <type>  (17) 
unop_13

>  <geom_source>  (17) 
AutoTST

$$$$

     RDKit          3D

 17 15  0  0  0  0  0  0  0  0999 V2000
    0.3516    0.6364    1.3576 C   0  0  0  0  0  3  0  0  0  0  0  0
   -0.3600    1.5605    0.3979 C   0  0  0  0  0  0  0  0  0  0  0  0
   -0.8198    2.8595    0.9453 N   0  0  0  0  0  0  0  0  0  0  0  0
   -0.5707    3.0281    2.0997 O   0  0  0  0  0  0  0  0  0  0  0  0
    1.2513    1.1018    1.7596 H   0  0  0  0  0  0  0  0  0  0  0  0
   -0.2891    0.3716    2.1986 H   0  0  0  0  0  0  0  0  0  0  0  0
    0.2575    1.8416   -0.4615 H   0  0  0  0  0  0  0  0  0  0  0  0
   -1.2673    1.1188   -0.0270 H   0  0  0  0  0  0  0  0  0  0  0  0
    0.3516   -2.5371   -3.0458 C   0  0  0  0  0  0  0  0  0  0  0  0
    0.3516   -2.5371   -1.5571 C   0  0  0  0  0  0  0  0  0  0  0  0
    0.3516   -1.4450   -0.9203 N   0  0  0  0  0  0  0  0  0  0  0  0
    0.3516   -1.6497    0.4529 O   0  0  0  0  0  0  0  0  0  0  0  0
    1.2310   -3.0609   -3.4276 H   0  0  0  0  0  0  0  0  0  0  0  0
   -0.5278   -3.0609   -3.4276 H   0  0  0  0  0  0  0  0  0  0  0  0
    0.3516   -1.5174   -3.4272 H   0  0  0  0  0  0  0  0  0  0  0  0
    0.3516   -3.4846   -1.0170 H   0  0  0  0  0  0  0  0  0  0  0  0
    0.3516   -0.5800    0.8762 H   0  0  0  0  0  0  0  0  0  0  0  0
  1  2  1  0
  1  5  1  0
  1  6  1  0
  2  3  1  0
  2  7  1  0
  2  8  1  0
  3  4  2  0
  9 10  1  0
  9 13  1  0
  9 14  1  0
  9 15  1  0
 10 11  2  3
 10 16  1  0
 11 12  1  0
 12 17  1  0
M  RAD  1   1   2
M  END
>  <reaction>  (18) 
rmg_rxn_174

>  <mol_properties>  (18) 
{"0": {"label": "*3", "atom_type": "Cs"}, "1": {"label": "*4", "atom_type": "Cs"}, "10": {"label": "*0", "atom_type": "N3d"}, "11": {"label": "*1", "atom_type": "O2s"}, "16": {"label": "*2", "atom_type": "H0"}}

>  <type>  (18) 
unop_14

>  <geom_source>  (18) 
gaussian_log

$$$$
