
     RDKit          3D

 18 17  0  0  0  0  0  0  0  0999 V2000
    2.2026   -0.7213   -0.2612 C   0  0  0  0  0  0  0  0  0  0  0  0
    1.5384    0.2638    0.6915 C   0  0  0  0  0  0  0  0  0  0  0  0
    2.2584    1.5946    0.7694 C   0  0  0  0  0  0  0  0  0  0  0  0
    2.2212    2.2185   -0.4893 O   0  0  0  0  0  0  0  0  0  0  0  0
    2.8988    3.4488   -0.5204 C   0  0  0  0  0  0  0  0  0  0  0  0
    2.7981    4.0296   -1.9118 C   0  0  0  0  0  0  0  0  0  0  0  0
    3.2294   -0.9309    0.0486 H   0  0  0  0  0  0  0  0  0  0  0  0
    2.2338   -0.3181   -1.2734 H   0  0  0  0  0  0  0  0  0  0  0  0
    1.6610   -1.6680   -0.2875 H   0  0  0  0  0  0  0  0  0  0  0  0
    1.4990   -0.1566    1.7002 H   0  0  0  0  0  0  0  0  0  0  0  0
    0.5055    0.4455    0.3835 H   0  0  0  0  0  0  0  0  0  0  0  0
    3.3038    1.4410    1.0808 H   0  0  0  0  0  0  0  0  0  0  0  0
    1.7844    2.2410    1.5226 H   0  0  0  0  0  0  0  0  0  0  0  0
    2.4596    4.1376    0.2164 H   0  0  0  0  0  0  0  0  0  0  0  0
    3.9524    3.3035   -0.2397 H   0  0  0  0  0  0  0  0  0  0  0  0
    1.7543    4.1869   -2.1856 H   0  0  0  0  0  0  0  0  0  0  0  0
    3.2472    3.3545   -2.6411 H   0  0  0  0  0  0  0  0  0  0  0  0
    3.3178    4.9878   -1.9600 H   0  0  0  0  0  0  0  0  0  0  0  0
  1  2  1  0
  1  7  1  0
  1  8  1  0
  1  9  1  0
  2  3  1  0
  2 10  1  0
  2 11  1  0
  3  4  1  0
  3 12  1  0
  3 13  1  0
  4  5  1  0
  5  6  1  0
  5 14  1  0
  5 15  1  0
  6 16  1  0
  6 17  1  0
  6 18  1  0
M  END
>  <reaction>  (1) 
rmg_rxn_341

>  <mol_properties>  (1) 
{"4": {"label": "donator", "atom_type": "Cs"}, "13": {"label": "d_hydrogen", "atom_type": "H0"}}

>  <type>  (1) 
r1h

$$$$

     RDKit          3D

 17 16  0  0  0  0  0  0  0  0999 V2000
   -2.5196    0.7765    0.6863 C   0  0  0  0  0  0  0  0  0  0  0  0
   -1.7832    0.2264   -0.5439 C   0  0  0  0  0  0  0  0  0  0  0  0
   -0.5364   -0.5090   -0.2164 C   0  0  0  0  0  3  0  0  0  0  0  0
   -0.7195   -1.6896    0.4220 O   0  0  0  0  0  0  0  0  0  0  0  0
    0.4618   -2.3470    0.8423 C   0  0  0  0  0  0  0  0  0  0  0  0
    0.0797   -3.6206    1.5573 C   0  0  0  0  0  0  0  0  0  0  0  0
   -1.8902    1.4809    1.2340 H   0  0  0  0  0  0  0  0  0  0  0  0
   -3.4347    1.2951    0.3937 H   0  0  0  0  0  0  0  0  0  0  0  0
   -2.7882   -0.0345    1.3642 H   0  0  0  0  0  0  0  0  0  0  0  0
   -2.4551   -0.4399   -1.0937 H   0  0  0  0  0  0  0  0  0  0  0  0
   -1.5294    1.0480   -1.2176 H   0  0  0  0  0  0  0  0  0  0  0  0
    0.3864    0.0229    0.0104 H   0  0  0  0  0  0  0  0  0  0  0  0
    1.0871   -2.5604   -0.0319 H   0  0  0  0  0  0  0  0  0  0  0  0
    1.0283   -1.6824    1.5065 H   0  0  0  0  0  0  0  0  0  0  0  0
   -0.4799   -4.2803    0.8934 H   0  0  0  0  0  0  0  0  0  0  0  0
    0.9764   -4.1449    1.8908 H   0  0  0  0  0  0  0  0  0  0  0  0
   -0.5383   -3.4025    2.4289 H   0  0  0  0  0  0  0  0  0  0  0  0
  1  2  1  0
  1  7  1  0
  1  8  1  0
  1  9  1  0
  2  3  1  0
  2 10  1  0
  2 11  1  0
  3  4  1  0
  3 12  1  0
  4  5  1  0
  5  6  1  0
  5 13  1  0
  5 14  1  0
  6 15  1  0
  6 16  1  0
  6 17  1  0
M  RAD  1   3   2
M  END
>  <reaction>  (2) 
rmg_rxn_341

>  <mol_properties>  (2) 
{"2": {"label": "acceptor", "atom_type": "Cs"}}

>  <type>  (2) 
r2

$$$$

     RDKit          3D

 18 17  0  0  0  0  0  0  0  0999 V2000
    2.2026   -0.7213   -0.2612 C   0  0  0  0  0  0  0  0  0  0  0  0
    1.5384    0.2638    0.6915 C   0  0  0  0  0  0  0  0  0  0  0  0
    2.2584    1.5946    0.7694 C   0  0  0  0  0  0  0  0  0  0  0  0
    2.2212    2.2185   -0.4893 O   0  0  0  0  0  0  0  0  0  0  0  0
    2.8988    3.4488   -0.5204 C   0  0  0  0  0  0  0  0  0  0  0  0
    2.7981    4.0296   -1.9118 C   0  0  0  0  0  0  0  0  0  0  0  0
    3.2294   -0.9309    0.0486 H   0  0  0  0  0  0  0  0  0  0  0  0
    2.2338   -0.3181   -1.2734 H   0  0  0  0  0  0  0  0  0  0  0  0
    1.6610   -1.6680   -0.2875 H   0  0  0  0  0  0  0  0  0  0  0  0
    1.4990   -0.1566    1.7002 H   0  0  0  0  0  0  0  0  0  0  0  0
    0.5055    0.4455    0.3835 H   0  0  0  0  0  0  0  0  0  0  0  0
    3.3038    1.4410    1.0808 H   0  0  0  0  0  0  0  0  0  0  0  0
    1.7844    2.2410    1.5226 H   0  0  0  0  0  0  0  0  0  0  0  0
    2.4596    4.1376    0.2164 H   0  0  0  0  0  0  0  0  0  0  0  0
    3.9524    3.3035   -0.2397 H   0  0  0  0  0  0  0  0  0  0  0  0
    1.7543    4.1869   -2.1856 H   0  0  0  0  0  0  0  0  0  0  0  0
    3.2472    3.3545   -2.6411 H   0  0  0  0  0  0  0  0  0  0  0  0
    3.3178    4.9878   -1.9600 H   0  0  0  0  0  0  0  0  0  0  0  0
  1  2  1  0
  1  7  1  0
  1  8  1  0
  1  9  1  0
  2  3  1  0
  2 10  1  0
  2 11  1  0
  3  4  1  0
  3 12  1  0
  3 13  1  0
  4  5  1  0
  5  6  1  0
  5 14  1  0
  5 15  1  0
  6 16  1  0
  6 17  1  0
  6 18  1  0
M  END
>  <reaction>  (3) 
rmg_rxn_341

>  <mol_properties>  (3) 
{"2": {"label": "acceptor", "atom_type": "Cs"}, "17": {"label": "a_hydrogen", "atom_type": "H0"}}

>  <type>  (3) 
r2h

$$$$

     RDKit          3D

 35 33  0  0  0  0  0  0  0  0999 V2000
    1.8434    2.1263    1.3922 C   0  0  0  0  0  0  0  0  0  0  0  0
    0.4243    2.3771    1.8908 C   0  0  0  0  0  0  0  0  0  0  0  0
   -0.5513    1.3082    1.4826 C   0  0  0  0  0  3  0  0  0  0  0  0
   -0.1601    0.0619    1.9383 O   0  0  0  0  0  0  0  0  0  0  0  0
   -1.0904   -0.9689    1.6739 C   0  0  0  0  0  0  0  0  0  0  0  0
   -0.4879   -2.2841    2.1075 C   0  0  0  0  0  0  0  0  0  0  0  0
    1.8723    2.0784    0.3017 H   0  0  0  0  0  0  0  0  0  0  0  0
    2.5157    2.9233    1.7127 H   0  0  0  0  0  0  0  0  0  0  0  0
    2.2272    1.1819    1.7788 H   0  0  0  0  0  0  0  0  0  0  0  0
    0.4308    2.4646    2.9838 H   0  0  0  0  0  0  0  0  0  0  0  0
    0.0536    3.3304    1.5039 H   0  0  0  0  0  0  0  0  0  0  0  0
   -1.5937    1.5371    1.7404 H   0  0  0  0  0  0  0  0  0  0  0  0
   -2.0223   -0.7676    2.2202 H   0  0  0  0  0  0  0  0  0  0  0  0
   -1.3261   -0.9872    0.6038 H   0  0  0  0  0  0  0  0  0  0  0  0
   -0.2463   -2.2674    3.1709 H   0  0  0  0  0  0  0  0  0  0  0  0
   -1.1903   -3.0985    1.9233 H   0  0  0  0  0  0  0  0  0  0  0  0
    0.4277   -2.4857    1.5493 H   0  0  0  0  0  0  0  0  0  0  0  0
    0.9202   -2.3519   -3.0779 C   0  0  0  0  0  0  0  0  0  0  0  0
    1.0993   -2.0596   -1.5943 C   0  0  0  0  0  0  0  0  0  0  0  0
    0.9715   -0.5907   -1.2512 C   0  0  0  0  0  0  0  0  0  0  0  0
   -0.3367   -0.1569   -1.5656 O   0  0  0  0  0  0  0  0  0  0  0  0
   -0.5840    1.1670   -1.2499 C   0  0  0  0  0  0  0  0  0  0  0  0
   -1.9672    1.5707   -1.6610 C   0  0  0  0  0  0  0  0  0  0  0  0
    1.6694   -1.8229   -3.6719 H   0  0  0  0  0  0  0  0  0  0  0  0
   -0.0644   -2.0318   -3.4190 H   0  0  0  0  0  0  0  0  0  0  0  0
    1.0220   -3.4185   -3.2835 H   0  0  0  0  0  0  0  0  0  0  0  0
    2.0842   -2.3963   -1.2594 H   0  0  0  0  0  0  0  0  0  0  0  0
    0.3609   -2.6161   -1.0101 H   0  0  0  0  0  0  0  0  0  0  0  0
    1.7004    0.0029   -1.8233 H   0  0  0  0  0  0  0  0  0  0  0  0
    1.1678   -0.4267   -0.1858 H   0  0  0  0  0  0  0  0  0  0  0  0
   -0.5507    1.2846    0.1128 H   0  0  0  0  0  0  0  0  0  0  0  0
    0.2089    1.8359   -1.6091 H   0  0  0  0  0  0  0  0  0  0  0  0
   -2.7099    0.9382   -1.1698 H   0  0  0  0  0  0  0  0  0  0  0  0
   -2.1088    1.4813   -2.7419 H   0  0  0  0  0  0  0  0  0  0  0  0
   -2.1551    2.6067   -1.3744 H   0  0  0  0  0  0  0  0  0  0  0  0
  1  2  1  0
  1  7  1  0
  1  8  1  0
  1  9  1  0
  2  3  1  0
  2 10  1  0
  2 11  1  0
  3  4  1  0
  3 12  1  0
  4  5  1  0
  5  6  1  0
  5 13  1  0
  5 14  1  0
  6 15  1  0
  6 16  1  0
  6 17  1  0
 18 19  1  0
 18 24  1  0
 18 25  1  0
 18 26  1  0
 19 20  1  0
 19 27  1  0
 19 28  1  0
 20 21  1  0
 20 29  1  0
 20 30  1  0
 21 22  1  0
 22 23  1  0
 22 31  1  0
 22 32  1  0
 23 33  1  0
 23 34  1  0
 23 35  1  0
M  RAD  1   3   2
M  END
>  <reaction>  (4) 
rmg_rxn_341

>  <mol_properties>  (4) 
{"2": {"label": "*3", "atom_type": "Cs"}, "3": {"label": "*4", "atom_type": "O2s"}, "20": {"label": "*0", "atom_type": "O2s"}, "21": {"label": "*1", "atom_type": "Cs"}, "30": {"label": "*2", "atom_type": "H0"}}

>  <type>  (4) 
ts

$$$$

     RDKit          3D

 35 33  0  0  0  0  0  0  0  0999 V2000
    2.3117    1.0979    1.9823 C   0  0  0  0  0  0  0  0  0  0  0  0
    1.0889    1.9596    1.6968 C   0  0  0  0  0  0  0  0  0  0  0  0
   -0.1156    1.1555    1.2519 C   0  0  0  0  0  3  0  0  0  0  0  0
   -0.5082    0.2923    2.2891 O   0  0  0  0  0  0  0  0  0  0  0  0
   -1.6019   -0.5219    1.9510 C   0  0  0  0  0  0  0  0  0  0  0  0
   -1.9386   -1.4059    3.1294 C   0  0  0  0  0  0  0  0  0  0  0  0
    2.6112    0.5394    1.0920 H   0  0  0  0  0  0  0  0  0  0  0  0
    3.1592    1.7100    2.2942 H   0  0  0  0  0  0  0  0  0  0  0  0
    2.1009    0.3787    2.7738 H   0  0  0  0  0  0  0  0  0  0  0  0
    0.8154    2.5301    2.5881 H   0  0  0  0  0  0  0  0  0  0  0  0
    1.3159    2.6869    0.9123 H   0  0  0  0  0  0  0  0  0  0  0  0
   -0.9459    1.8268    0.9880 H   0  0  0  0  0  0  0  0  0  0  0  0
   -2.4657    0.1034    1.6803 H   0  0  0  0  0  0  0  0  0  0  0  0
   -1.3560   -1.1328    1.0699 H   0  0  0  0  0  0  0  0  0  0  0  0
   -2.1960   -0.8011    3.9996 H   0  0  0  0  0  0  0  0  0  0  0  0
   -2.7875   -2.0483    2.8898 H   0  0  0  0  0  0  0  0  0  0  0  0
   -1.0881   -2.0374    3.3887 H   0  0  0  0  0  0  0  0  0  0  0  0
    0.9766   -2.2261   -3.6169 C   0  0  0  0  0  0  0  0  0  0  0  0
    0.9766   -2.2261   -2.0940 C   0  0  0  0  0  0  0  0  0  0  0  0
    0.9766   -0.8331   -1.4985 C   0  0  0  0  0  0  0  0  0  0  0  0
   -0.2064   -0.1695   -1.8661 O   0  0  0  0  0  0  0  0  0  0  0  0
   -0.2771    1.1486   -1.3852 C   0  0  0  0  0  0  0  0  0  0  0  0
   -1.5804    1.7664   -1.8360 C   0  0  0  0  0  0  0  0  0  0  0  0
    1.8587   -1.7118   -4.0066 H   0  0  0  0  0  0  0  0  0  0  0  0
    0.0939   -1.7164   -4.0030 H   0  0  0  0  0  0  0  0  0  0  0  0
    0.9821   -3.2440   -4.0096 H   0  0  0  0  0  0  0  0  0  0  0  0
    1.8582   -2.7526   -1.7178 H   0  0  0  0  0  0  0  0  0  0  0  0
    0.1023   -2.7641   -1.7188 H   0  0  0  0  0  0  0  0  0  0  0  0
    1.8508   -0.2680   -1.8589 H   0  0  0  0  0  0  0  0  0  0  0  0
    1.0514   -0.8870   -0.4025 H   0  0  0  0  0  0  0  0  0  0  0  0
   -0.1964    1.1520   -0.0675 H   0  0  0  0  0  0  0  0  0  0  0  0
    0.5758    1.7316   -1.7631 H   0  0  0  0  0  0  0  0  0  0  0  0
   -2.4268    1.1970   -1.4504 H   0  0  0  0  0  0  0  0  0  0  0  0
   -1.6412    1.7782   -2.9249 H   0  0  0  0  0  0  0  0  0  0  0  0
   -1.6580    2.7924   -1.4730 H   0  0  0  0  0  0  0  0  0  0  0  0
  1  2  1  0
  1  7  1  0
  1  8  1  0
  1  9  1  0
  2  3  1  0
  2 10  1  0
  2 11  1  0
  3  4  1  0
  3 12  1  0
  4  5  1  0
  5  6  1  0
  5 13  1  0
  5 14  1  0
  6 15  1  0
  6 16  1  0
  6 17  1  0
 18 19  1  0
 18 24  1  0
 18 25  1  0
 18 26  1  0
 19 20  1  0
 19 27  1  0
 19 28  1  0
 20 21  1  0
 20 29  1  0
 20 30  1  0
 21 22  1  0
 22 23  1  0
 22 31  1  0
 22 32  1  0
 23 33  1  0
 23 34  1  0
 23 35  1  0
M  RAD  1   3   2
M  END
>  <reaction>  (5) 
rmg_rxn_341

>  <mol_properties>  (5) 
{"2": {"label": "*3", "atom_type": "Cs"}, "3": {"label": "*4", "atom_type": "O2s"}, "20": {"label": "*0", "atom_type": "O2s"}, "21": {"label": "*1", "atom_type": "Cs"}, "30": {"label": "*2", "atom_type": "H0"}}

>  <type>  (5) 
unop_1

>  <geom_source>  (5) 
Heuristics

$$$$

     RDKit          3D

 35 33  0  0  0  0  0  0  0  0999 V2000
    0.4130   -1.6322    1.7521 C   0  0  0  0  0  0  0  0  0  0  0  0
    1.1546   -0.3041    1.8238 C   0  0  0  0  0  0  0  0  0  0  0  0
    0.3214    0.8696    1.3510 C   0  0  0  0  0  3  0  0  0  0  0  0
   -0.7898    1.0229    2.1976 O   0  0  0  0  0  0  0  0  0  0  0  0
   -1.6421    2.0710    1.8123 C   0  0  0  0  0  0  0  0  0  0  0  0
   -2.7973    2.1467    2.7836 C   0  0  0  0  0  0  0  0  0  0  0  0
    0.1046   -1.8514    0.7268 H   0  0  0  0  0  0  0  0  0  0  0  0
    1.0443   -2.4535    2.0944 H   0  0  0  0  0  0  0  0  0  0  0  0
   -0.4823   -1.6085    2.3733 H   0  0  0  0  0  0  0  0  0  0  0  0
    1.4777   -0.1095    2.8498 H   0  0  0  0  0  0  0  0  0  0  0  0
    2.0583   -0.3440    1.2093 H   0  0  0  0  0  0  0  0  0  0  0  0
    0.9237    1.7899    1.3523 H   0  0  0  0  0  0  0  0  0  0  0  0
   -1.0871    3.0208    1.8003 H   0  0  0  0  0  0  0  0  0  0  0  0
   -2.0100    1.8983    0.7901 H   0  0  0  0  0  0  0  0  0  0  0  0
   -2.4345    2.3316    3.7952 H   0  0  0  0  0  0  0  0  0  0  0  0
   -3.4739    2.9558    2.5041 H   0  0  0  0  0  0  0  0  0  0  0  0
   -3.3575    1.2110    2.7847 H   0  0  0  0  0  0  0  0  0  0  0  0
    1.4136   -2.5120   -3.5178 C   0  0  0  0  0  0  0  0  0  0  0  0
    1.4136   -2.5120   -1.9949 C   0  0  0  0  0  0  0  0  0  0  0  0
    1.4136   -1.1189   -1.3994 C   0  0  0  0  0  0  0  0  0  0  0  0
    0.2306   -0.4553   -1.7670 O   0  0  0  0  0  0  0  0  0  0  0  0
    0.1599    0.8627   -1.2861 C   0  0  0  0  0  0  0  0  0  0  0  0
   -1.1434    1.4805   -1.7369 C   0  0  0  0  0  0  0  0  0  0  0  0
    2.2957   -1.9977   -3.9074 H   0  0  0  0  0  0  0  0  0  0  0  0
    0.5309   -2.0023   -3.9039 H   0  0  0  0  0  0  0  0  0  0  0  0
    1.4191   -3.5299   -3.9105 H   0  0  0  0  0  0  0  0  0  0  0  0
    2.2951   -3.0385   -1.6186 H   0  0  0  0  0  0  0  0  0  0  0  0
    0.5392   -3.0500   -1.6196 H   0  0  0  0  0  0  0  0  0  0  0  0
    2.2878   -0.5538   -1.7598 H   0  0  0  0  0  0  0  0  0  0  0  0
    1.4884   -1.1728   -0.3033 H   0  0  0  0  0  0  0  0  0  0  0  0
    0.2406    0.8662    0.0316 H   0  0  0  0  0  0  0  0  0  0  0  0
    1.0128    1.4457   -1.6640 H   0  0  0  0  0  0  0  0  0  0  0  0
   -1.9898    0.9111   -1.3512 H   0  0  0  0  0  0  0  0  0  0  0  0
   -1.2042    1.4924   -2.8257 H   0  0  0  0  0  0  0  0  0  0  0  0
   -1.2210    2.5065   -1.3739 H   0  0  0  0  0  0  0  0  0  0  0  0
  1  2  1  0
  1  7  1  0
  1  8  1  0
  1  9  1  0
  2  3  1  0
  2 10  1  0
  2 11  1  0
  3  4  1  0
  3 12  1  0
  4  5  1  0
  5  6  1  0
  5 13  1  0
  5 14  1  0
  6 15  1  0
  6 16  1  0
  6 17  1  0
 18 19  1  0
 18 24  1  0
 18 25  1  0
 18 26  1  0
 19 20  1  0
 19 27  1  0
 19 28  1  0
 20 21  1  0
 20 29  1  0
 20 30  1  0
 21 22  1  0
 22 23  1  0
 22 31  1  0
 22 32  1  0
 23 33  1  0
 23 34  1  0
 23 35  1  0
M  RAD  1   3   2
M  END
>  <reaction>  (6) 
rmg_rxn_341

>  <mol_properties>  (6) 
{"2": {"label": "*3", "atom_type": "Cs"}, "3": {"label": "*4", "atom_type": "O2s"}, "20": {"label": "*0", "atom_type": "O2s"}, "21": {"label": "*1", "atom_type": "Cs"}, "30": {"label": "*2", "atom_type": "H0"}}

>  <type>  (6) 
unop_2

>  <geom_source>  (6) 
Heuristics

$$$$

     RDKit          3D

 35 33  0  0  0  0  0  0  0  0999 V2000
    1.7816    2.3610    1.8168 C   0  0  0  0  0  0  0  0  0  0  0  0
    0.2600    2.4248    1.8062 C   0  0  0  0  0  0  0  0  0  0  0  0
   -0.3866    1.1407    1.3283 C   0  0  0  0  0  3  0  0  0  0  0  0
   -0.0685    0.1002    2.2177 O   0  0  0  0  0  0  0  0  0  0  0  0
   -0.5993   -1.1422    1.8327 C   0  0  0  0  0  0  0  0  0  0  0  0
   -0.1989   -2.1841    2.8514 C   0  0  0  0  0  0  0  0  0  0  0  0
    2.1701    2.1607    0.8151 H   0  0  0  0  0  0  0  0  0  0  0  0
    2.2117    3.3028    2.1605 H   0  0  0  0  0  0  0  0  0  0  0  0
    2.1300    1.5662    2.4763 H   0  0  0  0  0  0  0  0  0  0  0  0
   -0.1132    2.6492    2.8087 H   0  0  0  0  0  0  0  0  0  0  0  0
   -0.0781    3.2345    1.1536 H   0  0  0  0  0  0  0  0  0  0  0  0
   -1.4781    1.2627    1.2687 H   0  0  0  0  0  0  0  0  0  0  0  0
   -1.6951   -1.0761    1.7608 H   0  0  0  0  0  0  0  0  0  0  0  0
   -0.2256   -1.4164    0.8351 H   0  0  0  0  0  0  0  0  0  0  0  0
   -0.5807   -1.9202    3.8383 H   0  0  0  0  0  0  0  0  0  0  0  0
   -0.6012   -3.1594    2.5730 H   0  0  0  0  0  0  0  0  0  0  0  0
    0.8873   -2.2615    2.9122 H   0  0  0  0  0  0  0  0  0  0  0  0
    0.7056   -2.2409   -3.5405 C   0  0  0  0  0  0  0  0  0  0  0  0
    0.7056   -2.2409   -2.0176 C   0  0  0  0  0  0  0  0  0  0  0  0
    0.7056   -0.8478   -1.4221 C   0  0  0  0  0  0  0  0  0  0  0  0
   -0.4774   -0.1842   -1.7896 O   0  0  0  0  0  0  0  0  0  0  0  0
   -0.5481    1.1339   -1.3088 C   0  0  0  0  0  0  0  0  0  0  0  0
   -1.8514    1.7517   -1.7596 C   0  0  0  0  0  0  0  0  0  0  0  0
    1.5877   -1.7265   -3.9301 H   0  0  0  0  0  0  0  0  0  0  0  0
   -0.1771   -1.7312   -3.9265 H   0  0  0  0  0  0  0  0  0  0  0  0
    0.7111   -3.2587   -3.9331 H   0  0  0  0  0  0  0  0  0  0  0  0
    1.5872   -2.7673   -1.6413 H   0  0  0  0  0  0  0  0  0  0  0  0
   -0.1687   -2.7788   -1.6423 H   0  0  0  0  0  0  0  0  0  0  0  0
    1.5798   -0.2827   -1.7824 H   0  0  0  0  0  0  0  0  0  0  0  0
    0.7804   -0.9017   -0.3260 H   0  0  0  0  0  0  0  0  0  0  0  0
   -0.4674    1.1373    0.0089 H   0  0  0  0  0  0  0  0  0  0  0  0
    0.3048    1.7168   -1.6866 H   0  0  0  0  0  0  0  0  0  0  0  0
   -2.6978    1.1822   -1.3739 H   0  0  0  0  0  0  0  0  0  0  0  0
   -1.9122    1.7635   -2.8484 H   0  0  0  0  0  0  0  0  0  0  0  0
   -1.9290    2.7777   -1.3965 H   0  0  0  0  0  0  0  0  0  0  0  0
  1  2  1  0
  1  7  1  0
  1  8  1  0
  1  9  1  0
  2  3  1  0
  2 10  1  0
  2 11  1  0
  3  4  1  0
  3 12  1  0
  4  5  1  0
  5  6  1  0
  5 13  1  0
  5 14  1  0
  6 15  1  0
  6 16  1  0
  6 17  1  0
 18 19  1  0
 18 24  1  0
 18 25  1  0
 18 26  1  0
 19 20  1  0
 19 27  1  0
 19 28  1  0
 20 21  1  0
 20 29  1  0
 20 30  1  0
 21 22  1  0
 22 23  1  0
 22 31  1  0
 22 32  1  0
 23 33  1  0
 23 34  1  0
 23 35  1  0
M  RAD  1   3   2
M  END
>  <reaction>  (7) 
rmg_rxn_341

>  <mol_properties>  (7) 
{"2": {"label": "*3", "atom_type": "Cs"}, "3": {"label": "*4", "atom_type": "O2s"}, "20": {"label": "*0", "atom_type": "O2s"}, "21": {"label": "*1", "atom_type": "Cs"}, "30": {"label": "*2", "atom_type": "H0"}}

>  <type>  (7) 
unop_3

>  <geom_source>  (7) 
Heuristics

$$$$

     RDKit          3D

 35 33  0  0  0  0  0  0  0  0999 V2000
   -1.5117   -1.2626    1.4796 C   0  0  0  0  0  0  0  0  0  0  0  0
   -0.2555   -0.8073    2.2102 C   0  0  0  0  0  0  0  0  0  0  0  0
    0.3275    0.4741    1.6504 C   0  0  0  0  0  3  0  0  0  0  0  0
   -0.5962    1.5195    1.8209 O   0  0  0  0  0  0  0  0  0  0  0  0
   -0.1523    2.7448    1.2964 C   0  0  0  0  0  0  0  0  0  0  0  0
   -1.2152    3.7930    1.5309 C   0  0  0  0  0  0  0  0  0  0  0  0
   -1.3040   -1.4413    0.4216 H   0  0  0  0  0  0  0  0  0  0  0  0
   -1.8997   -2.1891    1.9055 H   0  0  0  0  0  0  0  0  0  0  0  0
   -2.2922   -0.5045    1.5443 H   0  0  0  0  0  0  0  0  0  0  0  0
   -0.4724   -0.6557    3.2708 H   0  0  0  0  0  0  0  0  0  0  0  0
    0.5151   -1.5809    2.1518 H   0  0  0  0  0  0  0  0  0  0  0  0
    1.2701    0.7193    2.1616 H   0  0  0  0  0  0  0  0  0  0  0  0
    0.7914    3.0396    1.7788 H   0  0  0  0  0  0  0  0  0  0  0  0
    0.0532    2.6396    0.2209 H   0  0  0  0  0  0  0  0  0  0  0  0
   -1.4098    3.9079    2.5978 H   0  0  0  0  0  0  0  0  0  0  0  0
   -0.8917    4.7555    1.1315 H   0  0  0  0  0  0  0  0  0  0  0  0
   -2.1467    3.5092    1.0399 H   0  0  0  0  0  0  0  0  0  0  0  0
    1.4197   -2.9075   -3.2184 C   0  0  0  0  0  0  0  0  0  0  0  0
    1.4197   -2.9075   -1.6955 C   0  0  0  0  0  0  0  0  0  0  0  0
    1.4197   -1.5144   -1.0999 C   0  0  0  0  0  0  0  0  0  0  0  0
    0.2367   -0.8508   -1.4675 O   0  0  0  0  0  0  0  0  0  0  0  0
    0.1660    0.4673   -0.9867 C   0  0  0  0  0  0  0  0  0  0  0  0
   -1.1373    1.0850   -1.4375 C   0  0  0  0  0  0  0  0  0  0  0  0
    2.3018   -2.3931   -3.6080 H   0  0  0  0  0  0  0  0  0  0  0  0
    0.5370   -2.3978   -3.6044 H   0  0  0  0  0  0  0  0  0  0  0  0
    1.4252   -3.9253   -3.6110 H   0  0  0  0  0  0  0  0  0  0  0  0
    2.3013   -3.4339   -1.3192 H   0  0  0  0  0  0  0  0  0  0  0  0
    0.5454   -3.4454   -1.3202 H   0  0  0  0  0  0  0  0  0  0  0  0
    2.2939   -0.9493   -1.4603 H   0  0  0  0  0  0  0  0  0  0  0  0
    1.4945   -1.5683   -0.0039 H   0  0  0  0  0  0  0  0  0  0  0  0
    0.2467    0.4707    0.3310 H   0  0  0  0  0  0  0  0  0  0  0  0
    1.0189    1.0502   -1.3645 H   0  0  0  0  0  0  0  0  0  0  0  0
   -1.9837    0.5156   -1.0518 H   0  0  0  0  0  0  0  0  0  0  0  0
   -1.1981    1.0969   -2.5263 H   0  0  0  0  0  0  0  0  0  0  0  0
   -1.2149    2.1111   -1.0744 H   0  0  0  0  0  0  0  0  0  0  0  0
  1  2  1  0
  1  7  1  0
  1  8  1  0
  1  9  1  0
  2  3  1  0
  2 10  1  0
  2 11  1  0
  3  4  1  0
  3 12  1  0
  4  5  1  0
  5  6  1  0
  5 13  1  0
  5 14  1  0
  6 15  1  0
  6 16  1  0
  6 17  1  0
 18 19  1  0
 18 24  1  0
 18 25  1  0
 18 26  1  0
 19 20  1  0
 19 27  1  0
 19 28  1  0
 20 21  1  0
 20 29  1  0
 20 30  1  0
 21 22  1  0
 22 23  1  0
 22 31  1  0
 22 32  1  0
 23 33  1  0
 23 34  1  0
 23 35  1  0
M  RAD  1   3   2
M  END
>  <reaction>  (8) 
rmg_rxn_341

>  <mol_properties>  (8) 
{"2": {"label": "*3", "atom_type": "Cs"}, "3": {"label": "*4", "atom_type": "O2s"}, "20": {"label": "*0", "atom_type": "O2s"}, "21": {"label": "*1", "atom_type": "Cs"}, "30": {"label": "*2", "atom_type": "H0"}}

>  <type>  (8) 
unop_4

>  <geom_source>  (8) 
Heuristics

$$$$

     RDKit          3D

 35 33  0  0  0  0  0  0  0  0999 V2000
   -1.3993    2.9002    1.4207 C   0  0  0  0  0  0  0  0  0  0  0  0
   -1.3634    1.7019    2.3598 C   0  0  0  0  0  0  0  0  0  0  0  0
   -0.5937    0.5255    1.7949 C   0  0  0  0  0  3  0  0  0  0  0  0
    0.7510    0.8920    1.6150 O   0  0  0  0  0  0  0  0  0  0  0  0
    1.5367   -0.1312    1.0590 C   0  0  0  0  0  0  0  0  0  0  0  0
    2.9557    0.3662    0.9083 C   0  0  0  0  0  0  0  0  0  0  0  0
   -1.8703    2.6365    0.4704 H   0  0  0  0  0  0  0  0  0  0  0  0
   -1.9653    3.7244    1.8573 H   0  0  0  0  0  0  0  0  0  0  0  0
   -0.3907    3.2543    1.2078 H   0  0  0  0  0  0  0  0  0  0  0  0
   -0.9120    1.9862    3.3139 H   0  0  0  0  0  0  0  0  0  0  0  0
   -2.3803    1.3645    2.5784 H   0  0  0  0  0  0  0  0  0  0  0  0
   -0.6598   -0.3357    2.4759 H   0  0  0  0  0  0  0  0  0  0  0  0
    1.5078   -1.0203    1.7063 H   0  0  0  0  0  0  0  0  0  0  0  0
    1.1278   -0.4288    0.0821 H   0  0  0  0  0  0  0  0  0  0  0  0
    3.3667    0.6485    1.8782 H   0  0  0  0  0  0  0  0  0  0  0  0
    3.5860   -0.4135    0.4779 H   0  0  0  0  0  0  0  0  0  0  0  0
    2.9875    1.2383    0.2542 H   0  0  0  0  0  0  0  0  0  0  0  0
    0.4985   -2.8560   -3.0739 C   0  0  0  0  0  0  0  0  0  0  0  0
    0.4985   -2.8560   -1.5510 C   0  0  0  0  0  0  0  0  0  0  0  0
    0.4985   -1.4630   -0.9554 C   0  0  0  0  0  0  0  0  0  0  0  0
   -0.6845   -0.7994   -1.3230 O   0  0  0  0  0  0  0  0  0  0  0  0
   -0.7552    0.5187   -0.8421 C   0  0  0  0  0  0  0  0  0  0  0  0
   -2.0585    1.1365   -1.2930 C   0  0  0  0  0  0  0  0  0  0  0  0
    1.3806   -2.3417   -3.4635 H   0  0  0  0  0  0  0  0  0  0  0  0
   -0.3842   -2.3464   -3.4599 H   0  0  0  0  0  0  0  0  0  0  0  0
    0.5040   -3.8739   -3.4665 H   0  0  0  0  0  0  0  0  0  0  0  0
    1.3801   -3.3825   -1.1747 H   0  0  0  0  0  0  0  0  0  0  0  0
   -0.3758   -3.3940   -1.1757 H   0  0  0  0  0  0  0  0  0  0  0  0
    1.3727   -0.8979   -1.3158 H   0  0  0  0  0  0  0  0  0  0  0  0
    0.5733   -1.5169    0.1406 H   0  0  0  0  0  0  0  0  0  0  0  0
   -0.6745    0.5221    0.4755 H   0  0  0  0  0  0  0  0  0  0  0  0
    0.0977    1.1017   -1.2200 H   0  0  0  0  0  0  0  0  0  0  0  0
   -2.9049    0.5671   -0.9073 H   0  0  0  0  0  0  0  0  0  0  0  0
   -2.1193    1.1483   -2.3818 H   0  0  0  0  0  0  0  0  0  0  0  0
   -2.1361    2.1625   -0.9299 H   0  0  0  0  0  0  0  0  0  0  0  0
  1  2  1  0
  1  7  1  0
  1  8  1  0
  1  9  1  0
  2  3  1  0
  2 10  1  0
  2 11  1  0
  3  4  1  0
  3 12  1  0
  4  5  1  0
  5  6  1  0
  5 13  1  0
  5 14  1  0
  6 15  1  0
  6 16  1  0
  6 17  1  0
 18 19  1  0
 18 24  1  0
 18 25  1  0
 18 26  1  0
 19 20  1  0
 19 27  1  0
 19 28  1  0
 20 21  1  0
 20 29  1  0
 20 30  1  0
 21 22  1  0
 22 23  1  0
 22 31  1  0
 22 32  1  0
 23 33  1  0
 23 34  1  0
 23 35  1  0
M  RAD  1   3   2
M  END
>  <reaction>  (9) 
rmg_rxn_341

>  <mol_properties>  (9) 
{"2": {"label": "*3", "atom_type": "Cs"}, "3": {"label": "*4", "atom_type": "O2s"}, "20": {"label": "*0", "atom_type": "O2s"}, "21": {"label": "*1", "atom_type": "Cs"}, "30": {"label": "*2", "atom_type": "H0"}}

>  <type>  (9) 
unop_5

>  <geom_source>  (9) 
Heuristics

$$$$

     RDKit          3D

 35 33  0  0  0  0  0  0  0  0999 V2000
   -2.2191   -0.5310    1.4727 C   0  0  0  0  0  0  0  0  0  0  0  0
   -0.9931   -0.4778    2.3745 C   0  0  0  0  0  0  0  0  0  0  0  0
    0.1478    0.3237    1.7818 C   0  0  0  0  0  3  0  0  0  0  0  0
   -0.2537    1.6616    1.6278 O   0  0  0  0  0  0  0  0  0  0  0  0
    0.7342    2.4755    1.0488 C   0  0  0  0  0  0  0  0  0  0  0  0
    0.2012    3.8845    0.9289 C   0  0  0  0  0  0  0  0  0  0  0  0
   -1.9749   -0.9864    0.5096 H   0  0  0  0  0  0  0  0  0  0  0  0
   -3.0166   -1.1197    1.9285 H   0  0  0  0  0  0  0  0  0  0  0  0
   -2.6018    0.4715    1.2817 H   0  0  0  0  0  0  0  0  0  0  0  0
   -1.2573   -0.0425    3.3417 H   0  0  0  0  0  0  0  0  0  0  0  0
   -0.6267   -1.4891    2.5716 H   0  0  0  0  0  0  0  0  0  0  0  0
    1.0312    0.2699    2.4349 H   0  0  0  0  0  0  0  0  0  0  0  0
    1.6435    2.4599    1.6679 H   0  0  0  0  0  0  0  0  0  0  0  0
    1.0100    2.0832    0.0588 H   0  0  0  0  0  0  0  0  0  0  0  0
   -0.0596    4.2793    1.9114 H   0  0  0  0  0  0  0  0  0  0  0  0
    0.9530    4.5363    0.4813 H   0  0  0  0  0  0  0  0  0  0  0  0
   -0.6914    3.9033    0.3025 H   0  0  0  0  0  0  0  0  0  0  0  0
    1.2400   -3.0579   -3.0870 C   0  0  0  0  0  0  0  0  0  0  0  0
    1.2400   -3.0579   -1.5641 C   0  0  0  0  0  0  0  0  0  0  0  0
    1.2400   -1.6648   -0.9686 C   0  0  0  0  0  0  0  0  0  0  0  0
    0.0570   -1.0012   -1.3362 O   0  0  0  0  0  0  0  0  0  0  0  0
   -0.0137    0.3168   -0.8553 C   0  0  0  0  0  0  0  0  0  0  0  0
   -1.3170    0.9346   -1.3061 C   0  0  0  0  0  0  0  0  0  0  0  0
    2.1221   -2.5436   -3.4767 H   0  0  0  0  0  0  0  0  0  0  0  0
    0.3573   -2.5482   -3.4731 H   0  0  0  0  0  0  0  0  0  0  0  0
    1.2455   -4.0758   -3.4797 H   0  0  0  0  0  0  0  0  0  0  0  0
    2.1215   -3.5844   -1.1879 H   0  0  0  0  0  0  0  0  0  0  0  0
    0.3656   -3.5959   -1.1889 H   0  0  0  0  0  0  0  0  0  0  0  0
    2.1142   -1.0998   -1.3290 H   0  0  0  0  0  0  0  0  0  0  0  0
    1.3148   -1.7188    0.1274 H   0  0  0  0  0  0  0  0  0  0  0  0
    0.0670    0.3202    0.4624 H   0  0  0  0  0  0  0  0  0  0  0  0
    0.8392    0.8998   -1.2332 H   0  0  0  0  0  0  0  0  0  0  0  0
   -2.1634    0.3652   -0.9205 H   0  0  0  0  0  0  0  0  0  0  0  0
   -1.3778    0.9465   -2.3950 H   0  0  0  0  0  0  0  0  0  0  0  0
   -1.3946    1.9606   -0.9431 H   0  0  0  0  0  0  0  0  0  0  0  0
  1  2  1  0
  1  7  1  0
  1  8  1  0
  1  9  1  0
  2  3  1  0
  2 10  1  0
  2 11  1  0
  3  4  1  0
  3 12  1  0
  4  5  1  0
  5  6  1  0
  5 13  1  0
  5 14  1  0
  6 15  1  0
  6 16  1  0
  6 17  1  0
 18 19  1  0
 18 24  1  0
 18 25  1  0
 18 26  1  0
 19 20  1  0
 19 27  1  0
 19 28  1  0
 20 21  1  0
 20 29  1  0
 20 30  1  0
 21 22  1  0
 22 23  1  0
 22 31  1  0
 22 32  1  0
 23 33  1  0
 23 34  1  0
 23 35  1  0
M  RAD  1   3   2
M  END
>  <reaction>  (10) 
rmg_rxn_341

>  <mol_properties>  (10) 
{"2": {"label": "*3", "atom_type": "Cs"}, "3": {"label": "*4", "atom_type": "O2s"}, "20": {"label": "*0", "atom_type": "O2s"}, "21": {"label": "*1", "atom_type": "Cs"}, "30": {"label": "*2", "atom_type": "H0"}}

>  <type>  (10) 
unop_6

>  <geom_source>  (10) 
Heuristics

$$$$

     RDKit          3D

 35 33  0  0  0  0  0  0  0  0999 V2000
   -2.5879    0.5373    1.4911 C   0  0  0  0  0  0  0  0  0  0  0  0
   -1.4779    0.1667    2.4657 C   0  0  0  0  0  0  0  0  0  0  0  0
   -0.0934    0.2731    1.8599 C   0  0  0  0  0  3  0  0  0  0  0  0
    0.1588    1.6097    1.5064 O   0  0  0  0  0  0  0  0  0  0  0  0
    1.4127    1.7978    0.9014 C   0  0  0  0  0  0  0  0  0  0  0  0
    1.5798    3.2611    0.5629 C   0  0  0  0  0  0  0  0  0  0  0  0
   -2.5712   -0.1158    0.6149 H   0  0  0  0  0  0  0  0  0  0  0  0
   -3.5689    0.4440    1.9593 H   0  0  0  0  0  0  0  0  0  0  0  0
   -2.4712    1.5644    1.1455 H   0  0  0  0  0  0  0  0  0  0  0  0
   -1.5216    0.8117    3.3471 H   0  0  0  0  0  0  0  0  0  0  0  0
   -1.6130   -0.8599    2.8172 H   0  0  0  0  0  0  0  0  0  0  0  0
    0.6645   -0.0746    2.5772 H   0  0  0  0  0  0  0  0  0  0  0  0
    2.2111    1.4671    1.5821 H   0  0  0  0  0  0  0  0  0  0  0  0
    1.4864    1.1822   -0.0072 H   0  0  0  0  0  0  0  0  0  0  0  0
    1.5206    3.8711    1.4649 H   0  0  0  0  0  0  0  0  0  0  0  0
    2.5489    3.4318    0.0914 H   0  0  0  0  0  0  0  0  0  0  0  0
    0.7978    3.5861   -0.1242 H   0  0  0  0  0  0  0  0  0  0  0  0
    0.9988   -3.1085   -3.0089 C   0  0  0  0  0  0  0  0  0  0  0  0
    0.9988   -3.1085   -1.4860 C   0  0  0  0  0  0  0  0  0  0  0  0
    0.9988   -1.7154   -0.8905 C   0  0  0  0  0  0  0  0  0  0  0  0
   -0.1841   -1.0518   -1.2581 O   0  0  0  0  0  0  0  0  0  0  0  0
   -0.2549    0.2663   -0.7772 C   0  0  0  0  0  0  0  0  0  0  0  0
   -1.5582    0.8840   -1.2281 C   0  0  0  0  0  0  0  0  0  0  0  0
    1.8809   -2.5941   -3.3986 H   0  0  0  0  0  0  0  0  0  0  0  0
    0.1161   -2.5988   -3.3950 H   0  0  0  0  0  0  0  0  0  0  0  0
    1.0043   -4.1263   -3.4016 H   0  0  0  0  0  0  0  0  0  0  0  0
    1.8804   -3.6349   -1.1098 H   0  0  0  0  0  0  0  0  0  0  0  0
    0.1245   -3.6464   -1.1108 H   0  0  0  0  0  0  0  0  0  0  0  0
    1.8730   -1.1503   -1.2509 H   0  0  0  0  0  0  0  0  0  0  0  0
    1.0736   -1.7693    0.2055 H   0  0  0  0  0  0  0  0  0  0  0  0
   -0.1742    0.2697    0.5405 H   0  0  0  0  0  0  0  0  0  0  0  0
    0.5980    0.8492   -1.1551 H   0  0  0  0  0  0  0  0  0  0  0  0
   -2.4045    0.3146   -0.8424 H   0  0  0  0  0  0  0  0  0  0  0  0
   -1.6190    0.8959   -2.3169 H   0  0  0  0  0  0  0  0  0  0  0  0
   -1.6358    1.9101   -0.8650 H   0  0  0  0  0  0  0  0  0  0  0  0
  1  2  1  0
  1  7  1  0
  1  8  1  0
  1  9  1  0
  2  3  1  0
  2 10  1  0
  2 11  1  0
  3  4  1  0
  3 12  1  0
  4  5  1  0
  5  6  1  0
  5 13  1  0
  5 14  1  0
  6 15  1  0
  6 16  1  0
  6 17  1  0
 18 19  1  0
 18 24  1  0
 18 25  1  0
 18 26  1  0
 19 20  1  0
 19 27  1  0
 19 28  1  0
 20 21  1  0
 20 29  1  0
 20 30  1  0
 21 22  1  0
 22 23  1  0
 22 31  1  0
 22 32  1  0
 23 33  1  0
 23 34  1  0
 23 35  1  0
M  RAD  1   3   2
M  END
>  <reaction>  (11) 
rmg_rxn_341

>  <mol_properties>  (11) 
{"2": {"label": "*3", "atom_type": "Cs"}, "3": {"label": "*4", "atom_type": "O2s"}, "20": {"label": "*0", "atom_type": "O2s"}, "21": {"label": "*1", "atom_type": "Cs"}, "30": {"label": "*2", "atom_type": "H0"}}

>  <type>  (11) 
unop_7

>  <geom_source>  (11) 
Heuristics

$$$$

     RDKit          3D

 35 33  0  0  0  0  0  0  0  0999 V2000
    2.1448   -0.1501    1.9933 C   0  0  0  0  0  0  0  0  0  0  0  0
    1.5124    1.1979    1.6735 C   0  0  0  0  0  0  0  0  0  0  0  0
    0.0643    1.0888    1.2417 C   0  0  0  0  0  3  0  0  0  0  0  0
   -0.6991    0.5664    2.2997 O   0  0  0  0  0  0  0  0  0  0  0  0
   -2.0554    0.3964    1.9758 C   0  0  0  0  0  0  0  0  0  0  0  0
   -2.7797   -0.1679    3.1760 C   0  0  0  0  0  0  0  0  0  0  0  0
    2.1198   -0.8089    1.1217 H   0  0  0  0  0  0  0  0  0  0  0  0
    3.1868   -0.0333    2.2947 H   0  0  0  0  0  0  0  0  0  0  0  0
    1.6091   -0.6454    2.8031 H   0  0  0  0  0  0  0  0  0  0  0  0
    1.5659    1.8541    2.5460 H   0  0  0  0  0  0  0  0  0  0  0  0
    2.0662    1.6923    0.8706 H   0  0  0  0  0  0  0  0  0  0  0  0
   -0.3227    2.0768    0.9521 H   0  0  0  0  0  0  0  0  0  0  0  0
   -2.4944    1.3610    1.6805 H   0  0  0  0  0  0  0  0  0  0  0  0
   -2.1530   -0.2807    1.1144 H   0  0  0  0  0  0  0  0  0  0  0  0
   -2.6952    0.5093    4.0266 H   0  0  0  0  0  0  0  0  0  0  0  0
   -3.8375   -0.3082    2.9478 H   0  0  0  0  0  0  0  0  0  0  0  0
   -2.3554   -1.1316    3.4600 H   0  0  0  0  0  0  0  0  0  0  0  0
    1.1565   -2.2928   -3.6271 C   0  0  0  0  0  0  0  0  0  0  0  0
    1.1565   -2.2928   -2.1042 C   0  0  0  0  0  0  0  0  0  0  0  0
    1.1565   -0.8998   -1.5087 C   0  0  0  0  0  0  0  0  0  0  0  0
   -0.0265   -0.2362   -1.8763 O   0  0  0  0  0  0  0  0  0  0  0  0
   -0.0972    1.0819   -1.3954 C   0  0  0  0  0  0  0  0  0  0  0  0
   -1.4005    1.6997   -1.8462 C   0  0  0  0  0  0  0  0  0  0  0  0
    2.0386   -1.7785   -4.0168 H   0  0  0  0  0  0  0  0  0  0  0  0
    0.2738   -1.7831   -4.0132 H   0  0  0  0  0  0  0  0  0  0  0  0
    1.1620   -3.3107   -4.0198 H   0  0  0  0  0  0  0  0  0  0  0  0
    2.0380   -2.8193   -1.7280 H   0  0  0  0  0  0  0  0  0  0  0  0
    0.2821   -2.8308   -1.7290 H   0  0  0  0  0  0  0  0  0  0  0  0
    2.0307   -0.3347   -1.8691 H   0  0  0  0  0  0  0  0  0  0  0  0
    1.2313   -0.9537   -0.4127 H   0  0  0  0  0  0  0  0  0  0  0  0
   -0.0165    1.0853   -0.0777 H   0  0  0  0  0  0  0  0  0  0  0  0
    0.7556    1.6649   -1.7733 H   0  0  0  0  0  0  0  0  0  0  0  0
   -2.2469    1.1303   -1.4606 H   0  0  0  0  0  0  0  0  0  0  0  0
   -1.4613    1.7115   -2.9351 H   0  0  0  0  0  0  0  0  0  0  0  0
   -1.4782    2.7257   -1.4832 H   0  0  0  0  0  0  0  0  0  0  0  0
  1  2  1  0
  1  7  1  0
  1  8  1  0
  1  9  1  0
  2  3  1  0
  2 10  1  0
  2 11  1  0
  3  4  1  0
  3 12  1  0
  4  5  1  0
  5  6  1  0
  5 13  1  0
  5 14  1  0
  6 15  1  0
  6 16  1  0
  6 17  1  0
 18 19  1  0
 18 24  1  0
 18 25  1  0
 18 26  1  0
 19 20  1  0
 19 27  1  0
 19 28  1  0
 20 21  1  0
 20 29  1  0
 20 30  1  0
 21 22  1  0
 22 23  1  0
 22 31  1  0
 22 32  1  0
 23 33  1  0
 23 34  1  0
 23 35  1  0
M  RAD  1   3   2
M  END
>  <reaction>  (12) 
rmg_rxn_341

>  <mol_properties>  (12) 
{"2": {"label": "*3", "atom_type": "Cs"}, "3": {"label": "*4", "atom_type": "O2s"}, "20": {"label": "*0", "atom_type": "O2s"}, "21": {"label": "*1", "atom_type": "Cs"}, "30": {"label": "*2", "atom_type": "H0"}}

>  <type>  (12) 
unop_8

>  <geom_source>  (12) 
Heuristics

$$$$

     RDKit          3D

 35 33  0  0  0  0  0  0  0  0999 V2000
    1.4324   -1.1257    1.9089 C   0  0  0  0  0  0  0  0  0  0  0  0
    1.5137    0.3824    1.7136 C   0  0  0  0  0  0  0  0  0  0  0  0
    0.2014    0.9972    1.2716 C   0  0  0  0  0  3  0  0  0  0  0  0
   -0.7631    0.8081    2.2760 O   0  0  0  0  0  0  0  0  0  0  0  0
   -2.0273    1.3178    1.9360 C   0  0  0  0  0  0  0  0  0  0  0  0
   -2.9831    1.0621    3.0782 C   0  0  0  0  0  0  0  0  0  0  0  0
    1.1426   -1.6239    0.9803 H   0  0  0  0  0  0  0  0  0  0  0  0
    2.3948   -1.5337    2.2212 H   0  0  0  0  0  0  0  0  0  0  0  0
    0.6926   -1.3773    2.6689 H   0  0  0  0  0  0  0  0  0  0  0  0
    1.8275    0.8648    2.6429 H   0  0  0  0  0  0  0  0  0  0  0  0
    2.2687    0.6241    0.9604 H   0  0  0  0  0  0  0  0  0  0  0  0
    0.3312    2.0714    1.0736 H   0  0  0  0  0  0  0  0  0  0  0  0
   -1.9541    2.3960    1.7301 H   0  0  0  0  0  0  0  0  0  0  0  0
   -2.3902    0.8366    1.0158 H   0  0  0  0  0  0  0  0  0  0  0  0
   -2.6312    1.5503    3.9876 H   0  0  0  0  0  0  0  0  0  0  0  0
   -3.9736    1.4507    2.8365 H   0  0  0  0  0  0  0  0  0  0  0  0
   -3.0684   -0.0076    3.2729 H   0  0  0  0  0  0  0  0  0  0  0  0
    1.2937   -2.3844   -3.5972 C   0  0  0  0  0  0  0  0  0  0  0  0
    1.2937   -2.3844   -2.0743 C   0  0  0  0  0  0  0  0  0  0  0  0
    1.2937   -0.9913   -1.4788 C   0  0  0  0  0  0  0  0  0  0  0  0
    0.1107   -0.3277   -1.8464 O   0  0  0  0  0  0  0  0  0  0  0  0
    0.0399    0.9904   -1.3655 C   0  0  0  0  0  0  0  0  0  0  0  0
   -1.2634    1.6081   -1.8163 C   0  0  0  0  0  0  0  0  0  0  0  0
    2.1757   -1.8700   -3.9869 H   0  0  0  0  0  0  0  0  0  0  0  0
    0.4109   -1.8747   -3.9833 H   0  0  0  0  0  0  0  0  0  0  0  0
    1.2991   -3.4022   -3.9899 H   0  0  0  0  0  0  0  0  0  0  0  0
    2.1752   -2.9108   -1.6980 H   0  0  0  0  0  0  0  0  0  0  0  0
    0.4193   -2.9223   -1.6990 H   0  0  0  0  0  0  0  0  0  0  0  0
    2.1679   -0.4262   -1.8392 H   0  0  0  0  0  0  0  0  0  0  0  0
    1.3684   -1.0452   -0.3828 H   0  0  0  0  0  0  0  0  0  0  0  0
    0.1206    0.9938   -0.0478 H   0  0  0  0  0  0  0  0  0  0  0  0
    0.8928    1.5733   -1.7434 H   0  0  0  0  0  0  0  0  0  0  0  0
   -2.1097    1.0387   -1.4307 H   0  0  0  0  0  0  0  0  0  0  0  0
   -1.3242    1.6200   -2.9052 H   0  0  0  0  0  0  0  0  0  0  0  0
   -1.3410    2.6342   -1.4533 H   0  0  0  0  0  0  0  0  0  0  0  0
  1  2  1  0
  1  7  1  0
  1  8  1  0
  1  9  1  0
  2  3  1  0
  2 10  1  0
  2 11  1  0
  3  4  1  0
  3 12  1  0
  4  5  1  0
  5  6  1  0
  5 13  1  0
  5 14  1  0
  6 15  1  0
  6 16  1  0
  6 17  1  0
 18 19  1  0
 18 24  1  0
 18 25  1  0
 18 26  1  0
 19 20  1  0
 19 27  1  0
 19 28  1  0
 20 21  1  0
 20 29  1  0
 20 30  1  0
 21 22  1  0
 22 23  1  0
 22 31  1  0
 22 32  1  0
 23 33  1  0
 23 34  1  0
 23 35  1  0
M  RAD  1   3   2
M  END
>  <reaction>  (13) 
rmg_rxn_341

>  <mol_properties>  (13) 
{"2": {"label": "*3", "atom_type": "Cs"}, "3": {"label": "*4", "atom_type": "O2s"}, "20": {"label": "*0", "atom_type": "O2s"}, "21": {"label": "*1", "atom_type": "Cs"}, "30": {"label": "*2", "atom_type": "H0"}}

>  <type>  (13) 
unop_9

>  <geom_source>  (13) 
Heuristics

$$$$

     RDKit          3D

 35 33  0  0  0  0  0  0  0  0999 V2000
   -2.3857    1.7910    1.4756 C   0  0  0  0  0  0  0  0  0  0  0  0
   -1.6004    0.9490    2.4723 C   0  0  0  0  0  0  0  0  0  0  0  0
   -0.3518    0.3315    1.8767 C   0  0  0  0  0  3  0  0  0  0  0  0
    0.5301    1.3523    1.4825 O   0  0  0  0  0  0  0  0  0  0  0  0
    1.7062    0.8707    0.8838 C   0  0  0  0  0  0  0  0  0  0  0  0
    2.5775    2.0441    0.4998 C   0  0  0  0  0  0  0  0  0  0  0  0
   -2.7035    1.1881    0.6213 H   0  0  0  0  0  0  0  0  0  0  0  0
   -3.2791    2.2144    1.9371 H   0  0  0  0  0  0  0  0  0  0  0  0
   -1.7756    2.6115    1.0981 H   0  0  0  0  0  0  0  0  0  0  0  0
   -1.3101    1.5586    3.3319 H   0  0  0  0  0  0  0  0  0  0  0  0
   -2.2263    0.1384    2.8556 H   0  0  0  0  0  0  0  0  0  0  0  0
    0.1376   -0.3237    2.6122 H   0  0  0  0  0  0  0  0  0  0  0  0
    2.2390    0.2087    1.5825 H   0  0  0  0  0  0  0  0  0  0  0  0
    1.4563    0.2706   -0.0036 H   0  0  0  0  0  0  0  0  0  0  0  0
    2.8372    2.6318    1.3809 H   0  0  0  0  0  0  0  0  0  0  0  0
    3.4991    1.6937    0.0323 H   0  0  0  0  0  0  0  0  0  0  0  0
    2.0560    2.6928   -0.2050 H   0  0  0  0  0  0  0  0  0  0  0  0
    0.7405   -3.0501   -2.9921 C   0  0  0  0  0  0  0  0  0  0  0  0
    0.7405   -3.0501   -1.4692 C   0  0  0  0  0  0  0  0  0  0  0  0
    0.7405   -1.6570   -0.8737 C   0  0  0  0  0  0  0  0  0  0  0  0
   -0.4425   -0.9934   -1.2413 O   0  0  0  0  0  0  0  0  0  0  0  0
   -0.5133    0.3246   -0.7604 C   0  0  0  0  0  0  0  0  0  0  0  0
   -1.8166    0.9424   -1.2112 C   0  0  0  0  0  0  0  0  0  0  0  0
    1.6225   -2.5358   -3.3818 H   0  0  0  0  0  0  0  0  0  0  0  0
   -0.1423   -2.5404   -3.3782 H   0  0  0  0  0  0  0  0  0  0  0  0
    0.7459   -4.0680   -3.3848 H   0  0  0  0  0  0  0  0  0  0  0  0
    1.6220   -3.5766   -1.0929 H   0  0  0  0  0  0  0  0  0  0  0  0
   -0.1339   -3.5881   -1.0939 H   0  0  0  0  0  0  0  0  0  0  0  0
    1.6147   -1.0920   -1.2341 H   0  0  0  0  0  0  0  0  0  0  0  0
    0.8152   -1.7110    0.2223 H   0  0  0  0  0  0  0  0  0  0  0  0
   -0.4326    0.3281    0.5573 H   0  0  0  0  0  0  0  0  0  0  0  0
    0.3396    0.9076   -1.1383 H   0  0  0  0  0  0  0  0  0  0  0  0
   -2.6629    0.3730   -0.8256 H   0  0  0  0  0  0  0  0  0  0  0  0
   -1.8774    0.9543   -2.3001 H   0  0  0  0  0  0  0  0  0  0  0  0
   -1.8942    1.9684   -0.8482 H   0  0  0  0  0  0  0  0  0  0  0  0
  1  2  1  0
  1  7  1  0
  1  8  1  0
  1  9  1  0
  2  3  1  0
  2 10  1  0
  2 11  1  0
  3  4  1  0
  3 12  1  0
  4  5  1  0
  5  6  1  0
  5 13  1  0
  5 14  1  0
  6 15  1  0
  6 16  1  0
  6 17  1  0
 18 19  1  0
 18 24  1  0
 18 25  1  0
 18 26  1  0
 19 20  1  0
 19 27  1  0
 19 28  1  0
 20 21  1  0
 20 29  1  0
 20 30  1  0
 21 22  1  0
 22 23  1  0
 22 31  1  0
 22 32  1  0
 23 33  1  0
 23 34  1  0
 23 35  1  0
M  RAD  1   3   2
M  END
>  <reaction>  (14) 
rmg_rxn_341

>  <mol_properties>  (14) 
{"2": {"label": "*3", "atom_type": "Cs"}, "3": {"label": "*4", "atom_type": "O2s"}, "20": {"label": "*0", "atom_type": "O2s"}, "21": {"label": "*1", "atom_type": "Cs"}, "30": {"label": "*2", "atom_type": "H0"}}

>  <type>  (14) 
unop_10

>  <geom_source>  (14) 
Heuristics

$$$$

     RDKit          3D

 35 33  0  0  0  0  0  0  0  0999 V2000
   -0.6198   -1.6425    1.5778 C   0  0  0  0  0  0  0  0  0  0  0  0
    0.5261   -0.7347    2.0045 C   0  0  0  0  0  0  0  0  0  0  0  0
    0.3865    0.6829    1.4886 C   0  0  0  0  0  3  0  0  0  0  0  0
   -0.7684    1.2664    2.0368 O   0  0  0  0  0  0  0  0  0  0  0  0
   -0.9983    2.5762    1.5839 C   0  0  0  0  0  0  0  0  0  0  0  0
   -2.2574    3.1053    2.2306 C   0  0  0  0  0  0  0  0  0  0  0  0
   -0.6838   -1.7035    0.4885 H   0  0  0  0  0  0  0  0  0  0  0  0
   -0.4832   -2.6544    1.9622 H   0  0  0  0  0  0  0  0  0  0  0  0
   -1.5719   -1.2627    1.9485 H   0  0  0  0  0  0  0  0  0  0  0  0
    0.5931   -0.7023    3.0950 H   0  0  0  0  0  0  0  0  0  0  0  0
    1.4772   -1.1329    1.6403 H   0  0  0  0  0  0  0  0  0  0  0  0
    1.2718    1.2764    1.7603 H   0  0  0  0  0  0  0  0  0  0  0  0
   -0.1393    3.2161    1.8346 H   0  0  0  0  0  0  0  0  0  0  0  0
   -1.0972    2.5819    0.4884 H   0  0  0  0  0  0  0  0  0  0  0  0
   -2.1552    3.1130    3.3164 H   0  0  0  0  0  0  0  0  0  0  0  0
   -2.4563    4.1238    1.8936 H   0  0  0  0  0  0  0  0  0  0  0  0
   -3.1125    2.4806    1.9700 H   0  0  0  0  0  0  0  0  0  0  0  0
    1.4787   -2.6987   -3.3802 C   0  0  0  0  0  0  0  0  0  0  0  0
    1.4787   -2.6987   -1.8573 C   0  0  0  0  0  0  0  0  0  0  0  0
    1.4787   -1.3056   -1.2618 C   0  0  0  0  0  0  0  0  0  0  0  0
    0.2957   -0.6420   -1.6294 O   0  0  0  0  0  0  0  0  0  0  0  0
    0.2250    0.6760   -1.1485 C   0  0  0  0  0  0  0  0  0  0  0  0
   -1.0783    1.2938   -1.5993 C   0  0  0  0  0  0  0  0  0  0  0  0
    2.3608   -2.1844   -3.7699 H   0  0  0  0  0  0  0  0  0  0  0  0
    0.5960   -2.1890   -3.7663 H   0  0  0  0  0  0  0  0  0  0  0  0
    1.4842   -3.7165   -3.7729 H   0  0  0  0  0  0  0  0  0  0  0  0
    2.3603   -3.2252   -1.4811 H   0  0  0  0  0  0  0  0  0  0  0  0
    0.6044   -3.2367   -1.4821 H   0  0  0  0  0  0  0  0  0  0  0  0
    2.3529   -0.7405   -1.6222 H   0  0  0  0  0  0  0  0  0  0  0  0
    1.5535   -1.3595   -0.1658 H   0  0  0  0  0  0  0  0  0  0  0  0
    0.3057    0.6795    0.1692 H   0  0  0  0  0  0  0  0  0  0  0  0
    1.0779    1.2590   -1.5264 H   0  0  0  0  0  0  0  0  0  0  0  0
   -1.9246    0.7244   -1.2137 H   0  0  0  0  0  0  0  0  0  0  0  0
   -1.1391    1.3057   -2.6882 H   0  0  0  0  0  0  0  0  0  0  0  0
   -1.1559    2.3198   -1.2363 H   0  0  0  0  0  0  0  0  0  0  0  0
  1  2  1  0
  1  7  1  0
  1  8  1  0
  1  9  1  0
  2  3  1  0
  2 10  1  0
  2 11  1  0
  3  4  1  0
  3 12  1  0
  4  5  1  0
  5  6  1  0
  5 13  1  0
  5 14  1  0
  6 15  1  0
  6 16  1  0
  6 17  1  0
 18 19  1  0
 18 24  1  0
 18 25  1  0
 18 26  1  0
 19 20  1  0
 19 27  1  0
 19 28  1  0
 20 21  1  0
 20 29  1  0
 20 30  1  0
 21 22  1  0
 22 23  1  0
 22 31  1  0
 22 32  1  0
 23 33  1  0
 23 34  1  0
 23 35  1  0
M  RAD  1   3   2
M  END
>  <reaction>  (15) 
rmg_rxn_341

>  <mol_properties>  (15) 
{"2": {"label": "*3", "atom_type": "Cs"}, "3": {"label": "*4", "atom_type": "O2s"}, "20": {"label": "*0", "atom_type": "O2s"}, "21": {"label": "*1", "atom_type": "Cs"}, "30": {"label": "*2", "atom_type": "H0"}}

>  <type>  (15) 
unop_11

>  <geom_source>  (15) 
Heuristics

$$$$

     RDKit          3D

 35 31  0  0  0  0  0  0  0  0999 V2000
   -2.2894    0.6374    0.2679 O   0  0  0  0  0  0  0  0  0  0  0  0
    1.7705   -0.2406   -0.8466 O   0  0  0  0  0  1  0  0  0  0  0  0
   -1.5495   -1.0382    1.8277 C   0  0  0  0  0  0  0  0  0  0  0  0
    3.5423    0.7815    0.4143 C   0  0  0  0  0  0  0  0  0  0  0  0
   -1.5930   -0.5869    0.3686 C   0  0  0  0  0  0  0  0  0  0  0  0
    2.3303   -0.1510    0.4423 C   0  0  0  0  0  0  0  0  0  0  0  0
   -2.3813    1.0400   -1.0849 C   0  0  0  0  0  0  0  0  0  0  0  0
   -0.7389   -0.0764    2.6929 C   0  0  0  0  0  0  0  0  0  0  0  0
    3.1480    2.2179    0.0764 C   0  0  0  0  0  0  0  0  0  0  0  0
   -3.7336    0.6394   -1.6635 C   0  0  0  0  0  0  0  0  0  0  0  0
    0.7690   -2.1791   -1.8314 C   0  0  0  0  0  3  0  0  0  0  0  0
    0.6670   -1.1029   -0.7641 C   0  0  0  0  0  1  0  0  0  0  0  0
   -2.5847   -1.1125    2.2258 H   0  0  0  0  0  0  0  0  0  0  0  0
   -1.0844   -2.0461    1.8792 H   0  0  0  0  0  0  0  0  0  0  0  0
    4.2765    0.4142   -0.3353 H   0  0  0  0  0  0  0  0  0  0  0  0
    4.0321    0.7689    1.4121 H   0  0  0  0  0  0  0  0  0  0  0  0
   -1.5606    0.6488   -1.7321 H   0  0  0  0  0  0  0  0  0  0  0  0
   -2.3060    2.1475   -1.1180 H   0  0  0  0  0  0  0  0  0  0  0  0
   -2.1055   -1.3799   -0.2218 H   0  0  0  0  0  0  0  0  0  0  0  0
   -0.3290   -0.4501   -0.0820 H   0  0  0  0  0  0  0  0  0  0  0  0
    2.6785   -1.1537    0.7841 H   0  0  0  0  0  0  0  0  0  0  0  0
    1.5873    0.2437    1.1750 H   0  0  0  0  0  0  0  0  0  0  0  0
   -1.2023    0.9330    2.6920 H   0  0  0  0  0  0  0  0  0  0  0  0
    0.3036   -0.0025    2.3167 H   0  0  0  0  0  0  0  0  0  0  0  0
   -0.7124   -0.4511    3.7379 H   0  0  0  0  0  0  0  0  0  0  0  0
   -3.8270    1.0275   -2.6997 H   0  0  0  0  0  0  0  0  0  0  0  0
   -4.5526    1.0645   -1.0454 H   0  0  0  0  0  0  0  0  0  0  0  0
   -3.8313   -0.4660   -1.6869 H   0  0  0  0  0  0  0  0  0  0  0  0
    2.4242    2.6060    0.8244 H   0  0  0  0  0  0  0  0  0  0  0  0
    4.0516    2.8630    0.0896 H   0  0  0  0  0  0  0  0  0  0  0  0
    2.6930    2.2686   -0.9356 H   0  0  0  0  0  0  0  0  0  0  0  0
   -0.1032   -2.8610   -1.7536 H   0  0  0  0  0  0  0  0  0  0  0  0
    0.7811   -1.7159   -2.8407 H   0  0  0  0  0  0  0  0  0  0  0  0
    1.6995   -2.7665   -1.6840 H   0  0  0  0  0  0  0  0  0  0  0  0
   -0.2694   -0.5211   -0.9015 H   0  0  0  0  0  0  0  0  0  0  0  0
  1  7  1  0
  1  5  1  0
  2  6  1  0
  3  8  1  0
  3  5  1  0
  3 13  1  0
  3 14  1  0
  4  9  1  0
  4  6  1  0
  4 15  1  0
  4 16  1  0
  5 19  1  0
  5 20  1  0
  6 21  1  0
  6 22  1  0
  7 10  1  0
  7 17  1  0
  7 18  1  0
  8 23  1  0
  8 24  1  0
  8 25  1  0
  9 29  1  0
  9 30  1  0
  9 31  1  0
 10 26  1  0
 10 27  1  0
 10 28  1  0
 11 32  1  0
 11 33  1  0
 11 34  1  0
 12 35  1  0
M  RAD  3   2   2  11   2  12   2
M  END
>  <reaction>  (16) 
rmg_rxn_341

>  <mol_properties>  (16) 
{"2": {"label": "*3", "atom_type": "Cs"}, "3": {"label": "*4", "atom_type": "O2s"}, "20": {"label": "*0", "atom_type": "O2s"}, "21": {"label": "*1", "atom_type": "Cs"}, "30": {"label": "*2", "atom_type": "H0"}}

>  <type>  (16) 
unop_12

>  <geom_source>  (16) 
AutoTST

$$$$

     RDKit          3D

 35 33  0  0  0  0  0  0  0  0999 V2000
    0.4130   -1.6322    1.7521 C   0  0  0  0  0  0  0  0  0  0  0  0
    1.1546   -0.3040    1.8238 C   0  0  0  0  0  0  0  0  0  0  0  0
    0.3214    0.8696    1.3510 C   0  0  0  0  0  3  0  0  0  0  0  0
   -0.7898    1.0229    2.1976 O   0  0  0  0  0  0  0  0  0  0  0  0
   -1.6421    2.0710    1.8123 C   0  0  0  0  0  0  0  0  0  0  0  0
   -2.7973    2.1467    2.7836 C   0  0  0  0  0  0  0  0  0  0  0  0
    0.1046   -1.8514    0.7268 H   0  0  0  0  0  0  0  0  0  0  0  0
    1.0443   -2.4535    2.0944 H   0  0  0  0  0  0  0  0  0  0  0  0
   -0.4823   -1.6085    2.3733 H   0  0  0  0  0  0  0  0  0  0  0  0
    1.4777   -0.1095    2.8498 H   0  0  0  0  0  0  0  0  0  0  0  0
    2.0583   -0.3440    1.2093 H   0  0  0  0  0  0  0  0  0  0  0  0
    0.9237    1.7899    1.3523 H   0  0  0  0  0  0  0  0  0  0  0  0
   -1.0871    3.0208    1.8003 H   0  0  0  0  0  0  0  0  0  0  0  0
   -2.0099    1.8983    0.7901 H   0  0  0  0  0  0  0  0  0  0  0  0
   -2.4345    2.3316    3.7952 H   0  0  0  0  0  0  0  0  0  0  0  0
   -3.4739    2.9558    2.5041 H   0  0  0  0  0  0  0  0  0  0  0  0
   -3.3575    1.2109    2.7847 H   0  0  0  0  0  0  0  0  0  0  0  0
    1.4136   -2.5120   -3.5178 C   0  0  0  0  0  0  0  0  0  0  0  0
    1.4136   -2.5120   -1.9949 C   0  0  0  0  0  0  0  0  0  0  0  0
    1.4136   -1.1189   -1.3994 C   0  0  0  0  0  0  0  0  0  0  0  0
    0.2306   -0.4553   -1.7670 O   0  0  0  0  0  0  0  0  0  0  0  0
    0.1599    0.8627   -1.2861 C   0  0  0  0  0  0  0  0  0  0  0  0
   -1.1434    1.4805   -1.7369 C   0  0  0  0  0  0  0  0  0  0  0  0
    2.2957   -1.9977   -3.9074 H   0  0  0  0  0  0  0  0  0  0  0  0
    0.5309   -2.0023   -3.9039 H   0  0  0  0  0  0  0  0  0  0  0  0
    1.4191   -3.5299   -3.9105 H   0  0  0  0  0  0  0  0  0  0  0  0
    2.2951   -3.0385   -1.6186 H   0  0  0  0  0  0  0  0  0  0  0  0
    0.5392   -3.0500   -1.6196 H   0  0  0  0  0  0  0  0  0  0  0  0
    2.2878   -0.5538   -1.7598 H   0  0  0  0  0  0  0  0  0  0  0  0
    1.4884   -1.1728   -0.3033 H   0  0  0  0  0  0  0  0  0  0  0  0
    0.2406    0.8662    0.0316 H   0  0  0  0  0  0  0  0  0  0  0  0
    1.0128    1.4457   -1.6640 H   0  0  0  0  0  0  0  0  0  0  0  0
   -1.9898    0.9111   -1.3512 H   0  0  0  0  0  0  0  0  0  0  0  0
   -1.2042    1.4924   -2.8257 H   0  0  0  0  0  0  0  0  0  0  0  0
   -1.2210    2.5065   -1.3739 H   0  0  0  0  0  0  0  0  0  0  0  0
  1  2  1  0
  1  7  1  0
  1  8  1  0
  1  9  1  0
  2  3  1  0
  2 10  1  0
  2 11  1  0
  3  4  1  0
  3 12  1  0
  4  5  1  0
  5  6  1  0
  5 13  1  0
  5 14  1  0
  6 15  1  0
  6 16  1  0
  6 17  1  0
 18 19  1  0
 18 24  1  0
 18 25  1  0
 18 26  1  0
 19 20  1  0
 19 27  1  0
 19 28  1  0
 20 21  1  0
 20 29  1  0
 20 30  1  0
 21 22  1  0
 22 23  1  0
 22 31  1  0
 22 32  1  0
 23 33  1  0
 23 34  1  0
 23 35  1  0
M  RAD  1   3   2
M  END
>  <reaction>  (17) 
rmg_rxn_341

>  <mol_properties>  (17) 
{"2": {"label": "*3", "atom_type": "Cs"}, "3": {"label": "*4", "atom_type": "O2s"}, "20": {"label": "*0", "atom_type": "O2s"}, "21": {"label": "*1", "atom_type": "Cs"}, "30": {"label": "*2", "atom_type": "H0"}}

>  <type>  (17) 
unop_13

>  <geom_source>  (17) 
gaussian_log

$$$$
