
     RDKit          3D

  6  5  0  0  0  0  0  0  0  0999 V2000
   -0.4547   -0.0097   -0.0070 C   0  0  0  0  0  0  0  0  0  0  0  0
    0.8695   -0.1987   -0.6218 N   0  0  0  0  0  0  0  0  0  0  0  0
    1.0322   -1.2809   -1.0969 O   0  0  0  0  0  0  0  0  0  0  0  0
   -0.2820    0.2687    1.0347 H   0  0  0  0  0  0  0  0  0  0  0  0
   -1.0716   -0.9051   -0.0916 H   0  0  0  0  0  0  0  0  0  0  0  0
   -0.9130    0.8487   -0.5026 H   0  0  0  0  0  0  0  0  0  0  0  0
  1  2  1  0
  1  4  1  0
  1  5  1  0
  1  6  1  0
  2  3  2  0
M  END
>  <reaction>  (1) 
rmg_rxn_592

>  <mol_properties>  (1) 
{"0": {"label": "donator", "atom_type": "Cs"}, "3": {"label": "d_hydrogen", "atom_type": "H0"}}

>  <type>  (1) 
r1h

$$$$

     RDKit          3D

 17 16  0  0  0  0  0  0  0  0999 V2000
    3.3619    0.3511   -1.0290 C   0  0  0  0  0  3  0  0  0  0  0  0
    2.1806    1.0643   -0.5073 C   0  0  0  0  0  0  0  0  0  0  0  0
    1.4028    0.1998    0.2757 O   0  0  0  0  0  0  0  0  0  0  0  0
    0.2433    0.8081    0.7885 C   0  0  0  0  0  0  0  0  0  0  0  0
   -0.5040   -0.1878    1.6510 C   0  0  0  0  0  0  0  0  0  0  0  0
    0.2852   -0.6298    2.8762 C   0  0  0  0  0  0  0  0  0  0  0  0
    4.1174    0.8902   -1.5820 H   0  0  0  0  0  0  0  0  0  0  0  0
    3.4399   -0.7198   -0.9141 H   0  0  0  0  0  0  0  0  0  0  0  0
    1.5724    1.4684   -1.3398 H   0  0  0  0  0  0  0  0  0  0  0  0
    2.4896    1.9442    0.0856 H   0  0  0  0  0  0  0  0  0  0  0  0
    0.5169    1.6937    1.3835 H   0  0  0  0  0  0  0  0  0  0  0  0
   -0.3954    1.1528   -0.0379 H   0  0  0  0  0  0  0  0  0  0  0  0
   -0.7611   -1.0545    1.0367 H   0  0  0  0  0  0  0  0  0  0  0  0
   -1.4466    0.2743    1.9571 H   0  0  0  0  0  0  0  0  0  0  0  0
    0.5263    0.2245    3.5136 H   0  0  0  0  0  0  0  0  0  0  0  0
    1.2220   -1.1033    2.5825 H   0  0  0  0  0  0  0  0  0  0  0  0
   -0.2849   -1.3427    3.4737 H   0  0  0  0  0  0  0  0  0  0  0  0
  1  2  1  0
  1  7  1  0
  1  8  1  0
  2  3  1  0
  2  9  1  0
  2 10  1  0
  3  4  1  0
  4  5  1  0
  4 11  1  0
  4 12  1  0
  5  6  1  0
  5 13  1  0
  5 14  1  0
  6 15  1  0
  6 16  1  0
  6 17  1  0
M  RAD  1   1   2
M  END
>  <reaction>  (2) 
rmg_rxn_592

>  <mol_properties>  (2) 
{"0": {"label": "acceptor", "atom_type": "Cs"}}

>  <type>  (2) 
r2

$$$$

     RDKit          3D

 18 17  0  0  0  0  0  0  0  0999 V2000
    2.2026   -0.7213   -0.2612 C   0  0  0  0  0  0  0  0  0  0  0  0
    1.5384    0.2638    0.6915 C   0  0  0  0  0  0  0  0  0  0  0  0
    2.2584    1.5946    0.7694 C   0  0  0  0  0  0  0  0  0  0  0  0
    2.2212    2.2185   -0.4893 O   0  0  0  0  0  0  0  0  0  0  0  0
    2.8988    3.4488   -0.5204 C   0  0  0  0  0  0  0  0  0  0  0  0
    2.7981    4.0296   -1.9118 C   0  0  0  0  0  0  0  0  0  0  0  0
    3.2294   -0.9309    0.0486 H   0  0  0  0  0  0  0  0  0  0  0  0
    2.2338   -0.3181   -1.2734 H   0  0  0  0  0  0  0  0  0  0  0  0
    1.6610   -1.6680   -0.2875 H   0  0  0  0  0  0  0  0  0  0  0  0
    1.4990   -0.1566    1.7002 H   0  0  0  0  0  0  0  0  0  0  0  0
    0.5055    0.4455    0.3835 H   0  0  0  0  0  0  0  0  0  0  0  0
    3.3038    1.4410    1.0808 H   0  0  0  0  0  0  0  0  0  0  0  0
    1.7844    2.2410    1.5226 H   0  0  0  0  0  0  0  0  0  0  0  0
    2.4596    4.1376    0.2164 H   0  0  0  0  0  0  0  0  0  0  0  0
    3.9524    3.3035   -0.2397 H   0  0  0  0  0  0  0  0  0  0  0  0
    1.7543    4.1869   -2.1856 H   0  0  0  0  0  0  0  0  0  0  0  0
    3.2472    3.3545   -2.6411 H   0  0  0  0  0  0  0  0  0  0  0  0
    3.3178    4.9878   -1.9600 H   0  0  0  0  0  0  0  0  0  0  0  0
  1  2  1  0
  1  7  1  0
  1  8  1  0
  1  9  1  0
  2  3  1  0
  2 10  1  0
  2 11  1  0
  3  4  1  0
  3 12  1  0
  3 13  1  0
  4  5  1  0
  5  6  1  0
  5 14  1  0
  5 15  1  0
  6 16  1  0
  6 17  1  0
  6 18  1  0
M  END
>  <reaction>  (3) 
rmg_rxn_592

>  <mol_properties>  (3) 
{"0": {"label": "a_hydrogen", "atom_type": "H0"}, "1": {"label": "acceptor", "atom_type": "Cs"}}

>  <type>  (3) 
r2h

$$$$

     RDKit          3D

 23 21  0  0  0  0  0  0  0  0999 V2000
    2.7961   -1.3635   -0.8387 C   0  0  0  0  0  0  0  0  0  0  0  0
    2.3399   -2.6690   -1.1797 N   0  0  0  0  0  0  0  0  0  0  0  0
    1.3235   -2.6965   -1.8325 O   0  0  0  0  0  0  0  0  0  0  0  0
    2.0266   -0.9718    0.0506 H   0  0  0  0  0  0  0  0  0  0  0  0
    2.6568   -0.6334   -1.6379 H   0  0  0  0  0  0  0  0  0  0  0  0
    3.7944   -1.3858   -0.4109 H   0  0  0  0  0  0  0  0  0  0  0  0
    1.0115   -0.4085    0.9670 C   0  0  0  0  0  3  0  0  0  0  0  0
   -0.0684    0.0877    0.0576 C   0  0  0  0  0  0  0  0  0  0  0  0
   -1.0579    0.7098    0.8437 O   0  0  0  0  0  0  0  0  0  0  0  0
   -2.1388    1.1975    0.0811 C   0  0  0  0  0  0  0  0  0  0  0  0
   -3.1295    1.8808    1.0003 C   0  0  0  0  0  0  0  0  0  0  0  0
   -2.5538    3.1049    1.6999 C   0  0  0  0  0  0  0  0  0  0  0  0
    1.5793    0.3509    1.4964 H   0  0  0  0  0  0  0  0  0  0  0  0
    0.7833   -1.2914    1.5564 H   0  0  0  0  0  0  0  0  0  0  0  0
   -0.4974   -0.7441   -0.5156 H   0  0  0  0  0  0  0  0  0  0  0  0
    0.3422    0.8068   -0.6662 H   0  0  0  0  0  0  0  0  0  0  0  0
   -1.7700    1.9078   -0.6750 H   0  0  0  0  0  0  0  0  0  0  0  0
   -2.6211    0.3677   -0.4539 H   0  0  0  0  0  0  0  0  0  0  0  0
   -3.4767    1.1539    1.7390 H   0  0  0  0  0  0  0  0  0  0  0  0
   -3.9998    2.1641    0.4020 H   0  0  0  0  0  0  0  0  0  0  0  0
   -2.2233    3.8503    0.9722 H   0  0  0  0  0  0  0  0  0  0  0  0
   -1.6956    2.8320    2.3140 H   0  0  0  0  0  0  0  0  0  0  0  0
   -3.2983    3.5741    2.3445 H   0  0  0  0  0  0  0  0  0  0  0  0
  1  2  1  0
  1  4  1  0
  1  5  1  0
  1  6  1  0
  2  3  2  0
  7  8  1  0
  7 13  1  0
  7 14  1  0
  8  9  1  0
  8 15  1  0
  8 16  1  0
  9 10  1  0
 10 11  1  0
 10 17  1  0
 10 18  1  0
 11 12  1  0
 11 19  1  0
 11 20  1  0
 12 21  1  0
 12 22  1  0
 12 23  1  0
M  RAD  1   7   2
M  END
>  <reaction>  (4) 
rmg_rxn_592

>  <mol_properties>  (4) 
{"0": {"label": "*1", "atom_type": "Cs"}, "1": {"label": "*0", "atom_type": "N3d"}, "3": {"label": "*2", "atom_type": "H0"}, "6": {"label": "*3", "atom_type": "Cs"}, "7": {"label": "*4", "atom_type": "Cs"}}

>  <type>  (4) 
ts

$$$$

     RDKit          3D

 23 21  0  0  0  0  0  0  0  0999 V2000
    1.8622   -0.5946   -2.3553 C   0  0  0  0  0  0  0  0  0  0  0  0
    1.8622   -1.9404   -2.9521 N   0  0  0  0  0  0  0  0  0  0  0  0
    1.8622   -1.9404   -4.1452 O   0  0  0  0  0  1  0  0  0  0  0  0
    0.8062   -0.5232   -1.5827 H   0  0  0  0  0  0  0  0  0  0  0  0
    1.8622    0.1859   -3.1170 H   0  0  0  0  0  0  0  0  0  0  0  0
    2.7422   -0.5351   -1.7114 H   0  0  0  0  0  0  0  0  0  0  0  0
   -0.2490   -0.4519   -0.8107 C   0  0  0  0  0  0  0  0  0  0  0  0
    0.1641   -0.1771    0.6167 C   0  0  0  0  0  0  0  0  0  0  0  0
   -0.7467    0.7260    1.1896 O   0  0  0  0  0  0  0  0  0  0  0  0
   -0.4475    1.0461    2.5249 C   0  0  0  0  0  0  0  0  0  0  0  0
   -1.5030    1.9901    3.0635 C   0  0  0  0  0  0  0  0  0  0  0  0
   -2.8943    1.3721    3.1041 C   0  0  0  0  0  0  0  0  0  0  0  0
   -1.2500   -0.8835   -0.8425 H   0  0  0  0  0  0  0  0  0  0  0  0
   -0.2537    0.4711   -1.3915 H   0  0  0  0  0  0  0  0  0  0  0  0
    1.1801    0.2436    0.6487 H   0  0  0  0  0  0  0  0  0  0  0  0
    0.1821   -1.1107    1.1982 H   0  0  0  0  0  0  0  0  0  0  0  0
   -0.4164    0.1277    3.1325 H   0  0  0  0  0  0  0  0  0  0  0  0
    0.5471    1.5118    2.5852 H   0  0  0  0  0  0  0  0  0  0  0  0
   -1.5106    2.8915    2.4452 H   0  0  0  0  0  0  0  0  0  0  0  0
   -1.1982    2.2973    4.0678 H   0  0  0  0  0  0  0  0  0  0  0  0
   -2.9071    0.4825    3.7388 H   0  0  0  0  0  0  0  0  0  0  0  0
   -3.2143    1.0756    2.1052 H   0  0  0  0  0  0  0  0  0  0  0  0
   -3.6257    2.0773    3.5016 H   0  0  0  0  0  0  0  0  0  0  0  0
  1  2  2  3
  1  5  1  0
  1  6  1  0
  2  3  1  0
  4  7  1  0
  7  8  1  0
  7 13  1  0
  7 14  1  0
  8  9  1  0
  8 15  1  0
  8 16  1  0
  9 10  1  0
 10 11  1  0
 10 17  1  0
 10 18  1  0
 11 12  1  0
 11 19  1  0
 11 20  1  0
 12 21  1  0
 12 22  1  0
 12 23  1  0
M  RAD  1   3   2
M  END
>  <reaction>  (5) 
rmg_rxn_592

>  <mol_properties>  (5) 
{"0": {"label": "*1", "atom_type": "Cs"}, "1": {"label": "*0", "atom_type": "N3d"}, "3": {"label": "*2", "atom_type": "H0"}, "6": {"label": "*3", "atom_type": "Cs"}, "7": {"label": "*4", "atom_type": "Cs"}}

>  <type>  (5) 
unop_1

>  <geom_source>  (5) 
Heuristics

$$$$

     RDKit          3D

 23 21  0  0  0  0  0  0  0  0999 V2000
    2.4317    1.1626   -1.9518 C   0  0  0  0  0  0  0  0  0  0  0  0
    2.4317   -0.1832   -2.5486 N   0  0  0  0  0  0  0  0  0  0  0  0
    2.4317   -0.1832   -3.7417 O   0  0  0  0  0  1  0  0  0  0  0  0
    1.3757    1.2340   -1.1792 H   0  0  0  0  0  0  0  0  0  0  0  0
    2.4317    1.9431   -2.7136 H   0  0  0  0  0  0  0  0  0  0  0  0
    3.3118    1.2221   -1.3080 H   0  0  0  0  0  0  0  0  0  0  0  0
    0.3206    1.3053   -0.4073 C   0  0  0  0  0  0  0  0  0  0  0  0
   -0.0172   -0.0600    0.1454 C   0  0  0  0  0  0  0  0  0  0  0  0
   -0.8558    0.0943    1.2618 O   0  0  0  0  0  0  0  0  0  0  0  0
   -1.2291   -1.1262    1.8501 C   0  0  0  0  0  0  0  0  0  0  0  0
   -2.1594   -0.8581    3.0154 C   0  0  0  0  0  0  0  0  0  0  0  0
   -3.4680   -0.2006    2.5976 C   0  0  0  0  0  0  0  0  0  0  0  0
   -0.5863    1.8302   -0.7098 H   0  0  0  0  0  0  0  0  0  0  0  0
    0.8312    1.9067    0.3457 H   0  0  0  0  0  0  0  0  0  0  0  0
    0.8993   -0.5948    0.4356 H   0  0  0  0  0  0  0  0  0  0  0  0
   -0.5198   -0.6707   -0.6192 H   0  0  0  0  0  0  0  0  0  0  0  0
   -1.7308   -1.7636    1.1048 H   0  0  0  0  0  0  0  0  0  0  0  0
   -0.3344   -1.6665    2.1930 H   0  0  0  0  0  0  0  0  0  0  0  0
   -1.6367   -0.2272    3.7389 H   0  0  0  0  0  0  0  0  0  0  0  0
   -2.3592   -1.8115    3.5123 H   0  0  0  0  0  0  0  0  0  0  0  0
   -4.0134   -0.8320    1.8917 H   0  0  0  0  0  0  0  0  0  0  0  0
   -3.2812    0.7583    2.1141 H   0  0  0  0  0  0  0  0  0  0  0  0
   -4.1136   -0.0279    3.4600 H   0  0  0  0  0  0  0  0  0  0  0  0
  1  2  2  3
  1  5  1  0
  1  6  1  0
  2  3  1  0
  4  7  1  0
  7  8  1  0
  7 13  1  0
  7 14  1  0
  8  9  1  0
  8 15  1  0
  8 16  1  0
  9 10  1  0
 10 11  1  0
 10 17  1  0
 10 18  1  0
 11 12  1  0
 11 19  1  0
 11 20  1  0
 12 21  1  0
 12 22  1  0
 12 23  1  0
M  RAD  1   3   2
M  END
>  <reaction>  (6) 
rmg_rxn_592

>  <mol_properties>  (6) 
{"0": {"label": "*1", "atom_type": "Cs"}, "1": {"label": "*0", "atom_type": "N3d"}, "3": {"label": "*2", "atom_type": "H0"}, "6": {"label": "*3", "atom_type": "Cs"}, "7": {"label": "*4", "atom_type": "Cs"}}

>  <type>  (6) 
unop_2

>  <geom_source>  (6) 
Heuristics

$$$$

     RDKit          3D

 23 21  0  0  0  0  0  0  0  0999 V2000
    2.1560   -0.8551   -2.0670 C   0  0  0  0  0  0  0  0  0  0  0  0
    2.1560   -2.2009   -2.6639 N   0  0  0  0  0  0  0  0  0  0  0  0
    2.1560   -2.2009   -3.8570 O   0  0  0  0  0  1  0  0  0  0  0  0
    1.0999   -0.7837   -1.2945 H   0  0  0  0  0  0  0  0  0  0  0  0
    2.1560   -0.0746   -2.8288 H   0  0  0  0  0  0  0  0  0  0  0  0
    3.0360   -0.7956   -1.4232 H   0  0  0  0  0  0  0  0  0  0  0  0
    0.0448   -0.7124   -0.5225 C   0  0  0  0  0  0  0  0  0  0  0  0
    0.3039    0.2263    0.6331 C   0  0  0  0  0  0  0  0  0  0  0  0
   -0.9147    0.7918    1.0438 O   0  0  0  0  0  0  0  0  0  0  0  0
   -0.7790    1.6842    2.1209 C   0  0  0  0  0  0  0  0  0  0  0  0
   -2.1450    2.2082    2.5140 C   0  0  0  0  0  0  0  0  0  0  0  0
   -3.0828    1.1181    3.0156 C   0  0  0  0  0  0  0  0  0  0  0  0
   -0.6370   -1.5089   -0.2223 H   0  0  0  0  0  0  0  0  0  0  0  0
   -0.4020   -0.1742   -1.3592 H   0  0  0  0  0  0  0  0  0  0  0  0
    1.0040    1.0204    0.3338 H   0  0  0  0  0  0  0  0  0  0  0  0
    0.7674   -0.3146    1.4713 H   0  0  0  0  0  0  0  0  0  0  0  0
   -0.3106    1.1712    2.9758 H   0  0  0  0  0  0  0  0  0  0  0  0
   -0.1184    2.5166    1.8373 H   0  0  0  0  0  0  0  0  0  0  0  0
   -2.5848    2.7133    1.6501 H   0  0  0  0  0  0  0  0  0  0  0  0
   -2.0038    2.9683    3.2874 H   0  0  0  0  0  0  0  0  0  0  0  0
   -2.6663    0.6200    3.8947 H   0  0  0  0  0  0  0  0  0  0  0  0
   -3.2425    0.3623    2.2466 H   0  0  0  0  0  0  0  0  0  0  0  0
   -4.0530    1.5322    3.2939 H   0  0  0  0  0  0  0  0  0  0  0  0
  1  2  2  3
  1  5  1  0
  1  6  1  0
  2  3  1  0
  4  7  1  0
  7  8  1  0
  7 13  1  0
  7 14  1  0
  8  9  1  0
  8 15  1  0
  8 16  1  0
  9 10  1  0
 10 11  1  0
 10 17  1  0
 10 18  1  0
 11 12  1  0
 11 19  1  0
 11 20  1  0
 12 21  1  0
 12 22  1  0
 12 23  1  0
M  RAD  1   3   2
M  END
>  <reaction>  (7) 
rmg_rxn_592

>  <mol_properties>  (7) 
{"0": {"label": "*1", "atom_type": "Cs"}, "1": {"label": "*0", "atom_type": "N3d"}, "3": {"label": "*2", "atom_type": "H0"}, "6": {"label": "*3", "atom_type": "Cs"}, "7": {"label": "*4", "atom_type": "Cs"}}

>  <type>  (7) 
unop_3

>  <geom_source>  (7) 
Heuristics

$$$$

     RDKit          3D

 23 21  0  0  0  0  0  0  0  0999 V2000
    3.1536   -0.3231   -0.4610 C   0  0  0  0  0  0  0  0  0  0  0  0
    3.1536   -1.6689   -1.0578 N   0  0  0  0  0  0  0  0  0  0  0  0
    3.1536   -1.6689   -2.2509 O   0  0  0  0  0  1  0  0  0  0  0  0
    2.0976   -0.2517    0.3116 H   0  0  0  0  0  0  0  0  0  0  0  0
    3.1536    0.4573   -1.2227 H   0  0  0  0  0  0  0  0  0  0  0  0
    4.0336   -0.2636    0.1828 H   0  0  0  0  0  0  0  0  0  0  0  0
    1.0424   -0.1804    1.0836 C   0  0  0  0  0  0  0  0  0  0  0  0
   -0.2147   -0.3980    0.2736 C   0  0  0  0  0  0  0  0  0  0  0  0
   -1.2596    0.3482    0.8435 O   0  0  0  0  0  0  0  0  0  0  0  0
   -2.4786    0.2124    0.1574 C   0  0  0  0  0  0  0  0  0  0  0  0
   -3.5277    1.0808    0.8212 C   0  0  0  0  0  0  0  0  0  0  0  0
   -3.2001    2.5668    0.7611 C   0  0  0  0  0  0  0  0  0  0  0  0
    1.3164    0.8752    1.0876 H   0  0  0  0  0  0  0  0  0  0  0  0
    0.8926   -0.5009    2.1151 H   0  0  0  0  0  0  0  0  0  0  0  0
   -0.4814   -1.4652    0.2571 H   0  0  0  0  0  0  0  0  0  0  0  0
   -0.0582   -0.0874   -0.7700 H   0  0  0  0  0  0  0  0  0  0  0  0
   -2.3515    0.5112   -0.8952 H   0  0  0  0  0  0  0  0  0  0  0  0
   -2.7965   -0.8405    0.1622 H   0  0  0  0  0  0  0  0  0  0  0  0
   -3.6350    0.7619    1.8611 H   0  0  0  0  0  0  0  0  0  0  0  0
   -4.4850    0.8864    0.3297 H   0  0  0  0  0  0  0  0  0  0  0  0
   -3.1135    2.9052   -0.2745 H   0  0  0  0  0  0  0  0  0  0  0  0
   -2.2542    2.7742    1.2614 H   0  0  0  0  0  0  0  0  0  0  0  0
   -3.9785    3.1603    1.2430 H   0  0  0  0  0  0  0  0  0  0  0  0
  1  2  2  3
  1  5  1  0
  1  6  1  0
  2  3  1  0
  4  7  1  0
  7  8  1  0
  7 13  1  0
  7 14  1  0
  8  9  1  0
  8 15  1  0
  8 16  1  0
  9 10  1  0
 10 11  1  0
 10 17  1  0
 10 18  1  0
 11 12  1  0
 11 19  1  0
 11 20  1  0
 12 21  1  0
 12 22  1  0
 12 23  1  0
M  RAD  1   3   2
M  END
>  <reaction>  (8) 
rmg_rxn_592

>  <mol_properties>  (8) 
{"0": {"label": "*1", "atom_type": "Cs"}, "1": {"label": "*0", "atom_type": "N3d"}, "3": {"label": "*2", "atom_type": "H0"}, "6": {"label": "*3", "atom_type": "Cs"}, "7": {"label": "*4", "atom_type": "Cs"}}

>  <type>  (8) 
unop_4

>  <geom_source>  (8) 
Heuristics

$$$$

     RDKit          3D

 23 21  0  0  0  0  0  0  0  0999 V2000
    2.2558   -0.8452   -2.0125 C   0  0  0  0  0  0  0  0  0  0  0  0
    2.2558   -2.1910   -2.6093 N   0  0  0  0  0  0  0  0  0  0  0  0
    2.2558   -2.1910   -3.8024 O   0  0  0  0  0  1  0  0  0  0  0  0
    1.1998   -0.7738   -1.2399 H   0  0  0  0  0  0  0  0  0  0  0  0
    2.2558   -0.0647   -2.7743 H   0  0  0  0  0  0  0  0  0  0  0  0
    3.1358   -0.7857   -1.3687 H   0  0  0  0  0  0  0  0  0  0  0  0
    0.1446   -0.7024   -0.4680 C   0  0  0  0  0  0  0  0  0  0  0  0
    0.0673    0.6563    0.1889 C   0  0  0  0  0  0  0  0  0  0  0  0
   -1.0728    0.7028    1.0084 O   0  0  0  0  0  0  0  0  0  0  0  0
   -1.2339    1.9331    1.6682 C   0  0  0  0  0  0  0  0  0  0  0  0
   -2.4622    1.8713    2.5529 C   0  0  0  0  0  0  0  0  0  0  0  0
   -2.3484    0.8355    3.6636 C   0  0  0  0  0  0  0  0  0  0  0  0
    0.2125   -1.4879    0.2856 H   0  0  0  0  0  0  0  0  0  0  0  0
   -0.7426   -0.8843   -1.0755 H   0  0  0  0  0  0  0  0  0  0  0  0
    0.0147    1.4488   -0.5723 H   0  0  0  0  0  0  0  0  0  0  0  0
    0.9689    0.8445    0.7902 H   0  0  0  0  0  0  0  0  0  0  0  0
   -0.3414    2.1524    2.2754 H   0  0  0  0  0  0  0  0  0  0  0  0
   -1.3351    2.7434    0.9314 H   0  0  0  0  0  0  0  0  0  0  0  0
   -3.3311    1.6553    1.9259 H   0  0  0  0  0  0  0  0  0  0  0  0
   -2.6191    2.8656    2.9802 H   0  0  0  0  0  0  0  0  0  0  0  0
   -1.4969    1.0529    4.3133 H   0  0  0  0  0  0  0  0  0  0  0  0
   -2.2066   -0.1621    3.2481 H   0  0  0  0  0  0  0  0  0  0  0  0
   -3.2469    0.8230    4.2823 H   0  0  0  0  0  0  0  0  0  0  0  0
  1  2  2  3
  1  5  1  0
  1  6  1  0
  2  3  1  0
  4  7  1  0
  7  8  1  0
  7 13  1  0
  7 14  1  0
  8  9  1  0
  8 15  1  0
  8 16  1  0
  9 10  1  0
 10 11  1  0
 10 17  1  0
 10 18  1  0
 11 12  1  0
 11 19  1  0
 11 20  1  0
 12 21  1  0
 12 22  1  0
 12 23  1  0
M  RAD  1   3   2
M  END
>  <reaction>  (9) 
rmg_rxn_592

>  <mol_properties>  (9) 
{"0": {"label": "*1", "atom_type": "Cs"}, "1": {"label": "*0", "atom_type": "N3d"}, "3": {"label": "*2", "atom_type": "H0"}, "6": {"label": "*3", "atom_type": "Cs"}, "7": {"label": "*4", "atom_type": "Cs"}}

>  <type>  (9) 
unop_5

>  <geom_source>  (9) 
Heuristics

$$$$

     RDKit          3D

 23 21  0  0  0  0  0  0  0  0999 V2000
    2.8158   -0.9923   -0.7118 C   0  0  0  0  0  0  0  0  0  0  0  0
    2.8158   -2.3380   -1.3086 N   0  0  0  0  0  0  0  0  0  0  0  0
    2.8158   -2.3380   -2.5017 O   0  0  0  0  0  1  0  0  0  0  0  0
    1.7598   -0.9209    0.0608 H   0  0  0  0  0  0  0  0  0  0  0  0
    2.8158   -0.2118   -1.4735 H   0  0  0  0  0  0  0  0  0  0  0  0
    3.6958   -0.9328   -0.0680 H   0  0  0  0  0  0  0  0  0  0  0  0
    0.7046   -0.8495    0.8328 C   0  0  0  0  0  0  0  0  0  0  0  0
   -0.4827   -0.3373    0.0508 C   0  0  0  0  0  0  0  0  0  0  0  0
   -1.2238    0.5348    0.8654 O   0  0  0  0  0  0  0  0  0  0  0  0
   -2.3550    1.0683    0.2245 C   0  0  0  0  0  0  0  0  0  0  0  0
   -3.0625    2.0216    1.1658 C   0  0  0  0  0  0  0  0  0  0  0  0
   -2.2139    3.2278    1.5455 C   0  0  0  0  0  0  0  0  0  0  0  0
    1.3423   -0.0218    1.1452 H   0  0  0  0  0  0  0  0  0  0  0  0
    0.3734   -1.3840    1.7238 H   0  0  0  0  0  0  0  0  0  0  0  0
   -1.1169   -1.1742   -0.2774 H   0  0  0  0  0  0  0  0  0  0  0  0
   -0.1481    0.1896   -0.8551 H   0  0  0  0  0  0  0  0  0  0  0  0
   -2.0513    1.5982   -0.6922 H   0  0  0  0  0  0  0  0  0  0  0  0
   -3.0333    0.2564   -0.0767 H   0  0  0  0  0  0  0  0  0  0  0  0
   -3.3542    1.4704    2.0635 H   0  0  0  0  0  0  0  0  0  0  0  0
   -3.9863    2.3491    0.6809 H   0  0  0  0  0  0  0  0  0  0  0  0
   -1.9347    3.8024    0.6588 H   0  0  0  0  0  0  0  0  0  0  0  0
   -1.2967    2.9132    2.0433 H   0  0  0  0  0  0  0  0  0  0  0  0
   -2.7565    3.8934    2.2184 H   0  0  0  0  0  0  0  0  0  0  0  0
  1  2  2  3
  1  5  1  0
  1  6  1  0
  2  3  1  0
  4  7  1  0
  7  8  1  0
  7 13  1  0
  7 14  1  0
  8  9  1  0
  8 15  1  0
  8 16  1  0
  9 10  1  0
 10 11  1  0
 10 17  1  0
 10 18  1  0
 11 12  1  0
 11 19  1  0
 11 20  1  0
 12 21  1  0
 12 22  1  0
 12 23  1  0
M  RAD  1   3   2
M  END
>  <reaction>  (10) 
rmg_rxn_592

>  <mol_properties>  (10) 
{"0": {"label": "*1", "atom_type": "Cs"}, "1": {"label": "*0", "atom_type": "N3d"}, "3": {"label": "*2", "atom_type": "H0"}, "6": {"label": "*3", "atom_type": "Cs"}, "7": {"label": "*4", "atom_type": "Cs"}}

>  <type>  (10) 
unop_6

>  <geom_source>  (10) 
Heuristics

$$$$

     RDKit          3D

 23 21  0  0  0  0  0  0  0  0999 V2000
    2.3970   -1.2752   -1.2531 C   0  0  0  0  0  0  0  0  0  0  0  0
    2.3970   -2.6209   -1.8499 N   0  0  0  0  0  0  0  0  0  0  0  0
    2.3970   -2.6209   -3.0430 O   0  0  0  0  0  1  0  0  0  0  0  0
    1.3410   -1.2038   -0.4805 H   0  0  0  0  0  0  0  0  0  0  0  0
    2.3970   -0.4947   -2.0149 H   0  0  0  0  0  0  0  0  0  0  0  0
    3.2770   -1.2157   -0.6093 H   0  0  0  0  0  0  0  0  0  0  0  0
    0.2858   -1.1324    0.2914 C   0  0  0  0  0  0  0  0  0  0  0  0
   -0.6266   -0.0199   -0.1704 C   0  0  0  0  0  0  0  0  0  0  0  0
   -1.1509    0.6372    0.9552 O   0  0  0  0  0  0  0  0  0  0  0  0
   -2.0163    1.6953    0.6287 C   0  0  0  0  0  0  0  0  0  0  0  0
   -2.4961    2.3624    1.9015 C   0  0  0  0  0  0  0  0  0  0  0  0
   -1.3702    3.0016    2.7034 C   0  0  0  0  0  0  0  0  0  0  0  0
    1.1066   -0.7311    0.8870 H   0  0  0  0  0  0  0  0  0  0  0  0
   -0.2643   -1.8490    0.9024 H   0  0  0  0  0  0  0  0  0  0  0  0
   -1.4454   -0.4240   -0.7841 H   0  0  0  0  0  0  0  0  0  0  0  0
   -0.0742    0.6949   -0.7980 H   0  0  0  0  0  0  0  0  0  0  0  0
   -1.4914    2.4264   -0.0065 H   0  0  0  0  0  0  0  0  0  0  0  0
   -2.8720    1.3155    0.0513 H   0  0  0  0  0  0  0  0  0  0  0  0
   -3.0140    1.6168    2.5102 H   0  0  0  0  0  0  0  0  0  0  0  0
   -3.2377    3.1175    1.6263 H   0  0  0  0  0  0  0  0  0  0  0  0
   -0.8583    3.7669    2.1147 H   0  0  0  0  0  0  0  0  0  0  0  0
   -0.6322    2.2546    2.9959 H   0  0  0  0  0  0  0  0  0  0  0  0
   -1.7529    3.4759    3.6083 H   0  0  0  0  0  0  0  0  0  0  0  0
  1  2  2  3
  1  5  1  0
  1  6  1  0
  2  3  1  0
  4  7  1  0
  7  8  1  0
  7 13  1  0
  7 14  1  0
  8  9  1  0
  8 15  1  0
  8 16  1  0
  9 10  1  0
 10 11  1  0
 10 17  1  0
 10 18  1  0
 11 12  1  0
 11 19  1  0
 11 20  1  0
 12 21  1  0
 12 22  1  0
 12 23  1  0
M  RAD  1   3   2
M  END
>  <reaction>  (11) 
rmg_rxn_592

>  <mol_properties>  (11) 
{"0": {"label": "*1", "atom_type": "Cs"}, "1": {"label": "*0", "atom_type": "N3d"}, "3": {"label": "*2", "atom_type": "H0"}, "6": {"label": "*3", "atom_type": "Cs"}, "7": {"label": "*4", "atom_type": "Cs"}}

>  <type>  (11) 
unop_7

>  <geom_source>  (11) 
Heuristics

$$$$

     RDKit          3D

 23 21  0  0  0  0  0  0  0  0999 V2000
    1.7587    0.0167   -2.5566 C   0  0  0  0  0  0  0  0  0  0  0  0
    1.7587   -1.3290   -3.1534 N   0  0  0  0  0  0  0  0  0  0  0  0
    1.7587   -1.3290   -4.3465 O   0  0  0  0  0  1  0  0  0  0  0  0
    0.7027    0.0881   -1.7840 H   0  0  0  0  0  0  0  0  0  0  0  0
    1.7587    0.7972   -3.3184 H   0  0  0  0  0  0  0  0  0  0  0  0
    2.6387    0.0762   -1.9128 H   0  0  0  0  0  0  0  0  0  0  0  0
   -0.3524    0.1595   -1.0121 C   0  0  0  0  0  0  0  0  0  0  0  0
   -0.0091   -0.2957    0.3874 C   0  0  0  0  0  0  0  0  0  0  0  0
   -0.6725    0.5290    1.3112 O   0  0  0  0  0  0  0  0  0  0  0  0
   -0.4166    0.1837    2.6492 C   0  0  0  0  0  0  0  0  0  0  0  0
   -1.2033    1.1006    3.5635 C   0  0  0  0  0  0  0  0  0  0  0  0
   -2.7107    0.9618    3.3976 C   0  0  0  0  0  0  0  0  0  0  0  0
   -1.4278    0.0953   -1.1818 H   0  0  0  0  0  0  0  0  0  0  0  0
   -0.0412    1.1934   -1.1647 H   0  0  0  0  0  0  0  0  0  0  0  0
    1.0774   -0.2455    0.5523 H   0  0  0  0  0  0  0  0  0  0  0  0
   -0.3108   -1.3431    0.5359 H   0  0  0  0  0  0  0  0  0  0  0  0
   -0.7038   -0.8647    2.8272 H   0  0  0  0  0  0  0  0  0  0  0  0
    0.6598    0.2680    2.8591 H   0  0  0  0  0  0  0  0  0  0  0  0
   -0.8975    2.1316    3.3679 H   0  0  0  0  0  0  0  0  0  0  0  0
   -0.9158    0.8749    4.5941 H   0  0  0  0  0  0  0  0  0  0  0  0
   -3.0341   -0.0595    3.6136 H   0  0  0  0  0  0  0  0  0  0  0  0
   -3.0103    1.1991    2.3768 H   0  0  0  0  0  0  0  0  0  0  0  0
   -3.2435    1.6317    4.0741 H   0  0  0  0  0  0  0  0  0  0  0  0
  1  2  2  3
  1  5  1  0
  1  6  1  0
  2  3  1  0
  4  7  1  0
  7  8  1  0
  7 13  1  0
  7 14  1  0
  8  9  1  0
  8 15  1  0
  8 16  1  0
  9 10  1  0
 10 11  1  0
 10 17  1  0
 10 18  1  0
 11 12  1  0
 11 19  1  0
 11 20  1  0
 12 21  1  0
 12 22  1  0
 12 23  1  0
M  RAD  1   3   2
M  END
>  <reaction>  (12) 
rmg_rxn_592

>  <mol_properties>  (12) 
{"0": {"label": "*1", "atom_type": "Cs"}, "1": {"label": "*0", "atom_type": "N3d"}, "3": {"label": "*2", "atom_type": "H0"}, "6": {"label": "*3", "atom_type": "Cs"}, "7": {"label": "*4", "atom_type": "Cs"}}

>  <type>  (12) 
unop_8

>  <geom_source>  (12) 
Heuristics

$$$$

     RDKit          3D

 23 21  0  0  0  0  0  0  0  0999 V2000
    3.2279    0.4915   -0.6505 C   0  0  0  0  0  0  0  0  0  0  0  0
    3.2279   -0.8543   -1.2473 N   0  0  0  0  0  0  0  0  0  0  0  0
    3.2279   -0.8543   -2.4404 O   0  0  0  0  0  1  0  0  0  0  0  0
    2.1719    0.5629    0.1221 H   0  0  0  0  0  0  0  0  0  0  0  0
    3.2279    1.2720   -1.4123 H   0  0  0  0  0  0  0  0  0  0  0  0
    4.1079    0.5510   -0.0067 H   0  0  0  0  0  0  0  0  0  0  0  0
    1.1167    0.6342    0.8940 C   0  0  0  0  0  0  0  0  0  0  0  0
    0.0136   -0.2474    0.3559 C   0  0  0  0  0  0  0  0  0  0  0  0
   -1.2067    0.1473    0.9292 O   0  0  0  0  0  0  0  0  0  0  0  0
   -2.3011   -0.6164    0.4887 C   0  0  0  0  0  0  0  0  0  0  0  0
   -3.5697   -0.0919    1.1295 C   0  0  0  0  0  0  0  0  0  0  0  0
   -3.8957    1.3403    0.7272 C   0  0  0  0  0  0  0  0  0  0  0  0
    0.9257    1.6791    0.6468 H   0  0  0  0  0  0  0  0  0  0  0  0
    1.1831    0.5440    1.9788 H   0  0  0  0  0  0  0  0  0  0  0  0
    0.2152   -1.3028    0.5922 H   0  0  0  0  0  0  0  0  0  0  0  0
   -0.0435   -0.1663   -0.7396 H   0  0  0  0  0  0  0  0  0  0  0  0
   -2.3804   -0.5594   -0.6085 H   0  0  0  0  0  0  0  0  0  0  0  0
   -2.1504   -1.6739    0.7511 H   0  0  0  0  0  0  0  0  0  0  0  0
   -3.4649   -0.1620    2.2153 H   0  0  0  0  0  0  0  0  0  0  0  0
   -4.3895   -0.7580    0.8466 H   0  0  0  0  0  0  0  0  0  0  0  0
   -4.0271    1.4208   -0.3548 H   0  0  0  0  0  0  0  0  0  0  0  0
   -3.0911    2.0157    1.0180 H   0  0  0  0  0  0  0  0  0  0  0  0
   -4.8164    1.6818    1.2024 H   0  0  0  0  0  0  0  0  0  0  0  0
  1  2  2  3
  1  5  1  0
  1  6  1  0
  2  3  1  0
  4  7  1  0
  7  8  1  0
  7 13  1  0
  7 14  1  0
  8  9  1  0
  8 15  1  0
  8 16  1  0
  9 10  1  0
 10 11  1  0
 10 17  1  0
 10 18  1  0
 11 12  1  0
 11 19  1  0
 11 20  1  0
 12 21  1  0
 12 22  1  0
 12 23  1  0
M  RAD  1   3   2
M  END
>  <reaction>  (13) 
rmg_rxn_592

>  <mol_properties>  (13) 
{"0": {"label": "*1", "atom_type": "Cs"}, "1": {"label": "*0", "atom_type": "N3d"}, "3": {"label": "*2", "atom_type": "H0"}, "6": {"label": "*3", "atom_type": "Cs"}, "7": {"label": "*4", "atom_type": "Cs"}}

>  <type>  (13) 
unop_9

>  <geom_source>  (13) 
Heuristics

$$$$

     RDKit          3D

 23 21  0  0  0  0  0  0  0  0999 V2000
    1.9638    0.7127   -2.4383 C   0  0  0  0  0  0  0  0  0  0  0  0
    1.9638   -0.6331   -3.0351 N   0  0  0  0  0  0  0  0  0  0  0  0
    1.9638   -0.6331   -4.2282 O   0  0  0  0  0  1  0  0  0  0  0  0
    0.9078    0.7841   -1.6657 H   0  0  0  0  0  0  0  0  0  0  0  0
    1.9638    1.4932   -3.2001 H   0  0  0  0  0  0  0  0  0  0  0  0
    2.8438    0.7722   -1.7945 H   0  0  0  0  0  0  0  0  0  0  0  0
   -0.1473    0.8554   -0.8938 C   0  0  0  0  0  0  0  0  0  0  0  0
   -0.0789   -0.2000    0.1855 C   0  0  0  0  0  0  0  0  0  0  0  0
   -0.7119    0.2872    1.3411 O   0  0  0  0  0  0  0  0  0  0  0  0
   -0.7018   -0.6270    2.4084 C   0  0  0  0  0  0  0  0  0  0  0  0
   -1.4382   -0.0283    3.5893 C   0  0  0  0  0  0  0  0  0  0  0  0
   -2.9108    0.2359    3.3050 C   0  0  0  0  0  0  0  0  0  0  0  0
   -1.1850    1.0960   -1.1277 H   0  0  0  0  0  0  0  0  0  0  0  0
    0.3524    1.7683   -0.5678 H   0  0  0  0  0  0  0  0  0  0  0  0
    0.9680   -0.4533    0.4096 H   0  0  0  0  0  0  0  0  0  0  0  0
   -0.5710   -1.1250   -0.1495 H   0  0  0  0  0  0  0  0  0  0  0  0
   -1.1839   -1.5683    2.1001 H   0  0  0  0  0  0  0  0  0  0  0  0
    0.3348   -0.8667    2.6872 H   0  0  0  0  0  0  0  0  0  0  0  0
   -0.9385    0.9009    3.8751 H   0  0  0  0  0  0  0  0  0  0  0  0
   -1.3354   -0.7159    4.4333 H   0  0  0  0  0  0  0  0  0  0  0  0
   -3.4288   -0.6894    3.0409 H   0  0  0  0  0  0  0  0  0  0  0  0
   -3.0247    0.9323    2.4743 H   0  0  0  0  0  0  0  0  0  0  0  0
   -3.4091    0.6610    4.1775 H   0  0  0  0  0  0  0  0  0  0  0  0
  1  2  2  3
  1  5  1  0
  1  6  1  0
  2  3  1  0
  4  7  1  0
  7  8  1  0
  7 13  1  0
  7 14  1  0
  8  9  1  0
  8 15  1  0
  8 16  1  0
  9 10  1  0
 10 11  1  0
 10 17  1  0
 10 18  1  0
 11 12  1  0
 11 19  1  0
 11 20  1  0
 12 21  1  0
 12 22  1  0
 12 23  1  0
M  RAD  1   3   2
M  END
>  <reaction>  (14) 
rmg_rxn_592

>  <mol_properties>  (14) 
{"0": {"label": "*1", "atom_type": "Cs"}, "1": {"label": "*0", "atom_type": "N3d"}, "3": {"label": "*2", "atom_type": "H0"}, "6": {"label": "*3", "atom_type": "Cs"}, "7": {"label": "*4", "atom_type": "Cs"}}

>  <type>  (14) 
unop_10

>  <geom_source>  (14) 
Heuristics

$$$$

     RDKit          3D

 23 21  0  0  0  0  0  0  0  0999 V2000
    2.1558   -1.1111   -1.8131 C   0  0  0  0  0  0  0  0  0  0  0  0
    2.1558   -2.4569   -2.4099 N   0  0  0  0  0  0  0  0  0  0  0  0
    2.1558   -2.4569   -3.6030 O   0  0  0  0  0  1  0  0  0  0  0  0
    1.0998   -1.0397   -1.0405 H   0  0  0  0  0  0  0  0  0  0  0  0
    2.1558   -0.3306   -2.5749 H   0  0  0  0  0  0  0  0  0  0  0  0
    3.0358   -1.0516   -1.1693 H   0  0  0  0  0  0  0  0  0  0  0  0
    0.0446   -0.9683   -0.2686 C   0  0  0  0  0  0  0  0  0  0  0  0
   -0.4615    0.4540   -0.2038 C   0  0  0  0  0  0  0  0  0  0  0  0
   -1.1040    0.6540    1.0294 O   0  0  0  0  0  0  0  0  0  0  0  0
   -1.6119    1.9548    1.1876 C   0  0  0  0  0  0  0  0  0  0  0  0
   -2.2480    2.0824    2.5567 C   0  0  0  0  0  0  0  0  0  0  0  0
   -1.2552    1.9010    3.6972 C   0  0  0  0  0  0  0  0  0  0  0  0
    0.7519   -1.1595    0.5393 H   0  0  0  0  0  0  0  0  0  0  0  0
   -0.7825   -1.6729   -0.1756 H   0  0  0  0  0  0  0  0  0  0  0  0
   -1.1628    0.6505   -1.0284 H   0  0  0  0  0  0  0  0  0  0  0  0
    0.3718    1.1640   -0.3116 H   0  0  0  0  0  0  0  0  0  0  0  0
   -0.7993    2.6903    1.0784 H   0  0  0  0  0  0  0  0  0  0  0  0
   -2.3522    2.1665    0.4021 H   0  0  0  0  0  0  0  0  0  0  0  0
   -3.0505    1.3445    2.6368 H   0  0  0  0  0  0  0  0  0  0  0  0
   -2.7167    3.0684    2.6191 H   0  0  0  0  0  0  0  0  0  0  0  0
   -0.4593    2.6480    3.6435 H   0  0  0  0  0  0  0  0  0  0  0  0
   -0.7926    0.9150    3.6533 H   0  0  0  0  0  0  0  0  0  0  0  0
   -1.7466    2.0046    4.6657 H   0  0  0  0  0  0  0  0  0  0  0  0
  1  2  2  3
  1  5  1  0
  1  6  1  0
  2  3  1  0
  4  7  1  0
  7  8  1  0
  7 13  1  0
  7 14  1  0
  8  9  1  0
  8 15  1  0
  8 16  1  0
  9 10  1  0
 10 11  1  0
 10 17  1  0
 10 18  1  0
 11 12  1  0
 11 19  1  0
 11 20  1  0
 12 21  1  0
 12 22  1  0
 12 23  1  0
M  RAD  1   3   2
M  END
>  <reaction>  (15) 
rmg_rxn_592

>  <mol_properties>  (15) 
{"0": {"label": "*1", "atom_type": "Cs"}, "1": {"label": "*0", "atom_type": "N3d"}, "3": {"label": "*2", "atom_type": "H0"}, "6": {"label": "*3", "atom_type": "Cs"}, "7": {"label": "*4", "atom_type": "Cs"}}

>  <type>  (15) 
unop_11

>  <geom_source>  (15) 
Heuristics

$$$$

     RDKit          3D

 23 21  0  0  0  0  0  0  0  0999 V2000
    2.9492    1.0907   -1.2436 C   0  0  0  0  0  0  0  0  0  0  0  0
    2.9492   -0.2550   -1.8404 N   0  0  0  0  0  0  0  0  0  0  0  0
    2.9492   -0.2550   -3.0335 O   0  0  0  0  0  1  0  0  0  0  0  0
    1.8932    1.1621   -0.4710 H   0  0  0  0  0  0  0  0  0  0  0  0
    2.9492    1.8712   -2.0054 H   0  0  0  0  0  0  0  0  0  0  0  0
    3.8293    1.1502   -0.5998 H   0  0  0  0  0  0  0  0  0  0  0  0
    0.8381    1.2335    0.3009 C   0  0  0  0  0  0  0  0  0  0  0  0
    0.0715   -0.0682    0.2615 C   0  0  0  0  0  0  0  0  0  0  0  0
   -1.0521    0.0384    1.0981 O   0  0  0  0  0  0  0  0  0  0  0  0
   -1.8352   -1.1281    1.1291 C   0  0  0  0  0  0  0  0  0  0  0  0
   -3.0376   -0.9019    2.0227 C   0  0  0  0  0  0  0  0  0  0  0  0
   -3.9680    0.1890    1.5095 C   0  0  0  0  0  0  0  0  0  0  0  0
    0.2112    2.0567   -0.0437 H   0  0  0  0  0  0  0  0  0  0  0  0
    1.1662    1.4531    1.3175 H   0  0  0  0  0  0  0  0  0  0  0  0
    0.7095   -0.9003    0.5944 H   0  0  0  0  0  0  0  0  0  0  0  0
   -0.2470   -0.2959   -0.7664 H   0  0  0  0  0  0  0  0  0  0  0  0
   -2.1648   -1.3855    0.1100 H   0  0  0  0  0  0  0  0  0  0  0  0
   -1.2365   -1.9721    1.5020 H   0  0  0  0  0  0  0  0  0  0  0  0
   -2.6825   -0.6512    3.0256 H   0  0  0  0  0  0  0  0  0  0  0  0
   -3.5779   -1.8491    2.1054 H   0  0  0  0  0  0  0  0  0  0  0  0
   -4.3501   -0.0601    0.5163 H   0  0  0  0  0  0  0  0  0  0  0  0
   -3.4432    1.1416    1.4373 H   0  0  0  0  0  0  0  0  0  0  0  0
   -4.8234    0.3201    2.1739 H   0  0  0  0  0  0  0  0  0  0  0  0
  1  2  2  3
  1  5  1  0
  1  6  1  0
  2  3  1  0
  4  7  1  0
  7  8  1  0
  7 13  1  0
  7 14  1  0
  8  9  1  0
  8 15  1  0
  8 16  1  0
  9 10  1  0
 10 11  1  0
 10 17  1  0
 10 18  1  0
 11 12  1  0
 11 19  1  0
 11 20  1  0
 12 21  1  0
 12 22  1  0
 12 23  1  0
M  RAD  1   3   2
M  END
>  <reaction>  (16) 
rmg_rxn_592

>  <mol_properties>  (16) 
{"0": {"label": "*1", "atom_type": "Cs"}, "1": {"label": "*0", "atom_type": "N3d"}, "3": {"label": "*2", "atom_type": "H0"}, "6": {"label": "*3", "atom_type": "Cs"}, "7": {"label": "*4", "atom_type": "Cs"}}

>  <type>  (16) 
unop_12

>  <geom_source>  (16) 
Heuristics

$$$$

     RDKit          3D

 23 21  0  0  0  0  0  0  0  0999 V2000
   -0.3359    0.3693    0.0443 O   0  0  0  0  0  0  0  0  0  0  0  0
    4.0995    1.8931   -0.5093 O   0  0  0  0  0  1  0  0  0  0  0  0
    4.1430    0.7395   -0.8103 N   0  0  0  0  0  0  0  0  0  0  0  0
   -2.7553    0.2432    0.2627 C   0  0  0  0  0  0  0  0  0  0  0  0
   -1.3892   -0.0246    0.9061 C   0  0  0  0  0  0  0  0  0  0  0  0
    0.0924   -0.7039   -0.7733 C   0  0  0  0  0  0  0  0  0  0  0  0
   -2.9644    1.7266   -0.0344 C   0  0  0  0  0  0  0  0  0  0  0  0
    1.2728   -1.4196   -0.1285 C   0  0  0  0  0  0  0  0  0  0  0  0
    3.5817   -0.2561    0.0612 C   0  0  0  0  0  0  0  0  0  0  0  0
   -2.8512   -0.3368   -0.6798 H   0  0  0  0  0  0  0  0  0  0  0  0
   -3.5529   -0.0992    0.9567 H   0  0  0  0  0  0  0  0  0  0  0  0
    0.4337   -0.2814   -1.7415 H   0  0  0  0  0  0  0  0  0  0  0  0
   -0.7162   -1.4333   -1.0133 H   0  0  0  0  0  0  0  0  0  0  0  0
   -1.3215   -1.0927    1.2196 H   0  0  0  0  0  0  0  0  0  0  0  0
   -1.3120    0.5709    1.8408 H   0  0  0  0  0  0  0  0  0  0  0  0
    0.9654   -1.8872    0.8302 H   0  0  0  0  0  0  0  0  0  0  0  0
    1.6479   -2.2125   -0.8094 H   0  0  0  0  0  0  0  0  0  0  0  0
    2.2348   -0.5658    0.0998 H   0  0  0  0  0  0  0  0  0  0  0  0
   -2.2101    2.0863   -0.7659 H   0  0  0  0  0  0  0  0  0  0  0  0
   -2.8847    2.3228    0.8995 H   0  0  0  0  0  0  0  0  0  0  0  0
   -3.9755    1.8790   -0.4671 H   0  0  0  0  0  0  0  0  0  0  0  0
    3.6679   -1.2543   -0.4153 H   0  0  0  0  0  0  0  0  0  0  0  0
    4.1297   -0.2632    1.0271 H   0  0  0  0  0  0  0  0  0  0  0  0
  1  6  1  0
  1  5  1  0
  2  3  1  0
  3  9  2  3
  4  7  1  0
  4  5  1  0
  4 10  1  0
  4 11  1  0
  5 14  1  0
  5 15  1  0
  6  8  1  0
  6 12  1  0
  6 13  1  0
  7 19  1  0
  7 20  1  0
  7 21  1  0
  8 16  1  0
  8 17  1  0
  8 18  1  0
  9 22  1  0
  9 23  1  0
M  RAD  1   2   2
M  END
>  <reaction>  (17) 
rmg_rxn_592

>  <mol_properties>  (17) 
{"0": {"label": "*1", "atom_type": "Cs"}, "1": {"label": "*0", "atom_type": "N3d"}, "3": {"label": "*2", "atom_type": "H0"}, "6": {"label": "*3", "atom_type": "Cs"}, "7": {"label": "*4", "atom_type": "Cs"}}

>  <type>  (17) 
unop_13

>  <geom_source>  (17) 
AutoTST

$$$$

     RDKit          3D

 23 21  0  0  0  0  0  0  0  0999 V2000
    2.4317    1.1626   -1.9518 C   0  0  0  0  0  0  0  0  0  0  0  0
    2.4317   -0.1832   -2.5486 N   0  0  0  0  0  0  0  0  0  0  0  0
    2.4317   -0.1832   -3.7417 O   0  0  0  0  0  1  0  0  0  0  0  0
    1.3757    1.2340   -1.1792 H   0  0  0  0  0  0  0  0  0  0  0  0
    2.4317    1.9431   -2.7136 H   0  0  0  0  0  0  0  0  0  0  0  0
    3.3117    1.2221   -1.3080 H   0  0  0  0  0  0  0  0  0  0  0  0
    0.3206    1.3053   -0.4073 C   0  0  0  0  0  0  0  0  0  0  0  0
   -0.0172   -0.0600    0.1454 C   0  0  0  0  0  0  0  0  0  0  0  0
   -0.8558    0.0943    1.2618 O   0  0  0  0  0  0  0  0  0  0  0  0
   -1.2291   -1.1262    1.8501 C   0  0  0  0  0  0  0  0  0  0  0  0
   -2.1594   -0.8581    3.0154 C   0  0  0  0  0  0  0  0  0  0  0  0
   -3.4680   -0.2006    2.5976 C   0  0  0  0  0  0  0  0  0  0  0  0
   -0.5863    1.8302   -0.7098 H   0  0  0  0  0  0  0  0  0  0  0  0
    0.8312    1.9067    0.3457 H   0  0  0  0  0  0  0  0  0  0  0  0
    0.8993   -0.5948    0.4356 H   0  0  0  0  0  0  0  0  0  0  0  0
   -0.5198   -0.6707   -0.6192 H   0  0  0  0  0  0  0  0  0  0  0  0
   -1.7308   -1.7636    1.1048 H   0  0  0  0  0  0  0  0  0  0  0  0
   -0.3344   -1.6665    2.1930 H   0  0  0  0  0  0  0  0  0  0  0  0
   -1.6367   -0.2272    3.7389 H   0  0  0  0  0  0  0  0  0  0  0  0
   -2.3592   -1.8115    3.5123 H   0  0  0  0  0  0  0  0  0  0  0  0
   -4.0134   -0.8320    1.8917 H   0  0  0  0  0  0  0  0  0  0  0  0
   -3.2812    0.7583    2.1141 H   0  0  0  0  0  0  0  0  0  0  0  0
   -4.1136   -0.0279    3.4600 H   0  0  0  0  0  0  0  0  0  0  0  0
  1  2  2  3
  1  5  1  0
  1  6  1  0
  2  3  1  0
  4  7  1  0
  7  8  1  0
  7 13  1  0
  7 14  1  0
  8  9  1  0
  8 15  1  0
  8 16  1  0
  9 10  1  0
 10 11  1  0
 10 17  1  0
 10 18  1  0
 11 12  1  0
 11 19  1  0
 11 20  1  0
 12 21  1  0
 12 22  1  0
 12 23  1  0
M  RAD  1   3   2
M  END
>  <reaction>  (18) 
rmg_rxn_592

>  <mol_properties>  (18) 
{"0": {"label": "*1", "atom_type": "Cs"}, "1": {"label": "*0", "atom_type": "N3d"}, "3": {"label": "*2", "atom_type": "H0"}, "6": {"label": "*3", "atom_type": "Cs"}, "7": {"label": "*4", "atom_type": "Cs"}}

>  <type>  (18) 
unop_14

>  <geom_source>  (18) 
gaussian_log

$$$$
