
     RDKit          3D

  9  8  0  0  0  0  0  0  0  0999 V2000
   -1.5470   -0.0755   -0.1976 C   0  0  0  0  0  0  0  0  0  0  0  0
   -0.2885    0.4507    0.1749 O   0  0  0  0  0  0  0  0  0  0  0  0
   -0.1502    1.7216   -0.3294 N   0  0  0  0  0  0  0  0  0  0  0  0
    0.9626    2.2353   -0.0219 C   0  0  0  0  0  0  0  0  0  0  0  0
   -1.6392   -0.1356   -1.2844 H   0  0  0  0  0  0  0  0  0  0  0  0
   -2.3597    0.5337    0.2044 H   0  0  0  0  0  0  0  0  0  0  0  0
   -1.5879   -1.0750    0.2318 H   0  0  0  0  0  0  0  0  0  0  0  0
    1.1497    3.2381   -0.3820 H   0  0  0  0  0  0  0  0  0  0  0  0
    1.7060    1.7101    0.5739 H   0  0  0  0  0  0  0  0  0  0  0  0
  1  2  1  0
  1  5  1  0
  1  6  1  0
  1  7  1  0
  2  3  1  0
  3  4  2  3
  4  8  1  0
  4  9  1  0
M  END
>  <reaction>  (1) 
rmg_rxn_15716

>  <mol_properties>  (1) 
{"0": {"label": "donator", "atom_type": "Cs"}, "4": {"label": "d_hydrogen", "atom_type": "H0"}}

>  <type>  (1) 
r1h

$$$$

     RDKit          3D

 11 10  0  0  0  0  0  0  0  0999 V2000
    1.3935    0.3989    0.3491 C   0  0  0  0  0  3  0  0  0  0  0  0
    0.5250   -0.7560    0.0089 C   0  0  0  0  0  0  0  0  0  0  0  0
   -0.6359   -0.9293    0.9859 C   0  0  0  0  0  0  0  0  0  0  0  0
   -1.5467    0.1465    0.9437 O   0  0  0  0  0  0  0  0  0  0  0  0
    1.8267    1.0293   -0.4146 H   0  0  0  0  0  0  0  0  0  0  0  0
    1.7199    0.5477    1.3723 H   0  0  0  0  0  0  0  0  0  0  0  0
    0.1296   -0.6553   -1.0046 H   0  0  0  0  0  0  0  0  0  0  0  0
    1.1132   -1.6869    0.0240 H   0  0  0  0  0  0  0  0  0  0  0  0
   -0.2393   -1.0667    2.0017 H   0  0  0  0  0  0  0  0  0  0  0  0
   -1.2091   -1.8217    0.7319 H   0  0  0  0  0  0  0  0  0  0  0  0
   -1.0474    0.9595    1.0517 H   0  0  0  0  0  0  0  0  0  0  0  0
  1  2  1  0
  1  5  1  0
  1  6  1  0
  2  3  1  0
  2  7  1  0
  2  8  1  0
  3  4  1  0
  3  9  1  0
  3 10  1  0
  4 11  1  0
M  RAD  1   1   2
M  END
>  <reaction>  (2) 
rmg_rxn_15716

>  <mol_properties>  (2) 
{"0": {"label": "acceptor", "atom_type": "Cs"}}

>  <type>  (2) 
r2

$$$$

     RDKit          3D

 12 11  0  0  0  0  0  0  0  0999 V2000
   -1.4643   -0.2505   -0.5284 C   0  0  0  0  0  0  0  0  0  0  0  0
   -0.3946    0.4302    0.3143 C   0  0  0  0  0  0  0  0  0  0  0  0
   -0.5959    0.2382    1.8102 C   0  0  0  0  0  0  0  0  0  0  0  0
   -0.5633   -1.1190    2.2092 O   0  0  0  0  0  0  0  0  0  0  0  0
   -2.4511    0.1644   -0.3109 H   0  0  0  0  0  0  0  0  0  0  0  0
   -1.5019   -1.3198   -0.3181 H   0  0  0  0  0  0  0  0  0  0  0  0
   -1.2720   -0.1182   -1.5941 H   0  0  0  0  0  0  0  0  0  0  0  0
    0.5965    0.0515    0.0385 H   0  0  0  0  0  0  0  0  0  0  0  0
   -0.3776    1.5047    0.1078 H   0  0  0  0  0  0  0  0  0  0  0  0
   -1.5821    0.6048    2.1034 H   0  0  0  0  0  0  0  0  0  0  0  0
    0.1495    0.8220    2.3649 H   0  0  0  0  0  0  0  0  0  0  0  0
    0.3017   -1.4750    1.9997 H   0  0  0  0  0  0  0  0  0  0  0  0
  1  2  1  0
  1  5  1  0
  1  6  1  0
  1  7  1  0
  2  3  1  0
  2  8  1  0
  2  9  1  0
  3  4  1  0
  3 10  1  0
  3 11  1  0
  4 12  1  0
M  END
>  <reaction>  (3) 
rmg_rxn_15716

>  <mol_properties>  (3) 
{"0": {"label": "a_hydrogen", "atom_type": "H0"}, "1": {"label": "acceptor", "atom_type": "Cs"}}

>  <type>  (3) 
r2h

$$$$

     RDKit          3D

 20 18  0  0  0  0  0  0  0  0999 V2000
   -1.8573   -0.1640    0.0196 C   0  0  0  0  0  0  0  0  0  0  0  0
   -1.5092    0.3940   -1.2128 O   0  0  0  0  0  0  0  0  0  0  0  0
   -0.3245   -0.1207   -1.6742 N   0  0  0  0  0  0  0  0  0  0  0  0
   -0.0083    0.3348   -2.8098 C   0  0  0  0  0  0  0  0  0  0  0  0
   -1.0368    0.2922    0.9719 H   0  0  0  0  0  0  0  0  0  0  0  0
   -1.7509   -1.2475    0.0453 H   0  0  0  0  0  0  0  0  0  0  0  0
   -2.8529    0.1938    0.2661 H   0  0  0  0  0  0  0  0  0  0  0  0
    0.9174   -0.0265   -3.2367 H   0  0  0  0  0  0  0  0  0  0  0  0
   -0.6277    1.0522   -3.3421 H   0  0  0  0  0  0  0  0  0  0  0  0
   -0.1767    0.8068    1.8938 C   0  0  0  0  0  3  0  0  0  0  0  0
    1.2221    0.7407    1.3377 C   0  0  0  0  0  0  0  0  0  0  0  0
    1.8058   -0.6663    1.2814 C   0  0  0  0  0  0  0  0  0  0  0  0
    1.0213   -1.5867    0.5611 O   0  0  0  0  0  0  0  0  0  0  0  0
   -0.3502    0.1836    2.7706 H   0  0  0  0  0  0  0  0  0  0  0  0
   -0.5631    1.8159    2.0273 H   0  0  0  0  0  0  0  0  0  0  0  0
    1.2435    1.1853    0.3367 H   0  0  0  0  0  0  0  0  0  0  0  0
    1.8976    1.3525    1.9495 H   0  0  0  0  0  0  0  0  0  0  0  0
    1.8897   -1.0665    2.2957 H   0  0  0  0  0  0  0  0  0  0  0  0
    2.8228   -0.6133    0.8690 H   0  0  0  0  0  0  0  0  0  0  0  0
    0.7260   -1.1743   -0.2619 H   0  0  0  0  0  0  0  0  0  0  0  0
  1  2  1  0
  1  5  1  0
  1  6  1  0
  1  7  1  0
  2  3  1  0
  3  4  2  3
  4  8  1  0
  4  9  1  0
 10 11  1  0
 10 14  1  0
 10 15  1  0
 11 12  1  0
 11 16  1  0
 11 17  1  0
 12 13  1  0
 12 18  1  0
 12 19  1  0
 13 20  1  0
M  RAD  1  10   2
M  END
>  <reaction>  (4) 
rmg_rxn_15716

>  <mol_properties>  (4) 
{"0": {"label": "*1", "atom_type": "Cs"}, "1": {"label": "*0", "atom_type": "O2s"}, "4": {"label": "*2", "atom_type": "H0"}, "9": {"label": "*3", "atom_type": "Cs"}, "10": {"label": "*4", "atom_type": "Cs"}}

>  <type>  (4) 
ts

$$$$

     RDKit          3D

 20 18  0  0  0  0  0  0  0  0999 V2000
   -0.7608   -1.4447   -0.8314 C   0  0  0  0  0  3  0  0  0  0  0  0
   -1.7213   -0.8160   -0.0592 O   0  0  0  0  0  0  0  0  0  0  0  0
   -1.5475    0.5498    0.0135 N   0  0  0  0  0  0  0  0  0  0  0  0
   -2.4054    1.1884    0.6902 C   0  0  0  0  0  0  0  0  0  0  0  0
    0.4062   -1.4592   -0.1512 H   0  0  0  0  0  0  0  0  0  0  0  0
   -0.5158   -0.9244   -1.7529 H   0  0  0  0  0  0  0  0  0  0  0  0
   -1.0654   -2.4765   -0.9589 H   0  0  0  0  0  0  0  0  0  0  0  0
   -2.2735    2.2539    0.7492 H   0  0  0  0  0  0  0  0  0  0  0  0
   -3.2463    0.7284    1.1977 H   0  0  0  0  0  0  0  0  0  0  0  0
    1.4915   -1.4312    0.5553 C   0  0  0  0  0  0  0  0  0  0  0  0
    1.7280   -0.0176    1.0286 C   0  0  0  0  0  0  0  0  0  0  0  0
    2.0815    0.9436   -0.1111 C   0  0  0  0  0  0  0  0  0  0  0  0
    1.1092    1.0172   -1.1189 O   0  0  0  0  0  0  0  0  0  0  0  0
    2.2721   -1.7927   -0.1047 H   0  0  0  0  0  0  0  0  0  0  0  0
    1.3095   -2.1218    1.3717 H   0  0  0  0  0  0  0  0  0  0  0  0
    0.8384    0.3502    1.5487 H   0  0  0  0  0  0  0  0  0  0  0  0
    2.5560    0.0017    1.7468 H   0  0  0  0  0  0  0  0  0  0  0  0
    2.9976    0.6100   -0.6074 H   0  0  0  0  0  0  0  0  0  0  0  0
    2.2673    1.9434    0.3146 H   0  0  0  0  0  0  0  0  0  0  0  0
    0.2354    1.1273   -0.7072 H   0  0  0  0  0  0  0  0  0  0  0  0
  1  2  1  0
  1  6  1  0
  1  7  1  0
  2  3  1  0
  3  4  2  3
  4  8  1  0
  4  9  1  0
  5 10  1  0
 10 11  1  0
 10 14  1  0
 10 15  1  0
 11 12  1  0
 11 16  1  0
 11 17  1  0
 12 13  1  0
 12 18  1  0
 12 19  1  0
 13 20  1  0
M  RAD  1   1   2
M  END
>  <reaction>  (5) 
rmg_rxn_15716

>  <mol_properties>  (5) 
{"0": {"label": "*1", "atom_type": "Cs"}, "1": {"label": "*0", "atom_type": "O2s"}, "4": {"label": "*2", "atom_type": "H0"}, "9": {"label": "*3", "atom_type": "Cs"}, "10": {"label": "*4", "atom_type": "Cs"}}

>  <type>  (5) 
unop_1

>  <geom_source>  (5) 
crest_best.xyz

$$$$

     RDKit          3D

 20 18  0  0  0  0  0  0  0  0999 V2000
   -1.6785    0.8801   -0.2525 C   0  0  0  0  0  3  0  0  0  0  0  0
   -1.6785    0.9380   -1.6654 O   0  0  0  0  0  0  0  0  0  0  0  0
   -1.6785   -0.3359   -2.1812 N   0  0  0  0  0  0  0  0  0  0  0  0
   -1.6785   -0.3359   -3.4448 C   0  0  0  0  0  0  0  0  0  0  0  0
   -0.6079    0.2679    0.1916 H   0  0  0  0  0  0  0  0  0  0  0  0
   -2.5706    0.3699    0.1176 H   0  0  0  0  0  0  0  0  0  0  0  0
   -1.6785    1.9150    0.0853 H   0  0  0  0  0  0  0  0  0  0  0  0
   -1.6785   -1.3030   -3.9296 H   0  0  0  0  0  0  0  0  0  0  0  0
   -1.6785    0.5806   -4.0309 H   0  0  0  0  0  0  0  0  0  0  0  0
    0.4613   -0.3435    0.6351 C   0  0  0  0  0  0  0  0  0  0  0  0
    1.2861    0.5682    1.5332 C   0  0  0  0  0  0  0  0  0  0  0  0
    1.9012   -0.1558    2.7217 C   0  0  0  0  0  0  0  0  0  0  0  0
    2.7866   -1.1940    2.3469 O   0  0  0  0  0  0  0  0  0  0  0  0
    1.0656   -1.1710    0.2621 H   0  0  0  0  0  0  0  0  0  0  0  0
   -0.3807   -0.7703    1.1849 H   0  0  0  0  0  0  0  0  0  0  0  0
    2.0870    1.0406    0.9527 H   0  0  0  0  0  0  0  0  0  0  0  0
    0.6655    1.3845    1.9152 H   0  0  0  0  0  0  0  0  0  0  0  0
    1.1178   -0.6388    3.3098 H   0  0  0  0  0  0  0  0  0  0  0  0
    2.4063    0.5650    3.3770 H   0  0  0  0  0  0  0  0  0  0  0  0
    3.5125   -0.8089    1.8532 H   0  0  0  0  0  0  0  0  0  0  0  0
  1  2  1  0
  1  6  1  0
  1  7  1  0
  2  3  1  0
  3  4  2  3
  4  8  1  0
  4  9  1  0
  5 10  1  0
 10 11  1  0
 10 14  1  0
 10 15  1  0
 11 12  1  0
 11 16  1  0
 11 17  1  0
 12 13  1  0
 12 18  1  0
 12 19  1  0
 13 20  1  0
M  RAD  1   1   2
M  END
>  <reaction>  (6) 
rmg_rxn_15716

>  <mol_properties>  (6) 
{"0": {"label": "*1", "atom_type": "Cs"}, "1": {"label": "*0", "atom_type": "O2s"}, "4": {"label": "*2", "atom_type": "H0"}, "9": {"label": "*3", "atom_type": "Cs"}, "10": {"label": "*4", "atom_type": "Cs"}}

>  <type>  (6) 
unop_2

>  <geom_source>  (6) 
Heuristics

$$$$

     RDKit          3D

 20 18  0  0  0  0  0  0  0  0999 V2000
   -1.7433    1.6452    0.3295 C   0  0  0  0  0  3  0  0  0  0  0  0
   -2.1987    0.5146   -0.2124 O   0  0  0  0  0  0  0  0  0  0  0  0
   -1.4525   -0.6093    0.0372 N   0  0  0  0  0  0  0  0  0  0  0  0
   -1.8986   -1.6946   -0.4640 C   0  0  0  0  0  0  0  0  0  0  0  0
    1.2805    1.5751   -0.7607 H   0  0  0  0  0  0  0  0  0  0  0  0
   -0.8615    1.6517    0.9403 H   0  0  0  0  0  0  0  0  0  0  0  0
   -2.3398    2.5051    0.1082 H   0  0  0  0  0  0  0  0  0  0  0  0
   -1.3217   -2.5812   -0.2754 H   0  0  0  0  0  0  0  0  0  0  0  0
   -2.8060   -1.7625   -1.0518 H   0  0  0  0  0  0  0  0  0  0  0  0
    2.0256    0.9561   -1.2632 C   0  0  0  0  0  0  0  0  0  0  0  0
    2.0503   -0.4693   -0.7474 C   0  0  0  0  0  0  0  0  0  0  0  0
    2.1295   -0.5228    0.7800 C   0  0  0  0  0  0  0  0  0  0  0  0
    1.0276    0.0769    1.4100 O   0  0  0  0  0  0  0  0  0  0  0  0
    2.8497    1.5461   -0.9241 H   0  0  0  0  0  0  0  0  0  0  0  0
    1.9131    1.0145   -2.3383 H   0  0  0  0  0  0  0  0  0  0  0  0
    1.1442   -0.9883   -1.0719 H   0  0  0  0  0  0  0  0  0  0  0  0
    2.9110   -0.9992   -1.1607 H   0  0  0  0  0  0  0  0  0  0  0  0
    3.0092    0.0253    1.1295 H   0  0  0  0  0  0  0  0  0  0  0  0
    2.2283   -1.5720    1.1015 H   0  0  0  0  0  0  0  0  0  0  0  0
    0.2176   -0.3197    1.0439 H   0  0  0  0  0  0  0  0  0  0  0  0
  1  2  1  0
  1  6  1  0
  1  7  1  0
  2  3  1  0
  3  4  2  3
  4  8  1  0
  4  9  1  0
  5 10  1  0
 10 11  1  0
 10 14  1  0
 10 15  1  0
 11 12  1  0
 11 16  1  0
 11 17  1  0
 12 13  1  0
 12 18  1  0
 12 19  1  0
 13 20  1  0
M  RAD  1   1   2
M  END
>  <reaction>  (7) 
rmg_rxn_15716

>  <mol_properties>  (7) 
{"0": {"label": "*1", "atom_type": "Cs"}, "1": {"label": "*0", "atom_type": "O2s"}, "4": {"label": "*2", "atom_type": "H0"}, "9": {"label": "*3", "atom_type": "Cs"}, "10": {"label": "*4", "atom_type": "Cs"}}

>  <type>  (7) 
unop_3

>  <geom_source>  (7) 
Heuristics

$$$$

     RDKit          3D

 20 18  0  0  0  0  0  0  0  0999 V2000
   -1.8938    1.0989    0.4908 C   0  0  0  0  0  3  0  0  0  0  0  0
   -1.8939    1.1568   -0.9221 O   0  0  0  0  0  0  0  0  0  0  0  0
   -1.8939   -0.1171   -1.4378 N   0  0  0  0  0  0  0  0  0  0  0  0
   -1.8939   -0.1171   -2.7014 C   0  0  0  0  0  0  0  0  0  0  0  0
   -0.8233    0.4867    0.9349 H   0  0  0  0  0  0  0  0  0  0  0  0
   -2.7860    0.5887    0.8609 H   0  0  0  0  0  0  0  0  0  0  0  0
   -1.8939    2.1338    0.8286 H   0  0  0  0  0  0  0  0  0  0  0  0
   -1.8939   -1.0842   -3.1863 H   0  0  0  0  0  0  0  0  0  0  0  0
   -1.8939    0.7994   -3.2876 H   0  0  0  0  0  0  0  0  0  0  0  0
    0.2460   -0.1247    1.3785 C   0  0  0  0  0  0  0  0  0  0  0  0
    1.4252    0.0715    0.4357 C   0  0  0  0  0  0  0  0  0  0  0  0
    2.7654   -0.2669    1.0716 C   0  0  0  0  0  0  0  0  0  0  0  0
    2.8593   -1.6138    1.4951 O   0  0  0  0  0  0  0  0  0  0  0  0
    0.2072   -1.1516    1.7431 H   0  0  0  0  0  0  0  0  0  0  0  0
    0.3311    0.5320    2.2473 H   0  0  0  0  0  0  0  0  0  0  0  0
    1.2933   -0.5438   -0.4619 H   0  0  0  0  0  0  0  0  0  0  0  0
    1.4642    1.1089    0.0900 H   0  0  0  0  0  0  0  0  0  0  0  0
    2.9124    0.3330    1.9725 H   0  0  0  0  0  0  0  0  0  0  0  0
    3.5798   -0.0223    0.3780 H   0  0  0  0  0  0  0  0  0  0  0  0
    2.7684   -2.1794    0.7266 H   0  0  0  0  0  0  0  0  0  0  0  0
  1  2  1  0
  1  6  1  0
  1  7  1  0
  2  3  1  0
  3  4  2  3
  4  8  1  0
  4  9  1  0
  5 10  1  0
 10 11  1  0
 10 14  1  0
 10 15  1  0
 11 12  1  0
 11 16  1  0
 11 17  1  0
 12 13  1  0
 12 18  1  0
 12 19  1  0
 13 20  1  0
M  RAD  1   1   2
M  END
>  <reaction>  (8) 
rmg_rxn_15716

>  <mol_properties>  (8) 
{"0": {"label": "*1", "atom_type": "Cs"}, "1": {"label": "*0", "atom_type": "O2s"}, "4": {"label": "*2", "atom_type": "H0"}, "9": {"label": "*3", "atom_type": "Cs"}, "10": {"label": "*4", "atom_type": "Cs"}}

>  <type>  (8) 
unop_4

>  <geom_source>  (8) 
Heuristics

$$$$

     RDKit          3D

 20 18  0  0  0  0  0  0  0  0999 V2000
   -1.9057   -1.3534   -0.9363 C   0  0  0  0  0  3  0  0  0  0  0  0
   -2.2963   -0.1178   -0.6182 O   0  0  0  0  0  0  0  0  0  0  0  0
   -1.5399    0.5184    0.3340 N   0  0  0  0  0  0  0  0  0  0  0  0
   -1.9186    1.6950    0.6504 C   0  0  0  0  0  0  0  0  0  0  0  0
    3.4156    1.5879   -0.2660 H   0  0  0  0  0  0  0  0  0  0  0  0
   -1.0698   -1.8136   -0.4463 H   0  0  0  0  0  0  0  0  0  0  0  0
   -2.5125   -1.8236   -1.6813 H   0  0  0  0  0  0  0  0  0  0  0  0
   -1.3313    2.2015    1.3937 H   0  0  0  0  0  0  0  0  0  0  0  0
   -2.7790    2.1914    0.2180 H   0  0  0  0  0  0  0  0  0  0  0  0
    3.1297    0.8059   -0.9731 C   0  0  0  0  0  0  0  0  0  0  0  0
    1.8452    0.0979   -0.5937 C   0  0  0  0  0  0  0  0  0  0  0  0
    1.8869   -0.4251    0.8436 C   0  0  0  0  0  0  0  0  0  0  0  0
    0.7181   -1.1134    1.2065 O   0  0  0  0  0  0  0  0  0  0  0  0
    4.0076    0.2208   -0.8016 H   0  0  0  0  0  0  0  0  0  0  0  0
    3.1107    1.1946   -1.9832 H   0  0  0  0  0  0  0  0  0  0  0  0
    1.0016    0.7861   -0.6948 H   0  0  0  0  0  0  0  0  0  0  0  0
    1.6746   -0.7426   -1.2701 H   0  0  0  0  0  0  0  0  0  0  0  0
    2.0686    0.4147    1.5324 H   0  0  0  0  0  0  0  0  0  0  0  0
    2.7046   -1.1426    0.9574 H   0  0  0  0  0  0  0  0  0  0  0  0
   -0.0370   -0.5109    1.0886 H   0  0  0  0  0  0  0  0  0  0  0  0
  1  2  1  0
  1  6  1  0
  1  7  1  0
  2  3  1  0
  3  4  2  3
  4  8  1  0
  4  9  1  0
  5 10  1  0
 10 11  1  0
 10 14  1  0
 10 15  1  0
 11 12  1  0
 11 16  1  0
 11 17  1  0
 12 13  1  0
 12 18  1  0
 12 19  1  0
 13 20  1  0
M  RAD  1   1   2
M  END
>  <reaction>  (9) 
rmg_rxn_15716

>  <mol_properties>  (9) 
{"0": {"label": "*1", "atom_type": "Cs"}, "1": {"label": "*0", "atom_type": "O2s"}, "4": {"label": "*2", "atom_type": "H0"}, "9": {"label": "*3", "atom_type": "Cs"}, "10": {"label": "*4", "atom_type": "Cs"}}

>  <type>  (9) 
unop_5

>  <geom_source>  (9) 
Heuristics

$$$$

     RDKit          3D

 20 18  0  0  0  0  0  0  0  0999 V2000
   -1.6006    1.0209   -0.3095 C   0  0  0  0  0  3  0  0  0  0  0  0
   -1.6007    1.0788   -1.7224 O   0  0  0  0  0  0  0  0  0  0  0  0
   -1.6007   -0.1951   -2.2381 N   0  0  0  0  0  0  0  0  0  0  0  0
   -1.6007   -0.1951   -3.5017 C   0  0  0  0  0  0  0  0  0  0  0  0
   -0.5301    0.4087    0.1346 H   0  0  0  0  0  0  0  0  0  0  0  0
   -2.4928    0.5107    0.0606 H   0  0  0  0  0  0  0  0  0  0  0  0
   -1.6007    2.0558    0.0283 H   0  0  0  0  0  0  0  0  0  0  0  0
   -1.6007   -1.1621   -3.9866 H   0  0  0  0  0  0  0  0  0  0  0  0
   -1.6007    0.7214   -4.0879 H   0  0  0  0  0  0  0  0  0  0  0  0
    0.5392   -0.2027    0.5782 C   0  0  0  0  0  0  0  0  0  0  0  0
    0.9496    0.3254    1.9459 C   0  0  0  0  0  0  0  0  0  0  0  0
    1.7035   -0.6974    2.7831 C   0  0  0  0  0  0  0  0  0  0  0  0
    2.9099   -1.1306    2.1841 O   0  0  0  0  0  0  0  0  0  0  0  0
    1.4100   -0.5382    0.0142 H   0  0  0  0  0  0  0  0  0  0  0  0
   -0.1380   -1.0540    0.6787 H   0  0  0  0  0  0  0  0  0  0  0  0
    1.5745    1.2186    1.8302 H   0  0  0  0  0  0  0  0  0  0  0  0
    0.0668    0.6429    2.5090 H   0  0  0  0  0  0  0  0  0  0  0  0
    1.0981   -1.5984    2.9044 H   0  0  0  0  0  0  0  0  0  0  0  0
    1.8932   -0.2922    3.7851 H   0  0  0  0  0  0  0  0  0  0  0  0
    3.4890   -0.3727    2.0879 H   0  0  0  0  0  0  0  0  0  0  0  0
  1  2  1  0
  1  6  1  0
  1  7  1  0
  2  3  1  0
  3  4  2  3
  4  8  1  0
  4  9  1  0
  5 10  1  0
 10 11  1  0
 10 14  1  0
 10 15  1  0
 11 12  1  0
 11 16  1  0
 11 17  1  0
 12 13  1  0
 12 18  1  0
 12 19  1  0
 13 20  1  0
M  RAD  1   1   2
M  END
>  <reaction>  (10) 
rmg_rxn_15716

>  <mol_properties>  (10) 
{"0": {"label": "*1", "atom_type": "Cs"}, "1": {"label": "*0", "atom_type": "O2s"}, "4": {"label": "*2", "atom_type": "H0"}, "9": {"label": "*3", "atom_type": "Cs"}, "10": {"label": "*4", "atom_type": "Cs"}}

>  <type>  (10) 
unop_6

>  <geom_source>  (10) 
Heuristics

$$$$

     RDKit          3D

 20 18  0  0  0  0  0  0  0  0999 V2000
   -1.1675    1.7147    0.1229 C   0  0  0  0  0  3  0  0  0  0  0  0
   -1.1675    1.7726   -1.2900 O   0  0  0  0  0  0  0  0  0  0  0  0
   -1.1675    0.4988   -1.8058 N   0  0  0  0  0  0  0  0  0  0  0  0
   -1.1675    0.4988   -3.0694 C   0  0  0  0  0  0  0  0  0  0  0  0
   -0.0969    1.1026    0.5670 H   0  0  0  0  0  0  0  0  0  0  0  0
   -2.0596    1.2045    0.4930 H   0  0  0  0  0  0  0  0  0  0  0  0
   -1.1675    2.7496    0.4607 H   0  0  0  0  0  0  0  0  0  0  0  0
   -1.1675   -0.4683   -3.5542 H   0  0  0  0  0  0  0  0  0  0  0  0
   -1.1675    1.4153   -3.6555 H   0  0  0  0  0  0  0  0  0  0  0  0
    0.9723    0.4912    1.0105 C   0  0  0  0  0  0  0  0  0  0  0  0
    1.0494   -0.9362    0.4866 C   0  0  0  0  0  0  0  0  0  0  0  0
    1.6835   -1.9051    1.4738 C   0  0  0  0  0  0  0  0  0  0  0  0
    0.9744   -2.0040    2.6942 O   0  0  0  0  0  0  0  0  0  0  0  0
    0.4118    0.5319    1.9450 H   0  0  0  0  0  0  0  0  0  0  0  0
    1.9717    0.8864    1.2066 H   0  0  0  0  0  0  0  0  0  0  0  0
    0.0459   -1.2962    0.2317 H   0  0  0  0  0  0  0  0  0  0  0  0
    1.6283   -0.9675   -0.4414 H   0  0  0  0  0  0  0  0  0  0  0  0
    2.6836   -1.5594    1.7448 H   0  0  0  0  0  0  0  0  0  0  0  0
    1.7926   -2.8931    1.0090 H   0  0  0  0  0  0  0  0  0  0  0  0
    0.0954   -2.3375    2.5070 H   0  0  0  0  0  0  0  0  0  0  0  0
  1  2  1  0
  1  6  1  0
  1  7  1  0
  2  3  1  0
  3  4  2  3
  4  8  1  0
  4  9  1  0
  5 10  1  0
 10 11  1  0
 10 14  1  0
 10 15  1  0
 11 12  1  0
 11 16  1  0
 11 17  1  0
 12 13  1  0
 12 18  1  0
 12 19  1  0
 13 20  1  0
M  RAD  1   1   2
M  END
>  <reaction>  (11) 
rmg_rxn_15716

>  <mol_properties>  (11) 
{"0": {"label": "*1", "atom_type": "Cs"}, "1": {"label": "*0", "atom_type": "O2s"}, "4": {"label": "*2", "atom_type": "H0"}, "9": {"label": "*3", "atom_type": "Cs"}, "10": {"label": "*4", "atom_type": "Cs"}}

>  <type>  (11) 
unop_7

>  <geom_source>  (11) 
Heuristics

$$$$

     RDKit          3D

 20 18  0  0  0  0  0  0  0  0999 V2000
   -1.7314   -1.6435   -0.3640 C   0  0  0  0  0  3  0  0  0  0  0  0
   -2.1995   -0.5278    0.1977 O   0  0  0  0  0  0  0  0  0  0  0  0
   -1.4562    0.6052   -0.0177 N   0  0  0  0  0  0  0  0  0  0  0  0
   -1.9145    1.6770    0.5011 C   0  0  0  0  0  0  0  0  0  0  0  0
    2.8923   -1.5733    0.8457 H   0  0  0  0  0  0  0  0  0  0  0  0
   -0.8434   -1.6310   -0.9657 H   0  0  0  0  0  0  0  0  0  0  0  0
   -2.3252   -2.5115   -0.1684 H   0  0  0  0  0  0  0  0  0  0  0  0
   -1.3397    2.5702    0.3395 H   0  0  0  0  0  0  0  0  0  0  0  0
   -2.8300    1.7276    1.0781 H   0  0  0  0  0  0  0  0  0  0  0  0
    2.0390   -1.0038    1.2177 C   0  0  0  0  0  0  0  0  0  0  0  0
    2.0461    0.4437    0.7672 C   0  0  0  0  0  0  0  0  0  0  0  0
    2.1233    0.5666   -0.7562 C   0  0  0  0  0  0  0  0  0  0  0  0
    1.0290   -0.0193   -1.4117 O   0  0  0  0  0  0  0  0  0  0  0  0
    1.9386   -1.1130    2.2898 H   0  0  0  0  0  0  0  0  0  0  0  0
    1.3256   -1.6042    0.6954 H   0  0  0  0  0  0  0  0  0  0  0  0
    1.1325    0.9343    1.1144 H   0  0  0  0  0  0  0  0  0  0  0  0
    2.8988    0.9668    1.2042 H   0  0  0  0  0  0  0  0  0  0  0  0
    3.0098    0.0462   -1.1298 H   0  0  0  0  0  0  0  0  0  0  0  0
    2.2079    1.6302   -1.0306 H   0  0  0  0  0  0  0  0  0  0  0  0
    0.2144    0.3545   -1.0322 H   0  0  0  0  0  0  0  0  0  0  0  0
  1  2  1  0
  1  6  1  0
  1  7  1  0
  2  3  1  0
  3  4  2  3
  4  8  1  0
  4  9  1  0
  5 10  1  0
 10 11  1  0
 10 14  1  0
 10 15  1  0
 11 12  1  0
 11 16  1  0
 11 17  1  0
 12 13  1  0
 12 18  1  0
 12 19  1  0
 13 20  1  0
M  RAD  1   1   2
M  END
>  <reaction>  (12) 
rmg_rxn_15716

>  <mol_properties>  (12) 
{"0": {"label": "*1", "atom_type": "Cs"}, "1": {"label": "*0", "atom_type": "O2s"}, "4": {"label": "*2", "atom_type": "H0"}, "9": {"label": "*3", "atom_type": "Cs"}, "10": {"label": "*4", "atom_type": "Cs"}}

>  <type>  (12) 
unop_8

>  <geom_source>  (12) 
Heuristics

$$$$

     RDKit          3D

 20 18  0  0  0  0  0  0  0  0999 V2000
   -1.5731    0.9990   -0.3343 C   0  0  0  0  0  3  0  0  0  0  0  0
   -1.5731    1.0569   -1.7472 O   0  0  0  0  0  0  0  0  0  0  0  0
   -1.5731   -0.2170   -2.2629 N   0  0  0  0  0  0  0  0  0  0  0  0
   -1.5731   -0.2170   -3.5265 C   0  0  0  0  0  0  0  0  0  0  0  0
   -0.5025    0.3868    0.1098 H   0  0  0  0  0  0  0  0  0  0  0  0
   -2.4652    0.4888    0.0358 H   0  0  0  0  0  0  0  0  0  0  0  0
   -1.5731    2.0339    0.0035 H   0  0  0  0  0  0  0  0  0  0  0  0
   -1.5731   -1.1841   -4.0114 H   0  0  0  0  0  0  0  0  0  0  0  0
   -1.5731    0.6995   -4.1127 H   0  0  0  0  0  0  0  0  0  0  0  0
    0.5668   -0.2246    0.5534 C   0  0  0  0  0  0  0  0  0  0  0  0
    0.5738   -0.2909    2.0744 C   0  0  0  0  0  0  0  0  0  0  0  0
    1.8192   -0.9566    2.6409 C   0  0  0  0  0  0  0  0  0  0  0  0
    3.0167   -0.2838    2.3011 O   0  0  0  0  0  0  0  0  0  0  0  0
    1.4433    0.3085    0.1840 H   0  0  0  0  0  0  0  0  0  0  0  0
    0.5835   -1.2280    0.1217 H   0  0  0  0  0  0  0  0  0  0  0  0
    0.4898    0.7186    2.4935 H   0  0  0  0  0  0  0  0  0  0  0  0
   -0.3006   -0.8425    2.4328 H   0  0  0  0  0  0  0  0  0  0  0  0
    1.9234   -1.9631    2.2294 H   0  0  0  0  0  0  0  0  0  0  0  0
    1.7269   -1.0552    3.7298 H   0  0  0  0  0  0  0  0  0  0  0  0
    2.9832    0.5992    2.6727 H   0  0  0  0  0  0  0  0  0  0  0  0
  1  2  1  0
  1  6  1  0
  1  7  1  0
  2  3  1  0
  3  4  2  3
  4  8  1  0
  4  9  1  0
  5 10  1  0
 10 11  1  0
 10 14  1  0
 10 15  1  0
 11 12  1  0
 11 16  1  0
 11 17  1  0
 12 13  1  0
 12 18  1  0
 12 19  1  0
 13 20  1  0
M  RAD  1   1   2
M  END
>  <reaction>  (13) 
rmg_rxn_15716

>  <mol_properties>  (13) 
{"0": {"label": "*1", "atom_type": "Cs"}, "1": {"label": "*0", "atom_type": "O2s"}, "4": {"label": "*2", "atom_type": "H0"}, "9": {"label": "*3", "atom_type": "Cs"}, "10": {"label": "*4", "atom_type": "Cs"}}

>  <type>  (13) 
unop_9

>  <geom_source>  (13) 
Heuristics

$$$$

     RDKit          3D

 20 18  0  0  0  0  0  0  0  0999 V2000
   -1.7420    1.6449    0.3564 C   0  0  0  0  0  3  0  0  0  0  0  0
   -2.2064    0.5258   -0.2016 O   0  0  0  0  0  0  0  0  0  0  0  0
   -1.4589   -0.6037    0.0162 N   0  0  0  0  0  0  0  0  0  0  0  0
   -1.9137   -1.6788   -0.4990 C   0  0  0  0  0  0  0  0  0  0  0  0
    2.9229    1.5591   -0.8428 H   0  0  0  0  0  0  0  0  0  0  0  0
   -0.8532    1.6376    0.9571 H   0  0  0  0  0  0  0  0  0  0  0  0
   -2.3395    2.5100    0.1595 H   0  0  0  0  0  0  0  0  0  0  0  0
   -1.3355   -2.5693   -0.3353 H   0  0  0  0  0  0  0  0  0  0  0  0
   -2.8295   -1.7343   -1.0750 H   0  0  0  0  0  0  0  0  0  0  0  0
    2.0618    1.0005   -1.2146 C   0  0  0  0  0  0  0  0  0  0  0  0
    2.0511   -0.4466   -0.7625 C   0  0  0  0  0  0  0  0  0  0  0  0
    2.1187   -0.5680    0.7616 C   0  0  0  0  0  0  0  0  0  0  0  0
    1.0252    0.0272    1.4099 O   0  0  0  0  0  0  0  0  0  0  0  0
    1.9653    1.1089   -2.2872 H   0  0  0  0  0  0  0  0  0  0  0  0
    1.3518    1.6084   -0.6958 H   0  0  0  0  0  0  0  0  0  0  0  0
    1.1342   -0.9280   -1.1138 H   0  0  0  0  0  0  0  0  0  0  0  0
    2.9006   -0.9793   -1.1941 H   0  0  0  0  0  0  0  0  0  0  0  0
    3.0070   -0.0539    1.1395 H   0  0  0  0  0  0  0  0  0  0  0  0
    2.1935   -1.6318    1.0380 H   0  0  0  0  0  0  0  0  0  0  0  0
    0.2100   -0.3438    1.0287 H   0  0  0  0  0  0  0  0  0  0  0  0
  1  2  1  0
  1  6  1  0
  1  7  1  0
  2  3  1  0
  3  4  2  3
  4  8  1  0
  4  9  1  0
  5 10  1  0
 10 11  1  0
 10 14  1  0
 10 15  1  0
 11 12  1  0
 11 16  1  0
 11 17  1  0
 12 13  1  0
 12 18  1  0
 12 19  1  0
 13 20  1  0
M  RAD  1   1   2
M  END
>  <reaction>  (14) 
rmg_rxn_15716

>  <mol_properties>  (14) 
{"0": {"label": "*1", "atom_type": "Cs"}, "1": {"label": "*0", "atom_type": "O2s"}, "4": {"label": "*2", "atom_type": "H0"}, "9": {"label": "*3", "atom_type": "Cs"}, "10": {"label": "*4", "atom_type": "Cs"}}

>  <type>  (14) 
unop_10

>  <geom_source>  (14) 
Heuristics

$$$$

     RDKit          3D

 20 18  0  0  0  0  0  0  0  0999 V2000
   -1.0650    1.5486   -0.2006 C   0  0  0  0  0  3  0  0  0  0  0  0
   -1.0650    1.6065   -1.6134 O   0  0  0  0  0  0  0  0  0  0  0  0
   -1.0650    0.3326   -2.1292 N   0  0  0  0  0  0  0  0  0  0  0  0
   -1.0650    0.3326   -3.3928 C   0  0  0  0  0  0  0  0  0  0  0  0
    0.0056    0.9364    0.2436 H   0  0  0  0  0  0  0  0  0  0  0  0
   -1.9571    1.0384    0.1696 H   0  0  0  0  0  0  0  0  0  0  0  0
   -1.0650    2.5835    0.1373 H   0  0  0  0  0  0  0  0  0  0  0  0
   -1.0650   -0.6344   -3.8776 H   0  0  0  0  0  0  0  0  0  0  0  0
   -1.0650    1.2491   -3.9789 H   0  0  0  0  0  0  0  0  0  0  0  0
    1.0748    0.3250    0.6871 C   0  0  0  0  0  0  0  0  0  0  0  0
    0.8379   -1.1727    0.8234 C   0  0  0  0  0  0  0  0  0  0  0  0
    1.4445   -1.7644    2.0871 C   0  0  0  0  0  0  0  0  0  0  0  0
    0.9186   -1.2039    3.2753 O   0  0  0  0  0  0  0  0  0  0  0  0
    0.6742    0.8613    1.5479 H   0  0  0  0  0  0  0  0  0  0  0  0
    2.1434    0.5445    0.6286 H   0  0  0  0  0  0  0  0  0  0  0  0
   -0.2378   -1.3839    0.8140 H   0  0  0  0  0  0  0  0  0  0  0  0
    1.2589   -1.7018   -0.0369 H   0  0  0  0  0  0  0  0  0  0  0  0
    2.5167   -1.5585    2.1173 H   0  0  0  0  0  0  0  0  0  0  0  0
    1.3195   -2.8545    2.0858 H   0  0  0  0  0  0  0  0  0  0  0  0
   -0.0211   -1.3904    3.3074 H   0  0  0  0  0  0  0  0  0  0  0  0
  1  2  1  0
  1  6  1  0
  1  7  1  0
  2  3  1  0
  3  4  2  3
  4  8  1  0
  4  9  1  0
  5 10  1  0
 10 11  1  0
 10 14  1  0
 10 15  1  0
 11 12  1  0
 11 16  1  0
 11 17  1  0
 12 13  1  0
 12 18  1  0
 12 19  1  0
 13 20  1  0
M  RAD  1   1   2
M  END
>  <reaction>  (15) 
rmg_rxn_15716

>  <mol_properties>  (15) 
{"0": {"label": "*1", "atom_type": "Cs"}, "1": {"label": "*0", "atom_type": "O2s"}, "4": {"label": "*2", "atom_type": "H0"}, "9": {"label": "*3", "atom_type": "Cs"}, "10": {"label": "*4", "atom_type": "Cs"}}

>  <type>  (15) 
unop_11

>  <geom_source>  (15) 
Heuristics

$$$$

     RDKit          3D

 20 18  0  0  0  0  0  0  0  0999 V2000
   -0.7604    1.4453   -0.8305 C   0  0  0  0  0  3  0  0  0  0  0  0
   -1.7205    0.8171   -0.0574 O   0  0  0  0  0  0  0  0  0  0  0  0
   -1.5488   -0.5490    0.0131 N   0  0  0  0  0  0  0  0  0  0  0  0
   -2.4073   -1.1874    0.6892 C   0  0  0  0  0  0  0  0  0  0  0  0
    0.4076    1.4592   -0.1520 H   0  0  0  0  0  0  0  0  0  0  0  0
   -1.0644    2.4774   -0.9575 H   0  0  0  0  0  0  0  0  0  0  0  0
   -0.5169    0.9250   -1.7523 H   0  0  0  0  0  0  0  0  0  0  0  0
   -2.2769   -2.2532    0.7464 H   0  0  0  0  0  0  0  0  0  0  0  0
   -3.2473   -0.7271    1.1980 H   0  0  0  0  0  0  0  0  0  0  0  0
    1.4946    1.4311    0.5520 C   0  0  0  0  0  0  0  0  0  0  0  0
    1.7297    0.0182    1.0280 C   0  0  0  0  0  0  0  0  0  0  0  0
    2.0804   -0.9459   -0.1102 C   0  0  0  0  0  0  0  0  0  0  0  0
    1.1077   -1.0187   -1.1176 O   0  0  0  0  0  0  0  0  0  0  0  0
    1.3156    2.1239    1.3673 H   0  0  0  0  0  0  0  0  0  0  0  0
    2.2742    1.7898   -0.1106 H   0  0  0  0  0  0  0  0  0  0  0  0
    2.5587   -0.0008    1.7451 H   0  0  0  0  0  0  0  0  0  0  0  0
    0.8403   -0.3473    1.5502 H   0  0  0  0  0  0  0  0  0  0  0  0
    2.2638   -1.9454    0.3172 H   0  0  0  0  0  0  0  0  0  0  0  0
    2.9972   -0.6155   -0.6073 H   0  0  0  0  0  0  0  0  0  0  0  0
    0.2338   -1.1272   -0.7057 H   0  0  0  0  0  0  0  0  0  0  0  0
  1  2  1  0
  1  6  1  0
  1  7  1  0
  2  3  1  0
  3  4  2  3
  4  8  1  0
  4  9  1  0
  5 10  1  0
 10 11  1  0
 10 14  1  0
 10 15  1  0
 11 12  1  0
 11 16  1  0
 11 17  1  0
 12 13  1  0
 12 18  1  0
 12 19  1  0
 13 20  1  0
M  RAD  1   1   2
M  END
>  <reaction>  (16) 
rmg_rxn_15716

>  <mol_properties>  (16) 
{"0": {"label": "*1", "atom_type": "Cs"}, "1": {"label": "*0", "atom_type": "O2s"}, "4": {"label": "*2", "atom_type": "H0"}, "9": {"label": "*3", "atom_type": "Cs"}, "10": {"label": "*4", "atom_type": "Cs"}}

>  <type>  (16) 
unop_12

>  <geom_source>  (16) 
Heuristics

$$$$

     RDKit          3D

 20 18  0  0  0  0  0  0  0  0999 V2000
   -1.1343    1.2619   -0.4185 C   0  0  0  0  0  3  0  0  0  0  0  0
   -1.1343    1.3198   -1.8314 O   0  0  0  0  0  0  0  0  0  0  0  0
   -1.1343    0.0459   -2.3472 N   0  0  0  0  0  0  0  0  0  0  0  0
   -1.1343    0.0459   -3.6108 C   0  0  0  0  0  0  0  0  0  0  0  0
   -0.0637    0.6497    0.0256 H   0  0  0  0  0  0  0  0  0  0  0  0
   -2.0264    0.7517   -0.0484 H   0  0  0  0  0  0  0  0  0  0  0  0
   -1.1343    2.2968   -0.0807 H   0  0  0  0  0  0  0  0  0  0  0  0
   -1.1343   -0.9212   -4.0956 H   0  0  0  0  0  0  0  0  0  0  0  0
   -1.1343    0.9624   -4.1969 H   0  0  0  0  0  0  0  0  0  0  0  0
    1.0055    0.0383    0.4691 C   0  0  0  0  0  0  0  0  0  0  0  0
    0.6387   -1.1975    1.2791 C   0  0  0  0  0  0  0  0  0  0  0  0
    1.4825   -1.3654    2.5342 C   0  0  0  0  0  0  0  0  0  0  0  0
    1.3569   -0.2864    3.4409 O   0  0  0  0  0  0  0  0  0  0  0  0
    0.9110    0.9408    1.0737 H   0  0  0  0  0  0  0  0  0  0  0  0
    2.0392   -0.0197    0.1205 H   0  0  0  0  0  0  0  0  0  0  0  0
   -0.4186   -1.1571    1.5657 H   0  0  0  0  0  0  0  0  0  0  0  0
    0.7538   -2.0979    0.6681 H   0  0  0  0  0  0  0  0  0  0  0  0
    2.5415   -1.4017    2.2689 H   0  0  0  0  0  0  0  0  0  0  0  0
    1.2347   -2.3144    3.0261 H   0  0  0  0  0  0  0  0  0  0  0  0
    0.4435   -0.2372    3.7276 H   0  0  0  0  0  0  0  0  0  0  0  0
  1  2  1  0
  1  6  1  0
  1  7  1  0
  2  3  1  0
  3  4  2  3
  4  8  1  0
  4  9  1  0
  5 10  1  0
 10 11  1  0
 10 14  1  0
 10 15  1  0
 11 12  1  0
 11 16  1  0
 11 17  1  0
 12 13  1  0
 12 18  1  0
 12 19  1  0
 13 20  1  0
M  RAD  1   1   2
M  END
>  <reaction>  (17) 
rmg_rxn_15716

>  <mol_properties>  (17) 
{"0": {"label": "*1", "atom_type": "Cs"}, "1": {"label": "*0", "atom_type": "O2s"}, "4": {"label": "*2", "atom_type": "H0"}, "9": {"label": "*3", "atom_type": "Cs"}, "10": {"label": "*4", "atom_type": "Cs"}}

>  <type>  (17) 
unop_13

>  <geom_source>  (17) 
Heuristics

$$$$

     RDKit          3D

 20 18  0  0  0  0  0  0  0  0999 V2000
   -1.8193    0.7819   -0.0522 C   0  0  0  0  0  3  0  0  0  0  0  0
   -1.8193    0.8398   -1.4650 O   0  0  0  0  0  0  0  0  0  0  0  0
   -1.8193   -0.4340   -1.9808 N   0  0  0  0  0  0  0  0  0  0  0  0
   -1.8193   -0.4340   -3.2444 C   0  0  0  0  0  0  0  0  0  0  0  0
   -0.7487    0.1697    0.3920 H   0  0  0  0  0  0  0  0  0  0  0  0
   -2.7114    0.2717    0.3180 H   0  0  0  0  0  0  0  0  0  0  0  0
   -1.8193    1.8168    0.2857 H   0  0  0  0  0  0  0  0  0  0  0  0
   -1.8193   -1.4011   -3.7292 H   0  0  0  0  0  0  0  0  0  0  0  0
   -1.8193    0.4824   -3.8305 H   0  0  0  0  0  0  0  0  0  0  0  0
    0.3205   -0.4417    0.8355 C   0  0  0  0  0  0  0  0  0  0  0  0
    1.4593    0.5404    1.0734 C   0  0  0  0  0  0  0  0  0  0  0  0
    2.2901    0.2101    2.3046 C   0  0  0  0  0  0  0  0  0  0  0  0
    2.9131   -1.0585    2.2351 O   0  0  0  0  0  0  0  0  0  0  0  0
    0.6999   -1.4590    0.7351 H   0  0  0  0  0  0  0  0  0  0  0  0
   -0.3812   -0.4314    1.6727 H   0  0  0  0  0  0  0  0  0  0  0  0
    2.1186    0.5683    0.1980 H   0  0  0  0  0  0  0  0  0  0  0  0
    1.0657    1.5547    1.1899 H   0  0  0  0  0  0  0  0  0  0  0  0
    1.6484    0.1718    3.1877 H   0  0  0  0  0  0  0  0  0  0  0  0
    3.0351    0.9977    2.4742 H   0  0  0  0  0  0  0  0  0  0  0  0
    3.5145   -1.0594    1.4886 H   0  0  0  0  0  0  0  0  0  0  0  0
  1  2  1  0
  1  6  1  0
  1  7  1  0
  2  3  1  0
  3  4  2  3
  4  8  1  0
  4  9  1  0
  5 10  1  0
 10 11  1  0
 10 14  1  0
 10 15  1  0
 11 12  1  0
 11 16  1  0
 11 17  1  0
 12 13  1  0
 12 18  1  0
 12 19  1  0
 13 20  1  0
M  RAD  1   1   2
M  END
>  <reaction>  (18) 
rmg_rxn_15716

>  <mol_properties>  (18) 
{"0": {"label": "*1", "atom_type": "Cs"}, "1": {"label": "*0", "atom_type": "O2s"}, "4": {"label": "*2", "atom_type": "H0"}, "9": {"label": "*3", "atom_type": "Cs"}, "10": {"label": "*4", "atom_type": "Cs"}}

>  <type>  (18) 
unop_14

>  <geom_source>  (18) 
Heuristics

$$$$

     RDKit          3D

 20 18  0  0  0  0  0  0  0  0999 V2000
   -0.7608   -1.4447   -0.8314 C   0  0  0  0  0  3  0  0  0  0  0  0
   -1.7213   -0.8160   -0.0592 O   0  0  0  0  0  0  0  0  0  0  0  0
   -1.5475    0.5498    0.0135 N   0  0  0  0  0  0  0  0  0  0  0  0
   -2.4054    1.1884    0.6902 C   0  0  0  0  0  0  0  0  0  0  0  0
    0.4062   -1.4592   -0.1512 H   0  0  0  0  0  0  0  0  0  0  0  0
   -0.5158   -0.9244   -1.7529 H   0  0  0  0  0  0  0  0  0  0  0  0
   -1.0654   -2.4765   -0.9589 H   0  0  0  0  0  0  0  0  0  0  0  0
   -2.2735    2.2539    0.7492 H   0  0  0  0  0  0  0  0  0  0  0  0
   -3.2463    0.7284    1.1977 H   0  0  0  0  0  0  0  0  0  0  0  0
    1.4915   -1.4312    0.5553 C   0  0  0  0  0  0  0  0  0  0  0  0
    1.7280   -0.0176    1.0286 C   0  0  0  0  0  0  0  0  0  0  0  0
    2.0815    0.9436   -0.1111 C   0  0  0  0  0  0  0  0  0  0  0  0
    1.1092    1.0172   -1.1189 O   0  0  0  0  0  0  0  0  0  0  0  0
    2.2721   -1.7927   -0.1047 H   0  0  0  0  0  0  0  0  0  0  0  0
    1.3095   -2.1218    1.3717 H   0  0  0  0  0  0  0  0  0  0  0  0
    0.8384    0.3502    1.5487 H   0  0  0  0  0  0  0  0  0  0  0  0
    2.5560    0.0017    1.7468 H   0  0  0  0  0  0  0  0  0  0  0  0
    2.9976    0.6100   -0.6074 H   0  0  0  0  0  0  0  0  0  0  0  0
    2.2673    1.9434    0.3146 H   0  0  0  0  0  0  0  0  0  0  0  0
    0.2354    1.1273   -0.7072 H   0  0  0  0  0  0  0  0  0  0  0  0
  1  2  1  0
  1  6  1  0
  1  7  1  0
  2  3  1  0
  3  4  2  3
  4  8  1  0
  4  9  1  0
  5 10  1  0
 10 11  1  0
 10 14  1  0
 10 15  1  0
 11 12  1  0
 11 16  1  0
 11 17  1  0
 12 13  1  0
 12 18  1  0
 12 19  1  0
 13 20  1  0
M  RAD  1   1   2
M  END
>  <reaction>  (19) 
rmg_rxn_15716

>  <mol_properties>  (19) 
{"0": {"label": "*1", "atom_type": "Cs"}, "1": {"label": "*0", "atom_type": "O2s"}, "4": {"label": "*2", "atom_type": "H0"}, "9": {"label": "*3", "atom_type": "Cs"}, "10": {"label": "*4", "atom_type": "Cs"}}

>  <type>  (19) 
unop_15

>  <geom_source>  (19) 
Heuristics

$$$$

     RDKit          3D

 20 18  0  0  0  0  0  0  0  0999 V2000
   -1.4113    1.6787    0.4266 C   0  0  0  0  0  3  0  0  0  0  0  0
   -1.4114    1.7366   -0.9862 O   0  0  0  0  0  0  0  0  0  0  0  0
   -1.4114    0.4627   -1.5020 N   0  0  0  0  0  0  0  0  0  0  0  0
   -1.4114    0.4627   -2.7656 C   0  0  0  0  0  0  0  0  0  0  0  0
   -0.3408    1.0665    0.8708 H   0  0  0  0  0  0  0  0  0  0  0  0
   -2.3035    1.1685    0.7968 H   0  0  0  0  0  0  0  0  0  0  0  0
   -1.4114    2.7136    0.7644 H   0  0  0  0  0  0  0  0  0  0  0  0
   -1.4114   -0.5044   -3.2504 H   0  0  0  0  0  0  0  0  0  0  0  0
   -1.4114    1.3792   -3.3517 H   0  0  0  0  0  0  0  0  0  0  0  0
    0.7285    0.4551    1.3143 C   0  0  0  0  0  0  0  0  0  0  0  0
    1.2198   -0.5886    0.3207 C   0  0  0  0  0  0  0  0  0  0  0  0
    2.1286   -1.6349    0.9488 C   0  0  0  0  0  0  0  0  0  0  0  0
    1.4995   -2.3785    1.9752 O   0  0  0  0  0  0  0  0  0  0  0  0
    0.1953   -0.0162    2.1405 H   0  0  0  0  0  0  0  0  0  0  0  0
    1.5673    1.0128    1.7371 H   0  0  0  0  0  0  0  0  0  0  0  0
    0.3655   -1.0942   -0.1442 H   0  0  0  0  0  0  0  0  0  0  0  0
    1.7678   -0.1061   -0.4943 H   0  0  0  0  0  0  0  0  0  0  0  0
    2.9840   -1.1489    1.4232 H   0  0  0  0  0  0  0  0  0  0  0  0
    2.5203   -2.3034    0.1718 H   0  0  0  0  0  0  0  0  0  0  0  0
    0.7572   -2.8510    1.5948 H   0  0  0  0  0  0  0  0  0  0  0  0
  1  2  1  0
  1  6  1  0
  1  7  1  0
  2  3  1  0
  3  4  2  3
  4  8  1  0
  4  9  1  0
  5 10  1  0
 10 11  1  0
 10 14  1  0
 10 15  1  0
 11 12  1  0
 11 16  1  0
 11 17  1  0
 12 13  1  0
 12 18  1  0
 12 19  1  0
 13 20  1  0
M  RAD  1   1   2
M  END
>  <reaction>  (20) 
rmg_rxn_15716

>  <mol_properties>  (20) 
{"0": {"label": "*1", "atom_type": "Cs"}, "1": {"label": "*0", "atom_type": "O2s"}, "4": {"label": "*2", "atom_type": "H0"}, "9": {"label": "*3", "atom_type": "Cs"}, "10": {"label": "*4", "atom_type": "Cs"}}

>  <type>  (20) 
unop_16

>  <geom_source>  (20) 
Heuristics

$$$$

     RDKit          3D

 20 18  0  0  0  0  0  0  0  0999 V2000
   -1.9206    0.8489    0.2365 C   0  0  0  0  0  3  0  0  0  0  0  0
   -1.9207    0.9068   -1.1764 O   0  0  0  0  0  0  0  0  0  0  0  0
   -1.9207   -0.3671   -1.6921 N   0  0  0  0  0  0  0  0  0  0  0  0
   -1.9207   -0.3671   -2.9557 C   0  0  0  0  0  0  0  0  0  0  0  0
   -0.8501    0.2367    0.6806 H   0  0  0  0  0  0  0  0  0  0  0  0
   -2.8128    0.3387    0.6066 H   0  0  0  0  0  0  0  0  0  0  0  0
   -1.9207    1.8838    0.5743 H   0  0  0  0  0  0  0  0  0  0  0  0
   -1.9207   -1.3341   -3.4406 H   0  0  0  0  0  0  0  0  0  0  0  0
   -1.9207    0.5494   -3.5419 H   0  0  0  0  0  0  0  0  0  0  0  0
    0.2192   -0.3747    1.1242 C   0  0  0  0  0  0  0  0  0  0  0  0
    1.4877    0.3455    0.6883 C   0  0  0  0  0  0  0  0  0  0  0  0
    2.6370    0.1869    1.6727 C   0  0  0  0  0  0  0  0  0  0  0  0
    3.0302   -1.1593    1.8613 O   0  0  0  0  0  0  0  0  0  0  0  0
    0.4072   -1.4389    1.2690 H   0  0  0  0  0  0  0  0  0  0  0  0
   -0.1493    0.0280    2.0705 H   0  0  0  0  0  0  0  0  0  0  0  0
    1.8085   -0.0223   -0.2933 H   0  0  0  0  0  0  0  0  0  0  0  0
    1.2913    1.4146    0.5629 H   0  0  0  0  0  0  0  0  0  0  0  0
    2.3338    0.5431    2.6598 H   0  0  0  0  0  0  0  0  0  0  0  0
    3.4903    0.7973    1.3514 H   0  0  0  0  0  0  0  0  0  0  0  0
    3.3371   -1.5050    1.0215 H   0  0  0  0  0  0  0  0  0  0  0  0
  1  2  1  0
  1  6  1  0
  1  7  1  0
  2  3  1  0
  3  4  2  3
  4  8  1  0
  4  9  1  0
  5 10  1  0
 10 11  1  0
 10 14  1  0
 10 15  1  0
 11 12  1  0
 11 16  1  0
 11 17  1  0
 12 13  1  0
 12 18  1  0
 12 19  1  0
 13 20  1  0
M  RAD  1   1   2
M  END
>  <reaction>  (21) 
rmg_rxn_15716

>  <mol_properties>  (21) 
{"0": {"label": "*1", "atom_type": "Cs"}, "1": {"label": "*0", "atom_type": "O2s"}, "4": {"label": "*2", "atom_type": "H0"}, "9": {"label": "*3", "atom_type": "Cs"}, "10": {"label": "*4", "atom_type": "Cs"}}

>  <type>  (21) 
unop_17

>  <geom_source>  (21) 
Heuristics

$$$$

     RDKit          3D

 20 18  0  0  0  0  0  0  0  0999 V2000
   -1.3568    1.0085   -0.4471 C   0  0  0  0  0  3  0  0  0  0  0  0
   -1.3568    1.0664   -1.8600 O   0  0  0  0  0  0  0  0  0  0  0  0
   -1.3568   -0.2075   -2.3757 N   0  0  0  0  0  0  0  0  0  0  0  0
   -1.3568   -0.2075   -3.6393 C   0  0  0  0  0  0  0  0  0  0  0  0
   -0.2862    0.3963   -0.0030 H   0  0  0  0  0  0  0  0  0  0  0  0
   -2.2489    0.4983   -0.0770 H   0  0  0  0  0  0  0  0  0  0  0  0
   -1.3568    2.0434   -0.1093 H   0  0  0  0  0  0  0  0  0  0  0  0
   -1.3568   -1.1745   -4.1241 H   0  0  0  0  0  0  0  0  0  0  0  0
   -1.3568    0.7090   -4.2255 H   0  0  0  0  0  0  0  0  0  0  0  0
    0.7830   -0.2151    0.4406 C   0  0  0  0  0  0  0  0  0  0  0  0
    0.5056   -0.9269    1.7575 C   0  0  0  0  0  0  0  0  0  0  0  0
    1.7233   -1.0047    2.6664 C   0  0  0  0  0  0  0  0  0  0  0  0
    2.2254    0.2648    3.0386 O   0  0  0  0  0  0  0  0  0  0  0  0
    1.1499    0.7967    0.6160 H   0  0  0  0  0  0  0  0  0  0  0  0
    1.5436   -0.7476   -0.1350 H   0  0  0  0  0  0  0  0  0  0  0  0
   -0.3051   -0.4199    2.2936 H   0  0  0  0  0  0  0  0  0  0  0  0
    0.1548   -1.9462    1.5696 H   0  0  0  0  0  0  0  0  0  0  0  0
    2.5451   -1.5023    2.1466 H   0  0  0  0  0  0  0  0  0  0  0  0
    1.4875   -1.6028    3.5556 H   0  0  0  0  0  0  0  0  0  0  0  0
    1.5442    0.7272    3.5297 H   0  0  0  0  0  0  0  0  0  0  0  0
  1  2  1  0
  1  6  1  0
  1  7  1  0
  2  3  1  0
  3  4  2  3
  4  8  1  0
  4  9  1  0
  5 10  1  0
 10 11  1  0
 10 14  1  0
 10 15  1  0
 11 12  1  0
 11 16  1  0
 11 17  1  0
 12 13  1  0
 12 18  1  0
 12 19  1  0
 13 20  1  0
M  RAD  1   1   2
M  END
>  <reaction>  (22) 
rmg_rxn_15716

>  <mol_properties>  (22) 
{"0": {"label": "*1", "atom_type": "Cs"}, "1": {"label": "*0", "atom_type": "O2s"}, "4": {"label": "*2", "atom_type": "H0"}, "9": {"label": "*3", "atom_type": "Cs"}, "10": {"label": "*4", "atom_type": "Cs"}}

>  <type>  (22) 
unop_18

>  <geom_source>  (22) 
Heuristics

$$$$

     RDKit          3D

 20 18  0  0  0  0  0  0  0  0999 V2000
   -1.7006    1.4349    0.5741 C   0  0  0  0  0  3  0  0  0  0  0  0
   -1.7006    1.4928   -0.8388 O   0  0  0  0  0  0  0  0  0  0  0  0
   -1.7006    0.2190   -1.3545 N   0  0  0  0  0  0  0  0  0  0  0  0
   -1.7006    0.2190   -2.6182 C   0  0  0  0  0  0  0  0  0  0  0  0
   -0.6300    0.8227    1.0182 H   0  0  0  0  0  0  0  0  0  0  0  0
   -2.5927    0.9247    0.9442 H   0  0  0  0  0  0  0  0  0  0  0  0
   -1.7006    2.4698    0.9119 H   0  0  0  0  0  0  0  0  0  0  0  0
   -1.7006   -0.7481   -3.1030 H   0  0  0  0  0  0  0  0  0  0  0  0
   -1.7006    1.1354   -3.2043 H   0  0  0  0  0  0  0  0  0  0  0  0
    0.4392    0.2113    1.4617 C   0  0  0  0  0  0  0  0  0  0  0  0
    1.3339   -0.2381    0.3148 C   0  0  0  0  0  0  0  0  0  0  0  0
    2.5716   -0.9921    0.7784 C   0  0  0  0  0  0  0  0  0  0  0  0
    2.2704   -2.1775    1.4900 O   0  0  0  0  0  0  0  0  0  0  0  0
    0.1210   -0.6410    2.0628 H   0  0  0  0  0  0  0  0  0  0  0  0
    0.9714    0.9009    2.1211 H   0  0  0  0  0  0  0  0  0  0  0  0
    0.7677   -0.8757   -0.3740 H   0  0  0  0  0  0  0  0  0  0  0  0
    1.6609    0.6266   -0.2706 H   0  0  0  0  0  0  0  0  0  0  0  0
    3.1465   -0.3740    1.4716 H   0  0  0  0  0  0  0  0  0  0  0  0
    3.2186   -1.2108   -0.0804 H   0  0  0  0  0  0  0  0  0  0  0  0
    1.7912   -2.7674    0.9057 H   0  0  0  0  0  0  0  0  0  0  0  0
  1  2  1  0
  1  6  1  0
  1  7  1  0
  2  3  1  0
  3  4  2  3
  4  8  1  0
  4  9  1  0
  5 10  1  0
 10 11  1  0
 10 14  1  0
 10 15  1  0
 11 12  1  0
 11 16  1  0
 11 17  1  0
 12 13  1  0
 12 18  1  0
 12 19  1  0
 13 20  1  0
M  RAD  1   1   2
M  END
>  <reaction>  (23) 
rmg_rxn_15716

>  <mol_properties>  (23) 
{"0": {"label": "*1", "atom_type": "Cs"}, "1": {"label": "*0", "atom_type": "O2s"}, "4": {"label": "*2", "atom_type": "H0"}, "9": {"label": "*3", "atom_type": "Cs"}, "10": {"label": "*4", "atom_type": "Cs"}}

>  <type>  (23) 
unop_19

>  <geom_source>  (23) 
Heuristics

$$$$

     RDKit          3D

 20 18  0  0  0  0  0  0  0  0999 V2000
   -3.7418    0.6683    0.4644 O   0  0  0  0  0  0  0  0  0  0  0  0
    2.5469   -0.8643   -0.3748 O   0  0  0  0  0  0  0  0  0  0  0  0
    2.0718    0.3044    0.1739 N   0  0  0  0  0  0  0  0  0  0  0  0
   -1.6244   -0.3569   -0.0400 C   0  0  0  0  0  0  0  0  0  0  0  0
   -2.3682    0.9226    0.3501 C   0  0  0  0  0  0  0  0  0  0  0  0
   -0.1301   -0.1010   -0.2036 C   0  0  0  0  0  0  0  0  0  0  0  0
    1.6455   -1.8205   -0.9037 C   0  0  0  0  0  3  0  0  0  0  0  0
    2.8880    1.1816    0.6573 C   0  0  0  0  0  0  0  0  0  0  0  0
   -1.7742   -1.1291    0.7451 H   0  0  0  0  0  0  0  0  0  0  0  0
   -2.0322   -0.7457   -0.9979 H   0  0  0  0  0  0  0  0  0  0  0  0
   -1.9694    1.3257    1.3092 H   0  0  0  0  0  0  0  0  0  0  0  0
   -2.2178    1.6933   -0.4359 H   0  0  0  0  0  0  0  0  0  0  0  0
    0.0484    0.6493   -1.0031 H   0  0  0  0  0  0  0  0  0  0  0  0
    0.3056    0.2665    0.7499 H   0  0  0  0  0  0  0  0  0  0  0  0
    0.4605   -1.2058   -0.5315 H   0  0  0  0  0  0  0  0  0  0  0  0
    2.2121   -2.7089   -1.2505 H   0  0  0  0  0  0  0  0  0  0  0  0
    1.0924   -1.3814   -1.7604 H   0  0  0  0  0  0  0  0  0  0  0  0
    3.9569    1.0099    0.6378 H   0  0  0  0  0  0  0  0  0  0  0  0
    2.5023    2.0964    1.0859 H   0  0  0  0  0  0  0  0  0  0  0  0
   -3.8723    0.1958    1.3279 H   0  0  0  0  0  0  0  0  0  0  0  0
  1  5  1  0
  1 20  1  0
  2  7  1  0
  2  3  1  0
  3  8  2  3
  4  6  1  0
  4  5  1  0
  4  9  1  0
  4 10  1  0
  5 11  1  0
  5 12  1  0
  6 13  1  0
  6 14  1  0
  6 15  1  0
  7 16  1  0
  7 17  1  0
  8 18  1  0
  8 19  1  0
M  RAD  1   7   2
M  END
>  <reaction>  (24) 
rmg_rxn_15716

>  <mol_properties>  (24) 
{"0": {"label": "*1", "atom_type": "Cs"}, "1": {"label": "*0", "atom_type": "O2s"}, "4": {"label": "*2", "atom_type": "H0"}, "9": {"label": "*3", "atom_type": "Cs"}, "10": {"label": "*4", "atom_type": "Cs"}}

>  <type>  (24) 
unop_20

>  <geom_source>  (24) 
AutoTST

$$$$

     RDKit          3D

 20 18  0  0  0  0  0  0  0  0999 V2000
   -1.8938    1.0989    0.4908 C   0  0  0  0  0  3  0  0  0  0  0  0
   -1.8939    1.1568   -0.9221 O   0  0  0  0  0  0  0  0  0  0  0  0
   -1.8939   -0.1171   -1.4378 N   0  0  0  0  0  0  0  0  0  0  0  0
   -1.8939   -0.1171   -2.7014 C   0  0  0  0  0  0  0  0  0  0  0  0
   -0.8233    0.4867    0.9349 H   0  0  0  0  0  0  0  0  0  0  0  0
   -2.7860    0.5887    0.8609 H   0  0  0  0  0  0  0  0  0  0  0  0
   -1.8939    2.1338    0.8286 H   0  0  0  0  0  0  0  0  0  0  0  0
   -1.8939   -1.0842   -3.1863 H   0  0  0  0  0  0  0  0  0  0  0  0
   -1.8939    0.7994   -3.2876 H   0  0  0  0  0  0  0  0  0  0  0  0
    0.2460   -0.1247    1.3784 C   0  0  0  0  0  0  0  0  0  0  0  0
    1.4252    0.0715    0.4357 C   0  0  0  0  0  0  0  0  0  0  0  0
    2.7654   -0.2669    1.0716 C   0  0  0  0  0  0  0  0  0  0  0  0
    2.8593   -1.6138    1.4951 O   0  0  0  0  0  0  0  0  0  0  0  0
    0.2072   -1.1516    1.7431 H   0  0  0  0  0  0  0  0  0  0  0  0
    0.3311    0.5320    2.2473 H   0  0  0  0  0  0  0  0  0  0  0  0
    1.2933   -0.5438   -0.4619 H   0  0  0  0  0  0  0  0  0  0  0  0
    1.4642    1.1089    0.0900 H   0  0  0  0  0  0  0  0  0  0  0  0
    2.9124    0.3330    1.9725 H   0  0  0  0  0  0  0  0  0  0  0  0
    3.5798   -0.0223    0.3780 H   0  0  0  0  0  0  0  0  0  0  0  0
    2.7684   -2.1794    0.7266 H   0  0  0  0  0  0  0  0  0  0  0  0
  1  2  1  0
  1  6  1  0
  1  7  1  0
  2  3  1  0
  3  4  2  3
  4  8  1  0
  4  9  1  0
  5 10  1  0
 10 11  1  0
 10 14  1  0
 10 15  1  0
 11 12  1  0
 11 16  1  0
 11 17  1  0
 12 13  1  0
 12 18  1  0
 12 19  1  0
 13 20  1  0
M  RAD  1   1   2
M  END
>  <reaction>  (25) 
rmg_rxn_15716

>  <mol_properties>  (25) 
{"0": {"label": "*1", "atom_type": "Cs"}, "1": {"label": "*0", "atom_type": "O2s"}, "4": {"label": "*2", "atom_type": "H0"}, "9": {"label": "*3", "atom_type": "Cs"}, "10": {"label": "*4", "atom_type": "Cs"}}

>  <type>  (25) 
unop_21

>  <geom_source>  (25) 
gaussian_log

$$$$
