
     RDKit          3D

  9  8  0  0  0  0  0  0  0  0999 V2000
   -1.0434   -0.0834    0.0221 C   0  0  0  0  0  0  0  0  0  0  0  0
    0.4680   -0.2131    0.0785 C   0  0  0  0  0  0  0  0  0  0  0  0
    0.9450   -1.3136   -0.7058 N   0  0  0  0  0  2  0  0  0  0  0  0
   -1.5170   -0.9919    0.3960 H   0  0  0  0  0  0  0  0  0  0  0  0
   -1.3864    0.7592    0.6249 H   0  0  0  0  0  0  0  0  0  0  0  0
   -1.3736    0.0696   -1.0061 H   0  0  0  0  0  0  0  0  0  0  0  0
    0.8045   -0.3309    1.1214 H   0  0  0  0  0  0  0  0  0  0  0  0
    0.9463    0.7186   -0.2648 H   0  0  0  0  0  0  0  0  0  0  0  0
    1.9638   -1.3321   -0.6157 H   0  0  0  0  0  0  0  0  0  0  0  0
  1  2  1  0
  1  4  1  0
  1  5  1  0
  1  6  1  0
  2  3  1  0
  2  7  1  0
  2  8  1  0
  3  9  1  0
M  RAD  1   3   2
M  END
>  <reaction>  (1) 
rmg_rxn_272

>  <mol_properties>  (1) 
{"2": {"label": "donator", "atom_type": "N3s"}, "8": {"label": "d_hydrogen", "atom_type": "H0"}}

>  <type>  (1) 
r1h

$$$$

     RDKit          3D

 17 16  0  0  0  0  0  0  0  0999 V2000
   -3.2378    0.0781    0.0468 C   0  0  0  0  0  0  0  0  0  0  0  0
   -1.9072   -0.5430    0.2348 C   0  0  0  0  0  3  0  0  0  0  0  0
   -1.5607   -0.7743    1.5229 O   0  0  0  0  0  0  0  0  0  0  0  0
   -0.2678   -1.3170    1.7206 C   0  0  0  0  0  0  0  0  0  0  0  0
    0.0055   -1.4164    3.2061 C   0  0  0  0  0  0  0  0  0  0  0  0
    0.0347   -0.0632    3.9042 C   0  0  0  0  0  0  0  0  0  0  0  0
   -3.2816    1.0982    0.4537 H   0  0  0  0  0  0  0  0  0  0  0  0
   -3.4818    0.1310   -1.0144 H   0  0  0  0  0  0  0  0  0  0  0  0
   -4.0139   -0.5033    0.5509 H   0  0  0  0  0  0  0  0  0  0  0  0
   -1.0896   -0.3480   -0.4562 H   0  0  0  0  0  0  0  0  0  0  0  0
   -0.2142   -2.3036    1.2476 H   0  0  0  0  0  0  0  0  0  0  0  0
    0.4751   -0.6679    1.2371 H   0  0  0  0  0  0  0  0  0  0  0  0
   -0.7555   -2.0574    3.6583 H   0  0  0  0  0  0  0  0  0  0  0  0
    0.9642   -1.9267    3.3334 H   0  0  0  0  0  0  0  0  0  0  0  0
   -0.9209    0.4499    3.7952 H   0  0  0  0  0  0  0  0  0  0  0  0
    0.2399   -0.1765    4.9695 H   0  0  0  0  0  0  0  0  0  0  0  0
    0.8109    0.5782    3.4796 H   0  0  0  0  0  0  0  0  0  0  0  0
  1  2  1  0
  1  7  1  0
  1  8  1  0
  1  9  1  0
  2  3  1  0
  2 10  1  0
  3  4  1  0
  4  5  1  0
  4 11  1  0
  4 12  1  0
  5  6  1  0
  5 13  1  0
  5 14  1  0
  6 15  1  0
  6 16  1  0
  6 17  1  0
M  RAD  1   2   2
M  END
>  <reaction>  (2) 
rmg_rxn_272

>  <mol_properties>  (2) 
{"1": {"label": "acceptor", "atom_type": "Cs"}}

>  <type>  (2) 
r2

$$$$

     RDKit          3D

 18 17  0  0  0  0  0  0  0  0999 V2000
    2.2026   -0.7213   -0.2612 C   0  0  0  0  0  0  0  0  0  0  0  0
    1.5384    0.2638    0.6915 C   0  0  0  0  0  0  0  0  0  0  0  0
    2.2584    1.5946    0.7694 C   0  0  0  0  0  0  0  0  0  0  0  0
    2.2212    2.2185   -0.4893 O   0  0  0  0  0  0  0  0  0  0  0  0
    2.8988    3.4488   -0.5204 C   0  0  0  0  0  0  0  0  0  0  0  0
    2.7981    4.0296   -1.9118 C   0  0  0  0  0  0  0  0  0  0  0  0
    3.2294   -0.9309    0.0486 H   0  0  0  0  0  0  0  0  0  0  0  0
    2.2338   -0.3181   -1.2734 H   0  0  0  0  0  0  0  0  0  0  0  0
    1.6610   -1.6680   -0.2875 H   0  0  0  0  0  0  0  0  0  0  0  0
    1.4990   -0.1566    1.7002 H   0  0  0  0  0  0  0  0  0  0  0  0
    0.5055    0.4455    0.3835 H   0  0  0  0  0  0  0  0  0  0  0  0
    3.3038    1.4410    1.0808 H   0  0  0  0  0  0  0  0  0  0  0  0
    1.7844    2.2410    1.5226 H   0  0  0  0  0  0  0  0  0  0  0  0
    2.4596    4.1376    0.2164 H   0  0  0  0  0  0  0  0  0  0  0  0
    3.9524    3.3035   -0.2397 H   0  0  0  0  0  0  0  0  0  0  0  0
    1.7543    4.1869   -2.1856 H   0  0  0  0  0  0  0  0  0  0  0  0
    3.2472    3.3545   -2.6411 H   0  0  0  0  0  0  0  0  0  0  0  0
    3.3178    4.9878   -1.9600 H   0  0  0  0  0  0  0  0  0  0  0  0
  1  2  1  0
  1  7  1  0
  1  8  1  0
  1  9  1  0
  2  3  1  0
  2 10  1  0
  2 11  1  0
  3  4  1  0
  3 12  1  0
  3 13  1  0
  4  5  1  0
  5  6  1  0
  5 14  1  0
  5 15  1  0
  6 16  1  0
  6 17  1  0
  6 18  1  0
M  END
>  <reaction>  (3) 
rmg_rxn_272

>  <mol_properties>  (3) 
{"0": {"label": "a_hydrogen", "atom_type": "H0"}, "2": {"label": "acceptor", "atom_type": "Cs"}}

>  <type>  (3) 
r2h

$$$$

     RDKit          3D

 26 24  0  0  0  0  0  0  0  0999 V2000
   -0.5189   -0.4165   -3.6331 C   0  0  0  0  0  0  0  0  0  0  0  0
   -0.4058    0.3157   -2.3018 C   0  0  0  0  0  0  0  0  0  0  0  0
   -1.6603    0.4057   -1.6267 N   0  0  0  0  0  2  0  0  0  0  0  0
   -1.2374    0.0821   -4.2844 H   0  0  0  0  0  0  0  0  0  0  0  0
    0.4475   -0.4472   -4.1398 H   0  0  0  0  0  0  0  0  0  0  0  0
   -0.8582   -1.4413   -3.4773 H   0  0  0  0  0  0  0  0  0  0  0  0
   -0.0324    1.3402   -2.4678 H   0  0  0  0  0  0  0  0  0  0  0  0
    0.3494   -0.1606   -1.6569 H   0  0  0  0  0  0  0  0  0  0  0  0
   -1.3569    0.7828   -0.4758 H   0  0  0  0  0  0  0  0  0  0  0  0
   -0.2180    2.5043    0.5607 C   0  0  0  0  0  0  0  0  0  0  0  0
   -0.7759    1.1242    0.7201 C   0  0  0  0  0  3  0  0  0  0  0  0
    0.2119    0.2012    0.9707 O   0  0  0  0  0  0  0  0  0  0  0  0
   -0.2647   -1.1073    1.2259 C   0  0  0  0  0  0  0  0  0  0  0  0
    0.9138   -2.0263    1.4644 C   0  0  0  0  0  0  0  0  0  0  0  0
    1.7352   -1.6463    2.6891 C   0  0  0  0  0  0  0  0  0  0  0  0
    0.5493    2.5187   -0.2154 H   0  0  0  0  0  0  0  0  0  0  0  0
   -1.0105    3.1983    0.2790 H   0  0  0  0  0  0  0  0  0  0  0  0
    0.2370    2.8576    1.4907 H   0  0  0  0  0  0  0  0  0  0  0  0
   -1.6239    1.0405    1.4106 H   0  0  0  0  0  0  0  0  0  0  0  0
   -0.9237   -1.0885    2.1052 H   0  0  0  0  0  0  0  0  0  0  0  0
   -0.8593   -1.4514    0.3712 H   0  0  0  0  0  0  0  0  0  0  0  0
    0.5257   -3.0427    1.5715 H   0  0  0  0  0  0  0  0  0  0  0  0
    1.5451   -2.0226    0.5718 H   0  0  0  0  0  0  0  0  0  0  0  0
    1.1215   -1.6711    3.5929 H   0  0  0  0  0  0  0  0  0  0  0  0
    2.5681   -2.3361    2.8312 H   0  0  0  0  0  0  0  0  0  0  0  0
    2.1412   -0.6398    2.5871 H   0  0  0  0  0  0  0  0  0  0  0  0
  1  2  1  0
  1  4  1  0
  1  5  1  0
  1  6  1  0
  2  3  1  0
  2  7  1  0
  2  8  1  0
  3  9  1  0
 10 11  1  0
 10 16  1  0
 10 17  1  0
 10 18  1  0
 11 12  1  0
 11 19  1  0
 12 13  1  0
 13 14  1  0
 13 20  1  0
 13 21  1  0
 14 15  1  0
 14 22  1  0
 14 23  1  0
 15 24  1  0
 15 25  1  0
 15 26  1  0
M  RAD  2   3   2  11   2
M  END
>  <reaction>  (4) 
rmg_rxn_272

>  <mol_properties>  (4) 
{"1": {"label": "*0", "atom_type": "Cs"}, "2": {"label": "*1", "atom_type": "N3s"}, "8": {"label": "*2", "atom_type": "H0"}, "10": {"label": "*3", "atom_type": "Cs"}, "11": {"label": "*4", "atom_type": "O2s"}}

>  <type>  (4) 
ts

$$$$

     RDKit          3D

 26 24  0  0  0  0  0  0  0  0999 V2000
   -0.9542   -1.2199   -4.0511 C   0  0  0  0  0  0  0  0  0  0  0  0
   -0.9542   -1.2199   -2.5331 C   0  0  0  0  0  0  0  0  0  0  0  0
   -0.9542    0.1076   -1.9933 N   0  0  0  0  0  2  0  0  0  0  0  0
   -0.0720   -0.7035   -4.4311 H   0  0  0  0  0  0  0  0  0  0  0  0
   -0.9542   -2.2388   -4.4421 H   0  0  0  0  0  0  0  0  0  0  0  0
   -1.8364   -0.7034   -4.4311 H   0  0  0  0  0  0  0  0  0  0  0  0
   -0.0820   -1.7736   -2.1491 H   0  0  0  0  0  0  0  0  0  0  0  0
   -1.8264   -1.7736   -2.1491 H   0  0  0  0  0  0  0  0  0  0  0  0
   -0.9542    0.0041   -0.7701 H   0  0  0  0  0  0  0  0  0  0  0  0
   -2.0046    0.9472    0.2837 C   0  0  0  0  0  0  0  0  0  0  0  0
   -0.9542   -0.1072    0.5454 C   0  0  0  0  0  3  0  0  0  0  0  0
    0.1895    0.5103    1.0784 O   0  0  0  0  0  0  0  0  0  0  0  0
    1.2296   -0.3922    1.3585 C   0  0  0  0  0  0  0  0  0  0  0  0
    2.3977    0.3598    1.9629 C   0  0  0  0  0  0  0  0  0  0  0  0
    2.0642    1.0102    3.2989 C   0  0  0  0  0  0  0  0  0  0  0  0
   -1.6333    1.6889   -0.4244 H   0  0  0  0  0  0  0  0  0  0  0  0
   -2.9038    0.4900   -0.1321 H   0  0  0  0  0  0  0  0  0  0  0  0
   -2.2716    1.4585    1.2092 H   0  0  0  0  0  0  0  0  0  0  0  0
   -1.3345   -0.8625    1.2489 H   0  0  0  0  0  0  0  0  0  0  0  0
    0.8760   -1.1663    2.0579 H   0  0  0  0  0  0  0  0  0  0  0  0
    1.5415   -0.9032    0.4358 H   0  0  0  0  0  0  0  0  0  0  0  0
    3.2250   -0.3450    2.0837 H   0  0  0  0  0  0  0  0  0  0  0  0
    2.7293    1.1180    1.2488 H   0  0  0  0  0  0  0  0  0  0  0  0
    1.7537    0.2602    4.0306 H   0  0  0  0  0  0  0  0  0  0  0  0
    2.9285    1.5370    3.7058 H   0  0  0  0  0  0  0  0  0  0  0  0
    1.2500    1.7262    3.1871 H   0  0  0  0  0  0  0  0  0  0  0  0
  1  2  1  0
  1  4  1  0
  1  5  1  0
  1  6  1  0
  2  3  1  0
  2  7  1  0
  2  8  1  0
  3  9  1  0
 10 11  1  0
 10 16  1  0
 10 17  1  0
 10 18  1  0
 11 12  1  0
 11 19  1  0
 12 13  1  0
 13 14  1  0
 13 20  1  0
 13 21  1  0
 14 15  1  0
 14 22  1  0
 14 23  1  0
 15 24  1  0
 15 25  1  0
 15 26  1  0
M  RAD  2   3   2  11   2
M  END
>  <reaction>  (5) 
rmg_rxn_272

>  <mol_properties>  (5) 
{"1": {"label": "*0", "atom_type": "Cs"}, "2": {"label": "*1", "atom_type": "N3s"}, "8": {"label": "*2", "atom_type": "H0"}, "10": {"label": "*3", "atom_type": "Cs"}, "11": {"label": "*4", "atom_type": "O2s"}}

>  <type>  (5) 
unop_1

>  <geom_source>  (5) 
Heuristics

$$$$

     RDKit          3D

 26 24  0  0  0  0  0  0  0  0999 V2000
   -0.3496    0.1579   -3.8753 C   0  0  0  0  0  0  0  0  0  0  0  0
   -0.3496    0.1579   -2.3573 C   0  0  0  0  0  0  0  0  0  0  0  0
   -0.3496    1.4855   -1.8175 N   0  0  0  0  0  2  0  0  0  0  0  0
    0.5326    0.6744   -4.2553 H   0  0  0  0  0  0  0  0  0  0  0  0
   -0.3496   -0.8610   -4.2663 H   0  0  0  0  0  0  0  0  0  0  0  0
   -1.2318    0.6744   -4.2553 H   0  0  0  0  0  0  0  0  0  0  0  0
    0.5226   -0.3958   -1.9734 H   0  0  0  0  0  0  0  0  0  0  0  0
   -1.2218   -0.3958   -1.9734 H   0  0  0  0  0  0  0  0  0  0  0  0
   -0.3496    1.3820   -0.5943 H   0  0  0  0  0  0  0  0  0  0  0  0
    0.5695    2.4462    0.9593 C   0  0  0  0  0  0  0  0  0  0  0  0
   -0.3496    1.2706    0.7212 C   0  0  0  0  0  3  0  0  0  0  0  0
    0.3107    0.0906    1.1021 O   0  0  0  0  0  0  0  0  0  0  0  0
   -0.4664   -1.0658    0.9186 C   0  0  0  0  0  0  0  0  0  0  0  0
    0.3136   -2.2752    1.3921 C   0  0  0  0  0  0  0  0  0  0  0  0
    0.6281   -2.2390    2.8817 C   0  0  0  0  0  0  0  0  0  0  0  0
    1.4839    2.3410    0.3745 H   0  0  0  0  0  0  0  0  0  0  0  0
    0.0772    3.3758    0.6695 H   0  0  0  0  0  0  0  0  0  0  0  0
    0.8410    2.5116    2.0136 H   0  0  0  0  0  0  0  0  0  0  0  0
   -1.2776    1.3845    1.3007 H   0  0  0  0  0  0  0  0  0  0  0  0
   -1.4079   -0.9783    1.4837 H   0  0  0  0  0  0  0  0  0  0  0  0
   -0.7315   -1.1750   -0.1433 H   0  0  0  0  0  0  0  0  0  0  0  0
   -0.2716   -3.1675    1.1527 H   0  0  0  0  0  0  0  0  0  0  0  0
    1.2393   -2.3392    0.8145 H   0  0  0  0  0  0  0  0  0  0  0  0
   -0.2901   -2.1991    3.4730 H   0  0  0  0  0  0  0  0  0  0  0  0
    1.1846   -3.1262    3.1873 H   0  0  0  0  0  0  0  0  0  0  0  0
    1.2243   -1.3606    3.1292 H   0  0  0  0  0  0  0  0  0  0  0  0
  1  2  1  0
  1  4  1  0
  1  5  1  0
  1  6  1  0
  2  3  1  0
  2  7  1  0
  2  8  1  0
  3  9  1  0
 10 11  1  0
 10 16  1  0
 10 17  1  0
 10 18  1  0
 11 12  1  0
 11 19  1  0
 12 13  1  0
 13 14  1  0
 13 20  1  0
 13 21  1  0
 14 15  1  0
 14 22  1  0
 14 23  1  0
 15 24  1  0
 15 25  1  0
 15 26  1  0
M  RAD  2   3   2  11   2
M  END
>  <reaction>  (6) 
rmg_rxn_272

>  <mol_properties>  (6) 
{"1": {"label": "*0", "atom_type": "Cs"}, "2": {"label": "*1", "atom_type": "N3s"}, "8": {"label": "*2", "atom_type": "H0"}, "10": {"label": "*3", "atom_type": "Cs"}, "11": {"label": "*4", "atom_type": "O2s"}}

>  <type>  (6) 
unop_2

>  <geom_source>  (6) 
Heuristics

$$$$

     RDKit          3D

 26 24  0  0  0  0  0  0  0  0999 V2000
   -0.6661   -1.6390   -4.0575 C   0  0  0  0  0  0  0  0  0  0  0  0
   -0.6661   -1.6390   -2.5396 C   0  0  0  0  0  0  0  0  0  0  0  0
   -0.6661   -0.3114   -1.9998 N   0  0  0  0  0  2  0  0  0  0  0  0
    0.2161   -1.1225   -4.4376 H   0  0  0  0  0  0  0  0  0  0  0  0
   -0.6661   -2.6578   -4.4486 H   0  0  0  0  0  0  0  0  0  0  0  0
   -1.5483   -1.1225   -4.4376 H   0  0  0  0  0  0  0  0  0  0  0  0
    0.2061   -2.1927   -2.1556 H   0  0  0  0  0  0  0  0  0  0  0  0
   -1.5383   -2.1927   -2.1556 H   0  0  0  0  0  0  0  0  0  0  0  0
   -0.6661   -0.4149   -0.7766 H   0  0  0  0  0  0  0  0  0  0  0  0
   -2.1466   -0.2303    0.4737 C   0  0  0  0  0  0  0  0  0  0  0  0
   -0.6661   -0.5263    0.5389 C   0  0  0  0  0  3  0  0  0  0  0  0
   -0.0058    0.5729    1.1127 O   0  0  0  0  0  0  0  0  0  0  0  0
    1.3840    0.3938    1.2186 C   0  0  0  0  0  0  0  0  0  0  0  0
    1.9979    1.6099    1.8816 C   0  0  0  0  0  0  0  0  0  0  0  0
    1.5136    1.8214    3.3099 C   0  0  0  0  0  0  0  0  0  0  0  0
   -2.3325    0.6572   -0.1320 H   0  0  0  0  0  0  0  0  0  0  0  0
   -2.6811   -1.0717    0.0300 H   0  0  0  0  0  0  0  0  0  0  0  0
   -2.5454   -0.0544    1.4734 H   0  0  0  0  0  0  0  0  0  0  0  0
   -0.4806   -1.4296    1.1385 H   0  0  0  0  0  0  0  0  0  0  0  0
    1.6015   -0.5095    1.8104 H   0  0  0  0  0  0  0  0  0  0  0  0
    1.8200    0.2431    0.2201 H   0  0  0  0  0  0  0  0  0  0  0  0
    3.0846    1.4881    1.8669 H   0  0  0  0  0  0  0  0  0  0  0  0
    1.7694    2.4891    1.2737 H   0  0  0  0  0  0  0  0  0  0  0  0
    1.7570    0.9591    3.9356 H   0  0  0  0  0  0  0  0  0  0  0  0
    1.9798    2.7010    3.7563 H   0  0  0  0  0  0  0  0  0  0  0  0
    0.4326    1.9588    3.3346 H   0  0  0  0  0  0  0  0  0  0  0  0
  1  2  1  0
  1  4  1  0
  1  5  1  0
  1  6  1  0
  2  3  1  0
  2  7  1  0
  2  8  1  0
  3  9  1  0
 10 11  1  0
 10 16  1  0
 10 17  1  0
 10 18  1  0
 11 12  1  0
 11 19  1  0
 12 13  1  0
 13 14  1  0
 13 20  1  0
 13 21  1  0
 14 15  1  0
 14 22  1  0
 14 23  1  0
 15 24  1  0
 15 25  1  0
 15 26  1  0
M  RAD  2   3   2  11   2
M  END
>  <reaction>  (7) 
rmg_rxn_272

>  <mol_properties>  (7) 
{"1": {"label": "*0", "atom_type": "Cs"}, "2": {"label": "*1", "atom_type": "N3s"}, "8": {"label": "*2", "atom_type": "H0"}, "10": {"label": "*3", "atom_type": "Cs"}, "11": {"label": "*4", "atom_type": "O2s"}}

>  <type>  (7) 
unop_3

>  <geom_source>  (7) 
Heuristics

$$$$

     RDKit          3D

 26 24  0  0  0  0  0  0  0  0999 V2000
    1.0681   -0.4919   -3.7488 C   0  0  0  0  0  0  0  0  0  0  0  0
    1.0681   -0.4919   -2.2309 C   0  0  0  0  0  0  0  0  0  0  0  0
    1.0681    0.8357   -1.6911 N   0  0  0  0  0  2  0  0  0  0  0  0
    1.9504    0.0246   -4.1289 H   0  0  0  0  0  0  0  0  0  0  0  0
    1.0681   -1.5108   -4.1399 H   0  0  0  0  0  0  0  0  0  0  0  0
    0.1859    0.0246   -4.1289 H   0  0  0  0  0  0  0  0  0  0  0  0
    1.9404   -1.0456   -1.8469 H   0  0  0  0  0  0  0  0  0  0  0  0
    0.1959   -1.0456   -1.8469 H   0  0  0  0  0  0  0  0  0  0  0  0
    1.0681    0.7322   -0.4679 H   0  0  0  0  0  0  0  0  0  0  0  0
    2.1706    0.4144    1.8603 C   0  0  0  0  0  0  0  0  0  0  0  0
    1.0681    0.6208    0.8476 C   0  0  0  0  0  3  0  0  0  0  0  0
   -0.0755   -0.0775    1.2693 O   0  0  0  0  0  0  0  0  0  0  0  0
   -1.1634    0.0534    0.3892 C   0  0  0  0  0  0  0  0  0  0  0  0
   -2.3541   -0.6986    0.9475 C   0  0  0  0  0  0  0  0  0  0  0  0
   -2.8465   -0.1390    2.2756 C   0  0  0  0  0  0  0  0  0  0  0  0
    2.4103   -0.6454    1.9535 H   0  0  0  0  0  0  0  0  0  0  0  0
    3.0712    0.9483    1.5529 H   0  0  0  0  0  0  0  0  0  0  0  0
    1.8646    0.7853    2.8392 H   0  0  0  0  0  0  0  0  0  0  0  0
    0.8366    1.6912    0.7440 H   0  0  0  0  0  0  0  0  0  0  0  0
   -1.4152    1.1180    0.2605 H   0  0  0  0  0  0  0  0  0  0  0  0
   -0.8938   -0.3408   -0.6016 H   0  0  0  0  0  0  0  0  0  0  0  0
   -3.1546   -0.6609    0.2034 H   0  0  0  0  0  0  0  0  0  0  0  0
   -2.0779   -1.7499    1.0626 H   0  0  0  0  0  0  0  0  0  0  0  0
   -3.1491    0.9058    2.1699 H   0  0  0  0  0  0  0  0  0  0  0  0
   -3.7062   -0.7008    2.6438 H   0  0  0  0  0  0  0  0  0  0  0  0
   -2.0606   -0.1856    3.0293 H   0  0  0  0  0  0  0  0  0  0  0  0
  1  2  1  0
  1  4  1  0
  1  5  1  0
  1  6  1  0
  2  3  1  0
  2  7  1  0
  2  8  1  0
  3  9  1  0
 10 11  1  0
 10 16  1  0
 10 17  1  0
 10 18  1  0
 11 12  1  0
 11 19  1  0
 12 13  1  0
 13 14  1  0
 13 20  1  0
 13 21  1  0
 14 15  1  0
 14 22  1  0
 14 23  1  0
 15 24  1  0
 15 25  1  0
 15 26  1  0
M  RAD  2   3   2  11   2
M  END
>  <reaction>  (8) 
rmg_rxn_272

>  <mol_properties>  (8) 
{"1": {"label": "*0", "atom_type": "Cs"}, "2": {"label": "*1", "atom_type": "N3s"}, "8": {"label": "*2", "atom_type": "H0"}, "10": {"label": "*3", "atom_type": "Cs"}, "11": {"label": "*4", "atom_type": "O2s"}}

>  <type>  (8) 
unop_4

>  <geom_source>  (8) 
Heuristics

$$$$

     RDKit          3D

 26 24  0  0  0  0  0  0  0  0999 V2000
   -0.2248   -1.9048   -3.9866 C   0  0  0  0  0  0  0  0  0  0  0  0
   -0.2248   -1.9048   -2.4687 C   0  0  0  0  0  0  0  0  0  0  0  0
   -0.2248   -0.5773   -1.9289 N   0  0  0  0  0  2  0  0  0  0  0  0
    0.6574   -1.3883   -4.3667 H   0  0  0  0  0  0  0  0  0  0  0  0
   -0.2248   -2.9237   -4.3777 H   0  0  0  0  0  0  0  0  0  0  0  0
   -1.1070   -1.3883   -4.3667 H   0  0  0  0  0  0  0  0  0  0  0  0
    0.6474   -2.4585   -2.0847 H   0  0  0  0  0  0  0  0  0  0  0  0
   -1.0970   -2.4585   -2.0847 H   0  0  0  0  0  0  0  0  0  0  0  0
   -0.2248   -0.6808   -0.7057 H   0  0  0  0  0  0  0  0  0  0  0  0
   -1.4476   -1.5479    1.0757 C   0  0  0  0  0  0  0  0  0  0  0  0
   -0.2248   -0.7921    0.6098 C   0  0  0  0  0  3  0  0  0  0  0  0
   -0.2248    0.4834    1.1985 O   0  0  0  0  0  0  0  0  0  0  0  0
    0.8799    1.2681    0.8259 C   0  0  0  0  0  0  0  0  0  0  0  0
    0.8108    2.6030    1.5390 C   0  0  0  0  0  0  0  0  0  0  0  0
    0.9039    2.4779    3.0539 C   0  0  0  0  0  0  0  0  0  0  0  0
   -2.3566   -1.0188    0.7876 H   0  0  0  0  0  0  0  0  0  0  0  0
   -1.4694   -2.5435    0.6299 H   0  0  0  0  0  0  0  0  0  0  0  0
   -1.4406   -1.6540    2.1611 H   0  0  0  0  0  0  0  0  0  0  0  0
    0.6913   -1.3335    0.8886 H   0  0  0  0  0  0  0  0  0  0  0  0
    1.8147    0.7477    1.0877 H   0  0  0  0  0  0  0  0  0  0  0  0
    0.8832    1.4177   -0.2638 H   0  0  0  0  0  0  0  0  0  0  0  0
    1.6253    3.2279    1.1623 H   0  0  0  0  0  0  0  0  0  0  0  0
   -0.1231    3.0977    1.2600 H   0  0  0  0  0  0  0  0  0  0  0  0
    1.8446    2.0061    3.3488 H   0  0  0  0  0  0  0  0  0  0  0  0
    0.8563    3.4572    3.5325 H   0  0  0  0  0  0  0  0  0  0  0  0
    0.0876    1.8687    3.4419 H   0  0  0  0  0  0  0  0  0  0  0  0
  1  2  1  0
  1  4  1  0
  1  5  1  0
  1  6  1  0
  2  3  1  0
  2  7  1  0
  2  8  1  0
  3  9  1  0
 10 11  1  0
 10 16  1  0
 10 17  1  0
 10 18  1  0
 11 12  1  0
 11 19  1  0
 12 13  1  0
 13 14  1  0
 13 20  1  0
 13 21  1  0
 14 15  1  0
 14 22  1  0
 14 23  1  0
 15 24  1  0
 15 25  1  0
 15 26  1  0
M  RAD  2   3   2  11   2
M  END
>  <reaction>  (9) 
rmg_rxn_272

>  <mol_properties>  (9) 
{"1": {"label": "*0", "atom_type": "Cs"}, "2": {"label": "*1", "atom_type": "N3s"}, "8": {"label": "*2", "atom_type": "H0"}, "10": {"label": "*3", "atom_type": "Cs"}, "11": {"label": "*4", "atom_type": "O2s"}}

>  <type>  (9) 
unop_5

>  <geom_source>  (9) 
Heuristics

$$$$

     RDKit          3D

 26 24  0  0  0  0  0  0  0  0999 V2000
    1.1163   -1.0637   -3.7714 C   0  0  0  0  0  0  0  0  0  0  0  0
    1.1163   -1.0637   -2.2535 C   0  0  0  0  0  0  0  0  0  0  0  0
    1.1163    0.2638   -1.7137 N   0  0  0  0  0  2  0  0  0  0  0  0
    1.9985   -0.5472   -4.1515 H   0  0  0  0  0  0  0  0  0  0  0  0
    1.1163   -2.0826   -4.1625 H   0  0  0  0  0  0  0  0  0  0  0  0
    0.2340   -0.5472   -4.1515 H   0  0  0  0  0  0  0  0  0  0  0  0
    1.9885   -1.6174   -1.8695 H   0  0  0  0  0  0  0  0  0  0  0  0
    0.2440   -1.6174   -1.8695 H   0  0  0  0  0  0  0  0  0  0  0  0
    1.1163    0.1603   -0.4905 H   0  0  0  0  0  0  0  0  0  0  0  0
    2.0358   -0.5296    1.8753 C   0  0  0  0  0  0  0  0  0  0  0  0
    1.1163    0.0490    0.8250 C   0  0  0  0  0  3  0  0  0  0  0  0
   -0.2044    0.0086    1.3024 O   0  0  0  0  0  0  0  0  0  0  0  0
   -1.1409    0.5287    0.3928 C   0  0  0  0  0  0  0  0  0  0  0  0
   -2.5230    0.4778    1.0111 C   0  0  0  0  0  0  0  0  0  0  0  0
   -2.6539    1.3442    2.2566 C   0  0  0  0  0  0  0  0  0  0  0  0
    1.7639   -1.5629    2.0939 H   0  0  0  0  0  0  0  0  0  0  0  0
    3.0692   -0.5092    1.5257 H   0  0  0  0  0  0  0  0  0  0  0  0
    1.9708    0.0461    2.7992 H   0  0  0  0  0  0  0  0  0  0  0  0
    1.3999    1.0866    0.5950 H   0  0  0  0  0  0  0  0  0  0  0  0
   -0.8788    1.5678    0.1380 H   0  0  0  0  0  0  0  0  0  0  0  0
   -1.1194   -0.0522   -0.5410 H   0  0  0  0  0  0  0  0  0  0  0  0
   -3.2427    0.7982    0.2526 H   0  0  0  0  0  0  0  0  0  0  0  0
   -2.7579   -0.5624    1.2512 H   0  0  0  0  0  0  0  0  0  0  0  0
   -2.4450    2.3919    2.0262 H   0  0  0  0  0  0  0  0  0  0  0  0
   -3.6616    1.2872    2.6706 H   0  0  0  0  0  0  0  0  0  0  0  0
   -1.9508    1.0238    3.0254 H   0  0  0  0  0  0  0  0  0  0  0  0
  1  2  1  0
  1  4  1  0
  1  5  1  0
  1  6  1  0
  2  3  1  0
  2  7  1  0
  2  8  1  0
  3  9  1  0
 10 11  1  0
 10 16  1  0
 10 17  1  0
 10 18  1  0
 11 12  1  0
 11 19  1  0
 12 13  1  0
 13 14  1  0
 13 20  1  0
 13 21  1  0
 14 15  1  0
 14 22  1  0
 14 23  1  0
 15 24  1  0
 15 25  1  0
 15 26  1  0
M  RAD  2   3   2  11   2
M  END
>  <reaction>  (10) 
rmg_rxn_272

>  <mol_properties>  (10) 
{"1": {"label": "*0", "atom_type": "Cs"}, "2": {"label": "*1", "atom_type": "N3s"}, "8": {"label": "*2", "atom_type": "H0"}, "10": {"label": "*3", "atom_type": "Cs"}, "11": {"label": "*4", "atom_type": "O2s"}}

>  <type>  (10) 
unop_6

>  <geom_source>  (10) 
Heuristics

$$$$

     RDKit          3D

 26 24  0  0  0  0  0  0  0  0999 V2000
    0.8629   -1.5920   -3.8158 C   0  0  0  0  0  0  0  0  0  0  0  0
    0.8629   -1.5920   -2.2978 C   0  0  0  0  0  0  0  0  0  0  0  0
    0.8629   -0.2645   -1.7580 N   0  0  0  0  0  2  0  0  0  0  0  0
    1.7452   -1.0756   -4.1958 H   0  0  0  0  0  0  0  0  0  0  0  0
    0.8629   -2.6109   -4.2068 H   0  0  0  0  0  0  0  0  0  0  0  0
   -0.0193   -1.0756   -4.1958 H   0  0  0  0  0  0  0  0  0  0  0  0
    1.7352   -2.1457   -1.9139 H   0  0  0  0  0  0  0  0  0  0  0  0
   -0.0093   -2.1457   -1.9139 H   0  0  0  0  0  0  0  0  0  0  0  0
    0.8629   -0.3680   -0.5348 H   0  0  0  0  0  0  0  0  0  0  0  0
    1.4169   -1.4490    1.7987 C   0  0  0  0  0  0  0  0  0  0  0  0
    0.8629   -0.4793    0.7806 C   0  0  0  0  0  3  0  0  0  0  0  0
   -0.2807    0.1382    1.3137 O   0  0  0  0  0  0  0  0  0  0  0  0
   -0.8725    1.0641    0.4377 C   0  0  0  0  0  0  0  0  0  0  0  0
   -2.0686    1.7019    1.1143 C   0  0  0  0  0  0  0  0  0  0  0  0
   -1.6972    2.5065    2.3528 C   0  0  0  0  0  0  0  0  0  0  0  0
    0.6767   -2.2119    2.0421 H   0  0  0  0  0  0  0  0  0  0  0  0
    2.3074   -1.9421    1.4057 H   0  0  0  0  0  0  0  0  0  0  0  0
    1.6868   -0.9261    2.7170 H   0  0  0  0  0  0  0  0  0  0  0  0
    1.6151    0.2816    0.5254 H   0  0  0  0  0  0  0  0  0  0  0  0
   -0.1393    1.8375    0.1586 H   0  0  0  0  0  0  0  0  0  0  0  0
   -1.1830    0.5587   -0.4886 H   0  0  0  0  0  0  0  0  0  0  0  0
   -2.5653    2.3452    0.3826 H   0  0  0  0  0  0  0  0  0  0  0  0
   -2.7793    0.9143    1.3776 H   0  0  0  0  0  0  0  0  0  0  0  0
   -1.0049    3.3134    2.1001 H   0  0  0  0  0  0  0  0  0  0  0  0
   -2.5809    2.9545    2.8096 H   0  0  0  0  0  0  0  0  0  0  0  0
   -1.2144    1.8712    3.0954 H   0  0  0  0  0  0  0  0  0  0  0  0
  1  2  1  0
  1  4  1  0
  1  5  1  0
  1  6  1  0
  2  3  1  0
  2  7  1  0
  2  8  1  0
  3  9  1  0
 10 11  1  0
 10 16  1  0
 10 17  1  0
 10 18  1  0
 11 12  1  0
 11 19  1  0
 12 13  1  0
 13 14  1  0
 13 20  1  0
 13 21  1  0
 14 15  1  0
 14 22  1  0
 14 23  1  0
 15 24  1  0
 15 25  1  0
 15 26  1  0
M  RAD  2   3   2  11   2
M  END
>  <reaction>  (11) 
rmg_rxn_272

>  <mol_properties>  (11) 
{"1": {"label": "*0", "atom_type": "Cs"}, "2": {"label": "*1", "atom_type": "N3s"}, "8": {"label": "*2", "atom_type": "H0"}, "10": {"label": "*3", "atom_type": "Cs"}, "11": {"label": "*4", "atom_type": "O2s"}}

>  <type>  (11) 
unop_7

>  <geom_source>  (11) 
Heuristics

$$$$

     RDKit          3D

 26 24  0  0  0  0  0  0  0  0999 V2000
   -1.0200   -0.6925   -4.0062 C   0  0  0  0  0  0  0  0  0  0  0  0
   -1.0200   -0.6925   -2.4882 C   0  0  0  0  0  0  0  0  0  0  0  0
   -1.0200    0.6351   -1.9484 N   0  0  0  0  0  2  0  0  0  0  0  0
   -0.1378   -0.1760   -4.3862 H   0  0  0  0  0  0  0  0  0  0  0  0
   -1.0200   -1.7114   -4.3972 H   0  0  0  0  0  0  0  0  0  0  0  0
   -1.9023   -0.1760   -4.3862 H   0  0  0  0  0  0  0  0  0  0  0  0
   -0.1478   -1.2462   -2.1042 H   0  0  0  0  0  0  0  0  0  0  0  0
   -1.8923   -1.2462   -2.1042 H   0  0  0  0  0  0  0  0  0  0  0  0
   -1.0200    0.5315   -0.7252 H   0  0  0  0  0  0  0  0  0  0  0  0
   -1.4163    1.8607    0.3638 C   0  0  0  0  0  0  0  0  0  0  0  0
   -1.0200    0.4202    0.5903 C   0  0  0  0  0  3  0  0  0  0  0  0
    0.3006    0.3798    1.0676 O   0  0  0  0  0  0  0  0  0  0  0  0
    0.7644   -0.9242    1.3114 C   0  0  0  0  0  0  0  0  0  0  0  0
    2.1761   -0.8611    1.8577 C   0  0  0  0  0  0  0  0  0  0  0  0
    2.2670   -0.1484    3.2004 C   0  0  0  0  0  0  0  0  0  0  0  0
   -0.7554    2.3286   -0.3666 H   0  0  0  0  0  0  0  0  0  0  0  0
   -2.4404    1.9171   -0.0084 H   0  0  0  0  0  0  0  0  0  0  0  0
   -1.3543    2.4250    1.2950 H   0  0  0  0  0  0  0  0  0  0  0  0
   -1.6958   -0.0549    1.3167 H   0  0  0  0  0  0  0  0  0  0  0  0
    0.1022   -1.4288    2.0328 H   0  0  0  0  0  0  0  0  0  0  0  0
    0.7414   -1.5106    0.3811 H   0  0  0  0  0  0  0  0  0  0  0  0
    2.5471   -1.8856    1.9495 H   0  0  0  0  0  0  0  0  0  0  0  0
    2.8106   -0.3591    1.1227 H   0  0  0  0  0  0  0  0  0  0  0  0
    1.6556   -0.6540    3.9521 H   0  0  0  0  0  0  0  0  0  0  0  0
    3.2952   -0.1269    3.5647 H   0  0  0  0  0  0  0  0  0  0  0  0
    1.9133    0.8792    3.1169 H   0  0  0  0  0  0  0  0  0  0  0  0
  1  2  1  0
  1  4  1  0
  1  5  1  0
  1  6  1  0
  2  3  1  0
  2  7  1  0
  2  8  1  0
  3  9  1  0
 10 11  1  0
 10 16  1  0
 10 17  1  0
 10 18  1  0
 11 12  1  0
 11 19  1  0
 12 13  1  0
 13 14  1  0
 13 20  1  0
 13 21  1  0
 14 15  1  0
 14 22  1  0
 14 23  1  0
 15 24  1  0
 15 25  1  0
 15 26  1  0
M  RAD  2   3   2  11   2
M  END
>  <reaction>  (12) 
rmg_rxn_272

>  <mol_properties>  (12) 
{"1": {"label": "*0", "atom_type": "Cs"}, "2": {"label": "*1", "atom_type": "N3s"}, "8": {"label": "*2", "atom_type": "H0"}, "10": {"label": "*3", "atom_type": "Cs"}, "11": {"label": "*4", "atom_type": "O2s"}}

>  <type>  (12) 
unop_8

>  <geom_source>  (12) 
Heuristics

$$$$

     RDKit          3D

 26 24  0  0  0  0  0  0  0  0999 V2000
    0.7436   -0.0252   -3.7595 C   0  0  0  0  0  0  0  0  0  0  0  0
    0.7436   -0.0252   -2.2415 C   0  0  0  0  0  0  0  0  0  0  0  0
    0.7436    1.3024   -1.7017 N   0  0  0  0  0  2  0  0  0  0  0  0
    1.6258    0.4913   -4.1395 H   0  0  0  0  0  0  0  0  0  0  0  0
    0.7436   -1.0440   -4.1506 H   0  0  0  0  0  0  0  0  0  0  0  0
   -0.1386    0.4913   -4.1395 H   0  0  0  0  0  0  0  0  0  0  0  0
    1.6158   -0.5789   -1.8576 H   0  0  0  0  0  0  0  0  0  0  0  0
   -0.1287   -0.5789   -1.8576 H   0  0  0  0  0  0  0  0  0  0  0  0
    0.7436    1.1989   -0.4785 H   0  0  0  0  0  0  0  0  0  0  0  0
    1.9675    1.2672    1.7048 C   0  0  0  0  0  0  0  0  0  0  0  0
    0.7436    1.0875    0.8369 C   0  0  0  0  0  3  0  0  0  0  0  0
    0.0833   -0.0925    1.2179 O   0  0  0  0  0  0  0  0  0  0  0  0
   -1.0756   -0.3492    0.4654 C   0  0  0  0  0  0  0  0  0  0  0  0
   -1.7345   -1.6149    0.9746 C   0  0  0  0  0  0  0  0  0  0  0  0
   -2.2123   -1.5027    2.4162 C   0  0  0  0  0  0  0  0  0  0  0  0
    2.6462    0.4217    1.5881 H   0  0  0  0  0  0  0  0  0  0  0  0
    2.4980    2.1791    1.4262 H   0  0  0  0  0  0  0  0  0  0  0  0
    1.6839    1.3383    2.7555 H   0  0  0  0  0  0  0  0  0  0  0  0
    0.0661    1.9475    0.9447 H   0  0  0  0  0  0  0  0  0  0  0  0
   -1.7725    0.4997    0.5492 H   0  0  0  0  0  0  0  0  0  0  0  0
   -0.8163   -0.4557   -0.5982 H   0  0  0  0  0  0  0  0  0  0  0  0
   -2.5768   -1.8438    0.3157 H   0  0  0  0  0  0  0  0  0  0  0  0
   -1.0236   -2.4395    0.8779 H   0  0  0  0  0  0  0  0  0  0  0  0
   -2.9426   -0.6967    2.5231 H   0  0  0  0  0  0  0  0  0  0  0  0
   -2.6854   -2.4288    2.7463 H   0  0  0  0  0  0  0  0  0  0  0  0
   -1.3778   -1.2893    3.0840 H   0  0  0  0  0  0  0  0  0  0  0  0
  1  2  1  0
  1  4  1  0
  1  5  1  0
  1  6  1  0
  2  3  1  0
  2  7  1  0
  2  8  1  0
  3  9  1  0
 10 11  1  0
 10 16  1  0
 10 17  1  0
 10 18  1  0
 11 12  1  0
 11 19  1  0
 12 13  1  0
 13 14  1  0
 13 20  1  0
 13 21  1  0
 14 15  1  0
 14 22  1  0
 14 23  1  0
 15 24  1  0
 15 25  1  0
 15 26  1  0
M  RAD  2   3   2  11   2
M  END
>  <reaction>  (13) 
rmg_rxn_272

>  <mol_properties>  (13) 
{"1": {"label": "*0", "atom_type": "Cs"}, "2": {"label": "*1", "atom_type": "N3s"}, "8": {"label": "*2", "atom_type": "H0"}, "10": {"label": "*3", "atom_type": "Cs"}, "11": {"label": "*4", "atom_type": "O2s"}}

>  <type>  (13) 
unop_9

>  <geom_source>  (13) 
Heuristics

$$$$

     RDKit          3D

 26 24  0  0  0  0  0  0  0  0999 V2000
   -0.8071   -0.1825   -3.9445 C   0  0  0  0  0  0  0  0  0  0  0  0
   -0.8071   -0.1825   -2.4265 C   0  0  0  0  0  0  0  0  0  0  0  0
   -0.8071    1.1451   -1.8867 N   0  0  0  0  0  2  0  0  0  0  0  0
    0.0751    0.3340   -4.3245 H   0  0  0  0  0  0  0  0  0  0  0  0
   -0.8071   -1.2014   -4.3355 H   0  0  0  0  0  0  0  0  0  0  0  0
   -1.6893    0.3340   -4.3245 H   0  0  0  0  0  0  0  0  0  0  0  0
    0.0651   -0.7362   -2.0426 H   0  0  0  0  0  0  0  0  0  0  0  0
   -1.6793   -0.7362   -2.0426 H   0  0  0  0  0  0  0  0  0  0  0  0
   -0.8071    1.0416   -0.6635 H   0  0  0  0  0  0  0  0  0  0  0  0
   -0.4895    2.4067    0.6005 C   0  0  0  0  0  0  0  0  0  0  0  0
   -0.8071    0.9302    0.6519 C   0  0  0  0  0  3  0  0  0  0  0  0
    0.3366    0.2319    1.0736 O   0  0  0  0  0  0  0  0  0  0  0  0
    0.1416   -1.1575    1.1549 C   0  0  0  0  0  0  0  0  0  0  0  0
    1.4126   -1.8145    1.6531 C   0  0  0  0  0  0  0  0  0  0  0  0
    1.7968   -1.3831    3.0622 C   0  0  0  0  0  0  0  0  0  0  0  0
    0.3263    2.5980   -0.0974 H   0  0  0  0  0  0  0  0  0  0  0  0
   -1.3648    2.9706    0.2742 H   0  0  0  0  0  0  0  0  0  0  0  0
   -0.1917    2.7680    1.5855 H   0  0  0  0  0  0  0  0  0  0  0  0
   -1.6393    0.7398    1.3456 H   0  0  0  0  0  0  0  0  0  0  0  0
   -0.6921   -1.3796    1.8397 H   0  0  0  0  0  0  0  0  0  0  0  0
   -0.1318   -1.5564    0.1670 H   0  0  0  0  0  0  0  0  0  0  0  0
    1.2672   -2.8978    1.6178 H   0  0  0  0  0  0  0  0  0  0  0  0
    2.2209   -1.5805    0.9555 H   0  0  0  0  0  0  0  0  0  0  0  0
    1.0071   -1.6329    3.7751 H   0  0  0  0  0  0  0  0  0  0  0  0
    2.7118   -1.8793    3.3890 H   0  0  0  0  0  0  0  0  0  0  0  0
    1.9588   -0.3061    3.1055 H   0  0  0  0  0  0  0  0  0  0  0  0
  1  2  1  0
  1  4  1  0
  1  5  1  0
  1  6  1  0
  2  3  1  0
  2  7  1  0
  2  8  1  0
  3  9  1  0
 10 11  1  0
 10 16  1  0
 10 17  1  0
 10 18  1  0
 11 12  1  0
 11 19  1  0
 12 13  1  0
 13 14  1  0
 13 20  1  0
 13 21  1  0
 14 15  1  0
 14 22  1  0
 14 23  1  0
 15 24  1  0
 15 25  1  0
 15 26  1  0
M  RAD  2   3   2  11   2
M  END
>  <reaction>  (14) 
rmg_rxn_272

>  <mol_properties>  (14) 
{"1": {"label": "*0", "atom_type": "Cs"}, "2": {"label": "*1", "atom_type": "N3s"}, "8": {"label": "*2", "atom_type": "H0"}, "10": {"label": "*3", "atom_type": "Cs"}, "11": {"label": "*4", "atom_type": "O2s"}}

>  <type>  (14) 
unop_10

>  <geom_source>  (14) 
Heuristics

$$$$

     RDKit          3D

 26 24  0  0  0  0  0  0  0  0999 V2000
    0.3577   -1.9155   -3.8827 C   0  0  0  0  0  0  0  0  0  0  0  0
    0.3577   -1.9155   -2.3647 C   0  0  0  0  0  0  0  0  0  0  0  0
    0.3577   -0.5879   -1.8249 N   0  0  0  0  0  2  0  0  0  0  0  0
    1.2399   -1.3990   -4.2627 H   0  0  0  0  0  0  0  0  0  0  0  0
    0.3577   -2.9344   -4.2738 H   0  0  0  0  0  0  0  0  0  0  0  0
   -0.5245   -1.3990   -4.2627 H   0  0  0  0  0  0  0  0  0  0  0  0
    1.2299   -2.4692   -1.9808 H   0  0  0  0  0  0  0  0  0  0  0  0
   -0.5145   -2.4692   -1.9808 H   0  0  0  0  0  0  0  0  0  0  0  0
    0.3577   -0.6915   -0.6017 H   0  0  0  0  0  0  0  0  0  0  0  0
    0.1607   -2.0111    1.5997 C   0  0  0  0  0  0  0  0  0  0  0  0
    0.3577   -0.8028    0.7137 C   0  0  0  0  0  3  0  0  0  0  0  0
   -0.3026    0.2964    1.2876 O   0  0  0  0  0  0  0  0  0  0  0  0
   -0.1771    1.4761    0.5342 C   0  0  0  0  0  0  0  0  0  0  0  0
   -0.8856    2.6072    1.2510 C   0  0  0  0  0  0  0  0  0  0  0  0
   -0.2736    2.9334    2.6068 C   0  0  0  0  0  0  0  0  0  0  0  0
   -0.9003   -2.2417    1.7010 H   0  0  0  0  0  0  0  0  0  0  0  0
    0.6654   -2.8792    1.1729 H   0  0  0  0  0  0  0  0  0  0  0  0
    0.5691   -1.8265    2.5939 H   0  0  0  0  0  0  0  0  0  0  0  0
    1.4289   -0.5793    0.6009 H   0  0  0  0  0  0  0  0  0  0  0  0
    0.8880    1.7228    0.3989 H   0  0  0  0  0  0  0  0  0  0  0  0
   -0.6084    1.3296   -0.4669 H   0  0  0  0  0  0  0  0  0  0  0  0
   -0.8550    3.4874    0.6028 H   0  0  0  0  0  0  0  0  0  0  0  0
   -1.9383    2.3377    1.3695 H   0  0  0  0  0  0  0  0  0  0  0  0
    0.7735    3.2281    2.5008 H   0  0  0  0  0  0  0  0  0  0  0  0
   -0.8050    3.7544    3.0903 H   0  0  0  0  0  0  0  0  0  0  0  0
   -0.3124    2.0666    3.2665 H   0  0  0  0  0  0  0  0  0  0  0  0
  1  2  1  0
  1  4  1  0
  1  5  1  0
  1  6  1  0
  2  3  1  0
  2  7  1  0
  2  8  1  0
  3  9  1  0
 10 11  1  0
 10 16  1  0
 10 17  1  0
 10 18  1  0
 11 12  1  0
 11 19  1  0
 12 13  1  0
 13 14  1  0
 13 20  1  0
 13 21  1  0
 14 15  1  0
 14 22  1  0
 14 23  1  0
 15 24  1  0
 15 25  1  0
 15 26  1  0
M  RAD  2   3   2  11   2
M  END
>  <reaction>  (15) 
rmg_rxn_272

>  <mol_properties>  (15) 
{"1": {"label": "*0", "atom_type": "Cs"}, "2": {"label": "*1", "atom_type": "N3s"}, "8": {"label": "*2", "atom_type": "H0"}, "10": {"label": "*3", "atom_type": "Cs"}, "11": {"label": "*4", "atom_type": "O2s"}}

>  <type>  (15) 
unop_11

>  <geom_source>  (15) 
Heuristics

$$$$

     RDKit          3D

 26 24  0  0  0  0  0  0  0  0999 V2000
    0.2248    0.2160   -3.8071 C   0  0  0  0  0  0  0  0  0  0  0  0
    0.2248    0.2160   -2.2892 C   0  0  0  0  0  0  0  0  0  0  0  0
    0.2248    1.5435   -1.7494 N   0  0  0  0  0  2  0  0  0  0  0  0
    1.1070    0.7325   -4.1872 H   0  0  0  0  0  0  0  0  0  0  0  0
    0.2248   -0.8029   -4.1982 H   0  0  0  0  0  0  0  0  0  0  0  0
   -0.6574    0.7325   -4.1872 H   0  0  0  0  0  0  0  0  0  0  0  0
    1.0970   -0.3377   -1.9052 H   0  0  0  0  0  0  0  0  0  0  0  0
   -0.6474   -0.3377   -1.9052 H   0  0  0  0  0  0  0  0  0  0  0  0
    0.2248    1.4400   -0.5262 H   0  0  0  0  0  0  0  0  0  0  0  0
    1.4476    1.9954    1.3756 C   0  0  0  0  0  0  0  0  0  0  0  0
    0.2248    1.3287    0.7893 C   0  0  0  0  0  3  0  0  0  0  0  0
    0.2248   -0.0276    1.1553 O   0  0  0  0  0  0  0  0  0  0  0  0
   -0.8799   -0.7386    0.6560 C   0  0  0  0  0  0  0  0  0  0  0  0
   -0.8108   -2.1744    1.1347 C   0  0  0  0  0  0  0  0  0  0  0  0
   -0.9039   -2.3057    2.6491 C   0  0  0  0  0  0  0  0  0  0  0  0
    2.3566    1.5223    1.0027 H   0  0  0  0  0  0  0  0  0  0  0  0
    1.4694    3.0518    1.1035 H   0  0  0  0  0  0  0  0  0  0  0  0
    1.4406    1.9175    2.4634 H   0  0  0  0  0  0  0  0  0  0  0  0
   -0.6913    1.8155    1.1552 H   0  0  0  0  0  0  0  0  0  0  0  0
   -1.8147   -0.2695    1.0016 H   0  0  0  0  0  0  0  0  0  0  0  0
   -0.8832   -0.7029   -0.4433 H   0  0  0  0  0  0  0  0  0  0  0  0
   -1.6253   -2.7271    0.6583 H   0  0  0  0  0  0  0  0  0  0  0  0
    0.1231   -2.6152    0.7765 H   0  0  0  0  0  0  0  0  0  0  0  0
   -1.8446   -1.8901    3.0191 H   0  0  0  0  0  0  0  0  0  0  0  0
   -0.8563   -3.3514    2.9562 H   0  0  0  0  0  0  0  0  0  0  0  0
   -0.0876   -1.7704    3.1339 H   0  0  0  0  0  0  0  0  0  0  0  0
  1  2  1  0
  1  4  1  0
  1  5  1  0
  1  6  1  0
  2  3  1  0
  2  7  1  0
  2  8  1  0
  3  9  1  0
 10 11  1  0
 10 16  1  0
 10 17  1  0
 10 18  1  0
 11 12  1  0
 11 19  1  0
 12 13  1  0
 13 14  1  0
 13 20  1  0
 13 21  1  0
 14 15  1  0
 14 22  1  0
 14 23  1  0
 15 24  1  0
 15 25  1  0
 15 26  1  0
M  RAD  2   3   2  11   2
M  END
>  <reaction>  (16) 
rmg_rxn_272

>  <mol_properties>  (16) 
{"1": {"label": "*0", "atom_type": "Cs"}, "2": {"label": "*1", "atom_type": "N3s"}, "8": {"label": "*2", "atom_type": "H0"}, "10": {"label": "*3", "atom_type": "Cs"}, "11": {"label": "*4", "atom_type": "O2s"}}

>  <type>  (16) 
unop_12

>  <geom_source>  (16) 
Heuristics

$$$$

     RDKit          3D

 26 24  0  0  0  0  0  0  0  0999 V2000
   -0.3496    0.1579   -3.8752 C   0  0  0  0  0  0  0  0  0  0  0  0
   -0.3496    0.1579   -2.3573 C   0  0  0  0  0  0  0  0  0  0  0  0
   -0.3496    1.4855   -1.8175 N   0  0  0  0  0  2  0  0  0  0  0  0
    0.5326    0.6744   -4.2553 H   0  0  0  0  0  0  0  0  0  0  0  0
   -0.3496   -0.8609   -4.2663 H   0  0  0  0  0  0  0  0  0  0  0  0
   -1.2318    0.6744   -4.2553 H   0  0  0  0  0  0  0  0  0  0  0  0
    0.5226   -0.3958   -1.9733 H   0  0  0  0  0  0  0  0  0  0  0  0
   -1.2218   -0.3958   -1.9733 H   0  0  0  0  0  0  0  0  0  0  0  0
   -0.3496    1.3820   -0.5943 H   0  0  0  0  0  0  0  0  0  0  0  0
    0.5695    2.4462    0.9593 C   0  0  0  0  0  0  0  0  0  0  0  0
   -0.3496    1.2706    0.7212 C   0  0  0  0  0  3  0  0  0  0  0  0
    0.3107    0.0906    1.1021 O   0  0  0  0  0  0  0  0  0  0  0  0
   -0.4664   -1.0658    0.9185 C   0  0  0  0  0  0  0  0  0  0  0  0
    0.3136   -2.2752    1.3921 C   0  0  0  0  0  0  0  0  0  0  0  0
    0.6281   -2.2390    2.8817 C   0  0  0  0  0  0  0  0  0  0  0  0
    1.4839    2.3410    0.3745 H   0  0  0  0  0  0  0  0  0  0  0  0
    0.0772    3.3758    0.6695 H   0  0  0  0  0  0  0  0  0  0  0  0
    0.8409    2.5116    2.0136 H   0  0  0  0  0  0  0  0  0  0  0  0
   -1.2776    1.3845    1.3007 H   0  0  0  0  0  0  0  0  0  0  0  0
   -1.4079   -0.9783    1.4837 H   0  0  0  0  0  0  0  0  0  0  0  0
   -0.7315   -1.1750   -0.1433 H   0  0  0  0  0  0  0  0  0  0  0  0
   -0.2716   -3.1675    1.1527 H   0  0  0  0  0  0  0  0  0  0  0  0
    1.2393   -2.3392    0.8145 H   0  0  0  0  0  0  0  0  0  0  0  0
   -0.2901   -2.1991    3.4730 H   0  0  0  0  0  0  0  0  0  0  0  0
    1.1846   -3.1262    3.1873 H   0  0  0  0  0  0  0  0  0  0  0  0
    1.2243   -1.3606    3.1292 H   0  0  0  0  0  0  0  0  0  0  0  0
  1  2  1  0
  1  4  1  0
  1  5  1  0
  1  6  1  0
  2  3  1  0
  2  7  1  0
  2  8  1  0
  3  9  1  0
 10 11  1  0
 10 16  1  0
 10 17  1  0
 10 18  1  0
 11 12  1  0
 11 19  1  0
 12 13  1  0
 13 14  1  0
 13 20  1  0
 13 21  1  0
 14 15  1  0
 14 22  1  0
 14 23  1  0
 15 24  1  0
 15 25  1  0
 15 26  1  0
M  RAD  2   3   2  11   2
M  END
>  <reaction>  (17) 
rmg_rxn_272

>  <mol_properties>  (17) 
{"1": {"label": "*0", "atom_type": "Cs"}, "2": {"label": "*1", "atom_type": "N3s"}, "8": {"label": "*2", "atom_type": "H0"}, "10": {"label": "*3", "atom_type": "Cs"}, "11": {"label": "*4", "atom_type": "O2s"}}

>  <type>  (17) 
unop_13

>  <geom_source>  (17) 
gaussian_log

$$$$
