
     RDKit          3D

 14 13  0  0  0  0  0  0  0  0999 V2000
    1.8106   -0.5953    0.5577 C   0  0  0  0  0  0  0  0  0  0  0  0
    0.5197    0.2064    0.6554 C   0  0  0  0  0  0  0  0  0  0  0  0
   -0.5206   -0.2080   -0.3788 C   0  0  0  0  0  0  0  0  0  0  0  0
   -1.8114    0.5937   -0.2812 C   0  0  0  0  0  0  0  0  0  0  0  0
    2.2725   -0.4752   -0.4251 H   0  0  0  0  0  0  0  0  0  0  0  0
    1.6214   -1.6612    0.7052 H   0  0  0  0  0  0  0  0  0  0  0  0
    2.5364   -0.2784    1.3084 H   0  0  0  0  0  0  0  0  0  0  0  0
    0.0930    0.0950    1.6574 H   0  0  0  0  0  0  0  0  0  0  0  0
    0.7393    1.2723    0.5354 H   0  0  0  0  0  0  0  0  0  0  0  0
   -0.7402   -1.2739   -0.2588 H   0  0  0  0  0  0  0  0  0  0  0  0
   -0.0938   -0.0965   -1.3808 H   0  0  0  0  0  0  0  0  0  0  0  0
   -1.6222    1.6596   -0.4287 H   0  0  0  0  0  0  0  0  0  0  0  0
   -2.2734    0.4736    0.7017 H   0  0  0  0  0  0  0  0  0  0  0  0
   -2.5373    0.2768   -1.0318 H   0  0  0  0  0  0  0  0  0  0  0  0
  1  2  1  0
  1  5  1  0
  1  6  1  0
  1  7  1  0
  2  3  1  0
  2  8  1  0
  2  9  1  0
  3  4  1  0
  3 10  1  0
  3 11  1  0
  4 12  1  0
  4 13  1  0
  4 14  1  0
M  END
>  <reaction>  (1) 
rmg_rxn_236

>  <mol_properties>  (1) 
{"3": {"label": "donator", "atom_type": "Cs"}, "12": {"label": "d_hydrogen", "atom_type": "H0"}}

>  <type>  (1) 
r1h

$$$$

     RDKit          3D

 17 16  0  0  0  0  0  0  0  0999 V2000
    2.3128   -0.1525    1.1777 C   0  0  0  0  0  3  0  0  0  0  0  0
    1.7469    0.7266    0.1254 C   0  0  0  0  0  0  0  0  0  0  0  0
    1.6374    2.1830    0.5408 C   0  0  0  0  0  0  0  0  0  0  0  0
    2.9245    2.6874    0.7877 O   0  0  0  0  0  0  0  0  0  0  0  0
    2.9227    4.0197    1.2361 C   0  0  0  0  0  0  0  0  0  0  0  0
    4.3491    4.4603    1.4693 C   0  0  0  0  0  0  0  0  0  0  0  0
    2.1393   -1.2196    1.1557 H   0  0  0  0  0  0  0  0  0  0  0  0
    3.0313    0.2400    1.8838 H   0  0  0  0  0  0  0  0  0  0  0  0
    0.7555    0.3746   -0.1764 H   0  0  0  0  0  0  0  0  0  0  0  0
    2.3678    0.6841   -0.7826 H   0  0  0  0  0  0  0  0  0  0  0  0
    1.0170    2.2718    1.4449 H   0  0  0  0  0  0  0  0  0  0  0  0
    1.1499    2.7653   -0.2546 H   0  0  0  0  0  0  0  0  0  0  0  0
    2.4379    4.6655    0.4891 H   0  0  0  0  0  0  0  0  0  0  0  0
    2.3377    4.1015    2.1638 H   0  0  0  0  0  0  0  0  0  0  0  0
    4.9261    4.3920    0.5465 H   0  0  0  0  0  0  0  0  0  0  0  0
    4.3728    5.4939    1.8180 H   0  0  0  0  0  0  0  0  0  0  0  0
    4.8260    3.8299    2.2206 H   0  0  0  0  0  0  0  0  0  0  0  0
  1  2  1  0
  1  7  1  0
  1  8  1  0
  2  3  1  0
  2  9  1  0
  2 10  1  0
  3  4  1  0
  3 11  1  0
  3 12  1  0
  4  5  1  0
  5  6  1  0
  5 13  1  0
  5 14  1  0
  6 15  1  0
  6 16  1  0
  6 17  1  0
M  RAD  1   1   2
M  END
>  <reaction>  (2) 
rmg_rxn_236

>  <mol_properties>  (2) 
{"0": {"label": "acceptor", "atom_type": "Cs"}}

>  <type>  (2) 
r2

$$$$

     RDKit          3D

 18 17  0  0  0  0  0  0  0  0999 V2000
    2.2026   -0.7213   -0.2612 C   0  0  0  0  0  0  0  0  0  0  0  0
    1.5384    0.2638    0.6915 C   0  0  0  0  0  0  0  0  0  0  0  0
    2.2584    1.5946    0.7694 C   0  0  0  0  0  0  0  0  0  0  0  0
    2.2212    2.2185   -0.4893 O   0  0  0  0  0  0  0  0  0  0  0  0
    2.8988    3.4488   -0.5204 C   0  0  0  0  0  0  0  0  0  0  0  0
    2.7981    4.0296   -1.9118 C   0  0  0  0  0  0  0  0  0  0  0  0
    3.2294   -0.9309    0.0486 H   0  0  0  0  0  0  0  0  0  0  0  0
    2.2338   -0.3181   -1.2734 H   0  0  0  0  0  0  0  0  0  0  0  0
    1.6610   -1.6680   -0.2875 H   0  0  0  0  0  0  0  0  0  0  0  0
    1.4990   -0.1566    1.7002 H   0  0  0  0  0  0  0  0  0  0  0  0
    0.5055    0.4455    0.3835 H   0  0  0  0  0  0  0  0  0  0  0  0
    3.3038    1.4410    1.0808 H   0  0  0  0  0  0  0  0  0  0  0  0
    1.7844    2.2410    1.5226 H   0  0  0  0  0  0  0  0  0  0  0  0
    2.4596    4.1376    0.2164 H   0  0  0  0  0  0  0  0  0  0  0  0
    3.9524    3.3035   -0.2397 H   0  0  0  0  0  0  0  0  0  0  0  0
    1.7543    4.1869   -2.1856 H   0  0  0  0  0  0  0  0  0  0  0  0
    3.2472    3.3545   -2.6411 H   0  0  0  0  0  0  0  0  0  0  0  0
    3.3178    4.9878   -1.9600 H   0  0  0  0  0  0  0  0  0  0  0  0
  1  2  1  0
  1  7  1  0
  1  8  1  0
  1  9  1  0
  2  3  1  0
  2 10  1  0
  2 11  1  0
  3  4  1  0
  3 12  1  0
  3 13  1  0
  4  5  1  0
  5  6  1  0
  5 14  1  0
  5 15  1  0
  6 16  1  0
  6 17  1  0
  6 18  1  0
M  END
>  <reaction>  (3) 
rmg_rxn_236

>  <mol_properties>  (3) 
{"0": {"label": "a_hydrogen", "atom_type": "H0"}, "1": {"label": "acceptor", "atom_type": "Cs"}}

>  <type>  (3) 
r2h

$$$$

     RDKit          3D

 31 29  0  0  0  0  0  0  0  0999 V2000
    3.2056   -0.0073   -3.1889 C   0  0  0  0  0  0  0  0  0  0  0  0
    3.0534    0.5061   -1.7641 C   0  0  0  0  0  0  0  0  0  0  0  0
    2.2242    1.7832   -1.6767 C   0  0  0  0  0  0  0  0  0  0  0  0
    2.0305    2.2701   -0.2641 C   0  0  0  0  0  0  0  0  0  0  0  0
    3.6881    0.7384   -3.8253 H   0  0  0  0  0  0  0  0  0  0  0  0
    2.2311   -0.2344   -3.6284 H   0  0  0  0  0  0  0  0  0  0  0  0
    3.8077   -0.9166   -3.2248 H   0  0  0  0  0  0  0  0  0  0  0  0
    2.5894   -0.2654   -1.1422 H   0  0  0  0  0  0  0  0  0  0  0  0
    4.0409    0.6915   -1.3299 H   0  0  0  0  0  0  0  0  0  0  0  0
    1.2468    1.6121   -2.1412 H   0  0  0  0  0  0  0  0  0  0  0  0
    2.7073    2.5626   -2.2805 H   0  0  0  0  0  0  0  0  0  0  0  0
    2.9499    2.3611    0.3143 H   0  0  0  0  0  0  0  0  0  0  0  0
    1.3363    1.3201    0.3769 H   0  0  0  0  0  0  0  0  0  0  0  0
    1.4056    3.1560   -0.1652 H   0  0  0  0  0  0  0  0  0  0  0  0
    0.5752    0.3345    0.8969 C   0  0  0  0  0  3  0  0  0  0  0  0
   -0.3822   -0.0907   -0.1858 C   0  0  0  0  0  0  0  0  0  0  0  0
   -1.3540   -1.1742    0.2517 C   0  0  0  0  0  0  0  0  0  0  0  0
   -2.1759   -0.6735    1.2744 O   0  0  0  0  0  0  0  0  0  0  0  0
   -3.0888   -1.6209    1.7675 C   0  0  0  0  0  0  0  0  0  0  0  0
   -3.9184   -0.9816    2.8568 C   0  0  0  0  0  0  0  0  0  0  0  0
    0.1007    0.7966    1.7593 H   0  0  0  0  0  0  0  0  0  0  0  0
    1.2930   -0.4307    1.1922 H   0  0  0  0  0  0  0  0  0  0  0  0
    0.1715   -0.4703   -1.0501 H   0  0  0  0  0  0  0  0  0  0  0  0
   -0.9619    0.7694   -0.5325 H   0  0  0  0  0  0  0  0  0  0  0  0
   -0.8002   -2.0558    0.6095 H   0  0  0  0  0  0  0  0  0  0  0  0
   -1.9694   -1.4961   -0.6019 H   0  0  0  0  0  0  0  0  0  0  0  0
   -3.7349   -1.9792    0.9523 H   0  0  0  0  0  0  0  0  0  0  0  0
   -2.5473   -2.4945    2.1592 H   0  0  0  0  0  0  0  0  0  0  0  0
   -4.4664   -0.1235    2.4659 H   0  0  0  0  0  0  0  0  0  0  0  0
   -4.6366   -1.6996    3.2557 H   0  0  0  0  0  0  0  0  0  0  0  0
   -3.2800   -0.6398    3.6722 H   0  0  0  0  0  0  0  0  0  0  0  0
  1  2  1  0
  1  5  1  0
  1  6  1  0
  1  7  1  0
  2  3  1  0
  2  8  1  0
  2  9  1  0
  3  4  1  0
  3 10  1  0
  3 11  1  0
  4 12  1  0
  4 13  1  0
  4 14  1  0
 15 16  1  0
 15 21  1  0
 15 22  1  0
 16 17  1  0
 16 23  1  0
 16 24  1  0
 17 18  1  0
 17 25  1  0
 17 26  1  0
 18 19  1  0
 19 20  1  0
 19 27  1  0
 19 28  1  0
 20 29  1  0
 20 30  1  0
 20 31  1  0
M  RAD  1  15   2
M  END
>  <reaction>  (4) 
rmg_rxn_236

>  <mol_properties>  (4) 
{"2": {"label": "*0", "atom_type": "Cs"}, "3": {"label": "*1", "atom_type": "Cs"}, "12": {"label": "*2", "atom_type": "H0"}, "14": {"label": "*3", "atom_type": "Cs"}, "15": {"label": "*4", "atom_type": "Cs"}}

>  <type>  (4) 
ts

$$$$

     RDKit          3D

 31 29  0  0  0  0  0  0  0  0999 V2000
    2.1535    0.4095   -4.4731 C   0  0  0  0  0  0  0  0  0  0  0  0
    2.1535    0.4095   -2.9504 C   0  0  0  0  0  0  0  0  0  0  0  0
    2.1535    1.8119   -2.3530 C   0  0  0  0  0  0  0  0  0  0  0  0
    2.1535    1.8119   -0.8303 C   0  0  0  0  0  3  0  0  0  0  0  0
    3.0350    0.9228   -4.8645 H   0  0  0  0  0  0  0  0  0  0  0  0
    1.2720    0.9228   -4.8645 H   0  0  0  0  0  0  0  0  0  0  0  0
    2.1535   -0.6056   -4.8735 H   0  0  0  0  0  0  0  0  0  0  0  0
    1.2785   -0.1364   -2.5831 H   0  0  0  0  0  0  0  0  0  0  0  0
    3.0285   -0.1364   -2.5831 H   0  0  0  0  0  0  0  0  0  0  0  0
    1.2785    2.3578   -2.7204 H   0  0  0  0  0  0  0  0  0  0  0  0
    3.0285    2.3578   -2.7204 H   0  0  0  0  0  0  0  0  0  0  0  0
    3.0350    1.2985   -0.4390 H   0  0  0  0  0  0  0  0  0  0  0  0
    1.0957    1.1958   -0.3607 H   0  0  0  0  0  0  0  0  0  0  0  0
    2.1535    2.8270   -0.4300 H   0  0  0  0  0  0  0  0  0  0  0  0
    0.0394    0.5807    0.1082 C   0  0  0  0  0  0  0  0  0  0  0  0
    0.4363   -0.6121    0.9679 C   0  0  0  0  0  0  0  0  0  0  0  0
   -0.4231   -0.7660    2.2060 C   0  0  0  0  0  0  0  0  0  0  0  0
   -1.7519   -1.0152    1.8225 O   0  0  0  0  0  0  0  0  0  0  0  0
   -2.6314   -1.1373    2.9112 C   0  0  0  0  0  0  0  0  0  0  0  0
   -4.0248   -1.4013    2.3895 C   0  0  0  0  0  0  0  0  0  0  0  0
   -0.9919    0.4856   -0.2316 H   0  0  0  0  0  0  0  0  0  0  0  0
    0.1223    1.5127    0.6730 H   0  0  0  0  0  0  0  0  0  0  0  0
    1.4765   -0.5137    1.2907 H   0  0  0  0  0  0  0  0  0  0  0  0
    0.3718   -1.5337    0.3837 H   0  0  0  0  0  0  0  0  0  0  0  0
   -0.3745    0.1499    2.8161 H   0  0  0  0  0  0  0  0  0  0  0  0
   -0.0508   -1.5932    2.8281 H   0  0  0  0  0  0  0  0  0  0  0  0
   -2.3046   -1.9577    3.5673 H   0  0  0  0  0  0  0  0  0  0  0  0
   -2.6139   -0.2160    3.5120 H   0  0  0  0  0  0  0  0  0  0  0  0
   -4.0459   -2.3219    1.8052 H   0  0  0  0  0  0  0  0  0  0  0  0
   -4.7266   -1.5005    3.2190 H   0  0  0  0  0  0  0  0  0  0  0  0
   -4.3557   -0.5811    1.7514 H   0  0  0  0  0  0  0  0  0  0  0  0
  1  2  1  0
  1  5  1  0
  1  6  1  0
  1  7  1  0
  2  3  1  0
  2  8  1  0
  2  9  1  0
  3  4  1  0
  3 10  1  0
  3 11  1  0
  4 12  1  0
  4 14  1  0
 13 15  1  0
 15 16  1  0
 15 21  1  0
 15 22  1  0
 16 17  1  0
 16 23  1  0
 16 24  1  0
 17 18  1  0
 17 25  1  0
 17 26  1  0
 18 19  1  0
 19 20  1  0
 19 27  1  0
 19 28  1  0
 20 29  1  0
 20 30  1  0
 20 31  1  0
M  RAD  1   4   2
M  END
>  <reaction>  (5) 
rmg_rxn_236

>  <mol_properties>  (5) 
{"2": {"label": "*0", "atom_type": "Cs"}, "3": {"label": "*1", "atom_type": "Cs"}, "12": {"label": "*2", "atom_type": "H0"}, "14": {"label": "*3", "atom_type": "Cs"}, "15": {"label": "*4", "atom_type": "Cs"}}

>  <type>  (5) 
unop_1

>  <geom_source>  (5) 
Heuristics

$$$$

     RDKit          3D

 31 29  0  0  0  0  0  0  0  0999 V2000
    2.5468    0.4880   -3.5794 C   0  0  0  0  0  0  0  0  0  0  0  0
    2.5468    0.4880   -2.0567 C   0  0  0  0  0  0  0  0  0  0  0  0
    2.5468    1.8904   -1.4593 C   0  0  0  0  0  0  0  0  0  0  0  0
    2.5468    1.8904    0.0634 C   0  0  0  0  0  3  0  0  0  0  0  0
    3.4283    1.0014   -3.9707 H   0  0  0  0  0  0  0  0  0  0  0  0
    1.6653    1.0014   -3.9707 H   0  0  0  0  0  0  0  0  0  0  0  0
    2.5468   -0.5271   -3.9797 H   0  0  0  0  0  0  0  0  0  0  0  0
    1.6717   -0.0578   -1.6893 H   0  0  0  0  0  0  0  0  0  0  0  0
    3.4218   -0.0578   -1.6893 H   0  0  0  0  0  0  0  0  0  0  0  0
    1.6717    2.4363   -1.8266 H   0  0  0  0  0  0  0  0  0  0  0  0
    3.4218    2.4363   -1.8266 H   0  0  0  0  0  0  0  0  0  0  0  0
    3.4283    1.3771    0.4548 H   0  0  0  0  0  0  0  0  0  0  0  0
    1.4890    1.2744    0.5331 H   0  0  0  0  0  0  0  0  0  0  0  0
    2.5468    2.9055    0.4638 H   0  0  0  0  0  0  0  0  0  0  0  0
    0.4327    0.6593    1.0020 C   0  0  0  0  0  0  0  0  0  0  0  0
   -0.0329   -0.4340    0.0495 C   0  0  0  0  0  0  0  0  0  0  0  0
   -0.9430   -1.4501    0.7086 C   0  0  0  0  0  0  0  0  0  0  0  0
   -2.1190   -0.8121    1.1388 O   0  0  0  0  0  0  0  0  0  0  0  0
   -3.0111   -1.6752    1.7967 C   0  0  0  0  0  0  0  0  0  0  0  0
   -4.2334   -0.8915    2.2155 C   0  0  0  0  0  0  0  0  0  0  0  0
   -0.4182    1.2094    1.4037 H   0  0  0  0  0  0  0  0  0  0  0  0
    0.9850    0.2336    1.8435 H   0  0  0  0  0  0  0  0  0  0  0  0
    0.8288   -0.9693   -0.3588 H   0  0  0  0  0  0  0  0  0  0  0  0
   -0.5624    0.0077   -0.7987 H   0  0  0  0  0  0  0  0  0  0  0  0
   -0.4324   -1.9139    1.5674 H   0  0  0  0  0  0  0  0  0  0  0  0
   -1.1904   -2.2555    0.0015 H   0  0  0  0  0  0  0  0  0  0  0  0
   -3.2948   -2.5019    1.1285 H   0  0  0  0  0  0  0  0  0  0  0  0
   -2.5215   -2.1221    2.6745 H   0  0  0  0  0  0  0  0  0  0  0  0
   -4.7273   -0.4595    1.3444 H   0  0  0  0  0  0  0  0  0  0  0  0
   -4.9424   -1.5428    2.7291 H   0  0  0  0  0  0  0  0  0  0  0  0
   -3.9551   -0.0813    2.8903 H   0  0  0  0  0  0  0  0  0  0  0  0
  1  2  1  0
  1  5  1  0
  1  6  1  0
  1  7  1  0
  2  3  1  0
  2  8  1  0
  2  9  1  0
  3  4  1  0
  3 10  1  0
  3 11  1  0
  4 12  1  0
  4 14  1  0
 13 15  1  0
 15 16  1  0
 15 21  1  0
 15 22  1  0
 16 17  1  0
 16 23  1  0
 16 24  1  0
 17 18  1  0
 17 25  1  0
 17 26  1  0
 18 19  1  0
 19 20  1  0
 19 27  1  0
 19 28  1  0
 20 29  1  0
 20 30  1  0
 20 31  1  0
M  RAD  1   4   2
M  END
>  <reaction>  (6) 
rmg_rxn_236

>  <mol_properties>  (6) 
{"2": {"label": "*0", "atom_type": "Cs"}, "3": {"label": "*1", "atom_type": "Cs"}, "12": {"label": "*2", "atom_type": "H0"}, "14": {"label": "*3", "atom_type": "Cs"}, "15": {"label": "*4", "atom_type": "Cs"}}

>  <type>  (6) 
unop_2

>  <geom_source>  (6) 
Heuristics

$$$$

     RDKit          3D

 31 29  0  0  0  0  0  0  0  0999 V2000
    2.2561    0.3572   -4.4153 C   0  0  0  0  0  0  0  0  0  0  0  0
    2.2561    0.3572   -2.8926 C   0  0  0  0  0  0  0  0  0  0  0  0
    2.2561    1.7595   -2.2952 C   0  0  0  0  0  0  0  0  0  0  0  0
    2.2561    1.7595   -0.7725 C   0  0  0  0  0  3  0  0  0  0  0  0
    3.1376    0.8705   -4.8066 H   0  0  0  0  0  0  0  0  0  0  0  0
    1.3746    0.8705   -4.8066 H   0  0  0  0  0  0  0  0  0  0  0  0
    2.2561   -0.6579   -4.8156 H   0  0  0  0  0  0  0  0  0  0  0  0
    1.3811   -0.1887   -2.5252 H   0  0  0  0  0  0  0  0  0  0  0  0
    3.1312   -0.1887   -2.5252 H   0  0  0  0  0  0  0  0  0  0  0  0
    1.3811    2.3054   -2.6625 H   0  0  0  0  0  0  0  0  0  0  0  0
    3.1312    2.3054   -2.6625 H   0  0  0  0  0  0  0  0  0  0  0  0
    3.1376    1.2462   -0.3811 H   0  0  0  0  0  0  0  0  0  0  0  0
    1.1983    1.1435   -0.3029 H   0  0  0  0  0  0  0  0  0  0  0  0
    2.2561    2.7747   -0.3721 H   0  0  0  0  0  0  0  0  0  0  0  0
    0.1420    0.5284    0.1661 C   0  0  0  0  0  0  0  0  0  0  0  0
    0.4382   -0.1212    1.5113 C   0  0  0  0  0  0  0  0  0  0  0  0
   -0.7803   -0.2198    2.4061 C   0  0  0  0  0  0  0  0  0  0  0  0
   -1.7376   -1.0508    1.7994 O   0  0  0  0  0  0  0  0  0  0  0  0
   -2.9216   -1.1723    2.5458 C   0  0  0  0  0  0  0  0  0  0  0  0
   -3.8766   -2.0808    1.8069 C   0  0  0  0  0  0  0  0  0  0  0  0
   -0.6079   -0.0423   -0.3815 H   0  0  0  0  0  0  0  0  0  0  0  0
   -0.2398    1.5437    0.2994 H   0  0  0  0  0  0  0  0  0  0  0  0
    1.2021    0.4507    2.0453 H   0  0  0  0  0  0  0  0  0  0  0  0
    0.8415   -1.1261    1.3620 H   0  0  0  0  0  0  0  0  0  0  0  0
   -1.2068    0.7816    2.5756 H   0  0  0  0  0  0  0  0  0  0  0  0
   -0.4997   -0.6263    3.3889 H   0  0  0  0  0  0  0  0  0  0  0  0
   -2.6965   -1.5800    3.5425 H   0  0  0  0  0  0  0  0  0  0  0  0
   -3.3731   -0.1806    2.6964 H   0  0  0  0  0  0  0  0  0  0  0  0
   -3.4352   -3.0685    1.6694 H   0  0  0  0  0  0  0  0  0  0  0  0
   -4.8052   -2.1909    2.3692 H   0  0  0  0  0  0  0  0  0  0  0  0
   -4.1126   -1.6696    0.8248 H   0  0  0  0  0  0  0  0  0  0  0  0
  1  2  1  0
  1  5  1  0
  1  6  1  0
  1  7  1  0
  2  3  1  0
  2  8  1  0
  2  9  1  0
  3  4  1  0
  3 10  1  0
  3 11  1  0
  4 12  1  0
  4 14  1  0
 13 15  1  0
 15 16  1  0
 15 21  1  0
 15 22  1  0
 16 17  1  0
 16 23  1  0
 16 24  1  0
 17 18  1  0
 17 25  1  0
 17 26  1  0
 18 19  1  0
 19 20  1  0
 19 27  1  0
 19 28  1  0
 20 29  1  0
 20 30  1  0
 20 31  1  0
M  RAD  1   4   2
M  END
>  <reaction>  (7) 
rmg_rxn_236

>  <mol_properties>  (7) 
{"2": {"label": "*0", "atom_type": "Cs"}, "3": {"label": "*1", "atom_type": "Cs"}, "12": {"label": "*2", "atom_type": "H0"}, "14": {"label": "*3", "atom_type": "Cs"}, "15": {"label": "*4", "atom_type": "Cs"}}

>  <type>  (7) 
unop_3

>  <geom_source>  (7) 
Heuristics

$$$$

     RDKit          3D

 31 29  0  0  0  0  0  0  0  0999 V2000
    2.4223   -0.9418   -4.3483 C   0  0  0  0  0  0  0  0  0  0  0  0
    2.4223   -0.9418   -2.8256 C   0  0  0  0  0  0  0  0  0  0  0  0
    2.4223    0.4606   -2.2283 C   0  0  0  0  0  0  0  0  0  0  0  0
    2.4223    0.4606   -0.7056 C   0  0  0  0  0  3  0  0  0  0  0  0
    3.3038   -0.4285   -4.7397 H   0  0  0  0  0  0  0  0  0  0  0  0
    1.5408   -0.4285   -4.7397 H   0  0  0  0  0  0  0  0  0  0  0  0
    2.4223   -1.9569   -4.7487 H   0  0  0  0  0  0  0  0  0  0  0  0
    1.5472   -1.4877   -2.4583 H   0  0  0  0  0  0  0  0  0  0  0  0
    3.2973   -1.4877   -2.4583 H   0  0  0  0  0  0  0  0  0  0  0  0
    1.5472    1.0064   -2.5956 H   0  0  0  0  0  0  0  0  0  0  0  0
    3.2973    1.0064   -2.5956 H   0  0  0  0  0  0  0  0  0  0  0  0
    3.3038   -0.0528   -0.3142 H   0  0  0  0  0  0  0  0  0  0  0  0
    1.3644   -0.1555   -0.2359 H   0  0  0  0  0  0  0  0  0  0  0  0
    2.4223    1.4757   -0.3052 H   0  0  0  0  0  0  0  0  0  0  0  0
    0.3082   -0.7706    0.2330 C   0  0  0  0  0  0  0  0  0  0  0  0
   -0.9732   -0.0928   -0.2339 C   0  0  0  0  0  0  0  0  0  0  0  0
   -2.1046   -0.2037    0.7676 C   0  0  0  0  0  0  0  0  0  0  0  0
   -1.7459    0.4638    1.9511 O   0  0  0  0  0  0  0  0  0  0  0  0
   -2.7260    0.3825    2.9543 C   0  0  0  0  0  0  0  0  0  0  0  0
   -2.2410    1.1281    4.1760 C   0  0  0  0  0  0  0  0  0  0  0  0
    0.6633   -0.3262    1.1628 H   0  0  0  0  0  0  0  0  0  0  0  0
    0.1426   -1.8360    0.4118 H   0  0  0  0  0  0  0  0  0  0  0  0
   -1.3121   -0.5361   -1.1744 H   0  0  0  0  0  0  0  0  0  0  0  0
   -0.7871    0.9660   -0.4317 H   0  0  0  0  0  0  0  0  0  0  0  0
   -2.3153   -1.2631    0.9839 H   0  0  0  0  0  0  0  0  0  0  0  0
   -3.0245    0.2347    0.3536 H   0  0  0  0  0  0  0  0  0  0  0  0
   -3.6711    0.8130    2.5912 H   0  0  0  0  0  0  0  0  0  0  0  0
   -2.9239   -0.6712    3.2003 H   0  0  0  0  0  0  0  0  0  0  0  0
   -2.0578    2.1761    3.9363 H   0  0  0  0  0  0  0  0  0  0  0  0
   -2.9878    1.0791    4.9700 H   0  0  0  0  0  0  0  0  0  0  0  0
   -1.3123    0.6923    4.5459 H   0  0  0  0  0  0  0  0  0  0  0  0
  1  2  1  0
  1  5  1  0
  1  6  1  0
  1  7  1  0
  2  3  1  0
  2  8  1  0
  2  9  1  0
  3  4  1  0
  3 10  1  0
  3 11  1  0
  4 12  1  0
  4 14  1  0
 13 15  1  0
 15 16  1  0
 15 21  1  0
 15 22  1  0
 16 17  1  0
 16 23  1  0
 16 24  1  0
 17 18  1  0
 17 25  1  0
 17 26  1  0
 18 19  1  0
 19 20  1  0
 19 27  1  0
 19 28  1  0
 20 29  1  0
 20 30  1  0
 20 31  1  0
M  RAD  1   4   2
M  END
>  <reaction>  (8) 
rmg_rxn_236

>  <mol_properties>  (8) 
{"2": {"label": "*0", "atom_type": "Cs"}, "3": {"label": "*1", "atom_type": "Cs"}, "12": {"label": "*2", "atom_type": "H0"}, "14": {"label": "*3", "atom_type": "Cs"}, "15": {"label": "*4", "atom_type": "Cs"}}

>  <type>  (8) 
unop_4

>  <geom_source>  (8) 
Heuristics

$$$$

     RDKit          3D

 31 29  0  0  0  0  0  0  0  0999 V2000
    1.9796    0.6141   -4.4275 C   0  0  0  0  0  0  0  0  0  0  0  0
    1.9796    0.6141   -2.9048 C   0  0  0  0  0  0  0  0  0  0  0  0
    1.9796    2.0165   -2.3074 C   0  0  0  0  0  0  0  0  0  0  0  0
    1.9796    2.0165   -0.7847 C   0  0  0  0  0  3  0  0  0  0  0  0
    2.8612    1.1275   -4.8188 H   0  0  0  0  0  0  0  0  0  0  0  0
    1.0981    1.1275   -4.8188 H   0  0  0  0  0  0  0  0  0  0  0  0
    1.9796   -0.4010   -4.8278 H   0  0  0  0  0  0  0  0  0  0  0  0
    1.1046    0.0682   -2.5374 H   0  0  0  0  0  0  0  0  0  0  0  0
    2.8547    0.0682   -2.5374 H   0  0  0  0  0  0  0  0  0  0  0  0
    1.1046    2.5624   -2.6747 H   0  0  0  0  0  0  0  0  0  0  0  0
    2.8547    2.5624   -2.6747 H   0  0  0  0  0  0  0  0  0  0  0  0
    2.8612    1.5031   -0.3933 H   0  0  0  0  0  0  0  0  0  0  0  0
    0.9218    1.4005   -0.3150 H   0  0  0  0  0  0  0  0  0  0  0  0
    1.9796    3.0316   -0.3843 H   0  0  0  0  0  0  0  0  0  0  0  0
   -0.1345    0.7853    0.1539 C   0  0  0  0  0  0  0  0  0  0  0  0
   -0.1369    0.7839    1.6768 C   0  0  0  0  0  0  0  0  0  0  0  0
   -1.3454    0.0888    2.2697 C   0  0  0  0  0  0  0  0  0  0  0  0
   -1.3302   -1.2672    1.9009 O   0  0  0  0  0  0  0  0  0  0  0  0
   -2.4383   -1.9861    2.3794 C   0  0  0  0  0  0  0  0  0  0  0  0
   -2.3233   -3.4234    1.9274 C   0  0  0  0  0  0  0  0  0  0  0  0
   -0.1356   -0.2336   -0.2331 H   0  0  0  0  0  0  0  0  0  0  0  0
   -1.0195    1.2939   -0.2367 H   0  0  0  0  0  0  0  0  0  0  0  0
   -0.1206    1.8102    2.0541 H   0  0  0  0  0  0  0  0  0  0  0  0
    0.7648    0.2938    2.0531 H   0  0  0  0  0  0  0  0  0  0  0  0
   -2.2705    0.5652    1.9083 H   0  0  0  0  0  0  0  0  0  0  0  0
   -1.3377    0.1795    3.3659 H   0  0  0  0  0  0  0  0  0  0  0  0
   -2.4761   -1.9302    3.4774 H   0  0  0  0  0  0  0  0  0  0  0  0
   -3.3683   -1.5371    2.0004 H   0  0  0  0  0  0  0  0  0  0  0  0
   -1.4083   -3.8736    2.3141 H   0  0  0  0  0  0  0  0  0  0  0  0
   -3.1746   -4.0026    2.2885 H   0  0  0  0  0  0  0  0  0  0  0  0
   -2.3015   -3.4810    0.8385 H   0  0  0  0  0  0  0  0  0  0  0  0
  1  2  1  0
  1  5  1  0
  1  6  1  0
  1  7  1  0
  2  3  1  0
  2  8  1  0
  2  9  1  0
  3  4  1  0
  3 10  1  0
  3 11  1  0
  4 12  1  0
  4 14  1  0
 13 15  1  0
 15 16  1  0
 15 21  1  0
 15 22  1  0
 16 17  1  0
 16 23  1  0
 16 24  1  0
 17 18  1  0
 17 25  1  0
 17 26  1  0
 18 19  1  0
 19 20  1  0
 19 27  1  0
 19 28  1  0
 20 29  1  0
 20 30  1  0
 20 31  1  0
M  RAD  1   4   2
M  END
>  <reaction>  (9) 
rmg_rxn_236

>  <mol_properties>  (9) 
{"2": {"label": "*0", "atom_type": "Cs"}, "3": {"label": "*1", "atom_type": "Cs"}, "12": {"label": "*2", "atom_type": "H0"}, "14": {"label": "*3", "atom_type": "Cs"}, "15": {"label": "*4", "atom_type": "Cs"}}

>  <type>  (9) 
unop_5

>  <geom_source>  (9) 
Heuristics

$$$$

     RDKit          3D

 31 29  0  0  0  0  0  0  0  0999 V2000
    1.9638   -0.7800   -4.8042 C   0  0  0  0  0  0  0  0  0  0  0  0
    1.9638   -0.7800   -3.2815 C   0  0  0  0  0  0  0  0  0  0  0  0
    1.9638    0.6224   -2.6841 C   0  0  0  0  0  0  0  0  0  0  0  0
    1.9638    0.6224   -1.1614 C   0  0  0  0  0  3  0  0  0  0  0  0
    2.8453   -0.2667   -5.1956 H   0  0  0  0  0  0  0  0  0  0  0  0
    1.0823   -0.2667   -5.1956 H   0  0  0  0  0  0  0  0  0  0  0  0
    1.9638   -1.7951   -5.2046 H   0  0  0  0  0  0  0  0  0  0  0  0
    1.0888   -1.3259   -2.9142 H   0  0  0  0  0  0  0  0  0  0  0  0
    2.8388   -1.3259   -2.9142 H   0  0  0  0  0  0  0  0  0  0  0  0
    1.0888    1.1683   -3.0514 H   0  0  0  0  0  0  0  0  0  0  0  0
    2.8388    1.1683   -3.0514 H   0  0  0  0  0  0  0  0  0  0  0  0
    2.8453    0.1090   -0.7701 H   0  0  0  0  0  0  0  0  0  0  0  0
    0.9060    0.0063   -0.6918 H   0  0  0  0  0  0  0  0  0  0  0  0
    1.9638    1.6375   -0.7611 H   0  0  0  0  0  0  0  0  0  0  0  0
   -0.1503   -0.6088   -0.2228 C   0  0  0  0  0  0  0  0  0  0  0  0
   -1.3075    0.3615   -0.0265 C   0  0  0  0  0  0  0  0  0  0  0  0
   -2.1076    0.0877    1.2306 C   0  0  0  0  0  0  0  0  0  0  0  0
   -1.2836    0.2659    2.3550 O   0  0  0  0  0  0  0  0  0  0  0  0
   -1.9354   -0.0026    3.5702 C   0  0  0  0  0  0  0  0  0  0  0  0
   -0.9645    0.2177    4.7071 C   0  0  0  0  0  0  0  0  0  0  0  0
    0.5458   -0.5538    0.6141 H   0  0  0  0  0  0  0  0  0  0  0  0
   -0.5120   -1.6377   -0.2918 H   0  0  0  0  0  0  0  0  0  0  0  0
   -1.9913    0.3089   -0.8783 H   0  0  0  0  0  0  0  0  0  0  0  0
   -0.9336    1.3877    0.0166 H   0  0  0  0  0  0  0  0  0  0  0  0
   -2.4994   -0.9417    1.2124 H   0  0  0  0  0  0  0  0  0  0  0  0
   -2.9719    0.7655    1.2877 H   0  0  0  0  0  0  0  0  0  0  0  0
   -2.8109    0.6546    3.6795 H   0  0  0  0  0  0  0  0  0  0  0  0
   -2.3056   -1.0384    3.5759 H   0  0  0  0  0  0  0  0  0  0  0  0
   -0.6075    1.2481    4.7105 H   0  0  0  0  0  0  0  0  0  0  0  0
   -1.4498    0.0153    5.6632 H   0  0  0  0  0  0  0  0  0  0  0  0
   -0.1036   -0.4444    4.6081 H   0  0  0  0  0  0  0  0  0  0  0  0
  1  2  1  0
  1  5  1  0
  1  6  1  0
  1  7  1  0
  2  3  1  0
  2  8  1  0
  2  9  1  0
  3  4  1  0
  3 10  1  0
  3 11  1  0
  4 12  1  0
  4 14  1  0
 13 15  1  0
 15 16  1  0
 15 21  1  0
 15 22  1  0
 16 17  1  0
 16 23  1  0
 16 24  1  0
 17 18  1  0
 17 25  1  0
 17 26  1  0
 18 19  1  0
 19 20  1  0
 19 27  1  0
 19 28  1  0
 20 29  1  0
 20 30  1  0
 20 31  1  0
M  RAD  1   4   2
M  END
>  <reaction>  (10) 
rmg_rxn_236

>  <mol_properties>  (10) 
{"2": {"label": "*0", "atom_type": "Cs"}, "3": {"label": "*1", "atom_type": "Cs"}, "12": {"label": "*2", "atom_type": "H0"}, "14": {"label": "*3", "atom_type": "Cs"}, "15": {"label": "*4", "atom_type": "Cs"}}

>  <type>  (10) 
unop_6

>  <geom_source>  (10) 
Heuristics

$$$$

     RDKit          3D

 31 29  0  0  0  0  0  0  0  0999 V2000
    1.5721   -0.2676   -4.9926 C   0  0  0  0  0  0  0  0  0  0  0  0
    1.5721   -0.2676   -3.4699 C   0  0  0  0  0  0  0  0  0  0  0  0
    1.5721    1.1348   -2.8725 C   0  0  0  0  0  0  0  0  0  0  0  0
    1.5721    1.1348   -1.3498 C   0  0  0  0  0  3  0  0  0  0  0  0
    2.4536    0.2457   -5.3839 H   0  0  0  0  0  0  0  0  0  0  0  0
    0.6906    0.2457   -5.3839 H   0  0  0  0  0  0  0  0  0  0  0  0
    1.5721   -1.2827   -5.3929 H   0  0  0  0  0  0  0  0  0  0  0  0
    0.6971   -0.8135   -3.1026 H   0  0  0  0  0  0  0  0  0  0  0  0
    2.4471   -0.8135   -3.1026 H   0  0  0  0  0  0  0  0  0  0  0  0
    0.6971    1.6806   -3.2398 H   0  0  0  0  0  0  0  0  0  0  0  0
    2.4471    1.6806   -3.2398 H   0  0  0  0  0  0  0  0  0  0  0  0
    2.4536    0.6214   -0.9584 H   0  0  0  0  0  0  0  0  0  0  0  0
    0.5143    0.5187   -0.8802 H   0  0  0  0  0  0  0  0  0  0  0  0
    1.5721    2.1499   -0.9494 H   0  0  0  0  0  0  0  0  0  0  0  0
   -0.5420   -0.0964   -0.4112 C   0  0  0  0  0  0  0  0  0  0  0  0
   -1.3835    0.8375    0.4484 C   0  0  0  0  0  0  0  0  0  0  0  0
   -1.9538    0.1621    1.6788 C   0  0  0  0  0  0  0  0  0  0  0  0
   -0.9011   -0.2549    2.5112 O   0  0  0  0  0  0  0  0  0  0  0  0
   -1.3374   -0.9264    3.6655 C   0  0  0  0  0  0  0  0  0  0  0  0
   -0.1327   -1.3293    4.4839 C   0  0  0  0  0  0  0  0  0  0  0  0
    0.3028   -0.4870    0.1561 H   0  0  0  0  0  0  0  0  0  0  0  0
   -1.1348   -0.9462   -0.7587 H   0  0  0  0  0  0  0  0  0  0  0  0
   -2.2190    1.2349   -0.1346 H   0  0  0  0  0  0  0  0  0  0  0  0
   -0.7849    1.6942    0.7686 H   0  0  0  0  0  0  0  0  0  0  0  0
   -2.5652   -0.7057    1.3845 H   0  0  0  0  0  0  0  0  0  0  0  0
   -2.6111    0.8553    2.2241 H   0  0  0  0  0  0  0  0  0  0  0  0
   -1.9995   -0.2725    4.2523 H   0  0  0  0  0  0  0  0  0  0  0  0
   -1.9248   -1.8128    3.3839 H   0  0  0  0  0  0  0  0  0  0  0  0
    0.4428   -0.4500    4.7753 H   0  0  0  0  0  0  0  0  0  0  0  0
   -0.4476   -1.8531    5.3878 H   0  0  0  0  0  0  0  0  0  0  0  0
    0.5166   -1.9902    3.9085 H   0  0  0  0  0  0  0  0  0  0  0  0
  1  2  1  0
  1  5  1  0
  1  6  1  0
  1  7  1  0
  2  3  1  0
  2  8  1  0
  2  9  1  0
  3  4  1  0
  3 10  1  0
  3 11  1  0
  4 12  1  0
  4 14  1  0
 13 15  1  0
 15 16  1  0
 15 21  1  0
 15 22  1  0
 16 17  1  0
 16 23  1  0
 16 24  1  0
 17 18  1  0
 17 25  1  0
 17 26  1  0
 18 19  1  0
 19 20  1  0
 19 27  1  0
 19 28  1  0
 20 29  1  0
 20 30  1  0
 20 31  1  0
M  RAD  1   4   2
M  END
>  <reaction>  (11) 
rmg_rxn_236

>  <mol_properties>  (11) 
{"2": {"label": "*0", "atom_type": "Cs"}, "3": {"label": "*1", "atom_type": "Cs"}, "12": {"label": "*2", "atom_type": "H0"}, "14": {"label": "*3", "atom_type": "Cs"}, "15": {"label": "*4", "atom_type": "Cs"}}

>  <type>  (11) 
unop_7

>  <geom_source>  (11) 
Heuristics

$$$$

     RDKit          3D

 31 29  0  0  0  0  0  0  0  0999 V2000
    2.1040    0.6393   -4.2895 C   0  0  0  0  0  0  0  0  0  0  0  0
    2.1040    0.6393   -2.7668 C   0  0  0  0  0  0  0  0  0  0  0  0
    2.1040    2.0417   -2.1694 C   0  0  0  0  0  0  0  0  0  0  0  0
    2.1040    2.0417   -0.6467 C   0  0  0  0  0  3  0  0  0  0  0  0
    2.9855    1.1527   -4.6809 H   0  0  0  0  0  0  0  0  0  0  0  0
    1.2225    1.1527   -4.6809 H   0  0  0  0  0  0  0  0  0  0  0  0
    2.1040   -0.3758   -4.6899 H   0  0  0  0  0  0  0  0  0  0  0  0
    1.2290    0.0934   -2.3995 H   0  0  0  0  0  0  0  0  0  0  0  0
    2.9790    0.0934   -2.3995 H   0  0  0  0  0  0  0  0  0  0  0  0
    1.2290    2.5876   -2.5368 H   0  0  0  0  0  0  0  0  0  0  0  0
    2.9790    2.5876   -2.5368 H   0  0  0  0  0  0  0  0  0  0  0  0
    2.9855    1.5284   -0.2554 H   0  0  0  0  0  0  0  0  0  0  0  0
    1.0462    1.4257   -0.1771 H   0  0  0  0  0  0  0  0  0  0  0  0
    2.1040    3.0568   -0.2464 H   0  0  0  0  0  0  0  0  0  0  0  0
   -0.0101    0.8106    0.2918 C   0  0  0  0  0  0  0  0  0  0  0  0
    0.2627   -0.6748    0.4882 C   0  0  0  0  0  0  0  0  0  0  0  0
   -0.3579   -1.2321    1.7529 C   0  0  0  0  0  0  0  0  0  0  0  0
   -1.7566   -1.1228    1.6727 O   0  0  0  0  0  0  0  0  0  0  0  0
   -2.4175   -1.5851    2.8229 C   0  0  0  0  0  0  0  0  0  0  0  0
   -3.9076   -1.4218    2.6319 C   0  0  0  0  0  0  0  0  0  0  0  0
   -1.0814    1.0015    0.2299 H   0  0  0  0  0  0  0  0  0  0  0  0
    0.3872    1.3934    1.1267 H   0  0  0  0  0  0  0  0  0  0  0  0
    1.3400   -0.8567    0.5339 H   0  0  0  0  0  0  0  0  0  0  0  0
   -0.1184   -1.2423   -0.3648 H   0  0  0  0  0  0  0  0  0  0  0  0
    0.0116   -0.6788    2.6308 H   0  0  0  0  0  0  0  0  0  0  0  0
   -0.0710   -2.2856    1.8861 H   0  0  0  0  0  0  0  0  0  0  0  0
   -2.1662   -2.6413    3.0009 H   0  0  0  0  0  0  0  0  0  0  0  0
   -2.0783   -1.0191    3.7029 H   0  0  0  0  0  0  0  0  0  0  0  0
   -4.2471   -1.9938    1.7677 H   0  0  0  0  0  0  0  0  0  0  0  0
   -4.4429   -1.7757    3.5144 H   0  0  0  0  0  0  0  0  0  0  0  0
   -4.1596   -0.3730    2.4709 H   0  0  0  0  0  0  0  0  0  0  0  0
  1  2  1  0
  1  5  1  0
  1  6  1  0
  1  7  1  0
  2  3  1  0
  2  8  1  0
  2  9  1  0
  3  4  1  0
  3 10  1  0
  3 11  1  0
  4 12  1  0
  4 14  1  0
 13 15  1  0
 15 16  1  0
 15 21  1  0
 15 22  1  0
 16 17  1  0
 16 23  1  0
 16 24  1  0
 17 18  1  0
 17 25  1  0
 17 26  1  0
 18 19  1  0
 19 20  1  0
 19 27  1  0
 19 28  1  0
 20 29  1  0
 20 30  1  0
 20 31  1  0
M  RAD  1   4   2
M  END
>  <reaction>  (12) 
rmg_rxn_236

>  <mol_properties>  (12) 
{"2": {"label": "*0", "atom_type": "Cs"}, "3": {"label": "*1", "atom_type": "Cs"}, "12": {"label": "*2", "atom_type": "H0"}, "14": {"label": "*3", "atom_type": "Cs"}, "15": {"label": "*4", "atom_type": "Cs"}}

>  <type>  (12) 
unop_8

>  <geom_source>  (12) 
Heuristics

$$$$

     RDKit          3D

 31 29  0  0  0  0  0  0  0  0999 V2000
    2.7495   -0.6726   -3.8313 C   0  0  0  0  0  0  0  0  0  0  0  0
    2.7495   -0.6726   -2.3086 C   0  0  0  0  0  0  0  0  0  0  0  0
    2.7495    0.7297   -1.7112 C   0  0  0  0  0  0  0  0  0  0  0  0
    2.7495    0.7297   -0.1885 C   0  0  0  0  0  3  0  0  0  0  0  0
    3.6311   -0.1593   -4.2226 H   0  0  0  0  0  0  0  0  0  0  0  0
    1.8680   -0.1593   -4.2226 H   0  0  0  0  0  0  0  0  0  0  0  0
    2.7495   -1.6877   -4.2316 H   0  0  0  0  0  0  0  0  0  0  0  0
    1.8745   -1.2185   -1.9412 H   0  0  0  0  0  0  0  0  0  0  0  0
    3.6246   -1.2185   -1.9412 H   0  0  0  0  0  0  0  0  0  0  0  0
    1.8745    1.2756   -2.0785 H   0  0  0  0  0  0  0  0  0  0  0  0
    3.6246    1.2756   -2.0785 H   0  0  0  0  0  0  0  0  0  0  0  0
    3.6311    0.2164    0.2029 H   0  0  0  0  0  0  0  0  0  0  0  0
    1.6917    0.1137    0.2811 H   0  0  0  0  0  0  0  0  0  0  0  0
    2.7495    1.7448    0.2119 H   0  0  0  0  0  0  0  0  0  0  0  0
    0.6355   -0.5014    0.7501 C   0  0  0  0  0  0  0  0  0  0  0  0
   -0.5452   -0.3668   -0.2024 C   0  0  0  0  0  0  0  0  0  0  0  0
   -1.8767   -0.6714    0.4529 C   0  0  0  0  0  0  0  0  0  0  0  0
   -2.1187    0.2647    1.4728 O   0  0  0  0  0  0  0  0  0  0  0  0
   -3.3213    0.0373    2.1625 C   0  0  0  0  0  0  0  0  0  0  0  0
   -3.4816    1.0936    3.2312 C   0  0  0  0  0  0  0  0  0  0  0  0
    0.5325    0.1834    1.5918 H   0  0  0  0  0  0  0  0  0  0  0  0
    0.7003   -1.5167    1.1493 H   0  0  0  0  0  0  0  0  0  0  0  0
   -0.4242   -1.0471   -1.0500 H   0  0  0  0  0  0  0  0  0  0  0  0
   -0.5834    0.6459   -0.6120 H   0  0  0  0  0  0  0  0  0  0  0  0
   -1.8670   -1.6895    0.8732 H   0  0  0  0  0  0  0  0  0  0  0  0
   -2.6857   -0.6327   -0.2914 H   0  0  0  0  0  0  0  0  0  0  0  0
   -4.1680    0.0689    1.4607 H   0  0  0  0  0  0  0  0  0  0  0  0
   -3.3113   -0.9665    2.6123 H   0  0  0  0  0  0  0  0  0  0  0  0
   -3.5056    2.0883    2.7848 H   0  0  0  0  0  0  0  0  0  0  0  0
   -4.4112    0.9373    3.7808 H   0  0  0  0  0  0  0  0  0  0  0  0
   -2.6507    1.0528    3.9364 H   0  0  0  0  0  0  0  0  0  0  0  0
  1  2  1  0
  1  5  1  0
  1  6  1  0
  1  7  1  0
  2  3  1  0
  2  8  1  0
  2  9  1  0
  3  4  1  0
  3 10  1  0
  3 11  1  0
  4 12  1  0
  4 14  1  0
 13 15  1  0
 15 16  1  0
 15 21  1  0
 15 22  1  0
 16 17  1  0
 16 23  1  0
 16 24  1  0
 17 18  1  0
 17 25  1  0
 17 26  1  0
 18 19  1  0
 19 20  1  0
 19 27  1  0
 19 28  1  0
 20 29  1  0
 20 30  1  0
 20 31  1  0
M  RAD  1   4   2
M  END
>  <reaction>  (13) 
rmg_rxn_236

>  <mol_properties>  (13) 
{"2": {"label": "*0", "atom_type": "Cs"}, "3": {"label": "*1", "atom_type": "Cs"}, "12": {"label": "*2", "atom_type": "H0"}, "14": {"label": "*3", "atom_type": "Cs"}, "15": {"label": "*4", "atom_type": "Cs"}}

>  <type>  (13) 
unop_9

>  <geom_source>  (13) 
Heuristics

$$$$

     RDKit          3D

 31 29  0  0  0  0  0  0  0  0999 V2000
    2.2499    0.7319   -3.9212 C   0  0  0  0  0  0  0  0  0  0  0  0
    2.2499    0.7319   -2.3985 C   0  0  0  0  0  0  0  0  0  0  0  0
    2.2499    2.1342   -1.8012 C   0  0  0  0  0  0  0  0  0  0  0  0
    2.2499    2.1342   -0.2785 C   0  0  0  0  0  3  0  0  0  0  0  0
    3.1314    1.2452   -4.3126 H   0  0  0  0  0  0  0  0  0  0  0  0
    1.3683    1.2452   -4.3126 H   0  0  0  0  0  0  0  0  0  0  0  0
    2.2499   -0.2833   -4.3216 H   0  0  0  0  0  0  0  0  0  0  0  0
    1.3748    0.1860   -2.0312 H   0  0  0  0  0  0  0  0  0  0  0  0
    3.1249    0.1860   -2.0312 H   0  0  0  0  0  0  0  0  0  0  0  0
    1.3748    2.6801   -2.1685 H   0  0  0  0  0  0  0  0  0  0  0  0
    3.1249    2.6801   -2.1685 H   0  0  0  0  0  0  0  0  0  0  0  0
    3.1314    1.6209    0.1129 H   0  0  0  0  0  0  0  0  0  0  0  0
    1.1920    1.5182    0.1912 H   0  0  0  0  0  0  0  0  0  0  0  0
    2.2499    3.1493    0.1219 H   0  0  0  0  0  0  0  0  0  0  0  0
    0.1358    0.9031    0.6601 C   0  0  0  0  0  0  0  0  0  0  0  0
    0.0929   -0.5458    0.1932 C   0  0  0  0  0  0  0  0  0  0  0  0
   -0.5486   -1.4776    1.2010 C   0  0  0  0  0  0  0  0  0  0  0  0
   -1.8926   -1.1106    1.3849 O   0  0  0  0  0  0  0  0  0  0  0  0
   -2.5604   -1.9022    2.3341 C   0  0  0  0  0  0  0  0  0  0  0  0
   -3.9891   -1.4247    2.4539 C   0  0  0  0  0  0  0  0  0  0  0  0
   -0.8705    1.2794    0.8440 H   0  0  0  0  0  0  0  0  0  0  0  0
    0.7042    0.9965    1.5889 H   0  0  0  0  0  0  0  0  0  0  0  0
    1.1059   -0.9083   -0.0025 H   0  0  0  0  0  0  0  0  0  0  0  0
   -0.4577   -0.6206   -0.7482 H   0  0  0  0  0  0  0  0  0  0  0  0
   -0.0108   -1.4240    2.1609 H   0  0  0  0  0  0  0  0  0  0  0  0
   -0.4885   -2.5183    0.8502 H   0  0  0  0  0  0  0  0  0  0  0  0
   -2.5325   -2.9586    2.0281 H   0  0  0  0  0  0  0  0  0  0  0  0
   -2.0492   -1.8333    3.3057 H   0  0  0  0  0  0  0  0  0  0  0  0
   -4.5007   -1.5056    1.4942 H   0  0  0  0  0  0  0  0  0  0  0  0
   -4.5287   -2.0265    3.1868 H   0  0  0  0  0  0  0  0  0  0  0  0
   -4.0180   -0.3820    2.7724 H   0  0  0  0  0  0  0  0  0  0  0  0
  1  2  1  0
  1  5  1  0
  1  6  1  0
  1  7  1  0
  2  3  1  0
  2  8  1  0
  2  9  1  0
  3  4  1  0
  3 10  1  0
  3 11  1  0
  4 12  1  0
  4 14  1  0
 13 15  1  0
 15 16  1  0
 15 21  1  0
 15 22  1  0
 16 17  1  0
 16 23  1  0
 16 24  1  0
 17 18  1  0
 17 25  1  0
 17 26  1  0
 18 19  1  0
 19 20  1  0
 19 27  1  0
 19 28  1  0
 20 29  1  0
 20 30  1  0
 20 31  1  0
M  RAD  1   4   2
M  END
>  <reaction>  (14) 
rmg_rxn_236

>  <mol_properties>  (14) 
{"2": {"label": "*0", "atom_type": "Cs"}, "3": {"label": "*1", "atom_type": "Cs"}, "12": {"label": "*2", "atom_type": "H0"}, "14": {"label": "*3", "atom_type": "Cs"}, "15": {"label": "*4", "atom_type": "Cs"}}

>  <type>  (14) 
unop_10

>  <geom_source>  (14) 
Heuristics

$$$$

     RDKit          3D

 31 29  0  0  0  0  0  0  0  0999 V2000
    1.5099    0.3763   -4.8066 C   0  0  0  0  0  0  0  0  0  0  0  0
    1.5099    0.3763   -3.2839 C   0  0  0  0  0  0  0  0  0  0  0  0
    1.5099    1.7787   -2.6865 C   0  0  0  0  0  0  0  0  0  0  0  0
    1.5099    1.7787   -1.1638 C   0  0  0  0  0  3  0  0  0  0  0  0
    2.3915    0.8897   -5.1979 H   0  0  0  0  0  0  0  0  0  0  0  0
    0.6284    0.8897   -5.1979 H   0  0  0  0  0  0  0  0  0  0  0  0
    1.5099   -0.6388   -5.2069 H   0  0  0  0  0  0  0  0  0  0  0  0
    0.6349   -0.1696   -2.9166 H   0  0  0  0  0  0  0  0  0  0  0  0
    2.3850   -0.1696   -2.9166 H   0  0  0  0  0  0  0  0  0  0  0  0
    0.6349    2.3246   -3.0538 H   0  0  0  0  0  0  0  0  0  0  0  0
    2.3850    2.3246   -3.0538 H   0  0  0  0  0  0  0  0  0  0  0  0
    2.3915    1.2653   -0.7724 H   0  0  0  0  0  0  0  0  0  0  0  0
    0.4521    1.1627   -0.6942 H   0  0  0  0  0  0  0  0  0  0  0  0
    1.5099    2.7938   -0.7634 H   0  0  0  0  0  0  0  0  0  0  0  0
   -0.6042    0.5476   -0.2252 C   0  0  0  0  0  0  0  0  0  0  0  0
   -1.0230    1.1257    1.1199 C   0  0  0  0  0  0  0  0  0  0  0  0
   -1.7233    0.1186    2.0090 C   0  0  0  0  0  0  0  0  0  0  0  0
   -0.8357   -0.9261    2.3183 O   0  0  0  0  0  0  0  0  0  0  0  0
   -1.4133   -1.9294    3.1141 C   0  0  0  0  0  0  0  0  0  0  0  0
   -0.3792   -2.9975    3.3848 C   0  0  0  0  0  0  0  0  0  0  0  0
    0.0833   -0.2873   -0.0894 H   0  0  0  0  0  0  0  0  0  0  0  0
   -1.4721    0.1812   -0.7791 H   0  0  0  0  0  0  0  0  0  0  0  0
   -1.7003    1.9714    0.9716 H   0  0  0  0  0  0  0  0  0  0  0  0
   -0.1488    1.5097    1.6520 H   0  0  0  0  0  0  0  0  0  0  0  0
   -2.6120   -0.2838    1.4972 H   0  0  0  0  0  0  0  0  0  0  0  0
   -2.0699    0.6025    2.9339 H   0  0  0  0  0  0  0  0  0  0  0  0
   -1.7757   -1.4970    4.0585 H   0  0  0  0  0  0  0  0  0  0  0  0
   -2.2852   -2.3600    2.5998 H   0  0  0  0  0  0  0  0  0  0  0  0
    0.4796   -2.5743    3.9069 H   0  0  0  0  0  0  0  0  0  0  0  0
   -0.8058   -3.7889    4.0030 H   0  0  0  0  0  0  0  0  0  0  0  0
   -0.0307   -3.4377    2.4498 H   0  0  0  0  0  0  0  0  0  0  0  0
  1  2  1  0
  1  5  1  0
  1  6  1  0
  1  7  1  0
  2  3  1  0
  2  8  1  0
  2  9  1  0
  3  4  1  0
  3 10  1  0
  3 11  1  0
  4 12  1  0
  4 14  1  0
 13 15  1  0
 15 16  1  0
 15 21  1  0
 15 22  1  0
 16 17  1  0
 16 23  1  0
 16 24  1  0
 17 18  1  0
 17 25  1  0
 17 26  1  0
 18 19  1  0
 19 20  1  0
 19 27  1  0
 19 28  1  0
 20 29  1  0
 20 30  1  0
 20 31  1  0
M  RAD  1   4   2
M  END
>  <reaction>  (15) 
rmg_rxn_236

>  <mol_properties>  (15) 
{"2": {"label": "*0", "atom_type": "Cs"}, "3": {"label": "*1", "atom_type": "Cs"}, "12": {"label": "*2", "atom_type": "H0"}, "14": {"label": "*3", "atom_type": "Cs"}, "15": {"label": "*4", "atom_type": "Cs"}}

>  <type>  (15) 
unop_11

>  <geom_source>  (15) 
Heuristics

$$$$

     RDKit          3D

 31 29  0  0  0  0  0  0  0  0999 V2000
    2.7885   -0.0811   -3.5175 C   0  0  0  0  0  0  0  0  0  0  0  0
    2.7885   -0.0811   -1.9948 C   0  0  0  0  0  0  0  0  0  0  0  0
    2.7885    1.3213   -1.3974 C   0  0  0  0  0  0  0  0  0  0  0  0
    2.7885    1.3213    0.1253 C   0  0  0  0  0  3  0  0  0  0  0  0
    3.6700    0.4323   -3.9089 H   0  0  0  0  0  0  0  0  0  0  0  0
    1.9069    0.4323   -3.9089 H   0  0  0  0  0  0  0  0  0  0  0  0
    2.7885   -1.0962   -3.9179 H   0  0  0  0  0  0  0  0  0  0  0  0
    1.9134   -0.6270   -1.6275 H   0  0  0  0  0  0  0  0  0  0  0  0
    3.6635   -0.6270   -1.6275 H   0  0  0  0  0  0  0  0  0  0  0  0
    1.9134    1.8672   -1.7647 H   0  0  0  0  0  0  0  0  0  0  0  0
    3.6635    1.8672   -1.7647 H   0  0  0  0  0  0  0  0  0  0  0  0
    3.6700    0.8080    0.5166 H   0  0  0  0  0  0  0  0  0  0  0  0
    1.7306    0.7053    0.5949 H   0  0  0  0  0  0  0  0  0  0  0  0
    2.7885    2.3364    0.5256 H   0  0  0  0  0  0  0  0  0  0  0  0
    0.6744    0.0902    1.0639 C   0  0  0  0  0  0  0  0  0  0  0  0
   -0.2077   -0.4235   -0.0664 C   0  0  0  0  0  0  0  0  0  0  0  0
   -1.4422   -1.1511    0.4253 C   0  0  0  0  0  0  0  0  0  0  0  0
   -2.2525   -0.2581    1.1472 O   0  0  0  0  0  0  0  0  0  0  0  0
   -3.4086   -0.8577    1.6739 C   0  0  0  0  0  0  0  0  0  0  0  0
   -4.2023    0.1843    2.4273 C   0  0  0  0  0  0  0  0  0  0  0  0
    0.1252    0.7887    1.6952 H   0  0  0  0  0  0  0  0  0  0  0  0
    1.0185   -0.7333    1.6946 H   0  0  0  0  0  0  0  0  0  0  0  0
    0.3573   -1.1113   -0.7016 H   0  0  0  0  0  0  0  0  0  0  0  0
   -0.5245    0.4072   -0.7023 H   0  0  0  0  0  0  0  0  0  0  0  0
   -1.1514   -1.9969    1.0684 H   0  0  0  0  0  0  0  0  0  0  0  0
   -2.0047   -1.5649   -0.4245 H   0  0  0  0  0  0  0  0  0  0  0  0
   -4.0123   -1.2872    0.8606 H   0  0  0  0  0  0  0  0  0  0  0  0
   -3.1299   -1.6860    2.3420 H   0  0  0  0  0  0  0  0  0  0  0  0
   -4.4909    0.9992    1.7624 H   0  0  0  0  0  0  0  0  0  0  0  0
   -5.1072   -0.2592    2.8458 H   0  0  0  0  0  0  0  0  0  0  0  0
   -3.6101    0.5995    3.2435 H   0  0  0  0  0  0  0  0  0  0  0  0
  1  2  1  0
  1  5  1  0
  1  6  1  0
  1  7  1  0
  2  3  1  0
  2  8  1  0
  2  9  1  0
  3  4  1  0
  3 10  1  0
  3 11  1  0
  4 12  1  0
  4 14  1  0
 13 15  1  0
 15 16  1  0
 15 21  1  0
 15 22  1  0
 16 17  1  0
 16 23  1  0
 16 24  1  0
 17 18  1  0
 17 25  1  0
 17 26  1  0
 18 19  1  0
 19 20  1  0
 19 27  1  0
 19 28  1  0
 20 29  1  0
 20 30  1  0
 20 31  1  0
M  RAD  1   4   2
M  END
>  <reaction>  (16) 
rmg_rxn_236

>  <mol_properties>  (16) 
{"2": {"label": "*0", "atom_type": "Cs"}, "3": {"label": "*1", "atom_type": "Cs"}, "12": {"label": "*2", "atom_type": "H0"}, "14": {"label": "*3", "atom_type": "Cs"}, "15": {"label": "*4", "atom_type": "Cs"}}

>  <type>  (16) 
unop_12

>  <geom_source>  (16) 
Heuristics

$$$$

     RDKit          3D

 31 29  0  0  0  0  0  0  0  0999 V2000
   -3.4249    0.3414   -0.4181 O   0  0  0  0  0  0  0  0  0  0  0  0
    3.6788   -0.1192   -0.8306 C   0  0  0  0  0  0  0  0  0  0  0  0
   -1.5865   -1.1870   -0.0534 C   0  0  0  0  0  0  0  0  0  0  0  0
    2.1473   -0.0908   -0.7217 C   0  0  0  0  0  0  0  0  0  0  0  0
   -2.0213    0.1989   -0.5387 C   0  0  0  0  0  0  0  0  0  0  0  0
   -3.7802    0.9351    0.8172 C   0  0  0  0  0  0  0  0  0  0  0  0
   -0.0863   -1.3885   -0.2362 C   0  0  0  0  0  0  0  0  0  0  0  0
    4.3028   -1.2750   -0.0492 C   0  0  0  0  0  0  0  0  0  0  0  0
   -3.9172    2.4456    0.6602 C   0  0  0  0  0  0  0  0  0  0  0  0
    1.6639    0.3071    0.6698 C   0  0  0  0  0  3  0  0  0  0  0  0
   -2.1320   -1.9680   -0.6263 H   0  0  0  0  0  0  0  0  0  0  0  0
   -1.8349   -1.3041    1.0227 H   0  0  0  0  0  0  0  0  0  0  0  0
    4.1054    0.8440   -0.4754 H   0  0  0  0  0  0  0  0  0  0  0  0
    3.9528   -0.2339   -1.9017 H   0  0  0  0  0  0  0  0  0  0  0  0
    1.7233   -1.0820   -0.9915 H   0  0  0  0  0  0  0  0  0  0  0  0
    1.7536    0.6525   -1.4474 H   0  0  0  0  0  0  0  0  0  0  0  0
   -1.7649    0.2934   -1.6155 H   0  0  0  0  0  0  0  0  0  0  0  0
   -1.4512    0.9983   -0.0088 H   0  0  0  0  0  0  0  0  0  0  0  0
   -3.0726    0.6970    1.6457 H   0  0  0  0  0  0  0  0  0  0  0  0
   -4.7676    0.5282    1.1214 H   0  0  0  0  0  0  0  0  0  0  0  0
    0.1869   -1.3083   -1.3099 H   0  0  0  0  0  0  0  0  0  0  0  0
    0.2015   -2.3965    0.1300 H   0  0  0  0  0  0  0  0  0  0  0  0
    0.5834   -0.4749    0.4581 H   0  0  0  0  0  0  0  0  0  0  0  0
   -4.2613    2.8914    1.6171 H   0  0  0  0  0  0  0  0  0  0  0  0
   -2.9402    2.8965    0.3876 H   0  0  0  0  0  0  0  0  0  0  0  0
   -4.6592    2.6791   -0.1325 H   0  0  0  0  0  0  0  0  0  0  0  0
    4.1513   -1.1383    1.0416 H   0  0  0  0  0  0  0  0  0  0  0  0
    5.3952   -1.3059   -0.2460 H   0  0  0  0  0  0  0  0  0  0  0  0
    3.8592   -2.2426   -0.3665 H   0  0  0  0  0  0  0  0  0  0  0  0
    2.0954    1.2829    0.9785 H   0  0  0  0  0  0  0  0  0  0  0  0
    1.8998   -0.4764    1.4195 H   0  0  0  0  0  0  0  0  0  0  0  0
  1  6  1  0
  1  5  1  0
  2  8  1  0
  2  4  1  0
  2 13  1  0
  2 14  1  0
  3  7  1  0
  3  5  1  0
  3 11  1  0
  3 12  1  0
  4 10  1  0
  4 15  1  0
  4 16  1  0
  5 17  1  0
  5 18  1  0
  6  9  1  0
  6 19  1  0
  6 20  1  0
  7 21  1  0
  7 22  1  0
  7 23  1  0
  8 27  1  0
  8 28  1  0
  8 29  1  0
  9 24  1  0
  9 25  1  0
  9 26  1  0
 10 30  1  0
 10 31  1  0
M  RAD  1  10   2
M  END
>  <reaction>  (17) 
rmg_rxn_236

>  <mol_properties>  (17) 
{"2": {"label": "*0", "atom_type": "Cs"}, "3": {"label": "*1", "atom_type": "Cs"}, "12": {"label": "*2", "atom_type": "H0"}, "14": {"label": "*3", "atom_type": "Cs"}, "15": {"label": "*4", "atom_type": "Cs"}}

>  <type>  (17) 
unop_13

>  <geom_source>  (17) 
AutoTST

$$$$

     RDKit          3D

 31 29  0  0  0  0  0  0  0  0999 V2000
    2.5468    0.4880   -3.5793 C   0  0  0  0  0  0  0  0  0  0  0  0
    2.5468    0.4880   -2.0566 C   0  0  0  0  0  0  0  0  0  0  0  0
    2.5468    1.8904   -1.4593 C   0  0  0  0  0  0  0  0  0  0  0  0
    2.5468    1.8904    0.0634 C   0  0  0  0  0  3  0  0  0  0  0  0
    3.4283    1.0014   -3.9707 H   0  0  0  0  0  0  0  0  0  0  0  0
    1.6653    1.0014   -3.9707 H   0  0  0  0  0  0  0  0  0  0  0  0
    2.5468   -0.5271   -3.9797 H   0  0  0  0  0  0  0  0  0  0  0  0
    1.6717   -0.0578   -1.6893 H   0  0  0  0  0  0  0  0  0  0  0  0
    3.4218   -0.0578   -1.6893 H   0  0  0  0  0  0  0  0  0  0  0  0
    1.6717    2.4363   -1.8266 H   0  0  0  0  0  0  0  0  0  0  0  0
    3.4218    2.4363   -1.8266 H   0  0  0  0  0  0  0  0  0  0  0  0
    3.4283    1.3771    0.4548 H   0  0  0  0  0  0  0  0  0  0  0  0
    1.4889    1.2744    0.5331 H   0  0  0  0  0  0  0  0  0  0  0  0
    2.5468    2.9055    0.4638 H   0  0  0  0  0  0  0  0  0  0  0  0
    0.4327    0.6593    1.0020 C   0  0  0  0  0  0  0  0  0  0  0  0
   -0.0329   -0.4340    0.0495 C   0  0  0  0  0  0  0  0  0  0  0  0
   -0.9430   -1.4501    0.7086 C   0  0  0  0  0  0  0  0  0  0  0  0
   -2.1190   -0.8121    1.1388 O   0  0  0  0  0  0  0  0  0  0  0  0
   -3.0111   -1.6752    1.7967 C   0  0  0  0  0  0  0  0  0  0  0  0
   -4.2334   -0.8915    2.2155 C   0  0  0  0  0  0  0  0  0  0  0  0
   -0.4182    1.2094    1.4038 H   0  0  0  0  0  0  0  0  0  0  0  0
    0.9850    0.2336    1.8435 H   0  0  0  0  0  0  0  0  0  0  0  0
    0.8288   -0.9693   -0.3588 H   0  0  0  0  0  0  0  0  0  0  0  0
   -0.5624    0.0077   -0.7986 H   0  0  0  0  0  0  0  0  0  0  0  0
   -0.4324   -1.9139    1.5674 H   0  0  0  0  0  0  0  0  0  0  0  0
   -1.1904   -2.2555    0.0015 H   0  0  0  0  0  0  0  0  0  0  0  0
   -3.2948   -2.5019    1.1285 H   0  0  0  0  0  0  0  0  0  0  0  0
   -2.5215   -2.1221    2.6745 H   0  0  0  0  0  0  0  0  0  0  0  0
   -4.7273   -0.4595    1.3444 H   0  0  0  0  0  0  0  0  0  0  0  0
   -4.9424   -1.5428    2.7291 H   0  0  0  0  0  0  0  0  0  0  0  0
   -3.9551   -0.0813    2.8903 H   0  0  0  0  0  0  0  0  0  0  0  0
  1  2  1  0
  1  5  1  0
  1  6  1  0
  1  7  1  0
  2  3  1  0
  2  8  1  0
  2  9  1  0
  3  4  1  0
  3 10  1  0
  3 11  1  0
  4 12  1  0
  4 14  1  0
 13 15  1  0
 15 16  1  0
 15 21  1  0
 15 22  1  0
 16 17  1  0
 16 23  1  0
 16 24  1  0
 17 18  1  0
 17 25  1  0
 17 26  1  0
 18 19  1  0
 19 20  1  0
 19 27  1  0
 19 28  1  0
 20 29  1  0
 20 30  1  0
 20 31  1  0
M  RAD  1   4   2
M  END
>  <reaction>  (18) 
rmg_rxn_236

>  <mol_properties>  (18) 
{"2": {"label": "*0", "atom_type": "Cs"}, "3": {"label": "*1", "atom_type": "Cs"}, "12": {"label": "*2", "atom_type": "H0"}, "14": {"label": "*3", "atom_type": "Cs"}, "15": {"label": "*4", "atom_type": "Cs"}}

>  <type>  (18) 
unop_14

>  <geom_source>  (18) 
gaussian_log

$$$$
