
     RDKit          3D

  5  4  0  0  0  0  0  0  0  0999 V2000
   -0.4583    0.0384    0.1517 N   0  0  0  0  0  0  0  0  0  0  0  0
    0.7454   -0.3487    0.5322 N   0  0  0  0  0  0  0  0  0  0  0  0
    0.7566   -1.0388    1.5193 O   0  0  0  0  0  0  0  0  0  0  0  0
   -1.2688   -0.2521    0.6850 H   0  0  0  0  0  0  0  0  0  0  0  0
   -0.5137    0.6154   -0.6670 H   0  0  0  0  0  0  0  0  0  0  0  0
  1  2  1  0
  1  4  1  0
  1  5  1  0
  2  3  2  0
M  END
>  <reaction>  (1) 
rmg_rxn_16654

>  <mol_properties>  (1) 
{"0": {"label": "donator", "atom_type": "N3s"}, "3": {"label": "d_hydrogen", "atom_type": "H0"}}

>  <type>  (1) 
r1h

$$$$

     RDKit          3D

  7  6  0  0  0  0  0  0  0  0999 V2000
   -0.8566   -0.1293   -0.1363 C   0  0  0  0  0  0  0  0  0  0  0  0
    0.5139   -0.3681    0.3798 C   0  0  0  0  0  3  0  0  0  0  0  0
    1.4482    0.4197    0.5295 N   0  0  0  0  0  0  0  0  0  0  0  0
   -1.0339   -0.7591   -1.0090 H   0  0  0  0  0  0  0  0  0  0  0  0
   -1.5877   -0.4123    0.6220 H   0  0  0  0  0  0  0  0  0  0  0  0
   -0.9972    0.9210   -0.4074 H   0  0  0  0  0  0  0  0  0  0  0  0
    2.3183    0.0492    0.9037 H   0  0  0  0  0  0  0  0  0  0  0  0
  1  2  1  0
  1  4  1  0
  1  5  1  0
  1  6  1  0
  2  3  2  3
  3  7  1  0
M  RAD  1   2   2
M  END
>  <reaction>  (2) 
rmg_rxn_16654

>  <mol_properties>  (2) 
{"1": {"label": "acceptor", "atom_type": "Cd"}}

>  <type>  (2) 
r2

$$$$

     RDKit          3D

  8  7  0  0  0  0  0  0  0  0999 V2000
    0.9548    0.1194   -0.0790 C   0  0  0  0  0  0  0  0  0  0  0  0
   -0.4838   -0.2649    0.0193 C   0  0  0  0  0  0  0  0  0  0  0  0
   -0.8933   -1.1081    0.8664 N   0  0  0  0  0  0  0  0  0  0  0  0
    1.3360   -0.0983   -1.0800 H   0  0  0  0  0  0  0  0  0  0  0  0
    1.0698    1.1948    0.0786 H   0  0  0  0  0  0  0  0  0  0  0  0
    1.5426   -0.4219    0.6602 H   0  0  0  0  0  0  0  0  0  0  0  0
   -1.1575    0.2324   -0.6905 H   0  0  0  0  0  0  0  0  0  0  0  0
   -1.8989   -1.2455    0.7886 H   0  0  0  0  0  0  0  0  0  0  0  0
  1  2  1  0
  1  4  1  0
  1  5  1  0
  1  6  1  0
  2  3  2  3
  2  7  1  0
  3  8  1  0
M  END
>  <reaction>  (3) 
rmg_rxn_16654

>  <mol_properties>  (3) 
{"0": {"label": "a_hydrogen", "atom_type": "H0"}, "2": {"label": "acceptor", "atom_type": "Cd"}}

>  <type>  (3) 
r2h

$$$$

     RDKit          3D

 12 10  0  0  0  0  0  0  0  0999 V2000
    0.9836    1.1004   -0.4652 N   0  0  0  0  0  0  0  0  0  0  0  0
    1.8979    0.4252    0.1254 N   0  0  0  0  0  0  0  0  0  0  0  0
    1.5773   -0.3714    0.9763 O   0  0  0  0  0  0  0  0  0  0  0  0
   -0.2251    0.6306   -0.2722 H   0  0  0  0  0  0  0  0  0  0  0  0
    1.3306    1.6232   -1.2610 H   0  0  0  0  0  0  0  0  0  0  0  0
   -1.4311   -1.3820   -0.4552 C   0  0  0  0  0  0  0  0  0  0  0  0
   -1.3785    0.0294    0.0127 C   0  0  0  0  0  3  0  0  0  0  0  0
   -2.2588    0.6569    0.6180 N   0  0  0  0  0  0  0  0  0  0  0  0
   -2.4065   -1.8211   -0.2449 H   0  0  0  0  0  0  0  0  0  0  0  0
   -1.2247   -1.4270   -1.5258 H   0  0  0  0  0  0  0  0  0  0  0  0
   -0.6460   -1.9433    0.0539 H   0  0  0  0  0  0  0  0  0  0  0  0
   -2.0295    1.6102    0.8873 H   0  0  0  0  0  0  0  0  0  0  0  0
  1  2  1  0
  1  4  1  0
  1  5  1  0
  2  3  2  0
  6  7  1  0
  6  9  1  0
  6 10  1  0
  6 11  1  0
  7  8  2  3
  8 12  1  0
M  RAD  1   7   2
M  END
>  <reaction>  (4) 
rmg_rxn_16654

>  <mol_properties>  (4) 
{"0": {"label": "*1", "atom_type": "N3s"}, "1": {"label": "*0", "atom_type": "N3d"}, "3": {"label": "*2", "atom_type": "H0"}, "6": {"label": "*3", "atom_type": "Cd"}, "7": {"label": "*4", "atom_type": "N3d"}}

>  <type>  (4) 
ts

$$$$

     RDKit          3D

 12 10  0  0  0  0  0  0  0  0999 V2000
    0.9936    1.0078   -0.3467 N   0  0  0  0  0  0  0  0  0  0  0  0
    1.9994    0.3205   -0.0381 N   0  0  0  0  0  0  0  0  0  0  0  0
    1.9305   -0.8139    0.3910 O   0  0  0  0  0  1  0  0  0  0  0  0
   -0.2371    0.6038   -0.2081 H   0  0  0  0  0  0  0  0  0  0  0  0
    1.2163    1.9386   -0.6844 H   0  0  0  0  0  0  0  0  0  0  0  0
   -1.4175   -1.3530   -0.3229 C   0  0  0  0  0  0  0  0  0  0  0  0
   -1.3956    0.0976   -0.0329 C   0  0  0  0  0  0  0  0  0  0  0  0
   -2.3877    0.7405    0.3552 N   0  0  0  0  0  0  0  0  0  0  0  0
   -2.3930   -1.7860   -0.1097 H   0  0  0  0  0  0  0  0  0  0  0  0
   -1.1661   -1.5131   -1.3707 H   0  0  0  0  0  0  0  0  0  0  0  0
   -0.6493   -1.8442    0.2732 H   0  0  0  0  0  0  0  0  0  0  0  0
   -2.3040    1.7326    0.5431 H   0  0  0  0  0  0  0  0  0  0  0  0
  1  2  2  3
  1  5  1  0
  2  3  1  0
  4  7  1  0
  6  7  1  0
  6  9  1  0
  6 10  1  0
  6 11  1  0
  7  8  2  3
  8 12  1  0
M  RAD  1   3   2
M  END
>  <reaction>  (5) 
rmg_rxn_16654

>  <mol_properties>  (5) 
{"0": {"label": "*1", "atom_type": "N3s"}, "1": {"label": "*0", "atom_type": "N3d"}, "3": {"label": "*2", "atom_type": "H0"}, "6": {"label": "*3", "atom_type": "Cd"}, "7": {"label": "*4", "atom_type": "N3d"}}

>  <type>  (5) 
unop_1

>  <geom_source>  (5) 
crest_best.xyz

$$$$

     RDKit          3D

 12 10  0  0  0  0  0  0  0  0999 V2000
    0.0008   -0.8091    1.1078 N   0  0  0  0  0  0  0  0  0  0  0  0
    0.0008   -2.0119    0.5631 N   0  0  0  0  0  0  0  0  0  0  0  0
    0.0008   -2.0119   -0.6414 O   0  0  0  0  0  0  0  0  0  0  0  0
    0.0008    0.1736    0.3926 H   0  0  0  0  0  0  0  0  0  0  0  0
    0.0008   -0.7627    2.1099 H   0  0  0  0  0  0  0  0  0  0  0  0
   -1.1645    2.1562   -0.2183 C   0  0  0  0  0  0  0  0  0  0  0  0
    0.0008    1.2385   -0.3825 C   0  0  0  0  0  3  0  0  0  0  0  0
    1.1789    1.6735   -0.5210 N   0  0  0  0  0  0  0  0  0  0  0  0
   -1.8926    1.9881   -1.0160 H   0  0  0  0  0  0  0  0  0  0  0  0
   -1.6748    1.9529    0.7267 H   0  0  0  0  0  0  0  0  0  0  0  0
   -0.8352    3.1936   -0.2385 H   0  0  0  0  0  0  0  0  0  0  0  0
    1.8421    0.9076   -0.6193 H   0  0  0  0  0  0  0  0  0  0  0  0
  1  2  1  0
  1  4  1  0
  1  5  1  0
  2  3  2  0
  6  7  1  0
  6  9  1  0
  6 10  1  0
  6 11  1  0
  7  8  2  3
  8 12  1  0
M  RAD  1   7   2
M  END
>  <reaction>  (6) 
rmg_rxn_16654

>  <mol_properties>  (6) 
{"0": {"label": "*1", "atom_type": "N3s"}, "1": {"label": "*0", "atom_type": "N3d"}, "3": {"label": "*2", "atom_type": "H0"}, "6": {"label": "*3", "atom_type": "Cd"}, "7": {"label": "*4", "atom_type": "N3d"}}

>  <type>  (6) 
unop_2

>  <geom_source>  (6) 
Heuristics

$$$$

     RDKit          3D

 12 10  0  0  0  0  0  0  0  0999 V2000
    0.0746   -0.7429    1.2555 N   0  0  0  0  0  0  0  0  0  0  0  0
    0.0746   -1.9458    0.7108 N   0  0  0  0  0  0  0  0  0  0  0  0
    0.0746   -1.9458   -0.4937 O   0  0  0  0  0  0  0  0  0  0  0  0
    0.0746    0.2397    0.5403 H   0  0  0  0  0  0  0  0  0  0  0  0
    0.0746   -0.6966    2.2576 H   0  0  0  0  0  0  0  0  0  0  0  0
   -0.5982    1.1406   -1.5567 C   0  0  0  0  0  0  0  0  0  0  0  0
    0.0746    1.3046   -0.2348 C   0  0  0  0  0  3  0  0  0  0  0  0
    0.3134    2.4441    0.2561 N   0  0  0  0  0  0  0  0  0  0  0  0
    0.0448    0.5804   -2.2405 H   0  0  0  0  0  0  0  0  0  0  0  0
   -1.5198    0.5643   -1.4422 H   0  0  0  0  0  0  0  0  0  0  0  0
   -0.8281    2.1134   -1.9878 H   0  0  0  0  0  0  0  0  0  0  0  0
    0.7752    2.3633    1.1596 H   0  0  0  0  0  0  0  0  0  0  0  0
  1  2  1  0
  1  4  1  0
  1  5  1  0
  2  3  2  0
  6  7  1  0
  6  9  1  0
  6 10  1  0
  6 11  1  0
  7  8  2  3
  8 12  1  0
M  RAD  1   7   2
M  END
>  <reaction>  (7) 
rmg_rxn_16654

>  <mol_properties>  (7) 
{"0": {"label": "*1", "atom_type": "N3s"}, "1": {"label": "*0", "atom_type": "N3d"}, "3": {"label": "*2", "atom_type": "H0"}, "6": {"label": "*3", "atom_type": "Cd"}, "7": {"label": "*4", "atom_type": "N3d"}}

>  <type>  (7) 
unop_3

>  <geom_source>  (7) 
Heuristics

$$$$

     RDKit          3D

 12 10  0  0  0  0  0  0  0  0999 V2000
   -0.0508   -0.8005    1.1487 N   0  0  0  0  0  0  0  0  0  0  0  0
   -0.0508   -2.0033    0.6040 N   0  0  0  0  0  0  0  0  0  0  0  0
   -0.0508   -2.0033   -0.6005 O   0  0  0  0  0  0  0  0  0  0  0  0
   -0.0508    0.1821    0.4335 H   0  0  0  0  0  0  0  0  0  0  0  0
   -0.0508   -0.7542    2.1508 H   0  0  0  0  0  0  0  0  0  0  0  0
   -0.7236    2.4546    0.2208 C   0  0  0  0  0  0  0  0  0  0  0  0
   -0.0508    1.2471   -0.3416 C   0  0  0  0  0  3  0  0  0  0  0  0
    0.9344    1.3369   -1.1276 N   0  0  0  0  0  0  0  0  0  0  0  0
   -1.7802    2.4625   -0.0588 H   0  0  0  0  0  0  0  0  0  0  0  0
   -0.6833    2.4348    1.3129 H   0  0  0  0  0  0  0  0  0  0  0  0
   -0.2433    3.3604   -0.1450 H   0  0  0  0  0  0  0  0  0  0  0  0
    1.2627    0.4153   -1.4088 H   0  0  0  0  0  0  0  0  0  0  0  0
  1  2  1  0
  1  4  1  0
  1  5  1  0
  2  3  2  0
  6  7  1  0
  6  9  1  0
  6 10  1  0
  6 11  1  0
  7  8  2  3
  8 12  1  0
M  RAD  1   7   2
M  END
>  <reaction>  (8) 
rmg_rxn_16654

>  <mol_properties>  (8) 
{"0": {"label": "*1", "atom_type": "N3s"}, "1": {"label": "*0", "atom_type": "N3d"}, "3": {"label": "*2", "atom_type": "H0"}, "6": {"label": "*3", "atom_type": "Cd"}, "7": {"label": "*4", "atom_type": "N3d"}}

>  <type>  (8) 
unop_4

>  <geom_source>  (8) 
Heuristics

$$$$

     RDKit          3D

 12 10  0  0  0  0  0  0  0  0999 V2000
   -0.1010   -0.7710    1.1890 N   0  0  0  0  0  0  0  0  0  0  0  0
   -0.1010   -1.9738    0.6442 N   0  0  0  0  0  0  0  0  0  0  0  0
   -0.1010   -1.9738   -0.5603 O   0  0  0  0  0  0  0  0  0  0  0  0
   -0.1010    0.2116    0.4738 H   0  0  0  0  0  0  0  0  0  0  0  0
   -0.1010   -0.7247    2.1911 H   0  0  0  0  0  0  0  0  0  0  0  0
    1.0643    1.4024   -1.2251 C   0  0  0  0  0  0  0  0  0  0  0  0
   -0.1010    1.2765   -0.3013 C   0  0  0  0  0  3  0  0  0  0  0  0
   -0.6827    2.2889    0.1815 N   0  0  0  0  0  0  0  0  0  0  0  0
    1.9352    0.8923   -0.8056 H   0  0  0  0  0  0  0  0  0  0  0  0
    0.8424    0.9201   -2.1805 H   0  0  0  0  0  0  0  0  0  0  0  0
    1.3026    2.4512   -1.3933 H   0  0  0  0  0  0  0  0  0  0  0  0
   -1.4525    2.0135    0.7878 H   0  0  0  0  0  0  0  0  0  0  0  0
  1  2  1  0
  1  4  1  0
  1  5  1  0
  2  3  2  0
  6  7  1  0
  6  9  1  0
  6 10  1  0
  6 11  1  0
  7  8  2  3
  8 12  1  0
M  RAD  1   7   2
M  END
>  <reaction>  (9) 
rmg_rxn_16654

>  <mol_properties>  (9) 
{"0": {"label": "*1", "atom_type": "N3s"}, "1": {"label": "*0", "atom_type": "N3d"}, "3": {"label": "*2", "atom_type": "H0"}, "6": {"label": "*3", "atom_type": "Cd"}, "7": {"label": "*4", "atom_type": "N3d"}}

>  <type>  (9) 
unop_5

>  <geom_source>  (9) 
Heuristics

$$$$

     RDKit          3D

 12 10  0  0  0  0  0  0  0  0999 V2000
    0.0000   -0.7903    1.2037 N   0  0  0  0  0  0  0  0  0  0  0  0
    0.0000   -1.9931    0.6589 N   0  0  0  0  0  0  0  0  0  0  0  0
    0.0000   -1.9931   -0.5456 O   0  0  0  0  0  0  0  0  0  0  0  0
    0.0000    0.1924    0.4885 H   0  0  0  0  0  0  0  0  0  0  0  0
    0.0000   -0.7439    2.2058 H   0  0  0  0  0  0  0  0  0  0  0  0
   -0.0000    2.5709    0.4215 C   0  0  0  0  0  0  0  0  0  0  0  0
   -0.0000    1.2573   -0.2867 C   0  0  0  0  0  3  0  0  0  0  0  0
   -0.0000    1.1786   -1.5477 N   0  0  0  0  0  0  0  0  0  0  0  0
   -0.8783    2.6516    1.0671 H   0  0  0  0  0  0  0  0  0  0  0  0
    0.8783    2.6516    1.0671 H   0  0  0  0  0  0  0  0  0  0  0  0
   -0.0000    3.3885   -0.2972 H   0  0  0  0  0  0  0  0  0  0  0  0
   -0.0000    0.2076   -1.8532 H   0  0  0  0  0  0  0  0  0  0  0  0
  1  2  1  0
  1  4  1  0
  1  5  1  0
  2  3  2  0
  6  7  1  0
  6  9  1  0
  6 10  1  0
  6 11  1  0
  7  8  2  3
  8 12  1  0
M  RAD  1   7   2
M  END
>  <reaction>  (10) 
rmg_rxn_16654

>  <mol_properties>  (10) 
{"0": {"label": "*1", "atom_type": "N3s"}, "1": {"label": "*0", "atom_type": "N3d"}, "3": {"label": "*2", "atom_type": "H0"}, "6": {"label": "*3", "atom_type": "Cd"}, "7": {"label": "*4", "atom_type": "N3d"}}

>  <type>  (10) 
unop_6

>  <geom_source>  (10) 
Heuristics

$$$$

     RDKit          3D

 12 10  0  0  0  0  0  0  0  0999 V2000
   -0.0687   -0.7980    1.1281 N   0  0  0  0  0  0  0  0  0  0  0  0
   -0.0687   -2.0009    0.5833 N   0  0  0  0  0  0  0  0  0  0  0  0
   -0.0687   -2.0009   -0.6212 O   0  0  0  0  0  0  0  0  0  0  0  0
   -0.0687    0.1846    0.4129 H   0  0  0  0  0  0  0  0  0  0  0  0
   -0.0687   -0.7517    2.1302 H   0  0  0  0  0  0  0  0  0  0  0  0
    1.2769    1.7713   -0.7420 C   0  0  0  0  0  0  0  0  0  0  0  0
   -0.0687    1.2495   -0.3622 C   0  0  0  0  0  3  0  0  0  0  0  0
   -1.0256    2.0208   -0.0691 N   0  0  0  0  0  0  0  0  0  0  0  0
    2.0371    1.3898   -0.0556 H   0  0  0  0  0  0  0  0  0  0  0  0
    1.5479    1.4238   -1.7423 H   0  0  0  0  0  0  0  0  0  0  0  0
    1.2806    2.8597   -0.7211 H   0  0  0  0  0  0  0  0  0  0  0  0
   -1.8635    1.4916    0.1632 H   0  0  0  0  0  0  0  0  0  0  0  0
  1  2  1  0
  1  4  1  0
  1  5  1  0
  2  3  2  0
  6  7  1  0
  6  9  1  0
  6 10  1  0
  6 11  1  0
  7  8  2  3
  8 12  1  0
M  RAD  1   7   2
M  END
>  <reaction>  (11) 
rmg_rxn_16654

>  <mol_properties>  (11) 
{"0": {"label": "*1", "atom_type": "N3s"}, "1": {"label": "*0", "atom_type": "N3d"}, "3": {"label": "*2", "atom_type": "H0"}, "6": {"label": "*3", "atom_type": "Cd"}, "7": {"label": "*4", "atom_type": "N3d"}}

>  <type>  (11) 
unop_7

>  <geom_source>  (11) 
Heuristics

$$$$

     RDKit          3D

 12 10  0  0  0  0  0  0  0  0999 V2000
   -0.0008   -0.8091    1.1078 N   0  0  0  0  0  0  0  0  0  0  0  0
   -0.0008   -2.0119    0.5631 N   0  0  0  0  0  0  0  0  0  0  0  0
   -0.0008   -2.0119   -0.6414 O   0  0  0  0  0  0  0  0  0  0  0  0
   -0.0008    0.1736    0.3926 H   0  0  0  0  0  0  0  0  0  0  0  0
   -0.0008   -0.7627    2.1099 H   0  0  0  0  0  0  0  0  0  0  0  0
    1.1645    2.1562   -0.2183 C   0  0  0  0  0  0  0  0  0  0  0  0
   -0.0008    1.2385   -0.3825 C   0  0  0  0  0  3  0  0  0  0  0  0
   -1.1789    1.6735   -0.5210 N   0  0  0  0  0  0  0  0  0  0  0  0
    1.6748    1.9529    0.7267 H   0  0  0  0  0  0  0  0  0  0  0  0
    1.8926    1.9881   -1.0160 H   0  0  0  0  0  0  0  0  0  0  0  0
    0.8352    3.1936   -0.2385 H   0  0  0  0  0  0  0  0  0  0  0  0
   -1.8421    0.9076   -0.6193 H   0  0  0  0  0  0  0  0  0  0  0  0
  1  2  1  0
  1  4  1  0
  1  5  1  0
  2  3  2  0
  6  7  1  0
  6  9  1  0
  6 10  1  0
  6 11  1  0
  7  8  2  3
  8 12  1  0
M  RAD  1   7   2
M  END
>  <reaction>  (12) 
rmg_rxn_16654

>  <mol_properties>  (12) 
{"0": {"label": "*1", "atom_type": "N3s"}, "1": {"label": "*0", "atom_type": "N3d"}, "3": {"label": "*2", "atom_type": "H0"}, "6": {"label": "*3", "atom_type": "Cd"}, "7": {"label": "*4", "atom_type": "N3d"}}

>  <type>  (12) 
unop_8

>  <geom_source>  (12) 
Heuristics

$$$$

     RDKit          3D

 12 10  0  0  0  0  0  0  0  0999 V2000
    0.0687   -0.7980    1.1281 N   0  0  0  0  0  0  0  0  0  0  0  0
    0.0687   -2.0009    0.5833 N   0  0  0  0  0  0  0  0  0  0  0  0
    0.0687   -2.0009   -0.6212 O   0  0  0  0  0  0  0  0  0  0  0  0
    0.0687    0.1846    0.4129 H   0  0  0  0  0  0  0  0  0  0  0  0
    0.0687   -0.7517    2.1302 H   0  0  0  0  0  0  0  0  0  0  0  0
   -1.2769    1.7713   -0.7420 C   0  0  0  0  0  0  0  0  0  0  0  0
    0.0687    1.2495   -0.3622 C   0  0  0  0  0  3  0  0  0  0  0  0
    1.0256    2.0208   -0.0691 N   0  0  0  0  0  0  0  0  0  0  0  0
   -1.5479    1.4238   -1.7423 H   0  0  0  0  0  0  0  0  0  0  0  0
   -2.0371    1.3898   -0.0556 H   0  0  0  0  0  0  0  0  0  0  0  0
   -1.2806    2.8597   -0.7211 H   0  0  0  0  0  0  0  0  0  0  0  0
    1.8635    1.4916    0.1632 H   0  0  0  0  0  0  0  0  0  0  0  0
  1  2  1  0
  1  4  1  0
  1  5  1  0
  2  3  2  0
  6  7  1  0
  6  9  1  0
  6 10  1  0
  6 11  1  0
  7  8  2  3
  8 12  1  0
M  RAD  1   7   2
M  END
>  <reaction>  (13) 
rmg_rxn_16654

>  <mol_properties>  (13) 
{"0": {"label": "*1", "atom_type": "N3s"}, "1": {"label": "*0", "atom_type": "N3d"}, "3": {"label": "*2", "atom_type": "H0"}, "6": {"label": "*3", "atom_type": "Cd"}, "7": {"label": "*4", "atom_type": "N3d"}}

>  <type>  (13) 
unop_9

>  <geom_source>  (13) 
Heuristics

$$$$

     RDKit          3D

 12 10  0  0  0  0  0  0  0  0999 V2000
    0.9936    1.0078   -0.3467 N   0  0  0  0  0  0  0  0  0  0  0  0
    1.9994    0.3205   -0.0381 N   0  0  0  0  0  0  0  0  0  0  0  0
    1.9305   -0.8139    0.3910 O   0  0  0  0  0  1  0  0  0  0  0  0
   -0.2371    0.6038   -0.2081 H   0  0  0  0  0  0  0  0  0  0  0  0
    1.2163    1.9386   -0.6844 H   0  0  0  0  0  0  0  0  0  0  0  0
   -1.4175   -1.3530   -0.3229 C   0  0  0  0  0  0  0  0  0  0  0  0
   -1.3956    0.0976   -0.0329 C   0  0  0  0  0  0  0  0  0  0  0  0
   -2.3877    0.7405    0.3552 N   0  0  0  0  0  0  0  0  0  0  0  0
   -2.3930   -1.7860   -0.1097 H   0  0  0  0  0  0  0  0  0  0  0  0
   -1.1661   -1.5131   -1.3707 H   0  0  0  0  0  0  0  0  0  0  0  0
   -0.6493   -1.8442    0.2732 H   0  0  0  0  0  0  0  0  0  0  0  0
   -2.3040    1.7326    0.5431 H   0  0  0  0  0  0  0  0  0  0  0  0
  1  2  2  3
  1  5  1  0
  2  3  1  0
  4  7  1  0
  6  7  1  0
  6  9  1  0
  6 10  1  0
  6 11  1  0
  7  8  2  3
  8 12  1  0
M  RAD  1   3   2
M  END
>  <reaction>  (14) 
rmg_rxn_16654

>  <mol_properties>  (14) 
{"0": {"label": "*1", "atom_type": "N3s"}, "1": {"label": "*0", "atom_type": "N3d"}, "3": {"label": "*2", "atom_type": "H0"}, "6": {"label": "*3", "atom_type": "Cd"}, "7": {"label": "*4", "atom_type": "N3d"}}

>  <type>  (14) 
unop_10

>  <geom_source>  (14) 
Heuristics

$$$$

     RDKit          3D

 12 10  0  0  0  0  0  0  0  0999 V2000
   -0.0746   -0.7429    1.2555 N   0  0  0  0  0  0  0  0  0  0  0  0
   -0.0746   -1.9458    0.7108 N   0  0  0  0  0  0  0  0  0  0  0  0
   -0.0746   -1.9458   -0.4937 O   0  0  0  0  0  0  0  0  0  0  0  0
   -0.0746    0.2397    0.5403 H   0  0  0  0  0  0  0  0  0  0  0  0
   -0.0746   -0.6966    2.2576 H   0  0  0  0  0  0  0  0  0  0  0  0
    0.5982    1.1406   -1.5567 C   0  0  0  0  0  0  0  0  0  0  0  0
   -0.0746    1.3046   -0.2348 C   0  0  0  0  0  3  0  0  0  0  0  0
   -0.3134    2.4441    0.2561 N   0  0  0  0  0  0  0  0  0  0  0  0
    1.5198    0.5643   -1.4422 H   0  0  0  0  0  0  0  0  0  0  0  0
   -0.0448    0.5804   -2.2405 H   0  0  0  0  0  0  0  0  0  0  0  0
    0.8281    2.1134   -1.9878 H   0  0  0  0  0  0  0  0  0  0  0  0
   -0.7752    2.3633    1.1596 H   0  0  0  0  0  0  0  0  0  0  0  0
  1  2  1  0
  1  4  1  0
  1  5  1  0
  2  3  2  0
  6  7  1  0
  6  9  1  0
  6 10  1  0
  6 11  1  0
  7  8  2  3
  8 12  1  0
M  RAD  1   7   2
M  END
>  <reaction>  (15) 
rmg_rxn_16654

>  <mol_properties>  (15) 
{"0": {"label": "*1", "atom_type": "N3s"}, "1": {"label": "*0", "atom_type": "N3d"}, "3": {"label": "*2", "atom_type": "H0"}, "6": {"label": "*3", "atom_type": "Cd"}, "7": {"label": "*4", "atom_type": "N3d"}}

>  <type>  (15) 
unop_11

>  <geom_source>  (15) 
Heuristics

$$$$

     RDKit          3D

 12 10  0  0  0  0  0  0  0  0999 V2000
    0.1010   -0.7710    1.1890 N   0  0  0  0  0  0  0  0  0  0  0  0
    0.1010   -1.9738    0.6442 N   0  0  0  0  0  0  0  0  0  0  0  0
    0.1010   -1.9738   -0.5603 O   0  0  0  0  0  0  0  0  0  0  0  0
    0.1010    0.2116    0.4738 H   0  0  0  0  0  0  0  0  0  0  0  0
    0.1010   -0.7247    2.1911 H   0  0  0  0  0  0  0  0  0  0  0  0
   -1.0643    1.4024   -1.2251 C   0  0  0  0  0  0  0  0  0  0  0  0
    0.1010    1.2765   -0.3013 C   0  0  0  0  0  3  0  0  0  0  0  0
    0.6827    2.2889    0.1815 N   0  0  0  0  0  0  0  0  0  0  0  0
   -0.8424    0.9200   -2.1805 H   0  0  0  0  0  0  0  0  0  0  0  0
   -1.9352    0.8923   -0.8056 H   0  0  0  0  0  0  0  0  0  0  0  0
   -1.3026    2.4512   -1.3933 H   0  0  0  0  0  0  0  0  0  0  0  0
    1.4525    2.0135    0.7878 H   0  0  0  0  0  0  0  0  0  0  0  0
  1  2  1  0
  1  4  1  0
  1  5  1  0
  2  3  2  0
  6  7  1  0
  6  9  1  0
  6 10  1  0
  6 11  1  0
  7  8  2  3
  8 12  1  0
M  RAD  1   7   2
M  END
>  <reaction>  (16) 
rmg_rxn_16654

>  <mol_properties>  (16) 
{"0": {"label": "*1", "atom_type": "N3s"}, "1": {"label": "*0", "atom_type": "N3d"}, "3": {"label": "*2", "atom_type": "H0"}, "6": {"label": "*3", "atom_type": "Cd"}, "7": {"label": "*4", "atom_type": "N3d"}}

>  <type>  (16) 
unop_12

>  <geom_source>  (16) 
Heuristics

$$$$

     RDKit          3D

 12 10  0  0  0  0  0  0  0  0999 V2000
    0.0508   -0.8005    1.1487 N   0  0  0  0  0  0  0  0  0  0  0  0
    0.0508   -2.0033    0.6040 N   0  0  0  0  0  0  0  0  0  0  0  0
    0.0508   -2.0033   -0.6005 O   0  0  0  0  0  0  0  0  0  0  0  0
    0.0508    0.1821    0.4335 H   0  0  0  0  0  0  0  0  0  0  0  0
    0.0508   -0.7542    2.1508 H   0  0  0  0  0  0  0  0  0  0  0  0
    0.7236    2.4546    0.2208 C   0  0  0  0  0  0  0  0  0  0  0  0
    0.0508    1.2471   -0.3416 C   0  0  0  0  0  3  0  0  0  0  0  0
   -0.9344    1.3369   -1.1276 N   0  0  0  0  0  0  0  0  0  0  0  0
    0.6833    2.4348    1.3129 H   0  0  0  0  0  0  0  0  0  0  0  0
    1.7802    2.4625   -0.0588 H   0  0  0  0  0  0  0  0  0  0  0  0
    0.2433    3.3604   -0.1450 H   0  0  0  0  0  0  0  0  0  0  0  0
   -1.2627    0.4153   -1.4088 H   0  0  0  0  0  0  0  0  0  0  0  0
  1  2  1  0
  1  4  1  0
  1  5  1  0
  2  3  2  0
  6  7  1  0
  6  9  1  0
  6 10  1  0
  6 11  1  0
  7  8  2  3
  8 12  1  0
M  RAD  1   7   2
M  END
>  <reaction>  (17) 
rmg_rxn_16654

>  <mol_properties>  (17) 
{"0": {"label": "*1", "atom_type": "N3s"}, "1": {"label": "*0", "atom_type": "N3d"}, "3": {"label": "*2", "atom_type": "H0"}, "6": {"label": "*3", "atom_type": "Cd"}, "7": {"label": "*4", "atom_type": "N3d"}}

>  <type>  (17) 
unop_13

>  <geom_source>  (17) 
Heuristics

$$$$

     RDKit          3D

 12 10  0  0  0  0  0  0  0  0999 V2000
    0.0000   -0.7310    1.2852 N   0  0  0  0  0  0  0  0  0  0  0  0
    0.0000   -1.9338    0.7404 N   0  0  0  0  0  0  0  0  0  0  0  0
    0.0000   -1.9338   -0.4641 O   0  0  0  0  0  0  0  0  0  0  0  0
    0.0000    0.2517    0.5700 H   0  0  0  0  0  0  0  0  0  0  0  0
    0.0000   -0.6846    2.2873 H   0  0  0  0  0  0  0  0  0  0  0  0
   -0.0000    1.0465   -1.6729 C   0  0  0  0  0  0  0  0  0  0  0  0
   -0.0000    1.3166   -0.2052 C   0  0  0  0  0  3  0  0  0  0  0  0
    0.0000    2.4924    0.2574 N   0  0  0  0  0  0  0  0  0  0  0  0
    0.8783    0.4570   -1.9481 H   0  0  0  0  0  0  0  0  0  0  0  0
   -0.8783    0.4570   -1.9481 H   0  0  0  0  0  0  0  0  0  0  0  0
   -0.0000    1.9818   -2.2299 H   0  0  0  0  0  0  0  0  0  0  0  0
    0.0000    2.4846    1.2752 H   0  0  0  0  0  0  0  0  0  0  0  0
  1  2  1  0
  1  4  1  0
  1  5  1  0
  2  3  2  0
  6  7  1  0
  6  9  1  0
  6 10  1  0
  6 11  1  0
  7  8  2  3
  8 12  1  0
M  RAD  1   7   2
M  END
>  <reaction>  (18) 
rmg_rxn_16654

>  <mol_properties>  (18) 
{"0": {"label": "*1", "atom_type": "N3s"}, "1": {"label": "*0", "atom_type": "N3d"}, "3": {"label": "*2", "atom_type": "H0"}, "6": {"label": "*3", "atom_type": "Cd"}, "7": {"label": "*4", "atom_type": "N3d"}}

>  <type>  (18) 
unop_14

>  <geom_source>  (18) 
Heuristics

$$$$

     RDKit          3D

 12 10  0  0  0  0  0  0  0  0999 V2000
    0.0746   -0.7429    1.2555 N   0  0  0  0  0  0  0  0  0  0  0  0
    0.0746   -1.9458    0.7108 N   0  0  0  0  0  0  0  0  0  0  0  0
    0.0746   -1.9458   -0.4937 O   0  0  0  0  0  0  0  0  0  0  0  0
    0.0746    0.2397    0.5403 H   0  0  0  0  0  0  0  0  0  0  0  0
    0.0746   -0.6966    2.2576 H   0  0  0  0  0  0  0  0  0  0  0  0
   -0.5982    1.1406   -1.5567 C   0  0  0  0  0  0  0  0  0  0  0  0
    0.0746    1.3046   -0.2348 C   0  0  0  0  0  3  0  0  0  0  0  0
    0.3134    2.4441    0.2561 N   0  0  0  0  0  0  0  0  0  0  0  0
    0.0447    0.5805   -2.2405 H   0  0  0  0  0  0  0  0  0  0  0  0
   -1.5198    0.5643   -1.4422 H   0  0  0  0  0  0  0  0  0  0  0  0
   -0.8281    2.1134   -1.9878 H   0  0  0  0  0  0  0  0  0  0  0  0
    0.7752    2.3633    1.1596 H   0  0  0  0  0  0  0  0  0  0  0  0
  1  2  1  0
  1  4  1  0
  1  5  1  0
  2  3  2  0
  6  7  1  0
  6  9  1  0
  6 10  1  0
  6 11  1  0
  7  8  2  3
  8 12  1  0
M  RAD  1   7   2
M  END
>  <reaction>  (19) 
rmg_rxn_16654

>  <mol_properties>  (19) 
{"0": {"label": "*1", "atom_type": "N3s"}, "1": {"label": "*0", "atom_type": "N3d"}, "3": {"label": "*2", "atom_type": "H0"}, "6": {"label": "*3", "atom_type": "Cd"}, "7": {"label": "*4", "atom_type": "N3d"}}

>  <type>  (19) 
unop_15

>  <geom_source>  (19) 
gaussian_log

$$$$
