
     RDKit          3D

  5  4  0  0  0  0  0  0  0  0999 V2000
    0.7361   -0.2872    0.4035 N   0  0  0  0  0  2  0  0  0  0  0  0
   -0.3891   -0.1505   -0.3131 N   0  0  0  0  0  0  0  0  0  0  0  0
    1.4909    0.0686   -0.1831 H   0  0  0  0  0  0  0  0  0  0  0  0
   -1.1819   -0.6340    0.0744 H   0  0  0  0  0  0  0  0  0  0  0  0
   -0.3592   -0.1189   -1.3223 H   0  0  0  0  0  0  0  0  0  0  0  0
  1  2  1  0
  1  3  1  0
  2  4  1  0
  2  5  1  0
M  RAD  1   1   2
M  END
>  <reaction>  (1) 
rmg_rxn_677

>  <mol_properties>  (1) 
{"0": {"label": "donator", "atom_type": "N3s"}, "2": {"label": "d_hydrogen", "atom_type": "H0"}}

>  <type>  (1) 
r1h

$$$$

     RDKit          3D

 14 13  0  0  0  0  0  0  0  0999 V2000
    2.7687   -0.0362   -0.0732 C   0  0  0  0  0  3  0  0  0  0  0  0
    1.6543    0.2105    0.6386 O   0  0  0  0  0  0  0  0  0  0  0  0
    1.8652    0.6968    1.9544 C   0  0  0  0  0  0  0  0  0  0  0  0
    0.5252    0.9355    2.6156 C   0  0  0  0  0  0  0  0  0  0  0  0
   -0.2992    2.0181    1.9317 C   0  0  0  0  0  0  0  0  0  0  0  0
    2.5851   -0.4757   -1.0422 H   0  0  0  0  0  0  0  0  0  0  0  0
    3.6974   -0.2083    0.4611 H   0  0  0  0  0  0  0  0  0  0  0  0
    2.4441    1.6271    1.9039 H   0  0  0  0  0  0  0  0  0  0  0  0
    2.4506   -0.0397    2.5179 H   0  0  0  0  0  0  0  0  0  0  0  0
    0.7150    1.2089    3.6572 H   0  0  0  0  0  0  0  0  0  0  0  0
   -0.0287   -0.0066    2.6327 H   0  0  0  0  0  0  0  0  0  0  0  0
   -0.5056    1.7522    0.8949 H   0  0  0  0  0  0  0  0  0  0  0  0
   -1.2524    2.1635    2.4416 H   0  0  0  0  0  0  0  0  0  0  0  0
    0.2319    2.9729    1.9340 H   0  0  0  0  0  0  0  0  0  0  0  0
  1  2  1  0
  1  6  1  0
  1  7  1  0
  2  3  1  0
  3  4  1  0
  3  8  1  0
  3  9  1  0
  4  5  1  0
  4 10  1  0
  4 11  1  0
  5 12  1  0
  5 13  1  0
  5 14  1  0
M  RAD  1   1   2
M  END
>  <reaction>  (2) 
rmg_rxn_677

>  <mol_properties>  (2) 
{"0": {"label": "acceptor", "atom_type": "Cs"}}

>  <type>  (2) 
r2

$$$$

     RDKit          3D

 15 14  0  0  0  0  0  0  0  0999 V2000
   -1.2811   -0.4129    1.0228 C   0  0  0  0  0  0  0  0  0  0  0  0
   -1.0023   -0.5809   -0.4650 C   0  0  0  0  0  0  0  0  0  0  0  0
   -2.0576    0.0568   -1.3449 C   0  0  0  0  0  0  0  0  0  0  0  0
   -2.0663    1.4464   -1.1307 O   0  0  0  0  0  0  0  0  0  0  0  0
   -3.0424    2.1072   -1.8849 C   0  0  0  0  0  0  0  0  0  0  0  0
   -2.2382   -0.8657    1.2935 H   0  0  0  0  0  0  0  0  0  0  0  0
   -1.3219    0.6426    1.2914 H   0  0  0  0  0  0  0  0  0  0  0  0
   -0.5042   -0.8881    1.6236 H   0  0  0  0  0  0  0  0  0  0  0  0
   -0.0316   -0.1460   -0.7167 H   0  0  0  0  0  0  0  0  0  0  0  0
   -0.9494   -1.6429   -0.7203 H   0  0  0  0  0  0  0  0  0  0  0  0
   -1.8518   -0.1570   -2.4041 H   0  0  0  0  0  0  0  0  0  0  0  0
   -3.0491   -0.3636   -1.1124 H   0  0  0  0  0  0  0  0  0  0  0  0
   -4.0521    1.7545   -1.6343 H   0  0  0  0  0  0  0  0  0  0  0  0
   -2.8850    1.9634   -2.9626 H   0  0  0  0  0  0  0  0  0  0  0  0
   -2.9730    3.1700   -1.6570 H   0  0  0  0  0  0  0  0  0  0  0  0
  1  2  1  0
  1  6  1  0
  1  7  1  0
  1  8  1  0
  2  3  1  0
  2  9  1  0
  2 10  1  0
  3  4  1  0
  3 11  1  0
  3 12  1  0
  4  5  1  0
  5 13  1  0
  5 14  1  0
  5 15  1  0
M  END
>  <reaction>  (3) 
rmg_rxn_677

>  <mol_properties>  (3) 
{"0": {"label": "a_hydrogen", "atom_type": "H0"}, "1": {"label": "acceptor", "atom_type": "Cs"}}

>  <type>  (3) 
r2h

$$$$

     RDKit          3D

 19 17  0  0  0  0  0  0  0  0999 V2000
   -0.2496   -2.6529    0.6064 N   0  0  0  0  0  2  0  0  0  0  0  0
   -1.0329   -2.2789   -0.4127 N   0  0  0  0  0  0  0  0  0  0  0  0
   -0.2021   -1.6326    1.2835 H   0  0  0  0  0  0  0  0  0  0  0  0
   -0.9897   -2.8834   -1.2191 H   0  0  0  0  0  0  0  0  0  0  0  0
   -1.1069   -1.2853   -0.6151 H   0  0  0  0  0  0  0  0  0  0  0  0
   -0.3029   -0.2987    1.6701 C   0  0  0  0  0  3  0  0  0  0  0  0
   -0.2795    0.4534    0.5183 O   0  0  0  0  0  0  0  0  0  0  0  0
    1.0079    0.5627   -0.0701 C   0  0  0  0  0  0  0  0  0  0  0  0
    0.9004    1.3478   -1.3589 C   0  0  0  0  0  0  0  0  0  0  0  0
    0.4225    2.7795   -1.1566 C   0  0  0  0  0  0  0  0  0  0  0  0
   -1.2694   -0.2080    2.1585 H   0  0  0  0  0  0  0  0  0  0  0  0
    0.5530   -0.1369    2.3309 H   0  0  0  0  0  0  0  0  0  0  0  0
    1.4058   -0.4418   -0.2554 H   0  0  0  0  0  0  0  0  0  0  0  0
    1.6805    1.0679    0.6360 H   0  0  0  0  0  0  0  0  0  0  0  0
    0.2262    0.8176   -2.0376 H   0  0  0  0  0  0  0  0  0  0  0  0
    1.8860    1.3426   -1.8319 H   0  0  0  0  0  0  0  0  0  0  0  0
    0.3674    3.3112   -2.1072 H   0  0  0  0  0  0  0  0  0  0  0  0
   -0.5665    2.7990   -0.6985 H   0  0  0  0  0  0  0  0  0  0  0  0
    1.1052    3.3289   -0.5042 H   0  0  0  0  0  0  0  0  0  0  0  0
  1  2  1  0
  1  3  1  0
  2  4  1  0
  2  5  1  0
  6  7  1  0
  6 11  1  0
  6 12  1  0
  7  8  1  0
  8  9  1  0
  8 13  1  0
  8 14  1  0
  9 10  1  0
  9 15  1  0
  9 16  1  0
 10 17  1  0
 10 18  1  0
 10 19  1  0
M  RAD  2   1   2   6   2
M  END
>  <reaction>  (4) 
rmg_rxn_677

>  <mol_properties>  (4) 
{"0": {"label": "*1", "atom_type": "N3s"}, "1": {"label": "*0", "atom_type": "N3s"}, "2": {"label": "*2", "atom_type": "H0"}, "5": {"label": "*3", "atom_type": "Cs"}, "6": {"label": "*4", "atom_type": "O2s"}}

>  <type>  (4) 
ts

$$$$

     RDKit          3D

 19 17  0  0  0  0  0  0  0  0999 V2000
    1.3174   -2.4126   -0.8229 N   0  0  0  0  0  2  0  0  0  0  0  0
    1.3174   -2.4126   -2.1639 N   0  0  0  0  0  0  0  0  0  0  0  0
    1.3174   -1.2368   -0.4827 H   0  0  0  0  0  0  0  0  0  0  0  0
    1.5054   -3.3126   -2.5728 H   0  0  0  0  0  0  0  0  0  0  0  0
    1.6794   -1.6242   -2.6814 H   0  0  0  0  0  0  0  0  0  0  0  0
    1.3174    0.0295   -0.1163 C   0  0  0  0  0  3  0  0  0  0  0  0
    0.1901    0.3419    0.6517 O   0  0  0  0  0  0  0  0  0  0  0  0
   -0.8152    0.9870   -0.0901 C   0  0  0  0  0  0  0  0  0  0  0  0
   -1.9769    1.3217    0.8226 C   0  0  0  0  0  0  0  0  0  0  0  0
   -1.6084    2.3047    1.9258 C   0  0  0  0  0  0  0  0  0  0  0  0
    2.0354   -0.4653    0.5364 H   0  0  0  0  0  0  0  0  0  0  0  0
    1.7813    0.9323   -0.5364 H   0  0  0  0  0  0  0  0  0  0  0  0
   -1.1499    0.3362   -0.9114 H   0  0  0  0  0  0  0  0  0  0  0  0
   -0.4130    1.9068   -0.5440 H   0  0  0  0  0  0  0  0  0  0  0  0
   -2.3549    0.3930    1.2578 H   0  0  0  0  0  0  0  0  0  0  0  0
   -2.7809    1.7326    0.2056 H   0  0  0  0  0  0  0  0  0  0  0  0
   -2.4694    2.5251    2.5586 H   0  0  0  0  0  0  0  0  0  0  0  0
   -0.8170    1.8993    2.5561 H   0  0  0  0  0  0  0  0  0  0  0  0
   -1.2521    3.2480    1.5043 H   0  0  0  0  0  0  0  0  0  0  0  0
  1  2  1  0
  1  3  1  0
  2  4  1  0
  2  5  1  0
  6  7  1  0
  6 11  1  0
  6 12  1  0
  7  8  1  0
  8  9  1  0
  8 13  1  0
  8 14  1  0
  9 10  1  0
  9 15  1  0
  9 16  1  0
 10 17  1  0
 10 18  1  0
 10 19  1  0
M  RAD  2   1   2   6   2
M  END
>  <reaction>  (5) 
rmg_rxn_677

>  <mol_properties>  (5) 
{"0": {"label": "*1", "atom_type": "N3s"}, "1": {"label": "*0", "atom_type": "N3s"}, "2": {"label": "*2", "atom_type": "H0"}, "5": {"label": "*3", "atom_type": "Cs"}, "6": {"label": "*4", "atom_type": "O2s"}}

>  <type>  (5) 
unop_1

>  <geom_source>  (5) 
Heuristics

$$$$

     RDKit          3D

 19 17  0  0  0  0  0  0  0  0999 V2000
    0.2859   -2.7526    0.8873 N   0  0  0  0  0  2  0  0  0  0  0  0
    0.2859   -2.7526   -0.4537 N   0  0  0  0  0  0  0  0  0  0  0  0
    0.2859   -1.5768    1.2275 H   0  0  0  0  0  0  0  0  0  0  0  0
    0.4738   -3.6526   -0.8626 H   0  0  0  0  0  0  0  0  0  0  0  0
    0.6478   -1.9642   -0.9712 H   0  0  0  0  0  0  0  0  0  0  0  0
    0.2859   -0.3105    1.5940 C   0  0  0  0  0  3  0  0  0  0  0  0
   -0.3650    0.4962    0.6538 O   0  0  0  0  0  0  0  0  0  0  0  0
    0.4319    0.7782   -0.4698 C   0  0  0  0  0  0  0  0  0  0  0  0
   -0.3323    1.6836   -1.4136 C   0  0  0  0  0  0  0  0  0  0  0  0
   -0.6564    3.0431   -0.8087 C   0  0  0  0  0  0  0  0  0  0  0  0
   -0.4033   -0.4763    2.4210 H   0  0  0  0  0  0  0  0  0  0  0  0
    1.1943    0.1725    1.9788 H   0  0  0  0  0  0  0  0  0  0  0  0
    0.7069   -0.1581   -0.9777 H   0  0  0  0  0  0  0  0  0  0  0  0
    1.3674    1.2655   -0.1519 H   0  0  0  0  0  0  0  0  0  0  0  0
   -1.2533    1.1760   -1.7117 H   0  0  0  0  0  0  0  0  0  0  0  0
    0.2681    1.8081   -2.3190 H   0  0  0  0  0  0  0  0  0  0  0  0
   -1.2016    3.6680   -1.5176 H   0  0  0  0  0  0  0  0  0  0  0  0
   -1.2671    2.9318    0.0873 H   0  0  0  0  0  0  0  0  0  0  0  0
    0.2575    3.5729   -0.5286 H   0  0  0  0  0  0  0  0  0  0  0  0
  1  2  1  0
  1  3  1  0
  2  4  1  0
  2  5  1  0
  6  7  1  0
  6 11  1  0
  6 12  1  0
  7  8  1  0
  8  9  1  0
  8 13  1  0
  8 14  1  0
  9 10  1  0
  9 15  1  0
  9 16  1  0
 10 17  1  0
 10 18  1  0
 10 19  1  0
M  RAD  2   1   2   6   2
M  END
>  <reaction>  (6) 
rmg_rxn_677

>  <mol_properties>  (6) 
{"0": {"label": "*1", "atom_type": "N3s"}, "1": {"label": "*0", "atom_type": "N3s"}, "2": {"label": "*2", "atom_type": "H0"}, "5": {"label": "*3", "atom_type": "Cs"}, "6": {"label": "*4", "atom_type": "O2s"}}

>  <type>  (6) 
unop_2

>  <geom_source>  (6) 
Heuristics

$$$$

     RDKit          3D

 19 17  0  0  0  0  0  0  0  0999 V2000
    1.0299   -2.1721   -1.3982 N   0  0  0  0  0  2  0  0  0  0  0  0
    1.0299   -2.1721   -2.7392 N   0  0  0  0  0  0  0  0  0  0  0  0
    1.0299   -0.9964   -1.0580 H   0  0  0  0  0  0  0  0  0  0  0  0
    1.2179   -3.0721   -3.1481 H   0  0  0  0  0  0  0  0  0  0  0  0
    1.3919   -1.3837   -3.2567 H   0  0  0  0  0  0  0  0  0  0  0  0
    1.0299    0.2700   -0.6916 C   0  0  0  0  0  3  0  0  0  0  0  0
    0.3791    0.4499    0.5340 O   0  0  0  0  0  0  0  0  0  0  0  0
   -0.9999    0.6846    0.3916 C   0  0  0  0  0  0  0  0  0  0  0  0
   -1.6160    0.9055    1.7577 C   0  0  0  0  0  0  0  0  0  0  0  0
   -1.0767    2.1414    2.4655 C   0  0  0  0  0  0  0  0  0  0  0  0
    2.0844    0.0937   -0.4833 H   0  0  0  0  0  0  0  0  0  0  0  0
    0.9370    1.1582   -1.3311 H   0  0  0  0  0  0  0  0  0  0  0  0
   -1.4755   -0.1725   -0.1077 H   0  0  0  0  0  0  0  0  0  0  0  0
   -1.1651    1.5679   -0.2457 H   0  0  0  0  0  0  0  0  0  0  0  0
   -1.4373    0.0158    2.3669 H   0  0  0  0  0  0  0  0  0  0  0  0
   -2.6987    0.9885    1.6282 H   0  0  0  0  0  0  0  0  0  0  0  0
   -1.5460    2.2704    3.4419 H   0  0  0  0  0  0  0  0  0  0  0  0
    0.0005    2.0632    2.6127 H   0  0  0  0  0  0  0  0  0  0  0  0
   -1.2710    3.0425    1.8786 H   0  0  0  0  0  0  0  0  0  0  0  0
  1  2  1  0
  1  3  1  0
  2  4  1  0
  2  5  1  0
  6  7  1  0
  6 11  1  0
  6 12  1  0
  7  8  1  0
  8  9  1  0
  8 13  1  0
  8 14  1  0
  9 10  1  0
  9 15  1  0
  9 16  1  0
 10 17  1  0
 10 18  1  0
 10 19  1  0
M  RAD  2   1   2   6   2
M  END
>  <reaction>  (7) 
rmg_rxn_677

>  <mol_properties>  (7) 
{"0": {"label": "*1", "atom_type": "N3s"}, "1": {"label": "*0", "atom_type": "N3s"}, "2": {"label": "*2", "atom_type": "H0"}, "5": {"label": "*3", "atom_type": "Cs"}, "6": {"label": "*4", "atom_type": "O2s"}}

>  <type>  (7) 
unop_3

>  <geom_source>  (7) 
Heuristics

$$$$

     RDKit          3D

 19 17  0  0  0  0  0  0  0  0999 V2000
   -1.5024   -2.1346    0.0390 N   0  0  0  0  0  2  0  0  0  0  0  0
   -1.5024   -2.1346   -1.3019 N   0  0  0  0  0  0  0  0  0  0  0  0
   -1.5024   -0.9589    0.3793 H   0  0  0  0  0  0  0  0  0  0  0  0
   -1.3144   -3.0346   -1.7108 H   0  0  0  0  0  0  0  0  0  0  0  0
   -1.1404   -1.3462   -1.8194 H   0  0  0  0  0  0  0  0  0  0  0  0
   -1.5024    0.3075    0.7457 C   0  0  0  0  0  3  0  0  0  0  0  0
   -0.3751    0.9817    0.2633 O   0  0  0  0  0  0  0  0  0  0  0  0
    0.7389    0.1390    0.1025 C   0  0  0  0  0  0  0  0  0  0  0  0
    1.9196    0.9538   -0.3841 C   0  0  0  0  0  0  0  0  0  0  0  0
    2.3677    2.0140    0.6131 C   0  0  0  0  0  0  0  0  0  0  0  0
   -2.3089    1.0340    0.8354 H   0  0  0  0  0  0  0  0  0  0  0  0
   -1.3135   -0.1385    1.7316 H   0  0  0  0  0  0  0  0  0  0  0  0
    0.5033   -0.6592   -0.6169 H   0  0  0  0  0  0  0  0  0  0  0  0
    0.9826   -0.3457    1.0614 H   0  0  0  0  0  0  0  0  0  0  0  0
    1.6500    1.4219   -1.3343 H   0  0  0  0  0  0  0  0  0  0  0  0
    2.7409    0.2627   -0.5931 H   0  0  0  0  0  0  0  0  0  0  0  0
    3.2211    2.5761    0.2310 H   0  0  0  0  0  0  0  0  0  0  0  0
    1.5606    2.7172    0.8183 H   0  0  0  0  0  0  0  0  0  0  0  0
    2.6643    1.5572    1.5606 H   0  0  0  0  0  0  0  0  0  0  0  0
  1  2  1  0
  1  3  1  0
  2  4  1  0
  2  5  1  0
  6  7  1  0
  6 11  1  0
  6 12  1  0
  7  8  1  0
  8  9  1  0
  8 13  1  0
  8 14  1  0
  9 10  1  0
  9 15  1  0
  9 16  1  0
 10 17  1  0
 10 18  1  0
 10 19  1  0
M  RAD  2   1   2   6   2
M  END
>  <reaction>  (8) 
rmg_rxn_677

>  <mol_properties>  (8) 
{"0": {"label": "*1", "atom_type": "N3s"}, "1": {"label": "*0", "atom_type": "N3s"}, "2": {"label": "*2", "atom_type": "H0"}, "5": {"label": "*3", "atom_type": "Cs"}, "6": {"label": "*4", "atom_type": "O2s"}}

>  <type>  (8) 
unop_4

>  <geom_source>  (8) 
Heuristics

$$$$

     RDKit          3D

 19 17  0  0  0  0  0  0  0  0999 V2000
    0.4610   -1.8358   -1.7952 N   0  0  0  0  0  2  0  0  0  0  0  0
    0.4610   -1.8358   -3.1362 N   0  0  0  0  0  0  0  0  0  0  0  0
    0.4610   -0.6600   -1.4550 H   0  0  0  0  0  0  0  0  0  0  0  0
    0.6490   -2.7358   -3.5451 H   0  0  0  0  0  0  0  0  0  0  0  0
    0.8230   -1.0474   -3.6537 H   0  0  0  0  0  0  0  0  0  0  0  0
    0.4610    0.6063   -1.0886 C   0  0  0  0  0  3  0  0  0  0  0  0
    0.4610    0.7378    0.3046 O   0  0  0  0  0  0  0  0  0  0  0  0
   -0.6660    0.1535    0.9090 C   0  0  0  0  0  0  0  0  0  0  0  0
   -0.6048    0.3746    2.4063 C   0  0  0  0  0  0  0  0  0  0  0  0
   -0.6652    1.8450    2.7979 C   0  0  0  0  0  0  0  0  0  0  0  0
    1.3651    1.0827   -1.4657 H   0  0  0  0  0  0  0  0  0  0  0  0
   -0.4135    1.0950   -1.5392 H   0  0  0  0  0  0  0  0  0  0  0  0
   -0.6960   -0.9226    0.6827 H   0  0  0  0  0  0  0  0  0  0  0  0
   -1.5850    0.6005    0.4974 H   0  0  0  0  0  0  0  0  0  0  0  0
    0.3146   -0.0780    2.7865 H   0  0  0  0  0  0  0  0  0  0  0  0
   -1.4373   -0.1702    2.8603 H   0  0  0  0  0  0  0  0  0  0  0  0
   -0.6236    1.9644    3.8815 H   0  0  0  0  0  0  0  0  0  0  0  0
    0.1686    2.3955    2.3621 H   0  0  0  0  0  0  0  0  0  0  0  0
   -1.5919    2.3045    2.4454 H   0  0  0  0  0  0  0  0  0  0  0  0
  1  2  1  0
  1  3  1  0
  2  4  1  0
  2  5  1  0
  6  7  1  0
  6 11  1  0
  6 12  1  0
  7  8  1  0
  8  9  1  0
  8 13  1  0
  8 14  1  0
  9 10  1  0
  9 15  1  0
  9 16  1  0
 10 17  1  0
 10 18  1  0
 10 19  1  0
M  RAD  2   1   2   6   2
M  END
>  <reaction>  (9) 
rmg_rxn_677

>  <mol_properties>  (9) 
{"0": {"label": "*1", "atom_type": "N3s"}, "1": {"label": "*0", "atom_type": "N3s"}, "2": {"label": "*2", "atom_type": "H0"}, "5": {"label": "*3", "atom_type": "Cs"}, "6": {"label": "*4", "atom_type": "O2s"}}

>  <type>  (9) 
unop_5

>  <geom_source>  (9) 
Heuristics

$$$$

     RDKit          3D

 19 17  0  0  0  0  0  0  0  0999 V2000
   -1.5316   -1.8786   -0.6843 N   0  0  0  0  0  2  0  0  0  0  0  0
   -1.5316   -1.8786   -2.0253 N   0  0  0  0  0  0  0  0  0  0  0  0
   -1.5316   -0.7028   -0.3441 H   0  0  0  0  0  0  0  0  0  0  0  0
   -1.3437   -2.7786   -2.4342 H   0  0  0  0  0  0  0  0  0  0  0  0
   -1.1697   -1.0902   -2.5428 H   0  0  0  0  0  0  0  0  0  0  0  0
   -1.5316    0.5635    0.0223 C   0  0  0  0  0  3  0  0  0  0  0  0
   -0.2300    1.0568    0.1651 O   0  0  0  0  0  0  0  0  0  0  0  0
    0.7217    0.0403    0.3601 C   0  0  0  0  0  0  0  0  0  0  0  0
    2.0909    0.6619    0.5429 C   0  0  0  0  0  0  0  0  0  0  0  0
    2.1902    1.5386    1.7842 C   0  0  0  0  0  0  0  0  0  0  0  0
   -2.1939    1.4156   -0.1252 H   0  0  0  0  0  0  0  0  0  0  0  0
   -1.8539    0.0127    0.9164 H   0  0  0  0  0  0  0  0  0  0  0  0
    0.7237   -0.6408   -0.5037 H   0  0  0  0  0  0  0  0  0  0  0  0
    0.4551   -0.5562    1.2472 H   0  0  0  0  0  0  0  0  0  0  0  0
    2.3286    1.2463   -0.3497 H   0  0  0  0  0  0  0  0  0  0  0  0
    2.8232   -0.1485    0.5951 H   0  0  0  0  0  0  0  0  0  0  0  0
    3.1897    1.9641    1.8850 H   0  0  0  0  0  0  0  0  0  0  0  0
    1.4739    2.3587    1.7363 H   0  0  0  0  0  0  0  0  0  0  0  0
    1.9793    0.9607    2.6874 H   0  0  0  0  0  0  0  0  0  0  0  0
  1  2  1  0
  1  3  1  0
  2  4  1  0
  2  5  1  0
  6  7  1  0
  6 11  1  0
  6 12  1  0
  7  8  1  0
  8  9  1  0
  8 13  1  0
  8 14  1  0
  9 10  1  0
  9 15  1  0
  9 16  1  0
 10 17  1  0
 10 18  1  0
 10 19  1  0
M  RAD  2   1   2   6   2
M  END
>  <reaction>  (10) 
rmg_rxn_677

>  <mol_properties>  (10) 
{"0": {"label": "*1", "atom_type": "N3s"}, "1": {"label": "*0", "atom_type": "N3s"}, "2": {"label": "*2", "atom_type": "H0"}, "5": {"label": "*3", "atom_type": "Cs"}, "6": {"label": "*4", "atom_type": "O2s"}}

>  <type>  (10) 
unop_6

>  <geom_source>  (10) 
Heuristics

$$$$

     RDKit          3D

 19 17  0  0  0  0  0  0  0  0999 V2000
   -1.1587   -1.6770   -1.3708 N   0  0  0  0  0  2  0  0  0  0  0  0
   -1.1587   -1.6770   -2.7118 N   0  0  0  0  0  0  0  0  0  0  0  0
   -1.1587   -0.5012   -1.0306 H   0  0  0  0  0  0  0  0  0  0  0  0
   -0.9707   -2.5770   -3.1207 H   0  0  0  0  0  0  0  0  0  0  0  0
   -0.7967   -0.8886   -3.2293 H   0  0  0  0  0  0  0  0  0  0  0  0
   -1.1587    0.7651   -0.6641 C   0  0  0  0  0  3  0  0  0  0  0  0
   -0.0314    1.0775    0.1038 O   0  0  0  0  0  0  0  0  0  0  0  0
    0.5645   -0.0551    0.6861 C   0  0  0  0  0  0  0  0  0  0  0  0
    1.7485    0.3761    1.5269 C   0  0  0  0  0  0  0  0  0  0  0  0
    1.3581    1.2640    2.7010 C   0  0  0  0  0  0  0  0  0  0  0  0
   -1.5483    1.6962   -1.0735 H   0  0  0  0  0  0  0  0  0  0  0  0
   -1.9402    0.2885   -0.0569 H   0  0  0  0  0  0  0  0  0  0  0  0
    0.8884   -0.7531   -0.1000 H   0  0  0  0  0  0  0  0  0  0  0  0
   -0.1714   -0.5848    1.3118 H   0  0  0  0  0  0  0  0  0  0  0  0
    2.4604    0.8977    0.8820 H   0  0  0  0  0  0  0  0  0  0  0  0
    2.2501   -0.5261    1.8879 H   0  0  0  0  0  0  0  0  0  0  0  0
    2.2342    1.5499    3.2849 H   0  0  0  0  0  0  0  0  0  0  0  0
    0.8695    2.1736    2.3518 H   0  0  0  0  0  0  0  0  0  0  0  0
    0.6652    0.7454    3.3682 H   0  0  0  0  0  0  0  0  0  0  0  0
  1  2  1  0
  1  3  1  0
  2  4  1  0
  2  5  1  0
  6  7  1  0
  6 11  1  0
  6 12  1  0
  7  8  1  0
  8  9  1  0
  8 13  1  0
  8 14  1  0
  9 10  1  0
  9 15  1  0
  9 16  1  0
 10 17  1  0
 10 18  1  0
 10 19  1  0
M  RAD  2   1   2   6   2
M  END
>  <reaction>  (11) 
rmg_rxn_677

>  <mol_properties>  (11) 
{"0": {"label": "*1", "atom_type": "N3s"}, "1": {"label": "*0", "atom_type": "N3s"}, "2": {"label": "*2", "atom_type": "H0"}, "5": {"label": "*3", "atom_type": "Cs"}, "6": {"label": "*4", "atom_type": "O2s"}}

>  <type>  (11) 
unop_7

>  <geom_source>  (11) 
Heuristics

$$$$

     RDKit          3D

 19 17  0  0  0  0  0  0  0  0999 V2000
    1.3047   -2.6063   -0.1424 N   0  0  0  0  0  2  0  0  0  0  0  0
    1.3047   -2.6063   -1.4834 N   0  0  0  0  0  0  0  0  0  0  0  0
    1.3047   -1.4305    0.1978 H   0  0  0  0  0  0  0  0  0  0  0  0
    1.4926   -3.5062   -1.8922 H   0  0  0  0  0  0  0  0  0  0  0  0
    1.6667   -1.8178   -2.0009 H   0  0  0  0  0  0  0  0  0  0  0  0
    1.3047   -0.1641    0.5643 C   0  0  0  0  0  3  0  0  0  0  0  0
    0.0030    0.3292    0.7070 O   0  0  0  0  0  0  0  0  0  0  0  0
   -0.4259    1.0712   -0.4077 C   0  0  0  0  0  0  0  0  0  0  0  0
   -1.8235    1.5973   -0.1538 C   0  0  0  0  0  0  0  0  0  0  0  0
   -1.8948    2.5681    1.0174 C   0  0  0  0  0  0  0  0  0  0  0  0
    1.5476   -0.7225    1.4674 H   0  0  0  0  0  0  0  0  0  0  0  0
    2.0325    0.6495    0.4421 H   0  0  0  0  0  0  0  0  0  0  0  0
   -0.4140    0.4367   -1.3063 H   0  0  0  0  0  0  0  0  0  0  0  0
    0.2669    1.9084   -0.5886 H   0  0  0  0  0  0  0  0  0  0  0  0
   -2.4876    0.7471    0.0221 H   0  0  0  0  0  0  0  0  0  0  0  0
   -2.1697    2.0857   -1.0690 H   0  0  0  0  0  0  0  0  0  0  0  0
   -2.9136    2.9288    1.1665 H   0  0  0  0  0  0  0  0  0  0  0  0
   -1.5652    2.0874    1.9384 H   0  0  0  0  0  0  0  0  0  0  0  0
   -1.2540    3.4362    0.8436 H   0  0  0  0  0  0  0  0  0  0  0  0
  1  2  1  0
  1  3  1  0
  2  4  1  0
  2  5  1  0
  6  7  1  0
  6 11  1  0
  6 12  1  0
  7  8  1  0
  8  9  1  0
  8 13  1  0
  8 14  1  0
  9 10  1  0
  9 15  1  0
  9 16  1  0
 10 17  1  0
 10 18  1  0
 10 19  1  0
M  RAD  2   1   2   6   2
M  END
>  <reaction>  (12) 
rmg_rxn_677

>  <mol_properties>  (12) 
{"0": {"label": "*1", "atom_type": "N3s"}, "1": {"label": "*0", "atom_type": "N3s"}, "2": {"label": "*2", "atom_type": "H0"}, "5": {"label": "*3", "atom_type": "Cs"}, "6": {"label": "*4", "atom_type": "O2s"}}

>  <type>  (12) 
unop_8

>  <geom_source>  (12) 
Heuristics

$$$$

     RDKit          3D

 19 17  0  0  0  0  0  0  0  0999 V2000
   -1.1177   -2.3979    0.6231 N   0  0  0  0  0  2  0  0  0  0  0  0
   -1.1177   -2.3979   -0.7179 N   0  0  0  0  0  0  0  0  0  0  0  0
   -1.1177   -1.2221    0.9633 H   0  0  0  0  0  0  0  0  0  0  0  0
   -0.9297   -3.2979   -1.1268 H   0  0  0  0  0  0  0  0  0  0  0  0
   -0.7557   -1.6095   -1.2354 H   0  0  0  0  0  0  0  0  0  0  0  0
   -1.1177    0.0442    1.3298 C   0  0  0  0  0  3  0  0  0  0  0  0
   -0.4669    0.8509    0.3897 O   0  0  0  0  0  0  0  0  0  0  0  0
    0.7209    0.2757   -0.0955 C   0  0  0  0  0  0  0  0  0  0  0  0
    1.3773    1.2277   -1.0740 C   0  0  0  0  0  0  0  0  0  0  0  0
    1.8077    2.5413   -0.4349 C   0  0  0  0  0  0  0  0  0  0  0  0
   -2.0204    0.5660    1.6447 H   0  0  0  0  0  0  0  0  0  0  0  0
   -0.4863   -0.1380    2.2100 H   0  0  0  0  0  0  0  0  0  0  0  0
    0.4986   -0.6833   -0.5865 H   0  0  0  0  0  0  0  0  0  0  0  0
    1.4035    0.0640    0.7429 H   0  0  0  0  0  0  0  0  0  0  0  0
    0.6793    1.4193   -1.8930 H   0  0  0  0  0  0  0  0  0  0  0  0
    2.2427    0.7191   -1.5079 H   0  0  0  0  0  0  0  0  0  0  0  0
    2.2797    3.1978   -1.1673 H   0  0  0  0  0  0  0  0  0  0  0  0
    0.9502    3.0640   -0.0113 H   0  0  0  0  0  0  0  0  0  0  0  0
    2.5257    2.3662    0.3701 H   0  0  0  0  0  0  0  0  0  0  0  0
  1  2  1  0
  1  3  1  0
  2  4  1  0
  2  5  1  0
  6  7  1  0
  6 11  1  0
  6 12  1  0
  7  8  1  0
  8  9  1  0
  8 13  1  0
  8 14  1  0
  9 10  1  0
  9 15  1  0
  9 16  1  0
 10 17  1  0
 10 18  1  0
 10 19  1  0
M  RAD  2   1   2   6   2
M  END
>  <reaction>  (13) 
rmg_rxn_677

>  <mol_properties>  (13) 
{"0": {"label": "*1", "atom_type": "N3s"}, "1": {"label": "*0", "atom_type": "N3s"}, "2": {"label": "*2", "atom_type": "H0"}, "5": {"label": "*3", "atom_type": "Cs"}, "6": {"label": "*4", "atom_type": "O2s"}}

>  <type>  (13) 
unop_9

>  <geom_source>  (13) 
Heuristics

$$$$

     RDKit          3D

 19 17  0  0  0  0  0  0  0  0999 V2000
    0.9392   -2.7373    0.4879 N   0  0  0  0  0  2  0  0  0  0  0  0
    0.9392   -2.7373   -0.8531 N   0  0  0  0  0  0  0  0  0  0  0  0
    0.9392   -1.5615    0.8281 H   0  0  0  0  0  0  0  0  0  0  0  0
    1.1271   -3.6373   -1.2620 H   0  0  0  0  0  0  0  0  0  0  0  0
    1.3012   -1.9489   -1.3706 H   0  0  0  0  0  0  0  0  0  0  0  0
    0.9392   -0.2952    1.1946 C   0  0  0  0  0  3  0  0  0  0  0  0
   -0.1881    0.3791    0.7121 O   0  0  0  0  0  0  0  0  0  0  0  0
    0.0332    0.9928   -0.5334 C   0  0  0  0  0  0  0  0  0  0  0  0
   -1.2200    1.7285   -0.9611 C   0  0  0  0  0  0  0  0  0  0  0  0
   -1.5966    2.8666   -0.0220 C   0  0  0  0  0  0  0  0  0  0  0  0
    0.6747   -0.7369    2.1544 H   0  0  0  0  0  0  0  0  0  0  0  0
    1.7865    0.3889    1.3388 H   0  0  0  0  0  0  0  0  0  0  0  0
    0.3043    0.2333   -1.2816 H   0  0  0  0  0  0  0  0  0  0  0  0
    0.8783    1.6957   -0.4590 H   0  0  0  0  0  0  0  0  0  0  0  0
   -2.0397    1.0084   -1.0264 H   0  0  0  0  0  0  0  0  0  0  0  0
   -1.0550    2.1132   -1.9714 H   0  0  0  0  0  0  0  0  0  0  0  0
   -2.4992    3.3751   -0.3641 H   0  0  0  0  0  0  0  0  0  0  0  0
   -1.7773    2.4925    0.9856 H   0  0  0  0  0  0  0  0  0  0  0  0
   -0.7951    3.6075    0.0335 H   0  0  0  0  0  0  0  0  0  0  0  0
  1  2  1  0
  1  3  1  0
  2  4  1  0
  2  5  1  0
  6  7  1  0
  6 11  1  0
  6 12  1  0
  7  8  1  0
  8  9  1  0
  8 13  1  0
  8 14  1  0
  9 10  1  0
  9 15  1  0
  9 16  1  0
 10 17  1  0
 10 18  1  0
 10 19  1  0
M  RAD  2   1   2   6   2
M  END
>  <reaction>  (14) 
rmg_rxn_677

>  <mol_properties>  (14) 
{"0": {"label": "*1", "atom_type": "N3s"}, "1": {"label": "*0", "atom_type": "N3s"}, "2": {"label": "*2", "atom_type": "H0"}, "5": {"label": "*3", "atom_type": "Cs"}, "6": {"label": "*4", "atom_type": "O2s"}}

>  <type>  (14) 
unop_10

>  <geom_source>  (14) 
Heuristics

$$$$

     RDKit          3D

 19 17  0  0  0  0  0  0  0  0999 V2000
   -0.4154   -1.6170   -1.8117 N   0  0  0  0  0  2  0  0  0  0  0  0
   -0.4154   -1.6170   -3.1527 N   0  0  0  0  0  0  0  0  0  0  0  0
   -0.4154   -0.4412   -1.4715 H   0  0  0  0  0  0  0  0  0  0  0  0
   -0.2275   -2.5170   -3.5616 H   0  0  0  0  0  0  0  0  0  0  0  0
   -0.0534   -0.8286   -3.6702 H   0  0  0  0  0  0  0  0  0  0  0  0
   -0.4154    0.8251   -1.1051 C   0  0  0  0  0  3  0  0  0  0  0  0
    0.2354    1.0051    0.1205 O   0  0  0  0  0  0  0  0  0  0  0  0
    0.1036   -0.1019    0.9774 C   0  0  0  0  0  0  0  0  0  0  0  0
    0.8017    0.1919    2.2893 C   0  0  0  0  0  0  0  0  0  0  0  0
    0.1815    1.3559    3.0506 C   0  0  0  0  0  0  0  0  0  0  0  0
   -0.2581    1.7250   -1.6983 H   0  0  0  0  0  0  0  0  0  0  0  0
   -1.4947    0.6724   -0.9693 H   0  0  0  0  0  0  0  0  0  0  0  0
    0.5391   -0.9947    0.5046 H   0  0  0  0  0  0  0  0  0  0  0  0
   -0.9631   -0.3125    1.1549 H   0  0  0  0  0  0  0  0  0  0  0  0
    1.8555    0.3966    2.0832 H   0  0  0  0  0  0  0  0  0  0  0  0
    0.7685   -0.7161    2.8978 H   0  0  0  0  0  0  0  0  0  0  0  0
    0.7065    1.5344    3.9901 H   0  0  0  0  0  0  0  0  0  0  0  0
    0.2220    2.2702    2.4585 H   0  0  0  0  0  0  0  0  0  0  0  0
   -0.8665    1.1538    3.2853 H   0  0  0  0  0  0  0  0  0  0  0  0
  1  2  1  0
  1  3  1  0
  2  4  1  0
  2  5  1  0
  6  7  1  0
  6 11  1  0
  6 12  1  0
  7  8  1  0
  8  9  1  0
  8 13  1  0
  8 14  1  0
  9 10  1  0
  9 15  1  0
  9 16  1  0
 10 17  1  0
 10 18  1  0
 10 19  1  0
M  RAD  2   1   2   6   2
M  END
>  <reaction>  (15) 
rmg_rxn_677

>  <mol_properties>  (15) 
{"0": {"label": "*1", "atom_type": "N3s"}, "1": {"label": "*0", "atom_type": "N3s"}, "2": {"label": "*2", "atom_type": "H0"}, "5": {"label": "*3", "atom_type": "Cs"}, "6": {"label": "*4", "atom_type": "O2s"}}

>  <type>  (15) 
unop_11

>  <geom_source>  (15) 
Heuristics

$$$$

     RDKit          3D

 19 17  0  0  0  0  0  0  0  0999 V2000
   -0.4717   -2.6256    0.9343 N   0  0  0  0  0  2  0  0  0  0  0  0
   -0.4717   -2.6256   -0.4067 N   0  0  0  0  0  0  0  0  0  0  0  0
   -0.4717   -1.4498    1.2745 H   0  0  0  0  0  0  0  0  0  0  0  0
   -0.2837   -3.5256   -0.8156 H   0  0  0  0  0  0  0  0  0  0  0  0
   -0.1097   -1.8372   -0.9242 H   0  0  0  0  0  0  0  0  0  0  0  0
   -0.4717   -0.1835    1.6409 C   0  0  0  0  0  3  0  0  0  0  0  0
   -0.4717    0.6716    0.5333 O   0  0  0  0  0  0  0  0  0  0  0  0
    0.6554    0.5004   -0.2898 C   0  0  0  0  0  0  0  0  0  0  0  0
    0.5942    1.4869   -1.4376 C   0  0  0  0  0  0  0  0  0  0  0  0
    0.6545    2.9392   -0.9835 C   0  0  0  0  0  0  0  0  0  0  0  0
   -1.3757    0.0179    2.2142 H   0  0  0  0  0  0  0  0  0  0  0  0
    0.4028   -0.0109    2.2829 H   0  0  0  0  0  0  0  0  0  0  0  0
    0.6853   -0.5303   -0.6731 H   0  0  0  0  0  0  0  0  0  0  0  0
    1.5743    0.6585    0.2970 H   0  0  0  0  0  0  0  0  0  0  0  0
   -0.3253    1.3073   -2.0008 H   0  0  0  0  0  0  0  0  0  0  0  0
    1.4266    1.2687   -2.1124 H   0  0  0  0  0  0  0  0  0  0  0  0
    0.6130    3.6189   -1.8359 H   0  0  0  0  0  0  0  0  0  0  0  0
   -0.1792    3.1719   -0.3211 H   0  0  0  0  0  0  0  0  0  0  0  0
    1.5813    3.1394   -0.4401 H   0  0  0  0  0  0  0  0  0  0  0  0
  1  2  1  0
  1  3  1  0
  2  4  1  0
  2  5  1  0
  6  7  1  0
  6 11  1  0
  6 12  1  0
  7  8  1  0
  8  9  1  0
  8 13  1  0
  8 14  1  0
  9 10  1  0
  9 15  1  0
  9 16  1  0
 10 17  1  0
 10 18  1  0
 10 19  1  0
M  RAD  2   1   2   6   2
M  END
>  <reaction>  (16) 
rmg_rxn_677

>  <mol_properties>  (16) 
{"0": {"label": "*1", "atom_type": "N3s"}, "1": {"label": "*0", "atom_type": "N3s"}, "2": {"label": "*2", "atom_type": "H0"}, "5": {"label": "*3", "atom_type": "Cs"}, "6": {"label": "*4", "atom_type": "O2s"}}

>  <type>  (16) 
unop_12

>  <geom_source>  (16) 
Heuristics

$$$$

     RDKit          3D

 19 17  0  0  0  0  0  0  0  0999 V2000
    0.2858   -2.7526    0.8873 N   0  0  0  0  0  2  0  0  0  0  0  0
    0.2858   -2.7526   -0.4537 N   0  0  0  0  0  0  0  0  0  0  0  0
    0.2858   -1.5768    1.2275 H   0  0  0  0  0  0  0  0  0  0  0  0
    0.4738   -3.6526   -0.8626 H   0  0  0  0  0  0  0  0  0  0  0  0
    0.6478   -1.9642   -0.9712 H   0  0  0  0  0  0  0  0  0  0  0  0
    0.2858   -0.3105    1.5939 C   0  0  0  0  0  3  0  0  0  0  0  0
   -0.3650    0.4962    0.6538 O   0  0  0  0  0  0  0  0  0  0  0  0
    0.4319    0.7782   -0.4698 C   0  0  0  0  0  0  0  0  0  0  0  0
   -0.3323    1.6836   -1.4136 C   0  0  0  0  0  0  0  0  0  0  0  0
   -0.6564    3.0431   -0.8087 C   0  0  0  0  0  0  0  0  0  0  0  0
   -0.4033   -0.4763    2.4210 H   0  0  0  0  0  0  0  0  0  0  0  0
    1.1943    0.1725    1.9788 H   0  0  0  0  0  0  0  0  0  0  0  0
    0.7068   -0.1581   -0.9777 H   0  0  0  0  0  0  0  0  0  0  0  0
    1.3674    1.2655   -0.1519 H   0  0  0  0  0  0  0  0  0  0  0  0
   -1.2533    1.1760   -1.7117 H   0  0  0  0  0  0  0  0  0  0  0  0
    0.2681    1.8081   -2.3190 H   0  0  0  0  0  0  0  0  0  0  0  0
   -1.2016    3.6680   -1.5176 H   0  0  0  0  0  0  0  0  0  0  0  0
   -1.2671    2.9318    0.0873 H   0  0  0  0  0  0  0  0  0  0  0  0
    0.2575    3.5729   -0.5286 H   0  0  0  0  0  0  0  0  0  0  0  0
  1  2  1  0
  1  3  1  0
  2  4  1  0
  2  5  1  0
  6  7  1  0
  6 11  1  0
  6 12  1  0
  7  8  1  0
  8  9  1  0
  8 13  1  0
  8 14  1  0
  9 10  1  0
  9 15  1  0
  9 16  1  0
 10 17  1  0
 10 18  1  0
 10 19  1  0
M  RAD  2   1   2   6   2
M  END
>  <reaction>  (17) 
rmg_rxn_677

>  <mol_properties>  (17) 
{"0": {"label": "*1", "atom_type": "N3s"}, "1": {"label": "*0", "atom_type": "N3s"}, "2": {"label": "*2", "atom_type": "H0"}, "5": {"label": "*3", "atom_type": "Cs"}, "6": {"label": "*4", "atom_type": "O2s"}}

>  <type>  (17) 
unop_13

>  <geom_source>  (17) 
gaussian_log

$$$$
