
     RDKit          3D

 15 14  0  0  0  0  0  0  0  0999 V2000
   -2.0554    0.0723   -0.4910 C   0  0  0  0  0  0  0  0  0  0  0  0
   -0.7461   -0.6266   -0.8178 C   0  0  0  0  0  0  0  0  0  0  0  0
    0.3249    0.2591   -1.9782 S   0  0  0  0  0  0  0  0  0  0  0  0
   -0.7172    0.3642   -3.4551 C   0  0  0  0  0  0  0  0  0  0  0  0
   -1.1375   -0.9737   -4.0409 C   0  0  0  0  0  0  0  0  0  0  0  0
   -2.7005    0.1427   -1.3684 H   0  0  0  0  0  0  0  0  0  0  0  0
   -2.6016   -0.4848    0.2733 H   0  0  0  0  0  0  0  0  0  0  0  0
   -1.8758    1.0825   -0.1213 H   0  0  0  0  0  0  0  0  0  0  0  0
   -0.1320   -0.7246    0.0789 H   0  0  0  0  0  0  0  0  0  0  0  0
   -0.9254   -1.6374   -1.1879 H   0  0  0  0  0  0  0  0  0  0  0  0
   -1.5873    0.9874   -3.2422 H   0  0  0  0  0  0  0  0  0  0  0  0
   -0.1021    0.9161   -4.1678 H   0  0  0  0  0  0  0  0  0  0  0  0
   -1.7876   -1.5224   -3.3574 H   0  0  0  0  0  0  0  0  0  0  0  0
   -0.2676   -1.5962   -4.2534 H   0  0  0  0  0  0  0  0  0  0  0  0
   -1.6916   -0.8229   -4.9700 H   0  0  0  0  0  0  0  0  0  0  0  0
  1  2  1  0
  1  6  1  0
  1  7  1  0
  1  8  1  0
  2  3  1  0
  2  9  1  0
  2 10  1  0
  3  4  1  0
  4  5  1  0
  4 11  1  0
  4 12  1  0
  5 13  1  0
  5 14  1  0
  5 15  1  0
M  END
>  <reaction>  (1) 
rmg_rxn_633

>  <mol_properties>  (1) 
{"0": {"label": "donator", "atom_type": "Cs"}, "5": {"label": "d_hydrogen", "atom_type": "H0"}}

>  <type>  (1) 
r1h

$$$$

     RDKit          3D

 14 13  0  0  0  0  0  0  0  0999 V2000
    2.6694    0.2813   -0.6046 C   0  0  0  0  0  3  0  0  0  0  0  0
    1.5626   -0.5075   -0.0103 C   0  0  0  0  0  0  0  0  0  0  0  0
    0.5522   -0.8487   -0.9278 O   0  0  0  0  0  0  0  0  0  0  0  0
    0.9505   -1.8204   -1.8682 C   0  0  0  0  0  0  0  0  0  0  0  0
   -0.2101   -2.1029   -2.7930 C   0  0  0  0  0  0  0  0  0  0  0  0
    2.4666    0.9443   -1.4355 H   0  0  0  0  0  0  0  0  0  0  0  0
    3.6339    0.3312   -0.1179 H   0  0  0  0  0  0  0  0  0  0  0  0
    1.0573    0.0741    0.7733 H   0  0  0  0  0  0  0  0  0  0  0  0
    1.9580   -1.4106    0.4809 H   0  0  0  0  0  0  0  0  0  0  0  0
    1.8195   -1.4649   -2.4379 H   0  0  0  0  0  0  0  0  0  0  0  0
    1.2587   -2.7372   -1.3440 H   0  0  0  0  0  0  0  0  0  0  0  0
   -0.5051   -1.1971   -3.3238 H   0  0  0  0  0  0  0  0  0  0  0  0
    0.0686   -2.8601   -3.5276 H   0  0  0  0  0  0  0  0  0  0  0  0
   -1.0699   -2.4661   -2.2289 H   0  0  0  0  0  0  0  0  0  0  0  0
  1  2  1  0
  1  6  1  0
  1  7  1  0
  2  3  1  0
  2  8  1  0
  2  9  1  0
  3  4  1  0
  4  5  1  0
  4 10  1  0
  4 11  1  0
  5 12  1  0
  5 13  1  0
  5 14  1  0
M  RAD  1   1   2
M  END
>  <reaction>  (2) 
rmg_rxn_633

>  <mol_properties>  (2) 
{"0": {"label": "acceptor", "atom_type": "Cs"}}

>  <type>  (2) 
r2

$$$$

     RDKit          3D

 15 14  0  0  0  0  0  0  0  0999 V2000
    2.4145    0.0817    0.4065 C   0  0  0  0  0  0  0  0  0  0  0  0
    1.1257   -0.2220   -0.3219 C   0  0  0  0  0  0  0  0  0  0  0  0
    1.0983   -1.5879   -0.6512 O   0  0  0  0  0  0  0  0  0  0  0  0
   -0.0685   -1.9694   -1.3352 C   0  0  0  0  0  0  0  0  0  0  0  0
    0.0024   -3.4478   -1.6403 C   0  0  0  0  0  0  0  0  0  0  0  0
    3.2736   -0.1534   -0.2229 H   0  0  0  0  0  0  0  0  0  0  0  0
    2.4581    1.1389    0.6728 H   0  0  0  0  0  0  0  0  0  0  0  0
    2.4855   -0.5095    1.3201 H   0  0  0  0  0  0  0  0  0  0  0  0
    0.2597    0.0294    0.3083 H   0  0  0  0  0  0  0  0  0  0  0  0
    1.0482    0.3858   -1.2356 H   0  0  0  0  0  0  0  0  0  0  0  0
   -0.9535   -1.7457   -0.7211 H   0  0  0  0  0  0  0  0  0  0  0  0
   -0.1650   -1.3894   -2.2650 H   0  0  0  0  0  0  0  0  0  0  0  0
    0.0831   -4.0247   -0.7183 H   0  0  0  0  0  0  0  0  0  0  0  0
   -0.8950   -3.7674   -2.1724 H   0  0  0  0  0  0  0  0  0  0  0  0
    0.8712   -3.6686   -2.2613 H   0  0  0  0  0  0  0  0  0  0  0  0
  1  2  1  0
  1  6  1  0
  1  7  1  0
  1  8  1  0
  2  3  1  0
  2  9  1  0
  2 10  1  0
  3  4  1  0
  4  5  1  0
  4 11  1  0
  4 12  1  0
  5 13  1  0
  5 14  1  0
  5 15  1  0
M  END
>  <reaction>  (3) 
rmg_rxn_633

>  <mol_properties>  (3) 
{"0": {"label": "acceptor", "atom_type": "Cs"}, "14": {"label": "a_hydrogen", "atom_type": "H0"}}

>  <type>  (3) 
r2h

$$$$

     RDKit          3D

 29 27  0  0  0  0  0  0  0  0999 V2000
    0.5107   -1.7128    0.4872 C   0  0  0  0  0  3  0  0  0  0  0  0
    1.3074   -1.4342   -0.7490 C   0  0  0  0  0  0  0  0  0  0  0  0
    2.4192   -0.6414   -0.4167 O   0  0  0  0  0  0  0  0  0  0  0  0
    3.2203   -0.3172   -1.5261 C   0  0  0  0  0  0  0  0  0  0  0  0
    4.3691    0.5480   -1.0633 C   0  0  0  0  0  0  0  0  0  0  0  0
    1.0846   -2.1773    1.2862 H   0  0  0  0  0  0  0  0  0  0  0  0
   -0.4294   -2.2250    0.2959 H   0  0  0  0  0  0  0  0  0  0  0  0
    0.6882   -0.9174   -1.4987 H   0  0  0  0  0  0  0  0  0  0  0  0
    1.6455   -2.3748   -1.2157 H   0  0  0  0  0  0  0  0  0  0  0  0
    3.5958   -1.2365   -1.9986 H   0  0  0  0  0  0  0  0  0  0  0  0
    2.6188    0.2125   -2.2795 H   0  0  0  0  0  0  0  0  0  0  0  0
    4.9715    0.0198   -0.3235 H   0  0  0  0  0  0  0  0  0  0  0  0
    5.0082    0.8109   -1.9076 H   0  0  0  0  0  0  0  0  0  0  0  0
    3.9971    1.4681   -0.6111 H   0  0  0  0  0  0  0  0  0  0  0  0
    0.0592    0.7591    1.4207 C   0  0  0  0  0  0  0  0  0  0  0  0
   -0.7064    1.5569    0.3982 C   0  0  0  0  0  0  0  0  0  0  0  0
   -2.5096    1.4913    0.5454 S   0  0  0  0  0  0  0  0  0  0  0  0
   -2.8489   -0.2677    0.2973 C   0  0  0  0  0  0  0  0  0  0  0  0
   -2.6011   -0.7678   -1.1159 C   0  0  0  0  0  0  0  0  0  0  0  0
    0.1798   -0.5015    0.9983 H   0  0  0  0  0  0  0  0  0  0  0  0
    1.1102    1.0347    1.4839 H   0  0  0  0  0  0  0  0  0  0  0  0
   -0.4153    0.6975    2.3983 H   0  0  0  0  0  0  0  0  0  0  0  0
   -0.4863    2.6237    0.5014 H   0  0  0  0  0  0  0  0  0  0  0  0
   -0.4028    1.2829   -0.6158 H   0  0  0  0  0  0  0  0  0  0  0  0
   -2.2766   -0.8437    1.0259 H   0  0  0  0  0  0  0  0  0  0  0  0
   -3.9017   -0.3782    0.5622 H   0  0  0  0  0  0  0  0  0  0  0  0
   -1.5567   -0.6400   -1.4035 H   0  0  0  0  0  0  0  0  0  0  0  0
   -3.2157   -0.2241   -1.8338 H   0  0  0  0  0  0  0  0  0  0  0  0
   -2.8373   -1.8320   -1.1930 H   0  0  0  0  0  0  0  0  0  0  0  0
  1  2  1  0
  1  6  1  0
  1  7  1  0
  2  3  1  0
  2  8  1  0
  2  9  1  0
  3  4  1  0
  4  5  1  0
  4 10  1  0
  4 11  1  0
  5 12  1  0
  5 13  1  0
  5 14  1  0
 15 16  1  0
 15 20  1  0
 15 21  1  0
 15 22  1  0
 16 17  1  0
 16 23  1  0
 16 24  1  0
 17 18  1  0
 18 19  1  0
 18 25  1  0
 18 26  1  0
 19 27  1  0
 19 28  1  0
 19 29  1  0
M  RAD  1   1   2
M  END
>  <reaction>  (4) 
rmg_rxn_633

>  <mol_properties>  (4) 
{"0": {"label": "*3", "atom_type": "Cs"}, "1": {"label": "*4", "atom_type": "Cs"}, "14": {"label": "*1", "atom_type": "Cs"}, "15": {"label": "*0", "atom_type": "Cs"}, "19": {"label": "*2", "atom_type": "H0"}}

>  <type>  (4) 
ts

$$$$

     RDKit          3D

 29 27  0  0  0  0  0  0  0  0999 V2000
    0.1768   -1.3880   -0.0585 C   0  0  0  0  0  0  0  0  0  0  0  0
    1.3854   -1.5343   -0.9539 C   0  0  0  0  0  0  0  0  0  0  0  0
    2.3445   -0.5750   -0.5865 O   0  0  0  0  0  0  0  0  0  0  0  0
    3.5119   -0.6319   -1.3669 C   0  0  0  0  0  0  0  0  0  0  0  0
    4.4719    0.4345   -0.8927 C   0  0  0  0  0  0  0  0  0  0  0  0
    0.4541   -1.5388    0.9853 H   0  0  0  0  0  0  0  0  0  0  0  0
   -0.5829   -2.1242   -0.3258 H   0  0  0  0  0  0  0  0  0  0  0  0
    1.1017   -1.3967   -2.0079 H   0  0  0  0  0  0  0  0  0  0  0  0
    1.8112   -2.5445   -0.8627 H   0  0  0  0  0  0  0  0  0  0  0  0
    3.9714   -1.6279   -1.2822 H   0  0  0  0  0  0  0  0  0  0  0  0
    3.2620   -0.4801   -2.4274 H   0  0  0  0  0  0  0  0  0  0  0  0
    4.7318    0.2763    0.1545 H   0  0  0  0  0  0  0  0  0  0  0  0
    5.3877    0.4092   -1.4854 H   0  0  0  0  0  0  0  0  0  0  0  0
    4.0227    1.4234   -0.9899 H   0  0  0  0  0  0  0  0  0  0  0  0
    0.1259    0.9916    1.0323 C   0  0  0  0  0  3  0  0  0  0  0  0
   -1.1350    1.7504    0.6531 C   0  0  0  0  0  0  0  0  0  0  0  0
   -2.6756    1.0365    1.2817 S   0  0  0  0  0  0  0  0  0  0  0  0
   -2.6756   -0.6046    0.5168 C   0  0  0  0  0  0  0  0  0  0  0  0
   -2.6756   -0.6046   -1.0029 C   0  0  0  0  0  0  0  0  0  0  0  0
    0.1514   -0.1986    0.4867 H   0  0  0  0  0  0  0  0  0  0  0  0
    1.0106    1.5300    0.6854 H   0  0  0  0  0  0  0  0  0  0  0  0
    0.1966    0.8695    2.1137 H   0  0  0  0  0  0  0  0  0  0  0  0
   -1.1200    2.7536    1.0824 H   0  0  0  0  0  0  0  0  0  0  0  0
   -1.2062    1.8726   -0.4289 H   0  0  0  0  0  0  0  0  0  0  0  0
   -1.8394   -1.1872    0.9069 H   0  0  0  0  0  0  0  0  0  0  0  0
   -3.5868   -1.0684    0.8981 H   0  0  0  0  0  0  0  0  0  0  0  0
   -1.7526   -0.1810   -1.4023 H   0  0  0  0  0  0  0  0  0  0  0  0
   -3.5113   -0.0221   -1.3923 H   0  0  0  0  0  0  0  0  0  0  0  0
   -2.7582   -1.6258   -1.3816 H   0  0  0  0  0  0  0  0  0  0  0  0
  1  2  1  0
  1  6  1  0
  1  7  1  0
  1 20  1  0
  2  3  1  0
  2  8  1  0
  2  9  1  0
  3  4  1  0
  4  5  1  0
  4 10  1  0
  4 11  1  0
  5 12  1  0
  5 13  1  0
  5 14  1  0
 15 16  1  0
 15 21  1  0
 15 22  1  0
 16 17  1  0
 16 23  1  0
 16 24  1  0
 17 18  1  0
 18 19  1  0
 18 25  1  0
 18 26  1  0
 19 27  1  0
 19 28  1  0
 19 29  1  0
M  RAD  1  15   2
M  END
>  <reaction>  (5) 
rmg_rxn_633

>  <mol_properties>  (5) 
{"0": {"label": "*3", "atom_type": "Cs"}, "1": {"label": "*4", "atom_type": "Cs"}, "14": {"label": "*1", "atom_type": "Cs"}, "15": {"label": "*0", "atom_type": "Cs"}, "19": {"label": "*2", "atom_type": "H0"}}

>  <type>  (5) 
unop_1

>  <geom_source>  (5) 
Heuristics

$$$$

     RDKit          3D

 29 27  0  0  0  0  0  0  0  0999 V2000
    1.4380   -1.5501    0.5786 C   0  0  0  0  0  0  0  0  0  0  0  0
    0.6955   -1.5452   -0.7375 C   0  0  0  0  0  0  0  0  0  0  0  0
    1.0198   -0.3722   -1.4403 O   0  0  0  0  0  0  0  0  0  0  0  0
    0.3742   -0.2758   -2.6849 C   0  0  0  0  0  0  0  0  0  0  0  0
    0.7890    1.0139   -3.3545 C   0  0  0  0  0  0  0  0  0  0  0  0
    2.5150   -1.5186    0.4099 H   0  0  0  0  0  0  0  0  0  0  0  0
    1.2013   -2.4536    1.1428 H   0  0  0  0  0  0  0  0  0  0  0  0
   -0.3902   -1.5920   -0.5665 H   0  0  0  0  0  0  0  0  0  0  0  0
    0.9672   -2.4279   -1.3354 H   0  0  0  0  0  0  0  0  0  0  0  0
    0.6407   -1.1383   -3.3136 H   0  0  0  0  0  0  0  0  0  0  0  0
   -0.7166   -0.3024   -2.5447 H   0  0  0  0  0  0  0  0  0  0  0  0
    1.8686    1.0350   -3.5073 H   0  0  0  0  0  0  0  0  0  0  0  0
    0.2991    1.1106   -4.3246 H   0  0  0  0  0  0  0  0  0  0  0  0
    0.5120    1.8703   -2.7389 H   0  0  0  0  0  0  0  0  0  0  0  0
    1.3871    0.8295    1.6695 C   0  0  0  0  0  3  0  0  0  0  0  0
    0.1262    1.5883    1.2903 C   0  0  0  0  0  0  0  0  0  0  0  0
   -1.4144    0.8744    1.9189 S   0  0  0  0  0  0  0  0  0  0  0  0
   -1.4144   -0.7667    1.1540 C   0  0  0  0  0  0  0  0  0  0  0  0
   -1.4144   -0.7667   -0.3658 C   0  0  0  0  0  0  0  0  0  0  0  0
    1.4126   -0.3608    1.1239 H   0  0  0  0  0  0  0  0  0  0  0  0
    2.2719    1.3679    1.3225 H   0  0  0  0  0  0  0  0  0  0  0  0
    1.4578    0.7074    2.7509 H   0  0  0  0  0  0  0  0  0  0  0  0
    0.1413    2.5915    1.7195 H   0  0  0  0  0  0  0  0  0  0  0  0
    0.0551    1.7105    0.2082 H   0  0  0  0  0  0  0  0  0  0  0  0
   -0.5782   -1.3493    1.5440 H   0  0  0  0  0  0  0  0  0  0  0  0
   -2.3256   -1.2306    1.5353 H   0  0  0  0  0  0  0  0  0  0  0  0
   -0.4914   -0.3431   -0.7652 H   0  0  0  0  0  0  0  0  0  0  0  0
   -2.2501   -0.1842   -0.7552 H   0  0  0  0  0  0  0  0  0  0  0  0
   -1.4969   -1.7879   -0.7444 H   0  0  0  0  0  0  0  0  0  0  0  0
  1  2  1  0
  1  6  1  0
  1  7  1  0
  1 20  1  0
  2  3  1  0
  2  8  1  0
  2  9  1  0
  3  4  1  0
  4  5  1  0
  4 10  1  0
  4 11  1  0
  5 12  1  0
  5 13  1  0
  5 14  1  0
 15 16  1  0
 15 21  1  0
 15 22  1  0
 16 17  1  0
 16 23  1  0
 16 24  1  0
 17 18  1  0
 18 19  1  0
 18 25  1  0
 18 26  1  0
 19 27  1  0
 19 28  1  0
 19 29  1  0
M  RAD  1  15   2
M  END
>  <reaction>  (6) 
rmg_rxn_633

>  <mol_properties>  (6) 
{"0": {"label": "*3", "atom_type": "Cs"}, "1": {"label": "*4", "atom_type": "Cs"}, "14": {"label": "*1", "atom_type": "Cs"}, "15": {"label": "*0", "atom_type": "Cs"}, "19": {"label": "*2", "atom_type": "H0"}}

>  <type>  (6) 
unop_2

>  <geom_source>  (6) 
Heuristics

$$$$

     RDKit          3D

 29 27  0  0  0  0  0  0  0  0999 V2000
    0.1158   -1.0824   -0.6292 C   0  0  0  0  0  0  0  0  0  0  0  0
    1.5402   -1.5165   -0.8863 C   0  0  0  0  0  0  0  0  0  0  0  0
    2.3725   -0.9588    0.0992 O   0  0  0  0  0  0  0  0  0  0  0  0
    3.7250   -1.3075   -0.0559 C   0  0  0  0  0  0  0  0  0  0  0  0
    4.5286   -0.6602    1.0481 C   0  0  0  0  0  0  0  0  0  0  0  0
   -0.2151   -1.4201    0.3535 H   0  0  0  0  0  0  0  0  0  0  0  0
   -0.5501   -1.5042   -1.3837 H   0  0  0  0  0  0  0  0  0  0  0  0
    1.8679   -1.1882   -1.8838 H   0  0  0  0  0  0  0  0  0  0  0  0
    1.6172   -2.6138   -0.8655 H   0  0  0  0  0  0  0  0  0  0  0  0
    3.8367   -2.4014   -0.0219 H   0  0  0  0  0  0  0  0  0  0  0  0
    4.0874   -0.9758   -1.0402 H   0  0  0  0  0  0  0  0  0  0  0  0
    4.1798   -0.9996    2.0240 H   0  0  0  0  0  0  0  0  0  0  0  0
    5.5843   -0.9174    0.9479 H   0  0  0  0  0  0  0  0  0  0  0  0
    4.4304    0.4251    1.0062 H   0  0  0  0  0  0  0  0  0  0  0  0
    0.0648    1.2972    0.4617 C   0  0  0  0  0  3  0  0  0  0  0  0
   -1.1961    2.0561    0.0825 C   0  0  0  0  0  0  0  0  0  0  0  0
   -2.7367    1.3422    0.7110 S   0  0  0  0  0  0  0  0  0  0  0  0
   -2.7367   -0.2989   -0.0538 C   0  0  0  0  0  0  0  0  0  0  0  0
   -2.7367   -0.2989   -1.5736 C   0  0  0  0  0  0  0  0  0  0  0  0
    0.0903    0.1070   -0.0840 H   0  0  0  0  0  0  0  0  0  0  0  0
    0.9496    1.8356    0.1147 H   0  0  0  0  0  0  0  0  0  0  0  0
    0.1355    1.1752    1.5431 H   0  0  0  0  0  0  0  0  0  0  0  0
   -1.1810    3.0593    0.5117 H   0  0  0  0  0  0  0  0  0  0  0  0
   -1.2672    2.1783   -0.9996 H   0  0  0  0  0  0  0  0  0  0  0  0
   -1.9005   -0.8816    0.3362 H   0  0  0  0  0  0  0  0  0  0  0  0
   -3.6479   -0.7628    0.3274 H   0  0  0  0  0  0  0  0  0  0  0  0
   -1.8136    0.1246   -1.9730 H   0  0  0  0  0  0  0  0  0  0  0  0
   -3.5724    0.2835   -1.9630 H   0  0  0  0  0  0  0  0  0  0  0  0
   -2.8192   -1.3201   -1.9522 H   0  0  0  0  0  0  0  0  0  0  0  0
  1  2  1  0
  1  6  1  0
  1  7  1  0
  1 20  1  0
  2  3  1  0
  2  8  1  0
  2  9  1  0
  3  4  1  0
  4  5  1  0
  4 10  1  0
  4 11  1  0
  5 12  1  0
  5 13  1  0
  5 14  1  0
 15 16  1  0
 15 21  1  0
 15 22  1  0
 16 17  1  0
 16 23  1  0
 16 24  1  0
 17 18  1  0
 18 19  1  0
 18 25  1  0
 18 26  1  0
 19 27  1  0
 19 28  1  0
 19 29  1  0
M  RAD  1  15   2
M  END
>  <reaction>  (7) 
rmg_rxn_633

>  <mol_properties>  (7) 
{"0": {"label": "*3", "atom_type": "Cs"}, "1": {"label": "*4", "atom_type": "Cs"}, "14": {"label": "*1", "atom_type": "Cs"}, "15": {"label": "*0", "atom_type": "Cs"}, "19": {"label": "*2", "atom_type": "H0"}}

>  <type>  (7) 
unop_3

>  <geom_source>  (7) 
Heuristics

$$$$

     RDKit          3D

 29 25  0  0  0  0  0  0  0  0999 V2000
    2.2027   -0.7375   -0.2647 C   0  0  0  0  0  3  0  0  0  0  0  0
    1.0147   -1.5537    0.1895 C   0  0  0  0  0  2  0  0  0  0  0  0
   -0.0384   -1.3743   -0.7237 O   0  0  0  0  0  1  0  0  0  0  0  0
   -1.1946   -2.0978   -0.3849 C   0  0  0  0  0  0  0  0  0  0  0  0
   -2.2595   -1.8366   -1.4247 C   0  0  0  0  0  0  0  0  0  0  0  0
    2.5284   -1.0556   -1.2556 H   0  0  0  0  0  0  0  0  0  0  0  0
    3.0344   -0.8614    0.4306 H   0  0  0  0  0  0  0  0  0  0  0  0
    0.6962   -1.2420    1.1953 H   0  0  0  0  0  0  0  0  0  0  0  0
    1.2811   -2.6193    0.2502 H   0  0  0  0  0  0  0  0  0  0  0  0
   -0.9632   -3.1721   -0.3332 H   0  0  0  0  0  0  0  0  0  0  0  0
   -1.5481   -1.7948    0.6119 H   0  0  0  0  0  0  0  0  0  0  0  0
   -1.9157   -2.1503   -2.4109 H   0  0  0  0  0  0  0  0  0  0  0  0
   -3.1685   -2.3892   -1.1819 H   0  0  0  0  0  0  0  0  0  0  0  0
   -2.5003   -0.7738   -1.4664 H   0  0  0  0  0  0  0  0  0  0  0  0
    2.1517    1.6421    0.8262 C   0  0  0  0  0  3  0  0  0  0  0  0
    0.8908    2.4009    0.4470 C   0  0  0  0  0  0  0  0  0  0  0  0
   -0.6498    1.6870    1.0755 S   0  0  0  0  0  0  0  0  0  0  0  0
   -0.6498    0.0459    0.3107 C   0  0  0  0  0  0  0  0  0  0  0  0
   -0.6498    0.0459   -1.2091 C   0  0  0  0  0  0  0  0  0  0  0  0
    2.1772    0.4519    0.2805 H   0  0  0  0  0  0  0  0  0  0  0  0
    3.0365    2.1805    0.4792 H   0  0  0  0  0  0  0  0  0  0  0  0
    2.2224    1.5200    1.9076 H   0  0  0  0  0  0  0  0  0  0  0  0
    0.9059    3.4041    0.8762 H   0  0  0  0  0  0  0  0  0  0  0  0
    0.8197    2.5231   -0.6351 H   0  0  0  0  0  0  0  0  0  0  0  0
    0.1864   -0.5367    0.7007 H   0  0  0  0  0  0  0  0  0  0  0  0
   -1.5610   -0.4179    0.6919 H   0  0  0  0  0  0  0  0  0  0  0  0
    0.2733    0.4695   -1.6085 H   0  0  0  0  0  0  0  0  0  0  0  0
   -1.4855    0.6284   -1.5985 H   0  0  0  0  0  0  0  0  0  0  0  0
   -0.7323   -0.9753   -1.5877 H   0  0  0  0  0  0  0  0  0  0  0  0
  1  6  1  0
  1  7  1  0
  1 20  1  0
  2  8  1  0
  2  9  1  0
  3  4  1  0
  4  5  1  0
  4 10  1  0
  4 11  1  0
  5 12  1  0
  5 13  1  0
  5 14  1  0
 15 16  1  0
 15 21  1  0
 15 22  1  0
 16 17  1  0
 16 23  1  0
 16 24  1  0
 17 18  1  0
 18 19  1  0
 18 25  1  0
 18 26  1  0
 19 27  1  0
 19 28  1  0
 19 29  1  0
M  RAD  4   1   2   2   3   3   2  15   2
M  END
>  <reaction>  (8) 
rmg_rxn_633

>  <mol_properties>  (8) 
{"0": {"label": "*3", "atom_type": "Cs"}, "1": {"label": "*4", "atom_type": "Cs"}, "14": {"label": "*1", "atom_type": "Cs"}, "15": {"label": "*0", "atom_type": "Cs"}, "19": {"label": "*2", "atom_type": "H0"}}

>  <type>  (8) 
unop_4

>  <geom_source>  (8) 
Heuristics

$$$$

     RDKit          3D

 29 27  0  0  0  0  0  0  0  0999 V2000
    0.5085   -0.6602   -1.1230 C   0  0  0  0  0  0  0  0  0  0  0  0
    1.7699   -1.3949   -0.7322 C   0  0  0  0  0  0  0  0  0  0  0  0
    1.8071   -1.5260    0.6666 O   0  0  0  0  0  0  0  0  0  0  0  0
    2.9499   -2.2003    1.1294 C   0  0  0  0  0  0  0  0  0  0  0  0
    2.8920   -2.2869    2.6370 C   0  0  0  0  0  0  0  0  0  0  0  0
   -0.3726   -1.2099   -0.7902 H   0  0  0  0  0  0  0  0  0  0  0  0
    0.4578   -0.5464   -2.2070 H   0  0  0  0  0  0  0  0  0  0  0  0
    2.6576   -0.8470   -1.0813 H   0  0  0  0  0  0  0  0  0  0  0  0
    1.7973   -2.3888   -1.2030 H   0  0  0  0  0  0  0  0  0  0  0  0
    2.9960   -3.2070    0.6881 H   0  0  0  0  0  0  0  0  0  0  0  0
    3.8564   -1.6652    0.8098 H   0  0  0  0  0  0  0  0  0  0  0  0
    2.0012   -2.8300    2.9546 H   0  0  0  0  0  0  0  0  0  0  0  0
    3.7711   -2.8077    3.0198 H   0  0  0  0  0  0  0  0  0  0  0  0
    2.8611   -1.2891    3.0761 H   0  0  0  0  0  0  0  0  0  0  0  0
    0.4576    1.7194   -0.0322 C   0  0  0  0  0  3  0  0  0  0  0  0
   -0.8033    2.4783   -0.4114 C   0  0  0  0  0  0  0  0  0  0  0  0
   -2.3439    1.7643    0.2172 S   0  0  0  0  0  0  0  0  0  0  0  0
   -2.3439    0.1232   -0.5477 C   0  0  0  0  0  0  0  0  0  0  0  0
   -2.3439    0.1232   -2.0674 C   0  0  0  0  0  0  0  0  0  0  0  0
    0.4830    0.5292   -0.5778 H   0  0  0  0  0  0  0  0  0  0  0  0
    1.3423    2.2578   -0.3791 H   0  0  0  0  0  0  0  0  0  0  0  0
    0.5282    1.5974    1.0493 H   0  0  0  0  0  0  0  0  0  0  0  0
   -0.7883    3.4814    0.0179 H   0  0  0  0  0  0  0  0  0  0  0  0
   -0.8745    2.6005   -1.4934 H   0  0  0  0  0  0  0  0  0  0  0  0
   -1.5077   -0.4594   -0.1576 H   0  0  0  0  0  0  0  0  0  0  0  0
   -3.2551   -0.3406   -0.1664 H   0  0  0  0  0  0  0  0  0  0  0  0
   -1.4209    0.5468   -2.4668 H   0  0  0  0  0  0  0  0  0  0  0  0
   -3.1796    0.7057   -2.4568 H   0  0  0  0  0  0  0  0  0  0  0  0
   -2.4265   -0.8979   -2.4461 H   0  0  0  0  0  0  0  0  0  0  0  0
  1  2  1  0
  1  6  1  0
  1  7  1  0
  1 20  1  0
  2  3  1  0
  2  8  1  0
  2  9  1  0
  3  4  1  0
  4  5  1  0
  4 10  1  0
  4 11  1  0
  5 12  1  0
  5 13  1  0
  5 14  1  0
 15 16  1  0
 15 21  1  0
 15 22  1  0
 16 17  1  0
 16 23  1  0
 16 24  1  0
 17 18  1  0
 18 19  1  0
 18 25  1  0
 18 26  1  0
 19 27  1  0
 19 28  1  0
 19 29  1  0
M  RAD  1  15   2
M  END
>  <reaction>  (9) 
rmg_rxn_633

>  <mol_properties>  (9) 
{"0": {"label": "*3", "atom_type": "Cs"}, "1": {"label": "*4", "atom_type": "Cs"}, "14": {"label": "*1", "atom_type": "Cs"}, "15": {"label": "*0", "atom_type": "Cs"}, "19": {"label": "*2", "atom_type": "H0"}}

>  <type>  (9) 
unop_5

>  <geom_source>  (9) 
Heuristics

$$$$

     RDKit          3D

 29 27  0  0  0  0  0  0  0  0999 V2000
    2.0240   -0.4791   -0.6876 C   0  0  0  0  0  0  0  0  0  0  0  0
    1.3730   -1.4934    0.2239 C   0  0  0  0  0  0  0  0  0  0  0  0
    0.0551   -1.7175   -0.2098 O   0  0  0  0  0  0  0  0  0  0  0  0
   -0.6365   -2.6518    0.5800 C   0  0  0  0  0  0  0  0  0  0  0  0
   -2.0347   -2.8187    0.0316 C   0  0  0  0  0  0  0  0  0  0  0  0
    2.0412   -0.8442   -1.7151 H   0  0  0  0  0  0  0  0  0  0  0  0
    3.0503   -0.2888   -0.3696 H   0  0  0  0  0  0  0  0  0  0  0  0
    1.3695   -1.1305    1.2624 H   0  0  0  0  0  0  0  0  0  0  0  0
    1.9372   -2.4378    0.2131 H   0  0  0  0  0  0  0  0  0  0  0  0
   -0.1042   -3.6146    0.5749 H   0  0  0  0  0  0  0  0  0  0  0  0
   -0.6718   -2.3073    1.6242 H   0  0  0  0  0  0  0  0  0  0  0  0
   -2.0011   -3.1744   -0.9988 H   0  0  0  0  0  0  0  0  0  0  0  0
   -2.5918   -3.5411    0.6302 H   0  0  0  0  0  0  0  0  0  0  0  0
   -2.5684   -1.8679    0.0499 H   0  0  0  0  0  0  0  0  0  0  0  0
    1.9731    1.9005    0.4032 C   0  0  0  0  0  3  0  0  0  0  0  0
    0.7122    2.6594    0.0240 C   0  0  0  0  0  0  0  0  0  0  0  0
   -0.8284    1.9454    0.6526 S   0  0  0  0  0  0  0  0  0  0  0  0
   -0.8284    0.3043   -0.1123 C   0  0  0  0  0  0  0  0  0  0  0  0
   -0.8284    0.3043   -1.6320 C   0  0  0  0  0  0  0  0  0  0  0  0
    1.9986    0.7103   -0.1424 H   0  0  0  0  0  0  0  0  0  0  0  0
    2.8579    2.4389    0.0563 H   0  0  0  0  0  0  0  0  0  0  0  0
    2.0438    1.7785    1.4846 H   0  0  0  0  0  0  0  0  0  0  0  0
    0.7273    3.6625    0.4533 H   0  0  0  0  0  0  0  0  0  0  0  0
    0.6410    2.7816   -1.0580 H   0  0  0  0  0  0  0  0  0  0  0  0
    0.0078   -0.2783    0.2778 H   0  0  0  0  0  0  0  0  0  0  0  0
   -1.7396   -0.1595    0.2690 H   0  0  0  0  0  0  0  0  0  0  0  0
    0.0946    0.7279   -2.0314 H   0  0  0  0  0  0  0  0  0  0  0  0
   -1.6641    0.8868   -2.0214 H   0  0  0  0  0  0  0  0  0  0  0  0
   -0.9109   -0.7168   -2.0107 H   0  0  0  0  0  0  0  0  0  0  0  0
  1  2  1  0
  1  6  1  0
  1  7  1  0
  1 20  1  0
  2  3  1  0
  2  8  1  0
  2  9  1  0
  3  4  1  0
  4  5  1  0
  4 10  1  0
  4 11  1  0
  5 12  1  0
  5 13  1  0
  5 14  1  0
 15 16  1  0
 15 21  1  0
 15 22  1  0
 16 17  1  0
 16 23  1  0
 16 24  1  0
 17 18  1  0
 18 19  1  0
 18 25  1  0
 18 26  1  0
 19 27  1  0
 19 28  1  0
 19 29  1  0
M  RAD  1  15   2
M  END
>  <reaction>  (10) 
rmg_rxn_633

>  <mol_properties>  (10) 
{"0": {"label": "*3", "atom_type": "Cs"}, "1": {"label": "*4", "atom_type": "Cs"}, "14": {"label": "*1", "atom_type": "Cs"}, "15": {"label": "*0", "atom_type": "Cs"}, "19": {"label": "*2", "atom_type": "H0"}}

>  <type>  (10) 
unop_6

>  <geom_source>  (10) 
Heuristics

$$$$

     RDKit          3D

 29 27  0  0  0  0  0  0  0  0999 V2000
    1.6410   -0.3362   -1.0114 C   0  0  0  0  0  0  0  0  0  0  0  0
    1.7041   -1.4059    0.0542 C   0  0  0  0  0  0  0  0  0  0  0  0
    0.4144   -1.9271    0.2549 O   0  0  0  0  0  0  0  0  0  0  0  0
    0.3704   -2.9347    1.2336 C   0  0  0  0  0  0  0  0  0  0  0  0
   -1.0528   -3.4240    1.3707 C   0  0  0  0  0  0  0  0  0  0  0  0
    1.2719   -0.7526   -1.9493 H   0  0  0  0  0  0  0  0  0  0  0  0
    2.6330    0.0838   -1.1845 H   0  0  0  0  0  0  0  0  0  0  0  0
    2.0905   -0.9882    0.9957 H   0  0  0  0  0  0  0  0  0  0  0  0
    2.3908   -2.2102   -0.2488 H   0  0  0  0  0  0  0  0  0  0  0  0
    1.0359   -3.7632    0.9493 H   0  0  0  0  0  0  0  0  0  0  0  0
    0.7357   -2.5412    2.1938 H   0  0  0  0  0  0  0  0  0  0  0  0
   -1.4110   -3.8278    0.4231 H   0  0  0  0  0  0  0  0  0  0  0  0
   -1.1116   -4.2084    2.1268 H   0  0  0  0  0  0  0  0  0  0  0  0
   -1.7110   -2.6065    1.6669 H   0  0  0  0  0  0  0  0  0  0  0  0
    1.5900    2.0434    0.0795 C   0  0  0  0  0  3  0  0  0  0  0  0
    0.3291    2.8022   -0.2997 C   0  0  0  0  0  0  0  0  0  0  0  0
   -1.2115    2.0883    0.3289 S   0  0  0  0  0  0  0  0  0  0  0  0
   -1.2115    0.4472   -0.4360 C   0  0  0  0  0  0  0  0  0  0  0  0
   -1.2115    0.4472   -1.9558 C   0  0  0  0  0  0  0  0  0  0  0  0
    1.6155    0.8531   -0.4661 H   0  0  0  0  0  0  0  0  0  0  0  0
    2.4748    2.5818   -0.2675 H   0  0  0  0  0  0  0  0  0  0  0  0
    1.6607    1.9213    1.1609 H   0  0  0  0  0  0  0  0  0  0  0  0
    0.3442    3.8054    0.1295 H   0  0  0  0  0  0  0  0  0  0  0  0
    0.2580    2.9244   -1.3818 H   0  0  0  0  0  0  0  0  0  0  0  0
   -0.3753   -0.1354   -0.0460 H   0  0  0  0  0  0  0  0  0  0  0  0
   -2.1227   -0.0167   -0.0547 H   0  0  0  0  0  0  0  0  0  0  0  0
   -0.2884    0.8708   -2.3552 H   0  0  0  0  0  0  0  0  0  0  0  0
   -2.0472    1.0297   -2.3452 H   0  0  0  0  0  0  0  0  0  0  0  0
   -1.2940   -0.5740   -2.3344 H   0  0  0  0  0  0  0  0  0  0  0  0
  1  2  1  0
  1  6  1  0
  1  7  1  0
  1 20  1  0
  2  3  1  0
  2  8  1  0
  2  9  1  0
  3  4  1  0
  4  5  1  0
  4 10  1  0
  4 11  1  0
  5 12  1  0
  5 13  1  0
  5 14  1  0
 15 16  1  0
 15 21  1  0
 15 22  1  0
 16 17  1  0
 16 23  1  0
 16 24  1  0
 17 18  1  0
 18 19  1  0
 18 25  1  0
 18 26  1  0
 19 27  1  0
 19 28  1  0
 19 29  1  0
M  RAD  1  15   2
M  END
>  <reaction>  (11) 
rmg_rxn_633

>  <mol_properties>  (11) 
{"0": {"label": "*3", "atom_type": "Cs"}, "1": {"label": "*4", "atom_type": "Cs"}, "14": {"label": "*1", "atom_type": "Cs"}, "15": {"label": "*0", "atom_type": "Cs"}, "19": {"label": "*2", "atom_type": "H0"}}

>  <type>  (11) 
unop_7

>  <geom_source>  (11) 
Heuristics

$$$$

     RDKit          3D

 29 27  0  0  0  0  0  0  0  0999 V2000
    0.5163   -1.5668    0.3495 C   0  0  0  0  0  0  0  0  0  0  0  0
    1.1879   -1.5149   -1.0033 C   0  0  0  0  0  0  0  0  0  0  0  0
    1.9882   -0.3617   -1.0717 O   0  0  0  0  0  0  0  0  0  0  0  0
    2.6579   -0.2243   -2.2995 C   0  0  0  0  0  0  0  0  0  0  0  0
    3.4854    1.0398   -2.2687 C   0  0  0  0  0  0  0  0  0  0  0  0
    1.2615   -1.5991    1.1450 H   0  0  0  0  0  0  0  0  0  0  0  0
   -0.1118   -2.4558    0.4258 H   0  0  0  0  0  0  0  0  0  0  0  0
    0.4354   -1.4974   -1.8056 H   0  0  0  0  0  0  0  0  0  0  0  0
    1.8068   -2.4109   -1.1597 H   0  0  0  0  0  0  0  0  0  0  0  0
    3.3001   -1.0999   -2.4766 H   0  0  0  0  0  0  0  0  0  0  0  0
    1.9287   -0.1864   -3.1224 H   0  0  0  0  0  0  0  0  0  0  0  0
    4.2186    0.9969   -1.4625 H   0  0  0  0  0  0  0  0  0  0  0  0
    4.0156    1.1676   -3.2137 H   0  0  0  0  0  0  0  0  0  0  0  0
    2.8480    1.9099   -2.1079 H   0  0  0  0  0  0  0  0  0  0  0  0
    0.4654    0.8128    1.4403 C   0  0  0  0  0  3  0  0  0  0  0  0
   -0.7956    1.5716    1.0611 C   0  0  0  0  0  0  0  0  0  0  0  0
   -2.3361    0.8577    1.6897 S   0  0  0  0  0  0  0  0  0  0  0  0
   -2.3361   -0.7834    0.9248 C   0  0  0  0  0  0  0  0  0  0  0  0
   -2.3361   -0.7834   -0.5949 C   0  0  0  0  0  0  0  0  0  0  0  0
    0.4908   -0.3774    0.8947 H   0  0  0  0  0  0  0  0  0  0  0  0
    1.3501    1.3512    1.0934 H   0  0  0  0  0  0  0  0  0  0  0  0
    0.5360    0.6907    2.5217 H   0  0  0  0  0  0  0  0  0  0  0  0
   -0.7805    2.5748    1.4904 H   0  0  0  0  0  0  0  0  0  0  0  0
   -0.8667    1.6938   -0.0209 H   0  0  0  0  0  0  0  0  0  0  0  0
   -1.5000   -1.3660    1.3148 H   0  0  0  0  0  0  0  0  0  0  0  0
   -3.2474   -1.2472    1.3061 H   0  0  0  0  0  0  0  0  0  0  0  0
   -1.4131   -0.3598   -0.9943 H   0  0  0  0  0  0  0  0  0  0  0  0
   -3.1719   -0.2009   -0.9843 H   0  0  0  0  0  0  0  0  0  0  0  0
   -2.4187   -1.8046   -0.9736 H   0  0  0  0  0  0  0  0  0  0  0  0
  1  2  1  0
  1  6  1  0
  1  7  1  0
  1 20  1  0
  2  3  1  0
  2  8  1  0
  2  9  1  0
  3  4  1  0
  4  5  1  0
  4 10  1  0
  4 11  1  0
  5 12  1  0
  5 13  1  0
  5 14  1  0
 15 16  1  0
 15 21  1  0
 15 22  1  0
 16 17  1  0
 16 23  1  0
 16 24  1  0
 17 18  1  0
 18 19  1  0
 18 25  1  0
 18 26  1  0
 19 27  1  0
 19 28  1  0
 19 29  1  0
M  RAD  1  15   2
M  END
>  <reaction>  (12) 
rmg_rxn_633

>  <mol_properties>  (12) 
{"0": {"label": "*3", "atom_type": "Cs"}, "1": {"label": "*4", "atom_type": "Cs"}, "14": {"label": "*1", "atom_type": "Cs"}, "15": {"label": "*0", "atom_type": "Cs"}, "19": {"label": "*2", "atom_type": "H0"}}

>  <type>  (12) 
unop_8

>  <geom_source>  (12) 
Heuristics

$$$$

     RDKit          3D

 29 27  0  0  0  0  0  0  0  0999 V2000
    0.9737   -1.6220    0.5549 C   0  0  0  0  0  0  0  0  0  0  0  0
    0.9312   -1.5147   -0.9519 C   0  0  0  0  0  0  0  0  0  0  0  0
    1.5103   -0.2942   -1.3392 O   0  0  0  0  0  0  0  0  0  0  0  0
    1.5173   -0.1016   -2.7313 C   0  0  0  0  0  0  0  0  0  0  0  0
    2.1576    1.2321   -3.0392 C   0  0  0  0  0  0  0  0  0  0  0  0
    2.0035   -1.5838    0.9117 H   0  0  0  0  0  0  0  0  0  0  0  0
    0.5284   -2.5638    0.8795 H   0  0  0  0  0  0  0  0  0  0  0  0
   -0.1070   -1.5683   -1.3119 H   0  0  0  0  0  0  0  0  0  0  0  0
    1.4768   -2.3517   -1.4123 H   0  0  0  0  0  0  0  0  0  0  0  0
    2.0722   -0.9162   -3.2200 H   0  0  0  0  0  0  0  0  0  0  0  0
    0.4884   -0.1328   -3.1195 H   0  0  0  0  0  0  0  0  0  0  0  0
    3.1826    1.2588   -2.6677 H   0  0  0  0  0  0  0  0  0  0  0  0
    2.1741    1.4038   -4.1166 H   0  0  0  0  0  0  0  0  0  0  0  0
    1.5997    2.0417   -2.5673 H   0  0  0  0  0  0  0  0  0  0  0  0
    0.9228    0.7576    1.6457 C   0  0  0  0  0  3  0  0  0  0  0  0
   -0.3381    1.5165    1.2665 C   0  0  0  0  0  0  0  0  0  0  0  0
   -1.8787    0.8025    1.8951 S   0  0  0  0  0  0  0  0  0  0  0  0
   -1.8787   -0.8386    1.1302 C   0  0  0  0  0  0  0  0  0  0  0  0
   -1.8787   -0.8386   -0.3895 C   0  0  0  0  0  0  0  0  0  0  0  0
    0.9482   -0.4326    1.1001 H   0  0  0  0  0  0  0  0  0  0  0  0
    1.8075    1.2960    1.2988 H   0  0  0  0  0  0  0  0  0  0  0  0
    0.9934    0.6356    2.7271 H   0  0  0  0  0  0  0  0  0  0  0  0
   -0.3231    2.5196    1.6958 H   0  0  0  0  0  0  0  0  0  0  0  0
   -0.4093    1.6387    0.1844 H   0  0  0  0  0  0  0  0  0  0  0  0
   -1.0425   -1.4212    1.5202 H   0  0  0  0  0  0  0  0  0  0  0  0
   -2.7899   -1.3024    1.5115 H   0  0  0  0  0  0  0  0  0  0  0  0
   -0.9557   -0.4150   -0.7890 H   0  0  0  0  0  0  0  0  0  0  0  0
   -2.7145   -0.2561   -0.7789 H   0  0  0  0  0  0  0  0  0  0  0  0
   -1.9613   -1.8597   -0.7682 H   0  0  0  0  0  0  0  0  0  0  0  0
  1  2  1  0
  1  6  1  0
  1  7  1  0
  1 20  1  0
  2  3  1  0
  2  8  1  0
  2  9  1  0
  3  4  1  0
  4  5  1  0
  4 10  1  0
  4 11  1  0
  5 12  1  0
  5 13  1  0
  5 14  1  0
 15 16  1  0
 15 21  1  0
 15 22  1  0
 16 17  1  0
 16 23  1  0
 16 24  1  0
 17 18  1  0
 18 19  1  0
 18 25  1  0
 18 26  1  0
 19 27  1  0
 19 28  1  0
 19 29  1  0
M  RAD  1  15   2
M  END
>  <reaction>  (13) 
rmg_rxn_633

>  <mol_properties>  (13) 
{"0": {"label": "*3", "atom_type": "Cs"}, "1": {"label": "*4", "atom_type": "Cs"}, "14": {"label": "*1", "atom_type": "Cs"}, "15": {"label": "*0", "atom_type": "Cs"}, "19": {"label": "*2", "atom_type": "H0"}}

>  <type>  (13) 
unop_9

>  <geom_source>  (13) 
Heuristics

$$$$

     RDKit          3D

 29 27  0  0  0  0  0  0  0  0999 V2000
    1.1230   -0.3667   -1.1893 C   0  0  0  0  0  0  0  0  0  0  0  0
    1.8860   -1.3341   -0.3143 C   0  0  0  0  0  0  0  0  0  0  0  0
    0.9978   -1.9143    0.6073 O   0  0  0  0  0  0  0  0  0  0  0  0
    1.6178   -2.8340    1.4703 C   0  0  0  0  0  0  0  0  0  0  0  0
    0.5812   -3.3963    2.4152 C   0  0  0  0  0  0  0  0  0  0  0  0
    0.3309   -0.8848   -1.7311 H   0  0  0  0  0  0  0  0  0  0  0  0
    1.7936    0.0970   -1.9143 H   0  0  0  0  0  0  0  0  0  0  0  0
    2.6942   -0.8133    0.2204 H   0  0  0  0  0  0  0  0  0  0  0  0
    2.3560   -2.1178   -0.9269 H   0  0  0  0  0  0  0  0  0  0  0  0
    2.0836   -3.6415    0.8861 H   0  0  0  0  0  0  0  0  0  0  0  0
    2.4217   -2.3370    2.0333 H   0  0  0  0  0  0  0  0  0  0  0  0
   -0.2086   -3.9021    1.8588 H   0  0  0  0  0  0  0  0  0  0  0  0
    1.0406   -4.1144    3.0964 H   0  0  0  0  0  0  0  0  0  0  0  0
    0.1293   -2.5984    3.0054 H   0  0  0  0  0  0  0  0  0  0  0  0
    1.0720    2.0129   -0.0985 C   0  0  0  0  0  3  0  0  0  0  0  0
   -0.1889    2.7717   -0.4777 C   0  0  0  0  0  0  0  0  0  0  0  0
   -1.7295    2.0578    0.1509 S   0  0  0  0  0  0  0  0  0  0  0  0
   -1.7295    0.4167   -0.6140 C   0  0  0  0  0  0  0  0  0  0  0  0
   -1.7295    0.4167   -2.1337 C   0  0  0  0  0  0  0  0  0  0  0  0
    1.0975    0.8226   -0.6441 H   0  0  0  0  0  0  0  0  0  0  0  0
    1.9568    2.5513   -0.4454 H   0  0  0  0  0  0  0  0  0  0  0  0
    1.1427    1.8908    0.9829 H   0  0  0  0  0  0  0  0  0  0  0  0
   -0.1738    3.7749   -0.0484 H   0  0  0  0  0  0  0  0  0  0  0  0
   -0.2600    2.8939   -1.5597 H   0  0  0  0  0  0  0  0  0  0  0  0
   -0.8933   -0.1659   -0.2239 H   0  0  0  0  0  0  0  0  0  0  0  0
   -2.6407   -0.0472   -0.2327 H   0  0  0  0  0  0  0  0  0  0  0  0
   -0.8064    0.8403   -2.5331 H   0  0  0  0  0  0  0  0  0  0  0  0
   -2.5652    0.9992   -2.5231 H   0  0  0  0  0  0  0  0  0  0  0  0
   -1.8120   -0.6045   -2.5124 H   0  0  0  0  0  0  0  0  0  0  0  0
  1  2  1  0
  1  6  1  0
  1  7  1  0
  1 20  1  0
  2  3  1  0
  2  8  1  0
  2  9  1  0
  3  4  1  0
  4  5  1  0
  4 10  1  0
  4 11  1  0
  5 12  1  0
  5 13  1  0
  5 14  1  0
 15 16  1  0
 15 21  1  0
 15 22  1  0
 16 17  1  0
 16 23  1  0
 16 24  1  0
 17 18  1  0
 18 19  1  0
 18 25  1  0
 18 26  1  0
 19 27  1  0
 19 28  1  0
 19 29  1  0
M  RAD  1  15   2
M  END
>  <reaction>  (14) 
rmg_rxn_633

>  <mol_properties>  (14) 
{"0": {"label": "*3", "atom_type": "Cs"}, "1": {"label": "*4", "atom_type": "Cs"}, "14": {"label": "*1", "atom_type": "Cs"}, "15": {"label": "*0", "atom_type": "Cs"}, "19": {"label": "*2", "atom_type": "H0"}}

>  <type>  (14) 
unop_10

>  <geom_source>  (14) 
Heuristics

$$$$

     RDKit          3D

 29 26  0  0  0  0  0  0  0  0999 V2000
    1.8456   -1.3508    0.4460 C   0  0  0  0  0  0  0  0  0  0  0  0
    0.6048   -1.5785   -0.3861 C   0  0  0  0  0  3  0  0  0  0  0  0
    0.5496   -0.6060   -1.3991 O   0  0  0  0  0  0  0  0  0  0  0  0
   -0.5761   -0.7355   -2.2304 C   0  0  0  0  0  0  0  0  0  0  0  0
   -0.5395    0.3518   -3.2793 C   0  0  0  0  0  0  0  0  0  0  0  0
    2.7400   -1.4261   -0.1734 H   0  0  0  0  0  0  0  0  0  0  0  0
    1.9098   -2.0958    1.2406 H   0  0  0  0  0  0  0  0  0  0  0  0
   -0.2960   -1.5170    0.2424 H   0  0  0  0  0  0  0  0  0  0  0  0
    0.6202   -2.5841   -0.8319 H   0  0  0  0  0  0  0  0  0  0  0  0
   -0.5794   -1.7278   -2.7055 H   0  0  0  0  0  0  0  0  0  0  0  0
   -1.4956   -0.6607   -1.6312 H   0  0  0  0  0  0  0  0  0  0  0  0
    0.3646    0.2696   -3.8835 H   0  0  0  0  0  0  0  0  0  0  0  0
   -1.4058    0.2711   -3.9378 H   0  0  0  0  0  0  0  0  0  0  0  0
   -0.5511    1.3360   -2.8098 H   0  0  0  0  0  0  0  0  0  0  0  0
    1.7947    1.0288    1.5368 C   0  0  0  0  0  3  0  0  0  0  0  0
    0.5337    1.7876    1.1576 C   0  0  0  0  0  0  0  0  0  0  0  0
   -1.0068    1.0737    1.7862 S   0  0  0  0  0  0  0  0  0  0  0  0
   -1.0068   -0.5674    1.0213 C   0  0  0  0  0  0  0  0  0  0  0  0
   -1.0068   -0.5674   -0.4984 C   0  0  0  0  0  3  0  0  0  0  0  0
    1.8201   -0.1614    0.9912 H   0  0  0  0  0  0  0  0  0  0  0  0
    2.6794    1.5672    1.1899 H   0  0  0  0  0  0  0  0  0  0  0  0
    1.8653    0.9067    2.6182 H   0  0  0  0  0  0  0  0  0  0  0  0
    0.5488    2.7908    1.5869 H   0  0  0  0  0  0  0  0  0  0  0  0
    0.4626    1.9098    0.0755 H   0  0  0  0  0  0  0  0  0  0  0  0
   -0.1707   -1.1500    1.4113 H   0  0  0  0  0  0  0  0  0  0  0  0
   -1.9181   -1.0312    1.4026 H   0  0  0  0  0  0  0  0  0  0  0  0
   -0.0838   -0.1438   -0.8979 H   0  0  0  0  0  0  0  0  0  0  0  0
   -1.8426    0.0151   -0.8878 H   0  0  0  0  0  0  0  0  0  0  0  0
   -1.0894   -1.5886   -0.8771 H   0  0  0  0  0  0  0  0  0  0  0  0
  1  2  1  0
  1  6  1  0
  1  7  1  0
  1 20  1  0
  2  8  1  0
  2  9  1  0
  3  4  1  0
  3 27  1  0
  4  5  1  0
  4 10  1  0
  4 11  1  0
  5 12  1  0
  5 13  1  0
  5 14  1  0
 15 16  1  0
 15 21  1  0
 15 22  1  0
 16 17  1  0
 16 23  1  0
 16 24  1  0
 17 18  1  0
 18 19  1  0
 18 25  1  0
 18 26  1  0
 19 28  1  0
 19 29  1  0
M  CHG  2  15  -1  19   1
M  RAD  1   2   2
M  END
>  <reaction>  (15) 
rmg_rxn_633

>  <mol_properties>  (15) 
{"0": {"label": "*3", "atom_type": "Cs"}, "1": {"label": "*4", "atom_type": "Cs"}, "14": {"label": "*1", "atom_type": "Cs"}, "15": {"label": "*0", "atom_type": "Cs"}, "19": {"label": "*2", "atom_type": "H0"}}

>  <type>  (15) 
unop_11

>  <geom_source>  (15) 
Heuristics

$$$$

     RDKit          3D

 29 27  0  0  0  0  0  0  0  0999 V2000
   -3.8746   -1.4055    0.7530 S   0  0  0  0  0  0  0  0  0  0  0  0
    3.4121   -0.1649    0.1799 O   0  0  0  0  0  0  0  0  0  0  0  0
    3.4389    0.6596   -0.9666 C   0  0  0  0  0  0  0  0  0  0  0  0
    2.1778   -0.8519    0.2680 C   0  0  0  0  0  0  0  0  0  0  0  0
   -4.4024   -0.2321   -0.5470 C   0  0  0  0  0  0  0  0  0  0  0  0
   -2.1377   -1.6020    0.2081 C   0  0  0  0  0  0  0  0  0  0  0  0
    4.7169    1.4840   -0.9594 C   0  0  0  0  0  0  0  0  0  0  0  0
    1.2293   -0.1167    1.2064 C   0  0  0  0  0  0  0  0  0  0  0  0
   -3.8869    1.1729   -0.2612 C   0  0  0  0  0  0  0  0  0  0  0  0
   -1.1951   -1.0566    1.2680 C   0  0  0  0  0  3  0  0  0  0  0  0
    3.4286    0.0378   -1.8903 H   0  0  0  0  0  0  0  0  0  0  0  0
    2.5727    1.3595   -0.9802 H   0  0  0  0  0  0  0  0  0  0  0  0
    1.6819   -1.0196   -0.7175 H   0  0  0  0  0  0  0  0  0  0  0  0
    2.3738   -1.8570    0.6967 H   0  0  0  0  0  0  0  0  0  0  0  0
   -4.0625   -0.5738   -1.5476 H   0  0  0  0  0  0  0  0  0  0  0  0
   -5.5124   -0.2083   -0.5569 H   0  0  0  0  0  0  0  0  0  0  0  0
    4.7502    2.1248   -0.0527 H   0  0  0  0  0  0  0  0  0  0  0  0
    5.6022    0.8133   -0.9648 H   0  0  0  0  0  0  0  0  0  0  0  0
    4.7508    2.1325   -1.8603 H   0  0  0  0  0  0  0  0  0  0  0  0
    1.7041    0.0144    2.2019 H   0  0  0  0  0  0  0  0  0  0  0  0
    0.9696    0.8797    0.7919 H   0  0  0  0  0  0  0  0  0  0  0  0
    0.1140   -0.8243    1.3504 H   0  0  0  0  0  0  0  0  0  0  0  0
   -4.2941    1.8780   -1.0160 H   0  0  0  0  0  0  0  0  0  0  0  0
   -2.7793    1.2012   -0.3161 H   0  0  0  0  0  0  0  0  0  0  0  0
   -4.2133    1.5026    0.7478 H   0  0  0  0  0  0  0  0  0  0  0  0
   -1.9329   -2.6840    0.0712 H   0  0  0  0  0  0  0  0  0  0  0  0
   -1.9334   -1.0936   -0.7565 H   0  0  0  0  0  0  0  0  0  0  0  0
   -1.3664    0.0293    1.4226 H   0  0  0  0  0  0  0  0  0  0  0  0
   -1.3318   -1.5993    2.2273 H   0  0  0  0  0  0  0  0  0  0  0  0
  1  6  1  0
  1  5  1  0
  2  3  1  0
  2  4  1  0
  3  7  1  0
  3 11  1  0
  3 12  1  0
  4  8  1  0
  4 13  1  0
  4 14  1  0
  5  9  1  0
  5 15  1  0
  5 16  1  0
  6 10  1  0
  6 26  1  0
  6 27  1  0
  7 17  1  0
  7 18  1  0
  7 19  1  0
  8 20  1  0
  8 21  1  0
  8 22  1  0
  9 23  1  0
  9 24  1  0
  9 25  1  0
 10 28  1  0
 10 29  1  0
M  RAD  1  10   2
M  END
>  <reaction>  (16) 
rmg_rxn_633

>  <mol_properties>  (16) 
{"0": {"label": "*3", "atom_type": "Cs"}, "1": {"label": "*4", "atom_type": "Cs"}, "14": {"label": "*1", "atom_type": "Cs"}, "15": {"label": "*0", "atom_type": "Cs"}, "19": {"label": "*2", "atom_type": "H0"}}

>  <type>  (16) 
unop_12

>  <geom_source>  (16) 
AutoTST

$$$$

     RDKit          3D

 29 27  0  0  0  0  0  0  0  0999 V2000
    1.4380   -1.5501    0.5786 C   0  0  0  0  0  0  0  0  0  0  0  0
    0.6955   -1.5452   -0.7375 C   0  0  0  0  0  0  0  0  0  0  0  0
    1.0198   -0.3722   -1.4403 O   0  0  0  0  0  0  0  0  0  0  0  0
    0.3742   -0.2758   -2.6849 C   0  0  0  0  0  0  0  0  0  0  0  0
    0.7890    1.0139   -3.3545 C   0  0  0  0  0  0  0  0  0  0  0  0
    2.5150   -1.5186    0.4099 H   0  0  0  0  0  0  0  0  0  0  0  0
    1.2013   -2.4536    1.1428 H   0  0  0  0  0  0  0  0  0  0  0  0
   -0.3902   -1.5920   -0.5665 H   0  0  0  0  0  0  0  0  0  0  0  0
    0.9672   -2.4279   -1.3354 H   0  0  0  0  0  0  0  0  0  0  0  0
    0.6407   -1.1383   -3.3136 H   0  0  0  0  0  0  0  0  0  0  0  0
   -0.7166   -0.3024   -2.5447 H   0  0  0  0  0  0  0  0  0  0  0  0
    1.8686    1.0350   -3.5073 H   0  0  0  0  0  0  0  0  0  0  0  0
    0.2991    1.1106   -4.3247 H   0  0  0  0  0  0  0  0  0  0  0  0
    0.5121    1.8703   -2.7389 H   0  0  0  0  0  0  0  0  0  0  0  0
    1.3871    0.8295    1.6695 C   0  0  0  0  0  3  0  0  0  0  0  0
    0.1262    1.5883    1.2903 C   0  0  0  0  0  0  0  0  0  0  0  0
   -1.4144    0.8744    1.9189 S   0  0  0  0  0  0  0  0  0  0  0  0
   -1.4144   -0.7667    1.1540 C   0  0  0  0  0  0  0  0  0  0  0  0
   -1.4144   -0.7667   -0.3658 C   0  0  0  0  0  0  0  0  0  0  0  0
    1.4126   -0.3608    1.1239 H   0  0  0  0  0  0  0  0  0  0  0  0
    2.2719    1.3679    1.3225 H   0  0  0  0  0  0  0  0  0  0  0  0
    1.4578    0.7074    2.7509 H   0  0  0  0  0  0  0  0  0  0  0  0
    0.1413    2.5915    1.7195 H   0  0  0  0  0  0  0  0  0  0  0  0
    0.0551    1.7105    0.2082 H   0  0  0  0  0  0  0  0  0  0  0  0
   -0.5782   -1.3493    1.5440 H   0  0  0  0  0  0  0  0  0  0  0  0
   -2.3256   -1.2306    1.5353 H   0  0  0  0  0  0  0  0  0  0  0  0
   -0.4914   -0.3431   -0.7652 H   0  0  0  0  0  0  0  0  0  0  0  0
   -2.2501   -0.1842   -0.7552 H   0  0  0  0  0  0  0  0  0  0  0  0
   -1.4969   -1.7879   -0.7444 H   0  0  0  0  0  0  0  0  0  0  0  0
  1  2  1  0
  1  6  1  0
  1  7  1  0
  1 20  1  0
  2  3  1  0
  2  8  1  0
  2  9  1  0
  3  4  1  0
  4  5  1  0
  4 10  1  0
  4 11  1  0
  5 12  1  0
  5 13  1  0
  5 14  1  0
 15 16  1  0
 15 21  1  0
 15 22  1  0
 16 17  1  0
 16 23  1  0
 16 24  1  0
 17 18  1  0
 18 19  1  0
 18 25  1  0
 18 26  1  0
 19 27  1  0
 19 28  1  0
 19 29  1  0
M  RAD  1  15   2
M  END
>  <reaction>  (17) 
rmg_rxn_633

>  <mol_properties>  (17) 
{"0": {"label": "*3", "atom_type": "Cs"}, "1": {"label": "*4", "atom_type": "Cs"}, "14": {"label": "*1", "atom_type": "Cs"}, "15": {"label": "*0", "atom_type": "Cs"}, "19": {"label": "*2", "atom_type": "H0"}}

>  <type>  (17) 
unop_13

>  <geom_source>  (17) 
gaussian_log

$$$$
