
     RDKit          3D

 14 14  0  0  0  0  0  0  0  0999 V2000
   -1.1778    0.2241    0.1818 C   0  0  0  0  0  0  0  0  0  0  0  0
   -0.5633   -1.1636    0.0678 C   0  0  0  0  0  0  0  0  0  0  0  0
    0.6943   -1.1996    0.7146 O   0  0  0  0  0  0  0  0  0  0  0  0
    1.5547   -0.2288    0.2011 C   0  0  0  0  0  0  0  0  0  0  0  0
    1.0729    1.0696    0.3698 O   0  0  0  0  0  0  0  0  0  0  0  0
   -0.1607    1.2493   -0.2989 C   0  0  0  0  0  0  0  0  0  0  0  0
   -2.0927    0.2866   -0.4117 H   0  0  0  0  0  0  0  0  0  0  0  0
   -1.4303    0.4248    1.2248 H   0  0  0  0  0  0  0  0  0  0  0  0
   -1.1822   -1.9235    0.5431 H   0  0  0  0  0  0  0  0  0  0  0  0
   -0.4389   -1.4347   -0.9919 H   0  0  0  0  0  0  0  0  0  0  0  0
    1.7250   -0.4207   -0.8742 H   0  0  0  0  0  0  0  0  0  0  0  0
    2.4896   -0.3010    0.7524 H   0  0  0  0  0  0  0  0  0  0  0  0
   -0.0080    1.1481   -1.3844 H   0  0  0  0  0  0  0  0  0  0  0  0
   -0.4826    2.2695   -0.0942 H   0  0  0  0  0  0  0  0  0  0  0  0
  1  2  1  0
  1  6  1  0
  1  7  1  0
  1  8  1  0
  2  3  1  0
  2  9  1  0
  2 10  1  0
  3  4  1  0
  4  5  1  0
  4 11  1  0
  4 12  1  0
  5  6  1  0
  6 13  1  0
  6 14  1  0
M  END
>  <reaction>  (1) 
rmg_rxn_226

>  <mol_properties>  (1) 
{"0": {"label": "donator", "atom_type": "Cs"}, "6": {"label": "d_hydrogen", "atom_type": "H0"}}

>  <type>  (1) 
r1h

$$$$

     RDKit          3D

 17 16  0  0  0  0  0  0  0  0999 V2000
    2.3993   -0.7259   -0.8796 C   0  0  0  0  0  0  0  0  0  0  0  0
    1.8173   -0.7170    0.4851 C   0  0  0  0  0  3  0  0  0  0  0  0
    2.6779   -0.5182    1.6852 C   0  0  0  0  0  0  0  0  0  0  0  0
    3.8710   -1.2723    1.6674 O   0  0  0  0  0  0  0  0  0  0  0  0
    3.6589   -2.6587    1.8015 C   0  0  0  0  0  0  0  0  0  0  0  0
    4.9969   -3.3586    1.7556 C   0  0  0  0  0  0  0  0  0  0  0  0
    3.3755   -1.2152   -0.8894 H   0  0  0  0  0  0  0  0  0  0  0  0
    1.7457   -1.2284   -1.5943 H   0  0  0  0  0  0  0  0  0  0  0  0
    2.5578    0.2962   -1.2545 H   0  0  0  0  0  0  0  0  0  0  0  0
    0.7445   -0.6275    0.6059 H   0  0  0  0  0  0  0  0  0  0  0  0
    2.1057   -0.7316    2.5992 H   0  0  0  0  0  0  0  0  0  0  0  0
    3.0103    0.5272    1.7516 H   0  0  0  0  0  0  0  0  0  0  0  0
    3.0050   -3.0235    0.9977 H   0  0  0  0  0  0  0  0  0  0  0  0
    3.1469   -2.8645    2.7531 H   0  0  0  0  0  0  0  0  0  0  0  0
    5.6430   -3.0039    2.5594 H   0  0  0  0  0  0  0  0  0  0  0  0
    4.8641   -4.4360    1.8660 H   0  0  0  0  0  0  0  0  0  0  0  0
    5.4957   -3.1672    0.8046 H   0  0  0  0  0  0  0  0  0  0  0  0
  1  2  1  0
  1  7  1  0
  1  8  1  0
  1  9  1  0
  2  3  1  0
  2 10  1  0
  3  4  1  0
  3 11  1  0
  3 12  1  0
  4  5  1  0
  5  6  1  0
  5 13  1  0
  5 14  1  0
  6 15  1  0
  6 16  1  0
  6 17  1  0
M  RAD  1   2   2
M  END
>  <reaction>  (2) 
rmg_rxn_226

>  <mol_properties>  (2) 
{"1": {"label": "acceptor", "atom_type": "Cs"}}

>  <type>  (2) 
r2

$$$$

     RDKit          3D

 18 17  0  0  0  0  0  0  0  0999 V2000
    2.2026   -0.7213   -0.2612 C   0  0  0  0  0  0  0  0  0  0  0  0
    1.5384    0.2638    0.6915 C   0  0  0  0  0  0  0  0  0  0  0  0
    2.2584    1.5946    0.7694 C   0  0  0  0  0  0  0  0  0  0  0  0
    2.2212    2.2185   -0.4893 O   0  0  0  0  0  0  0  0  0  0  0  0
    2.8988    3.4488   -0.5204 C   0  0  0  0  0  0  0  0  0  0  0  0
    2.7981    4.0296   -1.9118 C   0  0  0  0  0  0  0  0  0  0  0  0
    3.2294   -0.9309    0.0486 H   0  0  0  0  0  0  0  0  0  0  0  0
    2.2338   -0.3181   -1.2734 H   0  0  0  0  0  0  0  0  0  0  0  0
    1.6610   -1.6680   -0.2875 H   0  0  0  0  0  0  0  0  0  0  0  0
    1.4990   -0.1566    1.7002 H   0  0  0  0  0  0  0  0  0  0  0  0
    0.5055    0.4455    0.3835 H   0  0  0  0  0  0  0  0  0  0  0  0
    3.3038    1.4410    1.0808 H   0  0  0  0  0  0  0  0  0  0  0  0
    1.7844    2.2410    1.5226 H   0  0  0  0  0  0  0  0  0  0  0  0
    2.4596    4.1376    0.2164 H   0  0  0  0  0  0  0  0  0  0  0  0
    3.9524    3.3035   -0.2397 H   0  0  0  0  0  0  0  0  0  0  0  0
    1.7543    4.1869   -2.1856 H   0  0  0  0  0  0  0  0  0  0  0  0
    3.2472    3.3545   -2.6411 H   0  0  0  0  0  0  0  0  0  0  0  0
    3.3178    4.9878   -1.9600 H   0  0  0  0  0  0  0  0  0  0  0  0
  1  2  1  0
  1  7  1  0
  1  8  1  0
  1  9  1  0
  2  3  1  0
  2 10  1  0
  2 11  1  0
  3  4  1  0
  3 12  1  0
  3 13  1  0
  4  5  1  0
  5  6  1  0
  5 14  1  0
  5 15  1  0
  6 16  1  0
  6 17  1  0
  6 18  1  0
M  END
>  <reaction>  (3) 
rmg_rxn_226

>  <mol_properties>  (3) 
{"0": {"label": "a_hydrogen", "atom_type": "H0"}, "2": {"label": "acceptor", "atom_type": "Cs"}}

>  <type>  (3) 
r2h

$$$$

     RDKit          3D

 31 30  0  0  0  0  0  0  0  0999 V2000
    1.0601    1.4054   -0.5463 C   0  0  0  0  0  3  0  0  0  0  0  0
    0.6412    1.1049   -1.9623 C   0  0  0  0  0  0  0  0  0  0  0  0
    0.2457    2.3008   -2.6223 O   0  0  0  0  0  0  0  0  0  0  0  0
   -0.7572    2.9584   -1.9087 C   0  0  0  0  0  0  0  0  0  0  0  0
   -0.3572    3.3427   -0.6280 O   0  0  0  0  0  0  0  0  0  0  0  0
   -0.0028    2.2102    0.1559 C   0  0  0  0  0  0  0  0  0  0  0  0
    1.1491    0.2016    0.0944 H   0  0  0  0  0  0  0  0  0  0  0  0
    2.0562    1.8375   -0.4690 H   0  0  0  0  0  0  0  0  0  0  0  0
    1.4490    0.6742   -2.5515 H   0  0  0  0  0  0  0  0  0  0  0  0
   -0.2029    0.3972   -1.9645 H   0  0  0  0  0  0  0  0  0  0  0  0
   -1.6445    2.3027   -1.8343 H   0  0  0  0  0  0  0  0  0  0  0  0
   -1.0011    3.8660   -2.4566 H   0  0  0  0  0  0  0  0  0  0  0  0
   -0.9003    1.5931    0.3187 H   0  0  0  0  0  0  0  0  0  0  0  0
    0.3320    2.5894    1.1199 H   0  0  0  0  0  0  0  0  0  0  0  0
    1.6845   -1.9233   -0.4710 C   0  0  0  0  0  0  0  0  0  0  0  0
    1.1633   -1.0180    0.6136 C   0  0  0  0  0  0  0  0  0  0  0  0
   -0.2574   -1.2538    1.0401 C   0  0  0  0  0  0  0  0  0  0  0  0
   -0.3734   -2.5335    1.6163 O   0  0  0  0  0  0  0  0  0  0  0  0
   -1.6846   -2.8381    2.0261 C   0  0  0  0  0  0  0  0  0  0  0  0
   -1.7008   -4.2250    2.6249 C   0  0  0  0  0  0  0  0  0  0  0  0
    1.0234   -1.9121   -1.3416 H   0  0  0  0  0  0  0  0  0  0  0  0
    2.6806   -1.6186   -0.7967 H   0  0  0  0  0  0  0  0  0  0  0  0
    1.7458   -2.9563   -0.1194 H   0  0  0  0  0  0  0  0  0  0  0  0
    1.8409   -0.9191    1.4618 H   0  0  0  0  0  0  0  0  0  0  0  0
   -0.9283   -1.1755    0.1688 H   0  0  0  0  0  0  0  0  0  0  0  0
   -0.5719   -0.4872    1.7636 H   0  0  0  0  0  0  0  0  0  0  0  0
   -2.3672   -2.7819    1.1656 H   0  0  0  0  0  0  0  0  0  0  0  0
   -2.0281   -2.0965    2.7621 H   0  0  0  0  0  0  0  0  0  0  0  0
   -1.0341   -4.2774    3.4862 H   0  0  0  0  0  0  0  0  0  0  0  0
   -2.7094   -4.4838    2.9506 H   0  0  0  0  0  0  0  0  0  0  0  0
   -1.3738   -4.9623    1.8909 H   0  0  0  0  0  0  0  0  0  0  0  0
  1  2  1  0
  1  6  1  0
  1  8  1  0
  2  3  1  0
  2  9  1  0
  2 10  1  0
  3  4  1  0
  4  5  1  0
  4 11  1  0
  4 12  1  0
  5  6  1  0
  6 13  1  0
  6 14  1  0
  7 16  1  0
 15 16  1  0
 15 21  1  0
 15 22  1  0
 15 23  1  0
 16 17  1  0
 16 24  1  0
 17 18  1  0
 17 25  1  0
 17 26  1  0
 18 19  1  0
 19 20  1  0
 19 27  1  0
 19 28  1  0
 20 29  1  0
 20 30  1  0
 20 31  1  0
M  RAD  1   1   2
M  END
>  <reaction>  (4) 
rmg_rxn_226

>  <mol_properties>  (4) 
{"0": {"label": "*3", "atom_type": "Cs"}, "1": {"label": "*4", "atom_type": "Cs"}, "6": {"label": "*2", "atom_type": "H0"}, "15": {"label": "*1", "atom_type": "Cs"}, "16": {"label": "*0", "atom_type": "Cs"}}

>  <type>  (4) 
ts

$$$$

     RDKit          3D

 31 30  0  0  0  0  0  0  0  0999 V2000
    0.8792    1.5423   -0.2884 C   0  0  0  0  0  0  0  0  0  0  0  0
    0.8792    1.5423   -1.8104 C   0  0  0  0  0  0  0  0  0  0  0  0
    0.8792    2.8687   -2.3025 O   0  0  0  0  0  0  0  0  0  0  0  0
   -0.2036    3.5930   -1.8032 C   0  0  0  0  0  0  0  0  0  0  0  0
   -0.1923    3.6993   -0.4122 O   0  0  0  0  0  0  0  0  0  0  0  0
   -0.2602    2.4256    0.1997 C   0  0  0  0  0  0  0  0  0  0  0  0
    0.7416    0.3219    0.1699 H   0  0  0  0  0  0  0  0  0  0  0  0
    1.8285    1.9408    0.0746 H   0  0  0  0  0  0  0  0  0  0  0  0
    1.7650    1.0568   -2.2178 H   0  0  0  0  0  0  0  0  0  0  0  0
   -0.0083    1.0111   -2.1871 H   0  0  0  0  0  0  0  0  0  0  0  0
   -1.1462    3.1149   -2.1274 H   0  0  0  0  0  0  0  0  0  0  0  0
   -0.1313    4.6011   -2.2052 H   0  0  0  0  0  0  0  0  0  0  0  0
   -1.2279    1.9564   -0.0356 H   0  0  0  0  0  0  0  0  0  0  0  0
   -0.2149    2.5916    1.2752 H   0  0  0  0  0  0  0  0  0  0  0  0
    1.8075   -1.2780    1.4816 C   0  0  0  0  0  0  0  0  0  0  0  0
    0.6039   -0.8998    0.6286 C   0  0  0  0  0  3  0  0  0  0  0  0
   -0.1729   -2.1007    0.1290 C   0  0  0  0  0  0  0  0  0  0  0  0
   -0.7048   -2.8003    1.2256 O   0  0  0  0  0  0  0  0  0  0  0  0
   -1.4150   -3.9550    0.8571 C   0  0  0  0  0  0  0  0  0  0  0  0
   -1.9399   -4.6275    2.1044 C   0  0  0  0  0  0  0  0  0  0  0  0
    2.5069   -1.8982    0.9155 H   0  0  0  0  0  0  0  0  0  0  0  0
    2.3446   -0.3901    1.8184 H   0  0  0  0  0  0  0  0  0  0  0  0
    1.4957   -1.8418    2.3608 H   0  0  0  0  0  0  0  0  0  0  0  0
   -0.0745   -0.2604    1.1993 H   0  0  0  0  0  0  0  0  0  0  0  0
    0.4877   -2.7626   -0.4531 H   0  0  0  0  0  0  0  0  0  0  0  0
   -0.9845   -1.7784   -0.5398 H   0  0  0  0  0  0  0  0  0  0  0  0
   -0.7567   -4.6380    0.3001 H   0  0  0  0  0  0  0  0  0  0  0  0
   -2.2450   -3.6870    0.1866 H   0  0  0  0  0  0  0  0  0  0  0  0
   -2.6037   -3.9559    2.6501 H   0  0  0  0  0  0  0  0  0  0  0  0
   -2.4968   -5.5285    1.8424 H   0  0  0  0  0  0  0  0  0  0  0  0
   -1.1168   -4.9076    2.7628 H   0  0  0  0  0  0  0  0  0  0  0  0
  1  2  1  0
  1  6  1  0
  1  7  1  0
  1  8  1  0
  2  3  1  0
  2  9  1  0
  2 10  1  0
  3  4  1  0
  4  5  1  0
  4 11  1  0
  4 12  1  0
  5  6  1  0
  6 13  1  0
  6 14  1  0
 15 16  1  0
 15 21  1  0
 15 22  1  0
 15 23  1  0
 16 17  1  0
 16 24  1  0
 17 18  1  0
 17 25  1  0
 17 26  1  0
 18 19  1  0
 19 20  1  0
 19 27  1  0
 19 28  1  0
 20 29  1  0
 20 30  1  0
 20 31  1  0
M  RAD  1  16   2
M  END
>  <reaction>  (5) 
rmg_rxn_226

>  <mol_properties>  (5) 
{"0": {"label": "*3", "atom_type": "Cs"}, "1": {"label": "*4", "atom_type": "Cs"}, "6": {"label": "*2", "atom_type": "H0"}, "15": {"label": "*1", "atom_type": "Cs"}, "16": {"label": "*0", "atom_type": "Cs"}}

>  <type>  (5) 
unop_1

>  <geom_source>  (5) 
Heuristics

$$$$

     RDKit          3D

 31 30  0  0  0  0  0  0  0  0999 V2000
    0.9233    1.4110   -0.5292 C   0  0  0  0  0  0  0  0  0  0  0  0
    0.9233    1.4110   -2.0512 C   0  0  0  0  0  0  0  0  0  0  0  0
    0.9233    2.7374   -2.5433 O   0  0  0  0  0  0  0  0  0  0  0  0
   -0.1595    3.4617   -2.0440 C   0  0  0  0  0  0  0  0  0  0  0  0
   -0.1483    3.5680   -0.6529 O   0  0  0  0  0  0  0  0  0  0  0  0
   -0.2161    2.2942   -0.0411 C   0  0  0  0  0  0  0  0  0  0  0  0
    0.7857    0.1906   -0.0709 H   0  0  0  0  0  0  0  0  0  0  0  0
    1.8726    1.8095   -0.1662 H   0  0  0  0  0  0  0  0  0  0  0  0
    1.8090    0.9255   -2.4585 H   0  0  0  0  0  0  0  0  0  0  0  0
    0.0357    0.8798   -2.4279 H   0  0  0  0  0  0  0  0  0  0  0  0
   -1.1021    2.9836   -2.3682 H   0  0  0  0  0  0  0  0  0  0  0  0
   -0.0873    4.4698   -2.4460 H   0  0  0  0  0  0  0  0  0  0  0  0
   -1.1838    1.8251   -0.2764 H   0  0  0  0  0  0  0  0  0  0  0  0
   -0.1709    2.4603    1.0344 H   0  0  0  0  0  0  0  0  0  0  0  0
    1.2550   -2.0292   -0.5892 C   0  0  0  0  0  0  0  0  0  0  0  0
    0.6480   -1.0311    0.3878 C   0  0  0  0  0  3  0  0  0  0  0  0
   -0.6655   -1.5002    0.9793 C   0  0  0  0  0  0  0  0  0  0  0  0
   -0.4469   -2.6659    1.7331 O   0  0  0  0  0  0  0  0  0  0  0  0
   -1.6218   -3.1947    2.2930 C   0  0  0  0  0  0  0  0  0  0  0  0
   -1.2751   -4.4391    3.0770 C   0  0  0  0  0  0  0  0  0  0  0  0
    0.5769   -2.2176   -1.4253 H   0  0  0  0  0  0  0  0  0  0  0  0
    2.1951   -1.6562   -0.9983 H   0  0  0  0  0  0  0  0  0  0  0  0
    1.4515   -2.9813   -0.0962 H   0  0  0  0  0  0  0  0  0  0  0  0
    1.3462   -0.8342    1.2054 H   0  0  0  0  0  0  0  0  0  0  0  0
   -1.3906   -1.7042    0.1755 H   0  0  0  0  0  0  0  0  0  0  0  0
   -1.0977   -0.7160    1.6181 H   0  0  0  0  0  0  0  0  0  0  0  0
   -2.3431   -3.4305    1.4967 H   0  0  0  0  0  0  0  0  0  0  0  0
   -2.0949   -2.4475    2.9473 H   0  0  0  0  0  0  0  0  0  0  0  0
   -0.5705   -4.2038    3.8755 H   0  0  0  0  0  0  0  0  0  0  0  0
   -2.1740   -4.8680    3.5226 H   0  0  0  0  0  0  0  0  0  0  0  0
   -0.8202   -5.1866    2.4260 H   0  0  0  0  0  0  0  0  0  0  0  0
  1  2  1  0
  1  6  1  0
  1  7  1  0
  1  8  1  0
  2  3  1  0
  2  9  1  0
  2 10  1  0
  3  4  1  0
  4  5  1  0
  4 11  1  0
  4 12  1  0
  5  6  1  0
  6 13  1  0
  6 14  1  0
 15 16  1  0
 15 21  1  0
 15 22  1  0
 15 23  1  0
 16 17  1  0
 16 24  1  0
 17 18  1  0
 17 25  1  0
 17 26  1  0
 18 19  1  0
 19 20  1  0
 19 27  1  0
 19 28  1  0
 20 29  1  0
 20 30  1  0
 20 31  1  0
M  RAD  1  16   2
M  END
>  <reaction>  (6) 
rmg_rxn_226

>  <mol_properties>  (6) 
{"0": {"label": "*3", "atom_type": "Cs"}, "1": {"label": "*4", "atom_type": "Cs"}, "6": {"label": "*2", "atom_type": "H0"}, "15": {"label": "*1", "atom_type": "Cs"}, "16": {"label": "*0", "atom_type": "Cs"}}

>  <type>  (6) 
unop_2

>  <geom_source>  (6) 
Heuristics

$$$$

     RDKit          3D

 31 30  0  0  0  0  0  0  0  0999 V2000
    0.6207    1.6628   -0.0409 C   0  0  0  0  0  0  0  0  0  0  0  0
    0.6207    1.6628   -1.5630 C   0  0  0  0  0  0  0  0  0  0  0  0
    0.6207    2.9891   -2.0551 O   0  0  0  0  0  0  0  0  0  0  0  0
   -0.4621    3.7135   -1.5558 C   0  0  0  0  0  0  0  0  0  0  0  0
   -0.4508    3.8197   -0.1647 O   0  0  0  0  0  0  0  0  0  0  0  0
   -0.5187    2.5460    0.4472 C   0  0  0  0  0  0  0  0  0  0  0  0
    0.4832    0.4424    0.4173 H   0  0  0  0  0  0  0  0  0  0  0  0
    1.5701    2.0613    0.3221 H   0  0  0  0  0  0  0  0  0  0  0  0
    1.5065    1.1772   -1.9703 H   0  0  0  0  0  0  0  0  0  0  0  0
   -0.2668    1.1315   -1.9397 H   0  0  0  0  0  0  0  0  0  0  0  0
   -1.4047    3.2354   -1.8800 H   0  0  0  0  0  0  0  0  0  0  0  0
   -0.3898    4.7216   -1.9577 H   0  0  0  0  0  0  0  0  0  0  0  0
   -1.4863    2.0769    0.2119 H   0  0  0  0  0  0  0  0  0  0  0  0
   -0.4734    2.7120    1.5226 H   0  0  0  0  0  0  0  0  0  0  0  0
    1.0494   -0.9171    2.2194 C   0  0  0  0  0  0  0  0  0  0  0  0
    0.3455   -0.7793    0.8761 C   0  0  0  0  0  3  0  0  0  0  0  0
    0.3377   -2.0641    0.0732 C   0  0  0  0  0  0  0  0  0  0  0  0
   -0.3890   -3.0444    0.7703 O   0  0  0  0  0  0  0  0  0  0  0  0
   -0.4194   -4.2860    0.1137 C   0  0  0  0  0  0  0  0  0  0  0  0
   -1.2206   -5.2613    0.9446 C   0  0  0  0  0  0  0  0  0  0  0  0
    2.0919   -1.2159    2.0842 H   0  0  0  0  0  0  0  0  0  0  0  0
    1.0402    0.0269    2.7662 H   0  0  0  0  0  0  0  0  0  0  0  0
    0.5616   -1.6726    2.8353 H   0  0  0  0  0  0  0  0  0  0  0  0
   -0.6883   -0.4571    1.0254 H   0  0  0  0  0  0  0  0  0  0  0  0
    1.3697   -2.4112   -0.0945 H   0  0  0  0  0  0  0  0  0  0  0  0
   -0.1145   -1.8936   -0.9148 H   0  0  0  0  0  0  0  0  0  0  0  0
    0.6056   -4.6574   -0.0331 H   0  0  0  0  0  0  0  0  0  0  0  0
   -0.8682   -4.1718   -0.8842 H   0  0  0  0  0  0  0  0  0  0  0  0
   -2.2410   -4.9005    1.0791 H   0  0  0  0  0  0  0  0  0  0  0  0
   -1.2586   -6.2347    0.4531 H   0  0  0  0  0  0  0  0  0  0  0  0
   -0.7677   -5.3871    1.9287 H   0  0  0  0  0  0  0  0  0  0  0  0
  1  2  1  0
  1  6  1  0
  1  7  1  0
  1  8  1  0
  2  3  1  0
  2  9  1  0
  2 10  1  0
  3  4  1  0
  4  5  1  0
  4 11  1  0
  4 12  1  0
  5  6  1  0
  6 13  1  0
  6 14  1  0
 15 16  1  0
 15 21  1  0
 15 22  1  0
 15 23  1  0
 16 17  1  0
 16 24  1  0
 17 18  1  0
 17 25  1  0
 17 26  1  0
 18 19  1  0
 19 20  1  0
 19 27  1  0
 19 28  1  0
 20 29  1  0
 20 30  1  0
 20 31  1  0
M  RAD  1  16   2
M  END
>  <reaction>  (7) 
rmg_rxn_226

>  <mol_properties>  (7) 
{"0": {"label": "*3", "atom_type": "Cs"}, "1": {"label": "*4", "atom_type": "Cs"}, "6": {"label": "*2", "atom_type": "H0"}, "15": {"label": "*1", "atom_type": "Cs"}, "16": {"label": "*0", "atom_type": "Cs"}}

>  <type>  (7) 
unop_3

>  <geom_source>  (7) 
Heuristics

$$$$

     RDKit          3D

 31 30  0  0  0  0  0  0  0  0999 V2000
    0.7452    0.6851   -1.0160 C   0  0  0  0  0  0  0  0  0  0  0  0
    0.7452    0.6851   -2.5380 C   0  0  0  0  0  0  0  0  0  0  0  0
    0.7452    2.0114   -3.0301 O   0  0  0  0  0  0  0  0  0  0  0  0
   -0.3376    2.7358   -2.5308 C   0  0  0  0  0  0  0  0  0  0  0  0
   -0.3263    2.8420   -1.1398 O   0  0  0  0  0  0  0  0  0  0  0  0
   -0.3942    1.5683   -0.5279 C   0  0  0  0  0  0  0  0  0  0  0  0
    0.6077   -0.5353   -0.5577 H   0  0  0  0  0  0  0  0  0  0  0  0
    1.6946    1.0836   -0.6530 H   0  0  0  0  0  0  0  0  0  0  0  0
    1.6310    0.1995   -2.9454 H   0  0  0  0  0  0  0  0  0  0  0  0
   -0.1423    0.1538   -2.9147 H   0  0  0  0  0  0  0  0  0  0  0  0
   -1.2802    2.2577   -2.8550 H   0  0  0  0  0  0  0  0  0  0  0  0
   -0.2653    3.7439   -2.9328 H   0  0  0  0  0  0  0  0  0  0  0  0
   -1.3619    1.0992   -0.7632 H   0  0  0  0  0  0  0  0  0  0  0  0
   -0.3489    1.7343    0.5476 H   0  0  0  0  0  0  0  0  0  0  0  0
   -0.8436   -2.3546   -0.5856 C   0  0  0  0  0  0  0  0  0  0  0  0
    0.4700   -1.7570   -0.0990 C   0  0  0  0  0  3  0  0  0  0  0  0
    0.3347   -1.0094    1.2118 C   0  0  0  0  0  0  0  0  0  0  0  0
   -0.0576   -1.9056    2.2207 O   0  0  0  0  0  0  0  0  0  0  0  0
   -0.2428   -1.2903    3.4699 C   0  0  0  0  0  0  0  0  0  0  0  0
   -0.6618   -2.3374    4.4757 C   0  0  0  0  0  0  0  0  0  0  0  0
   -1.5936   -1.5745   -0.7383 H   0  0  0  0  0  0  0  0  0  0  0  0
   -0.7092   -2.8795   -1.5325 H   0  0  0  0  0  0  0  0  0  0  0  0
   -1.2395   -3.0618    0.1432 H   0  0  0  0  0  0  0  0  0  0  0  0
    1.2171   -2.5450    0.0263 H   0  0  0  0  0  0  0  0  0  0  0  0
   -0.4122   -0.2058    1.1132 H   0  0  0  0  0  0  0  0  0  0  0  0
    1.2904   -0.5363    1.4812 H   0  0  0  0  0  0  0  0  0  0  0  0
   -1.0089   -0.5049    3.3908 H   0  0  0  0  0  0  0  0  0  0  0  0
    0.6897   -0.8017    3.7894 H   0  0  0  0  0  0  0  0  0  0  0  0
    0.1034   -3.1093    4.5649 H   0  0  0  0  0  0  0  0  0  0  0  0
   -0.8112   -1.8818    5.4558 H   0  0  0  0  0  0  0  0  0  0  0  0
   -1.5944   -2.8115    4.1677 H   0  0  0  0  0  0  0  0  0  0  0  0
  1  2  1  0
  1  6  1  0
  1  7  1  0
  1  8  1  0
  2  3  1  0
  2  9  1  0
  2 10  1  0
  3  4  1  0
  4  5  1  0
  4 11  1  0
  4 12  1  0
  5  6  1  0
  6 13  1  0
  6 14  1  0
 15 16  1  0
 15 21  1  0
 15 22  1  0
 15 23  1  0
 16 17  1  0
 16 24  1  0
 17 18  1  0
 17 25  1  0
 17 26  1  0
 18 19  1  0
 19 20  1  0
 19 27  1  0
 19 28  1  0
 20 29  1  0
 20 30  1  0
 20 31  1  0
M  RAD  1  16   2
M  END
>  <reaction>  (8) 
rmg_rxn_226

>  <mol_properties>  (8) 
{"0": {"label": "*3", "atom_type": "Cs"}, "1": {"label": "*4", "atom_type": "Cs"}, "6": {"label": "*2", "atom_type": "H0"}, "15": {"label": "*1", "atom_type": "Cs"}, "16": {"label": "*0", "atom_type": "Cs"}}

>  <type>  (8) 
unop_4

>  <geom_source>  (8) 
Heuristics

$$$$

     RDKit          3D

 31 30  0  0  0  0  0  0  0  0999 V2000
   -0.0531    1.5669   -0.0440 C   0  0  0  0  0  0  0  0  0  0  0  0
   -0.0531    1.5669   -1.5660 C   0  0  0  0  0  0  0  0  0  0  0  0
   -0.0531    2.8933   -2.0581 O   0  0  0  0  0  0  0  0  0  0  0  0
   -1.1359    3.6176   -1.5588 C   0  0  0  0  0  0  0  0  0  0  0  0
   -1.1246    3.7239   -0.1677 O   0  0  0  0  0  0  0  0  0  0  0  0
   -1.1925    2.4501    0.4441 C   0  0  0  0  0  0  0  0  0  0  0  0
   -0.1906    0.3465    0.4143 H   0  0  0  0  0  0  0  0  0  0  0  0
    0.8963    1.9654    0.3191 H   0  0  0  0  0  0  0  0  0  0  0  0
    0.8327    1.0814   -1.9733 H   0  0  0  0  0  0  0  0  0  0  0  0
   -0.9406    1.0356   -1.9427 H   0  0  0  0  0  0  0  0  0  0  0  0
   -2.0785    3.1395   -1.8830 H   0  0  0  0  0  0  0  0  0  0  0  0
   -1.0636    4.6257   -1.9608 H   0  0  0  0  0  0  0  0  0  0  0  0
   -2.1602    1.9810    0.2089 H   0  0  0  0  0  0  0  0  0  0  0  0
   -1.1472    2.6161    1.5196 H   0  0  0  0  0  0  0  0  0  0  0  0
   -0.3273   -0.8663    2.3959 C   0  0  0  0  0  0  0  0  0  0  0  0
   -0.3283   -0.8752    0.8730 C   0  0  0  0  0  3  0  0  0  0  0  0
    0.7797   -1.7224    0.2817 C   0  0  0  0  0  0  0  0  0  0  0  0
    0.5915   -3.0635    0.6572 O   0  0  0  0  0  0  0  0  0  0  0  0
    1.5971   -3.9209    0.1807 C   0  0  0  0  0  0  0  0  0  0  0  0
    1.2996   -5.3295    0.6399 C   0  0  0  0  0  0  0  0  0  0  0  0
    0.6164   -0.4737    2.7826 H   0  0  0  0  0  0  0  0  0  0  0  0
   -1.1337   -0.2432    2.7855 H   0  0  0  0  0  0  0  0  0  0  0  0
   -0.4562   -1.8752    2.7880 H   0  0  0  0  0  0  0  0  0  0  0  0
   -1.2862   -1.2473    0.5005 H   0  0  0  0  0  0  0  0  0  0  0  0
    1.7591   -1.3670    0.6394 H   0  0  0  0  0  0  0  0  0  0  0  0
    0.7814   -1.6366   -0.8149 H   0  0  0  0  0  0  0  0  0  0  0  0
    2.5778   -3.5931    0.5560 H   0  0  0  0  0  0  0  0  0  0  0  0
    1.6394   -3.8755   -0.9177 H   0  0  0  0  0  0  0  0  0  0  0  0
    0.3337   -5.6603    0.2568 H   0  0  0  0  0  0  0  0  0  0  0  0
    2.0688   -6.0148    0.2803 H   0  0  0  0  0  0  0  0  0  0  0  0
    1.2729   -5.3787    1.7291 H   0  0  0  0  0  0  0  0  0  0  0  0
  1  2  1  0
  1  6  1  0
  1  7  1  0
  1  8  1  0
  2  3  1  0
  2  9  1  0
  2 10  1  0
  3  4  1  0
  4  5  1  0
  4 11  1  0
  4 12  1  0
  5  6  1  0
  6 13  1  0
  6 14  1  0
 15 16  1  0
 15 21  1  0
 15 22  1  0
 15 23  1  0
 16 17  1  0
 16 24  1  0
 17 18  1  0
 17 25  1  0
 17 26  1  0
 18 19  1  0
 19 20  1  0
 19 27  1  0
 19 28  1  0
 20 29  1  0
 20 30  1  0
 20 31  1  0
M  RAD  1  16   2
M  END
>  <reaction>  (9) 
rmg_rxn_226

>  <mol_properties>  (9) 
{"0": {"label": "*3", "atom_type": "Cs"}, "1": {"label": "*4", "atom_type": "Cs"}, "6": {"label": "*2", "atom_type": "H0"}, "15": {"label": "*1", "atom_type": "Cs"}, "16": {"label": "*0", "atom_type": "Cs"}}

>  <type>  (9) 
unop_5

>  <geom_source>  (9) 
Heuristics

$$$$

     RDKit          3D

 31 30  0  0  0  0  0  0  0  0999 V2000
    0.2912    0.5964   -1.0596 C   0  0  0  0  0  0  0  0  0  0  0  0
    0.2912    0.5964   -2.5816 C   0  0  0  0  0  0  0  0  0  0  0  0
    0.2912    1.9228   -3.0737 O   0  0  0  0  0  0  0  0  0  0  0  0
   -0.7916    2.6471   -2.5744 C   0  0  0  0  0  0  0  0  0  0  0  0
   -0.7803    2.7534   -1.1834 O   0  0  0  0  0  0  0  0  0  0  0  0
   -0.8482    1.4796   -0.5715 C   0  0  0  0  0  0  0  0  0  0  0  0
    0.1536   -0.6240   -0.6013 H   0  0  0  0  0  0  0  0  0  0  0  0
    1.2405    0.9949   -0.6966 H   0  0  0  0  0  0  0  0  0  0  0  0
    1.1770    0.1109   -2.9890 H   0  0  0  0  0  0  0  0  0  0  0  0
   -0.5963    0.0651   -2.9583 H   0  0  0  0  0  0  0  0  0  0  0  0
   -1.7342    2.1690   -2.8986 H   0  0  0  0  0  0  0  0  0  0  0  0
   -0.7193    3.6552   -2.9764 H   0  0  0  0  0  0  0  0  0  0  0  0
   -1.8159    1.0105   -0.8068 H   0  0  0  0  0  0  0  0  0  0  0  0
   -0.8029    1.6456    0.5040 H   0  0  0  0  0  0  0  0  0  0  0  0
   -1.4600   -2.1734    0.0406 C   0  0  0  0  0  0  0  0  0  0  0  0
    0.0159   -1.8457   -0.1426 C   0  0  0  0  0  3  0  0  0  0  0  0
    0.5986   -1.0569    1.0122 C   0  0  0  0  0  0  0  0  0  0  0  0
    0.5366   -1.8311    2.1833 O   0  0  0  0  0  0  0  0  0  0  0  0
    1.0253   -1.1629    3.3183 C   0  0  0  0  0  0  0  0  0  0  0  0
    0.9121   -2.0796    4.5144 C   0  0  0  0  0  0  0  0  0  0  0  0
   -2.0530   -1.2603    0.1356 H   0  0  0  0  0  0  0  0  0  0  0  0
   -1.8459   -2.7360   -0.8108 H   0  0  0  0  0  0  0  0  0  0  0  0
   -1.6145   -2.7683    0.9407 H   0  0  0  0  0  0  0  0  0  0  0  0
    0.5930   -2.7665   -0.2602 H   0  0  0  0  0  0  0  0  0  0  0  0
    0.0361   -0.1201    1.1520 H   0  0  0  0  0  0  0  0  0  0  0  0
    1.6422   -0.7827    0.7986 H   0  0  0  0  0  0  0  0  0  0  0  0
    0.4512   -0.2397    3.4858 H   0  0  0  0  0  0  0  0  0  0  0  0
    2.0729   -0.8679    3.1579 H   0  0  0  0  0  0  0  0  0  0  0  0
    1.4922   -2.9891    4.3550 H   0  0  0  0  0  0  0  0  0  0  0  0
    1.2871   -1.5811    5.4096 H   0  0  0  0  0  0  0  0  0  0  0  0
   -0.1281   -2.3602    4.6837 H   0  0  0  0  0  0  0  0  0  0  0  0
  1  2  1  0
  1  6  1  0
  1  7  1  0
  1  8  1  0
  2  3  1  0
  2  9  1  0
  2 10  1  0
  3  4  1  0
  4  5  1  0
  4 11  1  0
  4 12  1  0
  5  6  1  0
  6 13  1  0
  6 14  1  0
 15 16  1  0
 15 21  1  0
 15 22  1  0
 15 23  1  0
 16 17  1  0
 16 24  1  0
 17 18  1  0
 17 25  1  0
 17 26  1  0
 18 19  1  0
 19 20  1  0
 19 27  1  0
 19 28  1  0
 20 29  1  0
 20 30  1  0
 20 31  1  0
M  RAD  1  16   2
M  END
>  <reaction>  (10) 
rmg_rxn_226

>  <mol_properties>  (10) 
{"0": {"label": "*3", "atom_type": "Cs"}, "1": {"label": "*4", "atom_type": "Cs"}, "6": {"label": "*2", "atom_type": "H0"}, "15": {"label": "*1", "atom_type": "Cs"}, "16": {"label": "*0", "atom_type": "Cs"}}

>  <type>  (10) 
unop_6

>  <geom_source>  (10) 
Heuristics

$$$$

     RDKit          3D

 31 30  0  0  0  0  0  0  0  0999 V2000
   -0.1673    0.7113   -0.8829 C   0  0  0  0  0  0  0  0  0  0  0  0
   -0.1673    0.7113   -2.4049 C   0  0  0  0  0  0  0  0  0  0  0  0
   -0.1673    2.0377   -2.8970 O   0  0  0  0  0  0  0  0  0  0  0  0
   -1.2501    2.7620   -2.3977 C   0  0  0  0  0  0  0  0  0  0  0  0
   -1.2388    2.8683   -1.0067 O   0  0  0  0  0  0  0  0  0  0  0  0
   -1.3067    1.5945   -0.3948 C   0  0  0  0  0  0  0  0  0  0  0  0
   -0.3049   -0.5091   -0.4246 H   0  0  0  0  0  0  0  0  0  0  0  0
    0.7820    1.1098   -0.5199 H   0  0  0  0  0  0  0  0  0  0  0  0
    0.7184    0.2258   -2.8123 H   0  0  0  0  0  0  0  0  0  0  0  0
   -1.0548    0.1800   -2.7816 H   0  0  0  0  0  0  0  0  0  0  0  0
   -2.1927    2.2839   -2.7219 H   0  0  0  0  0  0  0  0  0  0  0  0
   -1.1778    3.7701   -2.7997 H   0  0  0  0  0  0  0  0  0  0  0  0
   -2.2744    1.1254   -0.6301 H   0  0  0  0  0  0  0  0  0  0  0  0
   -1.2615    1.7605    0.6807 H   0  0  0  0  0  0  0  0  0  0  0  0
   -1.7001   -1.8316    0.8871 C   0  0  0  0  0  0  0  0  0  0  0  0
   -0.4426   -1.7308    0.0341 C   0  0  0  0  0  3  0  0  0  0  0  0
    0.7418   -1.1571    0.7847 C   0  0  0  0  0  0  0  0  0  0  0  0
    1.0832   -2.0166    1.8428 O   0  0  0  0  0  0  0  0  0  0  0  0
    2.1545   -1.5444    2.6193 C   0  0  0  0  0  0  0  0  0  0  0  0
    2.4365   -2.5379    3.7225 C   0  0  0  0  0  0  0  0  0  0  0  0
   -2.0011   -0.8476    1.2553 H   0  0  0  0  0  0  0  0  0  0  0  0
   -2.5319   -2.2429    0.3134 H   0  0  0  0  0  0  0  0  0  0  0  0
   -1.5304   -2.4748    1.7506 H   0  0  0  0  0  0  0  0  0  0  0  0
   -0.1673   -2.7177   -0.3466 H   0  0  0  0  0  0  0  0  0  0  0  0
    0.4923   -0.1590    1.1783 H   0  0  0  0  0  0  0  0  0  0  0  0
    1.6001   -1.0363    0.1076 H   0  0  0  0  0  0  0  0  0  0  0  0
    1.9052   -0.5602    3.0427 H   0  0  0  0  0  0  0  0  0  0  0  0
    3.0448   -1.4087    1.9874 H   0  0  0  0  0  0  0  0  0  0  0  0
    2.6973   -3.5104    3.3035 H   0  0  0  0  0  0  0  0  0  0  0  0
    3.2671   -2.1918    4.3397 H   0  0  0  0  0  0  0  0  0  0  0  0
    1.5595   -2.6614    4.3589 H   0  0  0  0  0  0  0  0  0  0  0  0
  1  2  1  0
  1  6  1  0
  1  7  1  0
  1  8  1  0
  2  3  1  0
  2  9  1  0
  2 10  1  0
  3  4  1  0
  4  5  1  0
  4 11  1  0
  4 12  1  0
  5  6  1  0
  6 13  1  0
  6 14  1  0
 15 16  1  0
 15 21  1  0
 15 22  1  0
 15 23  1  0
 16 17  1  0
 16 24  1  0
 17 18  1  0
 17 25  1  0
 17 26  1  0
 18 19  1  0
 19 20  1  0
 19 27  1  0
 19 28  1  0
 20 29  1  0
 20 30  1  0
 20 31  1  0
M  RAD  1  16   2
M  END
>  <reaction>  (11) 
rmg_rxn_226

>  <mol_properties>  (11) 
{"0": {"label": "*3", "atom_type": "Cs"}, "1": {"label": "*4", "atom_type": "Cs"}, "6": {"label": "*2", "atom_type": "H0"}, "15": {"label": "*1", "atom_type": "Cs"}, "16": {"label": "*0", "atom_type": "Cs"}}

>  <type>  (11) 
unop_7

>  <geom_source>  (11) 
Heuristics

$$$$

     RDKit          3D

 31 30  0  0  0  0  0  0  0  0999 V2000
    0.8759    1.4758   -0.4674 C   0  0  0  0  0  0  0  0  0  0  0  0
    0.8759    1.4758   -1.9895 C   0  0  0  0  0  0  0  0  0  0  0  0
    0.8759    2.8021   -2.4816 O   0  0  0  0  0  0  0  0  0  0  0  0
   -0.2069    3.5265   -1.9822 C   0  0  0  0  0  0  0  0  0  0  0  0
   -0.1957    3.6327   -0.5912 O   0  0  0  0  0  0  0  0  0  0  0  0
   -0.2635    2.3590    0.0207 C   0  0  0  0  0  0  0  0  0  0  0  0
    0.7383    0.2554   -0.0092 H   0  0  0  0  0  0  0  0  0  0  0  0
    1.8252    1.8743   -0.1044 H   0  0  0  0  0  0  0  0  0  0  0  0
    1.7616    0.9902   -2.3968 H   0  0  0  0  0  0  0  0  0  0  0  0
   -0.0117    0.9445   -2.3662 H   0  0  0  0  0  0  0  0  0  0  0  0
   -1.1495    3.0484   -2.3065 H   0  0  0  0  0  0  0  0  0  0  0  0
   -0.1347    4.5346   -2.3842 H   0  0  0  0  0  0  0  0  0  0  0  0
   -1.2312    1.8899   -0.2146 H   0  0  0  0  0  0  0  0  0  0  0  0
   -0.2183    2.5250    1.0961 H   0  0  0  0  0  0  0  0  0  0  0  0
    1.9665   -1.6144    0.6328 C   0  0  0  0  0  0  0  0  0  0  0  0
    0.6006   -0.9663    0.4496 C   0  0  0  0  0  3  0  0  0  0  0  0
   -0.5285   -1.9724    0.3591 C   0  0  0  0  0  0  0  0  0  0  0  0
   -0.6177   -2.6824    1.5686 O   0  0  0  0  0  0  0  0  0  0  0  0
   -1.6201   -3.6666    1.5631 C   0  0  0  0  0  0  0  0  0  0  0  0
   -1.6289   -4.3659    2.9027 C   0  0  0  0  0  0  0  0  0  0  0  0
    2.1973   -2.2798   -0.2029 H   0  0  0  0  0  0  0  0  0  0  0  0
    2.7541   -0.8614    0.6884 H   0  0  0  0  0  0  0  0  0  0  0  0
    1.9940   -2.2048    1.5485 H   0  0  0  0  0  0  0  0  0  0  0  0
    0.3936   -0.2860    1.2797 H   0  0  0  0  0  0  0  0  0  0  0  0
   -0.3465   -2.6709   -0.4730 H   0  0  0  0  0  0  0  0  0  0  0  0
   -1.4800   -1.4602    0.1537 H   0  0  0  0  0  0  0  0  0  0  0  0
   -1.4325   -4.3879    0.7540 H   0  0  0  0  0  0  0  0  0  0  0  0
   -2.5985   -3.2046    1.3642 H   0  0  0  0  0  0  0  0  0  0  0  0
   -1.8285   -3.6538    3.7041 H   0  0  0  0  0  0  0  0  0  0  0  0
   -2.4016   -5.1360    2.9221 H   0  0  0  0  0  0  0  0  0  0  0  0
   -0.6643   -4.8375    3.0938 H   0  0  0  0  0  0  0  0  0  0  0  0
  1  2  1  0
  1  6  1  0
  1  7  1  0
  1  8  1  0
  2  3  1  0
  2  9  1  0
  2 10  1  0
  3  4  1  0
  4  5  1  0
  4 11  1  0
  4 12  1  0
  5  6  1  0
  6 13  1  0
  6 14  1  0
 15 16  1  0
 15 21  1  0
 15 22  1  0
 15 23  1  0
 16 17  1  0
 16 24  1  0
 17 18  1  0
 17 25  1  0
 17 26  1  0
 18 19  1  0
 19 20  1  0
 19 27  1  0
 19 28  1  0
 20 29  1  0
 20 30  1  0
 20 31  1  0
M  RAD  1  16   2
M  END
>  <reaction>  (12) 
rmg_rxn_226

>  <mol_properties>  (12) 
{"0": {"label": "*3", "atom_type": "Cs"}, "1": {"label": "*4", "atom_type": "Cs"}, "6": {"label": "*2", "atom_type": "H0"}, "15": {"label": "*1", "atom_type": "Cs"}, "16": {"label": "*0", "atom_type": "Cs"}}

>  <type>  (12) 
unop_8

>  <geom_source>  (12) 
Heuristics

$$$$

     RDKit          3D

 31 30  0  0  0  0  0  0  0  0999 V2000
    1.0297    0.9331   -0.8210 C   0  0  0  0  0  0  0  0  0  0  0  0
    1.0297    0.9331   -2.3431 C   0  0  0  0  0  0  0  0  0  0  0  0
    1.0297    2.2595   -2.8352 O   0  0  0  0  0  0  0  0  0  0  0  0
   -0.0531    2.9838   -2.3359 C   0  0  0  0  0  0  0  0  0  0  0  0
   -0.0418    3.0901   -0.9448 O   0  0  0  0  0  0  0  0  0  0  0  0
   -0.1097    1.8163   -0.3329 C   0  0  0  0  0  0  0  0  0  0  0  0
    0.8921   -0.2873   -0.3628 H   0  0  0  0  0  0  0  0  0  0  0  0
    1.9790    1.3316   -0.4580 H   0  0  0  0  0  0  0  0  0  0  0  0
    1.9154    0.4476   -2.7504 H   0  0  0  0  0  0  0  0  0  0  0  0
    0.1422    0.4018   -2.7198 H   0  0  0  0  0  0  0  0  0  0  0  0
   -0.9957    2.5057   -2.6601 H   0  0  0  0  0  0  0  0  0  0  0  0
    0.0192    3.9919   -2.7379 H   0  0  0  0  0  0  0  0  0  0  0  0
   -1.0774    1.3472   -0.5682 H   0  0  0  0  0  0  0  0  0  0  0  0
   -0.0644    1.9823    0.7425 H   0  0  0  0  0  0  0  0  0  0  0  0
   -0.0595   -2.3470   -0.8811 C   0  0  0  0  0  0  0  0  0  0  0  0
    0.7544   -1.5090    0.0959 C   0  0  0  0  0  3  0  0  0  0  0  0
   -0.0441   -1.0564    1.3012 C   0  0  0  0  0  0  0  0  0  0  0  0
   -0.4560   -2.1812    2.0361 O   0  0  0  0  0  0  0  0  0  0  0  0
   -1.2367   -1.8571    3.1582 C   0  0  0  0  0  0  0  0  0  0  0  0
   -1.6241   -3.1317    3.8714 C   0  0  0  0  0  0  0  0  0  0  0  0
   -0.9162   -1.7829   -1.2585 H   0  0  0  0  0  0  0  0  0  0  0  0
    0.5452   -2.6498   -1.7372 H   0  0  0  0  0  0  0  0  0  0  0  0
   -0.4382   -3.2465   -0.3958 H   0  0  0  0  0  0  0  0  0  0  0  0
    1.6203   -2.0766    0.4464 H   0  0  0  0  0  0  0  0  0  0  0  0
   -0.9237   -0.4783    0.9764 H   0  0  0  0  0  0  0  0  0  0  0  0
    0.5649   -0.3960    1.9360 H   0  0  0  0  0  0  0  0  0  0  0  0
   -2.1343   -1.3047    2.8432 H   0  0  0  0  0  0  0  0  0  0  0  0
   -0.6701   -1.1968    3.8314 H   0  0  0  0  0  0  0  0  0  0  0  0
   -0.7350   -3.6732    4.1963 H   0  0  0  0  0  0  0  0  0  0  0  0
   -2.2319   -2.9044    4.7487 H   0  0  0  0  0  0  0  0  0  0  0  0
   -2.1993   -3.7803    3.2097 H   0  0  0  0  0  0  0  0  0  0  0  0
  1  2  1  0
  1  6  1  0
  1  7  1  0
  1  8  1  0
  2  3  1  0
  2  9  1  0
  2 10  1  0
  3  4  1  0
  4  5  1  0
  4 11  1  0
  4 12  1  0
  5  6  1  0
  6 13  1  0
  6 14  1  0
 15 16  1  0
 15 21  1  0
 15 22  1  0
 15 23  1  0
 16 17  1  0
 16 24  1  0
 17 18  1  0
 17 25  1  0
 17 26  1  0
 18 19  1  0
 19 20  1  0
 19 27  1  0
 19 28  1  0
 20 29  1  0
 20 30  1  0
 20 31  1  0
M  RAD  1  16   2
M  END
>  <reaction>  (13) 
rmg_rxn_226

>  <mol_properties>  (13) 
{"0": {"label": "*3", "atom_type": "Cs"}, "1": {"label": "*4", "atom_type": "Cs"}, "6": {"label": "*2", "atom_type": "H0"}, "15": {"label": "*1", "atom_type": "Cs"}, "16": {"label": "*0", "atom_type": "Cs"}}

>  <type>  (13) 
unop_9

>  <geom_source>  (13) 
Heuristics

$$$$

     RDKit          3D

 31 30  0  0  0  0  0  0  0  0999 V2000
    0.8481    1.4609   -0.5227 C   0  0  0  0  0  0  0  0  0  0  0  0
    0.8481    1.4609   -2.0447 C   0  0  0  0  0  0  0  0  0  0  0  0
    0.8481    2.7872   -2.5368 O   0  0  0  0  0  0  0  0  0  0  0  0
   -0.2347    3.5116   -2.0375 C   0  0  0  0  0  0  0  0  0  0  0  0
   -0.2234    3.6178   -0.6465 O   0  0  0  0  0  0  0  0  0  0  0  0
   -0.2913    2.3441   -0.0346 C   0  0  0  0  0  0  0  0  0  0  0  0
    0.7106    0.2405   -0.0645 H   0  0  0  0  0  0  0  0  0  0  0  0
    1.7975    1.8594   -0.1597 H   0  0  0  0  0  0  0  0  0  0  0  0
    1.7339    0.9753   -2.4521 H   0  0  0  0  0  0  0  0  0  0  0  0
   -0.0394    0.9296   -2.4215 H   0  0  0  0  0  0  0  0  0  0  0  0
   -1.1773    3.0335   -2.3617 H   0  0  0  0  0  0  0  0  0  0  0  0
   -0.1624    4.5197   -2.4395 H   0  0  0  0  0  0  0  0  0  0  0  0
   -1.2590    1.8750   -0.2699 H   0  0  0  0  0  0  0  0  0  0  0  0
   -0.2460    2.5101    1.0409 H   0  0  0  0  0  0  0  0  0  0  0  0
    1.7204   -1.8562   -0.0924 C   0  0  0  0  0  0  0  0  0  0  0  0
    0.5729   -0.9812    0.3943 C   0  0  0  0  0  3  0  0  0  0  0  0
   -0.6966   -1.7617    0.6677 C   0  0  0  0  0  0  0  0  0  0  0  0
   -0.4653   -2.6771    1.7086 O   0  0  0  0  0  0  0  0  0  0  0  0
   -1.5835   -3.4732    2.0078 C   0  0  0  0  0  0  0  0  0  0  0  0
   -1.2275   -4.4168    3.1331 C   0  0  0  0  0  0  0  0  0  0  0  0
    1.4536   -2.3681   -1.0203 H   0  0  0  0  0  0  0  0  0  0  0  0
    2.6143   -1.2607   -0.2837 H   0  0  0  0  0  0  0  0  0  0  0  0
    1.9686   -2.6152    0.6495 H   0  0  0  0  0  0  0  0  0  0  0  0
    0.8621   -0.4574    1.3090 H   0  0  0  0  0  0  0  0  0  0  0  0
   -1.0130   -2.2988   -0.2405 H   0  0  0  0  0  0  0  0  0  0  0  0
   -1.5125   -1.0778    0.9440 H   0  0  0  0  0  0  0  0  0  0  0  0
   -1.8911   -4.0378    1.1153 H   0  0  0  0  0  0  0  0  0  0  0  0
   -2.4323   -2.8349    2.2952 H   0  0  0  0  0  0  0  0  0  0  0  0
   -0.9357   -3.8576    4.0228 H   0  0  0  0  0  0  0  0  0  0  0  0
   -2.0828   -5.0461    3.3837 H   0  0  0  0  0  0  0  0  0  0  0  0
   -0.3962   -5.0606    2.8434 H   0  0  0  0  0  0  0  0  0  0  0  0
  1  2  1  0
  1  6  1  0
  1  7  1  0
  1  8  1  0
  2  3  1  0
  2  9  1  0
  2 10  1  0
  3  4  1  0
  4  5  1  0
  4 11  1  0
  4 12  1  0
  5  6  1  0
  6 13  1  0
  6 14  1  0
 15 16  1  0
 15 21  1  0
 15 22  1  0
 15 23  1  0
 16 17  1  0
 16 24  1  0
 17 18  1  0
 17 25  1  0
 17 26  1  0
 18 19  1  0
 19 20  1  0
 19 27  1  0
 19 28  1  0
 20 29  1  0
 20 30  1  0
 20 31  1  0
M  RAD  1  16   2
M  END
>  <reaction>  (14) 
rmg_rxn_226

>  <mol_properties>  (14) 
{"0": {"label": "*3", "atom_type": "Cs"}, "1": {"label": "*4", "atom_type": "Cs"}, "6": {"label": "*2", "atom_type": "H0"}, "15": {"label": "*1", "atom_type": "Cs"}, "16": {"label": "*0", "atom_type": "Cs"}}

>  <type>  (14) 
unop_10

>  <geom_source>  (14) 
Heuristics

$$$$

     RDKit          3D

 31 30  0  0  0  0  0  0  0  0999 V2000
   -0.4084    1.0709   -0.4844 C   0  0  0  0  0  0  0  0  0  0  0  0
   -0.4084    1.0709   -2.0064 C   0  0  0  0  0  0  0  0  0  0  0  0
   -0.4084    2.3973   -2.4985 O   0  0  0  0  0  0  0  0  0  0  0  0
   -1.4912    3.1216   -1.9992 C   0  0  0  0  0  0  0  0  0  0  0  0
   -1.4799    3.2279   -0.6082 O   0  0  0  0  0  0  0  0  0  0  0  0
   -1.5478    1.9541    0.0037 C   0  0  0  0  0  0  0  0  0  0  0  0
   -0.5459   -0.1495   -0.0261 H   0  0  0  0  0  0  0  0  0  0  0  0
    0.5410    1.4694   -0.1214 H   0  0  0  0  0  0  0  0  0  0  0  0
    0.4774    0.5854   -2.4138 H   0  0  0  0  0  0  0  0  0  0  0  0
   -1.2959    0.5396   -2.3831 H   0  0  0  0  0  0  0  0  0  0  0  0
   -2.4338    2.6435   -2.3234 H   0  0  0  0  0  0  0  0  0  0  0  0
   -1.4189    4.1297   -2.4012 H   0  0  0  0  0  0  0  0  0  0  0  0
   -2.5155    1.4850   -0.2316 H   0  0  0  0  0  0  0  0  0  0  0  0
   -1.5025    2.1201    1.0792 H   0  0  0  0  0  0  0  0  0  0  0  0
   -1.4006   -1.3488    1.7760 C   0  0  0  0  0  0  0  0  0  0  0  0
   -0.6836   -1.3712    0.4326 C   0  0  0  0  0  3  0  0  0  0  0  0
    0.8255   -1.3384    0.5623 C   0  0  0  0  0  0  0  0  0  0  0  0
    1.2607   -2.4955    1.2306 O   0  0  0  0  0  0  0  0  0  0  0  0
    2.6510   -2.5339    1.4281 C   0  0  0  0  0  0  0  0  0  0  0  0
    3.0090   -3.8114    2.1516 C   0  0  0  0  0  0  0  0  0  0  0  0
   -1.1475   -0.4461    2.3377 H   0  0  0  0  0  0  0  0  0  0  0  0
   -2.4833   -1.3679    1.6436 H   0  0  0  0  0  0  0  0  0  0  0  0
   -1.1156   -2.2101    2.3801 H   0  0  0  0  0  0  0  0  0  0  0  0
   -0.9645   -2.2667   -0.1278 H   0  0  0  0  0  0  0  0  0  0  0  0
    1.1372   -0.4425    1.1224 H   0  0  0  0  0  0  0  0  0  0  0  0
    1.2924   -1.2813   -0.4319 H   0  0  0  0  0  0  0  0  0  0  0  0
    2.9708   -1.6585    2.0126 H   0  0  0  0  0  0  0  0  0  0  0  0
    3.1692   -2.4827    0.4590 H   0  0  0  0  0  0  0  0  0  0  0  0
    2.7048   -4.6800    1.5665 H   0  0  0  0  0  0  0  0  0  0  0  0
    4.0864   -3.8637    2.3159 H   0  0  0  0  0  0  0  0  0  0  0  0
    2.5080   -3.8558    3.1193 H   0  0  0  0  0  0  0  0  0  0  0  0
  1  2  1  0
  1  6  1  0
  1  7  1  0
  1  8  1  0
  2  3  1  0
  2  9  1  0
  2 10  1  0
  3  4  1  0
  4  5  1  0
  4 11  1  0
  4 12  1  0
  5  6  1  0
  6 13  1  0
  6 14  1  0
 15 16  1  0
 15 21  1  0
 15 22  1  0
 15 23  1  0
 16 17  1  0
 16 24  1  0
 17 18  1  0
 17 25  1  0
 17 26  1  0
 18 19  1  0
 19 20  1  0
 19 27  1  0
 19 28  1  0
 20 29  1  0
 20 30  1  0
 20 31  1  0
M  RAD  1  16   2
M  END
>  <reaction>  (15) 
rmg_rxn_226

>  <mol_properties>  (15) 
{"0": {"label": "*3", "atom_type": "Cs"}, "1": {"label": "*4", "atom_type": "Cs"}, "6": {"label": "*2", "atom_type": "H0"}, "15": {"label": "*1", "atom_type": "Cs"}, "16": {"label": "*0", "atom_type": "Cs"}}

>  <type>  (15) 
unop_11

>  <geom_source>  (15) 
Heuristics

$$$$

     RDKit          3D

 31 30  0  0  0  0  0  0  0  0999 V2000
    1.0533    1.2271   -0.6168 C   0  0  0  0  0  0  0  0  0  0  0  0
    1.0533    1.2271   -2.1388 C   0  0  0  0  0  0  0  0  0  0  0  0
    1.0533    2.5535   -2.6309 O   0  0  0  0  0  0  0  0  0  0  0  0
   -0.0295    3.2778   -2.1316 C   0  0  0  0  0  0  0  0  0  0  0  0
   -0.0182    3.3841   -0.7405 O   0  0  0  0  0  0  0  0  0  0  0  0
   -0.0861    2.1103   -0.1286 C   0  0  0  0  0  0  0  0  0  0  0  0
    0.9157    0.0067   -0.1585 H   0  0  0  0  0  0  0  0  0  0  0  0
    2.0026    1.6256   -0.2537 H   0  0  0  0  0  0  0  0  0  0  0  0
    1.9390    0.7416   -2.5461 H   0  0  0  0  0  0  0  0  0  0  0  0
    0.1658    0.6958   -2.5155 H   0  0  0  0  0  0  0  0  0  0  0  0
   -0.9721    2.7997   -2.4558 H   0  0  0  0  0  0  0  0  0  0  0  0
    0.0428    4.2859   -2.5336 H   0  0  0  0  0  0  0  0  0  0  0  0
   -1.0538    1.6412   -0.3639 H   0  0  0  0  0  0  0  0  0  0  0  0
   -0.0408    2.2763    0.9468 H   0  0  0  0  0  0  0  0  0  0  0  0
    0.6670   -2.1996   -0.8562 C   0  0  0  0  0  0  0  0  0  0  0  0
    0.7780   -1.2150    0.3002 C   0  0  0  0  0  3  0  0  0  0  0  0
   -0.4278   -1.2350    1.2172 C   0  0  0  0  0  0  0  0  0  0  0  0
   -0.5333   -2.5000    1.8203 O   0  0  0  0  0  0  0  0  0  0  0  0
   -1.6494   -2.6222    2.6647 C   0  0  0  0  0  0  0  0  0  0  0  0
   -1.6674   -4.0125    3.2564 C   0  0  0  0  0  0  0  0  0  0  0  0
   -0.2076   -1.9789   -1.4733 H   0  0  0  0  0  0  0  0  0  0  0  0
    1.5488   -2.1536   -1.4971 H   0  0  0  0  0  0  0  0  0  0  0  0
    0.5671   -3.2200   -0.4863 H   0  0  0  0  0  0  0  0  0  0  0  0
    1.6694   -1.4326    0.8942 H   0  0  0  0  0  0  0  0  0  0  0  0
   -1.3424   -1.0157    0.6437 H   0  0  0  0  0  0  0  0  0  0  0  0
   -0.3322   -0.4579    1.9898 H   0  0  0  0  0  0  0  0  0  0  0  0
   -2.5720   -2.4345    2.0958 H   0  0  0  0  0  0  0  0  0  0  0  0
   -1.6013   -1.8656    3.4619 H   0  0  0  0  0  0  0  0  0  0  0  0
   -0.7592   -4.1946    3.8321 H   0  0  0  0  0  0  0  0  0  0  0  0
   -2.5271   -4.1309    3.9177 H   0  0  0  0  0  0  0  0  0  0  0  0
   -1.7308   -4.7628    2.4675 H   0  0  0  0  0  0  0  0  0  0  0  0
  1  2  1  0
  1  6  1  0
  1  7  1  0
  1  8  1  0
  2  3  1  0
  2  9  1  0
  2 10  1  0
  3  4  1  0
  4  5  1  0
  4 11  1  0
  4 12  1  0
  5  6  1  0
  6 13  1  0
  6 14  1  0
 15 16  1  0
 15 21  1  0
 15 22  1  0
 15 23  1  0
 16 17  1  0
 16 24  1  0
 17 18  1  0
 17 25  1  0
 17 26  1  0
 18 19  1  0
 19 20  1  0
 19 27  1  0
 19 28  1  0
 20 29  1  0
 20 30  1  0
 20 31  1  0
M  RAD  1  16   2
M  END
>  <reaction>  (16) 
rmg_rxn_226

>  <mol_properties>  (16) 
{"0": {"label": "*3", "atom_type": "Cs"}, "1": {"label": "*4", "atom_type": "Cs"}, "6": {"label": "*2", "atom_type": "H0"}, "15": {"label": "*1", "atom_type": "Cs"}, "16": {"label": "*0", "atom_type": "Cs"}}

>  <type>  (16) 
unop_12

>  <geom_source>  (16) 
Heuristics

$$$$

     RDKit          3D

 31 30  0  0  0  0  0  0  0  0999 V2000
    2.1334    0.2027    0.2756 O   0  0  0  0  0  0  0  0  0  0  0  0
   -3.9508   -0.2807   -0.6791 O   0  0  0  0  0  0  0  0  0  0  0  0
   -2.9151    1.8599   -0.3646 O   0  0  0  0  0  0  0  0  0  0  0  0
    0.4813   -1.5273    0.0483 C   0  0  0  0  0  0  0  0  0  0  0  0
    1.6923   -0.8346   -0.5752 C   0  0  0  0  0  0  0  0  0  0  0  0
    3.2642    0.8281   -0.2921 C   0  0  0  0  0  0  0  0  0  0  0  0
   -3.1175   -0.6354    0.4027 C   0  0  0  0  0  0  0  0  0  0  0  0
   -1.7475    1.1347   -0.6815 C   0  0  0  0  0  0  0  0  0  0  0  0
    0.8397   -2.2405    1.3494 C   0  0  0  0  0  0  0  0  0  0  0  0
    3.7259    1.9504    0.6246 C   0  0  0  0  0  0  0  0  0  0  0  0
   -4.0740    1.1361   -0.7685 C   0  0  0  0  0  0  0  0  0  0  0  0
   -1.6939   -0.1477    0.1450 C   0  0  0  0  0  3  0  0  0  0  0  0
    0.0769   -2.2716   -0.6715 H   0  0  0  0  0  0  0  0  0  0  0  0
   -0.4624   -0.6274    0.2896 H   0  0  0  0  0  0  0  0  0  0  0  0
    2.4952   -1.5901   -0.7402 H   0  0  0  0  0  0  0  0  0  0  0  0
    1.3764   -0.4200   -1.5593 H   0  0  0  0  0  0  0  0  0  0  0  0
    3.0175    1.2686   -1.2852 H   0  0  0  0  0  0  0  0  0  0  0  0
    4.1028    0.1034   -0.4043 H   0  0  0  0  0  0  0  0  0  0  0  0
   -0.0635   -2.7426    1.7549 H   0  0  0  0  0  0  0  0  0  0  0  0
    1.2056   -1.5112    2.1026 H   0  0  0  0  0  0  0  0  0  0  0  0
    1.6225   -3.0074    1.1677 H   0  0  0  0  0  0  0  0  0  0  0  0
    2.9154    2.7003    0.7453 H   0  0  0  0  0  0  0  0  0  0  0  0
    4.6166    2.4499    0.1882 H   0  0  0  0  0  0  0  0  0  0  0  0
    3.9947    1.5406    1.6214 H   0  0  0  0  0  0  0  0  0  0  0  0
   -3.1155   -1.7401    0.5140 H   0  0  0  0  0  0  0  0  0  0  0  0
   -3.5007   -0.2037    1.3551 H   0  0  0  0  0  0  0  0  0  0  0  0
   -0.8593    1.7525   -0.4363 H   0  0  0  0  0  0  0  0  0  0  0  0
   -1.7107    0.9046   -1.7716 H   0  0  0  0  0  0  0  0  0  0  0  0
   -4.3171    1.4048   -1.8183 H   0  0  0  0  0  0  0  0  0  0  0  0
   -4.9311    1.4618   -0.1418 H   0  0  0  0  0  0  0  0  0  0  0  0
   -1.1014   -0.9181   -0.3947 H   0  0  0  0  0  0  0  0  0  0  0  0
  1  6  1  0
  1  5  1  0
  2  7  1  0
  2 11  1  0
  3  8  1  0
  3 11  1  0
  4  9  1  0
  4  5  1  0
  4 13  1  0
  4 14  1  0
  5 15  1  0
  5 16  1  0
  6 10  1  0
  6 17  1  0
  6 18  1  0
  7 12  1  0
  7 25  1  0
  7 26  1  0
  8 12  1  0
  8 27  1  0
  8 28  1  0
  9 19  1  0
  9 20  1  0
  9 21  1  0
 10 22  1  0
 10 23  1  0
 10 24  1  0
 11 29  1  0
 11 30  1  0
 12 31  1  0
M  RAD  1  12   2
M  END
>  <reaction>  (17) 
rmg_rxn_226

>  <mol_properties>  (17) 
{"0": {"label": "*3", "atom_type": "Cs"}, "1": {"label": "*4", "atom_type": "Cs"}, "6": {"label": "*2", "atom_type": "H0"}, "15": {"label": "*1", "atom_type": "Cs"}, "16": {"label": "*0", "atom_type": "Cs"}}

>  <type>  (17) 
unop_13

>  <geom_source>  (17) 
AutoTST

$$$$

     RDKit          3D

 31 30  0  0  0  0  0  0  0  0999 V2000
    0.9233    1.4110   -0.5292 C   0  0  0  0  0  0  0  0  0  0  0  0
    0.9233    1.4110   -2.0512 C   0  0  0  0  0  0  0  0  0  0  0  0
    0.9233    2.7374   -2.5433 O   0  0  0  0  0  0  0  0  0  0  0  0
   -0.1595    3.4617   -2.0440 C   0  0  0  0  0  0  0  0  0  0  0  0
   -0.1483    3.5680   -0.6529 O   0  0  0  0  0  0  0  0  0  0  0  0
   -0.2162    2.2942   -0.0411 C   0  0  0  0  0  0  0  0  0  0  0  0
    0.7857    0.1906   -0.0709 H   0  0  0  0  0  0  0  0  0  0  0  0
    1.8726    1.8095   -0.1662 H   0  0  0  0  0  0  0  0  0  0  0  0
    1.8090    0.9255   -2.4585 H   0  0  0  0  0  0  0  0  0  0  0  0
    0.0357    0.8798   -2.4279 H   0  0  0  0  0  0  0  0  0  0  0  0
   -1.1021    2.9836   -2.3682 H   0  0  0  0  0  0  0  0  0  0  0  0
   -0.0873    4.4698   -2.4460 H   0  0  0  0  0  0  0  0  0  0  0  0
   -1.1838    1.8251   -0.2764 H   0  0  0  0  0  0  0  0  0  0  0  0
   -0.1709    2.4603    1.0344 H   0  0  0  0  0  0  0  0  0  0  0  0
    1.2550   -2.0292   -0.5892 C   0  0  0  0  0  0  0  0  0  0  0  0
    0.6480   -1.0311    0.3878 C   0  0  0  0  0  3  0  0  0  0  0  0
   -0.6655   -1.5002    0.9793 C   0  0  0  0  0  0  0  0  0  0  0  0
   -0.4469   -2.6659    1.7331 O   0  0  0  0  0  0  0  0  0  0  0  0
   -1.6218   -3.1947    2.2930 C   0  0  0  0  0  0  0  0  0  0  0  0
   -1.2751   -4.4391    3.0770 C   0  0  0  0  0  0  0  0  0  0  0  0
    0.5769   -2.2176   -1.4253 H   0  0  0  0  0  0  0  0  0  0  0  0
    2.1951   -1.6562   -0.9982 H   0  0  0  0  0  0  0  0  0  0  0  0
    1.4514   -2.9813   -0.0962 H   0  0  0  0  0  0  0  0  0  0  0  0
    1.3462   -0.8342    1.2054 H   0  0  0  0  0  0  0  0  0  0  0  0
   -1.3906   -1.7042    0.1755 H   0  0  0  0  0  0  0  0  0  0  0  0
   -1.0977   -0.7160    1.6181 H   0  0  0  0  0  0  0  0  0  0  0  0
   -2.3431   -3.4305    1.4967 H   0  0  0  0  0  0  0  0  0  0  0  0
   -2.0949   -2.4475    2.9473 H   0  0  0  0  0  0  0  0  0  0  0  0
   -0.5705   -4.2038    3.8755 H   0  0  0  0  0  0  0  0  0  0  0  0
   -2.1740   -4.8680    3.5226 H   0  0  0  0  0  0  0  0  0  0  0  0
   -0.8202   -5.1866    2.4260 H   0  0  0  0  0  0  0  0  0  0  0  0
  1  2  1  0
  1  6  1  0
  1  7  1  0
  1  8  1  0
  2  3  1  0
  2  9  1  0
  2 10  1  0
  3  4  1  0
  4  5  1  0
  4 11  1  0
  4 12  1  0
  5  6  1  0
  6 13  1  0
  6 14  1  0
 15 16  1  0
 15 21  1  0
 15 22  1  0
 15 23  1  0
 16 17  1  0
 16 24  1  0
 17 18  1  0
 17 25  1  0
 17 26  1  0
 18 19  1  0
 19 20  1  0
 19 27  1  0
 19 28  1  0
 20 29  1  0
 20 30  1  0
 20 31  1  0
M  RAD  1  16   2
M  END
>  <reaction>  (18) 
rmg_rxn_226

>  <mol_properties>  (18) 
{"0": {"label": "*3", "atom_type": "Cs"}, "1": {"label": "*4", "atom_type": "Cs"}, "6": {"label": "*2", "atom_type": "H0"}, "15": {"label": "*1", "atom_type": "Cs"}, "16": {"label": "*0", "atom_type": "Cs"}}

>  <type>  (18) 
unop_14

>  <geom_source>  (18) 
gaussian_log

$$$$
