
     RDKit          3D

 12 11  0  0  0  0  0  0  0  0999 V2000
    1.8075    0.1979    0.4695 C   0  0  0  0  0  0  0  0  0  0  0  0
    1.0072   -0.8859   -0.7259 S   0  0  0  0  0  0  0  0  0  0  0  0
   -0.7258   -0.6904   -0.2447 C   0  0  0  0  0  0  0  0  0  0  0  0
   -1.0856   -1.2776    1.1108 C   0  0  0  0  0  0  0  0  0  0  0  0
    1.7126   -0.1777    1.4878 H   0  0  0  0  0  0  0  0  0  0  0  0
    1.4024    1.2089    0.4095 H   0  0  0  0  0  0  0  0  0  0  0  0
    2.8647    0.2298    0.2095 H   0  0  0  0  0  0  0  0  0  0  0  0
   -1.2866   -1.1892   -1.0369 H   0  0  0  0  0  0  0  0  0  0  0  0
   -0.9814    0.3707   -0.2917 H   0  0  0  0  0  0  0  0  0  0  0  0
   -0.5492   -0.7768    1.9180 H   0  0  0  0  0  0  0  0  0  0  0  0
   -0.8418   -2.3397    1.1503 H   0  0  0  0  0  0  0  0  0  0  0  0
   -2.1545   -1.1604    1.3035 H   0  0  0  0  0  0  0  0  0  0  0  0
  1  2  1  0
  1  5  1  0
  1  6  1  0
  1  7  1  0
  2  3  1  0
  3  4  1  0
  3  8  1  0
  3  9  1  0
  4 10  1  0
  4 11  1  0
  4 12  1  0
M  END
>  <reaction>  (1) 
rmg_rxn_15395

>  <mol_properties>  (1) 
{"0": {"label": "donator", "atom_type": "Cs"}, "4": {"label": "d_hydrogen", "atom_type": "H0"}}

>  <type>  (1) 
r1h

$$$$

     RDKit          3D

  5  4  0  0  0  0  0  0  0  0999 V2000
    0.8934    0.3742    0.4948 O   0  0  0  0  0  0  0  0  0  0  0  0
    0.1582   -0.1610   -0.5904 N   0  0  0  0  0  0  0  0  0  0  0  0
   -1.0297   -0.3739   -0.4689 C   0  0  0  0  0  3  0  0  0  0  0  0
    1.7804    0.4382    0.1306 H   0  0  0  0  0  0  0  0  0  0  0  0
   -1.8023   -0.2775    0.2859 H   0  0  0  0  0  0  0  0  0  0  0  0
  1  2  1  0
  1  4  1  0
  2  3  2  3
  3  5  1  0
M  RAD  1   3   2
M  END
>  <reaction>  (2) 
rmg_rxn_15395

>  <mol_properties>  (2) 
{"2": {"label": "acceptor", "atom_type": "Cd"}}

>  <type>  (2) 
r2

$$$$

     RDKit          3D

  6  5  0  0  0  0  0  0  0  0999 V2000
    1.2314    0.0428    0.5088 O   0  0  0  0  0  0  0  0  0  0  0  0
    0.2987    0.2341   -0.4915 N   0  0  0  0  0  0  0  0  0  0  0  0
   -0.8599   -0.1122   -0.1290 C   0  0  0  0  0  0  0  0  0  0  0  0
    2.0507    0.3401    0.1082 H   0  0  0  0  0  0  0  0  0  0  0  0
   -1.0700   -0.5112    0.8610 H   0  0  0  0  0  0  0  0  0  0  0  0
   -1.6509    0.0064   -0.8574 H   0  0  0  0  0  0  0  0  0  0  0  0
  1  2  1  0
  1  4  1  0
  2  3  2  3
  3  5  1  0
  3  6  1  0
M  END
>  <reaction>  (3) 
rmg_rxn_15395

>  <mol_properties>  (3) 
{"2": {"label": "acceptor", "atom_type": "Cd"}, "5": {"label": "a_hydrogen", "atom_type": "H0"}}

>  <type>  (3) 
r2h

$$$$

     RDKit          3D

 17 15  0  0  0  0  0  0  0  0999 V2000
   -3.7102   -0.0917    0.0919 O   0  0  0  0  0  0  0  0  0  0  0  0
   -2.4115    0.1475   -0.3856 N   0  0  0  0  0  0  0  0  0  0  0  0
   -1.7075    0.8420    0.3647 C   0  0  0  0  0  3  0  0  0  0  0  0
   -4.0950   -0.6299   -0.6037 H   0  0  0  0  0  0  0  0  0  0  0  0
   -1.9721    1.2819    1.3265 H   0  0  0  0  0  0  0  0  0  0  0  0
    0.7396    1.3198   -0.7018 C   0  0  0  0  0  0  0  0  0  0  0  0
    2.0944    0.6305    0.1922 S   0  0  0  0  0  0  0  0  0  0  0  0
    2.0285   -1.0987   -0.3376 C   0  0  0  0  0  0  0  0  0  0  0  0
    0.7924   -1.8593    0.1130 C   0  0  0  0  0  0  0  0  0  0  0  0
   -0.3521    1.0793   -0.1609 H   0  0  0  0  0  0  0  0  0  0  0  0
    0.6409    0.9307   -1.7153 H   0  0  0  0  0  0  0  0  0  0  0  0
    0.8138    2.4057   -0.6998 H   0  0  0  0  0  0  0  0  0  0  0  0
    2.9320   -1.5427    0.0836 H   0  0  0  0  0  0  0  0  0  0  0  0
    2.1316   -1.1252   -1.4243 H   0  0  0  0  0  0  0  0  0  0  0  0
    0.8679   -2.9060   -0.1901 H   0  0  0  0  0  0  0  0  0  0  0  0
   -0.1143   -1.4468   -0.3300 H   0  0  0  0  0  0  0  0  0  0  0  0
    0.6855   -1.8219    1.1978 H   0  0  0  0  0  0  0  0  0  0  0  0
  1  2  1  0
  1  4  1  0
  2  3  2  3
  3  5  1  0
  6  7  1  0
  6 10  1  0
  6 11  1  0
  6 12  1  0
  7  8  1  0
  8  9  1  0
  8 13  1  0
  8 14  1  0
  9 15  1  0
  9 16  1  0
  9 17  1  0
M  RAD  1   3   2
M  END
>  <reaction>  (4) 
rmg_rxn_15395

>  <mol_properties>  (4) 
{"1": {"label": "*4", "atom_type": "N3d"}, "2": {"label": "*3", "atom_type": "Cd"}, "5": {"label": "*1", "atom_type": "Cs"}, "6": {"label": "*0", "atom_type": "S2s"}, "9": {"label": "*2", "atom_type": "H0"}}

>  <type>  (4) 
ts

$$$$

     RDKit          3D

 17 15  0  0  0  0  0  0  0  0999 V2000
   -3.5010   -0.3274   -0.1208 O   0  0  0  0  0  0  0  0  0  0  0  0
   -2.1400   -0.0622    0.1449 N   0  0  0  0  0  0  0  0  0  0  0  0
   -1.6700    1.0517   -0.1332 C   0  0  0  0  0  0  0  0  0  0  0  0
   -3.6301   -1.2412    0.1673 H   0  0  0  0  0  0  0  0  0  0  0  0
   -2.1752    1.9041   -0.5716 H   0  0  0  0  0  0  0  0  0  0  0  0
    0.8405    1.4195    0.5692 C   0  0  0  0  0  3  0  0  0  0  0  0
    2.0088    0.5126   -0.3704 S   0  0  0  0  0  0  0  0  0  0  0  0
    1.8720   -1.1427    0.3909 C   0  0  0  0  0  0  0  0  0  0  0  0
    0.6450   -1.8996   -0.0788 C   0  0  0  0  0  0  0  0  0  0  0  0
   -0.4239    1.1980    0.1749 H   0  0  0  0  0  0  0  0  0  0  0  0
    0.9858    2.4787    0.3960 H   0  0  0  0  0  0  0  0  0  0  0  0
    0.8628    1.1592    1.6209 H   0  0  0  0  0  0  0  0  0  0  0  0
    1.8690   -1.0029    1.4717 H   0  0  0  0  0  0  0  0  0  0  0  0
    2.7870   -1.6579    0.0994 H   0  0  0  0  0  0  0  0  0  0  0  0
    0.6646   -2.0138   -1.1602 H   0  0  0  0  0  0  0  0  0  0  0  0
   -0.2661   -1.3732    0.1979 H   0  0  0  0  0  0  0  0  0  0  0  0
    0.6333   -2.8891    0.3744 H   0  0  0  0  0  0  0  0  0  0  0  0
  1  2  1  0
  1  4  1  0
  2  3  2  3
  3  5  1  0
  3 10  1  0
  6  7  1  0
  6 11  1  0
  6 12  1  0
  7  8  1  0
  8  9  1  0
  8 13  1  0
  8 14  1  0
  9 15  1  0
  9 16  1  0
  9 17  1  0
M  RAD  1   6   2
M  END
>  <reaction>  (5) 
rmg_rxn_15395

>  <mol_properties>  (5) 
{"1": {"label": "*4", "atom_type": "N3d"}, "2": {"label": "*3", "atom_type": "Cd"}, "5": {"label": "*1", "atom_type": "Cs"}, "6": {"label": "*0", "atom_type": "S2s"}, "9": {"label": "*2", "atom_type": "H0"}}

>  <type>  (5) 
unop_1

>  <geom_source>  (5) 
crest_best.xyz

$$$$

     RDKit          3D

 17 15  0  0  0  0  0  0  0  0999 V2000
    1.9942    1.7757   -2.6231 O   0  0  0  0  0  0  0  0  0  0  0  0
    1.0449    1.7838   -1.6202 N   0  0  0  0  0  0  0  0  0  0  0  0
    0.7585    0.6173   -1.2319 C   0  0  0  0  0  0  0  0  0  0  0  0
    2.1165    2.7064   -2.8205 H   0  0  0  0  0  0  0  0  0  0  0  0
    1.2206   -0.2719   -1.6554 H   0  0  0  0  0  0  0  0  0  0  0  0
    0.5296    0.2672    1.3398 C   0  0  0  0  0  3  0  0  0  0  0  0
   -1.1135   -0.3116    1.7976 S   0  0  0  0  0  0  0  0  0  0  0  0
   -1.1135   -1.9517    1.0340 C   0  0  0  0  0  0  0  0  0  0  0  0
   -1.1135   -1.9517   -0.4864 C   0  0  0  0  0  0  0  0  0  0  0  0
    0.6445    0.4429    0.0494 H   0  0  0  0  0  0  0  0  0  0  0  0
    1.2966   -0.4258    1.6879 H   0  0  0  0  0  0  0  0  0  0  0  0
    0.6761    1.2266    1.8342 H   0  0  0  0  0  0  0  0  0  0  0  0
   -2.0175   -2.4297    1.4149 H   0  0  0  0  0  0  0  0  0  0  0  0
   -0.2642   -2.5166    1.4252 H   0  0  0  0  0  0  0  0  0  0  0  0
   -0.2065   -1.4955   -0.8857 H   0  0  0  0  0  0  0  0  0  0  0  0
   -1.9695   -1.3985   -0.8741 H   0  0  0  0  0  0  0  0  0  0  0  0
   -1.1619   -2.9750   -0.8659 H   0  0  0  0  0  0  0  0  0  0  0  0
  1  2  1  0
  1  4  1  0
  2  3  2  3
  3  5  1  0
  3 10  1  0
  6  7  1  0
  6 11  1  0
  6 12  1  0
  7  8  1  0
  8  9  1  0
  8 13  1  0
  8 14  1  0
  9 15  1  0
  9 16  1  0
  9 17  1  0
M  RAD  1   6   2
M  END
>  <reaction>  (6) 
rmg_rxn_15395

>  <mol_properties>  (6) 
{"1": {"label": "*4", "atom_type": "N3d"}, "2": {"label": "*3", "atom_type": "Cd"}, "5": {"label": "*1", "atom_type": "Cs"}, "6": {"label": "*0", "atom_type": "S2s"}, "9": {"label": "*2", "atom_type": "H0"}}

>  <type>  (6) 
unop_2

>  <geom_source>  (6) 
Heuristics

$$$$

     RDKit          3D

 17 15  0  0  0  0  0  0  0  0999 V2000
   -3.4998    0.3271    0.1221 O   0  0  0  0  0  0  0  0  0  0  0  0
   -2.1393    0.0617   -0.1455 N   0  0  0  0  0  0  0  0  0  0  0  0
   -1.6692   -1.0524    0.1318 C   0  0  0  0  0  0  0  0  0  0  0  0
   -3.6291    1.2409   -0.1660 H   0  0  0  0  0  0  0  0  0  0  0  0
   -2.1740   -1.9048    0.5709 H   0  0  0  0  0  0  0  0  0  0  0  0
    0.8418   -1.4201   -0.5692 C   0  0  0  0  0  3  0  0  0  0  0  0
    2.0084   -0.5117    0.3710 S   0  0  0  0  0  0  0  0  0  0  0  0
    1.8708    1.1432   -0.3909 C   0  0  0  0  0  0  0  0  0  0  0  0
    0.6429    1.8993    0.0779 C   0  0  0  0  0  0  0  0  0  0  0  0
   -0.4231   -1.1987   -0.1765 H   0  0  0  0  0  0  0  0  0  0  0  0
    0.9874   -2.4791   -0.3947 H   0  0  0  0  0  0  0  0  0  0  0  0
    0.8655   -1.1609   -1.6211 H   0  0  0  0  0  0  0  0  0  0  0  0
    1.8686    1.0030   -1.4716 H   0  0  0  0  0  0  0  0  0  0  0  0
    2.7852    1.6593   -0.0989 H   0  0  0  0  0  0  0  0  0  0  0  0
   -0.2676    1.3723   -0.1998 H   0  0  0  0  0  0  0  0  0  0  0  0
    0.6309    2.8888   -0.3753 H   0  0  0  0  0  0  0  0  0  0  0  0
    0.6614    2.0134    1.1592 H   0  0  0  0  0  0  0  0  0  0  0  0
  1  2  1  0
  1  4  1  0
  2  3  2  3
  3  5  1  0
  3 10  1  0
  6  7  1  0
  6 11  1  0
  6 12  1  0
  7  8  1  0
  8  9  1  0
  8 13  1  0
  8 14  1  0
  9 15  1  0
  9 16  1  0
  9 17  1  0
M  RAD  1   6   2
M  END
>  <reaction>  (7) 
rmg_rxn_15395

>  <mol_properties>  (7) 
{"1": {"label": "*4", "atom_type": "N3d"}, "2": {"label": "*3", "atom_type": "Cd"}, "5": {"label": "*1", "atom_type": "Cs"}, "6": {"label": "*0", "atom_type": "S2s"}, "9": {"label": "*2", "atom_type": "H0"}}

>  <type>  (7) 
unop_3

>  <geom_source>  (7) 
Heuristics

$$$$

     RDKit          3D

 17 15  0  0  0  0  0  0  0  0999 V2000
    0.4329    1.6186   -2.9985 O   0  0  0  0  0  0  0  0  0  0  0  0
    0.1526    1.0793   -1.7585 N   0  0  0  0  0  0  0  0  0  0  0  0
    1.2021    0.7548   -1.1368 C   0  0  0  0  0  0  0  0  0  0  0  0
   -0.4350    1.8171   -3.3556 H   0  0  0  0  0  0  0  0  0  0  0  0
    2.1975    0.8947   -1.5530 H   0  0  0  0  0  0  0  0  0  0  0  0
    0.9733    0.4047    1.4350 C   0  0  0  0  0  3  0  0  0  0  0  0
   -0.6698   -0.1742    1.8928 S   0  0  0  0  0  0  0  0  0  0  0  0
   -0.6698   -1.8143    1.1291 C   0  0  0  0  0  0  0  0  0  0  0  0
   -0.6698   -1.8143   -0.3912 C   0  0  0  0  0  0  0  0  0  0  0  0
    1.0881    0.5803    0.1446 H   0  0  0  0  0  0  0  0  0  0  0  0
    1.7403   -0.2884    1.7831 H   0  0  0  0  0  0  0  0  0  0  0  0
    1.1197    1.3641    1.9293 H   0  0  0  0  0  0  0  0  0  0  0  0
   -1.5739   -2.2923    1.5101 H   0  0  0  0  0  0  0  0  0  0  0  0
    0.1794   -2.3792    1.5204 H   0  0  0  0  0  0  0  0  0  0  0  0
    0.2372   -1.3581   -0.7905 H   0  0  0  0  0  0  0  0  0  0  0  0
   -1.5258   -1.2611   -0.7789 H   0  0  0  0  0  0  0  0  0  0  0  0
   -0.7183   -2.8375   -0.7708 H   0  0  0  0  0  0  0  0  0  0  0  0
  1  2  1  0
  1  4  1  0
  2  3  2  3
  3  5  1  0
  3 10  1  0
  6  7  1  0
  6 11  1  0
  6 12  1  0
  7  8  1  0
  8  9  1  0
  8 13  1  0
  8 14  1  0
  9 15  1  0
  9 16  1  0
  9 17  1  0
M  RAD  1   6   2
M  END
>  <reaction>  (8) 
rmg_rxn_15395

>  <mol_properties>  (8) 
{"1": {"label": "*4", "atom_type": "N3d"}, "2": {"label": "*3", "atom_type": "Cd"}, "5": {"label": "*1", "atom_type": "Cs"}, "6": {"label": "*0", "atom_type": "S2s"}, "9": {"label": "*2", "atom_type": "H0"}}

>  <type>  (8) 
unop_4

>  <geom_source>  (8) 
Heuristics

$$$$

     RDKit          3D

 17 15  0  0  0  0  0  0  0  0999 V2000
    2.0845    1.3068   -2.7832 O   0  0  0  0  0  0  0  0  0  0  0  0
    1.4794    1.6295   -1.5846 N   0  0  0  0  0  0  0  0  0  0  0  0
    0.6750    0.7334   -1.2056 C   0  0  0  0  0  0  0  0  0  0  0  0
    2.6581    2.0570   -2.9514 H   0  0  0  0  0  0  0  0  0  0  0  0
    0.4988   -0.1760   -1.7761 H   0  0  0  0  0  0  0  0  0  0  0  0
    0.4462    0.3833    1.3661 C   0  0  0  0  0  3  0  0  0  0  0  0
   -1.1969   -0.1955    1.8239 S   0  0  0  0  0  0  0  0  0  0  0  0
   -1.1969   -1.8356    1.0603 C   0  0  0  0  0  0  0  0  0  0  0  0
   -1.1969   -1.8356   -0.4601 C   0  0  0  0  0  0  0  0  0  0  0  0
    0.5610    0.5590    0.0757 H   0  0  0  0  0  0  0  0  0  0  0  0
    1.2132   -0.3097    1.7142 H   0  0  0  0  0  0  0  0  0  0  0  0
    0.5926    1.3427    1.8605 H   0  0  0  0  0  0  0  0  0  0  0  0
   -2.1010   -2.3136    1.4412 H   0  0  0  0  0  0  0  0  0  0  0  0
   -0.3477   -2.4005    1.4515 H   0  0  0  0  0  0  0  0  0  0  0  0
   -0.2899   -1.3795   -0.8594 H   0  0  0  0  0  0  0  0  0  0  0  0
   -2.0529   -1.2824   -0.8478 H   0  0  0  0  0  0  0  0  0  0  0  0
   -1.2454   -2.8589   -0.8396 H   0  0  0  0  0  0  0  0  0  0  0  0
  1  2  1  0
  1  4  1  0
  2  3  2  3
  3  5  1  0
  3 10  1  0
  6  7  1  0
  6 11  1  0
  6 12  1  0
  7  8  1  0
  8  9  1  0
  8 13  1  0
  8 14  1  0
  9 15  1  0
  9 16  1  0
  9 17  1  0
M  RAD  1   6   2
M  END
>  <reaction>  (9) 
rmg_rxn_15395

>  <mol_properties>  (9) 
{"1": {"label": "*4", "atom_type": "N3d"}, "2": {"label": "*3", "atom_type": "Cd"}, "5": {"label": "*1", "atom_type": "Cs"}, "6": {"label": "*0", "atom_type": "S2s"}, "9": {"label": "*2", "atom_type": "H0"}}

>  <type>  (9) 
unop_5

>  <geom_source>  (9) 
Heuristics

$$$$

     RDKit          3D

 17 15  0  0  0  0  0  0  0  0999 V2000
    1.4919    0.1958   -2.9952 O   0  0  0  0  0  0  0  0  0  0  0  0
    0.7198    0.1604   -1.8508 N   0  0  0  0  0  0  0  0  0  0  0  0
    0.9070    1.1750   -1.1235 C   0  0  0  0  0  0  0  0  0  0  0  0
    1.2565   -0.6168   -3.4471 H   0  0  0  0  0  0  0  0  0  0  0  0
    1.6010    1.9688   -1.3914 H   0  0  0  0  0  0  0  0  0  0  0  0
    0.6781    0.8249    1.4483 C   0  0  0  0  0  3  0  0  0  0  0  0
   -0.9650    0.2461    1.9061 S   0  0  0  0  0  0  0  0  0  0  0  0
   -0.9650   -1.3940    1.1424 C   0  0  0  0  0  0  0  0  0  0  0  0
   -0.9650   -1.3940   -0.3780 C   0  0  0  0  0  0  0  0  0  0  0  0
    0.7929    1.0006    0.1579 H   0  0  0  0  0  0  0  0  0  0  0  0
    1.4451    0.1319    1.7964 H   0  0  0  0  0  0  0  0  0  0  0  0
    0.8246    1.7843    1.9426 H   0  0  0  0  0  0  0  0  0  0  0  0
   -1.8691   -1.8720    1.5233 H   0  0  0  0  0  0  0  0  0  0  0  0
   -0.1158   -1.9589    1.5337 H   0  0  0  0  0  0  0  0  0  0  0  0
   -0.0580   -0.9379   -0.7773 H   0  0  0  0  0  0  0  0  0  0  0  0
   -1.8210   -0.8408   -0.7657 H   0  0  0  0  0  0  0  0  0  0  0  0
   -1.0134   -2.4173   -0.7575 H   0  0  0  0  0  0  0  0  0  0  0  0
  1  2  1  0
  1  4  1  0
  2  3  2  3
  3  5  1  0
  3 10  1  0
  6  7  1  0
  6 11  1  0
  6 12  1  0
  7  8  1  0
  8  9  1  0
  8 13  1  0
  8 14  1  0
  9 15  1  0
  9 16  1  0
  9 17  1  0
M  RAD  1   6   2
M  END
>  <reaction>  (10) 
rmg_rxn_15395

>  <mol_properties>  (10) 
{"1": {"label": "*4", "atom_type": "N3d"}, "2": {"label": "*3", "atom_type": "Cd"}, "5": {"label": "*1", "atom_type": "Cs"}, "6": {"label": "*0", "atom_type": "S2s"}, "9": {"label": "*2", "atom_type": "H0"}}

>  <type>  (10) 
unop_6

>  <geom_source>  (10) 
Heuristics

$$$$

     RDKit          3D

 17 15  0  0  0  0  0  0  0  0999 V2000
   -3.5002   -0.3275    0.1220 O   0  0  0  0  0  0  0  0  0  0  0  0
   -2.1392   -0.0627   -0.1438 N   0  0  0  0  0  0  0  0  0  0  0  0
   -1.6703    1.0528    0.1297 C   0  0  0  0  0  0  0  0  0  0  0  0
   -3.6283   -1.2429   -0.1616 H   0  0  0  0  0  0  0  0  0  0  0  0
   -2.1768    1.9070    0.5633 H   0  0  0  0  0  0  0  0  0  0  0  0
    0.8415    1.4204   -0.5686 C   0  0  0  0  0  3  0  0  0  0  0  0
    2.0082    0.5120    0.3714 S   0  0  0  0  0  0  0  0  0  0  0  0
    1.8716   -1.1427   -0.3914 C   0  0  0  0  0  0  0  0  0  0  0  0
    0.6441   -1.8996    0.0771 C   0  0  0  0  0  0  0  0  0  0  0  0
   -0.4236    1.1987   -0.1765 H   0  0  0  0  0  0  0  0  0  0  0  0
    0.8654    1.1616   -1.6206 H   0  0  0  0  0  0  0  0  0  0  0  0
    0.9867    2.4793   -0.3936 H   0  0  0  0  0  0  0  0  0  0  0  0
    2.7863   -1.6584   -0.0999 H   0  0  0  0  0  0  0  0  0  0  0  0
    1.8691   -1.0018   -1.4720 H   0  0  0  0  0  0  0  0  0  0  0  0
    0.6624   -2.0133    1.1586 H   0  0  0  0  0  0  0  0  0  0  0  0
    0.6332   -2.8894   -0.3756 H   0  0  0  0  0  0  0  0  0  0  0  0
   -0.2667   -1.3735   -0.2009 H   0  0  0  0  0  0  0  0  0  0  0  0
  1  2  1  0
  1  4  1  0
  2  3  2  3
  3  5  1  0
  3 10  1  0
  6  7  1  0
  6 11  1  0
  6 12  1  0
  7  8  1  0
  8  9  1  0
  8 13  1  0
  8 14  1  0
  9 15  1  0
  9 16  1  0
  9 17  1  0
M  RAD  1   6   2
M  END
>  <reaction>  (11) 
rmg_rxn_15395

>  <mol_properties>  (11) 
{"1": {"label": "*4", "atom_type": "N3d"}, "2": {"label": "*3", "atom_type": "Cd"}, "5": {"label": "*1", "atom_type": "Cs"}, "6": {"label": "*0", "atom_type": "S2s"}, "9": {"label": "*2", "atom_type": "H0"}}

>  <type>  (11) 
unop_7

>  <geom_source>  (11) 
Heuristics

$$$$

     RDKit          3D

 17 15  0  0  0  0  0  0  0  0999 V2000
    1.8150    1.3487   -2.9602 O   0  0  0  0  0  0  0  0  0  0  0  0
    1.8000    1.1964   -1.5877 N   0  0  0  0  0  0  0  0  0  0  0  0
    0.6800    0.7905   -1.1702 C   0  0  0  0  0  0  0  0  0  0  0  0
    2.7060    1.6552   -3.1398 H   0  0  0  0  0  0  0  0  0  0  0  0
   -0.1574    0.5921   -1.8357 H   0  0  0  0  0  0  0  0  0  0  0  0
    0.4511    0.4404    1.4016 C   0  0  0  0  0  3  0  0  0  0  0  0
   -1.1920   -0.1384    1.8594 S   0  0  0  0  0  0  0  0  0  0  0  0
   -1.1920   -1.7786    1.0958 C   0  0  0  0  0  0  0  0  0  0  0  0
   -1.1920   -1.7786   -0.4246 C   0  0  0  0  0  0  0  0  0  0  0  0
    0.5659    0.6161    0.1112 H   0  0  0  0  0  0  0  0  0  0  0  0
    1.2181   -0.2526    1.7497 H   0  0  0  0  0  0  0  0  0  0  0  0
    0.5976    1.3998    1.8960 H   0  0  0  0  0  0  0  0  0  0  0  0
   -2.0961   -2.2565    1.4767 H   0  0  0  0  0  0  0  0  0  0  0  0
   -0.3428   -2.3434    1.4870 H   0  0  0  0  0  0  0  0  0  0  0  0
   -0.2850   -1.3224   -0.8239 H   0  0  0  0  0  0  0  0  0  0  0  0
   -2.0480   -1.2253   -0.8123 H   0  0  0  0  0  0  0  0  0  0  0  0
   -1.2404   -2.8018   -0.8041 H   0  0  0  0  0  0  0  0  0  0  0  0
  1  2  1  0
  1  4  1  0
  2  3  2  3
  3  5  1  0
  3 10  1  0
  6  7  1  0
  6 11  1  0
  6 12  1  0
  7  8  1  0
  8  9  1  0
  8 13  1  0
  8 14  1  0
  9 15  1  0
  9 16  1  0
  9 17  1  0
M  RAD  1   6   2
M  END
>  <reaction>  (12) 
rmg_rxn_15395

>  <mol_properties>  (12) 
{"1": {"label": "*4", "atom_type": "N3d"}, "2": {"label": "*3", "atom_type": "Cd"}, "5": {"label": "*1", "atom_type": "Cs"}, "6": {"label": "*0", "atom_type": "S2s"}, "9": {"label": "*2", "atom_type": "H0"}}

>  <type>  (12) 
unop_8

>  <geom_source>  (12) 
Heuristics

$$$$

     RDKit          3D

 17 15  0  0  0  0  0  0  0  0999 V2000
   -3.5010   -0.3271    0.1218 O   0  0  0  0  0  0  0  0  0  0  0  0
   -2.1401   -0.0627   -0.1445 N   0  0  0  0  0  0  0  0  0  0  0  0
   -1.6700    1.0518    0.1313 C   0  0  0  0  0  0  0  0  0  0  0  0
   -3.6305   -1.2413   -0.1651 H   0  0  0  0  0  0  0  0  0  0  0  0
   -2.1753    1.9052    0.5678 H   0  0  0  0  0  0  0  0  0  0  0  0
    0.8410    1.4194   -0.5694 C   0  0  0  0  0  3  0  0  0  0  0  0
    2.0086    0.5125    0.3710 S   0  0  0  0  0  0  0  0  0  0  0  0
    1.8725   -1.1428   -0.3905 C   0  0  0  0  0  0  0  0  0  0  0  0
    0.6446   -1.8993    0.0775 C   0  0  0  0  0  0  0  0  0  0  0  0
   -0.4238    1.1977   -0.1762 H   0  0  0  0  0  0  0  0  0  0  0  0
    0.8643    1.1593   -1.6210 H   0  0  0  0  0  0  0  0  0  0  0  0
    0.9859    2.4786   -0.3959 H   0  0  0  0  0  0  0  0  0  0  0  0
    2.7869   -1.6583   -0.0977 H   0  0  0  0  0  0  0  0  0  0  0  0
    1.8710   -1.0028   -1.4712 H   0  0  0  0  0  0  0  0  0  0  0  0
    0.6333   -2.8888   -0.3756 H   0  0  0  0  0  0  0  0  0  0  0  0
   -0.2659   -1.3727   -0.2007 H   0  0  0  0  0  0  0  0  0  0  0  0
    0.6625   -2.0133    1.1589 H   0  0  0  0  0  0  0  0  0  0  0  0
  1  2  1  0
  1  4  1  0
  2  3  2  3
  3  5  1  0
  3 10  1  0
  6  7  1  0
  6 11  1  0
  6 12  1  0
  7  8  1  0
  8  9  1  0
  8 13  1  0
  8 14  1  0
  9 15  1  0
  9 16  1  0
  9 17  1  0
M  RAD  1   6   2
M  END
>  <reaction>  (13) 
rmg_rxn_15395

>  <mol_properties>  (13) 
{"1": {"label": "*4", "atom_type": "N3d"}, "2": {"label": "*3", "atom_type": "Cd"}, "5": {"label": "*1", "atom_type": "Cs"}, "6": {"label": "*0", "atom_type": "S2s"}, "9": {"label": "*2", "atom_type": "H0"}}

>  <type>  (13) 
unop_9

>  <geom_source>  (13) 
Heuristics

$$$$

     RDKit          3D

 17 15  0  0  0  0  0  0  0  0999 V2000
    2.0299    0.4941   -2.8174 O   0  0  0  0  0  0  0  0  0  0  0  0
    1.1324    0.1280   -1.8338 N   0  0  0  0  0  0  0  0  0  0  0  0
    0.7382    1.1209   -1.1612 C   0  0  0  0  0  0  0  0  0  0  0  0
    2.2438   -0.3381   -3.2437 H   0  0  0  0  0  0  0  0  0  0  0  0
    1.0818    2.1347   -1.3555 H   0  0  0  0  0  0  0  0  0  0  0  0
    0.5094    0.7708    1.4105 C   0  0  0  0  0  3  0  0  0  0  0  0
   -1.1338    0.1919    1.8683 S   0  0  0  0  0  0  0  0  0  0  0  0
   -1.1338   -1.4482    1.1047 C   0  0  0  0  0  0  0  0  0  0  0  0
   -1.1338   -1.4482   -0.4157 C   0  0  0  0  0  0  0  0  0  0  0  0
    0.6242    0.9464    0.1201 H   0  0  0  0  0  0  0  0  0  0  0  0
    1.2764    0.0777    1.7586 H   0  0  0  0  0  0  0  0  0  0  0  0
    0.6558    1.7302    1.9049 H   0  0  0  0  0  0  0  0  0  0  0  0
   -2.0378   -1.9262    1.4856 H   0  0  0  0  0  0  0  0  0  0  0  0
   -0.2845   -2.0131    1.4959 H   0  0  0  0  0  0  0  0  0  0  0  0
   -0.2268   -0.9920   -0.8150 H   0  0  0  0  0  0  0  0  0  0  0  0
   -1.9897   -0.8950   -0.8034 H   0  0  0  0  0  0  0  0  0  0  0  0
   -1.1822   -2.4714   -0.7952 H   0  0  0  0  0  0  0  0  0  0  0  0
  1  2  1  0
  1  4  1  0
  2  3  2  3
  3  5  1  0
  3 10  1  0
  6  7  1  0
  6 11  1  0
  6 12  1  0
  7  8  1  0
  8  9  1  0
  8 13  1  0
  8 14  1  0
  9 15  1  0
  9 16  1  0
  9 17  1  0
M  RAD  1   6   2
M  END
>  <reaction>  (14) 
rmg_rxn_15395

>  <mol_properties>  (14) 
{"1": {"label": "*4", "atom_type": "N3d"}, "2": {"label": "*3", "atom_type": "Cd"}, "5": {"label": "*1", "atom_type": "Cs"}, "6": {"label": "*0", "atom_type": "S2s"}, "9": {"label": "*2", "atom_type": "H0"}}

>  <type>  (14) 
unop_10

>  <geom_source>  (14) 
Heuristics

$$$$

     RDKit          3D

 17 15  0  0  0  0  0  0  0  0999 V2000
   -3.5005   -0.3272    0.1217 O   0  0  0  0  0  0  0  0  0  0  0  0
   -2.1399   -0.0620   -0.1453 N   0  0  0  0  0  0  0  0  0  0  0  0
   -1.6697    1.0519    0.1323 C   0  0  0  0  0  0  0  0  0  0  0  0
   -3.6297   -1.2413   -0.1655 H   0  0  0  0  0  0  0  0  0  0  0  0
   -2.1745    1.9046    0.5710 H   0  0  0  0  0  0  0  0  0  0  0  0
    0.8411    1.4193   -0.5698 C   0  0  0  0  0  3  0  0  0  0  0  0
    2.0085    0.5124    0.3708 S   0  0  0  0  0  0  0  0  0  0  0  0
    1.8721   -1.1431   -0.3901 C   0  0  0  0  0  0  0  0  0  0  0  0
    0.6438   -1.8991    0.0776 C   0  0  0  0  0  0  0  0  0  0  0  0
   -0.4236    1.1981   -0.1761 H   0  0  0  0  0  0  0  0  0  0  0  0
    0.8642    1.1589   -1.6214 H   0  0  0  0  0  0  0  0  0  0  0  0
    0.9864    2.4785   -0.3965 H   0  0  0  0  0  0  0  0  0  0  0  0
    2.7863   -1.6588   -0.0966 H   0  0  0  0  0  0  0  0  0  0  0  0
    1.8714   -1.0037   -1.4709 H   0  0  0  0  0  0  0  0  0  0  0  0
   -0.2665   -1.3723   -0.2011 H   0  0  0  0  0  0  0  0  0  0  0  0
    0.6612   -2.0128    1.1591 H   0  0  0  0  0  0  0  0  0  0  0  0
    0.6323   -2.8888   -0.3752 H   0  0  0  0  0  0  0  0  0  0  0  0
  1  2  1  0
  1  4  1  0
  2  3  2  3
  3  5  1  0
  3 10  1  0
  6  7  1  0
  6 11  1  0
  6 12  1  0
  7  8  1  0
  8  9  1  0
  8 13  1  0
  8 14  1  0
  9 15  1  0
  9 16  1  0
  9 17  1  0
M  RAD  1   6   2
M  END
>  <reaction>  (15) 
rmg_rxn_15395

>  <mol_properties>  (15) 
{"1": {"label": "*4", "atom_type": "N3d"}, "2": {"label": "*3", "atom_type": "Cd"}, "5": {"label": "*1", "atom_type": "Cs"}, "6": {"label": "*0", "atom_type": "S2s"}, "9": {"label": "*2", "atom_type": "H0"}}

>  <type>  (15) 
unop_11

>  <geom_source>  (15) 
Heuristics

$$$$

     RDKit          3D

 17 15  0  0  0  0  0  0  0  0999 V2000
    2.2285    1.0487   -2.7012 O   0  0  0  0  0  0  0  0  0  0  0  0
    1.5231    0.3004   -1.7795 N   0  0  0  0  0  0  0  0  0  0  0  0
    0.6399    0.9851   -1.1924 C   0  0  0  0  0  0  0  0  0  0  0  0
    2.8537    0.4194   -3.0663 H   0  0  0  0  0  0  0  0  0  0  0  0
    0.4757    2.0389   -1.4071 H   0  0  0  0  0  0  0  0  0  0  0  0
    0.4111    0.6350    1.3793 C   0  0  0  0  0  3  0  0  0  0  0  0
   -1.2320    0.0562    1.8371 S   0  0  0  0  0  0  0  0  0  0  0  0
   -1.2320   -1.5839    1.0735 C   0  0  0  0  0  0  0  0  0  0  0  0
   -1.2320   -1.5839   -0.4469 C   0  0  0  0  0  0  0  0  0  0  0  0
    0.5259    0.8107    0.0889 H   0  0  0  0  0  0  0  0  0  0  0  0
    1.1781   -0.0580    1.7274 H   0  0  0  0  0  0  0  0  0  0  0  0
    0.5575    1.5944    1.8737 H   0  0  0  0  0  0  0  0  0  0  0  0
   -2.1361   -2.0619    1.4544 H   0  0  0  0  0  0  0  0  0  0  0  0
   -0.3828   -2.1488    1.4647 H   0  0  0  0  0  0  0  0  0  0  0  0
   -0.3250   -1.1278   -0.8462 H   0  0  0  0  0  0  0  0  0  0  0  0
   -2.0880   -1.0307   -0.8346 H   0  0  0  0  0  0  0  0  0  0  0  0
   -1.2805   -2.6072   -0.8264 H   0  0  0  0  0  0  0  0  0  0  0  0
  1  2  1  0
  1  4  1  0
  2  3  2  3
  3  5  1  0
  3 10  1  0
  6  7  1  0
  6 11  1  0
  6 12  1  0
  7  8  1  0
  8  9  1  0
  8 13  1  0
  8 14  1  0
  9 15  1  0
  9 16  1  0
  9 17  1  0
M  RAD  1   6   2
M  END
>  <reaction>  (16) 
rmg_rxn_15395

>  <mol_properties>  (16) 
{"1": {"label": "*4", "atom_type": "N3d"}, "2": {"label": "*3", "atom_type": "Cd"}, "5": {"label": "*1", "atom_type": "Cs"}, "6": {"label": "*0", "atom_type": "S2s"}, "9": {"label": "*2", "atom_type": "H0"}}

>  <type>  (16) 
unop_12

>  <geom_source>  (16) 
Heuristics

$$$$

     RDKit          3D

 17 15  0  0  0  0  0  0  0  0999 V2000
    1.5048    2.1231   -2.6424 O   0  0  0  0  0  0  0  0  0  0  0  0
    0.6240    1.7052   -1.6644 N   0  0  0  0  0  0  0  0  0  0  0  0
    0.9189    0.5605   -1.2215 C   0  0  0  0  0  0  0  0  0  0  0  0
    1.1714    2.9888   -2.8862 H   0  0  0  0  0  0  0  0  0  0  0  0
    1.7723   -0.0075   -1.5857 H   0  0  0  0  0  0  0  0  0  0  0  0
    0.6900    0.2104    1.3503 C   0  0  0  0  0  3  0  0  0  0  0  0
   -0.9531   -0.3685    1.8081 S   0  0  0  0  0  0  0  0  0  0  0  0
   -0.9531   -2.0086    1.0445 C   0  0  0  0  0  0  0  0  0  0  0  0
   -0.9531   -2.0086   -0.4759 C   0  0  0  0  0  0  0  0  0  0  0  0
    0.8048    0.3860    0.0599 H   0  0  0  0  0  0  0  0  0  0  0  0
    1.4570   -0.4827    1.6984 H   0  0  0  0  0  0  0  0  0  0  0  0
    0.8365    1.1698    1.8447 H   0  0  0  0  0  0  0  0  0  0  0  0
   -1.8572   -2.4866    1.4254 H   0  0  0  0  0  0  0  0  0  0  0  0
   -0.1039   -2.5735    1.4357 H   0  0  0  0  0  0  0  0  0  0  0  0
   -0.0461   -1.5524   -0.8752 H   0  0  0  0  0  0  0  0  0  0  0  0
   -1.8091   -1.4554   -0.8636 H   0  0  0  0  0  0  0  0  0  0  0  0
   -1.0015   -3.0318   -0.8554 H   0  0  0  0  0  0  0  0  0  0  0  0
  1  2  1  0
  1  4  1  0
  2  3  2  3
  3  5  1  0
  3 10  1  0
  6  7  1  0
  6 11  1  0
  6 12  1  0
  7  8  1  0
  8  9  1  0
  8 13  1  0
  8 14  1  0
  9 15  1  0
  9 16  1  0
  9 17  1  0
M  RAD  1   6   2
M  END
>  <reaction>  (17) 
rmg_rxn_15395

>  <mol_properties>  (17) 
{"1": {"label": "*4", "atom_type": "N3d"}, "2": {"label": "*3", "atom_type": "Cd"}, "5": {"label": "*1", "atom_type": "Cs"}, "6": {"label": "*0", "atom_type": "S2s"}, "9": {"label": "*2", "atom_type": "H0"}}

>  <type>  (17) 
unop_13

>  <geom_source>  (17) 
Heuristics

$$$$

     RDKit          3D

 17 15  0  0  0  0  0  0  0  0999 V2000
   -3.5010   -0.3274   -0.1208 O   0  0  0  0  0  0  0  0  0  0  0  0
   -2.1400   -0.0622    0.1449 N   0  0  0  0  0  0  0  0  0  0  0  0
   -1.6700    1.0517   -0.1332 C   0  0  0  0  0  0  0  0  0  0  0  0
   -3.6301   -1.2412    0.1673 H   0  0  0  0  0  0  0  0  0  0  0  0
   -2.1752    1.9041   -0.5716 H   0  0  0  0  0  0  0  0  0  0  0  0
    0.8405    1.4195    0.5692 C   0  0  0  0  0  3  0  0  0  0  0  0
    2.0088    0.5126   -0.3704 S   0  0  0  0  0  0  0  0  0  0  0  0
    1.8720   -1.1427    0.3909 C   0  0  0  0  0  0  0  0  0  0  0  0
    0.6450   -1.8996   -0.0788 C   0  0  0  0  0  0  0  0  0  0  0  0
   -0.4239    1.1980    0.1749 H   0  0  0  0  0  0  0  0  0  0  0  0
    0.9858    2.4787    0.3960 H   0  0  0  0  0  0  0  0  0  0  0  0
    0.8628    1.1592    1.6209 H   0  0  0  0  0  0  0  0  0  0  0  0
    1.8690   -1.0029    1.4717 H   0  0  0  0  0  0  0  0  0  0  0  0
    2.7870   -1.6579    0.0994 H   0  0  0  0  0  0  0  0  0  0  0  0
    0.6646   -2.0138   -1.1602 H   0  0  0  0  0  0  0  0  0  0  0  0
   -0.2661   -1.3732    0.1979 H   0  0  0  0  0  0  0  0  0  0  0  0
    0.6333   -2.8891    0.3744 H   0  0  0  0  0  0  0  0  0  0  0  0
  1  2  1  0
  1  4  1  0
  2  3  2  3
  3  5  1  0
  3 10  1  0
  6  7  1  0
  6 11  1  0
  6 12  1  0
  7  8  1  0
  8  9  1  0
  8 13  1  0
  8 14  1  0
  9 15  1  0
  9 16  1  0
  9 17  1  0
M  RAD  1   6   2
M  END
>  <reaction>  (18) 
rmg_rxn_15395

>  <mol_properties>  (18) 
{"1": {"label": "*4", "atom_type": "N3d"}, "2": {"label": "*3", "atom_type": "Cd"}, "5": {"label": "*1", "atom_type": "Cs"}, "6": {"label": "*0", "atom_type": "S2s"}, "9": {"label": "*2", "atom_type": "H0"}}

>  <type>  (18) 
unop_14

>  <geom_source>  (18) 
Heuristics

$$$$

     RDKit          3D

 17 15  0  0  0  0  0  0  0  0999 V2000
    0.8440    0.3432   -3.1356 O   0  0  0  0  0  0  0  0  0  0  0  0
    0.3812    0.3700   -1.8347 N   0  0  0  0  0  0  0  0  0  0  0  0
    1.0863    1.1142   -1.0982 C   0  0  0  0  0  0  0  0  0  0  0  0
    0.2303   -0.2469   -3.5774 H   0  0  0  0  0  0  0  0  0  0  0  0
    1.9513    1.6587   -1.4709 H   0  0  0  0  0  0  0  0  0  0  0  0
    0.8574    0.7641    1.4736 C   0  0  0  0  0  3  0  0  0  0  0  0
   -0.7857    0.1853    1.9314 S   0  0  0  0  0  0  0  0  0  0  0  0
   -0.7857   -1.4549    1.1678 C   0  0  0  0  0  0  0  0  0  0  0  0
   -0.7857   -1.4549   -0.3526 C   0  0  0  0  0  0  0  0  0  0  0  0
    0.9723    0.9398    0.1832 H   0  0  0  0  0  0  0  0  0  0  0  0
    1.6244    0.0711    1.8217 H   0  0  0  0  0  0  0  0  0  0  0  0
    1.0039    1.7235    1.9680 H   0  0  0  0  0  0  0  0  0  0  0  0
   -1.6897   -1.9328    1.5487 H   0  0  0  0  0  0  0  0  0  0  0  0
    0.0635   -2.0197    1.5590 H   0  0  0  0  0  0  0  0  0  0  0  0
    0.1213   -0.9987   -0.7519 H   0  0  0  0  0  0  0  0  0  0  0  0
   -1.6417   -0.9016   -0.7403 H   0  0  0  0  0  0  0  0  0  0  0  0
   -0.8341   -2.4781   -0.7321 H   0  0  0  0  0  0  0  0  0  0  0  0
  1  2  1  0
  1  4  1  0
  2  3  2  3
  3  5  1  0
  3 10  1  0
  6  7  1  0
  6 11  1  0
  6 12  1  0
  7  8  1  0
  8  9  1  0
  8 13  1  0
  8 14  1  0
  9 15  1  0
  9 16  1  0
  9 17  1  0
M  RAD  1   6   2
M  END
>  <reaction>  (19) 
rmg_rxn_15395

>  <mol_properties>  (19) 
{"1": {"label": "*4", "atom_type": "N3d"}, "2": {"label": "*3", "atom_type": "Cd"}, "5": {"label": "*1", "atom_type": "Cs"}, "6": {"label": "*0", "atom_type": "S2s"}, "9": {"label": "*2", "atom_type": "H0"}}

>  <type>  (19) 
unop_15

>  <geom_source>  (19) 
Heuristics

$$$$

     RDKit          3D

 17 15  0  0  0  0  0  0  0  0999 V2000
    0.8836    2.0829   -2.7925 O   0  0  0  0  0  0  0  0  0  0  0  0
    0.3059    1.4443   -1.7128 N   0  0  0  0  0  0  0  0  0  0  0  0
    1.0898    0.6078   -1.1845 C   0  0  0  0  0  0  0  0  0  0  0  0
    0.1943    2.6784   -3.0931 H   0  0  0  0  0  0  0  0  0  0  0  0
    2.0967    0.4311   -1.5566 H   0  0  0  0  0  0  0  0  0  0  0  0
    0.8609    0.2577    1.3873 C   0  0  0  0  0  3  0  0  0  0  0  0
   -0.7822   -0.3211    1.8451 S   0  0  0  0  0  0  0  0  0  0  0  0
   -0.7822   -1.9613    1.0815 C   0  0  0  0  0  0  0  0  0  0  0  0
   -0.7822   -1.9613   -0.4389 C   0  0  0  0  0  0  0  0  0  0  0  0
    0.9758    0.4334    0.0969 H   0  0  0  0  0  0  0  0  0  0  0  0
    1.6279   -0.4353    1.7354 H   0  0  0  0  0  0  0  0  0  0  0  0
    1.0074    1.2171    1.8817 H   0  0  0  0  0  0  0  0  0  0  0  0
   -1.6862   -2.4392    1.4624 H   0  0  0  0  0  0  0  0  0  0  0  0
    0.0671   -2.5261    1.4727 H   0  0  0  0  0  0  0  0  0  0  0  0
    0.1248   -1.5051   -0.8382 H   0  0  0  0  0  0  0  0  0  0  0  0
   -1.6381   -1.4080   -0.8266 H   0  0  0  0  0  0  0  0  0  0  0  0
   -0.8306   -2.9845   -0.8184 H   0  0  0  0  0  0  0  0  0  0  0  0
  1  2  1  0
  1  4  1  0
  2  3  2  3
  3  5  1  0
  3 10  1  0
  6  7  1  0
  6 11  1  0
  6 12  1  0
  7  8  1  0
  8  9  1  0
  8 13  1  0
  8 14  1  0
  9 15  1  0
  9 16  1  0
  9 17  1  0
M  RAD  1   6   2
M  END
>  <reaction>  (20) 
rmg_rxn_15395

>  <mol_properties>  (20) 
{"1": {"label": "*4", "atom_type": "N3d"}, "2": {"label": "*3", "atom_type": "Cd"}, "5": {"label": "*1", "atom_type": "Cs"}, "6": {"label": "*0", "atom_type": "S2s"}, "9": {"label": "*2", "atom_type": "H0"}}

>  <type>  (20) 
unop_16

>  <geom_source>  (20) 
Heuristics

$$$$

     RDKit          3D

 17 15  0  0  0  0  0  0  0  0999 V2000
    2.0211    1.5036   -2.7620 O   0  0  0  0  0  0  0  0  0  0  0  0
    1.7896    0.6670   -1.6880 N   0  0  0  0  0  0  0  0  0  0  0  0
    0.6408    0.8398   -1.1942 C   0  0  0  0  0  0  0  0  0  0  0  0
    2.9109    1.2726   -3.0357 H   0  0  0  0  0  0  0  0  0  0  0  0
   -0.0637    1.5690   -1.5886 H   0  0  0  0  0  0  0  0  0  0  0  0
    0.4119    0.4897    1.3776 C   0  0  0  0  0  3  0  0  0  0  0  0
   -1.2312   -0.0892    1.8353 S   0  0  0  0  0  0  0  0  0  0  0  0
   -1.2312   -1.7293    1.0717 C   0  0  0  0  0  0  0  0  0  0  0  0
   -1.2312   -1.7293   -0.4487 C   0  0  0  0  0  0  0  0  0  0  0  0
    0.5267    0.6653    0.0871 H   0  0  0  0  0  0  0  0  0  0  0  0
    1.1789   -0.2034    1.7257 H   0  0  0  0  0  0  0  0  0  0  0  0
    0.5584    1.4490    1.8719 H   0  0  0  0  0  0  0  0  0  0  0  0
   -2.1353   -2.2073    1.4526 H   0  0  0  0  0  0  0  0  0  0  0  0
   -0.3820   -2.2942    1.4630 H   0  0  0  0  0  0  0  0  0  0  0  0
   -0.3242   -1.2731   -0.8480 H   0  0  0  0  0  0  0  0  0  0  0  0
   -2.0872   -1.1761   -0.8364 H   0  0  0  0  0  0  0  0  0  0  0  0
   -1.2797   -2.7525   -0.8282 H   0  0  0  0  0  0  0  0  0  0  0  0
  1  2  1  0
  1  4  1  0
  2  3  2  3
  3  5  1  0
  3 10  1  0
  6  7  1  0
  6 11  1  0
  6 12  1  0
  7  8  1  0
  8  9  1  0
  8 13  1  0
  8 14  1  0
  9 15  1  0
  9 16  1  0
  9 17  1  0
M  RAD  1   6   2
M  END
>  <reaction>  (21) 
rmg_rxn_15395

>  <mol_properties>  (21) 
{"1": {"label": "*4", "atom_type": "N3d"}, "2": {"label": "*3", "atom_type": "Cd"}, "5": {"label": "*1", "atom_type": "Cs"}, "6": {"label": "*0", "atom_type": "S2s"}, "9": {"label": "*2", "atom_type": "H0"}}

>  <type>  (21) 
unop_17

>  <geom_source>  (21) 
Heuristics

$$$$

     RDKit          3D

 17 15  0  0  0  0  0  0  0  0999 V2000
    0.4086    0.9151   -3.1444 O   0  0  0  0  0  0  0  0  0  0  0  0
    0.1818    0.6976   -1.7996 N   0  0  0  0  0  0  0  0  0  0  0  0
    1.2025    0.9516   -1.1017 C   0  0  0  0  0  0  0  0  0  0  0  0
   -0.4303    0.6884   -3.5505 H   0  0  0  0  0  0  0  0  0  0  0  0
    2.1378    1.2996   -1.5351 H   0  0  0  0  0  0  0  0  0  0  0  0
    0.9737    0.6015    1.4701 C   0  0  0  0  0  3  0  0  0  0  0  0
   -0.6694    0.0227    1.9278 S   0  0  0  0  0  0  0  0  0  0  0  0
   -0.6694   -1.6175    1.1642 C   0  0  0  0  0  0  0  0  0  0  0  0
   -0.6694   -1.6175   -0.3562 C   0  0  0  0  0  0  0  0  0  0  0  0
    1.0885    0.7772    0.1797 H   0  0  0  0  0  0  0  0  0  0  0  0
    1.7407   -0.0915    1.8182 H   0  0  0  0  0  0  0  0  0  0  0  0
    1.1201    1.5609    1.9644 H   0  0  0  0  0  0  0  0  0  0  0  0
   -1.5735   -2.0954    1.5451 H   0  0  0  0  0  0  0  0  0  0  0  0
    0.1798   -2.1823    1.5555 H   0  0  0  0  0  0  0  0  0  0  0  0
    0.2375   -1.1613   -0.7555 H   0  0  0  0  0  0  0  0  0  0  0  0
   -1.5254   -1.0642   -0.7439 H   0  0  0  0  0  0  0  0  0  0  0  0
   -0.7179   -2.6407   -0.7357 H   0  0  0  0  0  0  0  0  0  0  0  0
  1  2  1  0
  1  4  1  0
  2  3  2  3
  3  5  1  0
  3 10  1  0
  6  7  1  0
  6 11  1  0
  6 12  1  0
  7  8  1  0
  8  9  1  0
  8 13  1  0
  8 14  1  0
  9 15  1  0
  9 16  1  0
  9 17  1  0
M  RAD  1   6   2
M  END
>  <reaction>  (22) 
rmg_rxn_15395

>  <mol_properties>  (22) 
{"1": {"label": "*4", "atom_type": "N3d"}, "2": {"label": "*3", "atom_type": "Cd"}, "5": {"label": "*1", "atom_type": "Cs"}, "6": {"label": "*0", "atom_type": "S2s"}, "9": {"label": "*2", "atom_type": "H0"}}

>  <type>  (22) 
unop_18

>  <geom_source>  (22) 
Heuristics

$$$$

     RDKit          3D

 17 15  0  0  0  0  0  0  0  0999 V2000
   -1.3254   -1.5136   -0.3241 S   0  0  0  0  0  0  0  0  0  0  0  0
    4.4827    0.4046    0.8552 O   0  0  0  0  0  0  0  0  0  0  0  0
    3.1268    0.1784    0.7477 N   0  0  0  0  0  0  0  0  0  0  0  0
   -2.2814   -0.0292   -0.7907 C   0  0  0  0  0  0  0  0  0  0  0  0
   -2.9959    0.5599    0.4189 C   0  0  0  0  0  0  0  0  0  0  0  0
    0.1324   -0.5883    0.2488 C   0  0  0  0  0  3  0  0  0  0  0  0
    2.5678   -0.0842   -0.3897 C   0  0  0  0  0  0  0  0  0  0  0  0
   -3.0406   -0.3288   -1.5435 H   0  0  0  0  0  0  0  0  0  0  0  0
   -1.6212    0.7346   -1.2551 H   0  0  0  0  0  0  0  0  0  0  0  0
   -2.2611    0.9160    1.1701 H   0  0  0  0  0  0  0  0  0  0  0  0
   -3.6190    1.4213    0.0988 H   0  0  0  0  0  0  0  0  0  0  0  0
   -3.6549   -0.2040    0.8834 H   0  0  0  0  0  0  0  0  0  0  0  0
    3.1542   -0.1343   -1.2985 H   0  0  0  0  0  0  0  0  0  0  0  0
    1.3203   -0.2855   -0.4445 H   0  0  0  0  0  0  0  0  0  0  0  0
    0.9946   -1.2806    0.3360 H   0  0  0  0  0  0  0  0  0  0  0  0
   -0.0713   -0.1394    1.2424 H   0  0  0  0  0  0  0  0  0  0  0  0
    5.0919    0.3733    0.0451 H   0  0  0  0  0  0  0  0  0  0  0  0
  1  6  1  0
  1  4  1  0
  2  3  1  0
  2 17  1  0
  3  7  2  3
  4  5  1  0
  4  8  1  0
  4  9  1  0
  5 10  1  0
  5 11  1  0
  5 12  1  0
  6 15  1  0
  6 16  1  0
  7 13  1  0
  7 14  1  0
M  RAD  1   6   2
M  END
>  <reaction>  (23) 
rmg_rxn_15395

>  <mol_properties>  (23) 
{"1": {"label": "*4", "atom_type": "N3d"}, "2": {"label": "*3", "atom_type": "Cd"}, "5": {"label": "*1", "atom_type": "Cs"}, "6": {"label": "*0", "atom_type": "S2s"}, "9": {"label": "*2", "atom_type": "H0"}}

>  <type>  (23) 
unop_19

>  <geom_source>  (23) 
AutoTST

$$$$

     RDKit          3D

 17 15  0  0  0  0  0  0  0  0999 V2000
    0.4329    1.6186   -2.9985 O   0  0  0  0  0  0  0  0  0  0  0  0
    0.1526    1.0793   -1.7585 N   0  0  0  0  0  0  0  0  0  0  0  0
    1.2022    0.7548   -1.1368 C   0  0  0  0  0  0  0  0  0  0  0  0
   -0.4350    1.8171   -3.3556 H   0  0  0  0  0  0  0  0  0  0  0  0
    2.1975    0.8947   -1.5530 H   0  0  0  0  0  0  0  0  0  0  0  0
    0.9733    0.4047    1.4350 C   0  0  0  0  0  3  0  0  0  0  0  0
   -0.6698   -0.1742    1.8928 S   0  0  0  0  0  0  0  0  0  0  0  0
   -0.6698   -1.8143    1.1292 C   0  0  0  0  0  0  0  0  0  0  0  0
   -0.6698   -1.8143   -0.3912 C   0  0  0  0  0  0  0  0  0  0  0  0
    1.0881    0.5803    0.1446 H   0  0  0  0  0  0  0  0  0  0  0  0
    1.7403   -0.2884    1.7831 H   0  0  0  0  0  0  0  0  0  0  0  0
    1.1197    1.3641    1.9293 H   0  0  0  0  0  0  0  0  0  0  0  0
   -1.5739   -2.2923    1.5101 H   0  0  0  0  0  0  0  0  0  0  0  0
    0.1794   -2.3792    1.5204 H   0  0  0  0  0  0  0  0  0  0  0  0
    0.2371   -1.3581   -0.7905 H   0  0  0  0  0  0  0  0  0  0  0  0
   -1.5258   -1.2611   -0.7790 H   0  0  0  0  0  0  0  0  0  0  0  0
   -0.7183   -2.8375   -0.7708 H   0  0  0  0  0  0  0  0  0  0  0  0
  1  2  1  0
  1  4  1  0
  2  3  2  3
  3  5  1  0
  3 10  1  0
  6  7  1  0
  6 11  1  0
  6 12  1  0
  7  8  1  0
  8  9  1  0
  8 13  1  0
  8 14  1  0
  9 15  1  0
  9 16  1  0
  9 17  1  0
M  RAD  1   6   2
M  END
>  <reaction>  (24) 
rmg_rxn_15395

>  <mol_properties>  (24) 
{"1": {"label": "*4", "atom_type": "N3d"}, "2": {"label": "*3", "atom_type": "Cd"}, "5": {"label": "*1", "atom_type": "Cs"}, "6": {"label": "*0", "atom_type": "S2s"}, "9": {"label": "*2", "atom_type": "H0"}}

>  <type>  (24) 
unop_20

>  <geom_source>  (24) 
gaussian_log

$$$$
