
     RDKit          3D

  6  5  0  0  0  0  0  0  0  0999 V2000
   -0.4547   -0.0097   -0.0070 C   0  0  0  0  0  0  0  0  0  0  0  0
    0.8695   -0.1987   -0.6218 N   0  0  0  0  0  0  0  0  0  0  0  0
    1.0322   -1.2809   -1.0969 O   0  0  0  0  0  0  0  0  0  0  0  0
   -0.2820    0.2687    1.0347 H   0  0  0  0  0  0  0  0  0  0  0  0
   -1.0716   -0.9051   -0.0916 H   0  0  0  0  0  0  0  0  0  0  0  0
   -0.9130    0.8487   -0.5026 H   0  0  0  0  0  0  0  0  0  0  0  0
  1  2  1  0
  1  4  1  0
  1  5  1  0
  1  6  1  0
  2  3  2  0
M  END
>  <reaction>  (1) 
rmg_rxn_600

>  <mol_properties>  (1) 
{"0": {"label": "donator", "atom_type": "Cs"}, "3": {"label": "d_hydrogen", "atom_type": "H0"}}

>  <type>  (1) 
r1h

$$$$

     RDKit          3D

  8  7  0  0  0  0  0  0  0  0999 V2000
   -1.0336    0.3440   -0.0356 C   0  0  0  0  0  3  0  0  0  0  0  0
    0.1991   -0.4326   -0.0698 C   0  0  0  0  0  0  0  0  0  0  0  0
    0.9631   -0.0368    1.2269 N   0  0  0  0  0  0  0  0  0  0  0  0
    0.8138   -0.8074    2.1160 O   0  0  0  0  0  0  0  0  0  0  0  0
   -1.0668    1.3490   -0.4321 H   0  0  0  0  0  0  0  0  0  0  0  0
   -1.8598    0.0102    0.5774 H   0  0  0  0  0  0  0  0  0  0  0  0
    0.0447   -1.5108   -0.0264 H   0  0  0  0  0  0  0  0  0  0  0  0
    0.8639   -0.1518   -0.8851 H   0  0  0  0  0  0  0  0  0  0  0  0
  1  2  1  0
  1  5  1  0
  1  6  1  0
  2  3  1  0
  2  7  1  0
  2  8  1  0
  3  4  2  0
M  RAD  1   1   2
M  END
>  <reaction>  (2) 
rmg_rxn_600

>  <mol_properties>  (2) 
{"0": {"label": "acceptor", "atom_type": "Cs"}}

>  <type>  (2) 
r2

$$$$

     RDKit          3D

  9  8  0  0  0  0  0  0  0  0999 V2000
   -1.0314    0.2323   -0.1227 C   0  0  0  0  0  0  0  0  0  0  0  0
    0.3094   -0.4511    0.0063 C   0  0  0  0  0  0  0  0  0  0  0  0
    0.3197   -1.7698    0.6841 N   0  0  0  0  0  0  0  0  0  0  0  0
   -0.7498   -2.1455    1.0557 O   0  0  0  0  0  0  0  0  0  0  0  0
   -1.4744    0.4198    0.8552 H   0  0  0  0  0  0  0  0  0  0  0  0
   -0.9073    1.1865   -0.6350 H   0  0  0  0  0  0  0  0  0  0  0  0
   -1.7319   -0.3778   -0.6927 H   0  0  0  0  0  0  0  0  0  0  0  0
    1.0375    0.1401    0.5713 H   0  0  0  0  0  0  0  0  0  0  0  0
    0.7826   -0.6494   -0.9609 H   0  0  0  0  0  0  0  0  0  0  0  0
  1  2  1  0
  1  5  1  0
  1  6  1  0
  1  7  1  0
  2  3  1  0
  2  8  1  0
  2  9  1  0
  3  4  2  0
M  END
>  <reaction>  (3) 
rmg_rxn_600

>  <mol_properties>  (3) 
{"0": {"label": "a_hydrogen", "atom_type": "H0"}, "1": {"label": "acceptor", "atom_type": "Cs"}}

>  <type>  (3) 
r2h

$$$$

     RDKit          3D

 14 12  0  0  0  0  0  0  0  0999 V2000
    1.1315    0.0705   -1.7187 C   0  0  0  0  0  0  0  0  0  0  0  0
    2.3183   -0.5124   -1.1912 N   0  0  0  0  0  0  0  0  0  0  0  0
    2.1483   -1.5128   -0.5360 O   0  0  0  0  0  0  0  0  0  0  0  0
    0.5376    0.5369   -0.7295 H   0  0  0  0  0  0  0  0  0  0  0  0
    0.4270   -0.6655   -2.1098 H   0  0  0  0  0  0  0  0  0  0  0  0
    1.3510    0.8921   -2.3940 H   0  0  0  0  0  0  0  0  0  0  0  0
   -0.2286    0.9448    0.4585 C   0  0  0  0  0  3  0  0  0  0  0  0
   -0.8388   -0.3101    0.9749 C   0  0  0  0  0  0  0  0  0  0  0  0
   -1.7332   -0.1685    2.1735 N   0  0  0  0  0  0  0  0  0  0  0  0
   -1.8472    0.9406    2.5877 O   0  0  0  0  0  0  0  0  0  0  0  0
   -0.9070    1.6808    0.0386 H   0  0  0  0  0  0  0  0  0  0  0  0
    0.5725    1.3782    1.0490 H   0  0  0  0  0  0  0  0  0  0  0  0
   -1.4762   -0.8109    0.2401 H   0  0  0  0  0  0  0  0  0  0  0  0
   -0.0954   -1.0500    1.2830 H   0  0  0  0  0  0  0  0  0  0  0  0
  1  2  1  0
  1  4  1  0
  1  5  1  0
  1  6  1  0
  2  3  2  0
  7  8  1  0
  7 11  1  0
  7 12  1  0
  8  9  1  0
  8 13  1  0
  8 14  1  0
  9 10  2  0
M  RAD  1   7   2
M  END
>  <reaction>  (4) 
rmg_rxn_600

>  <mol_properties>  (4) 
{"0": {"label": "*1", "atom_type": "Cs"}, "1": {"label": "*0", "atom_type": "N3d"}, "3": {"label": "*2", "atom_type": "H0"}, "6": {"label": "*3", "atom_type": "Cs"}, "7": {"label": "*4", "atom_type": "Cs"}}

>  <type>  (4) 
ts

$$$$

     RDKit          3D

 14 12  0  0  0  0  0  0  0  0999 V2000
    1.3975   -0.1551   -1.2594 C   0  0  0  0  0  0  0  0  0  0  0  0
    1.3975   -1.5009   -1.8562 N   0  0  0  0  0  0  0  0  0  0  0  0
    1.3975   -1.5009   -3.0493 O   0  0  0  0  0  1  0  0  0  0  0  0
    0.3414   -0.0837   -0.4868 H   0  0  0  0  0  0  0  0  0  0  0  0
    1.3974    0.6253   -2.0211 H   0  0  0  0  0  0  0  0  0  0  0  0
    2.2775   -0.0956   -0.6155 H   0  0  0  0  0  0  0  0  0  0  0  0
   -0.7128   -0.0124    0.2845 C   0  0  0  0  0  0  0  0  0  0  0  0
   -0.2823    0.2623    1.7060 C   0  0  0  0  0  0  0  0  0  0  0  0
   -1.1270    1.1985    2.4860 N   0  0  0  0  0  0  0  0  0  0  0  0
   -2.0649    1.6342    1.8914 O   0  0  0  0  0  0  0  0  0  0  0  0
   -1.7115   -0.4474    0.2519 H   0  0  0  0  0  0  0  0  0  0  0  0
   -0.7302    0.9031   -0.3064 H   0  0  0  0  0  0  0  0  0  0  0  0
   -0.2506   -0.6404    2.3248 H   0  0  0  0  0  0  0  0  0  0  0  0
    0.7207    0.6964    1.7722 H   0  0  0  0  0  0  0  0  0  0  0  0
  1  2  2  3
  1  5  1  0
  1  6  1  0
  2  3  1  0
  4  7  1  0
  7  8  1  0
  7 11  1  0
  7 12  1  0
  8  9  1  0
  8 13  1  0
  8 14  1  0
  9 10  2  0
M  RAD  1   3   2
M  END
>  <reaction>  (5) 
rmg_rxn_600

>  <mol_properties>  (5) 
{"0": {"label": "*1", "atom_type": "Cs"}, "1": {"label": "*0", "atom_type": "N3d"}, "3": {"label": "*2", "atom_type": "H0"}, "6": {"label": "*3", "atom_type": "Cs"}, "7": {"label": "*4", "atom_type": "Cs"}}

>  <type>  (5) 
unop_1

>  <geom_source>  (5) 
Heuristics

$$$$

     RDKit          3D

 14 12  0  0  0  0  0  0  0  0999 V2000
    1.6399    0.7384   -1.1582 C   0  0  0  0  0  0  0  0  0  0  0  0
    1.6399   -0.6073   -1.7550 N   0  0  0  0  0  0  0  0  0  0  0  0
    1.6399   -0.6073   -2.9481 O   0  0  0  0  0  1  0  0  0  0  0  0
    0.5839    0.8098   -0.3856 H   0  0  0  0  0  0  0  0  0  0  0  0
    1.6399    1.5189   -1.9200 H   0  0  0  0  0  0  0  0  0  0  0  0
    2.5199    0.7979   -0.5144 H   0  0  0  0  0  0  0  0  0  0  0  0
   -0.4704    0.8811    0.3857 C   0  0  0  0  0  0  0  0  0  0  0  0
   -0.7937   -0.4907    0.9289 C   0  0  0  0  0  0  0  0  0  0  0  0
   -1.6737   -0.5418    2.1212 N   0  0  0  0  0  0  0  0  0  0  0  0
   -2.0309    0.5239    2.5208 O   0  0  0  0  0  0  0  0  0  0  0  0
   -1.3748    1.4098    0.0855 H   0  0  0  0  0  0  0  0  0  0  0  0
    0.0383    1.4911    1.1319 H   0  0  0  0  0  0  0  0  0  0  0  0
   -1.3022   -1.1299    0.1998 H   0  0  0  0  0  0  0  0  0  0  0  0
    0.0966   -1.0494    1.2356 H   0  0  0  0  0  0  0  0  0  0  0  0
  1  2  2  3
  1  5  1  0
  1  6  1  0
  2  3  1  0
  4  7  1  0
  7  8  1  0
  7 11  1  0
  7 12  1  0
  8  9  1  0
  8 13  1  0
  8 14  1  0
  9 10  2  0
M  RAD  1   3   2
M  END
>  <reaction>  (6) 
rmg_rxn_600

>  <mol_properties>  (6) 
{"0": {"label": "*1", "atom_type": "Cs"}, "1": {"label": "*0", "atom_type": "N3d"}, "3": {"label": "*2", "atom_type": "H0"}, "6": {"label": "*3", "atom_type": "Cs"}, "7": {"label": "*4", "atom_type": "Cs"}}

>  <type>  (6) 
unop_2

>  <geom_source>  (6) 
Heuristics

$$$$

     RDKit          3D

 14 12  0  0  0  0  0  0  0  0999 V2000
    1.5750   -0.2613   -1.0979 C   0  0  0  0  0  0  0  0  0  0  0  0
    1.5750   -1.6071   -1.6947 N   0  0  0  0  0  0  0  0  0  0  0  0
    1.5750   -1.6071   -2.8878 O   0  0  0  0  0  1  0  0  0  0  0  0
    0.5190   -0.1899   -0.3253 H   0  0  0  0  0  0  0  0  0  0  0  0
    1.5750    0.5191   -1.8597 H   0  0  0  0  0  0  0  0  0  0  0  0
    2.4550   -0.2018   -0.4541 H   0  0  0  0  0  0  0  0  0  0  0  0
   -0.5352   -0.1187    0.4460 C   0  0  0  0  0  0  0  0  0  0  0  0
   -0.2593    0.8227    1.5946 C   0  0  0  0  0  0  0  0  0  0  0  0
   -1.4310    1.5196    2.1776 N   0  0  0  0  0  0  0  0  0  0  0  0
   -2.4740    1.2523    1.6639 O   0  0  0  0  0  0  0  0  0  0  0  0
   -1.2126   -0.9182    0.7452 H   0  0  0  0  0  0  0  0  0  0  0  0
   -0.9914    0.4061   -0.3932 H   0  0  0  0  0  0  0  0  0  0  0  0
    0.2040    0.3250    2.4528 H   0  0  0  0  0  0  0  0  0  0  0  0
    0.4229    1.6358    1.3260 H   0  0  0  0  0  0  0  0  0  0  0  0
  1  2  2  3
  1  5  1  0
  1  6  1  0
  2  3  1  0
  4  7  1  0
  7  8  1  0
  7 11  1  0
  7 12  1  0
  8  9  1  0
  8 13  1  0
  8 14  1  0
  9 10  2  0
M  RAD  1   3   2
M  END
>  <reaction>  (7) 
rmg_rxn_600

>  <mol_properties>  (7) 
{"0": {"label": "*1", "atom_type": "Cs"}, "1": {"label": "*0", "atom_type": "N3d"}, "3": {"label": "*2", "atom_type": "H0"}, "6": {"label": "*3", "atom_type": "Cs"}, "7": {"label": "*4", "atom_type": "Cs"}}

>  <type>  (7) 
unop_3

>  <geom_source>  (7) 
Heuristics

$$$$

     RDKit          3D

 14 12  0  0  0  0  0  0  0  0999 V2000
    2.0564    0.0839   -0.4439 C   0  0  0  0  0  0  0  0  0  0  0  0
    2.0564   -1.2619   -1.0407 N   0  0  0  0  0  0  0  0  0  0  0  0
    2.0564   -1.2619   -2.2338 O   0  0  0  0  0  1  0  0  0  0  0  0
    1.0004    0.1553    0.3287 H   0  0  0  0  0  0  0  0  0  0  0  0
    2.0564    0.8644   -1.2057 H   0  0  0  0  0  0  0  0  0  0  0  0
    2.9364    0.1434    0.1999 H   0  0  0  0  0  0  0  0  0  0  0  0
   -0.0538    0.2266    1.1000 C   0  0  0  0  0  0  0  0  0  0  0  0
   -1.3001    0.0070    0.2752 C   0  0  0  0  0  0  0  0  0  0  0  0
   -2.5226    0.7199    0.7175 N   0  0  0  0  0  0  0  0  0  0  0  0
   -2.3790    1.3960    1.6898 O   0  0  0  0  0  0  0  0  0  0  0  0
    0.2290    1.2789    1.1148 H   0  0  0  0  0  0  0  0  0  0  0  0
   -0.2023   -0.0917    2.1316 H   0  0  0  0  0  0  0  0  0  0  0  0
   -1.1807    0.3136   -0.7691 H   0  0  0  0  0  0  0  0  0  0  0  0
   -1.6077   -1.0431    0.2374 H   0  0  0  0  0  0  0  0  0  0  0  0
  1  2  2  3
  1  5  1  0
  1  6  1  0
  2  3  1  0
  4  7  1  0
  7  8  1  0
  7 11  1  0
  7 12  1  0
  8  9  1  0
  8 13  1  0
  8 14  1  0
  9 10  2  0
M  RAD  1   3   2
M  END
>  <reaction>  (8) 
rmg_rxn_600

>  <mol_properties>  (8) 
{"0": {"label": "*1", "atom_type": "Cs"}, "1": {"label": "*0", "atom_type": "N3d"}, "3": {"label": "*2", "atom_type": "H0"}, "6": {"label": "*3", "atom_type": "Cs"}, "7": {"label": "*4", "atom_type": "Cs"}}

>  <type>  (8) 
unop_4

>  <geom_source>  (8) 
Heuristics

$$$$

     RDKit          3D

 14 12  0  0  0  0  0  0  0  0999 V2000
    1.6655   -0.2104   -1.0779 C   0  0  0  0  0  0  0  0  0  0  0  0
    1.6655   -1.5561   -1.6747 N   0  0  0  0  0  0  0  0  0  0  0  0
    1.6655   -1.5561   -2.8678 O   0  0  0  0  0  1  0  0  0  0  0  0
    0.6094   -0.1389   -0.3053 H   0  0  0  0  0  0  0  0  0  0  0  0
    1.6655    0.5701   -1.8396 H   0  0  0  0  0  0  0  0  0  0  0  0
    2.5455   -0.1508   -0.4340 H   0  0  0  0  0  0  0  0  0  0  0  0
   -0.4448   -0.0677    0.4660 C   0  0  0  0  0  0  0  0  0  0  0  0
   -0.5067    1.2954    1.1139 C   0  0  0  0  0  0  0  0  0  0  0  0
   -1.6486    1.5454    2.0260 N   0  0  0  0  0  0  0  0  0  0  0  0
   -2.3995    0.6261    2.1452 O   0  0  0  0  0  0  0  0  0  0  0  0
   -0.3800   -0.8575    1.2141 H   0  0  0  0  0  0  0  0  0  0  0  0
   -1.3304   -0.2568   -0.1403 H   0  0  0  0  0  0  0  0  0  0  0  0
    0.3727    1.5171    1.7274 H   0  0  0  0  0  0  0  0  0  0  0  0
   -0.5680    2.1116    0.3867 H   0  0  0  0  0  0  0  0  0  0  0  0
  1  2  2  3
  1  5  1  0
  1  6  1  0
  2  3  1  0
  4  7  1  0
  7  8  1  0
  7 11  1  0
  7 12  1  0
  8  9  1  0
  8 13  1  0
  8 14  1  0
  9 10  2  0
M  RAD  1   3   2
M  END
>  <reaction>  (9) 
rmg_rxn_600

>  <mol_properties>  (9) 
{"0": {"label": "*1", "atom_type": "Cs"}, "1": {"label": "*0", "atom_type": "N3d"}, "3": {"label": "*2", "atom_type": "H0"}, "6": {"label": "*3", "atom_type": "Cs"}, "7": {"label": "*4", "atom_type": "Cs"}}

>  <type>  (9) 
unop_5

>  <geom_source>  (9) 
Heuristics

$$$$

     RDKit          3D

 14 12  0  0  0  0  0  0  0  0999 V2000
    1.9099   -0.2307   -0.5525 C   0  0  0  0  0  0  0  0  0  0  0  0
    1.9099   -1.5764   -1.1493 N   0  0  0  0  0  0  0  0  0  0  0  0
    1.9099   -1.5764   -2.3425 O   0  0  0  0  0  1  0  0  0  0  0  0
    0.8539   -0.1593    0.2201 H   0  0  0  0  0  0  0  0  0  0  0  0
    1.9099    0.5498   -1.3143 H   0  0  0  0  0  0  0  0  0  0  0  0
    2.7899   -0.1712    0.0913 H   0  0  0  0  0  0  0  0  0  0  0  0
   -0.2004   -0.0880    0.9913 C   0  0  0  0  0  0  0  0  0  0  0  0
   -1.3766    0.4252    0.1946 C   0  0  0  0  0  0  0  0  0  0  0  0
   -2.2858    1.3697    0.8873 N   0  0  0  0  0  0  0  0  0  0  0  0
   -1.9787    1.6198    2.0126 O   0  0  0  0  0  0  0  0  0  0  0  0
    0.4435    0.7294    1.3152 H   0  0  0  0  0  0  0  0  0  0  0  0
   -0.5302   -0.6232    1.8815 H   0  0  0  0  0  0  0  0  0  0  0  0
   -1.0771    0.9647   -0.7099 H   0  0  0  0  0  0  0  0  0  0  0  0
   -2.0410   -0.3742   -0.1493 H   0  0  0  0  0  0  0  0  0  0  0  0
  1  2  2  3
  1  5  1  0
  1  6  1  0
  2  3  1  0
  4  7  1  0
  7  8  1  0
  7 11  1  0
  7 12  1  0
  8  9  1  0
  8 13  1  0
  8 14  1  0
  9 10  2  0
M  RAD  1   3   2
M  END
>  <reaction>  (10) 
rmg_rxn_600

>  <mol_properties>  (10) 
{"0": {"label": "*1", "atom_type": "Cs"}, "1": {"label": "*0", "atom_type": "N3d"}, "3": {"label": "*2", "atom_type": "H0"}, "6": {"label": "*3", "atom_type": "Cs"}, "7": {"label": "*4", "atom_type": "Cs"}}

>  <type>  (10) 
unop_6

>  <geom_source>  (10) 
Heuristics

$$$$

     RDKit          3D

 14 12  0  0  0  0  0  0  0  0999 V2000
    1.7248   -0.3621   -0.7928 C   0  0  0  0  0  0  0  0  0  0  0  0
    1.7248   -1.7078   -1.3896 N   0  0  0  0  0  0  0  0  0  0  0  0
    1.7248   -1.7078   -2.5827 O   0  0  0  0  0  1  0  0  0  0  0  0
    0.6688   -0.2907   -0.0202 H   0  0  0  0  0  0  0  0  0  0  0  0
    1.7248    0.4184   -1.5545 H   0  0  0  0  0  0  0  0  0  0  0  0
    2.6048   -0.3026   -0.1489 H   0  0  0  0  0  0  0  0  0  0  0  0
   -0.3854   -0.2194    0.7511 C   0  0  0  0  0  0  0  0  0  0  0  0
   -1.2857    0.8965    0.2759 C   0  0  0  0  0  0  0  0  0  0  0  0
   -1.9411    1.7131    1.3257 N   0  0  0  0  0  0  0  0  0  0  0  0
   -1.6777    1.3895    2.4433 O   0  0  0  0  0  0  0  0  0  0  0  0
    0.4356    0.1663    1.3552 H   0  0  0  0  0  0  0  0  0  0  0  0
   -0.9351   -0.9382    1.3585 H   0  0  0  0  0  0  0  0  0  0  0  0
   -0.7624    1.6339   -0.3417 H   0  0  0  0  0  0  0  0  0  0  0  0
   -2.1192    0.5406   -0.3385 H   0  0  0  0  0  0  0  0  0  0  0  0
  1  2  2  3
  1  5  1  0
  1  6  1  0
  2  3  1  0
  4  7  1  0
  7  8  1  0
  7 11  1  0
  7 12  1  0
  8  9  1  0
  8 13  1  0
  8 14  1  0
  9 10  2  0
M  RAD  1   3   2
M  END
>  <reaction>  (11) 
rmg_rxn_600

>  <mol_properties>  (11) 
{"0": {"label": "*1", "atom_type": "Cs"}, "1": {"label": "*0", "atom_type": "N3d"}, "3": {"label": "*2", "atom_type": "H0"}, "6": {"label": "*3", "atom_type": "Cs"}, "7": {"label": "*4", "atom_type": "Cs"}}

>  <type>  (11) 
unop_7

>  <geom_source>  (11) 
Heuristics

$$$$

     RDKit          3D

 14 12  0  0  0  0  0  0  0  0999 V2000
    1.3234    0.1400   -1.3884 C   0  0  0  0  0  0  0  0  0  0  0  0
    1.3234   -1.2058   -1.9852 N   0  0  0  0  0  0  0  0  0  0  0  0
    1.3234   -1.2058   -3.1783 O   0  0  0  0  0  1  0  0  0  0  0  0
    0.2674    0.2114   -0.6158 H   0  0  0  0  0  0  0  0  0  0  0  0
    1.3234    0.9205   -2.1502 H   0  0  0  0  0  0  0  0  0  0  0  0
    2.2035    0.1995   -0.7446 H   0  0  0  0  0  0  0  0  0  0  0  0
   -0.7868    0.2827    0.1555 C   0  0  0  0  0  0  0  0  0  0  0  0
   -0.4263   -0.1754    1.5490 C   0  0  0  0  0  0  0  0  0  0  0  0
   -1.0330    0.5779    2.6728 N   0  0  0  0  0  0  0  0  0  0  0  0
   -1.7477    1.4738    2.3417 O   0  0  0  0  0  0  0  0  0  0  0  0
   -1.8612    0.2180   -0.0154 H   0  0  0  0  0  0  0  0  0  0  0  0
   -0.4862    1.3171   -0.0099 H   0  0  0  0  0  0  0  0  0  0  0  0
   -0.7122   -1.2141    1.7445 H   0  0  0  0  0  0  0  0  0  0  0  0
    0.6488   -0.1262    1.7500 H   0  0  0  0  0  0  0  0  0  0  0  0
  1  2  2  3
  1  5  1  0
  1  6  1  0
  2  3  1  0
  4  7  1  0
  7  8  1  0
  7 11  1  0
  7 12  1  0
  8  9  1  0
  8 13  1  0
  8 14  1  0
  9 10  2  0
M  RAD  1   3   2
M  END
>  <reaction>  (12) 
rmg_rxn_600

>  <mol_properties>  (12) 
{"0": {"label": "*1", "atom_type": "Cs"}, "1": {"label": "*0", "atom_type": "N3d"}, "3": {"label": "*2", "atom_type": "H0"}, "6": {"label": "*3", "atom_type": "Cs"}, "7": {"label": "*4", "atom_type": "Cs"}}

>  <type>  (12) 
unop_8

>  <geom_source>  (12) 
Heuristics

$$$$

     RDKit          3D

 14 12  0  0  0  0  0  0  0  0999 V2000
    2.0711    0.4658   -0.5435 C   0  0  0  0  0  0  0  0  0  0  0  0
    2.0711   -0.8799   -1.1404 N   0  0  0  0  0  0  0  0  0  0  0  0
    2.0711   -0.8799   -2.3335 O   0  0  0  0  0  1  0  0  0  0  0  0
    1.0151    0.5372    0.2290 H   0  0  0  0  0  0  0  0  0  0  0  0
    2.0711    1.2463   -1.3053 H   0  0  0  0  0  0  0  0  0  0  0  0
    2.9512    0.5254    0.1003 H   0  0  0  0  0  0  0  0  0  0  0  0
   -0.0391    0.6085    1.0003 C   0  0  0  0  0  0  0  0  0  0  0  0
   -1.1308   -0.2776    0.4485 C   0  0  0  0  0  0  0  0  0  0  0  0
   -2.5072   -0.0149    0.9332 N   0  0  0  0  0  0  0  0  0  0  0  0
   -2.5955    0.8808    1.7161 O   0  0  0  0  0  0  0  0  0  0  0  0
   -0.2222    1.6558    0.7606 H   0  0  0  0  0  0  0  0  0  0  0  0
    0.0279    0.5232    2.0847 H   0  0  0  0  0  0  0  0  0  0  0  0
   -1.2201   -0.2172   -0.6411 H   0  0  0  0  0  0  0  0  0  0  0  0
   -0.9726   -1.3383    0.6696 H   0  0  0  0  0  0  0  0  0  0  0  0
  1  2  2  3
  1  5  1  0
  1  6  1  0
  2  3  1  0
  4  7  1  0
  7  8  1  0
  7 11  1  0
  7 12  1  0
  8  9  1  0
  8 13  1  0
  8 14  1  0
  9 10  2  0
M  RAD  1   3   2
M  END
>  <reaction>  (13) 
rmg_rxn_600

>  <mol_properties>  (13) 
{"0": {"label": "*1", "atom_type": "Cs"}, "1": {"label": "*0", "atom_type": "N3d"}, "3": {"label": "*2", "atom_type": "H0"}, "6": {"label": "*3", "atom_type": "Cs"}, "7": {"label": "*4", "atom_type": "Cs"}}

>  <type>  (13) 
unop_9

>  <geom_source>  (13) 
Heuristics

$$$$

     RDKit          3D

 14 12  0  0  0  0  0  0  0  0999 V2000
    1.4102    0.4923   -1.3649 C   0  0  0  0  0  0  0  0  0  0  0  0
    1.4102   -0.8534   -1.9617 N   0  0  0  0  0  0  0  0  0  0  0  0
    1.4102   -0.8534   -3.1548 O   0  0  0  0  0  1  0  0  0  0  0  0
    0.3542    0.5637   -0.5923 H   0  0  0  0  0  0  0  0  0  0  0  0
    1.4102    1.2728   -2.1267 H   0  0  0  0  0  0  0  0  0  0  0  0
    2.2902    0.5519   -0.7211 H   0  0  0  0  0  0  0  0  0  0  0  0
   -0.7000    0.6350    0.1789 C   0  0  0  0  0  0  0  0  0  0  0  0
   -0.6155   -0.4257    1.2510 C   0  0  0  0  0  0  0  0  0  0  0  0
   -1.2301   -0.0971    2.5596 N   0  0  0  0  0  0  0  0  0  0  0  0
   -1.7289    0.9851    2.6163 O   0  0  0  0  0  0  0  0  0  0  0  0
   -1.7364    0.8780   -0.0548 H   0  0  0  0  0  0  0  0  0  0  0  0
   -0.2066    1.5543    0.4938 H   0  0  0  0  0  0  0  0  0  0  0  0
   -1.0993   -1.3645    0.9621 H   0  0  0  0  0  0  0  0  0  0  0  0
    0.4149   -0.6950    1.5051 H   0  0  0  0  0  0  0  0  0  0  0  0
  1  2  2  3
  1  5  1  0
  1  6  1  0
  2  3  1  0
  4  7  1  0
  7  8  1  0
  7 11  1  0
  7 12  1  0
  8  9  1  0
  8 13  1  0
  8 14  1  0
  9 10  2  0
M  RAD  1   3   2
M  END
>  <reaction>  (14) 
rmg_rxn_600

>  <mol_properties>  (14) 
{"0": {"label": "*1", "atom_type": "Cs"}, "1": {"label": "*0", "atom_type": "N3d"}, "3": {"label": "*2", "atom_type": "H0"}, "6": {"label": "*3", "atom_type": "Cs"}, "7": {"label": "*4", "atom_type": "Cs"}}

>  <type>  (14) 
unop_10

>  <geom_source>  (14) 
Heuristics

$$$$

     RDKit          3D

 14 12  0  0  0  0  0  0  0  0999 V2000
    1.6256   -0.2933   -1.0258 C   0  0  0  0  0  0  0  0  0  0  0  0
    1.6256   -1.6391   -1.6226 N   0  0  0  0  0  0  0  0  0  0  0  0
    1.6256   -1.6391   -2.8157 O   0  0  0  0  0  1  0  0  0  0  0  0
    0.5696   -0.2219   -0.2532 H   0  0  0  0  0  0  0  0  0  0  0  0
    1.6256    0.4872   -1.7876 H   0  0  0  0  0  0  0  0  0  0  0  0
    2.5056   -0.2338   -0.3820 H   0  0  0  0  0  0  0  0  0  0  0  0
   -0.4846   -0.1506    0.5181 C   0  0  0  0  0  0  0  0  0  0  0  0
   -0.9770    1.2763    0.5716 C   0  0  0  0  0  0  0  0  0  0  0  0
   -1.6933    1.6854    1.8037 N   0  0  0  0  0  0  0  0  0  0  0  0
   -1.8000    0.8263    2.6245 O   0  0  0  0  0  0  0  0  0  0  0  0
    0.2157   -0.3569    1.3272 H   0  0  0  0  0  0  0  0  0  0  0  0
   -1.3104   -0.8564    0.6059 H   0  0  0  0  0  0  0  0  0  0  0  0
   -0.1697    2.0104    0.4813 H   0  0  0  0  0  0  0  0  0  0  0  0
   -1.6802    1.5160   -0.2327 H   0  0  0  0  0  0  0  0  0  0  0  0
  1  2  2  3
  1  5  1  0
  1  6  1  0
  2  3  1  0
  4  7  1  0
  7  8  1  0
  7 11  1  0
  7 12  1  0
  8  9  1  0
  8 13  1  0
  8 14  1  0
  9 10  2  0
M  RAD  1   3   2
M  END
>  <reaction>  (15) 
rmg_rxn_600

>  <mol_properties>  (15) 
{"0": {"label": "*1", "atom_type": "Cs"}, "1": {"label": "*0", "atom_type": "N3d"}, "3": {"label": "*2", "atom_type": "H0"}, "6": {"label": "*3", "atom_type": "Cs"}, "7": {"label": "*4", "atom_type": "Cs"}}

>  <type>  (15) 
unop_11

>  <geom_source>  (15) 
Heuristics

$$$$

     RDKit          3D

 14 12  0  0  0  0  0  0  0  0999 V2000
    1.9102    0.7345   -0.8306 C   0  0  0  0  0  0  0  0  0  0  0  0
    1.9102   -0.6113   -1.4274 N   0  0  0  0  0  0  0  0  0  0  0  0
    1.9102   -0.6113   -2.6205 O   0  0  0  0  0  1  0  0  0  0  0  0
    0.8542    0.8059   -0.0580 H   0  0  0  0  0  0  0  0  0  0  0  0
    1.9102    1.5150   -1.5924 H   0  0  0  0  0  0  0  0  0  0  0  0
    2.7903    0.7940   -0.1868 H   0  0  0  0  0  0  0  0  0  0  0  0
   -0.2000    0.8772    0.7133 C   0  0  0  0  0  0  0  0  0  0  0  0
   -0.9539   -0.4307    0.6622 C   0  0  0  0  0  0  0  0  0  0  0  0
   -2.1838   -0.5204    1.4854 N   0  0  0  0  0  0  0  0  0  0  0  0
   -2.4407    0.4671    2.1035 O   0  0  0  0  0  0  0  0  0  0  0  0
   -0.8222    1.7047    0.3730 H   0  0  0  0  0  0  0  0  0  0  0  0
    0.1281    1.1040    1.7275 H   0  0  0  0  0  0  0  0  0  0  0  0
   -1.2935   -0.6889   -0.3462 H   0  0  0  0  0  0  0  0  0  0  0  0
   -0.3528   -1.2835    0.9945 H   0  0  0  0  0  0  0  0  0  0  0  0
  1  2  2  3
  1  5  1  0
  1  6  1  0
  2  3  1  0
  4  7  1  0
  7  8  1  0
  7 11  1  0
  7 12  1  0
  8  9  1  0
  8 13  1  0
  8 14  1  0
  9 10  2  0
M  RAD  1   3   2
M  END
>  <reaction>  (16) 
rmg_rxn_600

>  <mol_properties>  (16) 
{"0": {"label": "*1", "atom_type": "Cs"}, "1": {"label": "*0", "atom_type": "N3d"}, "3": {"label": "*2", "atom_type": "H0"}, "6": {"label": "*3", "atom_type": "Cs"}, "7": {"label": "*4", "atom_type": "Cs"}}

>  <type>  (16) 
unop_12

>  <geom_source>  (16) 
Heuristics

$$$$

     RDKit          3D

 14 12  0  0  0  0  0  0  0  0999 V2000
   -3.3602   -0.8534    0.0477 O   0  0  0  0  0  0  0  0  0  0  0  0
    2.8608   -1.0938   -0.0702 O   0  0  0  0  0  1  0  0  0  0  0  0
   -2.3609   -1.2308   -0.4858 N   0  0  0  0  0  0  0  0  0  0  0  0
    2.3372   -0.1850   -0.6386 N   0  0  0  0  0  0  0  0  0  0  0  0
   -1.2230   -0.3554   -0.6233 C   0  0  0  0  0  0  0  0  0  0  0  0
   -0.5984   -0.0678    0.7364 C   0  0  0  0  0  0  0  0  0  0  0  0
    1.7364    0.8851    0.1096 C   0  0  0  0  0  0  0  0  0  0  0  0
   -1.5353    0.5968   -1.1041 H   0  0  0  0  0  0  0  0  0  0  0  0
   -0.4673   -0.8459   -1.2719 H   0  0  0  0  0  0  0  0  0  0  0  0
   -0.2854   -1.0165    1.2222 H   0  0  0  0  0  0  0  0  0  0  0  0
   -1.3253    0.4579    1.3913 H   0  0  0  0  0  0  0  0  0  0  0  0
    0.4519    0.6929    0.5787 H   0  0  0  0  0  0  0  0  0  0  0  0
    2.5142    1.4163    0.6977 H   0  0  0  0  0  0  0  0  0  0  0  0
    1.2554    1.5995   -0.5897 H   0  0  0  0  0  0  0  0  0  0  0  0
  1  3  2  0
  2  4  1  0
  3  5  1  0
  4  7  2  3
  5  6  1  0
  5  8  1  0
  5  9  1  0
  6 10  1  0
  6 11  1  0
  6 12  1  0
  7 13  1  0
  7 14  1  0
M  RAD  1   2   2
M  END
>  <reaction>  (17) 
rmg_rxn_600

>  <mol_properties>  (17) 
{"0": {"label": "*1", "atom_type": "Cs"}, "1": {"label": "*0", "atom_type": "N3d"}, "3": {"label": "*2", "atom_type": "H0"}, "6": {"label": "*3", "atom_type": "Cs"}, "7": {"label": "*4", "atom_type": "Cs"}}

>  <type>  (17) 
unop_13

>  <geom_source>  (17) 
AutoTST

$$$$

     RDKit          3D

 14 12  0  0  0  0  0  0  0  0999 V2000
    1.6399    0.7384   -1.1582 C   0  0  0  0  0  0  0  0  0  0  0  0
    1.6399   -0.6073   -1.7550 N   0  0  0  0  0  0  0  0  0  0  0  0
    1.6399   -0.6073   -2.9481 O   0  0  0  0  0  1  0  0  0  0  0  0
    0.5839    0.8098   -0.3856 H   0  0  0  0  0  0  0  0  0  0  0  0
    1.6399    1.5189   -1.9200 H   0  0  0  0  0  0  0  0  0  0  0  0
    2.5199    0.7979   -0.5144 H   0  0  0  0  0  0  0  0  0  0  0  0
   -0.4704    0.8811    0.3856 C   0  0  0  0  0  0  0  0  0  0  0  0
   -0.7937   -0.4907    0.9289 C   0  0  0  0  0  0  0  0  0  0  0  0
   -1.6737   -0.5418    2.1212 N   0  0  0  0  0  0  0  0  0  0  0  0
   -2.0309    0.5239    2.5208 O   0  0  0  0  0  0  0  0  0  0  0  0
   -1.3748    1.4098    0.0854 H   0  0  0  0  0  0  0  0  0  0  0  0
    0.0383    1.4911    1.1319 H   0  0  0  0  0  0  0  0  0  0  0  0
   -1.3022   -1.1299    0.1998 H   0  0  0  0  0  0  0  0  0  0  0  0
    0.0966   -1.0494    1.2356 H   0  0  0  0  0  0  0  0  0  0  0  0
  1  2  2  3
  1  5  1  0
  1  6  1  0
  2  3  1  0
  4  7  1  0
  7  8  1  0
  7 11  1  0
  7 12  1  0
  8  9  1  0
  8 13  1  0
  8 14  1  0
  9 10  2  0
M  RAD  1   3   2
M  END
>  <reaction>  (18) 
rmg_rxn_600

>  <mol_properties>  (18) 
{"0": {"label": "*1", "atom_type": "Cs"}, "1": {"label": "*0", "atom_type": "N3d"}, "3": {"label": "*2", "atom_type": "H0"}, "6": {"label": "*3", "atom_type": "Cs"}, "7": {"label": "*4", "atom_type": "Cs"}}

>  <type>  (18) 
unop_14

>  <geom_source>  (18) 
gaussian_log

$$$$
