
     RDKit          3D

 13 12  0  0  0  0  0  0  0  0999 V2000
    1.9466    0.1090    0.9245 N   0  0  0  0  0  2  0  0  0  0  0  0
    1.4466   -0.6584   -0.0107 N   0  0  0  0  0  0  0  0  0  0  0  0
    0.1805   -0.8050   -0.2944 C   0  0  0  0  0  3  0  0  0  0  0  0
   -0.8545   -0.0639    0.4699 C   0  0  0  0  0  0  0  0  0  0  0  0
   -1.0896   -0.6293    1.8757 C   0  0  0  0  0  0  0  0  0  0  0  0
    2.9554    0.0279    0.8555 H   0  0  0  0  0  0  0  0  0  0  0  0
    2.0766   -1.2050   -0.5920 H   0  0  0  0  0  0  0  0  0  0  0  0
   -0.0468   -1.4951   -1.0924 H   0  0  0  0  0  0  0  0  0  0  0  0
   -1.7858   -0.0735   -0.0987 H   0  0  0  0  0  0  0  0  0  0  0  0
   -0.5293    0.9778    0.5630 H   0  0  0  0  0  0  0  0  0  0  0  0
   -0.1608   -0.6126    2.4456 H   0  0  0  0  0  0  0  0  0  0  0  0
   -1.4532   -1.6574    1.8281 H   0  0  0  0  0  0  0  0  0  0  0  0
   -1.8300   -0.0307    2.4087 H   0  0  0  0  0  0  0  0  0  0  0  0
  1  2  1  0
  1  6  1  0
  2  3  1  0
  2  7  1  0
  3  4  1  0
  3  8  1  0
  4  5  1  0
  4  9  1  0
  4 10  1  0
  5 11  1  0
  5 12  1  0
  5 13  1  0
M  CHG  2   1  -1   3   1
M  END
>  <reaction>  (1) 
rmg_rxn_15651

>  <mol_properties>  (1) 
{"0": {"label": "donator", "atom_type": "N1sc"}, "5": {"label": "d_hydrogen", "atom_type": "H0"}}

>  <type>  (1) 
r1h

$$$$

     RDKit          3D

  8  7  0  0  0  0  0  0  0  0999 V2000
    1.7077   -0.1964   -0.0607 C   0  0  0  0  0  3  0  0  0  0  0  0
    0.4209   -0.4565    0.2808 O   0  0  0  0  0  0  0  0  0  0  0  0
   -0.4607    0.4385   -0.2968 N   0  0  0  0  0  0  0  0  0  0  0  0
   -1.6584    0.1416   -0.0244 C   0  0  0  0  0  0  0  0  0  0  0  0
    2.4163   -0.7685    0.5170 H   0  0  0  0  0  0  0  0  0  0  0  0
    1.9214    0.7645   -0.5045 H   0  0  0  0  0  0  0  0  0  0  0  0
   -2.4185    0.7953   -0.4307 H   0  0  0  0  0  0  0  0  0  0  0  0
   -1.9286   -0.7185    0.5831 H   0  0  0  0  0  0  0  0  0  0  0  0
  1  2  1  0
  1  5  1  0
  1  6  1  0
  2  3  1  0
  3  4  2  3
  4  7  1  0
  4  8  1  0
M  RAD  1   1   2
M  END
>  <reaction>  (2) 
rmg_rxn_15651

>  <mol_properties>  (2) 
{"0": {"label": "acceptor", "atom_type": "Cs"}}

>  <type>  (2) 
r2

$$$$

     RDKit          3D

  9  8  0  0  0  0  0  0  0  0999 V2000
   -1.5470   -0.0755   -0.1976 C   0  0  0  0  0  0  0  0  0  0  0  0
   -0.2885    0.4507    0.1749 O   0  0  0  0  0  0  0  0  0  0  0  0
   -0.1502    1.7216   -0.3294 N   0  0  0  0  0  0  0  0  0  0  0  0
    0.9626    2.2353   -0.0219 C   0  0  0  0  0  0  0  0  0  0  0  0
   -1.6392   -0.1356   -1.2844 H   0  0  0  0  0  0  0  0  0  0  0  0
   -2.3597    0.5337    0.2044 H   0  0  0  0  0  0  0  0  0  0  0  0
   -1.5879   -1.0750    0.2318 H   0  0  0  0  0  0  0  0  0  0  0  0
    1.1497    3.2381   -0.3820 H   0  0  0  0  0  0  0  0  0  0  0  0
    1.7060    1.7101    0.5739 H   0  0  0  0  0  0  0  0  0  0  0  0
  1  2  1  0
  1  5  1  0
  1  6  1  0
  1  7  1  0
  2  3  1  0
  3  4  2  3
  4  8  1  0
  4  9  1  0
M  END
>  <reaction>  (3) 
rmg_rxn_15651

>  <mol_properties>  (3) 
{"0": {"label": "acceptor", "atom_type": "Cs"}, "8": {"label": "a_hydrogen", "atom_type": "H0"}}

>  <type>  (3) 
r2h

$$$$

     RDKit          3D

 21 19  0  0  0  0  0  0  0  0999 V2000
    2.1973    0.0605    1.0877 C   0  0  0  0  0  3  0  0  0  0  0  0
    2.4757    0.8808   -0.0043 O   0  0  0  0  0  0  0  0  0  0  0  0
    1.4219    1.7256   -0.2587 N   0  0  0  0  0  0  0  0  0  0  0  0
    1.6807    2.5552   -1.1760 C   0  0  0  0  0  0  0  0  0  0  0  0
    3.0407   -0.6097    1.2227 H   0  0  0  0  0  0  0  0  0  0  0  0
    1.9214    0.6208    1.9819 H   0  0  0  0  0  0  0  0  0  0  0  0
    0.8943    3.2485   -1.4419 H   0  0  0  0  0  0  0  0  0  0  0  0
    2.6421    2.5799   -1.6824 H   0  0  0  0  0  0  0  0  0  0  0  0
    0.0450   -1.2877    0.6350 N   0  0  0  0  0  2  0  0  0  0  0  0
   -0.7519   -0.2847    0.3809 N   0  0  0  0  0  0  0  0  0  0  0  0
   -2.0430   -0.3314    0.1873 C   0  0  0  0  0  3  0  0  0  0  0  0
   -2.7698   -1.6253    0.2557 C   0  0  0  0  0  0  0  0  0  0  0  0
   -2.5389   -2.5190   -0.9688 C   0  0  0  0  0  0  0  0  0  0  0  0
    1.1286   -0.7626    0.8284 H   0  0  0  0  0  0  0  0  0  0  0  0
   -0.3092    0.6373    0.2998 H   0  0  0  0  0  0  0  0  0  0  0  0
   -2.5177    0.6090   -0.0481 H   0  0  0  0  0  0  0  0  0  0  0  0
   -3.8360   -1.4266    0.3773 H   0  0  0  0  0  0  0  0  0  0  0  0
   -2.4283   -2.1620    1.1485 H   0  0  0  0  0  0  0  0  0  0  0  0
   -1.4751   -2.7241   -1.0911 H   0  0  0  0  0  0  0  0  0  0  0  0
   -2.9059   -2.0386   -1.8775 H   0  0  0  0  0  0  0  0  0  0  0  0
   -3.0590   -3.4713   -0.8524 H   0  0  0  0  0  0  0  0  0  0  0  0
  1  2  1  0
  1  5  1  0
  1  6  1  0
  2  3  1  0
  3  4  2  3
  4  7  1  0
  4  8  1  0
  9 10  1  0
  9 14  1  0
 10 11  1  0
 10 15  1  0
 11 12  1  0
 11 16  1  0
 12 13  1  0
 12 17  1  0
 12 18  1  0
 13 19  1  0
 13 20  1  0
 13 21  1  0
M  CHG  2   9  -1  11   1
M  RAD  1   1   2
M  END
>  <reaction>  (4) 
rmg_rxn_15651

>  <mol_properties>  (4) 
{"0": {"label": "*3", "atom_type": "Cs"}, "1": {"label": "*4", "atom_type": "O2s"}, "8": {"label": "*1", "atom_type": "N1sc"}, "9": {"label": "*0", "atom_type": "N3s"}, "13": {"label": "*2", "atom_type": "H0"}}

>  <type>  (4) 
ts

$$$$

     RDKit          3D

 21 19  0  0  0  0  0  0  0  0999 V2000
    2.0722    1.3847    0.1803 C   0  0  0  0  0  3  0  0  0  0  0  0
    2.2967    0.4059   -0.7883 O   0  0  0  0  0  0  0  0  0  0  0  0
    2.6358   -0.8627   -0.4463 N   0  0  0  0  0  0  0  0  0  0  0  0
    2.6590   -1.2557    0.7531 C   0  0  0  0  0  0  0  0  0  0  0  0
    2.7848    1.3817    1.0014 H   0  0  0  0  0  0  0  0  0  0  0  0
    2.0214    2.3348   -0.3389 H   0  0  0  0  0  0  0  0  0  0  0  0
    2.9462   -2.2824    0.8966 H   0  0  0  0  0  0  0  0  0  0  0  0
    2.4049   -0.6715    1.6326 H   0  0  0  0  0  0  0  0  0  0  0  0
   -0.2747    0.7528    0.8464 N   0  0  0  0  0  2  0  0  0  0  0  0
   -0.6253    0.1433   -0.2239 N   0  0  0  0  0  0  0  0  0  0  0  0
   -1.7872   -0.3870   -0.5035 C   0  0  0  0  0  3  0  0  0  0  0  0
   -2.9223   -0.3121    0.4595 C   0  0  0  0  0  0  0  0  0  0  0  0
   -4.2485   -0.0422   -0.2463 C   0  0  0  0  0  0  0  0  0  0  0  0
    0.8738    1.1602    0.6908 H   0  0  0  0  0  0  0  0  0  0  0  0
    0.0914    0.0432   -0.9645 H   0  0  0  0  0  0  0  0  0  0  0  0
   -1.8975   -0.8850   -1.4505 H   0  0  0  0  0  0  0  0  0  0  0  0
   -2.6969    0.4834    1.1744 H   0  0  0  0  0  0  0  0  0  0  0  0
   -3.0022   -1.2486    1.0241 H   0  0  0  0  0  0  0  0  0  0  0  0
   -4.4700   -0.8356   -0.9571 H   0  0  0  0  0  0  0  0  0  0  0  0
   -4.2086    0.9016   -0.7851 H   0  0  0  0  0  0  0  0  0  0  0  0
   -5.0578    0.0075    0.4775 H   0  0  0  0  0  0  0  0  0  0  0  0
  1  2  1  0
  1  5  1  0
  1  6  1  0
  2  3  1  0
  3  4  2  3
  4  7  1  0
  4  8  1  0
  9 10  1  0
  9 14  1  0
 10 11  1  0
 10 15  1  0
 11 12  1  0
 11 16  1  0
 12 13  1  0
 12 17  1  0
 12 18  1  0
 13 19  1  0
 13 20  1  0
 13 21  1  0
M  CHG  2   9  -1  11   1
M  RAD  1   1   2
M  END
>  <reaction>  (5) 
rmg_rxn_15651

>  <mol_properties>  (5) 
{"0": {"label": "*3", "atom_type": "Cs"}, "1": {"label": "*4", "atom_type": "O2s"}, "8": {"label": "*1", "atom_type": "N1sc"}, "9": {"label": "*0", "atom_type": "N3s"}, "13": {"label": "*2", "atom_type": "H0"}}

>  <type>  (5) 
unop_1

>  <geom_source>  (5) 
crest_best.xyz

$$$$

     RDKit          3D

 21 19  0  0  0  0  0  0  0  0999 V2000
    1.0175    1.5446    0.0782 C   0  0  0  0  0  3  0  0  0  0  0  0
    2.0533    0.9981    0.8706 O   0  0  0  0  0  0  0  0  0  0  0  0
    3.2558    1.5582    0.5115 N   0  0  0  0  0  0  0  0  0  0  0  0
    4.2152    1.0998    1.1942 C   0  0  0  0  0  0  0  0  0  0  0  0
    0.9405    2.6242    0.2260 H   0  0  0  0  0  0  0  0  0  0  0  0
    1.1819    1.3321   -0.9806 H   0  0  0  0  0  0  0  0  0  0  0  0
    5.1989    1.4912    0.9720 H   0  0  0  0  0  0  0  0  0  0  0  0
    4.0768    0.3496    1.9698 H   0  0  0  0  0  0  0  0  0  0  0  0
   -0.5658   -0.3641   -0.3896 N   0  0  0  0  0  2  0  0  0  0  0  0
   -1.7254   -0.0165    0.1081 N   0  0  0  0  0  0  0  0  0  0  0  0
   -2.8099   -0.7436    0.1200 C   0  0  0  0  0  3  0  0  0  0  0  0
   -2.8099   -2.1078   -0.4662 C   0  0  0  0  0  0  0  0  0  0  0  0
   -2.8099   -2.1078   -1.9996 C   0  0  0  0  0  0  0  0  0  0  0  0
    0.1979    0.5566   -0.1640 H   0  0  0  0  0  0  0  0  0  0  0  0
   -1.8258    0.9003    0.5361 H   0  0  0  0  0  0  0  0  0  0  0  0
   -3.6806   -0.2841    0.5622 H   0  0  0  0  0  0  0  0  0  0  0  0
   -3.6785   -2.6517   -0.0912 H   0  0  0  0  0  0  0  0  0  0  0  0
   -1.9119   -2.6290   -0.1175 H   0  0  0  0  0  0  0  0  0  0  0  0
   -1.9383   -1.5709   -2.3734 H   0  0  0  0  0  0  0  0  0  0  0  0
   -3.7101   -1.6304   -2.3908 H   0  0  0  0  0  0  0  0  0  0  0  0
   -2.7731   -3.1295   -2.3810 H   0  0  0  0  0  0  0  0  0  0  0  0
  1  2  1  0
  1  5  1  0
  1  6  1  0
  2  3  1  0
  3  4  2  3
  4  7  1  0
  4  8  1  0
  9 10  1  0
  9 14  1  0
 10 11  1  0
 10 15  1  0
 11 12  1  0
 11 16  1  0
 12 13  1  0
 12 17  1  0
 12 18  1  0
 13 19  1  0
 13 20  1  0
 13 21  1  0
M  CHG  2   9  -1  11   1
M  RAD  1   1   2
M  END
>  <reaction>  (6) 
rmg_rxn_15651

>  <mol_properties>  (6) 
{"0": {"label": "*3", "atom_type": "Cs"}, "1": {"label": "*4", "atom_type": "O2s"}, "8": {"label": "*1", "atom_type": "N1sc"}, "9": {"label": "*0", "atom_type": "N3s"}, "13": {"label": "*2", "atom_type": "H0"}}

>  <type>  (6) 
unop_2

>  <geom_source>  (6) 
Heuristics

$$$$

     RDKit          3D

 21 19  0  0  0  0  0  0  0  0999 V2000
    2.0704   -1.3850   -0.1875 C   0  0  0  0  0  3  0  0  0  0  0  0
    2.2948   -0.4108    0.7859 O   0  0  0  0  0  0  0  0  0  0  0  0
    2.6332    0.8596    0.4498 N   0  0  0  0  0  0  0  0  0  0  0  0
    2.6566    1.2580   -0.7478 C   0  0  0  0  0  0  0  0  0  0  0  0
    2.7834   -1.3784   -1.0082 H   0  0  0  0  0  0  0  0  0  0  0  0
    2.0190   -2.3375    0.3273 H   0  0  0  0  0  0  0  0  0  0  0  0
    2.9433    2.2855   -0.8865 H   0  0  0  0  0  0  0  0  0  0  0  0
    2.4031    0.6777   -1.6300 H   0  0  0  0  0  0  0  0  0  0  0  0
   -0.2758   -0.7474   -0.8503 N   0  0  0  0  0  2  0  0  0  0  0  0
   -0.6257   -0.1457    0.2246 N   0  0  0  0  0  0  0  0  0  0  0  0
   -1.7847    0.3889    0.5077 C   0  0  0  0  0  3  0  0  0  0  0  0
   -2.9203    0.3311   -0.4559 C   0  0  0  0  0  0  0  0  0  0  0  0
   -4.2427    0.0263    0.2433 C   0  0  0  0  0  0  0  0  0  0  0  0
    0.8723   -1.1572   -0.6974 H   0  0  0  0  0  0  0  0  0  0  0  0
    0.0903   -0.0559    0.9672 H   0  0  0  0  0  0  0  0  0  0  0  0
   -1.8932    0.8769    1.4603 H   0  0  0  0  0  0  0  0  0  0  0  0
   -2.6883   -0.4403   -1.1943 H   0  0  0  0  0  0  0  0  0  0  0  0
   -3.0110    1.2837   -0.9909 H   0  0  0  0  0  0  0  0  0  0  0  0
   -4.4695    0.7938    0.9802 H   0  0  0  0  0  0  0  0  0  0  0  0
   -4.1932   -0.9344    0.7504 H   0  0  0  0  0  0  0  0  0  0  0  0
   -5.0531   -0.0066   -0.4803 H   0  0  0  0  0  0  0  0  0  0  0  0
  1  2  1  0
  1  5  1  0
  1  6  1  0
  2  3  1  0
  3  4  2  3
  4  7  1  0
  4  8  1  0
  9 10  1  0
  9 14  1  0
 10 11  1  0
 10 15  1  0
 11 12  1  0
 11 16  1  0
 12 13  1  0
 12 17  1  0
 12 18  1  0
 13 19  1  0
 13 20  1  0
 13 21  1  0
M  CHG  2   9  -1  11   1
M  RAD  1   1   2
M  END
>  <reaction>  (7) 
rmg_rxn_15651

>  <mol_properties>  (7) 
{"0": {"label": "*3", "atom_type": "Cs"}, "1": {"label": "*4", "atom_type": "O2s"}, "8": {"label": "*1", "atom_type": "N1sc"}, "9": {"label": "*0", "atom_type": "N3s"}, "13": {"label": "*2", "atom_type": "H0"}}

>  <type>  (7) 
unop_3

>  <geom_source>  (7) 
Heuristics

$$$$

     RDKit          3D

 21 19  0  0  0  0  0  0  0  0999 V2000
    2.0667    1.3863   -0.1846 C   0  0  0  0  0  3  0  0  0  0  0  0
    2.2931    0.4111    0.7872 O   0  0  0  0  0  0  0  0  0  0  0  0
    2.6387   -0.8569    0.4498 N   0  0  0  0  0  0  0  0  0  0  0  0
    2.6680   -1.2531   -0.7485 C   0  0  0  0  0  0  0  0  0  0  0  0
    2.0116    2.3377    0.3317 H   0  0  0  0  0  0  0  0  0  0  0  0
    2.7807    1.3836   -1.0046 H   0  0  0  0  0  0  0  0  0  0  0  0
    2.9604   -2.2789   -0.8881 H   0  0  0  0  0  0  0  0  0  0  0  0
    2.4146   -0.6725   -1.6306 H   0  0  0  0  0  0  0  0  0  0  0  0
   -0.2776    0.7450   -0.8506 N   0  0  0  0  0  2  0  0  0  0  0  0
   -0.6272    0.1401    0.2226 N   0  0  0  0  0  0  0  0  0  0  0  0
   -1.7871   -0.3929    0.5051 C   0  0  0  0  0  3  0  0  0  0  0  0
   -2.9236   -0.3282   -0.4570 C   0  0  0  0  0  0  0  0  0  0  0  0
   -4.2450   -0.0264    0.2454 C   0  0  0  0  0  0  0  0  0  0  0  0
    0.8698    1.1561   -0.6961 H   0  0  0  0  0  0  0  0  0  0  0  0
    0.0895    0.0464    0.9641 H   0  0  0  0  0  0  0  0  0  0  0  0
   -1.8955   -0.8849    1.4556 H   0  0  0  0  0  0  0  0  0  0  0  0
   -3.0157   -1.2772   -0.9980 H   0  0  0  0  0  0  0  0  0  0  0  0
   -2.6915    0.4477   -1.1908 H   0  0  0  0  0  0  0  0  0  0  0  0
   -4.4724   -0.7987    0.9771 H   0  0  0  0  0  0  0  0  0  0  0  0
   -5.0560    0.0129   -0.4773 H   0  0  0  0  0  0  0  0  0  0  0  0
   -4.1937    0.9306    0.7593 H   0  0  0  0  0  0  0  0  0  0  0  0
  1  2  1  0
  1  5  1  0
  1  6  1  0
  2  3  1  0
  3  4  2  3
  4  7  1  0
  4  8  1  0
  9 10  1  0
  9 14  1  0
 10 11  1  0
 10 15  1  0
 11 12  1  0
 11 16  1  0
 12 13  1  0
 12 17  1  0
 12 18  1  0
 13 19  1  0
 13 20  1  0
 13 21  1  0
M  CHG  2   9  -1  11   1
M  RAD  1   1   2
M  END
>  <reaction>  (8) 
rmg_rxn_15651

>  <mol_properties>  (8) 
{"0": {"label": "*3", "atom_type": "Cs"}, "1": {"label": "*4", "atom_type": "O2s"}, "8": {"label": "*1", "atom_type": "N1sc"}, "9": {"label": "*0", "atom_type": "N3s"}, "13": {"label": "*2", "atom_type": "H0"}}

>  <type>  (8) 
unop_4

>  <geom_source>  (8) 
Heuristics

$$$$

     RDKit          3D

 21 19  0  0  0  0  0  0  0  0999 V2000
    1.7100    1.0054   -0.3034 C   0  0  0  0  0  3  0  0  0  0  0  0
    1.2498    1.6006    0.8939 O   0  0  0  0  0  0  0  0  0  0  0  0
    2.2514    2.3615    1.4476 N   0  0  0  0  0  0  0  0  0  0  0  0
    1.8867    2.9155    2.5231 C   0  0  0  0  0  0  0  0  0  0  0  0
    1.9940    1.7663   -1.0339 H   0  0  0  0  0  0  0  0  0  0  0  0
    2.5611    0.3484   -0.1112 H   0  0  0  0  0  0  0  0  0  0  0  0
    2.6201    3.5340    3.0229 H   0  0  0  0  0  0  0  0  0  0  0  0
    0.8898    2.7877    2.9395 H   0  0  0  0  0  0  0  0  0  0  0  0
    0.1267   -0.9033   -0.7712 N   0  0  0  0  0  2  0  0  0  0  0  0
   -1.0329   -0.5558   -0.2735 N   0  0  0  0  0  0  0  0  0  0  0  0
   -2.1174   -1.2828   -0.2616 C   0  0  0  0  0  3  0  0  0  0  0  0
   -2.1174   -2.6470   -0.8478 C   0  0  0  0  0  0  0  0  0  0  0  0
   -2.1174   -2.6470   -2.3811 C   0  0  0  0  0  0  0  0  0  0  0  0
    0.8904    0.0174   -0.5456 H   0  0  0  0  0  0  0  0  0  0  0  0
   -1.1333    0.3611    0.1545 H   0  0  0  0  0  0  0  0  0  0  0  0
   -2.9881   -0.8233    0.1806 H   0  0  0  0  0  0  0  0  0  0  0  0
   -2.9860   -3.1909   -0.4728 H   0  0  0  0  0  0  0  0  0  0  0  0
   -1.2194   -3.1682   -0.4991 H   0  0  0  0  0  0  0  0  0  0  0  0
   -1.2458   -2.1101   -2.7550 H   0  0  0  0  0  0  0  0  0  0  0  0
   -3.0176   -2.1697   -2.7723 H   0  0  0  0  0  0  0  0  0  0  0  0
   -2.0806   -3.6687   -2.7626 H   0  0  0  0  0  0  0  0  0  0  0  0
  1  2  1  0
  1  5  1  0
  1  6  1  0
  2  3  1  0
  3  4  2  3
  4  7  1  0
  4  8  1  0
  9 10  1  0
  9 14  1  0
 10 11  1  0
 10 15  1  0
 11 12  1  0
 11 16  1  0
 12 13  1  0
 12 17  1  0
 12 18  1  0
 13 19  1  0
 13 20  1  0
 13 21  1  0
M  CHG  2   9  -1  11   1
M  RAD  1   1   2
M  END
>  <reaction>  (9) 
rmg_rxn_15651

>  <mol_properties>  (9) 
{"0": {"label": "*3", "atom_type": "Cs"}, "1": {"label": "*4", "atom_type": "O2s"}, "8": {"label": "*1", "atom_type": "N1sc"}, "9": {"label": "*0", "atom_type": "N3s"}, "13": {"label": "*2", "atom_type": "H0"}}

>  <type>  (9) 
unop_5

>  <geom_source>  (9) 
Heuristics

$$$$

     RDKit          3D

 21 19  0  0  0  0  0  0  0  0999 V2000
    2.0691   -1.3849   -0.1803 C   0  0  0  0  0  3  0  0  0  0  0  0
    2.2945   -0.4066    0.7886 O   0  0  0  0  0  0  0  0  0  0  0  0
    2.6404    0.8604    0.4475 N   0  0  0  0  0  0  0  0  0  0  0  0
    2.6701    1.2528   -0.7520 C   0  0  0  0  0  0  0  0  0  0  0  0
    2.7834   -1.3841   -1.0000 H   0  0  0  0  0  0  0  0  0  0  0  0
    2.0145   -2.3348    0.3389 H   0  0  0  0  0  0  0  0  0  0  0  0
    2.9626    2.2781   -0.8947 H   0  0  0  0  0  0  0  0  0  0  0  0
    2.4166    0.6696   -1.6323 H   0  0  0  0  0  0  0  0  0  0  0  0
   -0.2758   -0.7485   -0.8488 N   0  0  0  0  0  2  0  0  0  0  0  0
   -0.6273   -0.1429    0.2234 N   0  0  0  0  0  0  0  0  0  0  0  0
   -1.7895    0.3857    0.5045 C   0  0  0  0  0  3  0  0  0  0  0  0
   -2.9244    0.3143   -0.4591 C   0  0  0  0  0  0  0  0  0  0  0  0
   -4.2510    0.0427    0.2453 C   0  0  0  0  0  0  0  0  0  0  0  0
    0.8723   -1.1572   -0.6930 H   0  0  0  0  0  0  0  0  0  0  0  0
    0.0892   -0.0447    0.9644 H   0  0  0  0  0  0  0  0  0  0  0  0
   -1.9003    0.8803    1.4533 H   0  0  0  0  0  0  0  0  0  0  0  0
   -2.6991   -0.4788   -1.1765 H   0  0  0  0  0  0  0  0  0  0  0  0
   -3.0036    1.2527   -1.0206 H   0  0  0  0  0  0  0  0  0  0  0  0
   -4.4715    0.8328    0.9600 H   0  0  0  0  0  0  0  0  0  0  0  0
   -4.2125   -0.9038    0.7793 H   0  0  0  0  0  0  0  0  0  0  0  0
   -5.0603   -0.0022   -0.4789 H   0  0  0  0  0  0  0  0  0  0  0  0
  1  2  1  0
  1  5  1  0
  1  6  1  0
  2  3  1  0
  3  4  2  3
  4  7  1  0
  4  8  1  0
  9 10  1  0
  9 14  1  0
 10 11  1  0
 10 15  1  0
 11 12  1  0
 11 16  1  0
 12 13  1  0
 12 17  1  0
 12 18  1  0
 13 19  1  0
 13 20  1  0
 13 21  1  0
M  CHG  2   9  -1  11   1
M  RAD  1   1   2
M  END
>  <reaction>  (10) 
rmg_rxn_15651

>  <mol_properties>  (10) 
{"0": {"label": "*3", "atom_type": "Cs"}, "1": {"label": "*4", "atom_type": "O2s"}, "8": {"label": "*1", "atom_type": "N1sc"}, "9": {"label": "*0", "atom_type": "N3s"}, "13": {"label": "*2", "atom_type": "H0"}}

>  <type>  (10) 
unop_6

>  <geom_source>  (10) 
Heuristics

$$$$

     RDKit          3D

 21 19  0  0  0  0  0  0  0  0999 V2000
    0.9651    1.4805    0.3550 C   0  0  0  0  0  3  0  0  0  0  0  0
    2.2447    0.8934    0.4876 O   0  0  0  0  0  0  0  0  0  0  0  0
    3.2125    1.8148    0.1663 N   0  0  0  0  0  0  0  0  0  0  0  0
    4.3769    1.3352    0.2702 C   0  0  0  0  0  0  0  0  0  0  0  0
    0.8537    2.3314    1.0308 H   0  0  0  0  0  0  0  0  0  0  0  0
    0.7889    1.8052   -0.6729 H   0  0  0  0  0  0  0  0  0  0  0  0
    5.1976    1.9993    0.0339 H   0  0  0  0  0  0  0  0  0  0  0  0
    4.5628    0.3091    0.5800 H   0  0  0  0  0  0  0  0  0  0  0  0
   -0.6181   -0.4283   -0.1128 N   0  0  0  0  0  2  0  0  0  0  0  0
   -1.7778   -0.0807    0.3849 N   0  0  0  0  0  0  0  0  0  0  0  0
   -2.8623   -0.8078    0.3968 C   0  0  0  0  0  3  0  0  0  0  0  0
   -2.8623   -2.1720   -0.1893 C   0  0  0  0  0  0  0  0  0  0  0  0
   -2.8623   -2.1720   -1.7227 C   0  0  0  0  0  0  0  0  0  0  0  0
    0.1455    0.4924    0.1129 H   0  0  0  0  0  0  0  0  0  0  0  0
   -1.8782    0.8361    0.8129 H   0  0  0  0  0  0  0  0  0  0  0  0
   -3.7329   -0.3483    0.8390 H   0  0  0  0  0  0  0  0  0  0  0  0
   -3.7308   -2.7159    0.1857 H   0  0  0  0  0  0  0  0  0  0  0  0
   -1.9642   -2.6932    0.1593 H   0  0  0  0  0  0  0  0  0  0  0  0
   -1.9907   -1.6351   -2.0966 H   0  0  0  0  0  0  0  0  0  0  0  0
   -3.7624   -1.6946   -2.1139 H   0  0  0  0  0  0  0  0  0  0  0  0
   -2.8254   -3.1936   -2.1041 H   0  0  0  0  0  0  0  0  0  0  0  0
  1  2  1  0
  1  5  1  0
  1  6  1  0
  2  3  1  0
  3  4  2  3
  4  7  1  0
  4  8  1  0
  9 10  1  0
  9 14  1  0
 10 11  1  0
 10 15  1  0
 11 12  1  0
 11 16  1  0
 12 13  1  0
 12 17  1  0
 12 18  1  0
 13 19  1  0
 13 20  1  0
 13 21  1  0
M  CHG  2   9  -1  11   1
M  RAD  1   1   2
M  END
>  <reaction>  (11) 
rmg_rxn_15651

>  <mol_properties>  (11) 
{"0": {"label": "*3", "atom_type": "Cs"}, "1": {"label": "*4", "atom_type": "O2s"}, "8": {"label": "*1", "atom_type": "N1sc"}, "9": {"label": "*0", "atom_type": "N3s"}, "13": {"label": "*2", "atom_type": "H0"}}

>  <type>  (11) 
unop_7

>  <geom_source>  (11) 
Heuristics

$$$$

     RDKit          3D

 21 19  0  0  0  0  0  0  0  0999 V2000
    1.7495    0.7594    0.7170 C   0  0  0  0  0  3  0  0  0  0  0  0
    1.1947    1.8858    0.0666 O   0  0  0  0  0  0  0  0  0  0  0  0
    2.2024    2.7185   -0.3578 N   0  0  0  0  0  0  0  0  0  0  0  0
    1.7546    3.7428   -0.9468 C   0  0  0  0  0  0  0  0  0  0  0  0
    2.3884    0.1911    0.0372 H   0  0  0  0  0  0  0  0  0  0  0  0
    2.3265    1.0597    1.5945 H   0  0  0  0  0  0  0  0  0  0  0  0
    2.4864    4.4505   -1.3125 H   0  0  0  0  0  0  0  0  0  0  0  0
    0.6904    3.9196   -1.0878 H   0  0  0  0  0  0  0  0  0  0  0  0
    0.1663   -1.1494    0.2492 N   0  0  0  0  0  2  0  0  0  0  0  0
   -0.9933   -0.8018    0.7469 N   0  0  0  0  0  0  0  0  0  0  0  0
   -2.0778   -1.5288    0.7588 C   0  0  0  0  0  3  0  0  0  0  0  0
   -2.0778   -2.8931    0.1726 C   0  0  0  0  0  0  0  0  0  0  0  0
   -2.0778   -2.8931   -1.3608 C   0  0  0  0  0  0  0  0  0  0  0  0
    0.9300   -0.2287    0.4748 H   0  0  0  0  0  0  0  0  0  0  0  0
   -1.0937    0.1150    1.1749 H   0  0  0  0  0  0  0  0  0  0  0  0
   -2.9485   -1.0694    1.2010 H   0  0  0  0  0  0  0  0  0  0  0  0
   -2.9464   -3.4370    0.5476 H   0  0  0  0  0  0  0  0  0  0  0  0
   -1.1798   -3.4142    0.5213 H   0  0  0  0  0  0  0  0  0  0  0  0
   -1.2063   -2.3561   -1.7346 H   0  0  0  0  0  0  0  0  0  0  0  0
   -2.9780   -2.4157   -1.7520 H   0  0  0  0  0  0  0  0  0  0  0  0
   -2.0410   -3.9147   -1.7422 H   0  0  0  0  0  0  0  0  0  0  0  0
  1  2  1  0
  1  5  1  0
  1  6  1  0
  2  3  1  0
  3  4  2  3
  4  7  1  0
  4  8  1  0
  9 10  1  0
  9 14  1  0
 10 11  1  0
 10 15  1  0
 11 12  1  0
 11 16  1  0
 12 13  1  0
 12 17  1  0
 12 18  1  0
 13 19  1  0
 13 20  1  0
 13 21  1  0
M  CHG  2   9  -1  11   1
M  RAD  1   1   2
M  END
>  <reaction>  (12) 
rmg_rxn_15651

>  <mol_properties>  (12) 
{"0": {"label": "*3", "atom_type": "Cs"}, "1": {"label": "*4", "atom_type": "O2s"}, "8": {"label": "*1", "atom_type": "N1sc"}, "9": {"label": "*0", "atom_type": "N3s"}, "13": {"label": "*2", "atom_type": "H0"}}

>  <type>  (12) 
unop_8

>  <geom_source>  (12) 
Heuristics

$$$$

     RDKit          3D

 21 19  0  0  0  0  0  0  0  0999 V2000
    2.0715   -1.3847    0.1805 C   0  0  0  0  0  3  0  0  0  0  0  0
    2.2946   -0.4058   -0.7883 O   0  0  0  0  0  0  0  0  0  0  0  0
    2.6351    0.8626   -0.4469 N   0  0  0  0  0  0  0  0  0  0  0  0
    2.6630    1.2549    0.7526 C   0  0  0  0  0  0  0  0  0  0  0  0
    2.0201   -2.3348   -0.3385 H   0  0  0  0  0  0  0  0  0  0  0  0
    2.7850   -1.3816    1.0008 H   0  0  0  0  0  0  0  0  0  0  0  0
    2.9512    2.2815    0.8954 H   0  0  0  0  0  0  0  0  0  0  0  0
    2.4119    0.6707    1.6330 H   0  0  0  0  0  0  0  0  0  0  0  0
   -0.2751   -0.7525    0.8471 N   0  0  0  0  0  2  0  0  0  0  0  0
   -0.6257   -0.1446   -0.2241 N   0  0  0  0  0  0  0  0  0  0  0  0
   -1.7871    0.3863   -0.5041 C   0  0  0  0  0  3  0  0  0  0  0  0
   -2.9221    0.3151    0.4594 C   0  0  0  0  0  0  0  0  0  0  0  0
   -4.2483    0.0417   -0.2453 C   0  0  0  0  0  0  0  0  0  0  0  0
    0.8735   -1.1599    0.6921 H   0  0  0  0  0  0  0  0  0  0  0  0
    0.0908   -0.0464   -0.9652 H   0  0  0  0  0  0  0  0  0  0  0  0
   -1.8973    0.8827   -1.4521 H   0  0  0  0  0  0  0  0  0  0  0  0
   -3.0023    1.2541    1.0197 H   0  0  0  0  0  0  0  0  0  0  0  0
   -2.6965   -0.4772    1.1777 H   0  0  0  0  0  0  0  0  0  0  0  0
   -4.2088   -0.9052   -0.7784 H   0  0  0  0  0  0  0  0  0  0  0  0
   -4.4690    0.8310   -0.9607 H   0  0  0  0  0  0  0  0  0  0  0  0
   -5.0579   -0.0031    0.4785 H   0  0  0  0  0  0  0  0  0  0  0  0
  1  2  1  0
  1  5  1  0
  1  6  1  0
  2  3  1  0
  3  4  2  3
  4  7  1  0
  4  8  1  0
  9 10  1  0
  9 14  1  0
 10 11  1  0
 10 15  1  0
 11 12  1  0
 11 16  1  0
 12 13  1  0
 12 17  1  0
 12 18  1  0
 13 19  1  0
 13 20  1  0
 13 21  1  0
M  CHG  2   9  -1  11   1
M  RAD  1   1   2
M  END
>  <reaction>  (13) 
rmg_rxn_15651

>  <mol_properties>  (13) 
{"0": {"label": "*3", "atom_type": "Cs"}, "1": {"label": "*4", "atom_type": "O2s"}, "8": {"label": "*1", "atom_type": "N1sc"}, "9": {"label": "*0", "atom_type": "N3s"}, "13": {"label": "*2", "atom_type": "H0"}}

>  <type>  (13) 
unop_9

>  <geom_source>  (13) 
Heuristics

$$$$

     RDKit          3D

 21 19  0  0  0  0  0  0  0  0999 V2000
    0.9886    1.3810    0.5271 C   0  0  0  0  0  3  0  0  0  0  0  0
    2.2335    0.9884   -0.0166 O   0  0  0  0  0  0  0  0  0  0  0  0
    3.1638    1.9778    0.1947 N   0  0  0  0  0  0  0  0  0  0  0  0
    4.2962    1.6720   -0.2752 C   0  0  0  0  0  0  0  0  0  0  0  0
    1.0662    1.5419    1.6047 H   0  0  0  0  0  0  0  0  0  0  0  0
    0.6225    2.2915    0.0475 H   0  0  0  0  0  0  0  0  0  0  0  0
    5.0861    2.4005   -0.1495 H   0  0  0  0  0  0  0  0  0  0  0  0
    4.4848    0.7286   -0.7831 H   0  0  0  0  0  0  0  0  0  0  0  0
   -0.5947   -0.5278    0.0593 N   0  0  0  0  0  2  0  0  0  0  0  0
   -1.7543   -0.1802    0.5570 N   0  0  0  0  0  0  0  0  0  0  0  0
   -2.8388   -0.9072    0.5689 C   0  0  0  0  0  3  0  0  0  0  0  0
   -2.8388   -2.2715   -0.0173 C   0  0  0  0  0  0  0  0  0  0  0  0
   -2.8388   -2.2715   -1.5506 C   0  0  0  0  0  0  0  0  0  0  0  0
    0.1690    0.3929    0.2849 H   0  0  0  0  0  0  0  0  0  0  0  0
   -1.8547    0.7366    0.9850 H   0  0  0  0  0  0  0  0  0  0  0  0
   -3.7095   -0.4478    1.0111 H   0  0  0  0  0  0  0  0  0  0  0  0
   -3.7074   -2.8154    0.3577 H   0  0  0  0  0  0  0  0  0  0  0  0
   -1.9408   -2.7927    0.3314 H   0  0  0  0  0  0  0  0  0  0  0  0
   -1.9672   -1.7345   -1.9245 H   0  0  0  0  0  0  0  0  0  0  0  0
   -3.7390   -1.7941   -1.9419 H   0  0  0  0  0  0  0  0  0  0  0  0
   -2.8019   -3.2931   -1.9321 H   0  0  0  0  0  0  0  0  0  0  0  0
  1  2  1  0
  1  5  1  0
  1  6  1  0
  2  3  1  0
  3  4  2  3
  4  7  1  0
  4  8  1  0
  9 10  1  0
  9 14  1  0
 10 11  1  0
 10 15  1  0
 11 12  1  0
 11 16  1  0
 12 13  1  0
 12 17  1  0
 12 18  1  0
 13 19  1  0
 13 20  1  0
 13 21  1  0
M  CHG  2   9  -1  11   1
M  RAD  1   1   2
M  END
>  <reaction>  (14) 
rmg_rxn_15651

>  <mol_properties>  (14) 
{"0": {"label": "*3", "atom_type": "Cs"}, "1": {"label": "*4", "atom_type": "O2s"}, "8": {"label": "*1", "atom_type": "N1sc"}, "9": {"label": "*0", "atom_type": "N3s"}, "13": {"label": "*2", "atom_type": "H0"}}

>  <type>  (14) 
unop_10

>  <geom_source>  (14) 
Heuristics

$$$$

     RDKit          3D

 21 19  0  0  0  0  0  0  0  0999 V2000
    2.0690   -1.3853    0.1824 C   0  0  0  0  0  3  0  0  0  0  0  0
    2.2943   -0.4082   -0.7878 O   0  0  0  0  0  0  0  0  0  0  0  0
    2.6385    0.8596   -0.4483 N   0  0  0  0  0  0  0  0  0  0  0  0
    2.6671    1.2539    0.7506 C   0  0  0  0  0  0  0  0  0  0  0  0
    2.0155   -2.3360   -0.3355 H   0  0  0  0  0  0  0  0  0  0  0  0
    2.7826   -1.3829    1.0026 H   0  0  0  0  0  0  0  0  0  0  0  0
    2.9579    2.2799    0.8919 H   0  0  0  0  0  0  0  0  0  0  0  0
    2.4137    0.6717    1.6317 H   0  0  0  0  0  0  0  0  0  0  0  0
   -0.2764   -0.7486    0.8489 N   0  0  0  0  0  2  0  0  0  0  0  0
   -0.6270   -0.1426   -0.2234 N   0  0  0  0  0  0  0  0  0  0  0  0
   -1.7879    0.3888   -0.5047 C   0  0  0  0  0  3  0  0  0  0  0  0
   -2.9235    0.3208    0.4583 C   0  0  0  0  0  0  0  0  0  0  0  0
   -4.2478    0.0356   -0.2453 C   0  0  0  0  0  0  0  0  0  0  0  0
    0.8716   -1.1577    0.6939 H   0  0  0  0  0  0  0  0  0  0  0  0
    0.0894   -0.0465   -0.9648 H   0  0  0  0  0  0  0  0  0  0  0  0
   -1.8975    0.8826   -1.4540 H   0  0  0  0  0  0  0  0  0  0  0  0
   -3.0085    1.2643    1.0102 H   0  0  0  0  0  0  0  0  0  0  0  0
   -2.6953   -0.4643    1.1834 H   0  0  0  0  0  0  0  0  0  0  0  0
   -4.2042   -0.9166   -0.7687 H   0  0  0  0  0  0  0  0  0  0  0  0
   -4.4706    0.8168   -0.9690 H   0  0  0  0  0  0  0  0  0  0  0  0
   -5.0582   -0.0049    0.4781 H   0  0  0  0  0  0  0  0  0  0  0  0
  1  2  1  0
  1  5  1  0
  1  6  1  0
  2  3  1  0
  3  4  2  3
  4  7  1  0
  4  8  1  0
  9 10  1  0
  9 14  1  0
 10 11  1  0
 10 15  1  0
 11 12  1  0
 11 16  1  0
 12 13  1  0
 12 17  1  0
 12 18  1  0
 13 19  1  0
 13 20  1  0
 13 21  1  0
M  CHG  2   9  -1  11   1
M  RAD  1   1   2
M  END
>  <reaction>  (15) 
rmg_rxn_15651

>  <mol_properties>  (15) 
{"0": {"label": "*3", "atom_type": "Cs"}, "1": {"label": "*4", "atom_type": "O2s"}, "8": {"label": "*1", "atom_type": "N1sc"}, "9": {"label": "*0", "atom_type": "N3s"}, "13": {"label": "*2", "atom_type": "H0"}}

>  <type>  (15) 
unop_11

>  <geom_source>  (15) 
Heuristics

$$$$

     RDKit          3D

 21 19  0  0  0  0  0  0  0  0999 V2000
    1.4989    0.9490    0.8927 C   0  0  0  0  0  3  0  0  0  0  0  0
    1.4010    1.8108   -0.2241 O   0  0  0  0  0  0  0  0  0  0  0  0
    2.6431    2.3111   -0.5334 N   0  0  0  0  0  0  0  0  0  0  0  0
    2.6066    3.0893   -1.5283 C   0  0  0  0  0  0  0  0  0  0  0  0
    2.1555    0.1031    0.6771 H   0  0  0  0  0  0  0  0  0  0  0  0
    1.8705    1.4854    1.7687 H   0  0  0  0  0  0  0  0  0  0  0  0
    3.5469    3.5266   -1.8365 H   0  0  0  0  0  0  0  0  0  0  0  0
    1.6854    3.3188   -2.0594 H   0  0  0  0  0  0  0  0  0  0  0  0
   -0.0844   -0.9597    0.4249 N   0  0  0  0  0  2  0  0  0  0  0  0
   -1.2440   -0.6122    0.9226 N   0  0  0  0  0  0  0  0  0  0  0  0
   -2.3285   -1.3392    0.9345 C   0  0  0  0  0  3  0  0  0  0  0  0
   -2.3285   -2.7034    0.3484 C   0  0  0  0  0  0  0  0  0  0  0  0
   -2.3285   -2.7034   -1.1850 C   0  0  0  0  0  0  0  0  0  0  0  0
    0.6793   -0.0390    0.6506 H   0  0  0  0  0  0  0  0  0  0  0  0
   -1.3444    0.3047    1.3506 H   0  0  0  0  0  0  0  0  0  0  0  0
   -3.1992   -0.8797    1.3767 H   0  0  0  0  0  0  0  0  0  0  0  0
   -3.1970   -3.2474    0.7234 H   0  0  0  0  0  0  0  0  0  0  0  0
   -1.4305   -3.2246    0.6970 H   0  0  0  0  0  0  0  0  0  0  0  0
   -1.4569   -2.1665   -1.5589 H   0  0  0  0  0  0  0  0  0  0  0  0
   -3.2287   -2.2261   -1.5762 H   0  0  0  0  0  0  0  0  0  0  0  0
   -2.2916   -3.7251   -1.5664 H   0  0  0  0  0  0  0  0  0  0  0  0
  1  2  1  0
  1  5  1  0
  1  6  1  0
  2  3  1  0
  3  4  2  3
  4  7  1  0
  4  8  1  0
  9 10  1  0
  9 14  1  0
 10 11  1  0
 10 15  1  0
 11 12  1  0
 11 16  1  0
 12 13  1  0
 12 17  1  0
 12 18  1  0
 13 19  1  0
 13 20  1  0
 13 21  1  0
M  CHG  2   9  -1  11   1
M  RAD  1   1   2
M  END
>  <reaction>  (16) 
rmg_rxn_15651

>  <mol_properties>  (16) 
{"0": {"label": "*3", "atom_type": "Cs"}, "1": {"label": "*4", "atom_type": "O2s"}, "8": {"label": "*1", "atom_type": "N1sc"}, "9": {"label": "*0", "atom_type": "N3s"}, "13": {"label": "*2", "atom_type": "H0"}}

>  <type>  (16) 
unop_12

>  <geom_source>  (16) 
Heuristics

$$$$

     RDKit          3D

 21 19  0  0  0  0  0  0  0  0999 V2000
    2.0704    1.3849    0.1869 C   0  0  0  0  0  3  0  0  0  0  0  0
    2.2947    0.4106   -0.7863 O   0  0  0  0  0  0  0  0  0  0  0  0
    2.6332   -0.8597   -0.4500 N   0  0  0  0  0  0  0  0  0  0  0  0
    2.6577   -1.2576    0.7478 C   0  0  0  0  0  0  0  0  0  0  0  0
    2.7846    1.3795    1.0066 H   0  0  0  0  0  0  0  0  0  0  0  0
    2.0170    2.3371   -0.3281 H   0  0  0  0  0  0  0  0  0  0  0  0
    2.9443   -2.2851    0.8868 H   0  0  0  0  0  0  0  0  0  0  0  0
    2.4051   -0.6768    1.6300 H   0  0  0  0  0  0  0  0  0  0  0  0
   -0.2746    0.7449    0.8516 N   0  0  0  0  0  2  0  0  0  0  0  0
   -0.6254    0.1455   -0.2243 N   0  0  0  0  0  0  0  0  0  0  0  0
   -1.7854   -0.3861   -0.5084 C   0  0  0  0  0  3  0  0  0  0  0  0
   -2.9204   -0.3278    0.4560 C   0  0  0  0  0  0  0  0  0  0  0  0
   -4.2442   -0.0293   -0.2432 C   0  0  0  0  0  0  0  0  0  0  0  0
    0.8733    1.1555    0.6983 H   0  0  0  0  0  0  0  0  0  0  0  0
    0.0906    0.0555   -0.9669 H   0  0  0  0  0  0  0  0  0  0  0  0
   -1.8948   -0.8731   -1.4613 H   0  0  0  0  0  0  0  0  0  0  0  0
   -2.6898    0.4469    1.1914 H   0  0  0  0  0  0  0  0  0  0  0  0
   -3.0079   -1.2785    0.9948 H   0  0  0  0  0  0  0  0  0  0  0  0
   -5.0542    0.0044    0.4810 H   0  0  0  0  0  0  0  0  0  0  0  0
   -4.4698   -0.8003   -0.9769 H   0  0  0  0  0  0  0  0  0  0  0  0
   -4.1977    0.9294   -0.7542 H   0  0  0  0  0  0  0  0  0  0  0  0
  1  2  1  0
  1  5  1  0
  1  6  1  0
  2  3  1  0
  3  4  2  3
  4  7  1  0
  4  8  1  0
  9 10  1  0
  9 14  1  0
 10 11  1  0
 10 15  1  0
 11 12  1  0
 11 16  1  0
 12 13  1  0
 12 17  1  0
 12 18  1  0
 13 19  1  0
 13 20  1  0
 13 21  1  0
M  CHG  2   9  -1  11   1
M  RAD  1   1   2
M  END
>  <reaction>  (17) 
rmg_rxn_15651

>  <mol_properties>  (17) 
{"0": {"label": "*3", "atom_type": "Cs"}, "1": {"label": "*4", "atom_type": "O2s"}, "8": {"label": "*1", "atom_type": "N1sc"}, "9": {"label": "*0", "atom_type": "N3s"}, "13": {"label": "*2", "atom_type": "H0"}}

>  <type>  (17) 
unop_13

>  <geom_source>  (17) 
Heuristics

$$$$

     RDKit          3D

 21 19  0  0  0  0  0  0  0  0999 V2000
    1.2429    1.1637    0.8695 C   0  0  0  0  0  3  0  0  0  0  0  0
    1.6926    1.6076   -0.3955 O   0  0  0  0  0  0  0  0  0  0  0  0
    3.0193    1.9578   -0.3188 N   0  0  0  0  0  0  0  0  0  0  0  0
    3.4679    2.3624   -1.4286 C   0  0  0  0  0  0  0  0  0  0  0  0
    1.8022    0.2842    1.1964 H   0  0  0  0  0  0  0  0  0  0  0  0
    1.3369    1.9545    1.6171 H   0  0  0  0  0  0  0  0  0  0  0  0
    4.5082    2.6581   -1.4523 H   0  0  0  0  0  0  0  0  0  0  0  0
    2.8533    2.4169   -2.3246 H   0  0  0  0  0  0  0  0  0  0  0  0
   -0.3403   -0.7450    0.4017 N   0  0  0  0  0  2  0  0  0  0  0  0
   -1.5000   -0.3975    0.8994 N   0  0  0  0  0  0  0  0  0  0  0  0
   -2.5845   -1.1245    0.9113 C   0  0  0  0  0  3  0  0  0  0  0  0
   -2.5845   -2.4887    0.3252 C   0  0  0  0  0  0  0  0  0  0  0  0
   -2.5845   -2.4887   -1.2082 C   0  0  0  0  0  0  0  0  0  0  0  0
    0.4234    0.1757    0.6274 H   0  0  0  0  0  0  0  0  0  0  0  0
   -1.6004    0.5193    1.3274 H   0  0  0  0  0  0  0  0  0  0  0  0
   -3.4551   -0.6651    1.3535 H   0  0  0  0  0  0  0  0  0  0  0  0
   -3.4530   -3.0327    0.7002 H   0  0  0  0  0  0  0  0  0  0  0  0
   -1.6864   -3.0099    0.6738 H   0  0  0  0  0  0  0  0  0  0  0  0
   -1.7129   -1.9518   -1.5821 H   0  0  0  0  0  0  0  0  0  0  0  0
   -3.4846   -2.0114   -1.5994 H   0  0  0  0  0  0  0  0  0  0  0  0
   -2.5476   -3.5104   -1.5896 H   0  0  0  0  0  0  0  0  0  0  0  0
  1  2  1  0
  1  5  1  0
  1  6  1  0
  2  3  1  0
  3  4  2  3
  4  7  1  0
  4  8  1  0
  9 10  1  0
  9 14  1  0
 10 11  1  0
 10 15  1  0
 11 12  1  0
 11 16  1  0
 12 13  1  0
 12 17  1  0
 12 18  1  0
 13 19  1  0
 13 20  1  0
 13 21  1  0
M  CHG  2   9  -1  11   1
M  RAD  1   1   2
M  END
>  <reaction>  (18) 
rmg_rxn_15651

>  <mol_properties>  (18) 
{"0": {"label": "*3", "atom_type": "Cs"}, "1": {"label": "*4", "atom_type": "O2s"}, "8": {"label": "*1", "atom_type": "N1sc"}, "9": {"label": "*0", "atom_type": "N3s"}, "13": {"label": "*2", "atom_type": "H0"}}

>  <type>  (18) 
unop_14

>  <geom_source>  (18) 
Heuristics

$$$$

     RDKit          3D

 21 19  0  0  0  0  0  0  0  0999 V2000
    2.0693   -1.3850   -0.1825 C   0  0  0  0  0  3  0  0  0  0  0  0
    2.2949   -0.4081    0.7878 O   0  0  0  0  0  0  0  0  0  0  0  0
    2.6388    0.8598    0.4482 N   0  0  0  0  0  0  0  0  0  0  0  0
    2.6665    1.2542   -0.7507 C   0  0  0  0  0  0  0  0  0  0  0  0
    2.7831   -1.3827   -1.0026 H   0  0  0  0  0  0  0  0  0  0  0  0
    2.0154   -2.3357    0.3353 H   0  0  0  0  0  0  0  0  0  0  0  0
    2.9575    2.2801   -0.8922 H   0  0  0  0  0  0  0  0  0  0  0  0
    2.4129    0.6719   -1.6316 H   0  0  0  0  0  0  0  0  0  0  0  0
   -0.2759   -0.7476   -0.8492 N   0  0  0  0  0  2  0  0  0  0  0  0
   -0.6270   -0.1431    0.2238 N   0  0  0  0  0  0  0  0  0  0  0  0
   -1.7884    0.3868    0.5055 C   0  0  0  0  0  3  0  0  0  0  0  0
   -2.9234    0.3189   -0.4582 C   0  0  0  0  0  0  0  0  0  0  0  0
   -4.2488    0.0377    0.2448 C   0  0  0  0  0  0  0  0  0  0  0  0
    0.8721   -1.1568   -0.6943 H   0  0  0  0  0  0  0  0  0  0  0  0
    0.0895   -0.0471    0.9652 H   0  0  0  0  0  0  0  0  0  0  0  0
   -1.8987    0.8797    1.4552 H   0  0  0  0  0  0  0  0  0  0  0  0
   -2.6960   -0.4684   -1.1814 H   0  0  0  0  0  0  0  0  0  0  0  0
   -3.0060    1.2611   -1.0126 H   0  0  0  0  0  0  0  0  0  0  0  0
   -4.4713    0.8217    0.9655 H   0  0  0  0  0  0  0  0  0  0  0  0
   -4.2069   -0.9127    0.7716 H   0  0  0  0  0  0  0  0  0  0  0  0
   -5.0584   -0.0042   -0.4793 H   0  0  0  0  0  0  0  0  0  0  0  0
  1  2  1  0
  1  5  1  0
  1  6  1  0
  2  3  1  0
  3  4  2  3
  4  7  1  0
  4  8  1  0
  9 10  1  0
  9 14  1  0
 10 11  1  0
 10 15  1  0
 11 12  1  0
 11 16  1  0
 12 13  1  0
 12 17  1  0
 12 18  1  0
 13 19  1  0
 13 20  1  0
 13 21  1  0
M  CHG  2   9  -1  11   1
M  RAD  1   1   2
M  END
>  <reaction>  (19) 
rmg_rxn_15651

>  <mol_properties>  (19) 
{"0": {"label": "*3", "atom_type": "Cs"}, "1": {"label": "*4", "atom_type": "O2s"}, "8": {"label": "*1", "atom_type": "N1sc"}, "9": {"label": "*0", "atom_type": "N3s"}, "13": {"label": "*2", "atom_type": "H0"}}

>  <type>  (19) 
unop_15

>  <geom_source>  (19) 
Heuristics

$$$$

     RDKit          3D

 21 19  0  0  0  0  0  0  0  0999 V2000
    1.1869    1.4762   -0.2025 C   0  0  0  0  0  3  0  0  0  0  0  0
    1.7658    1.1944    1.0564 O   0  0  0  0  0  0  0  0  0  0  0  0
    3.0931    1.5509    1.0461 N   0  0  0  0  0  0  0  0  0  0  0  0
    3.6555    1.3171    2.1533 C   0  0  0  0  0  0  0  0  0  0  0  0
    1.2444    2.5433   -0.4289 H   0  0  0  0  0  0  0  0  0  0  0  0
    1.6791    0.9080   -0.9949 H   0  0  0  0  0  0  0  0  0  0  0  0
    4.7046    1.5705    2.2272 H   0  0  0  0  0  0  0  0  0  0  0  0
    3.1266    0.8836    2.9994 H   0  0  0  0  0  0  0  0  0  0  0  0
   -0.3964   -0.4325   -0.6703 N   0  0  0  0  0  2  0  0  0  0  0  0
   -1.5560   -0.0850   -0.1726 N   0  0  0  0  0  0  0  0  0  0  0  0
   -2.6405   -0.8120   -0.1607 C   0  0  0  0  0  3  0  0  0  0  0  0
   -2.6405   -2.1762   -0.7468 C   0  0  0  0  0  0  0  0  0  0  0  0
   -2.6405   -2.1762   -2.2802 C   0  0  0  0  0  0  0  0  0  0  0  0
    0.3673    0.4882   -0.4446 H   0  0  0  0  0  0  0  0  0  0  0  0
   -1.6564    0.8319    0.2554 H   0  0  0  0  0  0  0  0  0  0  0  0
   -3.5112   -0.3525    0.2815 H   0  0  0  0  0  0  0  0  0  0  0  0
   -3.5091   -2.7202   -0.3718 H   0  0  0  0  0  0  0  0  0  0  0  0
   -1.7425   -2.6974   -0.3982 H   0  0  0  0  0  0  0  0  0  0  0  0
   -1.7689   -1.6393   -2.6541 H   0  0  0  0  0  0  0  0  0  0  0  0
   -3.5407   -1.6989   -2.6714 H   0  0  0  0  0  0  0  0  0  0  0  0
   -2.6037   -3.1979   -2.6616 H   0  0  0  0  0  0  0  0  0  0  0  0
  1  2  1  0
  1  5  1  0
  1  6  1  0
  2  3  1  0
  3  4  2  3
  4  7  1  0
  4  8  1  0
  9 10  1  0
  9 14  1  0
 10 11  1  0
 10 15  1  0
 11 12  1  0
 11 16  1  0
 12 13  1  0
 12 17  1  0
 12 18  1  0
 13 19  1  0
 13 20  1  0
 13 21  1  0
M  CHG  2   9  -1  11   1
M  RAD  1   1   2
M  END
>  <reaction>  (20) 
rmg_rxn_15651

>  <mol_properties>  (20) 
{"0": {"label": "*3", "atom_type": "Cs"}, "1": {"label": "*4", "atom_type": "O2s"}, "8": {"label": "*1", "atom_type": "N1sc"}, "9": {"label": "*0", "atom_type": "N3s"}, "13": {"label": "*2", "atom_type": "H0"}}

>  <type>  (20) 
unop_16

>  <geom_source>  (20) 
Heuristics

$$$$

     RDKit          3D

 21 19  0  0  0  0  0  0  0  0999 V2000
    2.0722    1.3847    0.1803 C   0  0  0  0  0  3  0  0  0  0  0  0
    2.2967    0.4059   -0.7883 O   0  0  0  0  0  0  0  0  0  0  0  0
    2.6358   -0.8627   -0.4463 N   0  0  0  0  0  0  0  0  0  0  0  0
    2.6590   -1.2557    0.7531 C   0  0  0  0  0  0  0  0  0  0  0  0
    2.7848    1.3817    1.0014 H   0  0  0  0  0  0  0  0  0  0  0  0
    2.0214    2.3348   -0.3389 H   0  0  0  0  0  0  0  0  0  0  0  0
    2.9462   -2.2824    0.8966 H   0  0  0  0  0  0  0  0  0  0  0  0
    2.4049   -0.6715    1.6326 H   0  0  0  0  0  0  0  0  0  0  0  0
   -0.2747    0.7528    0.8464 N   0  0  0  0  0  2  0  0  0  0  0  0
   -0.6253    0.1433   -0.2239 N   0  0  0  0  0  0  0  0  0  0  0  0
   -1.7872   -0.3870   -0.5035 C   0  0  0  0  0  3  0  0  0  0  0  0
   -2.9223   -0.3121    0.4595 C   0  0  0  0  0  0  0  0  0  0  0  0
   -4.2485   -0.0422   -0.2463 C   0  0  0  0  0  0  0  0  0  0  0  0
    0.8738    1.1602    0.6908 H   0  0  0  0  0  0  0  0  0  0  0  0
    0.0914    0.0432   -0.9645 H   0  0  0  0  0  0  0  0  0  0  0  0
   -1.8975   -0.8850   -1.4505 H   0  0  0  0  0  0  0  0  0  0  0  0
   -2.6969    0.4834    1.1744 H   0  0  0  0  0  0  0  0  0  0  0  0
   -3.0022   -1.2486    1.0241 H   0  0  0  0  0  0  0  0  0  0  0  0
   -4.4700   -0.8356   -0.9571 H   0  0  0  0  0  0  0  0  0  0  0  0
   -4.2086    0.9016   -0.7851 H   0  0  0  0  0  0  0  0  0  0  0  0
   -5.0578    0.0075    0.4775 H   0  0  0  0  0  0  0  0  0  0  0  0
  1  2  1  0
  1  5  1  0
  1  6  1  0
  2  3  1  0
  3  4  2  3
  4  7  1  0
  4  8  1  0
  9 10  1  0
  9 14  1  0
 10 11  1  0
 10 15  1  0
 11 12  1  0
 11 16  1  0
 12 13  1  0
 12 17  1  0
 12 18  1  0
 13 19  1  0
 13 20  1  0
 13 21  1  0
M  CHG  2   9  -1  11   1
M  RAD  1   1   2
M  END
>  <reaction>  (21) 
rmg_rxn_15651

>  <mol_properties>  (21) 
{"0": {"label": "*3", "atom_type": "Cs"}, "1": {"label": "*4", "atom_type": "O2s"}, "8": {"label": "*1", "atom_type": "N1sc"}, "9": {"label": "*0", "atom_type": "N3s"}, "13": {"label": "*2", "atom_type": "H0"}}

>  <type>  (21) 
unop_17

>  <geom_source>  (21) 
Heuristics

$$$$

     RDKit          3D

 21 19  0  0  0  0  0  0  0  0999 V2000
    1.9027    0.6797    0.3733 C   0  0  0  0  0  3  0  0  0  0  0  0
    1.1042    1.8466    0.3827 O   0  0  0  0  0  0  0  0  0  0  0  0
    1.9006    2.9542    0.2162 N   0  0  0  0  0  0  0  0  0  0  0  0
    1.2299    4.0251    0.2179 C   0  0  0  0  0  0  0  0  0  0  0  0
    2.4279    0.5734   -0.5786 H   0  0  0  0  0  0  0  0  0  0  0  0
    2.6276    0.6957    1.1902 H   0  0  0  0  0  0  0  0  0  0  0  0
    1.7850    4.9451    0.0916 H   0  0  0  0  0  0  0  0  0  0  0  0
    0.1488    4.0395    0.3390 H   0  0  0  0  0  0  0  0  0  0  0  0
    0.3195   -1.2291   -0.0945 N   0  0  0  0  0  2  0  0  0  0  0  0
   -0.8401   -0.8815    0.4032 N   0  0  0  0  0  0  0  0  0  0  0  0
   -1.9246   -1.6085    0.4151 C   0  0  0  0  0  3  0  0  0  0  0  0
   -1.9246   -2.9728   -0.1711 C   0  0  0  0  0  0  0  0  0  0  0  0
   -1.9246   -2.9728   -1.7045 C   0  0  0  0  0  0  0  0  0  0  0  0
    1.0832   -0.3084    0.1311 H   0  0  0  0  0  0  0  0  0  0  0  0
   -0.9405    0.0353    0.8312 H   0  0  0  0  0  0  0  0  0  0  0  0
   -2.7953   -1.1491    0.8573 H   0  0  0  0  0  0  0  0  0  0  0  0
   -2.7932   -3.5167    0.2039 H   0  0  0  0  0  0  0  0  0  0  0  0
   -1.0266   -3.4939    0.1776 H   0  0  0  0  0  0  0  0  0  0  0  0
   -1.0530   -2.4358   -2.0783 H   0  0  0  0  0  0  0  0  0  0  0  0
   -2.8248   -2.4954   -2.0957 H   0  0  0  0  0  0  0  0  0  0  0  0
   -1.8878   -3.9944   -2.0859 H   0  0  0  0  0  0  0  0  0  0  0  0
  1  2  1  0
  1  5  1  0
  1  6  1  0
  2  3  1  0
  3  4  2  3
  4  7  1  0
  4  8  1  0
  9 10  1  0
  9 14  1  0
 10 11  1  0
 10 15  1  0
 11 12  1  0
 11 16  1  0
 12 13  1  0
 12 17  1  0
 12 18  1  0
 13 19  1  0
 13 20  1  0
 13 21  1  0
M  CHG  2   9  -1  11   1
M  RAD  1   1   2
M  END
>  <reaction>  (22) 
rmg_rxn_15651

>  <mol_properties>  (22) 
{"0": {"label": "*3", "atom_type": "Cs"}, "1": {"label": "*4", "atom_type": "O2s"}, "8": {"label": "*1", "atom_type": "N1sc"}, "9": {"label": "*0", "atom_type": "N3s"}, "13": {"label": "*2", "atom_type": "H0"}}

>  <type>  (22) 
unop_18

>  <geom_source>  (22) 
Heuristics

$$$$

     RDKit          3D

 21 19  0  0  0  0  0  0  0  0999 V2000
    1.4432    1.2770   -0.3584 C   0  0  0  0  0  3  0  0  0  0  0  0
    1.4746    1.4130    1.0488 O   0  0  0  0  0  0  0  0  0  0  0  0
    2.7157    1.8511    1.4442 N   0  0  0  0  0  0  0  0  0  0  0  0
    2.7930    1.9883    2.6979 C   0  0  0  0  0  0  0  0  0  0  0  0
    1.6307    2.2354   -0.8478 H   0  0  0  0  0  0  0  0  0  0  0  0
    2.1793    0.5443   -0.6966 H   0  0  0  0  0  0  0  0  0  0  0  0
    3.7409    2.3310    3.0907 H   0  0  0  0  0  0  0  0  0  0  0  0
    1.9585    1.7770    3.3632 H   0  0  0  0  0  0  0  0  0  0  0  0
   -0.1401   -0.6317   -0.8261 N   0  0  0  0  0  2  0  0  0  0  0  0
   -1.2997   -0.2842   -0.3284 N   0  0  0  0  0  0  0  0  0  0  0  0
   -2.3842   -1.0112   -0.3166 C   0  0  0  0  0  3  0  0  0  0  0  0
   -2.3842   -2.3754   -0.9027 C   0  0  0  0  0  0  0  0  0  0  0  0
   -2.3842   -2.3754   -2.4361 C   0  0  0  0  0  0  0  0  0  0  0  0
    0.6236    0.2890   -0.6005 H   0  0  0  0  0  0  0  0  0  0  0  0
   -1.4001    0.6327    0.0996 H   0  0  0  0  0  0  0  0  0  0  0  0
   -3.2549   -0.5517    0.1257 H   0  0  0  0  0  0  0  0  0  0  0  0
   -3.2528   -2.9193   -0.5277 H   0  0  0  0  0  0  0  0  0  0  0  0
   -1.4862   -2.8966   -0.5540 H   0  0  0  0  0  0  0  0  0  0  0  0
   -1.5126   -1.8385   -2.8100 H   0  0  0  0  0  0  0  0  0  0  0  0
   -3.2844   -1.8981   -2.8273 H   0  0  0  0  0  0  0  0  0  0  0  0
   -2.3474   -3.3971   -2.8175 H   0  0  0  0  0  0  0  0  0  0  0  0
  1  2  1  0
  1  5  1  0
  1  6  1  0
  2  3  1  0
  3  4  2  3
  4  7  1  0
  4  8  1  0
  9 10  1  0
  9 14  1  0
 10 11  1  0
 10 15  1  0
 11 12  1  0
 11 16  1  0
 12 13  1  0
 12 17  1  0
 12 18  1  0
 13 19  1  0
 13 20  1  0
 13 21  1  0
M  CHG  2   9  -1  11   1
M  RAD  1   1   2
M  END
>  <reaction>  (23) 
rmg_rxn_15651

>  <mol_properties>  (23) 
{"0": {"label": "*3", "atom_type": "Cs"}, "1": {"label": "*4", "atom_type": "O2s"}, "8": {"label": "*1", "atom_type": "N1sc"}, "9": {"label": "*0", "atom_type": "N3s"}, "13": {"label": "*2", "atom_type": "H0"}}

>  <type>  (23) 
unop_19

>  <geom_source>  (23) 
Heuristics

$$$$

     RDKit          3D

 21 19  0  0  0  0  0  0  0  0999 V2000
    1.0635    1.3143    0.7003 C   0  0  0  0  0  3  0  0  0  0  0  0
    2.0046    1.2991   -0.3550 O   0  0  0  0  0  0  0  0  0  0  0  0
    3.1847    1.8617    0.0688 N   0  0  0  0  0  0  0  0  0  0  0  0
    4.0599    1.8709   -0.8426 C   0  0  0  0  0  0  0  0  0  0  0  0
    1.4230    0.7338    1.5529 H   0  0  0  0  0  0  0  0  0  0  0  0
    0.8503    2.3371    1.0190 H   0  0  0  0  0  0  0  0  0  0  0  0
    5.0204    2.2987   -0.5882 H   0  0  0  0  0  0  0  0  0  0  0  0
    3.8739    1.4730   -1.8379 H   0  0  0  0  0  0  0  0  0  0  0  0
   -0.5198   -0.5945    0.2325 N   0  0  0  0  0  2  0  0  0  0  0  0
   -1.6794   -0.2469    0.7302 N   0  0  0  0  0  0  0  0  0  0  0  0
   -2.7639   -0.9740    0.7421 C   0  0  0  0  0  3  0  0  0  0  0  0
   -2.7639   -2.3382    0.1560 C   0  0  0  0  0  0  0  0  0  0  0  0
   -2.7639   -2.3382   -1.3774 C   0  0  0  0  0  0  0  0  0  0  0  0
    0.2439    0.3262    0.4581 H   0  0  0  0  0  0  0  0  0  0  0  0
   -1.7798    0.6699    1.1582 H   0  0  0  0  0  0  0  0  0  0  0  0
   -3.6346   -0.5145    1.1843 H   0  0  0  0  0  0  0  0  0  0  0  0
   -3.6325   -2.8821    0.5310 H   0  0  0  0  0  0  0  0  0  0  0  0
   -1.8659   -2.8594    0.5046 H   0  0  0  0  0  0  0  0  0  0  0  0
   -1.8923   -1.8013   -1.7513 H   0  0  0  0  0  0  0  0  0  0  0  0
   -3.6641   -1.8608   -1.7686 H   0  0  0  0  0  0  0  0  0  0  0  0
   -2.7271   -3.3599   -1.7588 H   0  0  0  0  0  0  0  0  0  0  0  0
  1  2  1  0
  1  5  1  0
  1  6  1  0
  2  3  1  0
  3  4  2  3
  4  7  1  0
  4  8  1  0
  9 10  1  0
  9 14  1  0
 10 11  1  0
 10 15  1  0
 11 12  1  0
 11 16  1  0
 12 13  1  0
 12 17  1  0
 12 18  1  0
 13 19  1  0
 13 20  1  0
 13 21  1  0
M  CHG  2   9  -1  11   1
M  RAD  1   1   2
M  END
>  <reaction>  (24) 
rmg_rxn_15651

>  <mol_properties>  (24) 
{"0": {"label": "*3", "atom_type": "Cs"}, "1": {"label": "*4", "atom_type": "O2s"}, "8": {"label": "*1", "atom_type": "N1sc"}, "9": {"label": "*0", "atom_type": "N3s"}, "13": {"label": "*2", "atom_type": "H0"}}

>  <type>  (24) 
unop_20

>  <geom_source>  (24) 
Heuristics

$$$$

     RDKit          3D

 21 19  0  0  0  0  0  0  0  0999 V2000
    1.8892    0.7690   -0.0241 C   0  0  0  0  0  3  0  0  0  0  0  0
    1.1253    1.7415    0.6617 O   0  0  0  0  0  0  0  0  0  0  0  0
    1.9153    2.8261    0.9587 N   0  0  0  0  0  0  0  0  0  0  0  0
    1.2748    3.7250    1.5739 C   0  0  0  0  0  0  0  0  0  0  0  0
    2.2761    1.1680   -0.9645 H   0  0  0  0  0  0  0  0  0  0  0  0
    2.7197    0.4184    0.5927 H   0  0  0  0  0  0  0  0  0  0  0  0
    1.8273    4.6148    1.8448 H   0  0  0  0  0  0  0  0  0  0  0  0
    0.2213    3.6256    1.8262 H   0  0  0  0  0  0  0  0  0  0  0  0
    0.3060   -1.1398   -0.4919 N   0  0  0  0  0  2  0  0  0  0  0  0
   -0.8537   -0.7922    0.0058 N   0  0  0  0  0  0  0  0  0  0  0  0
   -1.9382   -1.5192    0.0177 C   0  0  0  0  0  3  0  0  0  0  0  0
   -1.9382   -2.8835   -0.5684 C   0  0  0  0  0  0  0  0  0  0  0  0
   -1.9382   -2.8835   -2.1018 C   0  0  0  0  0  0  0  0  0  0  0  0
    1.0696   -0.2191   -0.2662 H   0  0  0  0  0  0  0  0  0  0  0  0
   -0.9541    0.1246    0.4338 H   0  0  0  0  0  0  0  0  0  0  0  0
   -2.8088   -1.0598    0.4599 H   0  0  0  0  0  0  0  0  0  0  0  0
   -2.8067   -3.4274   -0.1934 H   0  0  0  0  0  0  0  0  0  0  0  0
   -1.0401   -3.4046   -0.2198 H   0  0  0  0  0  0  0  0  0  0  0  0
   -1.0666   -2.3465   -2.4757 H   0  0  0  0  0  0  0  0  0  0  0  0
   -2.8383   -2.4061   -2.4930 H   0  0  0  0  0  0  0  0  0  0  0  0
   -1.9013   -3.9051   -2.4832 H   0  0  0  0  0  0  0  0  0  0  0  0
  1  2  1  0
  1  5  1  0
  1  6  1  0
  2  3  1  0
  3  4  2  3
  4  7  1  0
  4  8  1  0
  9 10  1  0
  9 14  1  0
 10 11  1  0
 10 15  1  0
 11 12  1  0
 11 16  1  0
 12 13  1  0
 12 17  1  0
 12 18  1  0
 13 19  1  0
 13 20  1  0
 13 21  1  0
M  CHG  2   9  -1  11   1
M  RAD  1   1   2
M  END
>  <reaction>  (25) 
rmg_rxn_15651

>  <mol_properties>  (25) 
{"0": {"label": "*3", "atom_type": "Cs"}, "1": {"label": "*4", "atom_type": "O2s"}, "8": {"label": "*1", "atom_type": "N1sc"}, "9": {"label": "*0", "atom_type": "N3s"}, "13": {"label": "*2", "atom_type": "H0"}}

>  <type>  (25) 
unop_21

>  <geom_source>  (25) 
Heuristics

$$$$

     RDKit          3D

 21 19  0  0  0  0  0  0  0  0999 V2000
    1.7100    1.0054   -0.3034 C   0  0  0  0  0  3  0  0  0  0  0  0
    1.2498    1.6005    0.8939 O   0  0  0  0  0  0  0  0  0  0  0  0
    2.2514    2.3615    1.4476 N   0  0  0  0  0  0  0  0  0  0  0  0
    1.8867    2.9155    2.5231 C   0  0  0  0  0  0  0  0  0  0  0  0
    1.9940    1.7663   -1.0339 H   0  0  0  0  0  0  0  0  0  0  0  0
    2.5611    0.3484   -0.1111 H   0  0  0  0  0  0  0  0  0  0  0  0
    2.6201    3.5340    3.0229 H   0  0  0  0  0  0  0  0  0  0  0  0
    0.8898    2.7877    2.9395 H   0  0  0  0  0  0  0  0  0  0  0  0
    0.1267   -0.9033   -0.7712 N   0  0  0  0  0  2  0  0  0  0  0  0
   -1.0329   -0.5557   -0.2735 N   0  0  0  0  0  0  0  0  0  0  0  0
   -2.1174   -1.2828   -0.2616 C   0  0  0  0  0  3  0  0  0  0  0  0
   -2.1174   -2.6470   -0.8478 C   0  0  0  0  0  0  0  0  0  0  0  0
   -2.1174   -2.6470   -2.3811 C   0  0  0  0  0  0  0  0  0  0  0  0
    0.8904    0.0174   -0.5456 H   0  0  0  0  0  0  0  0  0  0  0  0
   -1.1333    0.3611    0.1545 H   0  0  0  0  0  0  0  0  0  0  0  0
   -2.9881   -0.8233    0.1806 H   0  0  0  0  0  0  0  0  0  0  0  0
   -2.9860   -3.1909   -0.4728 H   0  0  0  0  0  0  0  0  0  0  0  0
   -1.2194   -3.1682   -0.4991 H   0  0  0  0  0  0  0  0  0  0  0  0
   -1.2458   -2.1101   -2.7550 H   0  0  0  0  0  0  0  0  0  0  0  0
   -3.0176   -2.1697   -2.7723 H   0  0  0  0  0  0  0  0  0  0  0  0
   -2.0806   -3.6687   -2.7626 H   0  0  0  0  0  0  0  0  0  0  0  0
  1  2  1  0
  1  5  1  0
  1  6  1  0
  2  3  1  0
  3  4  2  3
  4  7  1  0
  4  8  1  0
  9 10  1  0
  9 14  1  0
 10 11  1  0
 10 15  1  0
 11 12  1  0
 11 16  1  0
 12 13  1  0
 12 17  1  0
 12 18  1  0
 13 19  1  0
 13 20  1  0
 13 21  1  0
M  CHG  2   9  -1  11   1
M  RAD  1   1   2
M  END
>  <reaction>  (26) 
rmg_rxn_15651

>  <mol_properties>  (26) 
{"0": {"label": "*3", "atom_type": "Cs"}, "1": {"label": "*4", "atom_type": "O2s"}, "8": {"label": "*1", "atom_type": "N1sc"}, "9": {"label": "*0", "atom_type": "N3s"}, "13": {"label": "*2", "atom_type": "H0"}}

>  <type>  (26) 
unop_22

>  <geom_source>  (26) 
gaussian_log

$$$$
