
     RDKit          3D

 13 12  0  0  0  0  0  0  0  0999 V2000
   -2.5787    0.3845    0.5363 N   0  0  0  0  0  1  0  0  0  0  0  0
   -2.0448   -0.2878   -0.3016 N   0  0  0  0  0  0  0  0  0  0  0  0
   -0.5705   -0.4119   -0.5708 C   0  0  0  0  0  0  0  0  0  0  0  0
    0.2772    0.2247    0.5075 C   0  0  0  0  0  0  0  0  0  0  0  0
    0.2957   -0.5646    1.8104 C   0  0  0  0  0  0  0  0  0  0  0  0
   -2.5889   -0.8713   -0.9748 H   0  0  0  0  0  0  0  0  0  0  0  0
   -0.3659   -1.4815   -0.6747 H   0  0  0  0  0  0  0  0  0  0  0  0
   -0.4043    0.0541   -1.5457 H   0  0  0  0  0  0  0  0  0  0  0  0
    1.2919    0.3223    0.1145 H   0  0  0  0  0  0  0  0  0  0  0  0
   -0.0978    1.2330    0.6915 H   0  0  0  0  0  0  0  0  0  0  0  0
    0.6693   -1.5792    1.6503 H   0  0  0  0  0  0  0  0  0  0  0  0
   -0.7042   -0.6287    2.2395 H   0  0  0  0  0  0  0  0  0  0  0  0
    0.9431   -0.0833    2.5443 H   0  0  0  0  0  0  0  0  0  0  0  0
  1  2  1  0
  2  3  1  0
  2  6  1  0
  3  4  1  0
  3  7  1  0
  3  8  1  0
  4  5  1  0
  4  9  1  0
  4 10  1  0
  5 11  1  0
  5 12  1  0
  5 13  1  0
M  RAD  1   1   3
M  END
>  <reaction>  (1) 
rmg_rxn_16706

>  <mol_properties>  (1) 
{"2": {"label": "donator", "atom_type": "Cs"}, "6": {"label": "d_hydrogen", "atom_type": "H0"}}

>  <type>  (1) 
r1h

$$$$

     RDKit          3D

  7  6  0  0  0  0  0  0  0  0999 V2000
   -0.8578   -0.1277   -0.1330 C   0  0  0  0  0  0  0  0  0  0  0  0
    0.5137   -0.3687    0.3793 C   0  0  0  0  0  3  0  0  0  0  0  0
    1.4512    0.4166    0.5221 N   0  0  0  0  0  0  0  0  0  0  0  0
   -1.0403   -0.7609   -1.0021 H   0  0  0  0  0  0  0  0  0  0  0  0
   -1.5871   -0.4048    0.6293 H   0  0  0  0  0  0  0  0  0  0  0  0
   -0.9959    0.9218   -0.4083 H   0  0  0  0  0  0  0  0  0  0  0  0
    2.3214    0.0450    0.8949 H   0  0  0  0  0  0  0  0  0  0  0  0
  1  2  1  0
  1  4  1  0
  1  5  1  0
  1  6  1  0
  2  3  2  3
  3  7  1  0
M  RAD  1   2   2
M  END
>  <reaction>  (2) 
rmg_rxn_16706

>  <mol_properties>  (2) 
{"1": {"label": "acceptor", "atom_type": "Cd"}}

>  <type>  (2) 
r2

$$$$

     RDKit          3D

  8  7  0  0  0  0  0  0  0  0999 V2000
    0.9548    0.1194   -0.0790 C   0  0  0  0  0  0  0  0  0  0  0  0
   -0.4838   -0.2649    0.0193 C   0  0  0  0  0  0  0  0  0  0  0  0
   -0.8933   -1.1081    0.8664 N   0  0  0  0  0  0  0  0  0  0  0  0
    1.3360   -0.0983   -1.0800 H   0  0  0  0  0  0  0  0  0  0  0  0
    1.0698    1.1948    0.0786 H   0  0  0  0  0  0  0  0  0  0  0  0
    1.5426   -0.4219    0.6602 H   0  0  0  0  0  0  0  0  0  0  0  0
   -1.1575    0.2324   -0.6905 H   0  0  0  0  0  0  0  0  0  0  0  0
   -1.8989   -1.2455    0.7886 H   0  0  0  0  0  0  0  0  0  0  0  0
  1  2  1  0
  1  4  1  0
  1  5  1  0
  1  6  1  0
  2  3  2  3
  2  7  1  0
  3  8  1  0
M  END
>  <reaction>  (3) 
rmg_rxn_16706

>  <mol_properties>  (3) 
{"1": {"label": "acceptor", "atom_type": "Cd"}, "7": {"label": "a_hydrogen", "atom_type": "H0"}}

>  <type>  (3) 
r2h

$$$$

     RDKit          3D

 20 18  0  0  0  0  0  0  0  0999 V2000
    1.7543    1.3168   -1.0870 C   0  0  0  0  0  0  0  0  0  0  0  0
    1.7345    0.3250    0.0210 C   0  0  0  0  0  3  0  0  0  0  0  0
    2.7165   -0.2334    0.5439 N   0  0  0  0  0  0  0  0  0  0  0  0
    1.3265    2.2608   -0.7441 H   0  0  0  0  0  0  0  0  0  0  0  0
    2.7729    1.4797   -1.4414 H   0  0  0  0  0  0  0  0  0  0  0  0
    1.1215    0.9678   -1.9049 H   0  0  0  0  0  0  0  0  0  0  0  0
    2.4771   -0.8845    1.2894 H   0  0  0  0  0  0  0  0  0  0  0  0
   -1.9261    1.5027   -0.6368 N   0  0  0  0  0  1  0  0  0  0  0  0
   -1.4934    1.0757    0.4115 N   0  0  0  0  0  0  0  0  0  0  0  0
   -0.8477   -0.2077    0.6309 C   0  0  0  0  0  0  0  0  0  0  0  0
   -1.1920   -1.2801   -0.3602 C   0  0  0  0  0  0  0  0  0  0  0  0
   -0.4248   -2.5688   -0.0930 C   0  0  0  0  0  0  0  0  0  0  0  0
   -1.5176    1.6429    1.2856 H   0  0  0  0  0  0  0  0  0  0  0  0
    0.4644    0.0578    0.4252 H   0  0  0  0  0  0  0  0  0  0  0  0
   -0.9199   -0.4891    1.6834 H   0  0  0  0  0  0  0  0  0  0  0  0
   -2.2709   -1.4659   -0.3278 H   0  0  0  0  0  0  0  0  0  0  0  0
   -0.9891   -0.9070   -1.3657 H   0  0  0  0  0  0  0  0  0  0  0  0
   -0.6326   -2.9566    0.9069 H   0  0  0  0  0  0  0  0  0  0  0  0
    0.6527   -2.4128   -0.1765 H   0  0  0  0  0  0  0  0  0  0  0  0
   -0.7037   -3.3393   -0.8119 H   0  0  0  0  0  0  0  0  0  0  0  0
  1  2  1  0
  1  4  1  0
  1  5  1  0
  1  6  1  0
  2  3  2  3
  3  7  1  0
  8  9  1  0
  9 10  1  0
  9 13  1  0
 10 11  1  0
 10 14  1  0
 10 15  1  0
 11 12  1  0
 11 16  1  0
 11 17  1  0
 12 18  1  0
 12 19  1  0
 12 20  1  0
M  RAD  2   2   2   8   3
M  END
>  <reaction>  (4) 
rmg_rxn_16706

>  <mol_properties>  (4) 
{"1": {"label": "*3", "atom_type": "Cd"}, "2": {"label": "*4", "atom_type": "N3d"}, "8": {"label": "*0", "atom_type": "N3s"}, "9": {"label": "*1", "atom_type": "Cs"}, "13": {"label": "*2", "atom_type": "H0"}}

>  <type>  (4) 
ts

$$$$

     RDKit          3D

 20 18  0  0  0  0  0  0  0  0999 V2000
    1.8085    0.9887   -1.1939 C   0  0  0  0  0  0  0  0  0  0  0  0
    1.6935    0.3062    0.1138 C   0  0  0  0  0  0  0  0  0  0  0  0
    2.6695    0.0103    0.8275 N   0  0  0  0  0  0  0  0  0  0  0  0
    1.2003    1.8920   -1.1856 H   0  0  0  0  0  0  0  0  0  0  0  0
    2.8430    1.2396   -1.4210 H   0  0  0  0  0  0  0  0  0  0  0  0
    1.4115    0.3383   -1.9721 H   0  0  0  0  0  0  0  0  0  0  0  0
    2.5056   -0.4618    1.7103 H   0  0  0  0  0  0  0  0  0  0  0  0
   -2.1278    1.5040   -0.3855 N   0  0  0  0  0  1  0  0  0  0  0  0
   -1.5608    1.0437    0.5988 N   0  0  0  0  0  0  0  0  0  0  0  0
   -0.8658   -0.1608    0.6905 C   0  0  0  0  0  3  0  0  0  0  0  0
   -1.2606   -1.1827   -0.3527 C   0  0  0  0  0  0  0  0  0  0  0  0
   -0.3643   -2.4132   -0.3268 C   0  0  0  0  0  0  0  0  0  0  0  0
   -1.5196    1.6002    1.4843 H   0  0  0  0  0  0  0  0  0  0  0  0
    0.4577    0.0761    0.4284 H   0  0  0  0  0  0  0  0  0  0  0  0
   -0.8377   -0.5422    1.7119 H   0  0  0  0  0  0  0  0  0  0  0  0
   -2.3001   -1.4858   -0.1864 H   0  0  0  0  0  0  0  0  0  0  0  0
   -1.2257   -0.6964   -1.3309 H   0  0  0  0  0  0  0  0  0  0  0  0
   -0.4004   -2.8931    0.6494 H   0  0  0  0  0  0  0  0  0  0  0  0
    0.6692   -2.1472   -0.5393 H   0  0  0  0  0  0  0  0  0  0  0  0
   -0.6936   -3.1322   -1.0722 H   0  0  0  0  0  0  0  0  0  0  0  0
  1  2  1  0
  1  4  1  0
  1  5  1  0
  1  6  1  0
  2  3  2  3
  2 14  1  0
  3  7  1  0
  8  9  1  0
  9 10  1  0
  9 13  1  0
 10 11  1  0
 10 15  1  0
 11 12  1  0
 11 16  1  0
 11 17  1  0
 12 18  1  0
 12 19  1  0
 12 20  1  0
M  CHG  2   8  -1  10   1
M  RAD  1   8   2
M  END
>  <reaction>  (5) 
rmg_rxn_16706

>  <mol_properties>  (5) 
{"1": {"label": "*3", "atom_type": "Cd"}, "2": {"label": "*4", "atom_type": "N3d"}, "8": {"label": "*0", "atom_type": "N3s"}, "9": {"label": "*1", "atom_type": "Cs"}, "13": {"label": "*2", "atom_type": "H0"}}

>  <type>  (5) 
unop_1

>  <geom_source>  (5) 
crest_best.xyz

$$$$

     RDKit          3D

 20 18  0  0  0  0  0  0  0  0999 V2000
   -0.3263   -0.4500    3.0354 C   0  0  0  0  0  0  0  0  0  0  0  0
   -0.8206   -0.4144    1.6278 C   0  0  0  0  0  3  0  0  0  0  0  0
   -1.9060    0.1519    1.3154 N   0  0  0  0  0  0  0  0  0  0  0  0
   -0.2055   -1.4845    3.3669 H   0  0  0  0  0  0  0  0  0  0  0  0
    0.6570    0.0226    3.1023 H   0  0  0  0  0  0  0  0  0  0  0  0
   -1.0232    0.0646    3.6946 H   0  0  0  0  0  0  0  0  0  0  0  0
   -2.0825    0.0774    0.3157 H   0  0  0  0  0  0  0  0  0  0  0  0
    1.0038   -1.1358   -2.3199 N   0  0  0  0  0  1  0  0  0  0  0  0
    1.0038   -1.1358   -1.1203 N   0  0  0  0  0  0  0  0  0  0  0  0
    1.0038    0.0586   -0.2065 C   0  0  0  0  0  0  0  0  0  0  0  0
    0.7471    1.3563   -0.9391 C   0  0  0  0  0  0  0  0  0  0  0  0
   -0.6963    1.5189   -1.3986 C   0  0  0  0  0  0  0  0  0  0  0  0
    1.0231   -2.0197   -0.5652 H   0  0  0  0  0  0  0  0  0  0  0  0
    0.0931   -0.1775    0.7091 H   0  0  0  0  0  0  0  0  0  0  0  0
    1.9791    0.0574    0.2873 H   0  0  0  0  0  0  0  0  0  0  0  0
    1.0206    2.1736   -0.2677 H   0  0  0  0  0  0  0  0  0  0  0  0
    1.4167    1.4055   -1.7996 H   0  0  0  0  0  0  0  0  0  0  0  0
   -1.3860    1.4739   -0.5520 H   0  0  0  0  0  0  0  0  0  0  0  0
   -0.9683    0.7369   -2.1075 H   0  0  0  0  0  0  0  0  0  0  0  0
   -0.8381    2.4807   -1.8928 H   0  0  0  0  0  0  0  0  0  0  0  0
  1  2  1  0
  1  4  1  0
  1  5  1  0
  1  6  1  0
  2  3  2  3
  3  7  1  0
  8  9  1  0
  9 10  1  0
  9 13  1  0
 10 11  1  0
 10 14  1  0
 10 15  1  0
 11 12  1  0
 11 16  1  0
 11 17  1  0
 12 18  1  0
 12 19  1  0
 12 20  1  0
M  RAD  2   2   2   8   3
M  END
>  <reaction>  (6) 
rmg_rxn_16706

>  <mol_properties>  (6) 
{"1": {"label": "*3", "atom_type": "Cd"}, "2": {"label": "*4", "atom_type": "N3d"}, "8": {"label": "*0", "atom_type": "N3s"}, "9": {"label": "*1", "atom_type": "Cs"}, "13": {"label": "*2", "atom_type": "H0"}}

>  <type>  (6) 
unop_2

>  <geom_source>  (6) 
Heuristics

$$$$

     RDKit          3D

 20 18  0  0  0  0  0  0  0  0999 V2000
   -1.0366   -1.7144    1.9660 C   0  0  0  0  0  0  0  0  0  0  0  0
   -0.8172   -0.2772    1.6295 C   0  0  0  0  0  3  0  0  0  0  0  0
   -1.2041    0.6535    2.3914 N   0  0  0  0  0  0  0  0  0  0  0  0
   -1.6250   -2.1997    1.1831 H   0  0  0  0  0  0  0  0  0  0  0  0
   -0.0798   -2.2403    2.0173 H   0  0  0  0  0  0  0  0  0  0  0  0
   -1.5537   -1.8053    2.9195 H   0  0  0  0  0  0  0  0  0  0  0  0
   -0.9704    1.5649    2.0028 H   0  0  0  0  0  0  0  0  0  0  0  0
    1.0071   -0.9986   -2.3182 N   0  0  0  0  0  1  0  0  0  0  0  0
    1.0071   -0.9986   -1.1186 N   0  0  0  0  0  0  0  0  0  0  0  0
    1.0071    0.1958   -0.2048 C   0  0  0  0  0  0  0  0  0  0  0  0
    0.7505    1.4935   -0.9374 C   0  0  0  0  0  0  0  0  0  0  0  0
   -0.6929    1.6562   -1.3969 C   0  0  0  0  0  0  0  0  0  0  0  0
    1.0265   -1.8825   -0.5635 H   0  0  0  0  0  0  0  0  0  0  0  0
    0.0965   -0.0403    0.7108 H   0  0  0  0  0  0  0  0  0  0  0  0
    1.9825    0.1946    0.2889 H   0  0  0  0  0  0  0  0  0  0  0  0
    1.0240    2.3108   -0.2660 H   0  0  0  0  0  0  0  0  0  0  0  0
    1.4200    1.5427   -1.7979 H   0  0  0  0  0  0  0  0  0  0  0  0
   -1.3826    1.6111   -0.5503 H   0  0  0  0  0  0  0  0  0  0  0  0
   -0.9649    0.8742   -2.1058 H   0  0  0  0  0  0  0  0  0  0  0  0
   -0.8348    2.6179   -1.8911 H   0  0  0  0  0  0  0  0  0  0  0  0
  1  2  1  0
  1  4  1  0
  1  5  1  0
  1  6  1  0
  2  3  2  3
  3  7  1  0
  8  9  1  0
  9 10  1  0
  9 13  1  0
 10 11  1  0
 10 14  1  0
 10 15  1  0
 11 12  1  0
 11 16  1  0
 11 17  1  0
 12 18  1  0
 12 19  1  0
 12 20  1  0
M  RAD  2   2   2   8   3
M  END
>  <reaction>  (7) 
rmg_rxn_16706

>  <mol_properties>  (7) 
{"1": {"label": "*3", "atom_type": "Cd"}, "2": {"label": "*4", "atom_type": "N3d"}, "8": {"label": "*0", "atom_type": "N3s"}, "9": {"label": "*1", "atom_type": "Cs"}, "13": {"label": "*2", "atom_type": "H0"}}

>  <type>  (7) 
unop_3

>  <geom_source>  (7) 
Heuristics

$$$$

     RDKit          3D

 20 18  0  0  0  0  0  0  0  0999 V2000
   -0.5240    0.2106    2.9902 C   0  0  0  0  0  0  0  0  0  0  0  0
   -0.7779   -0.4036    1.6540 C   0  0  0  0  0  3  0  0  0  0  0  0
   -1.9482   -0.5800    1.2118 N   0  0  0  0  0  0  0  0  0  0  0  0
    0.0427   -0.4791    3.6210 H   0  0  0  0  0  0  0  0  0  0  0  0
    0.0820    1.1137    2.8815 H   0  0  0  0  0  0  0  0  0  0  0  0
   -1.4651    0.4600    3.4772 H   0  0  0  0  0  0  0  0  0  0  0  0
   -1.9294   -1.0090    0.2889 H   0  0  0  0  0  0  0  0  0  0  0  0
    1.0464   -1.1250   -2.2936 N   0  0  0  0  0  1  0  0  0  0  0  0
    1.0464   -1.1250   -1.0940 N   0  0  0  0  0  0  0  0  0  0  0  0
    1.0464    0.0694   -0.1803 C   0  0  0  0  0  0  0  0  0  0  0  0
    0.7898    1.3671   -0.9129 C   0  0  0  0  0  0  0  0  0  0  0  0
   -0.6536    1.5297   -1.3724 C   0  0  0  0  0  0  0  0  0  0  0  0
    1.0658   -2.0089   -0.5390 H   0  0  0  0  0  0  0  0  0  0  0  0
    0.1358   -0.1667    0.7354 H   0  0  0  0  0  0  0  0  0  0  0  0
    2.0218    0.0681    0.3135 H   0  0  0  0  0  0  0  0  0  0  0  0
    1.0633    2.1844   -0.2415 H   0  0  0  0  0  0  0  0  0  0  0  0
    1.4593    1.4162   -1.7734 H   0  0  0  0  0  0  0  0  0  0  0  0
   -1.3433    1.4847   -0.5257 H   0  0  0  0  0  0  0  0  0  0  0  0
   -0.9256    0.7477   -2.0812 H   0  0  0  0  0  0  0  0  0  0  0  0
   -0.7955    2.4915   -1.8665 H   0  0  0  0  0  0  0  0  0  0  0  0
  1  2  1  0
  1  4  1  0
  1  5  1  0
  1  6  1  0
  2  3  2  3
  3  7  1  0
  8  9  1  0
  9 10  1  0
  9 13  1  0
 10 11  1  0
 10 14  1  0
 10 15  1  0
 11 12  1  0
 11 16  1  0
 11 17  1  0
 12 18  1  0
 12 19  1  0
 12 20  1  0
M  RAD  2   2   2   8   3
M  END
>  <reaction>  (8) 
rmg_rxn_16706

>  <mol_properties>  (8) 
{"1": {"label": "*3", "atom_type": "Cd"}, "2": {"label": "*4", "atom_type": "N3d"}, "8": {"label": "*0", "atom_type": "N3s"}, "9": {"label": "*1", "atom_type": "Cs"}, "13": {"label": "*2", "atom_type": "H0"}}

>  <type>  (8) 
unop_4

>  <geom_source>  (8) 
Heuristics

$$$$

     RDKit          3D

 20 18  0  0  0  0  0  0  0  0999 V2000
   -2.1330   -0.5832    1.1854 C   0  0  0  0  0  0  0  0  0  0  0  0
   -0.7434   -0.3867    1.6929 C   0  0  0  0  0  3  0  0  0  0  0  0
   -0.5119    0.1297    2.8225 N   0  0  0  0  0  0  0  0  0  0  0  0
   -2.2696   -0.0478    0.2423 H   0  0  0  0  0  0  0  0  0  0  0  0
   -2.3136   -1.6414    0.9799 H   0  0  0  0  0  0  0  0  0  0  0  0
   -2.8568   -0.2253    1.9155 H   0  0  0  0  0  0  0  0  0  0  0  0
    0.4888    0.1847    3.0010 H   0  0  0  0  0  0  0  0  0  0  0  0
    1.0810   -1.1082   -2.2548 N   0  0  0  0  0  1  0  0  0  0  0  0
    1.0810   -1.1082   -1.0552 N   0  0  0  0  0  0  0  0  0  0  0  0
    1.0810    0.0863   -0.1414 C   0  0  0  0  0  0  0  0  0  0  0  0
    0.8243    1.3839   -0.8740 C   0  0  0  0  0  0  0  0  0  0  0  0
   -0.6191    1.5466   -1.3335 C   0  0  0  0  0  0  0  0  0  0  0  0
    1.1003   -1.9921   -0.5001 H   0  0  0  0  0  0  0  0  0  0  0  0
    0.1703   -0.1498    0.7742 H   0  0  0  0  0  0  0  0  0  0  0  0
    2.0563    0.0850    0.3523 H   0  0  0  0  0  0  0  0  0  0  0  0
    1.0978    2.2013   -0.2026 H   0  0  0  0  0  0  0  0  0  0  0  0
    1.4939    1.4331   -1.7346 H   0  0  0  0  0  0  0  0  0  0  0  0
   -1.3088    1.5015   -0.4869 H   0  0  0  0  0  0  0  0  0  0  0  0
   -0.8911    0.7646   -2.0424 H   0  0  0  0  0  0  0  0  0  0  0  0
   -0.7609    2.5083   -1.8277 H   0  0  0  0  0  0  0  0  0  0  0  0
  1  2  1  0
  1  4  1  0
  1  5  1  0
  1  6  1  0
  2  3  2  3
  3  7  1  0
  8  9  1  0
  9 10  1  0
  9 13  1  0
 10 11  1  0
 10 14  1  0
 10 15  1  0
 11 12  1  0
 11 16  1  0
 11 17  1  0
 12 18  1  0
 12 19  1  0
 12 20  1  0
M  RAD  2   2   2   8   3
M  END
>  <reaction>  (9) 
rmg_rxn_16706

>  <mol_properties>  (9) 
{"1": {"label": "*3", "atom_type": "Cd"}, "2": {"label": "*4", "atom_type": "N3d"}, "8": {"label": "*0", "atom_type": "N3s"}, "9": {"label": "*1", "atom_type": "Cs"}, "13": {"label": "*2", "atom_type": "H0"}}

>  <type>  (9) 
unop_5

>  <geom_source>  (9) 
Heuristics

$$$$

     RDKit          3D

 20 18  0  0  0  0  0  0  0  0999 V2000
   -0.9586    0.7196    2.6626 C   0  0  0  0  0  0  0  0  0  0  0  0
   -0.7842   -0.3488    1.6353 C   0  0  0  0  0  3  0  0  0  0  0  0
   -1.4713   -1.4090    1.6513 N   0  0  0  0  0  0  0  0  0  0  0  0
   -0.0178    0.8917    3.1915 H   0  0  0  0  0  0  0  0  0  0  0  0
   -1.2316    1.6631    2.1832 H   0  0  0  0  0  0  0  0  0  0  0  0
   -1.7308    0.4366    3.3757 H   0  0  0  0  0  0  0  0  0  0  0  0
   -1.2176   -2.0205    0.8781 H   0  0  0  0  0  0  0  0  0  0  0  0
    1.0401   -1.0702   -2.3124 N   0  0  0  0  0  1  0  0  0  0  0  0
    1.0401   -1.0702   -1.1128 N   0  0  0  0  0  0  0  0  0  0  0  0
    1.0401    0.1242   -0.1990 C   0  0  0  0  0  0  0  0  0  0  0  0
    0.7835    1.4219   -0.9316 C   0  0  0  0  0  0  0  0  0  0  0  0
   -0.6599    1.5845   -1.3911 C   0  0  0  0  0  0  0  0  0  0  0  0
    1.0595   -1.9541   -0.5577 H   0  0  0  0  0  0  0  0  0  0  0  0
    0.1295   -0.1119    0.7166 H   0  0  0  0  0  0  0  0  0  0  0  0
    2.0155    0.1229    0.2947 H   0  0  0  0  0  0  0  0  0  0  0  0
    1.0570    2.2392   -0.2602 H   0  0  0  0  0  0  0  0  0  0  0  0
    1.4530    1.4710   -1.7921 H   0  0  0  0  0  0  0  0  0  0  0  0
   -1.3496    1.5395   -0.5445 H   0  0  0  0  0  0  0  0  0  0  0  0
   -0.9319    0.8025   -2.1000 H   0  0  0  0  0  0  0  0  0  0  0  0
   -0.8018    2.5463   -1.8853 H   0  0  0  0  0  0  0  0  0  0  0  0
  1  2  1  0
  1  4  1  0
  1  5  1  0
  1  6  1  0
  2  3  2  3
  3  7  1  0
  8  9  1  0
  9 10  1  0
  9 13  1  0
 10 11  1  0
 10 14  1  0
 10 15  1  0
 11 12  1  0
 11 16  1  0
 11 17  1  0
 12 18  1  0
 12 19  1  0
 12 20  1  0
M  RAD  2   2   2   8   3
M  END
>  <reaction>  (10) 
rmg_rxn_16706

>  <mol_properties>  (10) 
{"1": {"label": "*3", "atom_type": "Cd"}, "2": {"label": "*4", "atom_type": "N3d"}, "8": {"label": "*0", "atom_type": "N3s"}, "9": {"label": "*1", "atom_type": "Cs"}, "13": {"label": "*2", "atom_type": "H0"}}

>  <type>  (10) 
unop_6

>  <geom_source>  (10) 
Heuristics

$$$$

     RDKit          3D

 20 18  0  0  0  0  0  0  0  0999 V2000
   -2.1558    0.0529    1.3422 C   0  0  0  0  0  0  0  0  0  0  0  0
   -0.7783   -0.4220    1.6645 C   0  0  0  0  0  3  0  0  0  0  0  0
   -0.2897   -0.3152    2.8248 N   0  0  0  0  0  0  0  0  0  0  0  0
   -2.1199    0.8058    0.5506 H   0  0  0  0  0  0  0  0  0  0  0  0
   -2.7623   -0.7752    0.9666 H   0  0  0  0  0  0  0  0  0  0  0  0
   -2.6268    0.4771    2.2272 H   0  0  0  0  0  0  0  0  0  0  0  0
    0.6559   -0.6904    2.8590 H   0  0  0  0  0  0  0  0  0  0  0  0
    1.0460   -1.1434   -2.2831 N   0  0  0  0  0  1  0  0  0  0  0  0
    1.0460   -1.1434   -1.0835 N   0  0  0  0  0  0  0  0  0  0  0  0
    1.0460    0.0510   -0.1697 C   0  0  0  0  0  0  0  0  0  0  0  0
    0.7894    1.3487   -0.9023 C   0  0  0  0  0  0  0  0  0  0  0  0
   -0.6540    1.5113   -1.3619 C   0  0  0  0  0  0  0  0  0  0  0  0
    1.0654   -2.0273   -0.5285 H   0  0  0  0  0  0  0  0  0  0  0  0
    0.1354   -0.1851    0.7459 H   0  0  0  0  0  0  0  0  0  0  0  0
    2.0214    0.0497    0.3240 H   0  0  0  0  0  0  0  0  0  0  0  0
    1.0629    2.1660   -0.2310 H   0  0  0  0  0  0  0  0  0  0  0  0
    1.4589    1.3978   -1.7629 H   0  0  0  0  0  0  0  0  0  0  0  0
   -1.3437    1.4663   -0.5152 H   0  0  0  0  0  0  0  0  0  0  0  0
   -0.9260    0.7293   -2.0707 H   0  0  0  0  0  0  0  0  0  0  0  0
   -0.7958    2.4731   -1.8560 H   0  0  0  0  0  0  0  0  0  0  0  0
  1  2  1  0
  1  4  1  0
  1  5  1  0
  1  6  1  0
  2  3  2  3
  3  7  1  0
  8  9  1  0
  9 10  1  0
  9 13  1  0
 10 11  1  0
 10 14  1  0
 10 15  1  0
 11 12  1  0
 11 16  1  0
 11 17  1  0
 12 18  1  0
 12 19  1  0
 12 20  1  0
M  RAD  2   2   2   8   3
M  END
>  <reaction>  (11) 
rmg_rxn_16706

>  <mol_properties>  (11) 
{"1": {"label": "*3", "atom_type": "Cd"}, "2": {"label": "*4", "atom_type": "N3d"}, "8": {"label": "*0", "atom_type": "N3s"}, "9": {"label": "*1", "atom_type": "Cs"}, "13": {"label": "*2", "atom_type": "H0"}}

>  <type>  (11) 
unop_7

>  <geom_source>  (11) 
Heuristics

$$$$

     RDKit          3D

 20 18  0  0  0  0  0  0  0  0999 V2000
   -1.9360    0.5730    1.6982 C   0  0  0  0  0  0  0  0  0  0  0  0
   -0.8197   -0.4149    1.6285 C   0  0  0  0  0  3  0  0  0  0  0  0
   -0.2768   -0.8835    2.6687 N   0  0  0  0  0  0  0  0  0  0  0  0
   -1.6580    1.4939    1.1792 H   0  0  0  0  0  0  0  0  0  0  0  0
   -2.8216    0.1781    1.1938 H   0  0  0  0  0  0  0  0  0  0  0  0
   -2.1779    0.7984    2.7354 H   0  0  0  0  0  0  0  0  0  0  0  0
    0.4632   -1.5405    2.4304 H   0  0  0  0  0  0  0  0  0  0  0  0
    1.0046   -1.1363   -2.3192 N   0  0  0  0  0  1  0  0  0  0  0  0
    1.0046   -1.1363   -1.1196 N   0  0  0  0  0  0  0  0  0  0  0  0
    1.0046    0.0581   -0.2058 C   0  0  0  0  0  0  0  0  0  0  0  0
    0.7480    1.3558   -0.9384 C   0  0  0  0  0  0  0  0  0  0  0  0
   -0.6954    1.5184   -1.3979 C   0  0  0  0  0  0  0  0  0  0  0  0
    1.0240   -2.0202   -0.5645 H   0  0  0  0  0  0  0  0  0  0  0  0
    0.0940   -0.1780    0.7098 H   0  0  0  0  0  0  0  0  0  0  0  0
    1.9800    0.0568    0.2880 H   0  0  0  0  0  0  0  0  0  0  0  0
    1.0215    2.1731   -0.2670 H   0  0  0  0  0  0  0  0  0  0  0  0
    1.4175    1.4049   -1.7989 H   0  0  0  0  0  0  0  0  0  0  0  0
   -1.3851    1.4733   -0.5513 H   0  0  0  0  0  0  0  0  0  0  0  0
   -0.9674    0.7364   -2.1068 H   0  0  0  0  0  0  0  0  0  0  0  0
   -0.8373    2.4802   -1.8921 H   0  0  0  0  0  0  0  0  0  0  0  0
  1  2  1  0
  1  4  1  0
  1  5  1  0
  1  6  1  0
  2  3  2  3
  3  7  1  0
  8  9  1  0
  9 10  1  0
  9 13  1  0
 10 11  1  0
 10 14  1  0
 10 15  1  0
 11 12  1  0
 11 16  1  0
 11 17  1  0
 12 18  1  0
 12 19  1  0
 12 20  1  0
M  RAD  2   2   2   8   3
M  END
>  <reaction>  (12) 
rmg_rxn_16706

>  <mol_properties>  (12) 
{"1": {"label": "*3", "atom_type": "Cd"}, "2": {"label": "*4", "atom_type": "N3d"}, "8": {"label": "*0", "atom_type": "N3s"}, "9": {"label": "*1", "atom_type": "Cs"}, "13": {"label": "*2", "atom_type": "H0"}}

>  <type>  (12) 
unop_8

>  <geom_source>  (12) 
Heuristics

$$$$

     RDKit          3D

 20 18  0  0  0  0  0  0  0  0999 V2000
   -0.3694   -1.0824    2.8262 C   0  0  0  0  0  0  0  0  0  0  0  0
   -0.8516   -0.3754    1.6037 C   0  0  0  0  0  3  0  0  0  0  0  0
   -1.6854    0.5718    1.6653 N   0  0  0  0  0  0  0  0  0  0  0  0
   -0.6013   -2.1486    2.7618 H   0  0  0  0  0  0  0  0  0  0  0  0
    0.7173   -0.9973    2.9075 H   0  0  0  0  0  0  0  0  0  0  0  0
   -0.8352   -0.6615    3.7155 H   0  0  0  0  0  0  0  0  0  0  0  0
   -1.8979    0.9326    0.7375 H   0  0  0  0  0  0  0  0  0  0  0  0
    0.9728   -1.0968   -2.3440 N   0  0  0  0  0  1  0  0  0  0  0  0
    0.9728   -1.0968   -1.1444 N   0  0  0  0  0  0  0  0  0  0  0  0
    0.9728    0.0976   -0.2306 C   0  0  0  0  0  0  0  0  0  0  0  0
    0.7161    1.3953   -0.9632 C   0  0  0  0  0  0  0  0  0  0  0  0
   -0.7273    1.5579   -1.4228 C   0  0  0  0  0  0  0  0  0  0  0  0
    0.9921   -1.9807   -0.5893 H   0  0  0  0  0  0  0  0  0  0  0  0
    0.0621   -0.1385    0.6850 H   0  0  0  0  0  0  0  0  0  0  0  0
    1.9481    0.0963    0.2631 H   0  0  0  0  0  0  0  0  0  0  0  0
    0.9896    2.2126   -0.2919 H   0  0  0  0  0  0  0  0  0  0  0  0
    1.3857    1.4444   -1.8238 H   0  0  0  0  0  0  0  0  0  0  0  0
   -1.4170    1.5129   -0.5761 H   0  0  0  0  0  0  0  0  0  0  0  0
   -0.9993    0.7759   -2.1316 H   0  0  0  0  0  0  0  0  0  0  0  0
   -0.8691    2.5197   -1.9169 H   0  0  0  0  0  0  0  0  0  0  0  0
  1  2  1  0
  1  4  1  0
  1  5  1  0
  1  6  1  0
  2  3  2  3
  3  7  1  0
  8  9  1  0
  9 10  1  0
  9 13  1  0
 10 11  1  0
 10 14  1  0
 10 15  1  0
 11 12  1  0
 11 16  1  0
 11 17  1  0
 12 18  1  0
 12 19  1  0
 12 20  1  0
M  RAD  2   2   2   8   3
M  END
>  <reaction>  (13) 
rmg_rxn_16706

>  <mol_properties>  (13) 
{"1": {"label": "*3", "atom_type": "Cd"}, "2": {"label": "*4", "atom_type": "N3d"}, "8": {"label": "*0", "atom_type": "N3s"}, "9": {"label": "*1", "atom_type": "Cs"}, "13": {"label": "*2", "atom_type": "H0"}}

>  <type>  (13) 
unop_9

>  <geom_source>  (13) 
Heuristics

$$$$

     RDKit          3D

 20 18  0  0  0  0  0  0  0  0999 V2000
    1.8085    0.9887   -1.1939 C   0  0  0  0  0  0  0  0  0  0  0  0
    1.6935    0.3062    0.1138 C   0  0  0  0  0  0  0  0  0  0  0  0
    2.6695    0.0103    0.8275 N   0  0  0  0  0  0  0  0  0  0  0  0
    1.2003    1.8920   -1.1856 H   0  0  0  0  0  0  0  0  0  0  0  0
    2.8430    1.2396   -1.4210 H   0  0  0  0  0  0  0  0  0  0  0  0
    1.4115    0.3383   -1.9721 H   0  0  0  0  0  0  0  0  0  0  0  0
    2.5056   -0.4618    1.7103 H   0  0  0  0  0  0  0  0  0  0  0  0
   -2.1278    1.5040   -0.3855 N   0  0  0  0  0  1  0  0  0  0  0  0
   -1.5608    1.0437    0.5988 N   0  0  0  0  0  0  0  0  0  0  0  0
   -0.8658   -0.1608    0.6905 C   0  0  0  0  0  3  0  0  0  0  0  0
   -1.2606   -1.1827   -0.3527 C   0  0  0  0  0  0  0  0  0  0  0  0
   -0.3643   -2.4132   -0.3268 C   0  0  0  0  0  0  0  0  0  0  0  0
   -1.5196    1.6002    1.4843 H   0  0  0  0  0  0  0  0  0  0  0  0
    0.4577    0.0761    0.4284 H   0  0  0  0  0  0  0  0  0  0  0  0
   -0.8377   -0.5422    1.7119 H   0  0  0  0  0  0  0  0  0  0  0  0
   -2.3001   -1.4858   -0.1864 H   0  0  0  0  0  0  0  0  0  0  0  0
   -1.2257   -0.6964   -1.3309 H   0  0  0  0  0  0  0  0  0  0  0  0
   -0.4004   -2.8931    0.6494 H   0  0  0  0  0  0  0  0  0  0  0  0
    0.6692   -2.1472   -0.5393 H   0  0  0  0  0  0  0  0  0  0  0  0
   -0.6936   -3.1322   -1.0722 H   0  0  0  0  0  0  0  0  0  0  0  0
  1  2  1  0
  1  4  1  0
  1  5  1  0
  1  6  1  0
  2  3  2  3
  2 14  1  0
  3  7  1  0
  8  9  1  0
  9 10  1  0
  9 13  1  0
 10 11  1  0
 10 15  1  0
 11 12  1  0
 11 16  1  0
 11 17  1  0
 12 18  1  0
 12 19  1  0
 12 20  1  0
M  CHG  2   8  -1  10   1
M  RAD  1   8   2
M  END
>  <reaction>  (14) 
rmg_rxn_16706

>  <mol_properties>  (14) 
{"1": {"label": "*3", "atom_type": "Cd"}, "2": {"label": "*4", "atom_type": "N3d"}, "8": {"label": "*0", "atom_type": "N3s"}, "9": {"label": "*1", "atom_type": "Cs"}, "13": {"label": "*2", "atom_type": "H0"}}

>  <type>  (14) 
unop_10

>  <geom_source>  (14) 
Heuristics

$$$$

     RDKit          3D

 20 18  0  0  0  0  0  0  0  0999 V2000
   -1.8868   -1.1740    1.2596 C   0  0  0  0  0  0  0  0  0  0  0  0
   -0.7376   -0.3277    1.6956 C   0  0  0  0  0  3  0  0  0  0  0  0
   -0.7945    0.3933    2.7316 N   0  0  0  0  0  0  0  0  0  0  0  0
   -2.2039   -0.8904    0.2528 H   0  0  0  0  0  0  0  0  0  0  0  0
   -1.5867   -2.2241    1.2149 H   0  0  0  0  0  0  0  0  0  0  0  0
   -2.7218   -1.0630    1.9492 H   0  0  0  0  0  0  0  0  0  0  0  0
    0.0774    0.8989    2.8733 H   0  0  0  0  0  0  0  0  0  0  0  0
    1.0867   -1.0492   -2.2521 N   0  0  0  0  0  1  0  0  0  0  0  0
    1.0867   -1.0492   -1.0525 N   0  0  0  0  0  0  0  0  0  0  0  0
    1.0867    0.1452   -0.1387 C   0  0  0  0  0  0  0  0  0  0  0  0
    0.8301    1.4429   -0.8713 C   0  0  0  0  0  0  0  0  0  0  0  0
   -0.6133    1.6056   -1.3308 C   0  0  0  0  0  0  0  0  0  0  0  0
    1.1061   -1.9331   -0.4974 H   0  0  0  0  0  0  0  0  0  0  0  0
    0.1761   -0.0909    0.7769 H   0  0  0  0  0  0  0  0  0  0  0  0
    2.0621    0.1440    0.3551 H   0  0  0  0  0  0  0  0  0  0  0  0
    1.1036    2.2603   -0.1999 H   0  0  0  0  0  0  0  0  0  0  0  0
    1.4996    1.4921   -1.7318 H   0  0  0  0  0  0  0  0  0  0  0  0
   -1.3030    1.5605   -0.4842 H   0  0  0  0  0  0  0  0  0  0  0  0
   -0.8853    0.8236   -2.0397 H   0  0  0  0  0  0  0  0  0  0  0  0
   -0.7552    2.5673   -1.8250 H   0  0  0  0  0  0  0  0  0  0  0  0
  1  2  1  0
  1  4  1  0
  1  5  1  0
  1  6  1  0
  2  3  2  3
  3  7  1  0
  8  9  1  0
  9 10  1  0
  9 13  1  0
 10 11  1  0
 10 14  1  0
 10 15  1  0
 11 12  1  0
 11 16  1  0
 11 17  1  0
 12 18  1  0
 12 19  1  0
 12 20  1  0
M  RAD  2   2   2   8   3
M  END
>  <reaction>  (15) 
rmg_rxn_16706

>  <mol_properties>  (15) 
{"1": {"label": "*3", "atom_type": "Cd"}, "2": {"label": "*4", "atom_type": "N3d"}, "8": {"label": "*0", "atom_type": "N3s"}, "9": {"label": "*1", "atom_type": "Cs"}, "13": {"label": "*2", "atom_type": "H0"}}

>  <type>  (15) 
unop_11

>  <geom_source>  (15) 
Heuristics

$$$$

     RDKit          3D

 20 18  0  0  0  0  0  0  0  0999 V2000
   -0.6301   -1.5383    2.4339 C   0  0  0  0  0  0  0  0  0  0  0  0
   -0.8511   -0.3183    1.6034 C   0  0  0  0  0  3  0  0  0  0  0  0
   -1.4235    0.7091    2.0652 N   0  0  0  0  0  0  0  0  0  0  0  0
   -1.1174   -2.4016    1.9735 H   0  0  0  0  0  0  0  0  0  0  0  0
    0.4370   -1.7679    2.4907 H   0  0  0  0  0  0  0  0  0  0  0  0
   -1.0246   -1.3897    3.4375 H   0  0  0  0  0  0  0  0  0  0  0  0
   -1.4869    1.4402    1.3598 H   0  0  0  0  0  0  0  0  0  0  0  0
    0.9732   -1.0397   -2.3443 N   0  0  0  0  0  1  0  0  0  0  0  0
    0.9732   -1.0397   -1.1447 N   0  0  0  0  0  0  0  0  0  0  0  0
    0.9732    0.1547   -0.2309 C   0  0  0  0  0  0  0  0  0  0  0  0
    0.7166    1.4524   -0.9635 C   0  0  0  0  0  0  0  0  0  0  0  0
   -0.7268    1.6150   -1.4230 C   0  0  0  0  0  0  0  0  0  0  0  0
    0.9926   -1.9236   -0.5896 H   0  0  0  0  0  0  0  0  0  0  0  0
    0.0626   -0.0814    0.6847 H   0  0  0  0  0  0  0  0  0  0  0  0
    1.9486    0.1534    0.2628 H   0  0  0  0  0  0  0  0  0  0  0  0
    0.9901    2.2697   -0.2921 H   0  0  0  0  0  0  0  0  0  0  0  0
    1.3861    1.5016   -1.8240 H   0  0  0  0  0  0  0  0  0  0  0  0
   -1.4165    1.5700   -0.5764 H   0  0  0  0  0  0  0  0  0  0  0  0
   -0.9988    0.8330   -2.1319 H   0  0  0  0  0  0  0  0  0  0  0  0
   -0.8687    2.5768   -1.9172 H   0  0  0  0  0  0  0  0  0  0  0  0
  1  2  1  0
  1  4  1  0
  1  5  1  0
  1  6  1  0
  2  3  2  3
  3  7  1  0
  8  9  1  0
  9 10  1  0
  9 13  1  0
 10 11  1  0
 10 14  1  0
 10 15  1  0
 11 12  1  0
 11 16  1  0
 11 17  1  0
 12 18  1  0
 12 19  1  0
 12 20  1  0
M  RAD  2   2   2   8   3
M  END
>  <reaction>  (16) 
rmg_rxn_16706

>  <mol_properties>  (16) 
{"1": {"label": "*3", "atom_type": "Cd"}, "2": {"label": "*4", "atom_type": "N3d"}, "8": {"label": "*0", "atom_type": "N3s"}, "9": {"label": "*1", "atom_type": "Cs"}, "13": {"label": "*2", "atom_type": "H0"}}

>  <type>  (16) 
unop_12

>  <geom_source>  (16) 
Heuristics

$$$$

     RDKit          3D

 20 18  0  0  0  0  0  0  0  0999 V2000
   -1.5080    0.8360    2.1728 C   0  0  0  0  0  0  0  0  0  0  0  0
   -0.8321   -0.3692    1.6090 C   0  0  0  0  0  3  0  0  0  0  0  0
   -0.6408   -1.4109    2.2979 N   0  0  0  0  0  0  0  0  0  0  0  0
   -0.8464    1.7037    2.1102 H   0  0  0  0  0  0  0  0  0  0  0  0
   -2.4017    1.0744    1.5905 H   0  0  0  0  0  0  0  0  0  0  0  0
   -1.7853    0.6635    3.2112 H   0  0  0  0  0  0  0  0  0  0  0  0
   -0.1681   -2.1283    1.7520 H   0  0  0  0  0  0  0  0  0  0  0  0
    0.9923   -1.0906   -2.3386 N   0  0  0  0  0  1  0  0  0  0  0  0
    0.9923   -1.0906   -1.1390 N   0  0  0  0  0  0  0  0  0  0  0  0
    0.9923    0.1038   -0.2252 C   0  0  0  0  0  0  0  0  0  0  0  0
    0.7356    1.4015   -0.9578 C   0  0  0  0  0  0  0  0  0  0  0  0
   -0.7078    1.5641   -1.4174 C   0  0  0  0  0  0  0  0  0  0  0  0
    1.0116   -1.9745   -0.5839 H   0  0  0  0  0  0  0  0  0  0  0  0
    0.0816   -0.1323    0.6904 H   0  0  0  0  0  0  0  0  0  0  0  0
    1.9676    0.1025    0.2685 H   0  0  0  0  0  0  0  0  0  0  0  0
    1.0091    2.2188   -0.2865 H   0  0  0  0  0  0  0  0  0  0  0  0
    1.4052    1.4506   -1.8184 H   0  0  0  0  0  0  0  0  0  0  0  0
   -1.3975    1.5191   -0.5707 H   0  0  0  0  0  0  0  0  0  0  0  0
   -0.9798    0.7821   -2.1262 H   0  0  0  0  0  0  0  0  0  0  0  0
   -0.8496    2.5259   -1.9115 H   0  0  0  0  0  0  0  0  0  0  0  0
  1  2  1  0
  1  4  1  0
  1  5  1  0
  1  6  1  0
  2  3  2  3
  3  7  1  0
  8  9  1  0
  9 10  1  0
  9 13  1  0
 10 11  1  0
 10 14  1  0
 10 15  1  0
 11 12  1  0
 11 16  1  0
 11 17  1  0
 12 18  1  0
 12 19  1  0
 12 20  1  0
M  RAD  2   2   2   8   3
M  END
>  <reaction>  (17) 
rmg_rxn_16706

>  <mol_properties>  (17) 
{"1": {"label": "*3", "atom_type": "Cd"}, "2": {"label": "*4", "atom_type": "N3d"}, "8": {"label": "*0", "atom_type": "N3s"}, "9": {"label": "*1", "atom_type": "Cs"}, "13": {"label": "*2", "atom_type": "H0"}}

>  <type>  (17) 
unop_13

>  <geom_source>  (17) 
Heuristics

$$$$

     RDKit          3D

 20 18  0  0  0  0  0  0  0  0999 V2000
   -1.4893   -1.5808    1.5416 C   0  0  0  0  0  0  0  0  0  0  0  0
   -0.7684   -0.2803    1.6686 C   0  0  0  0  0  3  0  0  0  0  0  0
   -1.0226    0.5359    2.5990 N   0  0  0  0  0  0  0  0  0  0  0  0
   -1.9936   -1.6397    0.5736 H   0  0  0  0  0  0  0  0  0  0  0  0
   -0.7797   -2.4112    1.5820 H   0  0  0  0  0  0  0  0  0  0  0  0
   -2.2209   -1.6877    2.3405 H   0  0  0  0  0  0  0  0  0  0  0  0
   -0.4365    1.3651    2.5279 H   0  0  0  0  0  0  0  0  0  0  0  0
    1.0559   -1.0017   -2.2790 N   0  0  0  0  0  1  0  0  0  0  0  0
    1.0559   -1.0017   -1.0794 N   0  0  0  0  0  0  0  0  0  0  0  0
    1.0559    0.1927   -0.1656 C   0  0  0  0  0  0  0  0  0  0  0  0
    0.7993    1.4904   -0.8982 C   0  0  0  0  0  0  0  0  0  0  0  0
   -0.6441    1.6530   -1.3578 C   0  0  0  0  0  0  0  0  0  0  0  0
    1.0753   -1.8856   -0.5243 H   0  0  0  0  0  0  0  0  0  0  0  0
    0.1453   -0.0434    0.7500 H   0  0  0  0  0  0  0  0  0  0  0  0
    2.0313    0.1914    0.3281 H   0  0  0  0  0  0  0  0  0  0  0  0
    1.0728    2.3077   -0.2269 H   0  0  0  0  0  0  0  0  0  0  0  0
    1.4688    1.5395   -1.7588 H   0  0  0  0  0  0  0  0  0  0  0  0
   -1.3338    1.6079   -0.5111 H   0  0  0  0  0  0  0  0  0  0  0  0
   -0.9161    0.8710   -2.0666 H   0  0  0  0  0  0  0  0  0  0  0  0
   -0.7860    2.6148   -1.8519 H   0  0  0  0  0  0  0  0  0  0  0  0
  1  2  1  0
  1  4  1  0
  1  5  1  0
  1  6  1  0
  2  3  2  3
  3  7  1  0
  8  9  1  0
  9 10  1  0
  9 13  1  0
 10 11  1  0
 10 14  1  0
 10 15  1  0
 11 12  1  0
 11 16  1  0
 11 17  1  0
 12 18  1  0
 12 19  1  0
 12 20  1  0
M  RAD  2   2   2   8   3
M  END
>  <reaction>  (18) 
rmg_rxn_16706

>  <mol_properties>  (18) 
{"1": {"label": "*3", "atom_type": "Cd"}, "2": {"label": "*4", "atom_type": "N3d"}, "8": {"label": "*0", "atom_type": "N3s"}, "9": {"label": "*1", "atom_type": "Cs"}, "13": {"label": "*2", "atom_type": "H0"}}

>  <type>  (18) 
unop_14

>  <geom_source>  (18) 
Heuristics

$$$$

     RDKit          3D

 20 18  0  0  0  0  0  0  0  0999 V2000
   -0.1731    1.5776   -0.4605 N   0  0  0  0  0  0  0  0  0  0  0  0
    2.2466   -1.3955   -0.2325 N   0  0  0  0  0  0  0  0  0  0  0  0
   -1.0095    2.3904   -0.8966 N   0  0  0  0  0  1  0  0  0  0  0  0
   -1.5129   -0.2806    0.4048 C   0  0  0  0  0  0  0  0  0  0  0  0
   -1.7016   -1.2047    1.6016 C   0  0  0  0  0  0  0  0  0  0  0  0
    1.7352    0.4352   -1.7107 C   0  0  0  0  0  0  0  0  0  0  0  0
   -0.4606    0.7844    0.7099 C   0  0  0  0  0  3  0  0  0  0  0  0
    1.5718   -0.3244   -0.4358 C   0  0  0  0  0  0  0  0  0  0  0  0
   -1.1850   -0.8843   -0.4690 H   0  0  0  0  0  0  0  0  0  0  0  0
   -2.4819    0.2056    0.1595 H   0  0  0  0  0  0  0  0  0  0  0  0
   -2.0572   -0.6279    2.4821 H   0  0  0  0  0  0  0  0  0  0  0  0
   -0.7435   -1.7072    1.8544 H   0  0  0  0  0  0  0  0  0  0  0  0
   -2.4571   -1.9808    1.3568 H   0  0  0  0  0  0  0  0  0  0  0  0
    1.4620   -0.2106   -2.5715 H   0  0  0  0  0  0  0  0  0  0  0  0
    1.0728    1.3255   -1.7011 H   0  0  0  0  0  0  0  0  0  0  0  0
    2.7888    0.7685   -1.8180 H   0  0  0  0  0  0  0  0  0  0  0  0
   -0.7844    1.4391    1.5488 H   0  0  0  0  0  0  0  0  0  0  0  0
    0.7900    0.0785    0.4173 H   0  0  0  0  0  0  0  0  0  0  0  0
    0.7637    1.5326   -0.8852 H   0  0  0  0  0  0  0  0  0  0  0  0
    2.1360   -1.9215    0.6459 H   0  0  0  0  0  0  0  0  0  0  0  0
  1  7  1  0
  1  3  1  0
  1 19  1  0
  2  8  2  3
  2 20  1  0
  4  5  1  0
  4  7  1  0
  4  9  1  0
  4 10  1  0
  5 11  1  0
  5 12  1  0
  5 13  1  0
  6  8  1  0
  6 14  1  0
  6 15  1  0
  6 16  1  0
  7 17  1  0
  8 18  1  0
M  CHG  2   3  -1   7   1
M  RAD  1   3   2
M  END
>  <reaction>  (19) 
rmg_rxn_16706

>  <mol_properties>  (19) 
{"1": {"label": "*3", "atom_type": "Cd"}, "2": {"label": "*4", "atom_type": "N3d"}, "8": {"label": "*0", "atom_type": "N3s"}, "9": {"label": "*1", "atom_type": "Cs"}, "13": {"label": "*2", "atom_type": "H0"}}

>  <type>  (19) 
unop_15

>  <geom_source>  (19) 
AutoTST

$$$$

     RDKit          3D

 20 18  0  0  0  0  0  0  0  0999 V2000
   -1.0366   -1.7144    1.9660 C   0  0  0  0  0  0  0  0  0  0  0  0
   -0.8172   -0.2772    1.6295 C   0  0  0  0  0  3  0  0  0  0  0  0
   -1.2041    0.6535    2.3914 N   0  0  0  0  0  0  0  0  0  0  0  0
   -1.6250   -2.1997    1.1831 H   0  0  0  0  0  0  0  0  0  0  0  0
   -0.0798   -2.2403    2.0173 H   0  0  0  0  0  0  0  0  0  0  0  0
   -1.5537   -1.8054    2.9195 H   0  0  0  0  0  0  0  0  0  0  0  0
   -0.9704    1.5649    2.0028 H   0  0  0  0  0  0  0  0  0  0  0  0
    1.0071   -0.9986   -2.3182 N   0  0  0  0  0  1  0  0  0  0  0  0
    1.0071   -0.9986   -1.1186 N   0  0  0  0  0  0  0  0  0  0  0  0
    1.0071    0.1958   -0.2048 C   0  0  0  0  0  0  0  0  0  0  0  0
    0.7505    1.4935   -0.9374 C   0  0  0  0  0  0  0  0  0  0  0  0
   -0.6929    1.6562   -1.3969 C   0  0  0  0  0  0  0  0  0  0  0  0
    1.0265   -1.8825   -0.5635 H   0  0  0  0  0  0  0  0  0  0  0  0
    0.0965   -0.0403    0.7108 H   0  0  0  0  0  0  0  0  0  0  0  0
    1.9825    0.1946    0.2889 H   0  0  0  0  0  0  0  0  0  0  0  0
    1.0240    2.3108   -0.2660 H   0  0  0  0  0  0  0  0  0  0  0  0
    1.4200    1.5427   -1.7979 H   0  0  0  0  0  0  0  0  0  0  0  0
   -1.3826    1.6111   -0.5503 H   0  0  0  0  0  0  0  0  0  0  0  0
   -0.9649    0.8742   -2.1058 H   0  0  0  0  0  0  0  0  0  0  0  0
   -0.8348    2.6179   -1.8911 H   0  0  0  0  0  0  0  0  0  0  0  0
  1  2  1  0
  1  4  1  0
  1  5  1  0
  1  6  1  0
  2  3  2  3
  3  7  1  0
  8  9  1  0
  9 10  1  0
  9 13  1  0
 10 11  1  0
 10 14  1  0
 10 15  1  0
 11 12  1  0
 11 16  1  0
 11 17  1  0
 12 18  1  0
 12 19  1  0
 12 20  1  0
M  RAD  2   2   2   8   3
M  END
>  <reaction>  (20) 
rmg_rxn_16706

>  <mol_properties>  (20) 
{"1": {"label": "*3", "atom_type": "Cd"}, "2": {"label": "*4", "atom_type": "N3d"}, "8": {"label": "*0", "atom_type": "N3s"}, "9": {"label": "*1", "atom_type": "Cs"}, "13": {"label": "*2", "atom_type": "H0"}}

>  <type>  (20) 
unop_16

>  <geom_source>  (20) 
gaussian_log

$$$$
