
     RDKit          3D

  9  8  0  0  0  0  0  0  0  0999 V2000
   -1.0314    0.2323   -0.1227 C   0  0  0  0  0  0  0  0  0  0  0  0
    0.3094   -0.4511    0.0063 C   0  0  0  0  0  0  0  0  0  0  0  0
    0.3197   -1.7698    0.6841 N   0  0  0  0  0  0  0  0  0  0  0  0
   -0.7498   -2.1455    1.0557 O   0  0  0  0  0  0  0  0  0  0  0  0
   -1.4744    0.4198    0.8552 H   0  0  0  0  0  0  0  0  0  0  0  0
   -0.9073    1.1865   -0.6350 H   0  0  0  0  0  0  0  0  0  0  0  0
   -1.7319   -0.3778   -0.6927 H   0  0  0  0  0  0  0  0  0  0  0  0
    1.0375    0.1401    0.5713 H   0  0  0  0  0  0  0  0  0  0  0  0
    0.7826   -0.6494   -0.9609 H   0  0  0  0  0  0  0  0  0  0  0  0
  1  2  1  0
  1  5  1  0
  1  6  1  0
  1  7  1  0
  2  3  1  0
  2  8  1  0
  2  9  1  0
  3  4  2  0
M  END
>  <reaction>  (1) 
rmg_rxn_383

>  <mol_properties>  (1) 
{"1": {"label": "donator", "atom_type": "Cs"}, "7": {"label": "d_hydrogen", "atom_type": "H0"}}

>  <type>  (1) 
r1h

$$$$

     RDKit          3D

  8  7  0  0  0  0  0  0  0  0999 V2000
   -0.7805    0.1267   -0.0785 C   0  0  0  0  0  0  0  0  0  0  0  0
    0.7143   -0.1291   -0.1691 C   0  0  0  0  0  0  0  0  0  0  0  0
    1.3515    0.4564   -1.2150 O   0  0  0  0  0  1  0  0  0  0  0  0
   -1.2068   -0.3808    0.7892 H   0  0  0  0  0  0  0  0  0  0  0  0
   -0.9783    1.1951    0.0142 H   0  0  0  0  0  0  0  0  0  0  0  0
   -1.2835   -0.2388   -0.9744 H   0  0  0  0  0  0  0  0  0  0  0  0
    1.2385    0.1912    0.7507 H   0  0  0  0  0  0  0  0  0  0  0  0
    0.9400   -1.2109   -0.2160 H   0  0  0  0  0  0  0  0  0  0  0  0
  1  2  1  0
  1  4  1  0
  1  5  1  0
  1  6  1  0
  2  3  1  0
  2  7  1  0
  2  8  1  0
M  RAD  1   3   2
M  END
>  <reaction>  (2) 
rmg_rxn_383

>  <mol_properties>  (2) 
{"2": {"label": "acceptor", "atom_type": "O2s"}}

>  <type>  (2) 
r2

$$$$

     RDKit          3D

  9  8  0  0  0  0  0  0  0  0999 V2000
   -0.9895    0.3048    0.1041 C   0  0  0  0  0  0  0  0  0  0  0  0
    0.3761   -0.3562    0.0721 C   0  0  0  0  0  0  0  0  0  0  0  0
    0.3441   -1.6564   -0.4834 O   0  0  0  0  0  0  0  0  0  0  0  0
   -1.6997   -0.3114    0.6572 H   0  0  0  0  0  0  0  0  0  0  0  0
   -0.9320    1.2848    0.5822 H   0  0  0  0  0  0  0  0  0  0  0  0
   -1.3774    0.4507   -0.9077 H   0  0  0  0  0  0  0  0  0  0  0  0
    0.7581   -0.4813    1.0862 H   0  0  0  0  0  0  0  0  0  0  0  0
    1.0900    0.2787   -0.4681 H   0  0  0  0  0  0  0  0  0  0  0  0
    0.0089   -1.5959   -1.3792 H   0  0  0  0  0  0  0  0  0  0  0  0
  1  2  1  0
  1  4  1  0
  1  5  1  0
  1  6  1  0
  2  3  1  0
  2  7  1  0
  2  8  1  0
  3  9  1  0
M  END
>  <reaction>  (3) 
rmg_rxn_383

>  <mol_properties>  (3) 
{"2": {"label": "acceptor", "atom_type": "O2s"}, "8": {"label": "a_hydrogen", "atom_type": "H0"}}

>  <type>  (3) 
r2h

$$$$

     RDKit          3D

 17 15  0  0  0  0  0  0  0  0999 V2000
    0.3555   -2.5941    1.0173 C   0  0  0  0  0  0  0  0  0  0  0  0
    0.9354   -1.3366    1.6423 C   0  0  0  0  0  0  0  0  0  0  0  0
    1.3504   -0.3849    0.7243 O   0  0  0  0  0  1  0  0  0  0  0  0
    1.0584   -3.0226    0.3021 H   0  0  0  0  0  0  0  0  0  0  0  0
    0.1357   -3.3398    1.7836 H   0  0  0  0  0  0  0  0  0  0  0  0
   -0.5745   -2.3685    0.4911 H   0  0  0  0  0  0  0  0  0  0  0  0
    0.2432   -0.9035    2.3780 H   0  0  0  0  0  0  0  0  0  0  0  0
    1.8493   -1.5837    2.2039 H   0  0  0  0  0  0  0  0  0  0  0  0
   -0.6680   -0.0291   -1.8243 C   0  0  0  0  0  0  0  0  0  0  0  0
   -0.7660    0.4764   -0.4093 C   0  0  0  0  0  0  0  0  0  0  0  0
   -0.8356    1.9188   -0.2252 N   0  0  0  0  0  0  0  0  0  0  0  0
   -0.2781    2.5786   -1.0516 O   0  0  0  0  0  0  0  0  0  0  0  0
    0.1904    0.4101   -2.3301 H   0  0  0  0  0  0  0  0  0  0  0  0
   -0.5540   -1.1125   -1.8146 H   0  0  0  0  0  0  0  0  0  0  0  0
   -1.5671    0.2197   -2.3919 H   0  0  0  0  0  0  0  0  0  0  0  0
    0.2539    0.1974    0.1650 H   0  0  0  0  0  0  0  0  0  0  0  0
   -1.5539    0.0282    0.1956 H   0  0  0  0  0  0  0  0  0  0  0  0
  1  2  1  0
  1  4  1  0
  1  5  1  0
  1  6  1  0
  2  3  1  0
  2  7  1  0
  2  8  1  0
  9 10  1  0
  9 13  1  0
  9 14  1  0
  9 15  1  0
 10 11  1  0
 10 16  1  0
 10 17  1  0
 11 12  2  0
M  RAD  1   3   2
M  END
>  <reaction>  (4) 
rmg_rxn_383

>  <mol_properties>  (4) 
{"1": {"label": "*4", "atom_type": "Cs"}, "2": {"label": "*3", "atom_type": "O2s"}, "9": {"label": "*1", "atom_type": "Cs"}, "10": {"label": "*0", "atom_type": "N3d"}, "15": {"label": "*2", "atom_type": "H0"}}

>  <type>  (4) 
ts

$$$$

     RDKit          3D

 17 15  0  0  0  0  0  0  0  0999 V2000
    0.9225    0.5546    1.5496 C   0  0  0  0  0  0  0  0  0  0  0  0
    1.7382   -0.6775    1.2040 C   0  0  0  0  0  0  0  0  0  0  0  0
    1.0230   -1.6053    0.4116 O   0  0  0  0  0  0  0  0  0  0  0  0
    0.0009    0.2721    2.0601 H   0  0  0  0  0  0  0  0  0  0  0  0
    1.4907    1.2227    2.2000 H   0  0  0  0  0  0  0  0  0  0  0  0
    0.6577    1.1139    0.6482 H   0  0  0  0  0  0  0  0  0  0  0  0
    2.6730   -0.3846    0.7091 H   0  0  0  0  0  0  0  0  0  0  0  0
    2.0090   -1.2172    2.1125 H   0  0  0  0  0  0  0  0  0  0  0  0
   -0.9376   -0.4636   -2.0602 C   0  0  0  0  0  0  0  0  0  0  0  0
   -0.9376   -0.4636   -0.5497 C   0  0  0  0  0  0  0  0  0  0  0  0
   -0.9376    0.8624    0.1139 N   0  0  0  0  0  0  0  0  0  0  0  0
   -0.9376    1.7919   -0.6338 O   0  0  0  0  0  1  0  0  0  0  0  0
   -0.0574    0.0438   -2.4547 H   0  0  0  0  0  0  0  0  0  0  0  0
   -0.9376   -1.4908   -2.4255 H   0  0  0  0  0  0  0  0  0  0  0  0
   -1.8177    0.0438   -2.4547 H   0  0  0  0  0  0  0  0  0  0  0  0
    0.1079   -1.0724   -0.0371 H   0  0  0  0  0  0  0  0  0  0  0  0
   -1.8088   -0.9709   -0.1226 H   0  0  0  0  0  0  0  0  0  0  0  0
  1  2  1  0
  1  4  1  0
  1  5  1  0
  1  6  1  0
  2  3  1  0
  2  7  1  0
  2  8  1  0
  3 16  1  0
  9 10  1  0
  9 13  1  0
  9 14  1  0
  9 15  1  0
 10 11  2  3
 10 17  1  0
 11 12  1  0
M  RAD  1  12   2
M  END
>  <reaction>  (5) 
rmg_rxn_383

>  <mol_properties>  (5) 
{"1": {"label": "*4", "atom_type": "Cs"}, "2": {"label": "*3", "atom_type": "O2s"}, "9": {"label": "*1", "atom_type": "Cs"}, "10": {"label": "*0", "atom_type": "N3d"}, "15": {"label": "*2", "atom_type": "H0"}}

>  <type>  (5) 
unop_1

>  <geom_source>  (5) 
Heuristics

$$$$

     RDKit          3D

 17 15  0  0  0  0  0  0  0  0999 V2000
    1.9343    0.1171   -0.4973 C   0  0  0  0  0  0  0  0  0  0  0  0
    1.8761   -1.2575    0.1430 C   0  0  0  0  0  0  0  0  0  0  0  0
    0.7903   -1.4012    1.0377 O   0  0  0  0  0  0  0  0  0  0  0  0
    1.9858    0.8932    0.2674 H   0  0  0  0  0  0  0  0  0  0  0  0
    2.8108    0.2047   -1.1426 H   0  0  0  0  0  0  0  0  0  0  0  0
    1.0489    0.2999   -1.1123 H   0  0  0  0  0  0  0  0  0  0  0  0
    1.8451   -2.0338   -0.6322 H   0  0  0  0  0  0  0  0  0  0  0  0
    2.7719   -1.4331    0.7404 H   0  0  0  0  0  0  0  0  0  0  0  0
   -1.1702   -0.2596   -1.4341 C   0  0  0  0  0  0  0  0  0  0  0  0
   -1.1702   -0.2596    0.0764 C   0  0  0  0  0  0  0  0  0  0  0  0
   -1.1702    1.0664    0.7400 N   0  0  0  0  0  0  0  0  0  0  0  0
   -1.1702    1.9959   -0.0077 O   0  0  0  0  0  1  0  0  0  0  0  0
   -0.2901    0.2478   -1.8286 H   0  0  0  0  0  0  0  0  0  0  0  0
   -1.1702   -1.2867   -1.7994 H   0  0  0  0  0  0  0  0  0  0  0  0
   -2.0503    0.2478   -1.8286 H   0  0  0  0  0  0  0  0  0  0  0  0
   -0.1248   -0.8684    0.5890 H   0  0  0  0  0  0  0  0  0  0  0  0
   -2.0414   -0.7669    0.5035 H   0  0  0  0  0  0  0  0  0  0  0  0
  1  2  1  0
  1  4  1  0
  1  5  1  0
  1  6  1  0
  2  3  1  0
  2  7  1  0
  2  8  1  0
  3 16  1  0
  9 10  1  0
  9 13  1  0
  9 14  1  0
  9 15  1  0
 10 11  2  3
 10 17  1  0
 11 12  1  0
M  RAD  1  12   2
M  END
>  <reaction>  (6) 
rmg_rxn_383

>  <mol_properties>  (6) 
{"1": {"label": "*4", "atom_type": "Cs"}, "2": {"label": "*3", "atom_type": "O2s"}, "9": {"label": "*1", "atom_type": "Cs"}, "10": {"label": "*0", "atom_type": "N3d"}, "15": {"label": "*2", "atom_type": "H0"}}

>  <type>  (6) 
unop_2

>  <geom_source>  (6) 
Heuristics

$$$$

     RDKit          3D

 17 15  0  0  0  0  0  0  0  0999 V2000
    0.2842   -0.2162    2.1536 C   0  0  0  0  0  0  0  0  0  0  0  0
    1.5018   -0.8207    1.4791 C   0  0  0  0  0  0  0  0  0  0  0  0
    1.1992   -1.4206    0.2346 O   0  0  0  0  0  0  0  0  0  0  0  0
   -0.4910   -0.9712    2.2909 H   0  0  0  0  0  0  0  0  0  0  0  0
    0.5488    0.1935    3.1306 H   0  0  0  0  0  0  0  0  0  0  0  0
   -0.1319    0.5974    1.5534 H   0  0  0  0  0  0  0  0  0  0  0  0
    2.2850   -0.0606    1.3628 H   0  0  0  0  0  0  0  0  0  0  0  0
    1.9161   -1.6198    2.0954 H   0  0  0  0  0  0  0  0  0  0  0  0
   -0.7614   -0.2789   -2.2371 C   0  0  0  0  0  0  0  0  0  0  0  0
   -0.7614   -0.2789   -0.7266 C   0  0  0  0  0  0  0  0  0  0  0  0
   -0.7614    1.0470   -0.0630 N   0  0  0  0  0  0  0  0  0  0  0  0
   -0.7614    1.9766   -0.8107 O   0  0  0  0  0  1  0  0  0  0  0  0
    0.1188    0.2285   -2.6316 H   0  0  0  0  0  0  0  0  0  0  0  0
   -0.7614   -1.3061   -2.6024 H   0  0  0  0  0  0  0  0  0  0  0  0
   -1.6415    0.2285   -2.6316 H   0  0  0  0  0  0  0  0  0  0  0  0
    0.2841   -0.8877   -0.2140 H   0  0  0  0  0  0  0  0  0  0  0  0
   -1.6326   -0.7862   -0.2995 H   0  0  0  0  0  0  0  0  0  0  0  0
  1  2  1  0
  1  4  1  0
  1  5  1  0
  1  6  1  0
  2  3  1  0
  2  7  1  0
  2  8  1  0
  3 16  1  0
  9 10  1  0
  9 13  1  0
  9 14  1  0
  9 15  1  0
 10 11  2  3
 10 17  1  0
 11 12  1  0
M  RAD  1  12   2
M  END
>  <reaction>  (7) 
rmg_rxn_383

>  <mol_properties>  (7) 
{"1": {"label": "*4", "atom_type": "Cs"}, "2": {"label": "*3", "atom_type": "O2s"}, "9": {"label": "*1", "atom_type": "Cs"}, "10": {"label": "*0", "atom_type": "N3d"}, "15": {"label": "*2", "atom_type": "H0"}}

>  <type>  (7) 
unop_3

>  <geom_source>  (7) 
Heuristics

$$$$

     RDKit          3D

 17 15  0  0  0  0  0  0  0  0999 V2000
    1.8286   -2.3004   -0.6928 C   0  0  0  0  0  0  0  0  0  0  0  0
    0.9877   -2.0891    0.5527 C   0  0  0  0  0  0  0  0  0  0  0  0
    0.9894   -0.7459    0.9953 O   0  0  0  0  0  0  0  0  0  0  0  0
    2.8551   -1.9737   -0.5210 H   0  0  0  0  0  0  0  0  0  0  0  0
    1.8410   -3.3552   -0.9748 H   0  0  0  0  0  0  0  0  0  0  0  0
    1.4256   -1.7351   -1.5375 H   0  0  0  0  0  0  0  0  0  0  0  0
   -0.0381   -2.4387    0.3791 H   0  0  0  0  0  0  0  0  0  0  0  0
    1.3911   -2.6706    1.3828 H   0  0  0  0  0  0  0  0  0  0  0  0
   -0.9711    0.3958   -1.4765 C   0  0  0  0  0  0  0  0  0  0  0  0
   -0.9711    0.3958    0.0340 C   0  0  0  0  0  0  0  0  0  0  0  0
   -0.9711    1.7217    0.6976 N   0  0  0  0  0  0  0  0  0  0  0  0
   -0.9711    2.6513   -0.0501 O   0  0  0  0  0  1  0  0  0  0  0  0
   -0.0910    0.9032   -1.8710 H   0  0  0  0  0  0  0  0  0  0  0  0
   -0.9711   -0.6314   -1.8418 H   0  0  0  0  0  0  0  0  0  0  0  0
   -1.8512    0.9032   -1.8710 H   0  0  0  0  0  0  0  0  0  0  0  0
    0.0743   -0.2130    0.5466 H   0  0  0  0  0  0  0  0  0  0  0  0
   -1.8423   -0.1115    0.4611 H   0  0  0  0  0  0  0  0  0  0  0  0
  1  2  1  0
  1  4  1  0
  1  5  1  0
  1  6  1  0
  2  3  1  0
  2  7  1  0
  2  8  1  0
  3 16  1  0
  9 10  1  0
  9 13  1  0
  9 14  1  0
  9 15  1  0
 10 11  2  3
 10 17  1  0
 11 12  1  0
M  RAD  1  12   2
M  END
>  <reaction>  (8) 
rmg_rxn_383

>  <mol_properties>  (8) 
{"1": {"label": "*4", "atom_type": "Cs"}, "2": {"label": "*3", "atom_type": "O2s"}, "9": {"label": "*1", "atom_type": "Cs"}, "10": {"label": "*0", "atom_type": "N3d"}, "15": {"label": "*2", "atom_type": "H0"}}

>  <type>  (8) 
unop_4

>  <geom_source>  (8) 
Heuristics

$$$$

     RDKit          3D

 17 15  0  0  0  0  0  0  0  0999 V2000
   -0.0357   -1.6855    2.1497 C   0  0  0  0  0  0  0  0  0  0  0  0
    1.2237   -1.0268    1.6178 C   0  0  0  0  0  0  0  0  0  0  0  0
    1.3191   -1.0824    0.2079 O   0  0  0  0  0  0  0  0  0  0  0  0
   -0.0925   -2.7238    1.8205 H   0  0  0  0  0  0  0  0  0  0  0  0
   -0.0497   -1.6647    3.2414 H   0  0  0  0  0  0  0  0  0  0  0  0
   -0.9293   -1.1641    1.7958 H   0  0  0  0  0  0  0  0  0  0  0  0
    1.2842    0.0110    1.9698 H   0  0  0  0  0  0  0  0  0  0  0  0
    2.1072   -1.5466    1.9910 H   0  0  0  0  0  0  0  0  0  0  0  0
   -0.6414    0.0593   -2.2639 C   0  0  0  0  0  0  0  0  0  0  0  0
   -0.6414    0.0593   -0.7534 C   0  0  0  0  0  0  0  0  0  0  0  0
   -0.6414    1.3852   -0.0898 N   0  0  0  0  0  0  0  0  0  0  0  0
   -0.6414    2.3148   -0.8375 O   0  0  0  0  0  1  0  0  0  0  0  0
    0.2387    0.5666   -2.6583 H   0  0  0  0  0  0  0  0  0  0  0  0
   -0.6414   -0.9679   -2.6291 H   0  0  0  0  0  0  0  0  0  0  0  0
   -1.5216    0.5666   -2.6583 H   0  0  0  0  0  0  0  0  0  0  0  0
    0.4040   -0.5495   -0.2408 H   0  0  0  0  0  0  0  0  0  0  0  0
   -1.5126   -0.4481   -0.3262 H   0  0  0  0  0  0  0  0  0  0  0  0
  1  2  1  0
  1  4  1  0
  1  5  1  0
  1  6  1  0
  2  3  1  0
  2  7  1  0
  2  8  1  0
  3 16  1  0
  9 10  1  0
  9 13  1  0
  9 14  1  0
  9 15  1  0
 10 11  2  3
 10 17  1  0
 11 12  1  0
M  RAD  1  12   2
M  END
>  <reaction>  (9) 
rmg_rxn_383

>  <mol_properties>  (9) 
{"1": {"label": "*4", "atom_type": "Cs"}, "2": {"label": "*3", "atom_type": "O2s"}, "9": {"label": "*1", "atom_type": "Cs"}, "10": {"label": "*0", "atom_type": "N3d"}, "15": {"label": "*2", "atom_type": "H0"}}

>  <type>  (9) 
unop_5

>  <geom_source>  (9) 
Heuristics

$$$$

     RDKit          3D

 17 15  0  0  0  0  0  0  0  0999 V2000
    1.3894   -2.8947   -0.1116 C   0  0  0  0  0  0  0  0  0  0  0  0
    0.7979   -2.0088    0.9693 C   0  0  0  0  0  0  0  0  0  0  0  0
    1.1162   -0.6419    0.7944 O   0  0  0  0  0  0  0  0  0  0  0  0
    2.4727   -2.7744   -0.1542 H   0  0  0  0  0  0  0  0  0  0  0  0
    1.1626   -3.9447    0.0841 H   0  0  0  0  0  0  0  0  0  0  0  0
    0.9775   -2.6428   -1.0926 H   0  0  0  0  0  0  0  0  0  0  0  0
   -0.2893   -2.1502    1.0200 H   0  0  0  0  0  0  0  0  0  0  0  0
    1.2050   -2.2809    1.9441 H   0  0  0  0  0  0  0  0  0  0  0  0
   -0.8444    0.4997   -1.6774 C   0  0  0  0  0  0  0  0  0  0  0  0
   -0.8444    0.4997   -0.1669 C   0  0  0  0  0  0  0  0  0  0  0  0
   -0.8444    1.8257    0.4967 N   0  0  0  0  0  0  0  0  0  0  0  0
   -0.8444    2.7552   -0.2510 O   0  0  0  0  0  1  0  0  0  0  0  0
    0.0358    1.0071   -2.0719 H   0  0  0  0  0  0  0  0  0  0  0  0
   -0.8444   -0.5274   -2.0426 H   0  0  0  0  0  0  0  0  0  0  0  0
   -1.7245    1.0071   -2.0719 H   0  0  0  0  0  0  0  0  0  0  0  0
    0.2011   -0.1091    0.3457 H   0  0  0  0  0  0  0  0  0  0  0  0
   -1.7156   -0.0076    0.2603 H   0  0  0  0  0  0  0  0  0  0  0  0
  1  2  1  0
  1  4  1  0
  1  5  1  0
  1  6  1  0
  2  3  1  0
  2  7  1  0
  2  8  1  0
  3 16  1  0
  9 10  1  0
  9 13  1  0
  9 14  1  0
  9 15  1  0
 10 11  2  3
 10 17  1  0
 11 12  1  0
M  RAD  1  12   2
M  END
>  <reaction>  (10) 
rmg_rxn_383

>  <mol_properties>  (10) 
{"1": {"label": "*4", "atom_type": "Cs"}, "2": {"label": "*3", "atom_type": "O2s"}, "9": {"label": "*1", "atom_type": "Cs"}, "10": {"label": "*0", "atom_type": "N3d"}, "15": {"label": "*2", "atom_type": "H0"}}

>  <type>  (10) 
unop_6

>  <geom_source>  (10) 
Heuristics

$$$$

     RDKit          3D

 17 15  0  0  0  0  0  0  0  0999 V2000
    0.9116   -3.0805    0.6608 C   0  0  0  0  0  0  0  0  0  0  0  0
    0.7653   -1.7384    1.3538 C   0  0  0  0  0  0  0  0  0  0  0  0
    1.2192   -0.6586    0.5614 O   0  0  0  0  0  0  0  0  0  0  0  0
    1.9497   -3.2504    0.3719 H   0  0  0  0  0  0  0  0  0  0  0  0
    0.5962   -3.8913    1.3206 H   0  0  0  0  0  0  0  0  0  0  0  0
    0.2933   -3.1251   -0.2399 H   0  0  0  0  0  0  0  0  0  0  0  0
   -0.2773   -1.5834    1.6596 H   0  0  0  0  0  0  0  0  0  0  0  0
    1.3744   -1.7130    2.2584 H   0  0  0  0  0  0  0  0  0  0  0  0
   -0.7413    0.4831   -1.9103 C   0  0  0  0  0  0  0  0  0  0  0  0
   -0.7413    0.4831   -0.3999 C   0  0  0  0  0  0  0  0  0  0  0  0
   -0.7413    1.8091    0.2637 N   0  0  0  0  0  0  0  0  0  0  0  0
   -0.7413    2.7386   -0.4840 O   0  0  0  0  0  1  0  0  0  0  0  0
    0.1388    0.9905   -2.3048 H   0  0  0  0  0  0  0  0  0  0  0  0
   -0.7413   -0.5440   -2.2756 H   0  0  0  0  0  0  0  0  0  0  0  0
   -1.6215    0.9905   -2.3048 H   0  0  0  0  0  0  0  0  0  0  0  0
    0.3041   -0.1257    0.1127 H   0  0  0  0  0  0  0  0  0  0  0  0
   -1.6125   -0.0242    0.0273 H   0  0  0  0  0  0  0  0  0  0  0  0
  1  2  1  0
  1  4  1  0
  1  5  1  0
  1  6  1  0
  2  3  1  0
  2  7  1  0
  2  8  1  0
  3 16  1  0
  9 10  1  0
  9 13  1  0
  9 14  1  0
  9 15  1  0
 10 11  2  3
 10 17  1  0
 11 12  1  0
M  RAD  1  12   2
M  END
>  <reaction>  (11) 
rmg_rxn_383

>  <mol_properties>  (11) 
{"1": {"label": "*4", "atom_type": "Cs"}, "2": {"label": "*3", "atom_type": "O2s"}, "9": {"label": "*1", "atom_type": "Cs"}, "10": {"label": "*0", "atom_type": "N3d"}, "15": {"label": "*2", "atom_type": "H0"}}

>  <type>  (11) 
unop_7

>  <geom_source>  (11) 
Heuristics

$$$$

     RDKit          3D

 17 15  0  0  0  0  0  0  0  0999 V2000
    1.4157    0.7413    0.7709 C   0  0  0  0  0  0  0  0  0  0  0  0
    1.9187   -0.6895    0.8205 C   0  0  0  0  0  0  0  0  0  0  0  0
    0.8871   -1.6409    0.6456 O   0  0  0  0  0  0  0  0  0  0  0  0
    0.6409    0.9004    1.5221 H   0  0  0  0  0  0  0  0  0  0  0  0
    2.2313    1.4431    0.9572 H   0  0  0  0  0  0  0  0  0  0  0  0
    0.9945    0.9741   -0.2108 H   0  0  0  0  0  0  0  0  0  0  0  0
    2.7119   -0.8366    0.0763 H   0  0  0  0  0  0  0  0  0  0  0  0
    2.3504   -0.9035    1.7992 H   0  0  0  0  0  0  0  0  0  0  0  0
   -1.0735   -0.4992   -1.8262 C   0  0  0  0  0  0  0  0  0  0  0  0
   -1.0735   -0.4992   -0.3157 C   0  0  0  0  0  0  0  0  0  0  0  0
   -1.0735    0.8267    0.3479 N   0  0  0  0  0  0  0  0  0  0  0  0
   -1.0735    1.7563   -0.3998 O   0  0  0  0  0  1  0  0  0  0  0  0
   -0.1934    0.0082   -2.2207 H   0  0  0  0  0  0  0  0  0  0  0  0
   -1.0735   -1.5264   -2.1914 H   0  0  0  0  0  0  0  0  0  0  0  0
   -1.9536    0.0082   -2.2207 H   0  0  0  0  0  0  0  0  0  0  0  0
   -0.0281   -1.1080    0.1969 H   0  0  0  0  0  0  0  0  0  0  0  0
   -1.9447   -1.0065    0.1115 H   0  0  0  0  0  0  0  0  0  0  0  0
  1  2  1  0
  1  4  1  0
  1  5  1  0
  1  6  1  0
  2  3  1  0
  2  7  1  0
  2  8  1  0
  3 16  1  0
  9 10  1  0
  9 13  1  0
  9 14  1  0
  9 15  1  0
 10 11  2  3
 10 17  1  0
 11 12  1  0
M  RAD  1  12   2
M  END
>  <reaction>  (12) 
rmg_rxn_383

>  <mol_properties>  (12) 
{"1": {"label": "*4", "atom_type": "Cs"}, "2": {"label": "*3", "atom_type": "O2s"}, "9": {"label": "*1", "atom_type": "Cs"}, "10": {"label": "*0", "atom_type": "N3d"}, "15": {"label": "*2", "atom_type": "H0"}}

>  <type>  (12) 
unop_8

>  <geom_source>  (12) 
Heuristics

$$$$

     RDKit          3D

 17 15  0  0  0  0  0  0  0  0999 V2000
    2.0983   -1.4284   -0.9464 C   0  0  0  0  0  0  0  0  0  0  0  0
    1.2860   -1.9627    0.2188 C   0  0  0  0  0  0  0  0  0  0  0  0
    0.8752   -0.9474    1.1134 O   0  0  0  0  0  0  0  0  0  0  0  0
    2.9720   -0.8840   -0.5856 H   0  0  0  0  0  0  0  0  0  0  0  0
    2.4367   -2.2455   -1.5869 H   0  0  0  0  0  0  0  0  0  0  0  0
    1.5010   -0.7496   -1.5610 H   0  0  0  0  0  0  0  0  0  0  0  0
    0.4203   -2.5264   -0.1519 H   0  0  0  0  0  0  0  0  0  0  0  0
    1.8883   -2.6503    0.8141 H   0  0  0  0  0  0  0  0  0  0  0  0
   -1.0854    0.1943   -1.3584 C   0  0  0  0  0  0  0  0  0  0  0  0
   -1.0854    0.1943    0.1521 C   0  0  0  0  0  0  0  0  0  0  0  0
   -1.0854    1.5202    0.8157 N   0  0  0  0  0  0  0  0  0  0  0  0
   -1.0854    2.4498    0.0680 O   0  0  0  0  0  1  0  0  0  0  0  0
   -0.2052    0.7016   -1.7529 H   0  0  0  0  0  0  0  0  0  0  0  0
   -1.0854   -0.8329   -1.7236 H   0  0  0  0  0  0  0  0  0  0  0  0
   -1.9655    0.7016   -1.7529 H   0  0  0  0  0  0  0  0  0  0  0  0
   -0.0399   -0.4145    0.6647 H   0  0  0  0  0  0  0  0  0  0  0  0
   -1.9566   -0.3131    0.5793 H   0  0  0  0  0  0  0  0  0  0  0  0
  1  2  1  0
  1  4  1  0
  1  5  1  0
  1  6  1  0
  2  3  1  0
  2  7  1  0
  2  8  1  0
  3 16  1  0
  9 10  1  0
  9 13  1  0
  9 14  1  0
  9 15  1  0
 10 11  2  3
 10 17  1  0
 11 12  1  0
M  RAD  1  12   2
M  END
>  <reaction>  (13) 
rmg_rxn_383

>  <mol_properties>  (13) 
{"1": {"label": "*4", "atom_type": "Cs"}, "2": {"label": "*3", "atom_type": "O2s"}, "9": {"label": "*1", "atom_type": "Cs"}, "10": {"label": "*0", "atom_type": "N3d"}, "15": {"label": "*2", "atom_type": "H0"}}

>  <type>  (13) 
unop_9

>  <geom_source>  (13) 
Heuristics

$$$$

     RDKit          3D

 17 15  0  0  0  0  0  0  0  0999 V2000
    1.7265    0.5515    0.0512 C   0  0  0  0  0  0  0  0  0  0  0  0
    1.9793   -0.8968    0.4272 C   0  0  0  0  0  0  0  0  0  0  0  0
    0.8119   -1.5612    0.8698 O   0  0  0  0  0  0  0  0  0  0  0  0
    1.2936    1.0948    0.8922 H   0  0  0  0  0  0  0  0  0  0  0  0
    2.6578    1.0424   -0.2387 H   0  0  0  0  0  0  0  0  0  0  0  0
    1.0365    0.6215   -0.7941 H   0  0  0  0  0  0  0  0  0  0  0  0
    2.4335   -1.4319   -0.4166 H   0  0  0  0  0  0  0  0  0  0  0  0
    2.6809   -0.9528    1.2606 H   0  0  0  0  0  0  0  0  0  0  0  0
   -1.1486   -0.4195   -1.6020 C   0  0  0  0  0  0  0  0  0  0  0  0
   -1.1486   -0.4195   -0.0915 C   0  0  0  0  0  0  0  0  0  0  0  0
   -1.1486    0.9064    0.5721 N   0  0  0  0  0  0  0  0  0  0  0  0
   -1.1486    1.8360   -0.1756 O   0  0  0  0  0  1  0  0  0  0  0  0
   -0.2685    0.0878   -1.9964 H   0  0  0  0  0  0  0  0  0  0  0  0
   -1.1486   -1.4467   -1.9672 H   0  0  0  0  0  0  0  0  0  0  0  0
   -2.0288    0.0878   -1.9964 H   0  0  0  0  0  0  0  0  0  0  0  0
   -0.1032   -1.0283    0.4211 H   0  0  0  0  0  0  0  0  0  0  0  0
   -2.0198   -0.9269    0.3357 H   0  0  0  0  0  0  0  0  0  0  0  0
  1  2  1  0
  1  4  1  0
  1  5  1  0
  1  6  1  0
  2  3  1  0
  2  7  1  0
  2  8  1  0
  3 16  1  0
  9 10  1  0
  9 13  1  0
  9 14  1  0
  9 15  1  0
 10 11  2  3
 10 17  1  0
 11 12  1  0
M  RAD  1  12   2
M  END
>  <reaction>  (14) 
rmg_rxn_383

>  <mol_properties>  (14) 
{"1": {"label": "*4", "atom_type": "Cs"}, "2": {"label": "*3", "atom_type": "O2s"}, "9": {"label": "*1", "atom_type": "Cs"}, "10": {"label": "*0", "atom_type": "N3d"}, "15": {"label": "*2", "atom_type": "H0"}}

>  <type>  (14) 
unop_10

>  <geom_source>  (14) 
Heuristics

$$$$

     RDKit          3D

 17 15  0  0  0  0  0  0  0  0999 V2000
    0.4080   -2.7792    1.4715 C   0  0  0  0  0  0  0  0  0  0  0  0
    0.9180   -1.3552    1.5941 C   0  0  0  0  0  0  0  0  0  0  0  0
    1.2904   -0.7960    0.3497 O   0  0  0  0  0  0  0  0  0  0  0  0
    1.1566   -3.4137    0.9952 H   0  0  0  0  0  0  0  0  0  0  0  0
    0.1766   -3.1916    2.4557 H   0  0  0  0  0  0  0  0  0  0  0  0
   -0.5055   -2.8173    0.8718 H   0  0  0  0  0  0  0  0  0  0  0  0
    0.1681   -0.7275    2.0924 H   0  0  0  0  0  0  0  0  0  0  0  0
    1.8198   -1.3294    2.2074 H   0  0  0  0  0  0  0  0  0  0  0  0
   -0.6702    0.3457   -2.1221 C   0  0  0  0  0  0  0  0  0  0  0  0
   -0.6702    0.3457   -0.6116 C   0  0  0  0  0  0  0  0  0  0  0  0
   -0.6702    1.6716    0.0520 N   0  0  0  0  0  0  0  0  0  0  0  0
   -0.6702    2.6012   -0.6957 O   0  0  0  0  0  1  0  0  0  0  0  0
    0.2100    0.8530   -2.5166 H   0  0  0  0  0  0  0  0  0  0  0  0
   -0.6702   -0.6815   -2.4874 H   0  0  0  0  0  0  0  0  0  0  0  0
   -1.5503    0.8530   -2.5166 H   0  0  0  0  0  0  0  0  0  0  0  0
    0.3753   -0.2631   -0.0990 H   0  0  0  0  0  0  0  0  0  0  0  0
   -1.5414   -0.1616   -0.1845 H   0  0  0  0  0  0  0  0  0  0  0  0
  1  2  1  0
  1  4  1  0
  1  5  1  0
  1  6  1  0
  2  3  1  0
  2  7  1  0
  2  8  1  0
  3 16  1  0
  9 10  1  0
  9 13  1  0
  9 14  1  0
  9 15  1  0
 10 11  2  3
 10 17  1  0
 11 12  1  0
M  RAD  1  12   2
M  END
>  <reaction>  (15) 
rmg_rxn_383

>  <mol_properties>  (15) 
{"1": {"label": "*4", "atom_type": "Cs"}, "2": {"label": "*3", "atom_type": "O2s"}, "9": {"label": "*1", "atom_type": "Cs"}, "10": {"label": "*0", "atom_type": "N3d"}, "15": {"label": "*2", "atom_type": "H0"}}

>  <type>  (15) 
unop_11

>  <geom_source>  (15) 
Heuristics

$$$$

     RDKit          3D

 17 15  0  0  0  0  0  0  0  0999 V2000
    2.0983   -0.5459   -0.8492 C   0  0  0  0  0  0  0  0  0  0  0  0
    1.6177   -1.6580    0.0645 C   0  0  0  0  0  0  0  0  0  0  0  0
    0.8088   -1.1869    1.1246 O   0  0  0  0  0  0  0  0  0  0  0  0
    2.6444    0.2075   -0.2800 H   0  0  0  0  0  0  0  0  0  0  0  0
    2.7570   -0.9421   -1.6248 H   0  0  0  0  0  0  0  0  0  0  0  0
    1.2563   -0.0565   -1.3462 H   0  0  0  0  0  0  0  0  0  0  0  0
    1.0871   -2.4221   -0.5180 H   0  0  0  0  0  0  0  0  0  0  0  0
    2.4678   -2.1478    0.5414 H   0  0  0  0  0  0  0  0  0  0  0  0
   -1.1518   -0.0453   -1.3471 C   0  0  0  0  0  0  0  0  0  0  0  0
   -1.1518   -0.0453    0.1633 C   0  0  0  0  0  0  0  0  0  0  0  0
   -1.1518    1.2807    0.8269 N   0  0  0  0  0  0  0  0  0  0  0  0
   -1.1518    2.2102    0.0792 O   0  0  0  0  0  1  0  0  0  0  0  0
   -0.2716    0.4621   -1.7416 H   0  0  0  0  0  0  0  0  0  0  0  0
   -1.1518   -1.0724   -1.7124 H   0  0  0  0  0  0  0  0  0  0  0  0
   -2.0319    0.4621   -1.7416 H   0  0  0  0  0  0  0  0  0  0  0  0
   -0.1063   -0.6541    0.6759 H   0  0  0  0  0  0  0  0  0  0  0  0
   -2.0230   -0.5526    0.5905 H   0  0  0  0  0  0  0  0  0  0  0  0
  1  2  1  0
  1  4  1  0
  1  5  1  0
  1  6  1  0
  2  3  1  0
  2  7  1  0
  2  8  1  0
  3 16  1  0
  9 10  1  0
  9 13  1  0
  9 14  1  0
  9 15  1  0
 10 11  2  3
 10 17  1  0
 11 12  1  0
M  RAD  1  12   2
M  END
>  <reaction>  (16) 
rmg_rxn_383

>  <mol_properties>  (16) 
{"1": {"label": "*4", "atom_type": "Cs"}, "2": {"label": "*3", "atom_type": "O2s"}, "9": {"label": "*1", "atom_type": "Cs"}, "10": {"label": "*0", "atom_type": "N3d"}, "15": {"label": "*2", "atom_type": "H0"}}

>  <type>  (16) 
unop_12

>  <geom_source>  (16) 
Heuristics

$$$$

     RDKit          3D

 17 15  0  0  0  0  0  0  0  0999 V2000
   -0.6494   -0.2130   -1.1349 O   0  0  0  0  0  0  0  0  0  0  0  0
    1.3687    2.2569    0.6898 O   0  0  0  0  0  1  0  0  0  0  0  0
    1.5821    1.0841    0.7364 N   0  0  0  0  0  0  0  0  0  0  0  0
   -1.7812    0.3726   -0.5565 C   0  0  0  0  0  0  0  0  0  0  0  0
   -1.9220   -0.0728    0.8929 C   0  0  0  0  0  0  0  0  0  0  0  0
    1.8045   -1.1652   -0.1413 C   0  0  0  0  0  0  0  0  0  0  0  0
    1.6068    0.3046   -0.4729 C   0  0  0  0  0  0  0  0  0  0  0  0
   -2.6804    0.0554   -1.1256 H   0  0  0  0  0  0  0  0  0  0  0  0
   -1.7086    1.4814   -0.6079 H   0  0  0  0  0  0  0  0  0  0  0  0
   -2.0037   -1.1792    0.9443 H   0  0  0  0  0  0  0  0  0  0  0  0
   -1.0393    0.2562    1.4811 H   0  0  0  0  0  0  0  0  0  0  0  0
   -2.8359    0.3768    1.3352 H   0  0  0  0  0  0  0  0  0  0  0  0
    0.9727   -1.5232    0.5013 H   0  0  0  0  0  0  0  0  0  0  0  0
    1.8114   -1.7573   -1.0800 H   0  0  0  0  0  0  0  0  0  0  0  0
    2.7703   -1.3132    0.3875 H   0  0  0  0  0  0  0  0  0  0  0  0
    2.4305    0.6570   -1.1308 H   0  0  0  0  0  0  0  0  0  0  0  0
    0.2736    0.3787   -0.7186 H   0  0  0  0  0  0  0  0  0  0  0  0
  1  4  1  0
  1 17  1  0
  2  3  1  0
  3  7  2  3
  4  5  1  0
  4  8  1  0
  4  9  1  0
  5 10  1  0
  5 11  1  0
  5 12  1  0
  6  7  1  0
  6 13  1  0
  6 14  1  0
  6 15  1  0
  7 16  1  0
M  RAD  1   2   2
M  END
>  <reaction>  (17) 
rmg_rxn_383

>  <mol_properties>  (17) 
{"1": {"label": "*4", "atom_type": "Cs"}, "2": {"label": "*3", "atom_type": "O2s"}, "9": {"label": "*1", "atom_type": "Cs"}, "10": {"label": "*0", "atom_type": "N3d"}, "15": {"label": "*2", "atom_type": "H0"}}

>  <type>  (17) 
unop_13

>  <geom_source>  (17) 
AutoTST

$$$$

     RDKit          3D

 17 15  0  0  0  0  0  0  0  0999 V2000
    1.9343    0.1171   -0.4973 C   0  0  0  0  0  0  0  0  0  0  0  0
    1.8761   -1.2575    0.1430 C   0  0  0  0  0  0  0  0  0  0  0  0
    0.7903   -1.4013    1.0377 O   0  0  0  0  0  0  0  0  0  0  0  0
    1.9858    0.8932    0.2674 H   0  0  0  0  0  0  0  0  0  0  0  0
    2.8108    0.2047   -1.1426 H   0  0  0  0  0  0  0  0  0  0  0  0
    1.0489    0.2999   -1.1123 H   0  0  0  0  0  0  0  0  0  0  0  0
    1.8451   -2.0338   -0.6322 H   0  0  0  0  0  0  0  0  0  0  0  0
    2.7719   -1.4331    0.7404 H   0  0  0  0  0  0  0  0  0  0  0  0
   -1.1702   -0.2596   -1.4341 C   0  0  0  0  0  0  0  0  0  0  0  0
   -1.1702   -0.2596    0.0764 C   0  0  0  0  0  0  0  0  0  0  0  0
   -1.1702    1.0664    0.7400 N   0  0  0  0  0  0  0  0  0  0  0  0
   -1.1702    1.9959   -0.0077 O   0  0  0  0  0  1  0  0  0  0  0  0
   -0.2901    0.2478   -1.8286 H   0  0  0  0  0  0  0  0  0  0  0  0
   -1.1702   -1.2867   -1.7994 H   0  0  0  0  0  0  0  0  0  0  0  0
   -2.0503    0.2478   -1.8286 H   0  0  0  0  0  0  0  0  0  0  0  0
   -0.1248   -0.8683    0.5890 H   0  0  0  0  0  0  0  0  0  0  0  0
   -2.0414   -0.7669    0.5036 H   0  0  0  0  0  0  0  0  0  0  0  0
  1  2  1  0
  1  4  1  0
  1  5  1  0
  1  6  1  0
  2  3  1  0
  2  7  1  0
  2  8  1  0
  3 16  1  0
  9 10  1  0
  9 13  1  0
  9 14  1  0
  9 15  1  0
 10 11  2  3
 10 17  1  0
 11 12  1  0
M  RAD  1  12   2
M  END
>  <reaction>  (18) 
rmg_rxn_383

>  <mol_properties>  (18) 
{"1": {"label": "*4", "atom_type": "Cs"}, "2": {"label": "*3", "atom_type": "O2s"}, "9": {"label": "*1", "atom_type": "Cs"}, "10": {"label": "*0", "atom_type": "N3d"}, "15": {"label": "*2", "atom_type": "H0"}}

>  <type>  (18) 
unop_14

>  <geom_source>  (18) 
gaussian_log

$$$$
