
     RDKit          3D

 10  9  0  0  0  0  0  0  0  0999 V2000
    2.0403   -0.0576    0.0117 C   0  0  0  0  0  0  0  0  0  0  0  0
    0.5945   -0.0168    0.1897 C   0  0  0  0  0  0  0  0  0  0  0  0
   -0.5945    0.0167    0.3361 C   0  0  0  0  0  0  0  0  0  0  0  0
   -2.0403    0.0576    0.5141 C   0  0  0  0  0  0  0  0  0  0  0  0
    2.4704    0.9425    0.0887 H   0  0  0  0  0  0  0  0  0  0  0  0
    2.3007   -0.4622   -0.9679 H   0  0  0  0  0  0  0  0  0  0  0  0
    2.5086   -0.6856    0.7714 H   0  0  0  0  0  0  0  0  0  0  0  0
   -2.3710    1.0616    0.7852 H   0  0  0  0  0  0  0  0  0  0  0  0
   -2.3547   -0.6260    1.3046 H   0  0  0  0  0  0  0  0  0  0  0  0
   -2.5540   -0.2302   -0.4048 H   0  0  0  0  0  0  0  0  0  0  0  0
  1  2  1  0
  1  5  1  0
  1  6  1  0
  1  7  1  0
  2  3  3  0
  3  4  1  0
  4  8  1  0
  4  9  1  0
  4 10  1  0
M  END
>  <reaction>  (1) 
rmg_rxn_3

>  <mol_properties>  (1) 
{"3": {"label": "donator", "atom_type": "Cs"}, "9": {"label": "d_hydrogen", "atom_type": "H0"}}

>  <type>  (1) 
r1h

$$$$

     RDKit          3D

  9  8  0  0  0  0  0  0  0  0999 V2000
    1.3246   -0.8124   -0.0809 C   0  0  0  0  0  2  0  0  0  0  0  0
    0.4082    0.3080    0.1518 C   0  0  0  0  0  0  0  0  0  0  0  0
   -1.0545   -0.0277   -0.1520 C   0  0  0  0  0  0  0  0  0  0  0  0
    2.3933   -0.9471    0.0203 H   0  0  0  0  0  0  0  0  0  0  0  0
    0.4898    0.6406    1.1970 H   0  0  0  0  0  0  0  0  0  0  0  0
    0.7134    1.1680   -0.4624 H   0  0  0  0  0  0  0  0  0  0  0  0
   -1.4014   -0.8515    0.4727 H   0  0  0  0  0  0  0  0  0  0  0  0
   -1.1767   -0.3214   -1.1952 H   0  0  0  0  0  0  0  0  0  0  0  0
   -1.6915    0.8372    0.0370 H   0  0  0  0  0  0  0  0  0  0  0  0
  1  2  1  0
  1  4  1  0
  2  3  1  0
  2  5  1  0
  2  6  1  0
  3  7  1  0
  3  8  1  0
  3  9  1  0
M  RAD  1   1   3
M  END
>  <reaction>  (2) 
rmg_rxn_3

>  <mol_properties>  (2) 
{"0": {"label": "acceptor", "atom_type": "Cs"}}

>  <type>  (2) 
r2

$$$$

     RDKit          3D

 10  9  0  0  0  0  0  0  0  0999 V2000
    1.4352    0.2660   -0.1351 C   0  0  0  0  0  3  0  0  0  0  0  0
    0.2236   -0.3243    0.4850 C   0  0  0  0  0  0  0  0  0  0  0  0
   -0.8893    0.6872    0.7364 C   0  0  0  0  0  0  0  0  0  0  0  0
    2.3577   -0.2958   -0.1940 H   0  0  0  0  0  0  0  0  0  0  0  0
    1.3935    1.2286   -0.6287 H   0  0  0  0  0  0  0  0  0  0  0  0
   -0.1633   -1.1318   -0.1556 H   0  0  0  0  0  0  0  0  0  0  0  0
    0.4945   -0.8215    1.4240 H   0  0  0  0  0  0  0  0  0  0  0  0
   -1.1991    1.1627   -0.1967 H   0  0  0  0  0  0  0  0  0  0  0  0
   -1.7660    0.2103    1.1768 H   0  0  0  0  0  0  0  0  0  0  0  0
   -0.5545    1.4732    1.4159 H   0  0  0  0  0  0  0  0  0  0  0  0
  1  2  1  0
  1  4  1  0
  1  5  1  0
  2  3  1  0
  2  6  1  0
  2  7  1  0
  3  8  1  0
  3  9  1  0
  3 10  1  0
M  RAD  1   1   2
M  END
>  <reaction>  (3) 
rmg_rxn_3

>  <mol_properties>  (3) 
{"0": {"label": "acceptor", "atom_type": "Cs"}, "9": {"label": "a_hydrogen", "atom_type": "H0"}}

>  <type>  (3) 
r2h

$$$$

     RDKit          3D

 19 17  0  0  0  0  0  0  0  0999 V2000
   -0.5082    1.0324    2.1533 C   0  0  0  0  0  2  0  0  0  0  0  0
    0.3278    1.8016    1.2134 C   0  0  0  0  0  0  0  0  0  0  0  0
    1.7717    1.2827    1.1262 C   0  0  0  0  0  0  0  0  0  0  0  0
   -0.5767    1.1510    3.2289 H   0  0  0  0  0  0  0  0  0  0  0  0
   -0.1176    1.7515    0.2141 H   0  0  0  0  0  0  0  0  0  0  0  0
    0.3360    2.8598    1.5016 H   0  0  0  0  0  0  0  0  0  0  0  0
    1.7800    0.2466    0.7851 H   0  0  0  0  0  0  0  0  0  0  0  0
    2.2639    1.3270    2.0992 H   0  0  0  0  0  0  0  0  0  0  0  0
    2.3526    1.8820    0.4221 H   0  0  0  0  0  0  0  0  0  0  0  0
    0.6263   -1.0518   -2.5729 C   0  0  0  0  0  0  0  0  0  0  0  0
   -0.1617   -1.0860   -1.3491 C   0  0  0  0  0  0  0  0  0  0  0  0
   -0.8133   -1.1205   -0.3390 C   0  0  0  0  0  0  0  0  0  0  0  0
   -1.5413   -1.0927    0.8940 C   0  0  0  0  0  0  0  0  0  0  0  0
    0.0104   -0.7627   -3.4262 H   0  0  0  0  0  0  0  0  0  0  0  0
    1.0605   -2.0304   -2.7849 H   0  0  0  0  0  0  0  0  0  0  0  0
    1.4436   -0.3326   -2.4878 H   0  0  0  0  0  0  0  0  0  0  0  0
   -1.3721   -1.9615    1.5279 H   0  0  0  0  0  0  0  0  0  0  0  0
   -2.6034   -0.8837    0.7781 H   0  0  0  0  0  0  0  0  0  0  0  0
   -1.0947   -0.1198    1.5752 H   0  0  0  0  0  0  0  0  0  0  0  0
  1  2  1  0
  1  4  1  0
  2  3  1  0
  2  5  1  0
  2  6  1  0
  3  7  1  0
  3  8  1  0
  3  9  1  0
 10 11  1  0
 10 14  1  0
 10 15  1  0
 10 16  1  0
 11 12  3  0
 12 13  1  0
 13 17  1  0
 13 18  1  0
 13 19  1  0
M  RAD  1   1   3
M  END
>  <reaction>  (4) 
rmg_rxn_3

>  <mol_properties>  (4) 
{"0": {"label": "*3", "atom_type": "Cs"}, "1": {"label": "*4", "atom_type": "Cs"}, "11": {"label": "*0", "atom_type": "Ct"}, "12": {"label": "*1", "atom_type": "Cs"}, "18": {"label": "*2", "atom_type": "H0"}}

>  <type>  (4) 
ts

$$$$

     RDKit          3D

 19 17  0  0  0  0  0  0  0  0999 V2000
    0.6460    0.8814    1.2411 C   0  0  0  0  0  3  0  0  0  0  0  0
   -0.1904    1.7479    2.1074 C   0  0  0  0  0  0  0  0  0  0  0  0
    0.6045    2.5016    3.1680 C   0  0  0  0  0  0  0  0  0  0  0  0
    1.6442    0.5915    1.5438 H   0  0  0  0  0  0  0  0  0  0  0  0
   -0.7514    2.4576    1.4878 H   0  0  0  0  0  0  0  0  0  0  0  0
   -0.9630    1.1398    2.6026 H   0  0  0  0  0  0  0  0  0  0  0  0
    1.3435    3.1592    2.7064 H   0  0  0  0  0  0  0  0  0  0  0  0
    1.1377    1.8063    3.8199 H   0  0  0  0  0  0  0  0  0  0  0  0
   -0.0485    3.1128    3.7926 H   0  0  0  0  0  0  0  0  0  0  0  0
   -0.2809   -1.3715   -3.8023 C   0  0  0  0  0  0  0  0  0  0  0  0
   -0.2809   -1.3715   -2.3450 C   0  0  0  0  0  3  0  0  0  0  0  0
   -0.2809   -1.3715   -1.1465 C   0  0  0  0  0  0  0  0  0  0  0  0
   -0.2809   -1.3715    0.3107 C   0  0  0  0  0  0  0  0  0  0  0  0
    0.4187   -2.1131   -4.1916 H   0  0  0  0  0  0  0  0  0  0  0  0
    0.0116   -0.3948   -4.1916 H   0  0  0  0  0  0  0  0  0  0  0  0
   -1.2729   -1.6065   -4.1916 H   0  0  0  0  0  0  0  0  0  0  0  0
    0.3417   -2.1788    0.7000 H   0  0  0  0  0  0  0  0  0  0  0  0
   -1.2914   -1.5070    0.7001 H   0  0  0  0  0  0  0  0  0  0  0  0
    0.1846   -0.2401    0.7780 H   0  0  0  0  0  0  0  0  0  0  0  0
  1  2  1  0
  1  4  1  0
  1 19  1  0
  2  3  1  0
  2  5  1  0
  2  6  1  0
  3  7  1  0
  3  8  1  0
  3  9  1  0
 10 11  1  0
 10 14  1  0
 10 15  1  0
 10 16  1  0
 11 12  2  0
 12 13  2  0
 13 17  1  0
 13 18  1  0
M  RAD  2   1   2  11   2
M  END
>  <reaction>  (5) 
rmg_rxn_3

>  <mol_properties>  (5) 
{"0": {"label": "*3", "atom_type": "Cs"}, "1": {"label": "*4", "atom_type": "Cs"}, "11": {"label": "*0", "atom_type": "Ct"}, "12": {"label": "*1", "atom_type": "Cs"}, "18": {"label": "*2", "atom_type": "H0"}}

>  <type>  (5) 
unop_1

>  <geom_source>  (5) 
Heuristics

$$$$

     RDKit          3D

 19 17  0  0  0  0  0  0  0  0999 V2000
    0.4985    0.6794    1.7855 C   0  0  0  0  0  3  0  0  0  0  0  0
    0.3295    1.9426    1.0262 C   0  0  0  0  0  0  0  0  0  0  0  0
    0.7990    3.1793    1.7845 C   0  0  0  0  0  0  0  0  0  0  0  0
    0.6422    0.6914    2.8584 H   0  0  0  0  0  0  0  0  0  0  0  0
    0.8571    1.8705    0.0677 H   0  0  0  0  0  0  0  0  0  0  0  0
   -0.7290    2.0702    0.7519 H   0  0  0  0  0  0  0  0  0  0  0  0
    1.8621    3.1097    2.0223 H   0  0  0  0  0  0  0  0  0  0  0  0
    0.2534    3.2882    2.7242 H   0  0  0  0  0  0  0  0  0  0  0  0
    0.6423    4.0863    1.1989 H   0  0  0  0  0  0  0  0  0  0  0  0
   -0.4285   -1.5735   -3.2579 C   0  0  0  0  0  0  0  0  0  0  0  0
   -0.4285   -1.5735   -1.8006 C   0  0  0  0  0  3  0  0  0  0  0  0
   -0.4285   -1.5735   -0.6021 C   0  0  0  0  0  0  0  0  0  0  0  0
   -0.4285   -1.5735    0.8551 C   0  0  0  0  0  0  0  0  0  0  0  0
    0.2711   -2.3151   -3.6472 H   0  0  0  0  0  0  0  0  0  0  0  0
   -0.1360   -0.5968   -3.6472 H   0  0  0  0  0  0  0  0  0  0  0  0
   -1.4205   -1.8085   -3.6472 H   0  0  0  0  0  0  0  0  0  0  0  0
    0.1941   -2.3808    1.2445 H   0  0  0  0  0  0  0  0  0  0  0  0
   -1.4390   -1.7090    1.2445 H   0  0  0  0  0  0  0  0  0  0  0  0
    0.0370   -0.4421    1.3224 H   0  0  0  0  0  0  0  0  0  0  0  0
  1  2  1  0
  1  4  1  0
  1 19  1  0
  2  3  1  0
  2  5  1  0
  2  6  1  0
  3  7  1  0
  3  8  1  0
  3  9  1  0
 10 11  1  0
 10 14  1  0
 10 15  1  0
 10 16  1  0
 11 12  2  0
 12 13  2  0
 13 17  1  0
 13 18  1  0
M  RAD  2   1   2  11   2
M  END
>  <reaction>  (6) 
rmg_rxn_3

>  <mol_properties>  (6) 
{"0": {"label": "*3", "atom_type": "Cs"}, "1": {"label": "*4", "atom_type": "Cs"}, "11": {"label": "*0", "atom_type": "Ct"}, "12": {"label": "*1", "atom_type": "Cs"}, "18": {"label": "*2", "atom_type": "H0"}}

>  <type>  (6) 
unop_2

>  <geom_source>  (6) 
Heuristics

$$$$

     RDKit          3D

 19 17  0  0  0  0  0  0  0  0999 V2000
    0.4986    0.9538    1.1717 C   0  0  0  0  0  3  0  0  0  0  0  0
    0.0301    1.4891    2.4736 C   0  0  0  0  0  0  0  0  0  0  0  0
    1.0331    2.4175    3.1496 C   0  0  0  0  0  0  0  0  0  0  0  0
    1.5478    0.9785    0.9063 H   0  0  0  0  0  0  0  0  0  0  0  0
   -0.9254    2.0091    2.3364 H   0  0  0  0  0  0  0  0  0  0  0  0
   -0.2023    0.6553    3.1539 H   0  0  0  0  0  0  0  0  0  0  0  0
    1.2423    3.2867    2.5232 H   0  0  0  0  0  0  0  0  0  0  0  0
    1.9784    1.9013    3.3303 H   0  0  0  0  0  0  0  0  0  0  0  0
    0.6575    2.7750    4.1094 H   0  0  0  0  0  0  0  0  0  0  0  0
   -0.4284   -1.2991   -3.8717 C   0  0  0  0  0  0  0  0  0  0  0  0
   -0.4284   -1.2991   -2.4144 C   0  0  0  0  0  3  0  0  0  0  0  0
   -0.4284   -1.2991   -1.2159 C   0  0  0  0  0  0  0  0  0  0  0  0
   -0.4284   -1.2991    0.2413 C   0  0  0  0  0  0  0  0  0  0  0  0
    0.2712   -2.0407   -4.2610 H   0  0  0  0  0  0  0  0  0  0  0  0
   -0.1359   -0.3224   -4.2610 H   0  0  0  0  0  0  0  0  0  0  0  0
   -1.4204   -1.5341   -4.2610 H   0  0  0  0  0  0  0  0  0  0  0  0
    0.1942   -2.1064    0.6307 H   0  0  0  0  0  0  0  0  0  0  0  0
   -1.4388   -1.4346    0.6307 H   0  0  0  0  0  0  0  0  0  0  0  0
    0.0372   -0.1677    0.7086 H   0  0  0  0  0  0  0  0  0  0  0  0
  1  2  1  0
  1  4  1  0
  1 19  1  0
  2  3  1  0
  2  5  1  0
  2  6  1  0
  3  7  1  0
  3  8  1  0
  3  9  1  0
 10 11  1  0
 10 14  1  0
 10 15  1  0
 10 16  1  0
 11 12  2  0
 12 13  2  0
 13 17  1  0
 13 18  1  0
M  RAD  2   1   2  11   2
M  END
>  <reaction>  (7) 
rmg_rxn_3

>  <mol_properties>  (7) 
{"0": {"label": "*3", "atom_type": "Cs"}, "1": {"label": "*4", "atom_type": "Cs"}, "11": {"label": "*0", "atom_type": "Ct"}, "12": {"label": "*1", "atom_type": "Cs"}, "18": {"label": "*2", "atom_type": "H0"}}

>  <type>  (7) 
unop_3

>  <geom_source>  (7) 
Heuristics

$$$$

     RDKit          3D

 19 17  0  0  0  0  0  0  0  0999 V2000
   -0.0209    1.0360    1.5831 C   0  0  0  0  0  3  0  0  0  0  0  0
    1.3561    1.4832    1.2594 C   0  0  0  0  0  0  0  0  0  0  0  0
    2.1167    2.0378    2.4589 C   0  0  0  0  0  0  0  0  0  0  0  0
   -0.5125    1.3640    2.4901 H   0  0  0  0  0  0  0  0  0  0  0  0
    1.9179    0.6544    0.8126 H   0  0  0  0  0  0  0  0  0  0  0  0
    1.3195    2.2511    0.4713 H   0  0  0  0  0  0  0  0  0  0  0  0
    2.2204    1.2803    3.2380 H   0  0  0  0  0  0  0  0  0  0  0  0
    1.5898    2.8911    2.8913 H   0  0  0  0  0  0  0  0  0  0  0  0
    3.1163    2.3699    2.1750 H   0  0  0  0  0  0  0  0  0  0  0  0
   -0.9478   -1.2169   -3.4602 C   0  0  0  0  0  0  0  0  0  0  0  0
   -0.9478   -1.2169   -2.0030 C   0  0  0  0  0  3  0  0  0  0  0  0
   -0.9478   -1.2169   -0.8045 C   0  0  0  0  0  0  0  0  0  0  0  0
   -0.9478   -1.2169    0.6528 C   0  0  0  0  0  0  0  0  0  0  0  0
   -0.2483   -1.9585   -3.8496 H   0  0  0  0  0  0  0  0  0  0  0  0
   -0.6553   -0.2402   -3.8496 H   0  0  0  0  0  0  0  0  0  0  0  0
   -1.9399   -1.4519   -3.8496 H   0  0  0  0  0  0  0  0  0  0  0  0
   -0.3253   -2.0243    1.0421 H   0  0  0  0  0  0  0  0  0  0  0  0
   -1.9583   -1.3524    1.0421 H   0  0  0  0  0  0  0  0  0  0  0  0
   -0.4823   -0.0855    1.1200 H   0  0  0  0  0  0  0  0  0  0  0  0
  1  2  1  0
  1  4  1  0
  1 19  1  0
  2  3  1  0
  2  5  1  0
  2  6  1  0
  3  7  1  0
  3  8  1  0
  3  9  1  0
 10 11  1  0
 10 14  1  0
 10 15  1  0
 10 16  1  0
 11 12  2  0
 12 13  2  0
 13 17  1  0
 13 18  1  0
M  RAD  2   1   2  11   2
M  END
>  <reaction>  (8) 
rmg_rxn_3

>  <mol_properties>  (8) 
{"0": {"label": "*3", "atom_type": "Cs"}, "1": {"label": "*4", "atom_type": "Cs"}, "11": {"label": "*0", "atom_type": "Ct"}, "12": {"label": "*1", "atom_type": "Cs"}, "18": {"label": "*2", "atom_type": "H0"}}

>  <type>  (8) 
unop_4

>  <geom_source>  (8) 
Heuristics

$$$$

     RDKit          3D

 19 17  0  0  0  0  0  0  0  0999 V2000
    0.4402    0.9577    1.1752 C   0  0  0  0  0  3  0  0  0  0  0  0
    0.5376    1.1943    2.6365 C   0  0  0  0  0  0  0  0  0  0  0  0
    0.8300    2.6453    3.0028 C   0  0  0  0  0  0  0  0  0  0  0  0
    0.8433    1.6723    0.4689 H   0  0  0  0  0  0  0  0  0  0  0  0
   -0.3868    0.8655    3.1260 H   0  0  0  0  0  0  0  0  0  0  0  0
    1.3224    0.5512    3.0635 H   0  0  0  0  0  0  0  0  0  0  0  0
    0.0386    3.3049    2.6420 H   0  0  0  0  0  0  0  0  0  0  0  0
    1.7698    2.9762    2.5555 H   0  0  0  0  0  0  0  0  0  0  0  0
    0.9099    2.7727    4.0833 H   0  0  0  0  0  0  0  0  0  0  0  0
   -0.4867   -1.2951   -3.8682 C   0  0  0  0  0  0  0  0  0  0  0  0
   -0.4867   -1.2951   -2.4109 C   0  0  0  0  0  3  0  0  0  0  0  0
   -0.4867   -1.2951   -1.2124 C   0  0  0  0  0  0  0  0  0  0  0  0
   -0.4867   -1.2951    0.2448 C   0  0  0  0  0  0  0  0  0  0  0  0
    0.2129   -2.0367   -4.2575 H   0  0  0  0  0  0  0  0  0  0  0  0
   -0.1942   -0.3184   -4.2575 H   0  0  0  0  0  0  0  0  0  0  0  0
   -1.4788   -1.5302   -4.2575 H   0  0  0  0  0  0  0  0  0  0  0  0
    0.1359   -2.1025    0.6341 H   0  0  0  0  0  0  0  0  0  0  0  0
   -1.4972   -1.4306    0.6342 H   0  0  0  0  0  0  0  0  0  0  0  0
   -0.0212   -0.1637    0.7120 H   0  0  0  0  0  0  0  0  0  0  0  0
  1  2  1  0
  1  4  1  0
  1 19  1  0
  2  3  1  0
  2  5  1  0
  2  6  1  0
  3  7  1  0
  3  8  1  0
  3  9  1  0
 10 11  1  0
 10 14  1  0
 10 15  1  0
 10 16  1  0
 11 12  2  0
 12 13  2  0
 13 17  1  0
 13 18  1  0
M  RAD  2   1   2  11   2
M  END
>  <reaction>  (9) 
rmg_rxn_3

>  <mol_properties>  (9) 
{"0": {"label": "*3", "atom_type": "Cs"}, "1": {"label": "*4", "atom_type": "Cs"}, "11": {"label": "*0", "atom_type": "Ct"}, "12": {"label": "*1", "atom_type": "Cs"}, "18": {"label": "*2", "atom_type": "H0"}}

>  <type>  (9) 
unop_5

>  <geom_source>  (9) 
Heuristics

$$$$

     RDKit          3D

 19 17  0  0  0  0  0  0  0  0999 V2000
    0.0307    1.1319    1.3673 C   0  0  0  0  0  3  0  0  0  0  0  0
    1.4790    1.3041    1.6386 C   0  0  0  0  0  0  0  0  0  0  0  0
    1.7833    1.7824    3.0541 C   0  0  0  0  0  0  0  0  0  0  0  0
   -0.7124    1.5960    2.0033 H   0  0  0  0  0  0  0  0  0  0  0  0
    2.0058    0.3628    1.4420 H   0  0  0  0  0  0  0  0  0  0  0  0
    1.9075    2.0182    0.9186 H   0  0  0  0  0  0  0  0  0  0  0  0
    1.4206    1.0658    3.7934 H   0  0  0  0  0  0  0  0  0  0  0  0
    1.2983    2.7406    3.2523 H   0  0  0  0  0  0  0  0  0  0  0  0
    2.8558    1.9117    3.2066 H   0  0  0  0  0  0  0  0  0  0  0  0
   -0.8962   -1.1209   -3.6760 C   0  0  0  0  0  0  0  0  0  0  0  0
   -0.8962   -1.1209   -2.2188 C   0  0  0  0  0  3  0  0  0  0  0  0
   -0.8962   -1.1209   -1.0203 C   0  0  0  0  0  0  0  0  0  0  0  0
   -0.8962   -1.1209    0.4370 C   0  0  0  0  0  0  0  0  0  0  0  0
   -0.1967   -1.8625   -4.0654 H   0  0  0  0  0  0  0  0  0  0  0  0
   -0.6038   -0.1442   -4.0653 H   0  0  0  0  0  0  0  0  0  0  0  0
   -1.8883   -1.3560   -4.0654 H   0  0  0  0  0  0  0  0  0  0  0  0
   -0.2737   -1.9283    0.8263 H   0  0  0  0  0  0  0  0  0  0  0  0
   -1.9067   -1.2564    0.8263 H   0  0  0  0  0  0  0  0  0  0  0  0
   -0.4307    0.0105    0.9042 H   0  0  0  0  0  0  0  0  0  0  0  0
  1  2  1  0
  1  4  1  0
  1 19  1  0
  2  3  1  0
  2  5  1  0
  2  6  1  0
  3  7  1  0
  3  8  1  0
  3  9  1  0
 10 11  1  0
 10 14  1  0
 10 15  1  0
 10 16  1  0
 11 12  2  0
 12 13  2  0
 13 17  1  0
 13 18  1  0
M  RAD  2   1   2  11   2
M  END
>  <reaction>  (10) 
rmg_rxn_3

>  <mol_properties>  (10) 
{"0": {"label": "*3", "atom_type": "Cs"}, "1": {"label": "*4", "atom_type": "Cs"}, "11": {"label": "*0", "atom_type": "Ct"}, "12": {"label": "*1", "atom_type": "Cs"}, "18": {"label": "*2", "atom_type": "H0"}}

>  <type>  (10) 
unop_6

>  <geom_source>  (10) 
Heuristics

$$$$

     RDKit          3D

 19 17  0  0  0  0  0  0  0  0999 V2000
    0.1919    1.1469    1.1965 C   0  0  0  0  0  3  0  0  0  0  0  0
    1.3959    1.1739    2.0628 C   0  0  0  0  0  0  0  0  0  0  0  0
    1.1599    1.8328    3.4175 C   0  0  0  0  0  0  0  0  0  0  0  0
   -0.6490    1.7995    1.3940 H   0  0  0  0  0  0  0  0  0  0  0  0
    1.7712    0.1535    2.2051 H   0  0  0  0  0  0  0  0  0  0  0  0
    2.2121    1.7006    1.5448 H   0  0  0  0  0  0  0  0  0  0  0  0
    0.3935    1.2984    3.9819 H   0  0  0  0  0  0  0  0  0  0  0  0
    0.8242    2.8646    3.2934 H   0  0  0  0  0  0  0  0  0  0  0  0
    2.0721    1.8467    4.0155 H   0  0  0  0  0  0  0  0  0  0  0  0
   -0.7350   -1.1059   -3.8469 C   0  0  0  0  0  0  0  0  0  0  0  0
   -0.7350   -1.1059   -2.3896 C   0  0  0  0  0  3  0  0  0  0  0  0
   -0.7350   -1.1059   -1.1911 C   0  0  0  0  0  0  0  0  0  0  0  0
   -0.7350   -1.1059    0.2662 C   0  0  0  0  0  0  0  0  0  0  0  0
   -0.0355   -1.8476   -4.2362 H   0  0  0  0  0  0  0  0  0  0  0  0
   -0.4425   -0.1293   -4.2362 H   0  0  0  0  0  0  0  0  0  0  0  0
   -1.7271   -1.3410   -4.2362 H   0  0  0  0  0  0  0  0  0  0  0  0
   -0.1125   -1.9133    0.6555 H   0  0  0  0  0  0  0  0  0  0  0  0
   -1.7455   -1.2414    0.6555 H   0  0  0  0  0  0  0  0  0  0  0  0
   -0.2695    0.0255    0.7334 H   0  0  0  0  0  0  0  0  0  0  0  0
  1  2  1  0
  1  4  1  0
  1 19  1  0
  2  3  1  0
  2  5  1  0
  2  6  1  0
  3  7  1  0
  3  8  1  0
  3  9  1  0
 10 11  1  0
 10 14  1  0
 10 15  1  0
 10 16  1  0
 11 12  2  0
 12 13  2  0
 13 17  1  0
 13 18  1  0
M  RAD  2   1   2  11   2
M  END
>  <reaction>  (11) 
rmg_rxn_3

>  <mol_properties>  (11) 
{"0": {"label": "*3", "atom_type": "Cs"}, "1": {"label": "*4", "atom_type": "Cs"}, "11": {"label": "*0", "atom_type": "Ct"}, "12": {"label": "*1", "atom_type": "Cs"}, "18": {"label": "*2", "atom_type": "H0"}}

>  <type>  (11) 
unop_7

>  <geom_source>  (11) 
Heuristics

$$$$

     RDKit          3D

 19 17  0  0  0  0  0  0  0  0999 V2000
    0.7217    0.7736    1.4092 C   0  0  0  0  0  3  0  0  0  0  0  0
   -0.1860    1.9152    1.6805 C   0  0  0  0  0  0  0  0  0  0  0  0
    0.2843    2.8132    2.8196 C   0  0  0  0  0  0  0  0  0  0  0  0
    1.4509    0.4572    2.1442 H   0  0  0  0  0  0  0  0  0  0  0  0
   -0.3159    2.5085    0.7676 H   0  0  0  0  0  0  0  0  0  0  0  0
   -1.1940    1.5387    1.9131 H   0  0  0  0  0  0  0  0  0  0  0  0
    1.2593    3.2493    2.5941 H   0  0  0  0  0  0  0  0  0  0  0  0
    0.3797    2.2447    3.7473 H   0  0  0  0  0  0  0  0  0  0  0  0
   -0.4181    3.6288    2.9970 H   0  0  0  0  0  0  0  0  0  0  0  0
   -0.2052   -1.4792   -3.6341 C   0  0  0  0  0  0  0  0  0  0  0  0
   -0.2052   -1.4792   -2.1769 C   0  0  0  0  0  3  0  0  0  0  0  0
   -0.2052   -1.4792   -0.9784 C   0  0  0  0  0  0  0  0  0  0  0  0
   -0.2052   -1.4792    0.4789 C   0  0  0  0  0  0  0  0  0  0  0  0
    0.4944   -2.2209   -4.0234 H   0  0  0  0  0  0  0  0  0  0  0  0
    0.0873   -0.5026   -4.0234 H   0  0  0  0  0  0  0  0  0  0  0  0
   -1.1972   -1.7143   -4.0235 H   0  0  0  0  0  0  0  0  0  0  0  0
    0.4174   -2.2866    0.8682 H   0  0  0  0  0  0  0  0  0  0  0  0
   -1.2157   -1.6147    0.8682 H   0  0  0  0  0  0  0  0  0  0  0  0
    0.2603   -0.3478    0.9461 H   0  0  0  0  0  0  0  0  0  0  0  0
  1  2  1  0
  1  4  1  0
  1 19  1  0
  2  3  1  0
  2  5  1  0
  2  6  1  0
  3  7  1  0
  3  8  1  0
  3  9  1  0
 10 11  1  0
 10 14  1  0
 10 15  1  0
 10 16  1  0
 11 12  2  0
 12 13  2  0
 13 17  1  0
 13 18  1  0
M  RAD  2   1   2  11   2
M  END
>  <reaction>  (12) 
rmg_rxn_3

>  <mol_properties>  (12) 
{"0": {"label": "*3", "atom_type": "Cs"}, "1": {"label": "*4", "atom_type": "Cs"}, "11": {"label": "*0", "atom_type": "Ct"}, "12": {"label": "*1", "atom_type": "Cs"}, "18": {"label": "*2", "atom_type": "H0"}}

>  <type>  (12) 
unop_8

>  <geom_source>  (12) 
Heuristics

$$$$

     RDKit          3D

 19 17  0  0  0  0  0  0  0  0999 V2000
    0.0646    0.8917    1.7663 C   0  0  0  0  0  3  0  0  0  0  0  0
    1.0737    1.6703    1.0070 C   0  0  0  0  0  0  0  0  0  0  0  0
    2.0022    2.4949    1.8918 C   0  0  0  0  0  0  0  0  0  0  0  0
   -0.1693    1.1391    2.7939 H   0  0  0  0  0  0  0  0  0  0  0  0
    1.6631    0.9943    0.3762 H   0  0  0  0  0  0  0  0  0  0  0  0
    0.5655    2.3407    0.2969 H   0  0  0  0  0  0  0  0  0  0  0  0
    2.5651    1.8519    2.5709 H   0  0  0  0  0  0  0  0  0  0  0  0
    1.4326    3.2028    2.4978 H   0  0  0  0  0  0  0  0  0  0  0  0
    2.7165    3.0636    1.2947 H   0  0  0  0  0  0  0  0  0  0  0  0
   -0.8623   -1.3611   -3.2770 C   0  0  0  0  0  0  0  0  0  0  0  0
   -0.8623   -1.3611   -1.8198 C   0  0  0  0  0  3  0  0  0  0  0  0
   -0.8623   -1.3611   -0.6213 C   0  0  0  0  0  0  0  0  0  0  0  0
   -0.8623   -1.3611    0.8360 C   0  0  0  0  0  0  0  0  0  0  0  0
   -0.1627   -2.1027   -3.6664 H   0  0  0  0  0  0  0  0  0  0  0  0
   -0.5698   -0.3844   -3.6664 H   0  0  0  0  0  0  0  0  0  0  0  0
   -1.8544   -1.5962   -3.6664 H   0  0  0  0  0  0  0  0  0  0  0  0
   -0.2398   -2.1685    1.2253 H   0  0  0  0  0  0  0  0  0  0  0  0
   -1.8728   -1.4966    1.2253 H   0  0  0  0  0  0  0  0  0  0  0  0
   -0.3968   -0.2297    1.3032 H   0  0  0  0  0  0  0  0  0  0  0  0
  1  2  1  0
  1  4  1  0
  1 19  1  0
  2  3  1  0
  2  5  1  0
  2  6  1  0
  3  7  1  0
  3  8  1  0
  3  9  1  0
 10 11  1  0
 10 14  1  0
 10 15  1  0
 10 16  1  0
 11 12  2  0
 12 13  2  0
 13 17  1  0
 13 18  1  0
M  RAD  2   1   2  11   2
M  END
>  <reaction>  (13) 
rmg_rxn_3

>  <mol_properties>  (13) 
{"0": {"label": "*3", "atom_type": "Cs"}, "1": {"label": "*4", "atom_type": "Cs"}, "11": {"label": "*0", "atom_type": "Ct"}, "12": {"label": "*1", "atom_type": "Cs"}, "18": {"label": "*2", "atom_type": "H0"}}

>  <type>  (13) 
unop_9

>  <geom_source>  (13) 
Heuristics

$$$$

     RDKit          3D

 19 17  0  0  0  0  0  0  0  0999 V2000
    0.6710    0.6921    1.6166 C   0  0  0  0  0  3  0  0  0  0  0  0
    0.0075    1.9789    1.2929 C   0  0  0  0  0  0  0  0  0  0  0  0
    0.3384    3.1006    2.2713 C   0  0  0  0  0  0  0  0  0  0  0  0
    1.0789    0.5104    2.6028 H   0  0  0  0  0  0  0  0  0  0  0  0
    0.2714    2.2839    0.2733 H   0  0  0  0  0  0  0  0  0  0  0  0
   -1.0837    1.8358    1.2667 H   0  0  0  0  0  0  0  0  0  0  0  0
    1.4103    3.3068    2.2789 H   0  0  0  0  0  0  0  0  0  0  0  0
    0.0439    2.8284    3.2872 H   0  0  0  0  0  0  0  0  0  0  0  0
   -0.1814    4.0227    2.0074 H   0  0  0  0  0  0  0  0  0  0  0  0
   -0.2559   -1.5607   -3.4267 C   0  0  0  0  0  0  0  0  0  0  0  0
   -0.2559   -1.5607   -1.9695 C   0  0  0  0  0  3  0  0  0  0  0  0
   -0.2559   -1.5607   -0.7710 C   0  0  0  0  0  0  0  0  0  0  0  0
   -0.2559   -1.5607    0.6863 C   0  0  0  0  0  0  0  0  0  0  0  0
    0.4436   -2.3024   -3.8161 H   0  0  0  0  0  0  0  0  0  0  0  0
    0.0366   -0.5841   -3.8161 H   0  0  0  0  0  0  0  0  0  0  0  0
   -1.2480   -1.7958   -3.8161 H   0  0  0  0  0  0  0  0  0  0  0  0
    0.3666   -2.3681    1.0756 H   0  0  0  0  0  0  0  0  0  0  0  0
   -1.2664   -1.6962    1.0756 H   0  0  0  0  0  0  0  0  0  0  0  0
    0.2096   -0.4294    1.1535 H   0  0  0  0  0  0  0  0  0  0  0  0
  1  2  1  0
  1  4  1  0
  1 19  1  0
  2  3  1  0
  2  5  1  0
  2  6  1  0
  3  7  1  0
  3  8  1  0
  3  9  1  0
 10 11  1  0
 10 14  1  0
 10 15  1  0
 10 16  1  0
 11 12  2  0
 12 13  2  0
 13 17  1  0
 13 18  1  0
M  RAD  2   1   2  11   2
M  END
>  <reaction>  (14) 
rmg_rxn_3

>  <mol_properties>  (14) 
{"0": {"label": "*3", "atom_type": "Cs"}, "1": {"label": "*4", "atom_type": "Cs"}, "11": {"label": "*0", "atom_type": "Ct"}, "12": {"label": "*1", "atom_type": "Cs"}, "18": {"label": "*2", "atom_type": "H0"}}

>  <type>  (14) 
unop_10

>  <geom_source>  (14) 
Heuristics

$$$$

     RDKit          3D

 19 17  0  0  0  0  0  0  0  0999 V2000
    0.3831    1.0675    1.1342 C   0  0  0  0  0  3  0  0  0  0  0  0
    1.0926    1.1181    2.4361 C   0  0  0  0  0  0  0  0  0  0  0  0
    0.5978    2.2260    3.3595 C   0  0  0  0  0  0  0  0  0  0  0  0
   -0.1890    1.9157    0.7803 H   0  0  0  0  0  0  0  0  0  0  0  0
    1.0088    0.1479    2.9400 H   0  0  0  0  0  0  0  0  0  0  0  0
    2.1719    1.2497    2.2638 H   0  0  0  0  0  0  0  0  0  0  0  0
   -0.4592    2.0920    3.5965 H   0  0  0  0  0  0  0  0  0  0  0  0
    0.7125    3.2042    2.8874 H   0  0  0  0  0  0  0  0  0  0  0  0
    1.1555    2.2389    4.2969 H   0  0  0  0  0  0  0  0  0  0  0  0
   -0.5439   -1.1853   -3.9092 C   0  0  0  0  0  0  0  0  0  0  0  0
   -0.5439   -1.1853   -2.4519 C   0  0  0  0  0  3  0  0  0  0  0  0
   -0.5439   -1.1853   -1.2534 C   0  0  0  0  0  0  0  0  0  0  0  0
   -0.5439   -1.1853    0.2038 C   0  0  0  0  0  0  0  0  0  0  0  0
    0.1557   -1.9270   -4.2985 H   0  0  0  0  0  0  0  0  0  0  0  0
   -0.2514   -0.2087   -4.2985 H   0  0  0  0  0  0  0  0  0  0  0  0
   -1.5359   -1.4204   -4.2985 H   0  0  0  0  0  0  0  0  0  0  0  0
    0.0787   -1.9927    0.5932 H   0  0  0  0  0  0  0  0  0  0  0  0
   -1.5544   -1.3208    0.5932 H   0  0  0  0  0  0  0  0  0  0  0  0
   -0.0784   -0.0539    0.6711 H   0  0  0  0  0  0  0  0  0  0  0  0
  1  2  1  0
  1  4  1  0
  1 19  1  0
  2  3  1  0
  2  5  1  0
  2  6  1  0
  3  7  1  0
  3  8  1  0
  3  9  1  0
 10 11  1  0
 10 14  1  0
 10 15  1  0
 10 16  1  0
 11 12  2  0
 12 13  2  0
 13 17  1  0
 13 18  1  0
M  RAD  2   1   2  11   2
M  END
>  <reaction>  (15) 
rmg_rxn_3

>  <mol_properties>  (15) 
{"0": {"label": "*3", "atom_type": "Cs"}, "1": {"label": "*4", "atom_type": "Cs"}, "11": {"label": "*0", "atom_type": "Ct"}, "12": {"label": "*1", "atom_type": "Cs"}, "18": {"label": "*2", "atom_type": "H0"}}

>  <type>  (15) 
unop_11

>  <geom_source>  (15) 
Heuristics

$$$$

     RDKit          3D

 19 17  0  0  0  0  0  0  0  0999 V2000
    0.2639    0.7537    1.8449 C   0  0  0  0  0  3  0  0  0  0  0  0
    0.7071    1.8309    0.9261 C   0  0  0  0  0  0  0  0  0  0  0  0
    1.4727    2.9513    1.6217 C   0  0  0  0  0  0  0  0  0  0  0  0
    0.2225    0.9180    2.9141 H   0  0  0  0  0  0  0  0  0  0  0  0
    1.3201    1.4029    0.1241 H   0  0  0  0  0  0  0  0  0  0  0  0
   -0.1660    2.2592    0.4104 H   0  0  0  0  0  0  0  0  0  0  0  0
    2.3777    2.5678    2.0965 H   0  0  0  0  0  0  0  0  0  0  0  0
    0.8601    3.4158    2.3974 H   0  0  0  0  0  0  0  0  0  0  0  0
    1.7653    3.7291    0.9150 H   0  0  0  0  0  0  0  0  0  0  0  0
   -0.6630   -1.4992   -3.1984 C   0  0  0  0  0  0  0  0  0  0  0  0
   -0.6630   -1.4992   -1.7412 C   0  0  0  0  0  3  0  0  0  0  0  0
   -0.6630   -1.4992   -0.5427 C   0  0  0  0  0  0  0  0  0  0  0  0
   -0.6630   -1.4992    0.9146 C   0  0  0  0  0  0  0  0  0  0  0  0
    0.0366   -2.2408   -3.5878 H   0  0  0  0  0  0  0  0  0  0  0  0
   -0.3705   -0.5225   -3.5878 H   0  0  0  0  0  0  0  0  0  0  0  0
   -1.6550   -1.7342   -3.5878 H   0  0  0  0  0  0  0  0  0  0  0  0
   -0.0404   -2.3065    1.3039 H   0  0  0  0  0  0  0  0  0  0  0  0
   -1.6735   -1.6346    1.3039 H   0  0  0  0  0  0  0  0  0  0  0  0
   -0.1975   -0.3678    1.3818 H   0  0  0  0  0  0  0  0  0  0  0  0
  1  2  1  0
  1  4  1  0
  1 19  1  0
  2  3  1  0
  2  5  1  0
  2  6  1  0
  3  7  1  0
  3  8  1  0
  3  9  1  0
 10 11  1  0
 10 14  1  0
 10 15  1  0
 10 16  1  0
 11 12  2  0
 12 13  2  0
 13 17  1  0
 13 18  1  0
M  RAD  2   1   2  11   2
M  END
>  <reaction>  (16) 
rmg_rxn_3

>  <mol_properties>  (16) 
{"0": {"label": "*3", "atom_type": "Cs"}, "1": {"label": "*4", "atom_type": "Cs"}, "11": {"label": "*0", "atom_type": "Ct"}, "12": {"label": "*1", "atom_type": "Cs"}, "18": {"label": "*2", "atom_type": "H0"}}

>  <type>  (16) 
unop_12

>  <geom_source>  (16) 
Heuristics

$$$$

     RDKit          3D

 19 17  0  0  0  0  0  0  0  0999 V2000
   -1.9430    0.5826   -1.3784 C   0  0  0  0  0  0  0  0  0  0  0  0
   -3.3539    0.5576   -1.9535 C   0  0  0  0  0  0  0  0  0  0  0  0
    4.2996    0.3196    1.7378 C   0  0  0  0  0  0  0  0  0  0  0  0
   -1.7211   -0.5943   -0.4404 C   0  0  0  0  0  2  0  0  0  0  0  0
    0.5296   -1.0630    0.7661 C   0  0  0  0  0  0  0  0  0  0  0  0
    2.9646   -0.1700    1.3937 C   0  0  0  0  0  0  0  0  0  0  0  0
    1.8646   -0.5734    1.1102 C   0  0  0  0  0  0  0  0  0  0  0  0
   -1.7812    1.5323   -0.8249 H   0  0  0  0  0  0  0  0  0  0  0  0
   -1.2076    0.5252   -2.2087 H   0  0  0  0  0  0  0  0  0  0  0  0
   -3.4878    1.4146   -2.6467 H   0  0  0  0  0  0  0  0  0  0  0  0
   -3.5236   -0.3855   -2.5158 H   0  0  0  0  0  0  0  0  0  0  0  0
   -4.1045    0.6394   -1.1384 H   0  0  0  0  0  0  0  0  0  0  0  0
    4.4955    1.2697    1.1994 H   0  0  0  0  0  0  0  0  0  0  0  0
    5.0578   -0.4350    1.4435 H   0  0  0  0  0  0  0  0  0  0  0  0
    4.3586    0.4957    2.8316 H   0  0  0  0  0  0  0  0  0  0  0  0
   -2.3978   -0.5242    0.4378 H   0  0  0  0  0  0  0  0  0  0  0  0
   -0.4433   -0.5987   -0.0140 H   0  0  0  0  0  0  0  0  0  0  0  0
    0.5672   -2.1606    0.6083 H   0  0  0  0  0  0  0  0  0  0  0  0
   -0.1737   -0.8321    1.5925 H   0  0  0  0  0  0  0  0  0  0  0  0
  1  4  1  0
  1  2  1  0
  1  8  1  0
  1  9  1  0
  2 10  1  0
  2 11  1  0
  2 12  1  0
  3  6  1  0
  3 13  1  0
  3 14  1  0
  3 15  1  0
  4 16  1  0
  5  7  1  0
  5 17  1  0
  5 18  1  0
  5 19  1  0
  6  7  3  0
M  RAD  1   4   3
M  END
>  <reaction>  (17) 
rmg_rxn_3

>  <mol_properties>  (17) 
{"0": {"label": "*3", "atom_type": "Cs"}, "1": {"label": "*4", "atom_type": "Cs"}, "11": {"label": "*0", "atom_type": "Ct"}, "12": {"label": "*1", "atom_type": "Cs"}, "18": {"label": "*2", "atom_type": "H0"}}

>  <type>  (17) 
unop_13

>  <geom_source>  (17) 
AutoTST

$$$$

     RDKit          3D

 19 17  0  0  0  0  0  0  0  0999 V2000
    0.4985    0.6794    1.7855 C   0  0  0  0  0  3  0  0  0  0  0  0
    0.3295    1.9426    1.0261 C   0  0  0  0  0  0  0  0  0  0  0  0
    0.7990    3.1793    1.7845 C   0  0  0  0  0  0  0  0  0  0  0  0
    0.6422    0.6914    2.8584 H   0  0  0  0  0  0  0  0  0  0  0  0
    0.8571    1.8705    0.0677 H   0  0  0  0  0  0  0  0  0  0  0  0
   -0.7290    2.0702    0.7519 H   0  0  0  0  0  0  0  0  0  0  0  0
    1.8621    3.1097    2.0223 H   0  0  0  0  0  0  0  0  0  0  0  0
    0.2534    3.2883    2.7243 H   0  0  0  0  0  0  0  0  0  0  0  0
    0.6423    4.0863    1.1989 H   0  0  0  0  0  0  0  0  0  0  0  0
   -0.4285   -1.5735   -3.2579 C   0  0  0  0  0  0  0  0  0  0  0  0
   -0.4285   -1.5735   -1.8006 C   0  0  0  0  0  3  0  0  0  0  0  0
   -0.4285   -1.5735   -0.6021 C   0  0  0  0  0  0  0  0  0  0  0  0
   -0.4285   -1.5735    0.8551 C   0  0  0  0  0  0  0  0  0  0  0  0
    0.2711   -2.3151   -3.6472 H   0  0  0  0  0  0  0  0  0  0  0  0
   -0.1360   -0.5968   -3.6472 H   0  0  0  0  0  0  0  0  0  0  0  0
   -1.4205   -1.8085   -3.6472 H   0  0  0  0  0  0  0  0  0  0  0  0
    0.1941   -2.3808    1.2445 H   0  0  0  0  0  0  0  0  0  0  0  0
   -1.4389   -1.7089    1.2445 H   0  0  0  0  0  0  0  0  0  0  0  0
    0.0370   -0.4421    1.3224 H   0  0  0  0  0  0  0  0  0  0  0  0
  1  2  1  0
  1  4  1  0
  1 19  1  0
  2  3  1  0
  2  5  1  0
  2  6  1  0
  3  7  1  0
  3  8  1  0
  3  9  1  0
 10 11  1  0
 10 14  1  0
 10 15  1  0
 10 16  1  0
 11 12  2  0
 12 13  2  0
 13 17  1  0
 13 18  1  0
M  RAD  2   1   2  11   2
M  END
>  <reaction>  (18) 
rmg_rxn_3

>  <mol_properties>  (18) 
{"0": {"label": "*3", "atom_type": "Cs"}, "1": {"label": "*4", "atom_type": "Cs"}, "11": {"label": "*0", "atom_type": "Ct"}, "12": {"label": "*1", "atom_type": "Cs"}, "18": {"label": "*2", "atom_type": "H0"}}

>  <type>  (18) 
unop_14

>  <geom_source>  (18) 
gaussian_log

$$$$
