
     RDKit          3D

  5  4  0  0  0  0  0  0  0  0999 V2000
   -0.4583    0.0384    0.1517 N   0  0  0  0  0  0  0  0  0  0  0  0
    0.7454   -0.3487    0.5322 N   0  0  0  0  0  0  0  0  0  0  0  0
    0.7566   -1.0388    1.5193 O   0  0  0  0  0  0  0  0  0  0  0  0
   -1.2688   -0.2521    0.6850 H   0  0  0  0  0  0  0  0  0  0  0  0
   -0.5137    0.6154   -0.6670 H   0  0  0  0  0  0  0  0  0  0  0  0
  1  2  1  0
  1  4  1  0
  1  5  1  0
  2  3  2  0
M  END
>  <reaction>  (1) 
rmg_rxn_1523

>  <mol_properties>  (1) 
{"0": {"label": "donator", "atom_type": "N3s"}, "3": {"label": "d_hydrogen", "atom_type": "H0"}}

>  <type>  (1) 
r1h

$$$$

     RDKit          3D

  8  7  0  0  0  0  0  0  0  0999 V2000
    1.3778   -0.6812    0.2772 C   0  0  0  0  0  3  0  0  0  0  0  0
    0.4890    0.2108   -0.0590 C   0  0  0  0  0  0  0  0  0  0  0  0
   -1.0010    0.0286   -0.0323 C   0  0  0  0  0  0  0  0  0  0  0  0
    2.4535   -0.7507    0.3287 H   0  0  0  0  0  0  0  0  0  0  0  0
    0.8447    1.1899   -0.3945 H   0  0  0  0  0  0  0  0  0  0  0  0
   -1.4635    0.7638    0.6301 H   0  0  0  0  0  0  0  0  0  0  0  0
   -1.2709   -0.9687    0.3117 H   0  0  0  0  0  0  0  0  0  0  0  0
   -1.4218    0.1801   -1.0289 H   0  0  0  0  0  0  0  0  0  0  0  0
  1  2  2  3
  1  4  1  0
  2  3  1  0
  2  5  1  0
  3  6  1  0
  3  7  1  0
  3  8  1  0
M  RAD  1   1   2
M  END
>  <reaction>  (2) 
rmg_rxn_1523

>  <mol_properties>  (2) 
{"0": {"label": "acceptor", "atom_type": "Cd"}}

>  <type>  (2) 
r2

$$$$

     RDKit          3D

  9  8  0  0  0  0  0  0  0  0999 V2000
    1.1303   -0.2933   -0.7510 C   0  0  0  0  0  0  0  0  0  0  0  0
    0.2866    0.4560   -0.0588 C   0  0  0  0  0  0  0  0  0  0  0  0
   -0.9719   -0.0331    0.5823 C   0  0  0  0  0  0  0  0  0  0  0  0
    2.0274    0.1230   -1.1916 H   0  0  0  0  0  0  0  0  0  0  0  0
    0.9532   -1.3530   -0.9023 H   0  0  0  0  0  0  0  0  0  0  0  0
    0.5065    1.5132    0.0659 H   0  0  0  0  0  0  0  0  0  0  0  0
   -0.9526    0.1426    1.6610 H   0  0  0  0  0  0  0  0  0  0  0  0
   -1.1182   -1.1002    0.4106 H   0  0  0  0  0  0  0  0  0  0  0  0
   -1.8412    0.5010    0.1901 H   0  0  0  0  0  0  0  0  0  0  0  0
  1  2  2  3
  1  4  1  0
  1  5  1  0
  2  3  1  0
  2  6  1  0
  3  7  1  0
  3  8  1  0
  3  9  1  0
M  END
>  <reaction>  (3) 
rmg_rxn_1523

>  <mol_properties>  (3) 
{"0": {"label": "a_hydrogen", "atom_type": "H0"}, "1": {"label": "acceptor", "atom_type": "Cd"}}

>  <type>  (3) 
r2h

$$$$

     RDKit          3D

 13 11  0  0  0  0  0  0  0  0999 V2000
    1.5015   -1.0099    0.1488 N   0  0  0  0  0  0  0  0  0  0  0  0
    2.1821    0.0475   -0.1360 N   0  0  0  0  0  0  0  0  0  0  0  0
    1.6235    1.1134   -0.1525 O   0  0  0  0  0  0  0  0  0  0  0  0
    0.2964   -0.9527    0.1389 H   0  0  0  0  0  0  0  0  0  0  0  0
    1.9981   -1.8742   -0.0211 H   0  0  0  0  0  0  0  0  0  0  0  0
   -1.1029   -0.9049    0.0304 C   0  0  0  0  0  3  0  0  0  0  0  0
   -1.7094    0.2587    0.0560 C   0  0  0  0  0  0  0  0  0  0  0  0
   -3.1985    0.4385   -0.0214 C   0  0  0  0  0  0  0  0  0  0  0  0
   -1.5204   -1.9030   -0.0563 H   0  0  0  0  0  0  0  0  0  0  0  0
   -1.1121    1.1616    0.1378 H   0  0  0  0  0  0  0  0  0  0  0  0
   -3.7181   -0.5161   -0.1025 H   0  0  0  0  0  0  0  0  0  0  0  0
   -3.4588    1.0522   -0.8868 H   0  0  0  0  0  0  0  0  0  0  0  0
   -3.5624    0.9595    0.8671 H   0  0  0  0  0  0  0  0  0  0  0  0
  1  2  1  0
  1  4  1  0
  1  5  1  0
  2  3  2  0
  6  7  2  3
  6  9  1  0
  7  8  1  0
  7 10  1  0
  8 11  1  0
  8 12  1  0
  8 13  1  0
M  RAD  1   6   2
M  END
>  <reaction>  (4) 
rmg_rxn_1523

>  <mol_properties>  (4) 
{"0": {"label": "*1", "atom_type": "N3s"}, "1": {"label": "*0", "atom_type": "N3d"}, "3": {"label": "*2", "atom_type": "H0"}, "5": {"label": "*3", "atom_type": "Cd"}, "6": {"label": "*4", "atom_type": "Cd"}}

>  <type>  (4) 
ts

$$$$

     RDKit          3D

 13 11  0  0  0  0  0  0  0  0999 V2000
    1.4385   -0.9613    0.0002 N   0  0  0  0  0  0  0  0  0  0  0  0
    2.2712   -0.0254    0.0012 N   0  0  0  0  0  0  0  0  0  0  0  0
    2.0027    1.1523   -0.0010 O   0  0  0  0  0  0  0  0  0  0  0  0
    0.2069   -0.9027   -0.0010 H   0  0  0  0  0  0  0  0  0  0  0  0
    1.8531   -1.8878    0.0028 H   0  0  0  0  0  0  0  0  0  0  0  0
   -1.0815   -0.8776   -0.0013 C   0  0  0  0  0  3  0  0  0  0  0  0
   -1.7279    0.2633    0.0004 C   0  0  0  0  0  0  0  0  0  0  0  0
   -3.2227    0.4049    0.0004 C   0  0  0  0  0  0  0  0  0  0  0  0
   -1.5446   -1.8506   -0.0030 H   0  0  0  0  0  0  0  0  0  0  0  0
   -1.1871    1.2013    0.0022 H   0  0  0  0  0  0  0  0  0  0  0  0
   -3.7086   -0.5679   -0.0012 H   0  0  0  0  0  0  0  0  0  0  0  0
   -3.5404    0.9624   -0.8798 H   0  0  0  0  0  0  0  0  0  0  0  0
   -3.5406    0.9597    0.8824 H   0  0  0  0  0  0  0  0  0  0  0  0
  1  2  1  0
  1  4  1  0
  1  5  1  0
  2  3  2  0
  6  7  2  3
  6  9  1  0
  7  8  1  0
  7 10  1  0
  8 11  1  0
  8 12  1  0
  8 13  1  0
M  RAD  1   6   2
M  END
>  <reaction>  (5) 
rmg_rxn_1523

>  <mol_properties>  (5) 
{"0": {"label": "*1", "atom_type": "N3s"}, "1": {"label": "*0", "atom_type": "N3d"}, "3": {"label": "*2", "atom_type": "H0"}, "5": {"label": "*3", "atom_type": "Cd"}, "6": {"label": "*4", "atom_type": "Cd"}}

>  <type>  (5) 
unop_1

>  <geom_source>  (5) 
crest_best.xyz

$$$$

     RDKit          3D

 13 11  0  0  0  0  0  0  0  0999 V2000
    0.2804   -1.1119    1.0813 N   0  0  0  0  0  0  0  0  0  0  0  0
    0.2804   -2.3147    0.5366 N   0  0  0  0  0  0  0  0  0  0  0  0
    0.2804   -2.3147   -0.6679 O   0  0  0  0  0  0  0  0  0  0  0  0
    0.2804   -0.1292    0.3661 H   0  0  0  0  0  0  0  0  0  0  0  0
    0.2804   -1.0655    2.0834 H   0  0  0  0  0  0  0  0  0  0  0  0
    0.2804    0.9213   -0.3985 C   0  0  0  0  0  3  0  0  0  0  0  0
   -0.6966    1.8132   -0.3500 C   0  0  0  0  0  0  0  0  0  0  0  0
   -0.5075    3.2955   -0.3150 C   0  0  0  0  0  0  0  0  0  0  0  0
    1.3223    1.2234   -0.4166 H   0  0  0  0  0  0  0  0  0  0  0  0
   -1.7253    1.4624   -0.3335 H   0  0  0  0  0  0  0  0  0  0  0  0
   -0.9987    3.7704   -1.1682 H   0  0  0  0  0  0  0  0  0  0  0  0
    0.5496    3.5631   -0.3345 H   0  0  0  0  0  0  0  0  0  0  0  0
   -0.9546    3.7234    0.5860 H   0  0  0  0  0  0  0  0  0  0  0  0
  1  2  1  0
  1  4  1  0
  1  5  1  0
  2  3  2  0
  6  7  2  3
  6  9  1  0
  7  8  1  0
  7 10  1  0
  8 11  1  0
  8 12  1  0
  8 13  1  0
M  RAD  1   6   2
M  END
>  <reaction>  (6) 
rmg_rxn_1523

>  <mol_properties>  (6) 
{"0": {"label": "*1", "atom_type": "N3s"}, "1": {"label": "*0", "atom_type": "N3d"}, "3": {"label": "*2", "atom_type": "H0"}, "5": {"label": "*3", "atom_type": "Cd"}, "6": {"label": "*4", "atom_type": "Cd"}}

>  <type>  (6) 
unop_2

>  <geom_source>  (6) 
Heuristics

$$$$

     RDKit          3D

 13 11  0  0  0  0  0  0  0  0999 V2000
    1.4386   -0.9613   -0.0007 N   0  0  0  0  0  0  0  0  0  0  0  0
    2.2711   -0.0253   -0.0013 N   0  0  0  0  0  0  0  0  0  0  0  0
    2.0024    1.1524    0.0016 O   0  0  0  0  0  0  0  0  0  0  0  0
    0.2070   -0.9028    0.0010 H   0  0  0  0  0  0  0  0  0  0  0  0
    1.8534   -1.8878   -0.0039 H   0  0  0  0  0  0  0  0  0  0  0  0
   -1.0815   -0.8776    0.0021 C   0  0  0  0  0  3  0  0  0  0  0  0
   -1.7278    0.2633   -0.0013 C   0  0  0  0  0  0  0  0  0  0  0  0
   -3.2225    0.4049   -0.0003 C   0  0  0  0  0  0  0  0  0  0  0  0
   -1.5445   -1.8506    0.0060 H   0  0  0  0  0  0  0  0  0  0  0  0
   -1.1870    1.2012   -0.0051 H   0  0  0  0  0  0  0  0  0  0  0  0
   -3.5395    0.9643    0.8790 H   0  0  0  0  0  0  0  0  0  0  0  0
   -3.7085   -0.5679    0.0039 H   0  0  0  0  0  0  0  0  0  0  0  0
   -3.5413    0.9577   -0.8832 H   0  0  0  0  0  0  0  0  0  0  0  0
  1  2  1  0
  1  4  1  0
  1  5  1  0
  2  3  2  0
  6  7  2  3
  6  9  1  0
  7  8  1  0
  7 10  1  0
  8 11  1  0
  8 12  1  0
  8 13  1  0
M  RAD  1   6   2
M  END
>  <reaction>  (7) 
rmg_rxn_1523

>  <mol_properties>  (7) 
{"0": {"label": "*1", "atom_type": "N3s"}, "1": {"label": "*0", "atom_type": "N3d"}, "3": {"label": "*2", "atom_type": "H0"}, "5": {"label": "*3", "atom_type": "Cd"}, "6": {"label": "*4", "atom_type": "Cd"}}

>  <type>  (7) 
unop_3

>  <geom_source>  (7) 
Heuristics

$$$$

     RDKit          3D

 13 11  0  0  0  0  0  0  0  0999 V2000
    1.4387   -0.9613    0.0009 N   0  0  0  0  0  0  0  0  0  0  0  0
    2.2710   -0.0252   -0.0007 N   0  0  0  0  0  0  0  0  0  0  0  0
    2.0019    1.1524   -0.0001 O   0  0  0  0  0  0  0  0  0  0  0  0
    0.2071   -0.9030    0.0006 H   0  0  0  0  0  0  0  0  0  0  0  0
    1.8537   -1.8877   -0.0004 H   0  0  0  0  0  0  0  0  0  0  0  0
   -1.0814   -0.8778   -0.0005 C   0  0  0  0  0  3  0  0  0  0  0  0
   -1.7276    0.2632    0.0008 C   0  0  0  0  0  0  0  0  0  0  0  0
   -3.2223    0.4050   -0.0003 C   0  0  0  0  0  0  0  0  0  0  0  0
   -1.5445   -1.8508   -0.0025 H   0  0  0  0  0  0  0  0  0  0  0  0
   -1.1867    1.2010    0.0027 H   0  0  0  0  0  0  0  0  0  0  0  0
   -3.7085   -0.5678   -0.0024 H   0  0  0  0  0  0  0  0  0  0  0  0
   -3.5393    0.9626   -0.8807 H   0  0  0  0  0  0  0  0  0  0  0  0
   -3.5409    0.9596    0.8815 H   0  0  0  0  0  0  0  0  0  0  0  0
  1  2  1  0
  1  4  1  0
  1  5  1  0
  2  3  2  0
  6  7  2  3
  6  9  1  0
  7  8  1  0
  7 10  1  0
  8 11  1  0
  8 12  1  0
  8 13  1  0
M  RAD  1   6   2
M  END
>  <reaction>  (8) 
rmg_rxn_1523

>  <mol_properties>  (8) 
{"0": {"label": "*1", "atom_type": "N3s"}, "1": {"label": "*0", "atom_type": "N3d"}, "3": {"label": "*2", "atom_type": "H0"}, "5": {"label": "*3", "atom_type": "Cd"}, "6": {"label": "*4", "atom_type": "Cd"}}

>  <type>  (8) 
unop_4

>  <geom_source>  (8) 
Heuristics

$$$$

     RDKit          3D

 13 11  0  0  0  0  0  0  0  0999 V2000
    0.2515   -0.7708    1.6313 N   0  0  0  0  0  0  0  0  0  0  0  0
    0.2515   -1.9736    1.0866 N   0  0  0  0  0  0  0  0  0  0  0  0
    0.2515   -1.9736   -0.1179 O   0  0  0  0  0  0  0  0  0  0  0  0
    0.2515    0.2118    0.9161 H   0  0  0  0  0  0  0  0  0  0  0  0
    0.2515   -0.7245    2.6334 H   0  0  0  0  0  0  0  0  0  0  0  0
    0.2515    1.2623    0.1515 C   0  0  0  0  0  3  0  0  0  0  0  0
   -0.3126    1.2473   -1.0460 C   0  0  0  0  0  0  0  0  0  0  0  0
   -0.6977    2.4596   -1.8310 C   0  0  0  0  0  0  0  0  0  0  0  0
    0.4787    2.1942    0.6585 H   0  0  0  0  0  0  0  0  0  0  0  0
   -0.5212    0.2889   -1.5144 H   0  0  0  0  0  0  0  0  0  0  0  0
   -0.1816    2.4794   -2.7943 H   0  0  0  0  0  0  0  0  0  0  0  0
   -0.4556    3.3768   -1.2926 H   0  0  0  0  0  0  0  0  0  0  0  0
   -1.7694    2.4594   -2.0460 H   0  0  0  0  0  0  0  0  0  0  0  0
  1  2  1  0
  1  4  1  0
  1  5  1  0
  2  3  2  0
  6  7  2  3
  6  9  1  0
  7  8  1  0
  7 10  1  0
  8 11  1  0
  8 12  1  0
  8 13  1  0
M  RAD  1   6   2
M  END
>  <reaction>  (9) 
rmg_rxn_1523

>  <mol_properties>  (9) 
{"0": {"label": "*1", "atom_type": "N3s"}, "1": {"label": "*0", "atom_type": "N3d"}, "3": {"label": "*2", "atom_type": "H0"}, "5": {"label": "*3", "atom_type": "Cd"}, "6": {"label": "*4", "atom_type": "Cd"}}

>  <type>  (9) 
unop_5

>  <geom_source>  (9) 
Heuristics

$$$$

     RDKit          3D

 13 11  0  0  0  0  0  0  0  0999 V2000
    1.4385   -0.9612   -0.0013 N   0  0  0  0  0  0  0  0  0  0  0  0
    2.2712   -0.0254   -0.0016 N   0  0  0  0  0  0  0  0  0  0  0  0
    2.0026    1.1523    0.0023 O   0  0  0  0  0  0  0  0  0  0  0  0
    0.2069   -0.9026    0.0016 H   0  0  0  0  0  0  0  0  0  0  0  0
    1.8532   -1.8878   -0.0054 H   0  0  0  0  0  0  0  0  0  0  0  0
   -1.0815   -0.8775    0.0031 C   0  0  0  0  0  3  0  0  0  0  0  0
   -1.7279    0.2633   -0.0023 C   0  0  0  0  0  0  0  0  0  0  0  0
   -3.2226    0.4049   -0.0003 C   0  0  0  0  0  0  0  0  0  0  0  0
   -1.5445   -1.8505    0.0093 H   0  0  0  0  0  0  0  0  0  0  0  0
   -1.1871    1.2013   -0.0088 H   0  0  0  0  0  0  0  0  0  0  0  0
   -3.5422    0.9560   -0.8839 H   0  0  0  0  0  0  0  0  0  0  0  0
   -3.5389    0.9659    0.8783 H   0  0  0  0  0  0  0  0  0  0  0  0
   -3.7085   -0.5679    0.0061 H   0  0  0  0  0  0  0  0  0  0  0  0
  1  2  1  0
  1  4  1  0
  1  5  1  0
  2  3  2  0
  6  7  2  3
  6  9  1  0
  7  8  1  0
  7 10  1  0
  8 11  1  0
  8 12  1  0
  8 13  1  0
M  RAD  1   6   2
M  END
>  <reaction>  (10) 
rmg_rxn_1523

>  <mol_properties>  (10) 
{"0": {"label": "*1", "atom_type": "N3s"}, "1": {"label": "*0", "atom_type": "N3d"}, "3": {"label": "*2", "atom_type": "H0"}, "5": {"label": "*3", "atom_type": "Cd"}, "6": {"label": "*4", "atom_type": "Cd"}}

>  <type>  (10) 
unop_6

>  <geom_source>  (10) 
Heuristics

$$$$

     RDKit          3D

 13 11  0  0  0  0  0  0  0  0999 V2000
    0.0856   -1.1691    1.0335 N   0  0  0  0  0  0  0  0  0  0  0  0
    0.0856   -2.3719    0.4887 N   0  0  0  0  0  0  0  0  0  0  0  0
    0.0856   -2.3719   -0.7158 O   0  0  0  0  0  0  0  0  0  0  0  0
    0.0856   -0.1865    0.3182 H   0  0  0  0  0  0  0  0  0  0  0  0
    0.0856   -1.1228    2.0356 H   0  0  0  0  0  0  0  0  0  0  0  0
    0.0856    0.8640   -0.4464 C   0  0  0  0  0  3  0  0  0  0  0  0
   -0.4785    1.9989   -0.0640 C   0  0  0  0  0  0  0  0  0  0  0  0
    0.0516    3.3652   -0.3582 C   0  0  0  0  0  0  0  0  0  0  0  0
    1.0059    0.8548   -1.0208 H   0  0  0  0  0  0  0  0  0  0  0  0
   -1.4005    1.9578    0.5102 H   0  0  0  0  0  0  0  0  0  0  0  0
   -0.6778    3.9522   -0.9221 H   0  0  0  0  0  0  0  0  0  0  0  0
    0.9756    3.3185   -0.9359 H   0  0  0  0  0  0  0  0  0  0  0  0
    0.2512    3.9124    0.5668 H   0  0  0  0  0  0  0  0  0  0  0  0
  1  2  1  0
  1  4  1  0
  1  5  1  0
  2  3  2  0
  6  7  2  3
  6  9  1  0
  7  8  1  0
  7 10  1  0
  8 11  1  0
  8 12  1  0
  8 13  1  0
M  RAD  1   6   2
M  END
>  <reaction>  (11) 
rmg_rxn_1523

>  <mol_properties>  (11) 
{"0": {"label": "*1", "atom_type": "N3s"}, "1": {"label": "*0", "atom_type": "N3d"}, "3": {"label": "*2", "atom_type": "H0"}, "5": {"label": "*3", "atom_type": "Cd"}, "6": {"label": "*4", "atom_type": "Cd"}}

>  <type>  (11) 
unop_7

>  <geom_source>  (11) 
Heuristics

$$$$

     RDKit          3D

 13 11  0  0  0  0  0  0  0  0999 V2000
   -0.4042   -0.8744    1.4546 N   0  0  0  0  0  0  0  0  0  0  0  0
   -0.4042   -2.0772    0.9099 N   0  0  0  0  0  0  0  0  0  0  0  0
   -0.4042   -2.0772   -0.2947 O   0  0  0  0  0  0  0  0  0  0  0  0
   -0.4042    0.1083    0.7394 H   0  0  0  0  0  0  0  0  0  0  0  0
   -0.4042   -0.8280    2.4567 H   0  0  0  0  0  0  0  0  0  0  0  0
   -0.4042    1.1587   -0.0252 C   0  0  0  0  0  3  0  0  0  0  0  0
    0.5728    1.3868   -0.8888 C   0  0  0  0  0  0  0  0  0  0  0  0
    1.0666    2.7387   -1.2922 C   0  0  0  0  0  0  0  0  0  0  0  0
   -0.9289    1.9728    0.4637 H   0  0  0  0  0  0  0  0  0  0  0  0
    1.0693    0.5387   -1.3535 H   0  0  0  0  0  0  0  0  0  0  0  0
    2.1287    2.8501   -1.0594 H   0  0  0  0  0  0  0  0  0  0  0  0
    0.5181    3.5319   -0.7827 H   0  0  0  0  0  0  0  0  0  0  0  0
    0.9618    2.8852   -2.3703 H   0  0  0  0  0  0  0  0  0  0  0  0
  1  2  1  0
  1  4  1  0
  1  5  1  0
  2  3  2  0
  6  7  2  3
  6  9  1  0
  7  8  1  0
  7 10  1  0
  8 11  1  0
  8 12  1  0
  8 13  1  0
M  RAD  1   6   2
M  END
>  <reaction>  (12) 
rmg_rxn_1523

>  <mol_properties>  (12) 
{"0": {"label": "*1", "atom_type": "N3s"}, "1": {"label": "*0", "atom_type": "N3d"}, "3": {"label": "*2", "atom_type": "H0"}, "5": {"label": "*3", "atom_type": "Cd"}, "6": {"label": "*4", "atom_type": "Cd"}}

>  <type>  (12) 
unop_8

>  <geom_source>  (12) 
Heuristics

$$$$

     RDKit          3D

 13 11  0  0  0  0  0  0  0  0999 V2000
    1.4385    0.9612   -0.0007 N   0  0  0  0  0  0  0  0  0  0  0  0
    2.2712    0.0254    0.0026 N   0  0  0  0  0  0  0  0  0  0  0  0
    2.0027   -1.1523   -0.0017 O   0  0  0  0  0  0  0  0  0  0  0  0
    0.2070    0.9026   -0.0021 H   0  0  0  0  0  0  0  0  0  0  0  0
    1.8532    1.8878    0.0052 H   0  0  0  0  0  0  0  0  0  0  0  0
   -1.0815    0.8775   -0.0016 C   0  0  0  0  0  3  0  0  0  0  0  0
   -1.7279   -0.2633    0.0003 C   0  0  0  0  0  0  0  0  0  0  0  0
   -3.2227   -0.4049    0.0009 C   0  0  0  0  0  0  0  0  0  0  0  0
   -1.5445    1.8506   -0.0029 H   0  0  0  0  0  0  0  0  0  0  0  0
   -1.1871   -1.2013    0.0015 H   0  0  0  0  0  0  0  0  0  0  0  0
   -3.7086    0.5680   -0.0005 H   0  0  0  0  0  0  0  0  0  0  0  0
   -3.5403   -0.9595    0.8830 H   0  0  0  0  0  0  0  0  0  0  0  0
   -3.5409   -0.9624   -0.8792 H   0  0  0  0  0  0  0  0  0  0  0  0
  1  2  1  0
  1  4  1  0
  1  5  1  0
  2  3  2  0
  6  7  2  3
  6  9  1  0
  7  8  1  0
  7 10  1  0
  8 11  1  0
  8 12  1  0
  8 13  1  0
M  RAD  1   6   2
M  END
>  <reaction>  (13) 
rmg_rxn_1523

>  <mol_properties>  (13) 
{"0": {"label": "*1", "atom_type": "N3s"}, "1": {"label": "*0", "atom_type": "N3d"}, "3": {"label": "*2", "atom_type": "H0"}, "5": {"label": "*3", "atom_type": "Cd"}, "6": {"label": "*4", "atom_type": "Cd"}}

>  <type>  (13) 
unop_9

>  <geom_source>  (13) 
Heuristics

$$$$

     RDKit          3D

 13 11  0  0  0  0  0  0  0  0999 V2000
    0.0000   -1.1787    1.0861 N   0  0  0  0  0  0  0  0  0  0  0  0
    0.0000   -2.3815    0.5414 N   0  0  0  0  0  0  0  0  0  0  0  0
    0.0000   -2.3815   -0.6631 O   0  0  0  0  0  0  0  0  0  0  0  0
    0.0000   -0.1961    0.3709 H   0  0  0  0  0  0  0  0  0  0  0  0
    0.0000   -1.1324    2.0882 H   0  0  0  0  0  0  0  0  0  0  0  0
   -0.0000    0.8544   -0.3937 C   0  0  0  0  0  3  0  0  0  0  0  0
   -0.0000    2.0782    0.1109 C   0  0  0  0  0  0  0  0  0  0  0  0
   -0.0000    3.3396   -0.6911 C   0  0  0  0  0  0  0  0  0  0  0  0
   -0.0000    0.6839   -1.4651 H   0  0  0  0  0  0  0  0  0  0  0  0
    0.0000    2.1991    1.1911 H   0  0  0  0  0  0  0  0  0  0  0  0
   -0.8777    3.9482   -0.4587 H   0  0  0  0  0  0  0  0  0  0  0  0
   -0.0000    3.1314   -1.7617 H   0  0  0  0  0  0  0  0  0  0  0  0
    0.8777    3.9482   -0.4587 H   0  0  0  0  0  0  0  0  0  0  0  0
  1  2  1  0
  1  4  1  0
  1  5  1  0
  2  3  2  0
  6  7  2  3
  6  9  1  0
  7  8  1  0
  7 10  1  0
  8 11  1  0
  8 12  1  0
  8 13  1  0
M  RAD  1   6   2
M  END
>  <reaction>  (14) 
rmg_rxn_1523

>  <mol_properties>  (14) 
{"0": {"label": "*1", "atom_type": "N3s"}, "1": {"label": "*0", "atom_type": "N3d"}, "3": {"label": "*2", "atom_type": "H0"}, "5": {"label": "*3", "atom_type": "Cd"}, "6": {"label": "*4", "atom_type": "Cd"}}

>  <type>  (14) 
unop_10

>  <geom_source>  (14) 
Heuristics

$$$$

     RDKit          3D

 13 11  0  0  0  0  0  0  0  0999 V2000
    1.4386   -0.9613   -0.0016 N   0  0  0  0  0  0  0  0  0  0  0  0
    2.2711   -0.0253    0.0026 N   0  0  0  0  0  0  0  0  0  0  0  0
    2.0025    1.1523   -0.0011 O   0  0  0  0  0  0  0  0  0  0  0  0
    0.2070   -0.9027   -0.0021 H   0  0  0  0  0  0  0  0  0  0  0  0
    1.8533   -1.8878    0.0045 H   0  0  0  0  0  0  0  0  0  0  0  0
   -1.0815   -0.8775   -0.0006 C   0  0  0  0  0  3  0  0  0  0  0  0
   -1.7279    0.2633   -0.0006 C   0  0  0  0  0  0  0  0  0  0  0  0
   -3.2226    0.4048    0.0009 C   0  0  0  0  0  0  0  0  0  0  0  0
   -1.5444   -1.8506    0.0009 H   0  0  0  0  0  0  0  0  0  0  0  0
   -1.1871    1.2013   -0.0019 H   0  0  0  0  0  0  0  0  0  0  0  0
   -3.7085   -0.5680    0.0020 H   0  0  0  0  0  0  0  0  0  0  0  0
   -3.5414    0.9604   -0.8803 H   0  0  0  0  0  0  0  0  0  0  0  0
   -3.5396    0.9615    0.8820 H   0  0  0  0  0  0  0  0  0  0  0  0
  1  2  1  0
  1  4  1  0
  1  5  1  0
  2  3  2  0
  6  7  2  3
  6  9  1  0
  7  8  1  0
  7 10  1  0
  8 11  1  0
  8 12  1  0
  8 13  1  0
M  RAD  1   6   2
M  END
>  <reaction>  (15) 
rmg_rxn_1523

>  <mol_properties>  (15) 
{"0": {"label": "*1", "atom_type": "N3s"}, "1": {"label": "*0", "atom_type": "N3d"}, "3": {"label": "*2", "atom_type": "H0"}, "5": {"label": "*3", "atom_type": "Cd"}, "6": {"label": "*4", "atom_type": "Cd"}}

>  <type>  (15) 
unop_11

>  <geom_source>  (15) 
Heuristics

$$$$

     RDKit          3D

 13 11  0  0  0  0  0  0  0  0999 V2000
   -0.4103   -1.0029    1.2450 N   0  0  0  0  0  0  0  0  0  0  0  0
   -0.4103   -2.2057    0.7003 N   0  0  0  0  0  0  0  0  0  0  0  0
   -0.4103   -2.2057   -0.5042 O   0  0  0  0  0  0  0  0  0  0  0  0
   -0.4103   -0.0203    0.5298 H   0  0  0  0  0  0  0  0  0  0  0  0
   -0.4103   -0.9565    2.2471 H   0  0  0  0  0  0  0  0  0  0  0  0
   -0.4103    1.0302   -0.2348 C   0  0  0  0  0  3  0  0  0  0  0  0
    0.7178    1.5902   -0.6424 C   0  0  0  0  0  0  0  0  0  0  0  0
    0.9766    3.0612   -0.6999 C   0  0  0  0  0  0  0  0  0  0  0  0
   -1.2520    1.6292    0.0965 H   0  0  0  0  0  0  0  0  0  0  0  0
    1.5339    0.9488   -0.9652 H   0  0  0  0  0  0  0  0  0  0  0  0
    1.8327    3.3302   -0.0758 H   0  0  0  0  0  0  0  0  0  0  0  0
    0.1113    3.6318   -0.3605 H   0  0  0  0  0  0  0  0  0  0  0  0
    1.2172    3.3742   -1.7192 H   0  0  0  0  0  0  0  0  0  0  0  0
  1  2  1  0
  1  4  1  0
  1  5  1  0
  2  3  2  0
  6  7  2  3
  6  9  1  0
  7  8  1  0
  7 10  1  0
  8 11  1  0
  8 12  1  0
  8 13  1  0
M  RAD  1   6   2
M  END
>  <reaction>  (16) 
rmg_rxn_1523

>  <mol_properties>  (16) 
{"0": {"label": "*1", "atom_type": "N3s"}, "1": {"label": "*0", "atom_type": "N3d"}, "3": {"label": "*2", "atom_type": "H0"}, "5": {"label": "*3", "atom_type": "Cd"}, "6": {"label": "*4", "atom_type": "Cd"}}

>  <type>  (16) 
unop_12

>  <geom_source>  (16) 
Heuristics

$$$$

     RDKit          3D

 13 11  0  0  0  0  0  0  0  0999 V2000
    1.4385    0.9613    0.0011 N   0  0  0  0  0  0  0  0  0  0  0  0
    2.2712    0.0255   -0.0032 N   0  0  0  0  0  0  0  0  0  0  0  0
    2.0027   -1.1523    0.0018 O   0  0  0  0  0  0  0  0  0  0  0  0
    0.2070    0.9026    0.0025 H   0  0  0  0  0  0  0  0  0  0  0  0
    1.8531    1.8878   -0.0060 H   0  0  0  0  0  0  0  0  0  0  0  0
   -1.0815    0.8775    0.0016 C   0  0  0  0  0  3  0  0  0  0  0  0
   -1.7279   -0.2634    0.0000 C   0  0  0  0  0  0  0  0  0  0  0  0
   -3.2227   -0.4048   -0.0011 C   0  0  0  0  0  0  0  0  0  0  0  0
   -1.5445    1.8505    0.0023 H   0  0  0  0  0  0  0  0  0  0  0  0
   -1.1872   -1.2014   -0.0006 H   0  0  0  0  0  0  0  0  0  0  0  0
   -3.5401   -0.9601   -0.8830 H   0  0  0  0  0  0  0  0  0  0  0  0
   -3.7086    0.5680   -0.0004 H   0  0  0  0  0  0  0  0  0  0  0  0
   -3.5412   -0.9617    0.8793 H   0  0  0  0  0  0  0  0  0  0  0  0
  1  2  1  0
  1  4  1  0
  1  5  1  0
  2  3  2  0
  6  7  2  3
  6  9  1  0
  7  8  1  0
  7 10  1  0
  8 11  1  0
  8 12  1  0
  8 13  1  0
M  RAD  1   6   2
M  END
>  <reaction>  (17) 
rmg_rxn_1523

>  <mol_properties>  (17) 
{"0": {"label": "*1", "atom_type": "N3s"}, "1": {"label": "*0", "atom_type": "N3d"}, "3": {"label": "*2", "atom_type": "H0"}, "5": {"label": "*3", "atom_type": "Cd"}, "6": {"label": "*4", "atom_type": "Cd"}}

>  <type>  (17) 
unop_13

>  <geom_source>  (17) 
Heuristics

$$$$

     RDKit          3D

 13 11  0  0  0  0  0  0  0  0999 V2000
   -0.2804   -1.1119    1.0813 N   0  0  0  0  0  0  0  0  0  0  0  0
   -0.2804   -2.3147    0.5366 N   0  0  0  0  0  0  0  0  0  0  0  0
   -0.2804   -2.3147   -0.6679 O   0  0  0  0  0  0  0  0  0  0  0  0
   -0.2804   -0.1292    0.3661 H   0  0  0  0  0  0  0  0  0  0  0  0
   -0.2804   -1.0655    2.0834 H   0  0  0  0  0  0  0  0  0  0  0  0
   -0.2804    0.9213   -0.3985 C   0  0  0  0  0  3  0  0  0  0  0  0
    0.6965    1.8132   -0.3500 C   0  0  0  0  0  0  0  0  0  0  0  0
    0.5075    3.2955   -0.3150 C   0  0  0  0  0  0  0  0  0  0  0  0
   -1.3223    1.2234   -0.4166 H   0  0  0  0  0  0  0  0  0  0  0  0
    1.7253    1.4624   -0.3335 H   0  0  0  0  0  0  0  0  0  0  0  0
    0.9545    3.7234    0.5860 H   0  0  0  0  0  0  0  0  0  0  0  0
   -0.5496    3.5631   -0.3345 H   0  0  0  0  0  0  0  0  0  0  0  0
    0.9987    3.7704   -1.1682 H   0  0  0  0  0  0  0  0  0  0  0  0
  1  2  1  0
  1  4  1  0
  1  5  1  0
  2  3  2  0
  6  7  2  3
  6  9  1  0
  7  8  1  0
  7 10  1  0
  8 11  1  0
  8 12  1  0
  8 13  1  0
M  RAD  1   6   2
M  END
>  <reaction>  (18) 
rmg_rxn_1523

>  <mol_properties>  (18) 
{"0": {"label": "*1", "atom_type": "N3s"}, "1": {"label": "*0", "atom_type": "N3d"}, "3": {"label": "*2", "atom_type": "H0"}, "5": {"label": "*3", "atom_type": "Cd"}, "6": {"label": "*4", "atom_type": "Cd"}}

>  <type>  (18) 
unop_14

>  <geom_source>  (18) 
Heuristics

$$$$

     RDKit          3D

 13 11  0  0  0  0  0  0  0  0999 V2000
    1.4385   -0.9613   -0.0000 N   0  0  0  0  0  0  0  0  0  0  0  0
    2.2712   -0.0255   -0.0045 N   0  0  0  0  0  0  0  0  0  0  0  0
    2.0028    1.1523    0.0037 O   0  0  0  0  0  0  0  0  0  0  0  0
    0.2069   -0.9026    0.0033 H   0  0  0  0  0  0  0  0  0  0  0  0
    1.8530   -1.8878   -0.0108 H   0  0  0  0  0  0  0  0  0  0  0  0
   -1.0816   -0.8775    0.0043 C   0  0  0  0  0  3  0  0  0  0  0  0
   -1.7280    0.2633   -0.0017 C   0  0  0  0  0  0  0  0  0  0  0  0
   -3.2227    0.4049   -0.0015 C   0  0  0  0  0  0  0  0  0  0  0  0
   -1.5446   -1.8505    0.0101 H   0  0  0  0  0  0  0  0  0  0  0  0
   -1.1872    1.2013   -0.0073 H   0  0  0  0  0  0  0  0  0  0  0  0
   -3.5413    0.9566   -0.8851 H   0  0  0  0  0  0  0  0  0  0  0  0
   -3.5401    0.9653    0.8771 H   0  0  0  0  0  0  0  0  0  0  0  0
   -3.7087   -0.5679    0.0037 H   0  0  0  0  0  0  0  0  0  0  0  0
  1  2  1  0
  1  4  1  0
  1  5  1  0
  2  3  2  0
  6  7  2  3
  6  9  1  0
  7  8  1  0
  7 10  1  0
  8 11  1  0
  8 12  1  0
  8 13  1  0
M  RAD  1   6   2
M  END
>  <reaction>  (19) 
rmg_rxn_1523

>  <mol_properties>  (19) 
{"0": {"label": "*1", "atom_type": "N3s"}, "1": {"label": "*0", "atom_type": "N3d"}, "3": {"label": "*2", "atom_type": "H0"}, "5": {"label": "*3", "atom_type": "Cd"}, "6": {"label": "*4", "atom_type": "Cd"}}

>  <type>  (19) 
unop_15

>  <geom_source>  (19) 
Heuristics

$$$$

     RDKit          3D

 13 11  0  0  0  0  0  0  0  0999 V2000
    0.4103   -1.0029    1.2450 N   0  0  0  0  0  0  0  0  0  0  0  0
    0.4103   -2.2057    0.7003 N   0  0  0  0  0  0  0  0  0  0  0  0
    0.4103   -2.2057   -0.5042 O   0  0  0  0  0  0  0  0  0  0  0  0
    0.4103   -0.0203    0.5298 H   0  0  0  0  0  0  0  0  0  0  0  0
    0.4103   -0.9565    2.2471 H   0  0  0  0  0  0  0  0  0  0  0  0
    0.4103    1.0302   -0.2348 C   0  0  0  0  0  3  0  0  0  0  0  0
   -0.7178    1.5902   -0.6424 C   0  0  0  0  0  0  0  0  0  0  0  0
   -0.9766    3.0612   -0.6999 C   0  0  0  0  0  0  0  0  0  0  0  0
    1.2520    1.6292    0.0965 H   0  0  0  0  0  0  0  0  0  0  0  0
   -1.5339    0.9488   -0.9652 H   0  0  0  0  0  0  0  0  0  0  0  0
   -1.2172    3.3742   -1.7192 H   0  0  0  0  0  0  0  0  0  0  0  0
   -0.1113    3.6318   -0.3605 H   0  0  0  0  0  0  0  0  0  0  0  0
   -1.8327    3.3302   -0.0758 H   0  0  0  0  0  0  0  0  0  0  0  0
  1  2  1  0
  1  4  1  0
  1  5  1  0
  2  3  2  0
  6  7  2  3
  6  9  1  0
  7  8  1  0
  7 10  1  0
  8 11  1  0
  8 12  1  0
  8 13  1  0
M  RAD  1   6   2
M  END
>  <reaction>  (20) 
rmg_rxn_1523

>  <mol_properties>  (20) 
{"0": {"label": "*1", "atom_type": "N3s"}, "1": {"label": "*0", "atom_type": "N3d"}, "3": {"label": "*2", "atom_type": "H0"}, "5": {"label": "*3", "atom_type": "Cd"}, "6": {"label": "*4", "atom_type": "Cd"}}

>  <type>  (20) 
unop_16

>  <geom_source>  (20) 
Heuristics

$$$$

     RDKit          3D

 13 11  0  0  0  0  0  0  0  0999 V2000
    1.4385   -0.9613    0.0002 N   0  0  0  0  0  0  0  0  0  0  0  0
    2.2712   -0.0254    0.0012 N   0  0  0  0  0  0  0  0  0  0  0  0
    2.0027    1.1523   -0.0010 O   0  0  0  0  0  0  0  0  0  0  0  0
    0.2069   -0.9027   -0.0010 H   0  0  0  0  0  0  0  0  0  0  0  0
    1.8531   -1.8878    0.0028 H   0  0  0  0  0  0  0  0  0  0  0  0
   -1.0815   -0.8776   -0.0013 C   0  0  0  0  0  3  0  0  0  0  0  0
   -1.7279    0.2633    0.0004 C   0  0  0  0  0  0  0  0  0  0  0  0
   -3.2227    0.4049    0.0004 C   0  0  0  0  0  0  0  0  0  0  0  0
   -1.5446   -1.8506   -0.0030 H   0  0  0  0  0  0  0  0  0  0  0  0
   -1.1871    1.2013    0.0022 H   0  0  0  0  0  0  0  0  0  0  0  0
   -3.7086   -0.5679   -0.0012 H   0  0  0  0  0  0  0  0  0  0  0  0
   -3.5404    0.9624   -0.8798 H   0  0  0  0  0  0  0  0  0  0  0  0
   -3.5406    0.9597    0.8824 H   0  0  0  0  0  0  0  0  0  0  0  0
  1  2  1  0
  1  4  1  0
  1  5  1  0
  2  3  2  0
  6  7  2  3
  6  9  1  0
  7  8  1  0
  7 10  1  0
  8 11  1  0
  8 12  1  0
  8 13  1  0
M  RAD  1   6   2
M  END
>  <reaction>  (21) 
rmg_rxn_1523

>  <mol_properties>  (21) 
{"0": {"label": "*1", "atom_type": "N3s"}, "1": {"label": "*0", "atom_type": "N3d"}, "3": {"label": "*2", "atom_type": "H0"}, "5": {"label": "*3", "atom_type": "Cd"}, "6": {"label": "*4", "atom_type": "Cd"}}

>  <type>  (21) 
unop_17

>  <geom_source>  (21) 
Heuristics

$$$$

     RDKit          3D

 13 11  0  0  0  0  0  0  0  0999 V2000
   -0.2515   -0.7708    1.6313 N   0  0  0  0  0  0  0  0  0  0  0  0
   -0.2515   -1.9736    1.0866 N   0  0  0  0  0  0  0  0  0  0  0  0
   -0.2515   -1.9736   -0.1179 O   0  0  0  0  0  0  0  0  0  0  0  0
   -0.2515    0.2118    0.9161 H   0  0  0  0  0  0  0  0  0  0  0  0
   -0.2515   -0.7245    2.6334 H   0  0  0  0  0  0  0  0  0  0  0  0
   -0.2515    1.2623    0.1515 C   0  0  0  0  0  3  0  0  0  0  0  0
    0.3126    1.2473   -1.0460 C   0  0  0  0  0  0  0  0  0  0  0  0
    0.6977    2.4596   -1.8310 C   0  0  0  0  0  0  0  0  0  0  0  0
   -0.4787    2.1942    0.6585 H   0  0  0  0  0  0  0  0  0  0  0  0
    0.5212    0.2889   -1.5144 H   0  0  0  0  0  0  0  0  0  0  0  0
    1.7694    2.4594   -2.0460 H   0  0  0  0  0  0  0  0  0  0  0  0
    0.4556    3.3768   -1.2926 H   0  0  0  0  0  0  0  0  0  0  0  0
    0.1816    2.4794   -2.7943 H   0  0  0  0  0  0  0  0  0  0  0  0
  1  2  1  0
  1  4  1  0
  1  5  1  0
  2  3  2  0
  6  7  2  3
  6  9  1  0
  7  8  1  0
  7 10  1  0
  8 11  1  0
  8 12  1  0
  8 13  1  0
M  RAD  1   6   2
M  END
>  <reaction>  (22) 
rmg_rxn_1523

>  <mol_properties>  (22) 
{"0": {"label": "*1", "atom_type": "N3s"}, "1": {"label": "*0", "atom_type": "N3d"}, "3": {"label": "*2", "atom_type": "H0"}, "5": {"label": "*3", "atom_type": "Cd"}, "6": {"label": "*4", "atom_type": "Cd"}}

>  <type>  (22) 
unop_18

>  <geom_source>  (22) 
Heuristics

$$$$

     RDKit          3D

 13 11  0  0  0  0  0  0  0  0999 V2000
    0.4042   -0.8744    1.4546 N   0  0  0  0  0  0  0  0  0  0  0  0
    0.4042   -2.0772    0.9099 N   0  0  0  0  0  0  0  0  0  0  0  0
    0.4042   -2.0772   -0.2947 O   0  0  0  0  0  0  0  0  0  0  0  0
    0.4042    0.1083    0.7394 H   0  0  0  0  0  0  0  0  0  0  0  0
    0.4042   -0.8280    2.4567 H   0  0  0  0  0  0  0  0  0  0  0  0
    0.4042    1.1587   -0.0252 C   0  0  0  0  0  3  0  0  0  0  0  0
   -0.5728    1.3868   -0.8888 C   0  0  0  0  0  0  0  0  0  0  0  0
   -1.0666    2.7387   -1.2922 C   0  0  0  0  0  0  0  0  0  0  0  0
    0.9289    1.9728    0.4637 H   0  0  0  0  0  0  0  0  0  0  0  0
   -1.0693    0.5387   -1.3535 H   0  0  0  0  0  0  0  0  0  0  0  0
   -0.9618    2.8852   -2.3703 H   0  0  0  0  0  0  0  0  0  0  0  0
   -0.5181    3.5319   -0.7827 H   0  0  0  0  0  0  0  0  0  0  0  0
   -2.1287    2.8501   -1.0594 H   0  0  0  0  0  0  0  0  0  0  0  0
  1  2  1  0
  1  4  1  0
  1  5  1  0
  2  3  2  0
  6  7  2  3
  6  9  1  0
  7  8  1  0
  7 10  1  0
  8 11  1  0
  8 12  1  0
  8 13  1  0
M  RAD  1   6   2
M  END
>  <reaction>  (23) 
rmg_rxn_1523

>  <mol_properties>  (23) 
{"0": {"label": "*1", "atom_type": "N3s"}, "1": {"label": "*0", "atom_type": "N3d"}, "3": {"label": "*2", "atom_type": "H0"}, "5": {"label": "*3", "atom_type": "Cd"}, "6": {"label": "*4", "atom_type": "Cd"}}

>  <type>  (23) 
unop_19

>  <geom_source>  (23) 
Heuristics

$$$$

     RDKit          3D

 13 11  0  0  0  0  0  0  0  0999 V2000
   -0.0856   -1.1691    1.0335 N   0  0  0  0  0  0  0  0  0  0  0  0
   -0.0856   -2.3719    0.4887 N   0  0  0  0  0  0  0  0  0  0  0  0
   -0.0856   -2.3719   -0.7158 O   0  0  0  0  0  0  0  0  0  0  0  0
   -0.0856   -0.1865    0.3182 H   0  0  0  0  0  0  0  0  0  0  0  0
   -0.0856   -1.1228    2.0356 H   0  0  0  0  0  0  0  0  0  0  0  0
   -0.0856    0.8640   -0.4464 C   0  0  0  0  0  3  0  0  0  0  0  0
    0.4785    1.9989   -0.0640 C   0  0  0  0  0  0  0  0  0  0  0  0
   -0.0516    3.3652   -0.3582 C   0  0  0  0  0  0  0  0  0  0  0  0
   -1.0059    0.8548   -1.0208 H   0  0  0  0  0  0  0  0  0  0  0  0
    1.4005    1.9578    0.5102 H   0  0  0  0  0  0  0  0  0  0  0  0
   -0.2512    3.9124    0.5668 H   0  0  0  0  0  0  0  0  0  0  0  0
   -0.9756    3.3185   -0.9359 H   0  0  0  0  0  0  0  0  0  0  0  0
    0.6778    3.9522   -0.9221 H   0  0  0  0  0  0  0  0  0  0  0  0
  1  2  1  0
  1  4  1  0
  1  5  1  0
  2  3  2  0
  6  7  2  3
  6  9  1  0
  7  8  1  0
  7 10  1  0
  8 11  1  0
  8 12  1  0
  8 13  1  0
M  RAD  1   6   2
M  END
>  <reaction>  (24) 
rmg_rxn_1523

>  <mol_properties>  (24) 
{"0": {"label": "*1", "atom_type": "N3s"}, "1": {"label": "*0", "atom_type": "N3d"}, "3": {"label": "*2", "atom_type": "H0"}, "5": {"label": "*3", "atom_type": "Cd"}, "6": {"label": "*4", "atom_type": "Cd"}}

>  <type>  (24) 
unop_20

>  <geom_source>  (24) 
Heuristics

$$$$

     RDKit          3D

 13 11  0  0  0  0  0  0  0  0999 V2000
    0.0000   -0.7310    1.7013 N   0  0  0  0  0  0  0  0  0  0  0  0
    0.0000   -1.9338    1.1565 N   0  0  0  0  0  0  0  0  0  0  0  0
    0.0000   -1.9338   -0.0480 O   0  0  0  0  0  0  0  0  0  0  0  0
    0.0000    0.2516    0.9861 H   0  0  0  0  0  0  0  0  0  0  0  0
    0.0000   -0.6847    2.7034 H   0  0  0  0  0  0  0  0  0  0  0  0
   -0.0000    1.3021    0.2214 C   0  0  0  0  0  3  0  0  0  0  0  0
   -0.0000    1.1982   -1.0982 C   0  0  0  0  0  0  0  0  0  0  0  0
   -0.0000    2.3490   -2.0520 C   0  0  0  0  0  0  0  0  0  0  0  0
   -0.0000    2.2693    0.7130 H   0  0  0  0  0  0  0  0  0  0  0  0
   -0.0000    0.2074   -1.5453 H   0  0  0  0  0  0  0  0  0  0  0  0
    0.8777    2.3150   -2.7026 H   0  0  0  0  0  0  0  0  0  0  0  0
   -0.0000    3.3038   -1.5248 H   0  0  0  0  0  0  0  0  0  0  0  0
   -0.8777    2.3150   -2.7026 H   0  0  0  0  0  0  0  0  0  0  0  0
  1  2  1  0
  1  4  1  0
  1  5  1  0
  2  3  2  0
  6  7  2  3
  6  9  1  0
  7  8  1  0
  7 10  1  0
  8 11  1  0
  8 12  1  0
  8 13  1  0
M  RAD  1   6   2
M  END
>  <reaction>  (25) 
rmg_rxn_1523

>  <mol_properties>  (25) 
{"0": {"label": "*1", "atom_type": "N3s"}, "1": {"label": "*0", "atom_type": "N3d"}, "3": {"label": "*2", "atom_type": "H0"}, "5": {"label": "*3", "atom_type": "Cd"}, "6": {"label": "*4", "atom_type": "Cd"}}

>  <type>  (25) 
unop_21

>  <geom_source>  (25) 
Heuristics

$$$$

     RDKit          3D

 13 11  0  0  0  0  0  0  0  0999 V2000
    1.4384   -0.9612    0.0003 N   0  0  0  0  0  0  0  0  0  0  0  0
    2.2713   -0.0256    0.0003 N   0  0  0  0  0  0  0  0  0  0  0  0
    2.0031    1.1522   -0.0005 O   0  0  0  0  0  0  0  0  0  0  0  0
    0.2069   -0.9025   -0.0002 H   0  0  0  0  0  0  0  0  0  0  0  0
    1.8529   -1.8879    0.0013 H   0  0  0  0  0  0  0  0  0  0  0  0
   -1.0816   -0.8773   -0.0007 C   0  0  0  0  0  3  0  0  0  0  0  0
   -1.7281    0.2634    0.0007 C   0  0  0  0  0  0  0  0  0  0  0  0
   -3.2229    0.4048   -0.0000 C   0  0  0  0  0  0  0  0  0  0  0  0
   -1.5445   -1.8505   -0.0024 H   0  0  0  0  0  0  0  0  0  0  0  0
   -1.1875    1.2015    0.0025 H   0  0  0  0  0  0  0  0  0  0  0  0
   -3.5402    0.9624   -0.8805 H   0  0  0  0  0  0  0  0  0  0  0  0
   -3.5414    0.9593    0.8818 H   0  0  0  0  0  0  0  0  0  0  0  0
   -3.7086   -0.5681   -0.0021 H   0  0  0  0  0  0  0  0  0  0  0  0
  1  2  1  0
  1  4  1  0
  1  5  1  0
  2  3  2  0
  6  7  2  3
  6  9  1  0
  7  8  1  0
  7 10  1  0
  8 11  1  0
  8 12  1  0
  8 13  1  0
M  RAD  1   6   2
M  END
>  <reaction>  (26) 
rmg_rxn_1523

>  <mol_properties>  (26) 
{"0": {"label": "*1", "atom_type": "N3s"}, "1": {"label": "*0", "atom_type": "N3d"}, "3": {"label": "*2", "atom_type": "H0"}, "5": {"label": "*3", "atom_type": "Cd"}, "6": {"label": "*4", "atom_type": "Cd"}}

>  <type>  (26) 
unop_22

>  <geom_source>  (26) 
Heuristics

$$$$

     RDKit          3D

 13 11  0  0  0  0  0  0  0  0999 V2000
    0.2515   -0.7708    1.6313 N   0  0  0  0  0  0  0  0  0  0  0  0
    0.2515   -1.9736    1.0865 N   0  0  0  0  0  0  0  0  0  0  0  0
    0.2515   -1.9736   -0.1179 O   0  0  0  0  0  0  0  0  0  0  0  0
    0.2515    0.2118    0.9161 H   0  0  0  0  0  0  0  0  0  0  0  0
    0.2515   -0.7245    2.6334 H   0  0  0  0  0  0  0  0  0  0  0  0
    0.2515    1.2623    0.1515 C   0  0  0  0  0  3  0  0  0  0  0  0
   -0.3125    1.2473   -1.0460 C   0  0  0  0  0  0  0  0  0  0  0  0
   -0.6977    2.4596   -1.8310 C   0  0  0  0  0  0  0  0  0  0  0  0
    0.4787    2.1942    0.6585 H   0  0  0  0  0  0  0  0  0  0  0  0
   -0.5212    0.2889   -1.5144 H   0  0  0  0  0  0  0  0  0  0  0  0
   -0.1816    2.4794   -2.7942 H   0  0  0  0  0  0  0  0  0  0  0  0
   -0.4556    3.3767   -1.2926 H   0  0  0  0  0  0  0  0  0  0  0  0
   -1.7694    2.4594   -2.0461 H   0  0  0  0  0  0  0  0  0  0  0  0
  1  2  1  0
  1  4  1  0
  1  5  1  0
  2  3  2  0
  6  7  2  3
  6  9  1  0
  7  8  1  0
  7 10  1  0
  8 11  1  0
  8 12  1  0
  8 13  1  0
M  RAD  1   6   2
M  END
>  <reaction>  (27) 
rmg_rxn_1523

>  <mol_properties>  (27) 
{"0": {"label": "*1", "atom_type": "N3s"}, "1": {"label": "*0", "atom_type": "N3d"}, "3": {"label": "*2", "atom_type": "H0"}, "5": {"label": "*3", "atom_type": "Cd"}, "6": {"label": "*4", "atom_type": "Cd"}}

>  <type>  (27) 
unop_23

>  <geom_source>  (27) 
gaussian_log

$$$$
