
     RDKit          3D

  8  7  0  0  0  0  0  0  0  0999 V2000
    0.9548    0.1194   -0.0790 C   0  0  0  0  0  0  0  0  0  0  0  0
   -0.4838   -0.2649    0.0193 C   0  0  0  0  0  0  0  0  0  0  0  0
   -0.8933   -1.1081    0.8664 N   0  0  0  0  0  0  0  0  0  0  0  0
    1.3360   -0.0983   -1.0800 H   0  0  0  0  0  0  0  0  0  0  0  0
    1.0698    1.1948    0.0786 H   0  0  0  0  0  0  0  0  0  0  0  0
    1.5426   -0.4219    0.6602 H   0  0  0  0  0  0  0  0  0  0  0  0
   -1.1575    0.2324   -0.6905 H   0  0  0  0  0  0  0  0  0  0  0  0
   -1.8989   -1.2455    0.7886 H   0  0  0  0  0  0  0  0  0  0  0  0
  1  2  1  0
  1  4  1  0
  1  5  1  0
  1  6  1  0
  2  3  2  3
  2  7  1  0
  3  8  1  0
M  END
>  <reaction>  (1) 
rmg_rxn_16467

>  <mol_properties>  (1) 
{"2": {"label": "donator", "atom_type": "N3d"}, "7": {"label": "d_hydrogen", "atom_type": "H0"}}

>  <type>  (1) 
r1h

$$$$

     RDKit          3D

 13 13  0  0  0  0  0  0  0  0999 V2000
   -1.1371    0.3608    0.3110 C   0  0  0  0  0  3  0  0  0  0  0  0
   -0.0045    1.3224    0.2943 C   0  0  0  0  0  0  0  0  0  0  0  0
    1.2245    0.6965    0.6137 O   0  0  0  0  0  0  0  0  0  0  0  0
    1.3926   -0.4921   -0.0955 C   0  0  0  0  0  0  0  0  0  0  0  0
    0.4387   -1.4537    0.2351 O   0  0  0  0  0  0  0  0  0  0  0  0
   -0.8659   -1.0349   -0.1206 C   0  0  0  0  0  0  0  0  0  0  0  0
   -2.1544    0.7285    0.3341 H   0  0  0  0  0  0  0  0  0  0  0  0
   -0.1488    2.1272    1.0165 H   0  0  0  0  0  0  0  0  0  0  0  0
    0.0825    1.7949   -0.7036 H   0  0  0  0  0  0  0  0  0  0  0  0
    1.3549   -0.2872   -1.1815 H   0  0  0  0  0  0  0  0  0  0  0  0
    2.3646   -0.8956    0.1787 H   0  0  0  0  0  0  0  0  0  0  0  0
   -1.5620   -1.7401    0.3358 H   0  0  0  0  0  0  0  0  0  0  0  0
   -0.9852   -1.1268   -1.2179 H   0  0  0  0  0  0  0  0  0  0  0  0
  1  2  1  0
  1  6  1  0
  1  7  1  0
  2  3  1  0
  2  8  1  0
  2  9  1  0
  3  4  1  0
  4  5  1  0
  4 10  1  0
  4 11  1  0
  5  6  1  0
  6 12  1  0
  6 13  1  0
M  RAD  1   1   2
M  END
>  <reaction>  (2) 
rmg_rxn_16467

>  <mol_properties>  (2) 
{"0": {"label": "acceptor", "atom_type": "Cs"}}

>  <type>  (2) 
r2

$$$$

     RDKit          3D

 14 14  0  0  0  0  0  0  0  0999 V2000
   -1.1778    0.2241    0.1818 C   0  0  0  0  0  0  0  0  0  0  0  0
   -0.5633   -1.1636    0.0678 C   0  0  0  0  0  0  0  0  0  0  0  0
    0.6943   -1.1996    0.7146 O   0  0  0  0  0  0  0  0  0  0  0  0
    1.5547   -0.2288    0.2011 C   0  0  0  0  0  0  0  0  0  0  0  0
    1.0729    1.0696    0.3698 O   0  0  0  0  0  0  0  0  0  0  0  0
   -0.1607    1.2493   -0.2989 C   0  0  0  0  0  0  0  0  0  0  0  0
   -2.0927    0.2866   -0.4117 H   0  0  0  0  0  0  0  0  0  0  0  0
   -1.4303    0.4248    1.2248 H   0  0  0  0  0  0  0  0  0  0  0  0
   -1.1822   -1.9235    0.5431 H   0  0  0  0  0  0  0  0  0  0  0  0
   -0.4389   -1.4347   -0.9919 H   0  0  0  0  0  0  0  0  0  0  0  0
    1.7250   -0.4207   -0.8742 H   0  0  0  0  0  0  0  0  0  0  0  0
    2.4896   -0.3010    0.7524 H   0  0  0  0  0  0  0  0  0  0  0  0
   -0.0080    1.1481   -1.3844 H   0  0  0  0  0  0  0  0  0  0  0  0
   -0.4826    2.2695   -0.0942 H   0  0  0  0  0  0  0  0  0  0  0  0
  1  2  1  0
  1  6  1  0
  1  7  1  0
  1  8  1  0
  2  3  1  0
  2  9  1  0
  2 10  1  0
  3  4  1  0
  4  5  1  0
  4 11  1  0
  4 12  1  0
  5  6  1  0
  6 13  1  0
  6 14  1  0
M  END
>  <reaction>  (3) 
rmg_rxn_16467

>  <mol_properties>  (3) 
{"0": {"label": "a_hydrogen", "atom_type": "H0"}, "1": {"label": "acceptor", "atom_type": "Cs"}}

>  <type>  (3) 
r2h

$$$$

     RDKit          3D

 21 20  0  0  0  0  0  0  0  0999 V2000
    1.9943   -1.3846    0.2262 C   0  0  0  0  0  0  0  0  0  0  0  0
    2.6574   -0.1319   -0.2595 C   0  0  0  0  0  0  0  0  0  0  0  0
    2.1757    1.0104   -0.4582 N   0  0  0  0  0  0  0  0  0  0  0  0
    0.9612   -1.2156    0.5195 H   0  0  0  0  0  0  0  0  0  0  0  0
    2.0228   -2.1359   -0.5669 H   0  0  0  0  0  0  0  0  0  0  0  0
    2.5560   -1.7885    1.0715 H   0  0  0  0  0  0  0  0  0  0  0  0
    3.7297   -0.2310   -0.4785 H   0  0  0  0  0  0  0  0  0  0  0  0
    0.9790    1.0660   -0.2223 H   0  0  0  0  0  0  0  0  0  0  0  0
   -0.3873    1.3228   -0.1170 C   0  0  0  0  0  3  0  0  0  0  0  0
   -1.0388    0.6835   -1.3132 C   0  0  0  0  0  0  0  0  0  0  0  0
   -1.2144   -0.7082   -1.1198 O   0  0  0  0  0  0  0  0  0  0  0  0
   -1.8837   -0.9699    0.0739 C   0  0  0  0  0  0  0  0  0  0  0  0
   -1.1609   -0.5567    1.1956 O   0  0  0  0  0  0  0  0  0  0  0  0
   -0.9535    0.8441    1.1926 C   0  0  0  0  0  0  0  0  0  0  0  0
   -0.3217    2.4080   -0.1875 H   0  0  0  0  0  0  0  0  0  0  0  0
   -2.0216    1.1481   -1.5047 H   0  0  0  0  0  0  0  0  0  0  0  0
   -0.4323    0.8054   -2.2107 H   0  0  0  0  0  0  0  0  0  0  0  0
   -2.0051   -2.0482    0.1494 H   0  0  0  0  0  0  0  0  0  0  0  0
   -2.8698   -0.4717    0.0661 H   0  0  0  0  0  0  0  0  0  0  0  0
   -0.2873    1.0657    2.0266 H   0  0  0  0  0  0  0  0  0  0  0  0
   -1.9149    1.3494    1.3903 H   0  0  0  0  0  0  0  0  0  0  0  0
  1  2  1  0
  1  4  1  0
  1  5  1  0
  1  6  1  0
  2  3  2  3
  2  7  1  0
  3  8  1  0
  9 10  1  0
  9 14  1  0
  9 15  1  0
 10 11  1  0
 10 16  1  0
 10 17  1  0
 11 12  1  0
 12 13  1  0
 12 18  1  0
 12 19  1  0
 13 14  1  0
 14 20  1  0
 14 21  1  0
M  RAD  1   9   2
M  END
>  <reaction>  (4) 
rmg_rxn_16467

>  <mol_properties>  (4) 
{"1": {"label": "*0", "atom_type": "Cd"}, "2": {"label": "*1", "atom_type": "N3d"}, "7": {"label": "*2", "atom_type": "H0"}, "8": {"label": "*3", "atom_type": "Cs"}, "9": {"label": "*4", "atom_type": "Cs"}}

>  <type>  (4) 
ts

$$$$

     RDKit          3D

 21 20  0  0  0  0  0  0  0  0999 V2000
    1.9697   -1.4388    0.0926 C   0  0  0  0  0  0  0  0  0  0  0  0
    2.6308   -0.0968    0.0758 C   0  0  0  0  0  0  0  0  0  0  0  0
    2.1449    1.0339   -0.0549 N   0  0  0  0  0  0  0  0  0  0  0  0
    1.9842   -1.8219    1.1128 H   0  0  0  0  0  0  0  0  0  0  0  0
    0.9401   -1.3743   -0.2470 H   0  0  0  0  0  0  0  0  0  0  0  0
    2.5230   -2.1325   -0.5377 H   0  0  0  0  0  0  0  0  0  0  0  0
    3.7188   -0.1434    0.2142 H   0  0  0  0  0  0  0  0  0  0  0  0
    0.9022    1.1204   -0.1751 H   0  0  0  0  0  0  0  0  0  0  0  0
   -0.3756    1.3619   -0.2645 C   0  0  0  0  0  3  0  0  0  0  0  0
   -0.9828    0.5357   -1.3799 C   0  0  0  0  0  0  0  0  0  0  0  0
   -1.1010   -0.8311   -1.0189 O   0  0  0  0  0  0  0  0  0  0  0  0
   -1.7808   -0.9770    0.1918 C   0  0  0  0  0  0  0  0  0  0  0  0
   -1.1246   -0.3726    1.2607 O   0  0  0  0  0  0  0  0  0  0  0  0
   -1.0164    1.0280    1.0678 C   0  0  0  0  0  0  0  0  0  0  0  0
   -0.4072    2.4266   -0.4799 H   0  0  0  0  0  0  0  0  0  0  0  0
   -1.9884    0.9239   -1.6304 H   0  0  0  0  0  0  0  0  0  0  0  0
   -0.3681    0.5565   -2.2820 H   0  0  0  0  0  0  0  0  0  0  0  0
   -1.8241   -2.0473    0.4052 H   0  0  0  0  0  0  0  0  0  0  0  0
   -2.8084   -0.5664    0.0953 H   0  0  0  0  0  0  0  0  0  0  0  0
   -0.4238    1.4023    1.9045 H   0  0  0  0  0  0  0  0  0  0  0  0
   -2.0278    1.4746    1.1231 H   0  0  0  0  0  0  0  0  0  0  0  0
  1  2  1  0
  1  4  1  0
  1  5  1  0
  1  6  1  0
  2  3  2  3
  2  7  1  0
  3  8  1  0
  9 10  1  0
  9 14  1  0
  9 15  1  0
 10 11  1  0
 10 16  1  0
 10 17  1  0
 11 12  1  0
 12 13  1  0
 12 18  1  0
 12 19  1  0
 13 14  1  0
 14 20  1  0
 14 21  1  0
M  RAD  1   9   2
M  END
>  <reaction>  (5) 
rmg_rxn_16467

>  <mol_properties>  (5) 
{"1": {"label": "*0", "atom_type": "Cd"}, "2": {"label": "*1", "atom_type": "N3d"}, "7": {"label": "*2", "atom_type": "H0"}, "8": {"label": "*3", "atom_type": "Cs"}, "9": {"label": "*4", "atom_type": "Cs"}}

>  <type>  (5) 
unop_1

>  <geom_source>  (5) 
crest_best.xyz

$$$$

     RDKit          3D

 21 20  0  0  0  0  0  0  0  0999 V2000
    0.0338   -1.3161   -4.0924 C   0  0  0  0  0  0  0  0  0  0  0  0
    0.0338   -1.3161   -2.6001 C   0  0  0  0  0  0  0  0  0  0  0  0
    0.0338   -0.2434   -1.9324 N   0  0  0  0  0  0  0  0  0  0  0  0
    0.9120   -1.8461   -4.4698 H   0  0  0  0  0  0  0  0  0  0  0  0
   -0.8445   -1.8461   -4.4698 H   0  0  0  0  0  0  0  0  0  0  0  0
    0.0338   -0.2955   -4.4710 H   0  0  0  0  0  0  0  0  0  0  0  0
    0.0338   -2.3058   -2.1254 H   0  0  0  0  0  0  0  0  0  0  0  0
    0.0338   -0.4736   -0.7328 H   0  0  0  0  0  0  0  0  0  0  0  0
    0.0338   -0.7206    0.5545 C   0  0  0  0  0  3  0  0  0  0  0  0
    1.2687   -0.1207    1.2115 C   0  0  0  0  0  0  0  0  0  0  0  0
    0.9124    0.5612    2.3987 O   0  0  0  0  0  0  0  0  0  0  0  0
   -0.0471    1.5428    2.1492 C   0  0  0  0  0  0  0  0  0  0  0  0
   -1.2349    1.0240    1.6329 O   0  0  0  0  0  0  0  0  0  0  0  0
   -1.0146    0.3715    0.3971 C   0  0  0  0  0  0  0  0  0  0  0  0
   -0.3635   -1.5167    1.1873 H   0  0  0  0  0  0  0  0  0  0  0  0
    1.9918   -0.8847    1.4937 H   0  0  0  0  0  0  0  0  0  0  0  0
    1.7608    0.5799    0.5194 H   0  0  0  0  0  0  0  0  0  0  0  0
    0.3648    2.2886    1.4448 H   0  0  0  0  0  0  0  0  0  0  0  0
   -0.2858    2.0112    3.1015 H   0  0  0  0  0  0  0  0  0  0  0  0
   -0.6832    1.1067   -0.3522 H   0  0  0  0  0  0  0  0  0  0  0  0
   -1.9759   -0.0295    0.0786 H   0  0  0  0  0  0  0  0  0  0  0  0
  1  2  1  0
  1  4  1  0
  1  5  1  0
  1  6  1  0
  2  3  2  3
  2  7  1  0
  3  8  1  0
  9 10  1  0
  9 14  1  0
  9 15  1  0
 10 11  1  0
 10 16  1  0
 10 17  1  0
 11 12  1  0
 12 13  1  0
 12 18  1  0
 12 19  1  0
 13 14  1  0
 14 20  1  0
 14 21  1  0
M  RAD  1   9   2
M  END
>  <reaction>  (6) 
rmg_rxn_16467

>  <mol_properties>  (6) 
{"1": {"label": "*0", "atom_type": "Cd"}, "2": {"label": "*1", "atom_type": "N3d"}, "7": {"label": "*2", "atom_type": "H0"}, "8": {"label": "*3", "atom_type": "Cs"}, "9": {"label": "*4", "atom_type": "Cs"}}

>  <type>  (6) 
unop_2

>  <geom_source>  (6) 
Heuristics

$$$$

     RDKit          3D

 21 20  0  0  0  0  0  0  0  0999 V2000
   -0.7264   -0.4291   -4.1822 C   0  0  0  0  0  0  0  0  0  0  0  0
   -0.7264   -0.4291   -2.6898 C   0  0  0  0  0  0  0  0  0  0  0  0
   -0.7264    0.6435   -2.0222 N   0  0  0  0  0  0  0  0  0  0  0  0
    0.1518   -0.9591   -4.5596 H   0  0  0  0  0  0  0  0  0  0  0  0
   -1.6047   -0.9591   -4.5596 H   0  0  0  0  0  0  0  0  0  0  0  0
   -0.7264    0.5915   -4.5608 H   0  0  0  0  0  0  0  0  0  0  0  0
   -0.7264   -1.4188   -2.2152 H   0  0  0  0  0  0  0  0  0  0  0  0
   -0.7264    0.4134   -0.8226 H   0  0  0  0  0  0  0  0  0  0  0  0
   -0.7264    0.1664    0.4648 C   0  0  0  0  0  3  0  0  0  0  0  0
   -0.0135   -1.1467    0.7546 C   0  0  0  0  0  0  0  0  0  0  0  0
    0.4828   -1.1552    2.0794 O   0  0  0  0  0  0  0  0  0  0  0  0
    1.3258   -0.0678    2.3103 C   0  0  0  0  0  0  0  0  0  0  0  0
    0.6857    1.1612    2.1477 O   0  0  0  0  0  0  0  0  0  0  0  0
    0.2023    1.3165    0.8272 C   0  0  0  0  0  0  0  0  0  0  0  0
   -1.6335    0.2280    1.0691 H   0  0  0  0  0  0  0  0  0  0  0  0
   -0.6821   -2.0018    0.6648 H   0  0  0  0  0  0  0  0  0  0  0  0
    0.8203   -1.2863    0.0495 H   0  0  0  0  0  0  0  0  0  0  0  0
    2.1929   -0.1236    1.6269 H   0  0  0  0  0  0  0  0  0  0  0  0
    1.6539   -0.1270    3.3457 H   0  0  0  0  0  0  0  0  0  0  0  0
    1.0512    1.3501    0.1272 H   0  0  0  0  0  0  0  0  0  0  0  0
   -0.3072    2.2784    0.7910 H   0  0  0  0  0  0  0  0  0  0  0  0
  1  2  1  0
  1  4  1  0
  1  5  1  0
  1  6  1  0
  2  3  2  3
  2  7  1  0
  3  8  1  0
  9 10  1  0
  9 14  1  0
  9 15  1  0
 10 11  1  0
 10 16  1  0
 10 17  1  0
 11 12  1  0
 12 13  1  0
 12 18  1  0
 12 19  1  0
 13 14  1  0
 14 20  1  0
 14 21  1  0
M  RAD  1   9   2
M  END
>  <reaction>  (7) 
rmg_rxn_16467

>  <mol_properties>  (7) 
{"1": {"label": "*0", "atom_type": "Cd"}, "2": {"label": "*1", "atom_type": "N3d"}, "7": {"label": "*2", "atom_type": "H0"}, "8": {"label": "*3", "atom_type": "Cs"}, "9": {"label": "*4", "atom_type": "Cs"}}

>  <type>  (7) 
unop_3

>  <geom_source>  (7) 
Heuristics

$$$$

     RDKit          3D

 21 20  0  0  0  0  0  0  0  0999 V2000
    0.4509   -1.0809   -4.1882 C   0  0  0  0  0  0  0  0  0  0  0  0
    0.4509   -1.0809   -2.6959 C   0  0  0  0  0  0  0  0  0  0  0  0
    0.4509   -0.0083   -2.0282 N   0  0  0  0  0  0  0  0  0  0  0  0
    1.3292   -1.6109   -4.5656 H   0  0  0  0  0  0  0  0  0  0  0  0
   -0.4273   -1.6109   -4.5656 H   0  0  0  0  0  0  0  0  0  0  0  0
    0.4509   -0.0603   -4.5668 H   0  0  0  0  0  0  0  0  0  0  0  0
    0.4509   -2.0706   -2.2212 H   0  0  0  0  0  0  0  0  0  0  0  0
    0.4509   -0.2385   -0.8286 H   0  0  0  0  0  0  0  0  0  0  0  0
    0.4509   -0.4855    0.4587 C   0  0  0  0  0  3  0  0  0  0  0  0
    1.1639    0.6271    1.2140 C   0  0  0  0  0  0  0  0  0  0  0  0
    0.5483    0.8426    2.4693 O   0  0  0  0  0  0  0  0  0  0  0  0
   -0.8095    1.1284    2.3240 C   0  0  0  0  0  0  0  0  0  0  0  0
   -1.5220    0.0924    1.7194 O   0  0  0  0  0  0  0  0  0  0  0  0
   -1.0376   -0.1707    0.4165 C   0  0  0  0  0  0  0  0  0  0  0  0
    0.6069   -1.4337    0.9767 H   0  0  0  0  0  0  0  0  0  0  0  0
    2.2059    0.3809    1.4139 H   0  0  0  0  0  0  0  0  0  0  0  0
    1.1369    1.5581    0.6272 H   0  0  0  0  0  0  0  0  0  0  0  0
   -0.9288    2.0523    1.7288 H   0  0  0  0  0  0  0  0  0  0  0  0
   -1.2202    1.2639    3.3220 H   0  0  0  0  0  0  0  0  0  0  0  0
   -1.2196    0.7042   -0.2263 H   0  0  0  0  0  0  0  0  0  0  0  0
   -1.6196   -1.0054    0.0282 H   0  0  0  0  0  0  0  0  0  0  0  0
  1  2  1  0
  1  4  1  0
  1  5  1  0
  1  6  1  0
  2  3  2  3
  2  7  1  0
  3  8  1  0
  9 10  1  0
  9 14  1  0
  9 15  1  0
 10 11  1  0
 10 16  1  0
 10 17  1  0
 11 12  1  0
 12 13  1  0
 12 18  1  0
 12 19  1  0
 13 14  1  0
 14 20  1  0
 14 21  1  0
M  RAD  1   9   2
M  END
>  <reaction>  (8) 
rmg_rxn_16467

>  <mol_properties>  (8) 
{"1": {"label": "*0", "atom_type": "Cd"}, "2": {"label": "*1", "atom_type": "N3d"}, "7": {"label": "*2", "atom_type": "H0"}, "8": {"label": "*3", "atom_type": "Cs"}, "9": {"label": "*4", "atom_type": "Cs"}}

>  <type>  (8) 
unop_4

>  <geom_source>  (8) 
Heuristics

$$$$

     RDKit          3D

 21 20  0  0  0  0  0  0  0  0999 V2000
    0.1736   -0.2030   -4.4382 C   0  0  0  0  0  0  0  0  0  0  0  0
    0.1736   -0.2030   -2.9459 C   0  0  0  0  0  0  0  0  0  0  0  0
    0.1736    0.8697   -2.2782 N   0  0  0  0  0  0  0  0  0  0  0  0
    1.0519   -0.7330   -4.8156 H   0  0  0  0  0  0  0  0  0  0  0  0
   -0.7047   -0.7330   -4.8156 H   0  0  0  0  0  0  0  0  0  0  0  0
    0.1736    0.8177   -4.8168 H   0  0  0  0  0  0  0  0  0  0  0  0
    0.1736   -1.1927   -2.4713 H   0  0  0  0  0  0  0  0  0  0  0  0
    0.1736    0.6395   -1.0786 H   0  0  0  0  0  0  0  0  0  0  0  0
    0.1736    0.3925    0.2087 C   0  0  0  0  0  3  0  0  0  0  0  0
   -1.0614   -0.4080    0.5969 C   0  0  0  0  0  0  0  0  0  0  0  0
   -1.3804   -0.1913    1.9580 O   0  0  0  0  0  0  0  0  0  0  0  0
   -0.3020   -0.5042    2.7860 C   0  0  0  0  0  0  0  0  0  0  0  0
    0.8266    0.2742    2.5272 O   0  0  0  0  0  0  0  0  0  0  0  0
    1.2855    0.0870    1.2022 C   0  0  0  0  0  0  0  0  0  0  0  0
   -0.0597    1.4585    0.2414 H   0  0  0  0  0  0  0  0  0  0  0  0
   -1.9362   -0.1131    0.0190 H   0  0  0  0  0  0  0  0  0  0  0  0
   -0.8832   -1.4811    0.4280 H   0  0  0  0  0  0  0  0  0  0  0  0
   -0.0459   -1.5731    2.6674 H   0  0  0  0  0  0  0  0  0  0  0  0
   -0.6092   -0.2985    3.8089 H   0  0  0  0  0  0  0  0  0  0  0  0
    1.6288   -0.9513    1.0758 H   0  0  0  0  0  0  0  0  0  0  0  0
    2.1418    0.7471    1.0708 H   0  0  0  0  0  0  0  0  0  0  0  0
  1  2  1  0
  1  4  1  0
  1  5  1  0
  1  6  1  0
  2  3  2  3
  2  7  1  0
  3  8  1  0
  9 10  1  0
  9 14  1  0
  9 15  1  0
 10 11  1  0
 10 16  1  0
 10 17  1  0
 11 12  1  0
 12 13  1  0
 12 18  1  0
 12 19  1  0
 13 14  1  0
 14 20  1  0
 14 21  1  0
M  RAD  1   9   2
M  END
>  <reaction>  (9) 
rmg_rxn_16467

>  <mol_properties>  (9) 
{"1": {"label": "*0", "atom_type": "Cd"}, "2": {"label": "*1", "atom_type": "N3d"}, "7": {"label": "*2", "atom_type": "H0"}, "8": {"label": "*3", "atom_type": "Cs"}, "9": {"label": "*4", "atom_type": "Cs"}}

>  <type>  (9) 
unop_5

>  <geom_source>  (9) 
Heuristics

$$$$

     RDKit          3D

 21 20  0  0  0  0  0  0  0  0999 V2000
    0.4584   -0.6126   -4.3859 C   0  0  0  0  0  0  0  0  0  0  0  0
    0.4584   -0.6126   -2.8936 C   0  0  0  0  0  0  0  0  0  0  0  0
    0.4584    0.4600   -2.2259 N   0  0  0  0  0  0  0  0  0  0  0  0
    1.3366   -1.1426   -4.7633 H   0  0  0  0  0  0  0  0  0  0  0  0
   -0.4199   -1.1426   -4.7633 H   0  0  0  0  0  0  0  0  0  0  0  0
    0.4584    0.4080   -4.7645 H   0  0  0  0  0  0  0  0  0  0  0  0
    0.4584   -1.6023   -2.4189 H   0  0  0  0  0  0  0  0  0  0  0  0
    0.4584    0.2298   -1.0263 H   0  0  0  0  0  0  0  0  0  0  0  0
    0.4584   -0.0172    0.2610 C   0  0  0  0  0  3  0  0  0  0  0  0
    0.4584    1.2830    1.0523 C   0  0  0  0  0  0  0  0  0  0  0  0
    0.3098    1.0182    2.4341 O   0  0  0  0  0  0  0  0  0  0  0  0
   -0.8473    0.2805    2.6857 C   0  0  0  0  0  0  0  0  0  0  0  0
   -0.8480   -0.9633    2.0539 O   0  0  0  0  0  0  0  0  0  0  0  0
   -0.7728   -0.8241    0.6480 C   0  0  0  0  0  0  0  0  0  0  0  0
    1.3571   -0.5884    0.5014 H   0  0  0  0  0  0  0  0  0  0  0  0
    1.3930    1.8302    0.9367 H   0  0  0  0  0  0  0  0  0  0  0  0
   -0.3640    1.9310    0.7123 H   0  0  0  0  0  0  0  0  0  0  0  0
   -1.7304    0.8593    2.3583 H   0  0  0  0  0  0  0  0  0  0  0  0
   -0.8884    0.0989    3.7574 H   0  0  0  0  0  0  0  0  0  0  0  0
   -1.6818   -0.3244    0.2795 H   0  0  0  0  0  0  0  0  0  0  0  0
   -0.7464   -1.8312    0.2342 H   0  0  0  0  0  0  0  0  0  0  0  0
  1  2  1  0
  1  4  1  0
  1  5  1  0
  1  6  1  0
  2  3  2  3
  2  7  1  0
  3  8  1  0
  9 10  1  0
  9 14  1  0
  9 15  1  0
 10 11  1  0
 10 16  1  0
 10 17  1  0
 11 12  1  0
 12 13  1  0
 12 18  1  0
 12 19  1  0
 13 14  1  0
 14 20  1  0
 14 21  1  0
M  RAD  1   9   2
M  END
>  <reaction>  (10) 
rmg_rxn_16467

>  <mol_properties>  (10) 
{"1": {"label": "*0", "atom_type": "Cd"}, "2": {"label": "*1", "atom_type": "N3d"}, "7": {"label": "*2", "atom_type": "H0"}, "8": {"label": "*3", "atom_type": "Cs"}, "9": {"label": "*4", "atom_type": "Cs"}}

>  <type>  (10) 
unop_6

>  <geom_source>  (10) 
Heuristics

$$$$

     RDKit          3D

 21 20  0  0  0  0  0  0  0  0999 V2000
    0.2164   -0.4122   -4.4748 C   0  0  0  0  0  0  0  0  0  0  0  0
    0.2164   -0.4122   -2.9825 C   0  0  0  0  0  0  0  0  0  0  0  0
    0.2164    0.6604   -2.3148 N   0  0  0  0  0  0  0  0  0  0  0  0
    1.0946   -0.9422   -4.8522 H   0  0  0  0  0  0  0  0  0  0  0  0
   -0.6619   -0.9422   -4.8522 H   0  0  0  0  0  0  0  0  0  0  0  0
    0.2164    0.6084   -4.8534 H   0  0  0  0  0  0  0  0  0  0  0  0
    0.2164   -1.4019   -2.5078 H   0  0  0  0  0  0  0  0  0  0  0  0
    0.2164    0.4302   -1.1152 H   0  0  0  0  0  0  0  0  0  0  0  0
    0.2164    0.1832    0.1721 C   0  0  0  0  0  3  0  0  0  0  0  0
   -1.2096    0.0829    0.6947 C   0  0  0  0  0  0  0  0  0  0  0  0
   -1.2806    0.5577    2.0255 O   0  0  0  0  0  0  0  0  0  0  0  0
   -0.3951   -0.1304    2.8555 C   0  0  0  0  0  0  0  0  0  0  0  0
    0.9373    0.0123    2.4671 O   0  0  0  0  0  0  0  0  0  0  0  0
    1.1488   -0.4970    1.1643 C   0  0  0  0  0  0  0  0  0  0  0  0
    0.4943    1.2345    0.0749 H   0  0  0  0  0  0  0  0  0  0  0  0
   -1.9015    0.6868    0.1091 H   0  0  0  0  0  0  0  0  0  0  0  0
   -1.5511   -0.9630    0.6594 H   0  0  0  0  0  0  0  0  0  0  0  0
   -0.6613   -1.2033    2.8674 H   0  0  0  0  0  0  0  0  0  0  0  0
   -0.4889    0.2952    3.8520 H   0  0  0  0  0  0  0  0  0  0  0  0
    0.9732   -1.5838    1.1621 H   0  0  0  0  0  0  0  0  0  0  0  0
    2.1966   -0.3210    0.9252 H   0  0  0  0  0  0  0  0  0  0  0  0
  1  2  1  0
  1  4  1  0
  1  5  1  0
  1  6  1  0
  2  3  2  3
  2  7  1  0
  3  8  1  0
  9 10  1  0
  9 14  1  0
  9 15  1  0
 10 11  1  0
 10 16  1  0
 10 17  1  0
 11 12  1  0
 12 13  1  0
 12 18  1  0
 12 19  1  0
 13 14  1  0
 14 20  1  0
 14 21  1  0
M  RAD  1   9   2
M  END
>  <reaction>  (11) 
rmg_rxn_16467

>  <mol_properties>  (11) 
{"1": {"label": "*0", "atom_type": "Cd"}, "2": {"label": "*1", "atom_type": "N3d"}, "7": {"label": "*2", "atom_type": "H0"}, "8": {"label": "*3", "atom_type": "Cs"}, "9": {"label": "*4", "atom_type": "Cs"}}

>  <type>  (11) 
unop_7

>  <geom_source>  (11) 
Heuristics

$$$$

     RDKit          3D

 21 20  0  0  0  0  0  0  0  0999 V2000
    0.1440   -0.5111   -4.4934 C   0  0  0  0  0  0  0  0  0  0  0  0
    0.1440   -0.5111   -3.0010 C   0  0  0  0  0  0  0  0  0  0  0  0
    0.1440    0.5616   -2.3334 N   0  0  0  0  0  0  0  0  0  0  0  0
    1.0223   -1.0410   -4.8708 H   0  0  0  0  0  0  0  0  0  0  0  0
   -0.7342   -1.0410   -4.8708 H   0  0  0  0  0  0  0  0  0  0  0  0
    0.1440    0.5096   -4.8720 H   0  0  0  0  0  0  0  0  0  0  0  0
    0.1440   -1.5007   -2.5264 H   0  0  0  0  0  0  0  0  0  0  0  0
    0.1440    0.3314   -1.1338 H   0  0  0  0  0  0  0  0  0  0  0  0
    0.1440    0.0844    0.1536 C   0  0  0  0  0  3  0  0  0  0  0  0
   -1.0909    0.6844    0.8105 C   0  0  0  0  0  0  0  0  0  0  0  0
   -0.7923    1.1053    2.1277 O   0  0  0  0  0  0  0  0  0  0  0  0
   -0.2815    0.0547    2.8904 C   0  0  0  0  0  0  0  0  0  0  0  0
    0.9060   -0.4652    2.3747 O   0  0  0  0  0  0  0  0  0  0  0  0
    0.7149   -0.9857    1.0731 C   0  0  0  0  0  0  0  0  0  0  0  0
    0.8899    0.8667    0.0001 H   0  0  0  0  0  0  0  0  0  0  0  0
   -1.4515    1.5617    0.2752 H   0  0  0  0  0  0  0  0  0  0  0  0
   -1.9020   -0.0594    0.8379 H   0  0  0  0  0  0  0  0  0  0  0  0
   -1.0360   -0.7504    2.9585 H   0  0  0  0  0  0  0  0  0  0  0  0
   -0.0588    0.4510    3.8786 H   0  0  0  0  0  0  0  0  0  0  0  0
    0.0309   -1.8470    1.1190 H   0  0  0  0  0  0  0  0  0  0  0  0
    1.6864   -1.3403    0.7316 H   0  0  0  0  0  0  0  0  0  0  0  0
  1  2  1  0
  1  4  1  0
  1  5  1  0
  1  6  1  0
  2  3  2  3
  2  7  1  0
  3  8  1  0
  9 10  1  0
  9 14  1  0
  9 15  1  0
 10 11  1  0
 10 16  1  0
 10 17  1  0
 11 12  1  0
 12 13  1  0
 12 18  1  0
 12 19  1  0
 13 14  1  0
 14 20  1  0
 14 21  1  0
M  RAD  1   9   2
M  END
>  <reaction>  (12) 
rmg_rxn_16467

>  <mol_properties>  (12) 
{"1": {"label": "*0", "atom_type": "Cd"}, "2": {"label": "*1", "atom_type": "N3d"}, "7": {"label": "*2", "atom_type": "H0"}, "8": {"label": "*3", "atom_type": "Cs"}, "9": {"label": "*4", "atom_type": "Cs"}}

>  <type>  (12) 
unop_8

>  <geom_source>  (12) 
Heuristics

$$$$

     RDKit          3D

 21 20  0  0  0  0  0  0  0  0999 V2000
   -0.4187   -1.2126   -4.0761 C   0  0  0  0  0  0  0  0  0  0  0  0
   -0.4187   -1.2126   -2.5838 C   0  0  0  0  0  0  0  0  0  0  0  0
   -0.4187   -0.1400   -1.9161 N   0  0  0  0  0  0  0  0  0  0  0  0
    0.4595   -1.7426   -4.4535 H   0  0  0  0  0  0  0  0  0  0  0  0
   -1.2970   -1.7426   -4.4535 H   0  0  0  0  0  0  0  0  0  0  0  0
   -0.4187   -0.1920   -4.4547 H   0  0  0  0  0  0  0  0  0  0  0  0
   -0.4187   -2.2023   -2.1092 H   0  0  0  0  0  0  0  0  0  0  0  0
   -0.4187   -0.3701   -0.7165 H   0  0  0  0  0  0  0  0  0  0  0  0
   -0.4187   -0.6171    0.5708 C   0  0  0  0  0  3  0  0  0  0  0  0
    1.0073   -0.7174    1.0934 C   0  0  0  0  0  0  0  0  0  0  0  0
    1.1438    0.0167    2.2949 O   0  0  0  0  0  0  0  0  0  0  0  0
    0.7692    1.3490    2.1186 C   0  0  0  0  0  0  0  0  0  0  0  0
   -0.5629    1.4929    1.7296 O   0  0  0  0  0  0  0  0  0  0  0  0
   -0.8076    0.8523    0.4922 C   0  0  0  0  0  0  0  0  0  0  0  0
   -1.0934   -1.1351    1.2552 H   0  0  0  0  0  0  0  0  0  0  0  0
    1.2865   -1.7453    1.3206 H   0  0  0  0  0  0  0  0  0  0  0  0
    1.7118   -0.3274    0.3428 H   0  0  0  0  0  0  0  0  0  0  0  0
    1.4253    1.8181    1.3624 H   0  0  0  0  0  0  0  0  0  0  0  0
    0.8811    1.8464    3.0794 H   0  0  0  0  0  0  0  0  0  0  0  0
   -0.2307    1.3528   -0.3006 H   0  0  0  0  0  0  0  0  0  0  0  0
   -1.8671    0.9822    0.2760 H   0  0  0  0  0  0  0  0  0  0  0  0
  1  2  1  0
  1  4  1  0
  1  5  1  0
  1  6  1  0
  2  3  2  3
  2  7  1  0
  3  8  1  0
  9 10  1  0
  9 14  1  0
  9 15  1  0
 10 11  1  0
 10 16  1  0
 10 17  1  0
 11 12  1  0
 12 13  1  0
 12 18  1  0
 12 19  1  0
 13 14  1  0
 14 20  1  0
 14 21  1  0
M  RAD  1   9   2
M  END
>  <reaction>  (13) 
rmg_rxn_16467

>  <mol_properties>  (13) 
{"1": {"label": "*0", "atom_type": "Cd"}, "2": {"label": "*1", "atom_type": "N3d"}, "7": {"label": "*2", "atom_type": "H0"}, "8": {"label": "*3", "atom_type": "Cs"}, "9": {"label": "*4", "atom_type": "Cs"}}

>  <type>  (13) 
unop_9

>  <geom_source>  (13) 
Heuristics

$$$$

     RDKit          3D

 21 20  0  0  0  0  0  0  0  0999 V2000
    1.9697   -1.4388    0.0926 C   0  0  0  0  0  0  0  0  0  0  0  0
    2.6308   -0.0968    0.0758 C   0  0  0  0  0  0  0  0  0  0  0  0
    2.1449    1.0339   -0.0549 N   0  0  0  0  0  0  0  0  0  0  0  0
    1.9842   -1.8219    1.1128 H   0  0  0  0  0  0  0  0  0  0  0  0
    0.9401   -1.3743   -0.2470 H   0  0  0  0  0  0  0  0  0  0  0  0
    2.5230   -2.1325   -0.5377 H   0  0  0  0  0  0  0  0  0  0  0  0
    3.7188   -0.1434    0.2142 H   0  0  0  0  0  0  0  0  0  0  0  0
    0.9022    1.1204   -0.1751 H   0  0  0  0  0  0  0  0  0  0  0  0
   -0.3756    1.3619   -0.2645 C   0  0  0  0  0  3  0  0  0  0  0  0
   -0.9828    0.5357   -1.3799 C   0  0  0  0  0  0  0  0  0  0  0  0
   -1.1010   -0.8311   -1.0189 O   0  0  0  0  0  0  0  0  0  0  0  0
   -1.7808   -0.9770    0.1918 C   0  0  0  0  0  0  0  0  0  0  0  0
   -1.1246   -0.3726    1.2607 O   0  0  0  0  0  0  0  0  0  0  0  0
   -1.0164    1.0280    1.0678 C   0  0  0  0  0  0  0  0  0  0  0  0
   -0.4072    2.4266   -0.4799 H   0  0  0  0  0  0  0  0  0  0  0  0
   -1.9884    0.9239   -1.6304 H   0  0  0  0  0  0  0  0  0  0  0  0
   -0.3681    0.5565   -2.2820 H   0  0  0  0  0  0  0  0  0  0  0  0
   -1.8241   -2.0473    0.4052 H   0  0  0  0  0  0  0  0  0  0  0  0
   -2.8084   -0.5664    0.0953 H   0  0  0  0  0  0  0  0  0  0  0  0
   -0.4238    1.4023    1.9045 H   0  0  0  0  0  0  0  0  0  0  0  0
   -2.0278    1.4746    1.1231 H   0  0  0  0  0  0  0  0  0  0  0  0
  1  2  1  0
  1  4  1  0
  1  5  1  0
  1  6  1  0
  2  3  2  3
  2  7  1  0
  3  8  1  0
  9 10  1  0
  9 14  1  0
  9 15  1  0
 10 11  1  0
 10 16  1  0
 10 17  1  0
 11 12  1  0
 12 13  1  0
 12 18  1  0
 12 19  1  0
 13 14  1  0
 14 20  1  0
 14 21  1  0
M  RAD  1   9   2
M  END
>  <reaction>  (14) 
rmg_rxn_16467

>  <mol_properties>  (14) 
{"1": {"label": "*0", "atom_type": "Cd"}, "2": {"label": "*1", "atom_type": "N3d"}, "7": {"label": "*2", "atom_type": "H0"}, "8": {"label": "*3", "atom_type": "Cs"}, "9": {"label": "*4", "atom_type": "Cs"}}

>  <type>  (14) 
unop_10

>  <geom_source>  (14) 
Heuristics

$$$$

     RDKit          3D

 21 20  0  0  0  0  0  0  0  0999 V2000
   -0.0780   -0.0355   -4.3782 C   0  0  0  0  0  0  0  0  0  0  0  0
   -0.0780   -0.0355   -2.8859 C   0  0  0  0  0  0  0  0  0  0  0  0
   -0.0780    1.0371   -2.2182 N   0  0  0  0  0  0  0  0  0  0  0  0
    0.8003   -0.5655   -4.7556 H   0  0  0  0  0  0  0  0  0  0  0  0
   -0.9563   -0.5655   -4.7556 H   0  0  0  0  0  0  0  0  0  0  0  0
   -0.0780    0.9851   -4.7568 H   0  0  0  0  0  0  0  0  0  0  0  0
   -0.0780   -1.0252   -2.4112 H   0  0  0  0  0  0  0  0  0  0  0  0
   -0.0780    0.8069   -1.0186 H   0  0  0  0  0  0  0  0  0  0  0  0
   -0.0780    0.5599    0.2687 C   0  0  0  0  0  3  0  0  0  0  0  0
   -0.7910   -0.7532    0.5586 C   0  0  0  0  0  0  0  0  0  0  0  0
   -1.0266   -0.8892    1.9469 O   0  0  0  0  0  0  0  0  0  0  0  0
    0.1612   -0.7952    2.6727 C   0  0  0  0  0  0  0  0  0  0  0  0
    0.8025    0.4331    2.5103 O   0  0  0  0  0  0  0  0  0  0  0  0
    1.1539    0.6530    1.1577 C   0  0  0  0  0  0  0  0  0  0  0  0
   -0.7482    1.3932    0.4887 H   0  0  0  0  0  0  0  0  0  0  0  0
   -1.7625   -0.8058    0.0691 H   0  0  0  0  0  0  0  0  0  0  0  0
   -0.1814   -1.5989    0.2051 H   0  0  0  0  0  0  0  0  0  0  0  0
    0.8439   -1.6092    2.3669 H   0  0  0  0  0  0  0  0  0  0  0  0
   -0.0947   -0.8897    3.7256 H   0  0  0  0  0  0  0  0  0  0  0  0
    1.9004   -0.0938    0.8464 H   0  0  0  0  0  0  0  0  0  0  0  0
    1.6171    1.6376    1.1102 H   0  0  0  0  0  0  0  0  0  0  0  0
  1  2  1  0
  1  4  1  0
  1  5  1  0
  1  6  1  0
  2  3  2  3
  2  7  1  0
  3  8  1  0
  9 10  1  0
  9 14  1  0
  9 15  1  0
 10 11  1  0
 10 16  1  0
 10 17  1  0
 11 12  1  0
 12 13  1  0
 12 18  1  0
 12 19  1  0
 13 14  1  0
 14 20  1  0
 14 21  1  0
M  RAD  1   9   2
M  END
>  <reaction>  (15) 
rmg_rxn_16467

>  <mol_properties>  (15) 
{"1": {"label": "*0", "atom_type": "Cd"}, "2": {"label": "*1", "atom_type": "N3d"}, "7": {"label": "*2", "atom_type": "H0"}, "8": {"label": "*3", "atom_type": "Cs"}, "9": {"label": "*4", "atom_type": "Cs"}}

>  <type>  (15) 
unop_11

>  <geom_source>  (15) 
Heuristics

$$$$

     RDKit          3D

 21 20  0  0  0  0  0  0  0  0999 V2000
   -0.7094   -0.8688   -4.1066 C   0  0  0  0  0  0  0  0  0  0  0  0
   -0.7094   -0.8688   -2.6143 C   0  0  0  0  0  0  0  0  0  0  0  0
   -0.7094    0.2038   -1.9466 N   0  0  0  0  0  0  0  0  0  0  0  0
    0.1688   -1.3988   -4.4840 H   0  0  0  0  0  0  0  0  0  0  0  0
   -1.5877   -1.3988   -4.4840 H   0  0  0  0  0  0  0  0  0  0  0  0
   -0.7094    0.1518   -4.4852 H   0  0  0  0  0  0  0  0  0  0  0  0
   -0.7094   -1.8585   -2.1396 H   0  0  0  0  0  0  0  0  0  0  0  0
   -0.7094   -0.0263   -0.7470 H   0  0  0  0  0  0  0  0  0  0  0  0
   -0.7094   -0.2733    0.5404 C   0  0  0  0  0  3  0  0  0  0  0  0
    0.5255   -1.0738    0.9286 C   0  0  0  0  0  0  0  0  0  0  0  0
    1.0183   -0.6414    2.1822 O   0  0  0  0  0  0  0  0  0  0  0  0
    1.2924    0.7265    2.1729 C   0  0  0  0  0  0  0  0  0  0  0  0
    0.1647    1.5059    1.9137 O   0  0  0  0  0  0  0  0  0  0  0  0
   -0.3821    1.2095    0.6430 C   0  0  0  0  0  0  0  0  0  0  0  0
   -1.5268   -0.5128    1.2233 H   0  0  0  0  0  0  0  0  0  0  0  0
    0.3078   -2.1364    1.0269 H   0  0  0  0  0  0  0  0  0  0  0  0
    1.3087   -0.9523    0.1646 H   0  0  0  0  0  0  0  0  0  0  0  0
    2.0688    0.9404    1.4154 H   0  0  0  0  0  0  0  0  0  0  0  0
    1.6477    0.9919    3.1661 H   0  0  0  0  0  0  0  0  0  0  0  0
    0.3373    1.4917   -0.1410 H   0  0  0  0  0  0  0  0  0  0  0  0
   -1.2693    1.8312    0.5308 H   0  0  0  0  0  0  0  0  0  0  0  0
  1  2  1  0
  1  4  1  0
  1  5  1  0
  1  6  1  0
  2  3  2  3
  2  7  1  0
  3  8  1  0
  9 10  1  0
  9 14  1  0
  9 15  1  0
 10 11  1  0
 10 16  1  0
 10 17  1  0
 11 12  1  0
 12 13  1  0
 12 18  1  0
 12 19  1  0
 13 14  1  0
 14 20  1  0
 14 21  1  0
M  RAD  1   9   2
M  END
>  <reaction>  (16) 
rmg_rxn_16467

>  <mol_properties>  (16) 
{"1": {"label": "*0", "atom_type": "Cd"}, "2": {"label": "*1", "atom_type": "N3d"}, "7": {"label": "*2", "atom_type": "H0"}, "8": {"label": "*3", "atom_type": "Cs"}, "9": {"label": "*4", "atom_type": "Cs"}}

>  <type>  (16) 
unop_12

>  <geom_source>  (16) 
Heuristics

$$$$

     RDKit          3D

 21 20  0  0  0  0  0  0  0  0999 V2000
    0.1714   -0.4784   -4.4884 C   0  0  0  0  0  0  0  0  0  0  0  0
    0.1714   -0.4784   -2.9960 C   0  0  0  0  0  0  0  0  0  0  0  0
    0.1714    0.5942   -2.3284 N   0  0  0  0  0  0  0  0  0  0  0  0
    1.0496   -1.0084   -4.8658 H   0  0  0  0  0  0  0  0  0  0  0  0
   -0.7069   -1.0084   -4.8658 H   0  0  0  0  0  0  0  0  0  0  0  0
    0.1714    0.5422   -4.8670 H   0  0  0  0  0  0  0  0  0  0  0  0
    0.1714   -1.4681   -2.5214 H   0  0  0  0  0  0  0  0  0  0  0  0
    0.1714    0.3641   -1.1288 H   0  0  0  0  0  0  0  0  0  0  0  0
    0.1714    0.1171    0.1586 C   0  0  0  0  0  3  0  0  0  0  0  0
   -0.5416    1.2296    0.9138 C   0  0  0  0  0  0  0  0  0  0  0  0
   -0.1277    1.2499    2.2665 O   0  0  0  0  0  0  0  0  0  0  0  0
   -0.3408    0.0145    2.8788 C   0  0  0  0  0  0  0  0  0  0  0  0
    0.3708   -1.0223    2.2747 O   0  0  0  0  0  0  0  0  0  0  0  0
   -0.0116   -1.1865    0.9226 C   0  0  0  0  0  0  0  0  0  0  0  0
    1.2356    0.3503    0.0881 H   0  0  0  0  0  0  0  0  0  0  0  0
   -0.3147    2.2120    0.5018 H   0  0  0  0  0  0  0  0  0  0  0  0
   -1.6311    1.0796    0.8656 H   0  0  0  0  0  0  0  0  0  0  0  0
   -1.4205   -0.2224    2.8619 H   0  0  0  0  0  0  0  0  0  0  0  0
    0.0140    0.0961    3.9038 H   0  0  0  0  0  0  0  0  0  0  0  0
   -1.0638   -1.5066    0.8749 H   0  0  0  0  0  0  0  0  0  0  0  0
    0.6063   -1.9865    0.5170 H   0  0  0  0  0  0  0  0  0  0  0  0
  1  2  1  0
  1  4  1  0
  1  5  1  0
  1  6  1  0
  2  3  2  3
  2  7  1  0
  3  8  1  0
  9 10  1  0
  9 14  1  0
  9 15  1  0
 10 11  1  0
 10 16  1  0
 10 17  1  0
 11 12  1  0
 12 13  1  0
 12 18  1  0
 12 19  1  0
 13 14  1  0
 14 20  1  0
 14 21  1  0
M  RAD  1   9   2
M  END
>  <reaction>  (17) 
rmg_rxn_16467

>  <mol_properties>  (17) 
{"1": {"label": "*0", "atom_type": "Cd"}, "2": {"label": "*1", "atom_type": "N3d"}, "7": {"label": "*2", "atom_type": "H0"}, "8": {"label": "*3", "atom_type": "Cs"}, "9": {"label": "*4", "atom_type": "Cs"}}

>  <type>  (17) 
unop_13

>  <geom_source>  (17) 
Heuristics

$$$$

     RDKit          3D

 21 20  0  0  0  0  0  0  0  0999 V2000
   -0.4584   -0.0960   -4.2868 C   0  0  0  0  0  0  0  0  0  0  0  0
   -0.4584   -0.0960   -2.7944 C   0  0  0  0  0  0  0  0  0  0  0  0
   -0.4584    0.9766   -2.1267 N   0  0  0  0  0  0  0  0  0  0  0  0
    0.4199   -0.6260   -4.6642 H   0  0  0  0  0  0  0  0  0  0  0  0
   -1.3366   -0.6260   -4.6642 H   0  0  0  0  0  0  0  0  0  0  0  0
   -0.4584    0.9246   -4.6653 H   0  0  0  0  0  0  0  0  0  0  0  0
   -0.4584   -1.0857   -2.3198 H   0  0  0  0  0  0  0  0  0  0  0  0
   -0.4584    0.7465   -0.9271 H   0  0  0  0  0  0  0  0  0  0  0  0
   -0.4584    0.4995    0.3602 C   0  0  0  0  0  3  0  0  0  0  0  0
   -0.4584   -1.0012    0.6140 C   0  0  0  0  0  0  0  0  0  0  0  0
   -0.3098   -1.2666    1.9957 O   0  0  0  0  0  0  0  0  0  0  0  0
    0.8473   -0.6745    2.5025 C   0  0  0  0  0  0  0  0  0  0  0  0
    0.8480    0.7149    2.3759 O   0  0  0  0  0  0  0  0  0  0  0  0
    0.7728    1.1058    1.0183 C   0  0  0  0  0  0  0  0  0  0  0  0
   -1.3571    0.9412    0.7949 H   0  0  0  0  0  0  0  0  0  0  0  0
   -1.3930   -1.4668    0.3041 H   0  0  0  0  0  0  0  0  0  0  0  0
    0.3640   -1.4773    0.0583 H   0  0  0  0  0  0  0  0  0  0  0  0
    1.7304   -1.0910    1.9840 H   0  0  0  0  0  0  0  0  0  0  0  0
    0.8884   -0.9024    3.5653 H   0  0  0  0  0  0  0  0  0  0  0  0
    1.6818    0.7780    0.4911 H   0  0  0  0  0  0  0  0  0  0  0  0
    0.7464    2.1946    1.0066 H   0  0  0  0  0  0  0  0  0  0  0  0
  1  2  1  0
  1  4  1  0
  1  5  1  0
  1  6  1  0
  2  3  2  3
  2  7  1  0
  3  8  1  0
  9 10  1  0
  9 14  1  0
  9 15  1  0
 10 11  1  0
 10 16  1  0
 10 17  1  0
 11 12  1  0
 12 13  1  0
 12 18  1  0
 12 19  1  0
 13 14  1  0
 14 20  1  0
 14 21  1  0
M  RAD  1   9   2
M  END
>  <reaction>  (18) 
rmg_rxn_16467

>  <mol_properties>  (18) 
{"1": {"label": "*0", "atom_type": "Cd"}, "2": {"label": "*1", "atom_type": "N3d"}, "7": {"label": "*2", "atom_type": "H0"}, "8": {"label": "*3", "atom_type": "Cs"}, "9": {"label": "*4", "atom_type": "Cs"}}

>  <type>  (18) 
unop_14

>  <geom_source>  (18) 
Heuristics

$$$$

     RDKit          3D

 21 20  0  0  0  0  0  0  0  0999 V2000
   -0.7265   -0.4291   -4.1822 C   0  0  0  0  0  0  0  0  0  0  0  0
   -0.7265   -0.4291   -2.6898 C   0  0  0  0  0  0  0  0  0  0  0  0
   -0.7265    0.6435   -2.0221 N   0  0  0  0  0  0  0  0  0  0  0  0
    0.1518   -0.9591   -4.5596 H   0  0  0  0  0  0  0  0  0  0  0  0
   -1.6047   -0.9591   -4.5596 H   0  0  0  0  0  0  0  0  0  0  0  0
   -0.7265    0.5915   -4.5608 H   0  0  0  0  0  0  0  0  0  0  0  0
   -0.7265   -1.4188   -2.2152 H   0  0  0  0  0  0  0  0  0  0  0  0
   -0.7265    0.4134   -0.8226 H   0  0  0  0  0  0  0  0  0  0  0  0
   -0.7265    0.1664    0.4648 C   0  0  0  0  0  3  0  0  0  0  0  0
   -0.0135   -1.1467    0.7546 C   0  0  0  0  0  0  0  0  0  0  0  0
    0.4828   -1.1552    2.0794 O   0  0  0  0  0  0  0  0  0  0  0  0
    1.3258   -0.0678    2.3103 C   0  0  0  0  0  0  0  0  0  0  0  0
    0.6857    1.1612    2.1477 O   0  0  0  0  0  0  0  0  0  0  0  0
    0.2023    1.3164    0.8272 C   0  0  0  0  0  0  0  0  0  0  0  0
   -1.6335    0.2280    1.0691 H   0  0  0  0  0  0  0  0  0  0  0  0
   -0.6821   -2.0017    0.6648 H   0  0  0  0  0  0  0  0  0  0  0  0
    0.8203   -1.2863    0.0495 H   0  0  0  0  0  0  0  0  0  0  0  0
    2.1929   -0.1236    1.6269 H   0  0  0  0  0  0  0  0  0  0  0  0
    1.6539   -0.1270    3.3457 H   0  0  0  0  0  0  0  0  0  0  0  0
    1.0512    1.3501    0.1272 H   0  0  0  0  0  0  0  0  0  0  0  0
   -0.3072    2.2784    0.7910 H   0  0  0  0  0  0  0  0  0  0  0  0
  1  2  1  0
  1  4  1  0
  1  5  1  0
  1  6  1  0
  2  3  2  3
  2  7  1  0
  3  8  1  0
  9 10  1  0
  9 14  1  0
  9 15  1  0
 10 11  1  0
 10 16  1  0
 10 17  1  0
 11 12  1  0
 12 13  1  0
 12 18  1  0
 12 19  1  0
 13 14  1  0
 14 20  1  0
 14 21  1  0
M  RAD  1   9   2
M  END
>  <reaction>  (19) 
rmg_rxn_16467

>  <mol_properties>  (19) 
{"1": {"label": "*0", "atom_type": "Cd"}, "2": {"label": "*1", "atom_type": "N3d"}, "7": {"label": "*2", "atom_type": "H0"}, "8": {"label": "*3", "atom_type": "Cs"}, "9": {"label": "*4", "atom_type": "Cs"}}

>  <type>  (19) 
unop_15

>  <geom_source>  (19) 
gaussian_log

$$$$
