
     RDKit          3D

  9  8  0  0  0  0  0  0  0  0999 V2000
   -1.0434   -0.0834    0.0221 C   0  0  0  0  0  0  0  0  0  0  0  0
    0.4680   -0.2131    0.0785 C   0  0  0  0  0  0  0  0  0  0  0  0
    0.9450   -1.3136   -0.7058 N   0  0  0  0  0  2  0  0  0  0  0  0
   -1.5170   -0.9919    0.3960 H   0  0  0  0  0  0  0  0  0  0  0  0
   -1.3864    0.7592    0.6249 H   0  0  0  0  0  0  0  0  0  0  0  0
   -1.3736    0.0696   -1.0061 H   0  0  0  0  0  0  0  0  0  0  0  0
    0.8045   -0.3309    1.1214 H   0  0  0  0  0  0  0  0  0  0  0  0
    0.9463    0.7186   -0.2648 H   0  0  0  0  0  0  0  0  0  0  0  0
    1.9638   -1.3321   -0.6157 H   0  0  0  0  0  0  0  0  0  0  0  0
  1  2  1  0
  1  4  1  0
  1  5  1  0
  1  6  1  0
  2  3  1  0
  2  7  1  0
  2  8  1  0
  3  9  1  0
M  RAD  1   3   2
M  END
>  <reaction>  (1) 
rmg_rxn_12

>  <mol_properties>  (1) 
{"2": {"label": "donator", "atom_type": "N3s"}, "8": {"label": "d_hydrogen", "atom_type": "H0"}}

>  <type>  (1) 
r1h

$$$$

     RDKit          3D

  8  7  0  0  0  0  0  0  0  0999 V2000
    0.8136   -0.0249    0.0404 C   0  0  0  0  0  0  0  0  0  0  0  0
   -0.7034   -0.1038   -0.0095 C   0  0  0  0  0  0  0  0  0  0  0  0
   -1.5481    1.4368   -0.3594 S   0  0  0  0  0  1  0  0  0  0  0  0
    1.1410    0.6704    0.8138 H   0  0  0  0  0  0  0  0  0  0  0  0
    1.2160    0.3193   -0.9127 H   0  0  0  0  0  0  0  0  0  0  0  0
    1.2398   -1.0069    0.2586 H   0  0  0  0  0  0  0  0  0  0  0  0
   -1.1164   -0.4724    0.9353 H   0  0  0  0  0  0  0  0  0  0  0  0
   -1.0424   -0.8185   -0.7666 H   0  0  0  0  0  0  0  0  0  0  0  0
  1  2  1  0
  1  4  1  0
  1  5  1  0
  1  6  1  0
  2  3  1  0
  2  7  1  0
  2  8  1  0
M  RAD  1   3   2
M  END
>  <reaction>  (2) 
rmg_rxn_12

>  <mol_properties>  (2) 
{"2": {"label": "acceptor", "atom_type": "S2s"}}

>  <type>  (2) 
r2

$$$$

     RDKit          3D

  9  8  0  0  0  0  0  0  0  0999 V2000
   -0.8818   -0.3578    0.1297 C   0  0  0  0  0  0  0  0  0  0  0  0
    0.6153   -0.3021   -0.1188 C   0  0  0  0  0  0  0  0  0  0  0  0
    1.5354   -1.7170    0.5545 S   0  0  0  0  0  0  0  0  0  0  0  0
   -1.1018   -0.3317    1.1984 H   0  0  0  0  0  0  0  0  0  0  0  0
   -1.3114   -1.2723   -0.2799 H   0  0  0  0  0  0  0  0  0  0  0  0
   -1.3767    0.4976   -0.3363 H   0  0  0  0  0  0  0  0  0  0  0  0
    1.0467    0.6194    0.2718 H   0  0  0  0  0  0  0  0  0  0  0  0
    0.8295   -0.3275   -1.1882 H   0  0  0  0  0  0  0  0  0  0  0  0
    1.2306   -1.5077    1.8423 H   0  0  0  0  0  0  0  0  0  0  0  0
  1  2  1  0
  1  4  1  0
  1  5  1  0
  1  6  1  0
  2  3  1  0
  2  7  1  0
  2  8  1  0
  3  9  1  0
M  END
>  <reaction>  (3) 
rmg_rxn_12

>  <mol_properties>  (3) 
{"2": {"label": "acceptor", "atom_type": "S2s"}, "8": {"label": "a_hydrogen", "atom_type": "H0"}}

>  <type>  (3) 
r2h

$$$$

     RDKit          3D

 17 15  0  0  0  0  0  0  0  0999 V2000
    0.5511   -1.9821    1.4137 C   0  0  0  0  0  0  0  0  0  0  0  0
    0.5672   -0.5910    2.0258 C   0  0  0  0  0  0  0  0  0  0  0  0
   -0.6624    0.5444    1.3277 S   0  0  0  0  0  1  0  0  0  0  0  0
    0.8091   -1.9420    0.3540 H   0  0  0  0  0  0  0  0  0  0  0  0
   -0.4357   -2.4370    1.5071 H   0  0  0  0  0  0  0  0  0  0  0  0
    1.2793   -2.6274    1.9110 H   0  0  0  0  0  0  0  0  0  0  0  0
    1.5536   -0.1349    1.9360 H   0  0  0  0  0  0  0  0  0  0  0  0
    0.3343   -0.6367    3.0918 H   0  0  0  0  0  0  0  0  0  0  0  0
   -0.1621   -0.1803   -3.4963 C   0  0  0  0  0  0  0  0  0  0  0  0
   -0.5790   -0.0302   -2.0361 C   0  0  0  0  0  0  0  0  0  0  0  0
    0.4884    0.4663   -1.2434 N   0  0  0  0  0  2  0  0  0  0  0  0
    0.6744   -0.8730   -3.5889 H   0  0  0  0  0  0  0  0  0  0  0  0
   -0.9965   -0.5646   -4.0839 H   0  0  0  0  0  0  0  0  0  0  0  0
    0.1402    0.7809   -3.9119 H   0  0  0  0  0  0  0  0  0  0  0  0
   -0.9142   -0.9920   -1.6209 H   0  0  0  0  0  0  0  0  0  0  0  0
   -1.4427    0.6454   -1.9441 H   0  0  0  0  0  0  0  0  0  0  0  0
    0.0410    0.6319   -0.0329 H   0  0  0  0  0  0  0  0  0  0  0  0
  1  2  1  0
  1  4  1  0
  1  5  1  0
  1  6  1  0
  2  3  1  0
  2  7  1  0
  2  8  1  0
  9 10  1  0
  9 12  1  0
  9 13  1  0
  9 14  1  0
 10 11  1  0
 10 15  1  0
 10 16  1  0
 11 17  1  0
M  RAD  2   3   2  11   2
M  END
>  <reaction>  (4) 
rmg_rxn_12

>  <mol_properties>  (4) 
{"1": {"label": "*4", "atom_type": "Cs"}, "2": {"label": "*3", "atom_type": "S2s"}, "9": {"label": "*0", "atom_type": "Cs"}, "10": {"label": "*1", "atom_type": "N3s"}, "16": {"label": "*2", "atom_type": "H0"}}

>  <type>  (4) 
ts

$$$$

     RDKit          3D

 17 15  0  0  0  0  0  0  0  0999 V2000
    2.1710    0.1399    1.7803 C   0  0  0  0  0  0  0  0  0  0  0  0
    0.9468    1.0380    1.7472 C   0  0  0  0  0  0  0  0  0  0  0  0
   -0.6156    0.1575    1.4550 S   0  0  0  0  0  1  0  0  0  0  0  0
    2.3209   -0.3520    0.8175 H   0  0  0  0  0  0  0  0  0  0  0  0
    2.0664   -0.6343    2.5408 H   0  0  0  0  0  0  0  0  0  0  0  0
    3.0665    0.7255    2.0014 H   0  0  0  0  0  0  0  0  0  0  0  0
    1.0546    1.8255    1.0016 H   0  0  0  0  0  0  0  0  0  0  0  0
    0.8023    1.5278    2.7113 H   0  0  0  0  0  0  0  0  0  0  0  0
   -0.6156   -0.9309   -3.4280 C   0  0  0  0  0  0  0  0  0  0  0  0
   -0.6156   -0.9309   -1.9100 C   0  0  0  0  0  0  0  0  0  0  0  0
   -0.6156    0.3966   -1.3702 N   0  0  0  0  0  2  0  0  0  0  0  0
    0.2667   -0.4145   -3.8081 H   0  0  0  0  0  0  0  0  0  0  0  0
   -0.6156   -1.9498   -3.8191 H   0  0  0  0  0  0  0  0  0  0  0  0
   -1.4978   -0.4145   -3.8081 H   0  0  0  0  0  0  0  0  0  0  0  0
    0.2567   -1.4846   -1.5261 H   0  0  0  0  0  0  0  0  0  0  0  0
   -1.4878   -1.4846   -1.5261 H   0  0  0  0  0  0  0  0  0  0  0  0
   -0.6156    0.2931   -0.1470 H   0  0  0  0  0  0  0  0  0  0  0  0
  1  2  1  0
  1  4  1  0
  1  5  1  0
  1  6  1  0
  2  3  1  0
  2  7  1  0
  2  8  1  0
  9 10  1  0
  9 12  1  0
  9 13  1  0
  9 14  1  0
 10 11  1  0
 10 15  1  0
 10 16  1  0
 11 17  1  0
M  RAD  2   3   2  11   2
M  END
>  <reaction>  (5) 
rmg_rxn_12

>  <mol_properties>  (5) 
{"1": {"label": "*4", "atom_type": "Cs"}, "2": {"label": "*3", "atom_type": "S2s"}, "9": {"label": "*0", "atom_type": "Cs"}, "10": {"label": "*1", "atom_type": "N3s"}, "16": {"label": "*2", "atom_type": "H0"}}

>  <type>  (5) 
unop_1

>  <geom_source>  (5) 
Heuristics

$$$$

     RDKit          3D

 17 15  0  0  0  0  0  0  0  0999 V2000
   -0.0810   -1.8993    1.3405 C   0  0  0  0  0  0  0  0  0  0  0  0
    0.7684   -0.6781    1.6463 C   0  0  0  0  0  0  0  0  0  0  0  0
   -0.1336    0.8970    1.5620 S   0  0  0  0  0  1  0  0  0  0  0  0
   -0.4593   -1.8658    0.3172 H   0  0  0  0  0  0  0  0  0  0  0  0
   -0.9367   -1.9578    2.0136 H   0  0  0  0  0  0  0  0  0  0  0  0
    0.5105   -2.8112    1.4504 H   0  0  0  0  0  0  0  0  0  0  0  0
    1.6358   -0.6254    0.9886 H   0  0  0  0  0  0  0  0  0  0  0  0
    1.1446   -0.7171    2.6696 H   0  0  0  0  0  0  0  0  0  0  0  0
   -0.1336   -0.1914   -3.3210 C   0  0  0  0  0  0  0  0  0  0  0  0
   -0.1336   -0.1914   -1.8030 C   0  0  0  0  0  0  0  0  0  0  0  0
   -0.1336    1.1361   -1.2633 N   0  0  0  0  0  2  0  0  0  0  0  0
    0.7486    0.3250   -3.7011 H   0  0  0  0  0  0  0  0  0  0  0  0
   -0.1336   -1.2103   -3.7121 H   0  0  0  0  0  0  0  0  0  0  0  0
   -1.0158    0.3250   -3.7011 H   0  0  0  0  0  0  0  0  0  0  0  0
    0.7386   -0.7451   -1.4191 H   0  0  0  0  0  0  0  0  0  0  0  0
   -1.0059   -0.7451   -1.4191 H   0  0  0  0  0  0  0  0  0  0  0  0
   -0.1336    1.0326   -0.0401 H   0  0  0  0  0  0  0  0  0  0  0  0
  1  2  1  0
  1  4  1  0
  1  5  1  0
  1  6  1  0
  2  3  1  0
  2  7  1  0
  2  8  1  0
  9 10  1  0
  9 12  1  0
  9 13  1  0
  9 14  1  0
 10 11  1  0
 10 15  1  0
 10 16  1  0
 11 17  1  0
M  RAD  2   3   2  11   2
M  END
>  <reaction>  (6) 
rmg_rxn_12

>  <mol_properties>  (6) 
{"1": {"label": "*4", "atom_type": "Cs"}, "2": {"label": "*3", "atom_type": "S2s"}, "9": {"label": "*0", "atom_type": "Cs"}, "10": {"label": "*1", "atom_type": "N3s"}, "16": {"label": "*2", "atom_type": "H0"}}

>  <type>  (6) 
unop_2

>  <geom_source>  (6) 
Heuristics

$$$$

     RDKit          3D

 17 15  0  0  0  0  0  0  0  0999 V2000
    1.9387    1.2871    1.6533 C   0  0  0  0  0  0  0  0  0  0  0  0
    0.4327    1.3981    1.8149 C   0  0  0  0  0  0  0  0  0  0  0  0
   -0.4693   -0.1404    1.4670 S   0  0  0  0  0  1  0  0  0  0  0  0
    2.2047    1.0524    0.6211 H   0  0  0  0  0  0  0  0  0  0  0  0
    2.3426    0.5010    2.2918 H   0  0  0  0  0  0  0  0  0  0  0  0
    2.4202    2.2315    1.9180 H   0  0  0  0  0  0  0  0  0  0  0  0
    0.0264    2.1955    1.1930 H   0  0  0  0  0  0  0  0  0  0  0  0
    0.1725    1.6337    2.8479 H   0  0  0  0  0  0  0  0  0  0  0  0
   -0.4693   -1.2288   -3.4160 C   0  0  0  0  0  0  0  0  0  0  0  0
   -0.4693   -1.2288   -1.8980 C   0  0  0  0  0  0  0  0  0  0  0  0
   -0.4693    0.0987   -1.3582 N   0  0  0  0  0  2  0  0  0  0  0  0
    0.4129   -0.7123   -3.7960 H   0  0  0  0  0  0  0  0  0  0  0  0
   -0.4693   -2.2477   -3.8071 H   0  0  0  0  0  0  0  0  0  0  0  0
   -1.3516   -0.7123   -3.7960 H   0  0  0  0  0  0  0  0  0  0  0  0
    0.4029   -1.7825   -1.5141 H   0  0  0  0  0  0  0  0  0  0  0  0
   -1.3416   -1.7825   -1.5141 H   0  0  0  0  0  0  0  0  0  0  0  0
   -0.4693   -0.0048   -0.1350 H   0  0  0  0  0  0  0  0  0  0  0  0
  1  2  1  0
  1  4  1  0
  1  5  1  0
  1  6  1  0
  2  3  1  0
  2  7  1  0
  2  8  1  0
  9 10  1  0
  9 12  1  0
  9 13  1  0
  9 14  1  0
 10 11  1  0
 10 15  1  0
 10 16  1  0
 11 17  1  0
M  RAD  2   3   2  11   2
M  END
>  <reaction>  (7) 
rmg_rxn_12

>  <mol_properties>  (7) 
{"1": {"label": "*4", "atom_type": "Cs"}, "2": {"label": "*3", "atom_type": "S2s"}, "9": {"label": "*0", "atom_type": "Cs"}, "10": {"label": "*1", "atom_type": "N3s"}, "16": {"label": "*2", "atom_type": "H0"}}

>  <type>  (7) 
unop_3

>  <geom_source>  (7) 
Heuristics

$$$$

     RDKit          3D

 17 15  0  0  0  0  0  0  0  0999 V2000
   -2.0170   -0.0467    0.7588 C   0  0  0  0  0  0  0  0  0  0  0  0
   -0.9721   -0.4358    1.7898 C   0  0  0  0  0  0  0  0  0  0  0  0
    0.5903    0.4814    1.6497 S   0  0  0  0  0  1  0  0  0  0  0  0
   -1.6701   -0.2684   -0.2521 H   0  0  0  0  0  0  0  0  0  0  0  0
   -2.2394    1.0194    0.8118 H   0  0  0  0  0  0  0  0  0  0  0  0
   -2.9422   -0.6033    0.9262 H   0  0  0  0  0  0  0  0  0  0  0  0
   -0.7603   -1.5042    1.7539 H   0  0  0  0  0  0  0  0  0  0  0  0
   -1.3243   -0.2130    2.7981 H   0  0  0  0  0  0  0  0  0  0  0  0
    0.5903   -0.6071   -3.2332 C   0  0  0  0  0  0  0  0  0  0  0  0
    0.5903   -0.6071   -1.7153 C   0  0  0  0  0  0  0  0  0  0  0  0
    0.5903    0.7205   -1.1755 N   0  0  0  0  0  2  0  0  0  0  0  0
    1.4725   -0.0906   -3.6133 H   0  0  0  0  0  0  0  0  0  0  0  0
    0.5903   -1.6259   -3.6243 H   0  0  0  0  0  0  0  0  0  0  0  0
   -0.2919   -0.0906   -3.6133 H   0  0  0  0  0  0  0  0  0  0  0  0
    1.4625   -1.1608   -1.3313 H   0  0  0  0  0  0  0  0  0  0  0  0
   -0.2819   -1.1608   -1.3313 H   0  0  0  0  0  0  0  0  0  0  0  0
    0.5903    0.6170    0.0477 H   0  0  0  0  0  0  0  0  0  0  0  0
  1  2  1  0
  1  4  1  0
  1  5  1  0
  1  6  1  0
  2  3  1  0
  2  7  1  0
  2  8  1  0
  9 10  1  0
  9 12  1  0
  9 13  1  0
  9 14  1  0
 10 11  1  0
 10 15  1  0
 10 16  1  0
 11 17  1  0
M  RAD  2   3   2  11   2
M  END
>  <reaction>  (8) 
rmg_rxn_12

>  <mol_properties>  (8) 
{"1": {"label": "*4", "atom_type": "Cs"}, "2": {"label": "*3", "atom_type": "S2s"}, "9": {"label": "*0", "atom_type": "Cs"}, "10": {"label": "*1", "atom_type": "N3s"}, "16": {"label": "*2", "atom_type": "H0"}}

>  <type>  (8) 
unop_4

>  <geom_source>  (8) 
Heuristics

$$$$

     RDKit          3D

 17 15  0  0  0  0  0  0  0  0999 V2000
    1.0488    2.1909    1.3692 C   0  0  0  0  0  0  0  0  0  0  0  0
   -0.1745    1.4495    1.8792 C   0  0  0  0  0  0  0  0  0  0  0  0
   -0.1745   -0.3299    1.5109 S   0  0  0  0  0  1  0  0  0  0  0  0
    1.1068    2.1464    0.2802 H   0  0  0  0  0  0  0  0  0  0  0  0
    1.9641    1.7573    1.7727 H   0  0  0  0  0  0  0  0  0  0  0  0
    1.0048    3.2430    1.6606 H   0  0  0  0  0  0  0  0  0  0  0  0
   -1.0933    1.8911    1.4939 H   0  0  0  0  0  0  0  0  0  0  0  0
   -0.2281    1.4980    2.9678 H   0  0  0  0  0  0  0  0  0  0  0  0
   -0.1745   -1.4183   -3.3720 C   0  0  0  0  0  0  0  0  0  0  0  0
   -0.1745   -1.4183   -1.8541 C   0  0  0  0  0  0  0  0  0  0  0  0
   -0.1745   -0.0908   -1.3143 N   0  0  0  0  0  2  0  0  0  0  0  0
    0.7077   -0.9018   -3.7521 H   0  0  0  0  0  0  0  0  0  0  0  0
   -0.1745   -2.4372   -3.7631 H   0  0  0  0  0  0  0  0  0  0  0  0
   -1.0567   -0.9018   -3.7521 H   0  0  0  0  0  0  0  0  0  0  0  0
    0.6977   -1.9720   -1.4701 H   0  0  0  0  0  0  0  0  0  0  0  0
   -1.0468   -1.9720   -1.4701 H   0  0  0  0  0  0  0  0  0  0  0  0
   -0.1745   -0.1943   -0.0911 H   0  0  0  0  0  0  0  0  0  0  0  0
  1  2  1  0
  1  4  1  0
  1  5  1  0
  1  6  1  0
  2  3  1  0
  2  7  1  0
  2  8  1  0
  9 10  1  0
  9 12  1  0
  9 13  1  0
  9 14  1  0
 10 11  1  0
 10 15  1  0
 10 16  1  0
 11 17  1  0
M  RAD  2   3   2  11   2
M  END
>  <reaction>  (9) 
rmg_rxn_12

>  <mol_properties>  (9) 
{"1": {"label": "*4", "atom_type": "Cs"}, "2": {"label": "*3", "atom_type": "S2s"}, "9": {"label": "*0", "atom_type": "Cs"}, "10": {"label": "*1", "atom_type": "N3s"}, "16": {"label": "*2", "atom_type": "H0"}}

>  <type>  (9) 
unop_5

>  <geom_source>  (9) 
Heuristics

$$$$

     RDKit          3D

 17 15  0  0  0  0  0  0  0  0999 V2000
   -1.9476    0.9365    0.7930 C   0  0  0  0  0  0  0  0  0  0  0  0
   -1.1861    0.1530    1.8478 C   0  0  0  0  0  0  0  0  0  0  0  0
    0.6179    0.1713    1.6317 S   0  0  0  0  0  1  0  0  0  0  0  0
   -1.7958    0.5064   -0.1986 H   0  0  0  0  0  0  0  0  0  0  0  0
   -1.6164    1.9748    0.7635 H   0  0  0  0  0  0  0  0  0  0  0  0
   -3.0190    0.9194    1.0062 H   0  0  0  0  0  0  0  0  0  0  0  0
   -1.5270   -0.8811    1.8946 H   0  0  0  0  0  0  0  0  0  0  0  0
   -1.3421    0.5864    2.8368 H   0  0  0  0  0  0  0  0  0  0  0  0
    0.6179   -0.9172   -3.2513 C   0  0  0  0  0  0  0  0  0  0  0  0
    0.6179   -0.9172   -1.7333 C   0  0  0  0  0  0  0  0  0  0  0  0
    0.6179    0.4104   -1.1936 N   0  0  0  0  0  2  0  0  0  0  0  0
    1.5002   -0.4007   -3.6314 H   0  0  0  0  0  0  0  0  0  0  0  0
    0.6179   -1.9361   -3.6424 H   0  0  0  0  0  0  0  0  0  0  0  0
   -0.2643   -0.4007   -3.6314 H   0  0  0  0  0  0  0  0  0  0  0  0
    1.4902   -1.4709   -1.3494 H   0  0  0  0  0  0  0  0  0  0  0  0
   -0.2543   -1.4709   -1.3494 H   0  0  0  0  0  0  0  0  0  0  0  0
    0.6179    0.3069    0.0296 H   0  0  0  0  0  0  0  0  0  0  0  0
  1  2  1  0
  1  4  1  0
  1  5  1  0
  1  6  1  0
  2  3  1  0
  2  7  1  0
  2  8  1  0
  9 10  1  0
  9 12  1  0
  9 13  1  0
  9 14  1  0
 10 11  1  0
 10 15  1  0
 10 16  1  0
 11 17  1  0
M  RAD  2   3   2  11   2
M  END
>  <reaction>  (10) 
rmg_rxn_12

>  <mol_properties>  (10) 
{"1": {"label": "*4", "atom_type": "Cs"}, "2": {"label": "*3", "atom_type": "S2s"}, "9": {"label": "*0", "atom_type": "Cs"}, "10": {"label": "*1", "atom_type": "N3s"}, "16": {"label": "*2", "atom_type": "H0"}}

>  <type>  (10) 
unop_6

>  <geom_source>  (10) 
Heuristics

$$$$

     RDKit          3D

 17 15  0  0  0  0  0  0  0  0999 V2000
   -1.3638    1.8642    0.9000 C   0  0  0  0  0  0  0  0  0  0  0  0
   -1.0811    0.7511    1.8937 C   0  0  0  0  0  0  0  0  0  0  0  0
    0.4813   -0.1294    1.6015 S   0  0  0  0  0  1  0  0  0  0  0  0
   -1.4690    1.4678   -0.1114 H   0  0  0  0  0  0  0  0  0  0  0  0
   -0.5547    2.5950    0.8923 H   0  0  0  0  0  0  0  0  0  0  0  0
   -2.2931    2.3775    1.1581 H   0  0  0  0  0  0  0  0  0  0  0  0
   -1.8961    0.0279    1.9192 H   0  0  0  0  0  0  0  0  0  0  0  0
   -0.9779    1.1526    2.9028 H   0  0  0  0  0  0  0  0  0  0  0  0
    0.4813   -1.2179   -3.2815 C   0  0  0  0  0  0  0  0  0  0  0  0
    0.4813   -1.2179   -1.7635 C   0  0  0  0  0  0  0  0  0  0  0  0
    0.4813    0.1097   -1.2238 N   0  0  0  0  0  2  0  0  0  0  0  0
    1.3635   -0.7014   -3.6616 H   0  0  0  0  0  0  0  0  0  0  0  0
    0.4813   -2.2368   -3.6726 H   0  0  0  0  0  0  0  0  0  0  0  0
   -0.4010   -0.7014   -3.6616 H   0  0  0  0  0  0  0  0  0  0  0  0
    1.3535   -1.7716   -1.3796 H   0  0  0  0  0  0  0  0  0  0  0  0
   -0.3910   -1.7716   -1.3796 H   0  0  0  0  0  0  0  0  0  0  0  0
    0.4813    0.0061   -0.0006 H   0  0  0  0  0  0  0  0  0  0  0  0
  1  2  1  0
  1  4  1  0
  1  5  1  0
  1  6  1  0
  2  3  1  0
  2  7  1  0
  2  8  1  0
  9 10  1  0
  9 12  1  0
  9 13  1  0
  9 14  1  0
 10 11  1  0
 10 15  1  0
 10 16  1  0
 11 17  1  0
M  RAD  2   3   2  11   2
M  END
>  <reaction>  (11) 
rmg_rxn_12

>  <mol_properties>  (11) 
{"1": {"label": "*4", "atom_type": "Cs"}, "2": {"label": "*3", "atom_type": "S2s"}, "9": {"label": "*0", "atom_type": "Cs"}, "10": {"label": "*1", "atom_type": "N3s"}, "16": {"label": "*2", "atom_type": "H0"}}

>  <type>  (11) 
unop_7

>  <geom_source>  (11) 
Heuristics

$$$$

     RDKit          3D

 17 15  0  0  0  0  0  0  0  0999 V2000
    1.8147   -0.9280    1.7448 C   0  0  0  0  0  0  0  0  0  0  0  0
    1.2083    0.4632    1.6894 C   0  0  0  0  0  0  0  0  0  0  0  0
   -0.5958    0.4815    1.4733 S   0  0  0  0  0  1  0  0  0  0  0  0
    1.6555   -1.4613    0.8058 H   0  0  0  0  0  0  0  0  0  0  0  0
    1.3674   -1.5169    2.5459 H   0  0  0  0  0  0  0  0  0  0  0  0
    2.8917   -0.8668    1.9181 H   0  0  0  0  0  0  0  0  0  0  0  0
    1.6655    1.0625    0.9024 H   0  0  0  0  0  0  0  0  0  0  0  0
    1.3710    0.9920    2.6297 H   0  0  0  0  0  0  0  0  0  0  0  0
   -0.5958   -0.6069   -3.4097 C   0  0  0  0  0  0  0  0  0  0  0  0
   -0.5958   -0.6069   -1.8917 C   0  0  0  0  0  0  0  0  0  0  0  0
   -0.5958    0.7206   -1.3519 N   0  0  0  0  0  2  0  0  0  0  0  0
    0.2864   -0.0904   -3.7897 H   0  0  0  0  0  0  0  0  0  0  0  0
   -0.5958   -1.6258   -3.8008 H   0  0  0  0  0  0  0  0  0  0  0  0
   -1.4781   -0.0904   -3.7897 H   0  0  0  0  0  0  0  0  0  0  0  0
    0.2764   -1.1606   -1.5078 H   0  0  0  0  0  0  0  0  0  0  0  0
   -1.4681   -1.1606   -1.5078 H   0  0  0  0  0  0  0  0  0  0  0  0
   -0.5958    0.6171   -0.1287 H   0  0  0  0  0  0  0  0  0  0  0  0
  1  2  1  0
  1  4  1  0
  1  5  1  0
  1  6  1  0
  2  3  1  0
  2  7  1  0
  2  8  1  0
  9 10  1  0
  9 12  1  0
  9 13  1  0
  9 14  1  0
 10 11  1  0
 10 15  1  0
 10 16  1  0
 11 17  1  0
M  RAD  2   3   2  11   2
M  END
>  <reaction>  (12) 
rmg_rxn_12

>  <mol_properties>  (12) 
{"1": {"label": "*4", "atom_type": "Cs"}, "2": {"label": "*3", "atom_type": "S2s"}, "9": {"label": "*0", "atom_type": "Cs"}, "10": {"label": "*1", "atom_type": "N3s"}, "16": {"label": "*2", "atom_type": "H0"}}

>  <type>  (12) 
unop_8

>  <geom_source>  (12) 
Heuristics

$$$$

     RDKit          3D

 17 15  0  0  0  0  0  0  0  0999 V2000
   -1.6970   -0.9081    0.8345 C   0  0  0  0  0  0  0  0  0  0  0  0
   -0.4726   -0.8430    1.7305 C   0  0  0  0  0  0  0  0  0  0  0  0
    0.4295    0.7321    1.6462 S   0  0  0  0  0  1  0  0  0  0  0  0
   -1.4171   -0.8198   -0.2167 H   0  0  0  0  0  0  0  0  0  0  0  0
   -2.3931   -0.1016    1.0661 H   0  0  0  0  0  0  0  0  0  0  0  0
   -2.2140   -1.8617    0.9657 H   0  0  0  0  0  0  0  0  0  0  0  0
    0.2177   -1.6586    1.5161 H   0  0  0  0  0  0  0  0  0  0  0  0
   -0.7578   -0.9328    2.7797 H   0  0  0  0  0  0  0  0  0  0  0  0
    0.4295   -0.3564   -3.2368 C   0  0  0  0  0  0  0  0  0  0  0  0
    0.4295   -0.3564   -1.7188 C   0  0  0  0  0  0  0  0  0  0  0  0
    0.4295    0.9712   -1.1791 N   0  0  0  0  0  2  0  0  0  0  0  0
    1.3117    0.1601   -3.6169 H   0  0  0  0  0  0  0  0  0  0  0  0
    0.4295   -1.3752   -3.6279 H   0  0  0  0  0  0  0  0  0  0  0  0
   -0.4527    0.1601   -3.6169 H   0  0  0  0  0  0  0  0  0  0  0  0
    1.3017   -0.9101   -1.3349 H   0  0  0  0  0  0  0  0  0  0  0  0
   -0.4427   -0.9101   -1.3349 H   0  0  0  0  0  0  0  0  0  0  0  0
    0.4295    0.8677    0.0441 H   0  0  0  0  0  0  0  0  0  0  0  0
  1  2  1  0
  1  4  1  0
  1  5  1  0
  1  6  1  0
  2  3  1  0
  2  7  1  0
  2  8  1  0
  9 10  1  0
  9 12  1  0
  9 13  1  0
  9 14  1  0
 10 11  1  0
 10 15  1  0
 10 16  1  0
 11 17  1  0
M  RAD  2   3   2  11   2
M  END
>  <reaction>  (13) 
rmg_rxn_12

>  <mol_properties>  (13) 
{"1": {"label": "*4", "atom_type": "Cs"}, "2": {"label": "*3", "atom_type": "S2s"}, "9": {"label": "*0", "atom_type": "Cs"}, "10": {"label": "*1", "atom_type": "N3s"}, "16": {"label": "*2", "atom_type": "H0"}}

>  <type>  (13) 
unop_9

>  <geom_source>  (13) 
Heuristics

$$$$

     RDKit          3D

 17 15  0  0  0  0  0  0  0  0999 V2000
    0.9872   -1.6743    1.5896 C   0  0  0  0  0  0  0  0  0  0  0  0
    1.1435   -0.1649    1.6516 C   0  0  0  0  0  0  0  0  0  0  0  0
   -0.4189    0.7522    1.5115 S   0  0  0  0  0  1  0  0  0  0  0  0
    0.5833   -1.9860    0.6247 H   0  0  0  0  0  0  0  0  0  0  0  0
    0.3107   -2.0287    2.3677 H   0  0  0  0  0  0  0  0  0  0  0  0
    1.9555   -2.1626    1.7221 H   0  0  0  0  0  0  0  0  0  0  0  0
    1.8339    0.1925    0.8878 H   0  0  0  0  0  0  0  0  0  0  0  0
    1.5483    0.1410    2.6173 H   0  0  0  0  0  0  0  0  0  0  0  0
   -0.4189   -0.3362   -3.3715 C   0  0  0  0  0  0  0  0  0  0  0  0
   -0.4189   -0.3362   -1.8535 C   0  0  0  0  0  0  0  0  0  0  0  0
   -0.4189    0.9913   -1.3137 N   0  0  0  0  0  2  0  0  0  0  0  0
    0.4633    0.1802   -3.7516 H   0  0  0  0  0  0  0  0  0  0  0  0
   -0.4189   -1.3551   -3.7626 H   0  0  0  0  0  0  0  0  0  0  0  0
   -1.3012    0.1802   -3.7516 H   0  0  0  0  0  0  0  0  0  0  0  0
    0.4533   -0.8899   -1.4696 H   0  0  0  0  0  0  0  0  0  0  0  0
   -1.2912   -0.8899   -1.4696 H   0  0  0  0  0  0  0  0  0  0  0  0
   -0.4189    0.8878   -0.0905 H   0  0  0  0  0  0  0  0  0  0  0  0
  1  2  1  0
  1  4  1  0
  1  5  1  0
  1  6  1  0
  2  3  1  0
  2  7  1  0
  2  8  1  0
  9 10  1  0
  9 12  1  0
  9 13  1  0
  9 14  1  0
 10 11  1  0
 10 15  1  0
 10 16  1  0
 11 17  1  0
M  RAD  2   3   2  11   2
M  END
>  <reaction>  (14) 
rmg_rxn_12

>  <mol_properties>  (14) 
{"1": {"label": "*4", "atom_type": "Cs"}, "2": {"label": "*3", "atom_type": "S2s"}, "9": {"label": "*0", "atom_type": "Cs"}, "10": {"label": "*1", "atom_type": "N3s"}, "16": {"label": "*2", "atom_type": "H0"}}

>  <type>  (14) 
unop_10

>  <geom_source>  (14) 
Heuristics

$$$$

     RDKit          3D

 17 15  0  0  0  0  0  0  0  0999 V2000
   -0.2559    2.4025    1.0840 C   0  0  0  0  0  0  0  0  0  0  0  0
   -0.7127    1.2125    1.9097 C   0  0  0  0  0  0  0  0  0  0  0  0
    0.1893   -0.3260    1.5617 S   0  0  0  0  0  1  0  0  0  0  0  0
   -0.4288    2.2295    0.0203 H   0  0  0  0  0  0  0  0  0  0  0  0
    0.8088    2.5898    1.2255 H   0  0  0  0  0  0  0  0  0  0  0  0
   -0.8080    3.3000    1.3725 H   0  0  0  0  0  0  0  0  0  0  0  0
   -1.7806    1.0328    1.7866 H   0  0  0  0  0  0  0  0  0  0  0  0
   -0.5386    1.3911    2.9717 H   0  0  0  0  0  0  0  0  0  0  0  0
    0.1893   -1.4144   -3.3212 C   0  0  0  0  0  0  0  0  0  0  0  0
    0.1893   -1.4144   -1.8033 C   0  0  0  0  0  0  0  0  0  0  0  0
    0.1893   -0.0869   -1.2635 N   0  0  0  0  0  2  0  0  0  0  0  0
    1.0715   -0.8979   -3.7013 H   0  0  0  0  0  0  0  0  0  0  0  0
    0.1893   -2.4333   -3.7123 H   0  0  0  0  0  0  0  0  0  0  0  0
   -0.6929   -0.8979   -3.7013 H   0  0  0  0  0  0  0  0  0  0  0  0
    1.0615   -1.9681   -1.4193 H   0  0  0  0  0  0  0  0  0  0  0  0
   -0.6829   -1.9681   -1.4193 H   0  0  0  0  0  0  0  0  0  0  0  0
    0.1893   -0.1904   -0.0403 H   0  0  0  0  0  0  0  0  0  0  0  0
  1  2  1  0
  1  4  1  0
  1  5  1  0
  1  6  1  0
  2  3  1  0
  2  7  1  0
  2  8  1  0
  9 10  1  0
  9 12  1  0
  9 13  1  0
  9 14  1  0
 10 11  1  0
 10 15  1  0
 10 16  1  0
 11 17  1  0
M  RAD  2   3   2  11   2
M  END
>  <reaction>  (15) 
rmg_rxn_12

>  <mol_properties>  (15) 
{"1": {"label": "*4", "atom_type": "Cs"}, "2": {"label": "*3", "atom_type": "S2s"}, "9": {"label": "*0", "atom_type": "Cs"}, "10": {"label": "*1", "atom_type": "N3s"}, "16": {"label": "*2", "atom_type": "H0"}}

>  <type>  (15) 
unop_11

>  <geom_source>  (15) 
Heuristics

$$$$

     RDKit          3D

 17 15  0  0  0  0  0  0  0  0999 V2000
   -1.0488   -1.5782    1.0502 C   0  0  0  0  0  0  0  0  0  0  0  0
    0.1745   -0.9331    1.6776 C   0  0  0  0  0  0  0  0  0  0  0  0
    0.1745    0.8829    1.6136 S   0  0  0  0  0  1  0  0  0  0  0  0
   -1.1068   -1.3513   -0.0159 H   0  0  0  0  0  0  0  0  0  0  0  0
   -1.9641   -1.2186    1.5209 H   0  0  0  0  0  0  0  0  0  0  0  0
   -1.0048   -2.6643    1.1606 H   0  0  0  0  0  0  0  0  0  0  0  0
    1.0933   -1.3036    1.2235 H   0  0  0  0  0  0  0  0  0  0  0  0
    0.2281   -1.1638    2.7425 H   0  0  0  0  0  0  0  0  0  0  0  0
    0.1745   -0.2055   -3.2694 C   0  0  0  0  0  0  0  0  0  0  0  0
    0.1745   -0.2055   -1.7514 C   0  0  0  0  0  0  0  0  0  0  0  0
    0.1745    1.1220   -1.2116 N   0  0  0  0  0  2  0  0  0  0  0  0
    1.0567    0.3109   -3.6495 H   0  0  0  0  0  0  0  0  0  0  0  0
    0.1745   -1.2244   -3.6605 H   0  0  0  0  0  0  0  0  0  0  0  0
   -0.7077    0.3110   -3.6495 H   0  0  0  0  0  0  0  0  0  0  0  0
    1.0467   -0.7592   -1.3675 H   0  0  0  0  0  0  0  0  0  0  0  0
   -0.6977   -0.7592   -1.3675 H   0  0  0  0  0  0  0  0  0  0  0  0
    0.1745    1.0185    0.0116 H   0  0  0  0  0  0  0  0  0  0  0  0
  1  2  1  0
  1  4  1  0
  1  5  1  0
  1  6  1  0
  2  3  1  0
  2  7  1  0
  2  8  1  0
  9 10  1  0
  9 12  1  0
  9 13  1  0
  9 14  1  0
 10 11  1  0
 10 15  1  0
 10 16  1  0
 11 17  1  0
M  RAD  2   3   2  11   2
M  END
>  <reaction>  (16) 
rmg_rxn_12

>  <mol_properties>  (16) 
{"1": {"label": "*4", "atom_type": "Cs"}, "2": {"label": "*3", "atom_type": "S2s"}, "9": {"label": "*0", "atom_type": "Cs"}, "10": {"label": "*1", "atom_type": "N3s"}, "16": {"label": "*2", "atom_type": "H0"}}

>  <type>  (16) 
unop_12

>  <geom_source>  (16) 
Heuristics

$$$$

     RDKit          3D

 17 15  0  0  0  0  0  0  0  0999 V2000
   -0.0810   -1.8993    1.3405 C   0  0  0  0  0  0  0  0  0  0  0  0
    0.7684   -0.6781    1.6463 C   0  0  0  0  0  0  0  0  0  0  0  0
   -0.1336    0.8970    1.5620 S   0  0  0  0  0  1  0  0  0  0  0  0
   -0.4593   -1.8658    0.3172 H   0  0  0  0  0  0  0  0  0  0  0  0
   -0.9367   -1.9578    2.0136 H   0  0  0  0  0  0  0  0  0  0  0  0
    0.5105   -2.8112    1.4504 H   0  0  0  0  0  0  0  0  0  0  0  0
    1.6358   -0.6254    0.9887 H   0  0  0  0  0  0  0  0  0  0  0  0
    1.1446   -0.7171    2.6696 H   0  0  0  0  0  0  0  0  0  0  0  0
   -0.1336   -0.1914   -3.3210 C   0  0  0  0  0  0  0  0  0  0  0  0
   -0.1336   -0.1914   -1.8030 C   0  0  0  0  0  0  0  0  0  0  0  0
   -0.1336    1.1361   -1.2633 N   0  0  0  0  0  2  0  0  0  0  0  0
    0.7486    0.3251   -3.7011 H   0  0  0  0  0  0  0  0  0  0  0  0
   -0.1336   -1.2103   -3.7121 H   0  0  0  0  0  0  0  0  0  0  0  0
   -1.0158    0.3251   -3.7011 H   0  0  0  0  0  0  0  0  0  0  0  0
    0.7386   -0.7451   -1.4191 H   0  0  0  0  0  0  0  0  0  0  0  0
   -1.0059   -0.7451   -1.4191 H   0  0  0  0  0  0  0  0  0  0  0  0
   -0.1336    1.0326   -0.0401 H   0  0  0  0  0  0  0  0  0  0  0  0
  1  2  1  0
  1  4  1  0
  1  5  1  0
  1  6  1  0
  2  3  1  0
  2  7  1  0
  2  8  1  0
  9 10  1  0
  9 12  1  0
  9 13  1  0
  9 14  1  0
 10 11  1  0
 10 15  1  0
 10 16  1  0
 11 17  1  0
M  RAD  2   3   2  11   2
M  END
>  <reaction>  (17) 
rmg_rxn_12

>  <mol_properties>  (17) 
{"1": {"label": "*4", "atom_type": "Cs"}, "2": {"label": "*3", "atom_type": "S2s"}, "9": {"label": "*0", "atom_type": "Cs"}, "10": {"label": "*1", "atom_type": "N3s"}, "16": {"label": "*2", "atom_type": "H0"}}

>  <type>  (17) 
unop_13

>  <geom_source>  (17) 
gaussian_log

$$$$
