
     RDKit          3D

 18 17  0  0  0  0  0  0  0  0999 V2000
    2.2026   -0.7213   -0.2612 C   0  0  0  0  0  0  0  0  0  0  0  0
    1.5384    0.2638    0.6915 C   0  0  0  0  0  0  0  0  0  0  0  0
    2.2584    1.5946    0.7694 C   0  0  0  0  0  0  0  0  0  0  0  0
    2.2212    2.2185   -0.4893 O   0  0  0  0  0  0  0  0  0  0  0  0
    2.8988    3.4488   -0.5204 C   0  0  0  0  0  0  0  0  0  0  0  0
    2.7981    4.0296   -1.9118 C   0  0  0  0  0  0  0  0  0  0  0  0
    3.2294   -0.9309    0.0486 H   0  0  0  0  0  0  0  0  0  0  0  0
    2.2338   -0.3181   -1.2734 H   0  0  0  0  0  0  0  0  0  0  0  0
    1.6610   -1.6680   -0.2875 H   0  0  0  0  0  0  0  0  0  0  0  0
    1.4990   -0.1566    1.7002 H   0  0  0  0  0  0  0  0  0  0  0  0
    0.5055    0.4455    0.3835 H   0  0  0  0  0  0  0  0  0  0  0  0
    3.3038    1.4410    1.0808 H   0  0  0  0  0  0  0  0  0  0  0  0
    1.7844    2.2410    1.5226 H   0  0  0  0  0  0  0  0  0  0  0  0
    2.4596    4.1376    0.2164 H   0  0  0  0  0  0  0  0  0  0  0  0
    3.9524    3.3035   -0.2397 H   0  0  0  0  0  0  0  0  0  0  0  0
    1.7543    4.1869   -2.1856 H   0  0  0  0  0  0  0  0  0  0  0  0
    3.2472    3.3545   -2.6411 H   0  0  0  0  0  0  0  0  0  0  0  0
    3.3178    4.9878   -1.9600 H   0  0  0  0  0  0  0  0  0  0  0  0
  1  2  1  0
  1  7  1  0
  1  8  1  0
  1  9  1  0
  2  3  1  0
  2 10  1  0
  2 11  1  0
  3  4  1  0
  3 12  1  0
  3 13  1  0
  4  5  1  0
  5  6  1  0
  5 14  1  0
  5 15  1  0
  6 16  1  0
  6 17  1  0
  6 18  1  0
M  END
>  <reaction>  (1) 
rmg_rxn_337

>  <mol_properties>  (1) 
{"2": {"label": "donator", "atom_type": "Cs"}, "11": {"label": "d_hydrogen", "atom_type": "H0"}}

>  <type>  (1) 
r1h

$$$$

     RDKit          3D

 13 13  0  0  0  0  0  0  0  0999 V2000
   -1.1371    0.3608    0.3110 C   0  0  0  0  0  3  0  0  0  0  0  0
   -0.0045    1.3224    0.2943 C   0  0  0  0  0  0  0  0  0  0  0  0
    1.2245    0.6965    0.6137 O   0  0  0  0  0  0  0  0  0  0  0  0
    1.3926   -0.4921   -0.0955 C   0  0  0  0  0  0  0  0  0  0  0  0
    0.4387   -1.4537    0.2351 O   0  0  0  0  0  0  0  0  0  0  0  0
   -0.8659   -1.0349   -0.1206 C   0  0  0  0  0  0  0  0  0  0  0  0
   -2.1544    0.7285    0.3341 H   0  0  0  0  0  0  0  0  0  0  0  0
   -0.1488    2.1272    1.0165 H   0  0  0  0  0  0  0  0  0  0  0  0
    0.0825    1.7949   -0.7036 H   0  0  0  0  0  0  0  0  0  0  0  0
    1.3549   -0.2872   -1.1815 H   0  0  0  0  0  0  0  0  0  0  0  0
    2.3646   -0.8956    0.1787 H   0  0  0  0  0  0  0  0  0  0  0  0
   -1.5620   -1.7401    0.3358 H   0  0  0  0  0  0  0  0  0  0  0  0
   -0.9852   -1.1268   -1.2179 H   0  0  0  0  0  0  0  0  0  0  0  0
  1  2  1  0
  1  6  1  0
  1  7  1  0
  2  3  1  0
  2  8  1  0
  2  9  1  0
  3  4  1  0
  4  5  1  0
  4 10  1  0
  4 11  1  0
  5  6  1  0
  6 12  1  0
  6 13  1  0
M  RAD  1   1   2
M  END
>  <reaction>  (2) 
rmg_rxn_337

>  <mol_properties>  (2) 
{"0": {"label": "acceptor", "atom_type": "Cs"}}

>  <type>  (2) 
r2

$$$$

     RDKit          3D

 14 14  0  0  0  0  0  0  0  0999 V2000
   -1.1778    0.2241    0.1818 C   0  0  0  0  0  0  0  0  0  0  0  0
   -0.5633   -1.1636    0.0678 C   0  0  0  0  0  0  0  0  0  0  0  0
    0.6943   -1.1996    0.7146 O   0  0  0  0  0  0  0  0  0  0  0  0
    1.5547   -0.2288    0.2011 C   0  0  0  0  0  0  0  0  0  0  0  0
    1.0729    1.0696    0.3698 O   0  0  0  0  0  0  0  0  0  0  0  0
   -0.1607    1.2493   -0.2989 C   0  0  0  0  0  0  0  0  0  0  0  0
   -2.0927    0.2866   -0.4117 H   0  0  0  0  0  0  0  0  0  0  0  0
   -1.4303    0.4248    1.2248 H   0  0  0  0  0  0  0  0  0  0  0  0
   -1.1822   -1.9235    0.5431 H   0  0  0  0  0  0  0  0  0  0  0  0
   -0.4389   -1.4347   -0.9919 H   0  0  0  0  0  0  0  0  0  0  0  0
    1.7250   -0.4207   -0.8742 H   0  0  0  0  0  0  0  0  0  0  0  0
    2.4896   -0.3010    0.7524 H   0  0  0  0  0  0  0  0  0  0  0  0
   -0.0080    1.1481   -1.3844 H   0  0  0  0  0  0  0  0  0  0  0  0
   -0.4826    2.2695   -0.0942 H   0  0  0  0  0  0  0  0  0  0  0  0
  1  2  1  0
  1  6  1  0
  1  7  1  0
  1  8  1  0
  2  3  1  0
  2  9  1  0
  2 10  1  0
  3  4  1  0
  4  5  1  0
  4 11  1  0
  4 12  1  0
  5  6  1  0
  6 13  1  0
  6 14  1  0
M  END
>  <reaction>  (3) 
rmg_rxn_337

>  <mol_properties>  (3) 
{"0": {"label": "acceptor", "atom_type": "Cs"}, "13": {"label": "a_hydrogen", "atom_type": "H0"}}

>  <type>  (3) 
r2h

$$$$

     RDKit          3D

 31 30  0  0  0  0  0  0  0  0999 V2000
    1.0813    0.3785    0.3869 C   0  0  0  0  0  3  0  0  0  0  0  0
    2.2021   -0.4968   -0.1062 C   0  0  0  0  0  0  0  0  0  0  0  0
    3.1384    0.2753   -0.8518 O   0  0  0  0  0  0  0  0  0  0  0  0
    2.5046    0.9568   -1.8921 C   0  0  0  0  0  0  0  0  0  0  0  0
    1.5405    1.8620   -1.4483 O   0  0  0  0  0  0  0  0  0  0  0  0
    0.5020    1.1912   -0.7399 C   0  0  0  0  0  0  0  0  0  0  0  0
    1.3485    0.9723    1.2597 H   0  0  0  0  0  0  0  0  0  0  0  0
    2.7589   -0.9561    0.7091 H   0  0  0  0  0  0  0  0  0  0  0  0
    1.8101   -1.2979   -0.7510 H   0  0  0  0  0  0  0  0  0  0  0  0
    2.0347    0.2259   -2.5763 H   0  0  0  0  0  0  0  0  0  0  0  0
    3.2683    1.5286   -2.4154 H   0  0  0  0  0  0  0  0  0  0  0  0
   -0.0481    0.5433   -1.4378 H   0  0  0  0  0  0  0  0  0  0  0  0
   -0.1805    1.9631   -0.3870 H   0  0  0  0  0  0  0  0  0  0  0  0
   -1.1384   -2.3391   -1.0395 C   0  0  0  0  0  0  0  0  0  0  0  0
   -0.9897   -2.4799    0.4704 C   0  0  0  0  0  0  0  0  0  0  0  0
   -1.0006   -1.1694    1.2119 C   0  0  0  0  0  0  0  0  0  0  0  0
   -2.1202   -0.4188    0.9097 O   0  0  0  0  0  0  0  0  0  0  0  0
   -2.2742    0.7343    1.7097 C   0  0  0  0  0  0  0  0  0  0  0  0
   -3.4593    1.5222    1.2058 C   0  0  0  0  0  0  0  0  0  0  0  0
   -0.3132   -1.7663   -1.4666 H   0  0  0  0  0  0  0  0  0  0  0  0
   -2.0663   -1.8267   -1.2919 H   0  0  0  0  0  0  0  0  0  0  0  0
   -1.1473   -3.3187   -1.5189 H   0  0  0  0  0  0  0  0  0  0  0  0
   -0.0535   -2.9904    0.7130 H   0  0  0  0  0  0  0  0  0  0  0  0
   -1.7976   -3.1101    0.8585 H   0  0  0  0  0  0  0  0  0  0  0  0
    0.0362   -0.4749    0.8445 H   0  0  0  0  0  0  0  0  0  0  0  0
   -0.8574   -1.2855    2.2945 H   0  0  0  0  0  0  0  0  0  0  0  0
   -2.4184    0.4360    2.7569 H   0  0  0  0  0  0  0  0  0  0  0  0
   -1.3598    1.3395    1.6650 H   0  0  0  0  0  0  0  0  0  0  0  0
   -4.3665    0.9186    1.2471 H   0  0  0  0  0  0  0  0  0  0  0  0
   -3.2999    1.8352    0.1733 H   0  0  0  0  0  0  0  0  0  0  0  0
   -3.6067    2.4123    1.8189 H   0  0  0  0  0  0  0  0  0  0  0  0
  1  2  1  0
  1  6  1  0
  1  7  1  0
  2  3  1  0
  2  8  1  0
  2  9  1  0
  3  4  1  0
  4  5  1  0
  4 10  1  0
  4 11  1  0
  5  6  1  0
  6 12  1  0
  6 13  1  0
 14 15  1  0
 14 20  1  0
 14 21  1  0
 14 22  1  0
 15 16  1  0
 15 23  1  0
 15 24  1  0
 16 17  1  0
 16 25  1  0
 16 26  1  0
 17 18  1  0
 18 19  1  0
 18 27  1  0
 18 28  1  0
 19 29  1  0
 19 30  1  0
 19 31  1  0
M  RAD  1   1   2
M  END
>  <reaction>  (4) 
rmg_rxn_337

>  <mol_properties>  (4) 
{"0": {"label": "*3", "atom_type": "Cs"}, "1": {"label": "*4", "atom_type": "Cs"}, "15": {"label": "*1", "atom_type": "Cs"}, "16": {"label": "*0", "atom_type": "O2s"}, "24": {"label": "*2", "atom_type": "H0"}}

>  <type>  (4) 
ts

$$$$

     RDKit          3D

 31 30  0  0  0  0  0  0  0  0999 V2000
    1.4058   -0.2149   -0.4309 C   0  0  0  0  0  0  0  0  0  0  0  0
    0.9607    1.0325   -1.1808 C   0  0  0  0  0  0  0  0  0  0  0  0
    1.7157    2.1536   -0.7628 O   0  0  0  0  0  0  0  0  0  0  0  0
    1.6220    2.3401    0.6167 C   0  0  0  0  0  0  0  0  0  0  0  0
    2.1084    1.2554    1.3469 O   0  0  0  0  0  0  0  0  0  0  0  0
    1.3783    0.0775    1.0626 C   0  0  0  0  0  0  0  0  0  0  0  0
    2.4225   -0.4756   -0.7311 H   0  0  0  0  0  0  0  0  0  0  0  0
    1.1102    0.9369   -2.2553 H   0  0  0  0  0  0  0  0  0  0  0  0
   -0.1082    1.2209   -0.9975 H   0  0  0  0  0  0  0  0  0  0  0  0
    0.5673    2.5247    0.8916 H   0  0  0  0  0  0  0  0  0  0  0  0
    2.2365    3.2015    0.8690 H   0  0  0  0  0  0  0  0  0  0  0  0
    0.3387    0.1987    1.4037 H   0  0  0  0  0  0  0  0  0  0  0  0
    1.8358   -0.7227    1.6428 H   0  0  0  0  0  0  0  0  0  0  0  0
   -0.6835   -2.9585   -1.6880 C   0  0  0  0  0  0  0  0  0  0  0  0
   -0.6835   -2.9585   -0.1650 C   0  0  0  0  0  0  0  0  0  0  0  0
   -0.6835   -1.5655    0.4305 C   0  0  0  0  0  3  0  0  0  0  0  0
   -1.8665   -0.9019    0.0629 O   0  0  0  0  0  0  0  0  0  0  0  0
   -1.9372    0.4162    0.5438 C   0  0  0  0  0  0  0  0  0  0  0  0
   -3.2405    1.0340    0.0929 C   0  0  0  0  0  0  0  0  0  0  0  0
    0.1986   -2.4442   -2.0776 H   0  0  0  0  0  0  0  0  0  0  0  0
   -1.5662   -2.4488   -2.0740 H   0  0  0  0  0  0  0  0  0  0  0  0
   -0.6780   -3.9764   -2.0806 H   0  0  0  0  0  0  0  0  0  0  0  0
    0.1980   -3.4850    0.2112 H   0  0  0  0  0  0  0  0  0  0  0  0
   -1.5579   -3.4965    0.2102 H   0  0  0  0  0  0  0  0  0  0  0  0
    0.3655   -0.8874   -0.0020 H   0  0  0  0  0  0  0  0  0  0  0  0
   -0.6087   -1.6194    1.5265 H   0  0  0  0  0  0  0  0  0  0  0  0
   -1.8700    0.4191    1.6418 H   0  0  0  0  0  0  0  0  0  0  0  0
   -1.0844    0.9992    0.1659 H   0  0  0  0  0  0  0  0  0  0  0  0
   -4.0869    0.4646    0.4786 H   0  0  0  0  0  0  0  0  0  0  0  0
   -3.3013    1.0458   -0.9959 H   0  0  0  0  0  0  0  0  0  0  0  0
   -3.3182    2.0600    0.4560 H   0  0  0  0  0  0  0  0  0  0  0  0
  1  2  1  0
  1  6  1  0
  1  7  1  0
  1 25  1  0
  2  3  1  0
  2  8  1  0
  2  9  1  0
  3  4  1  0
  4  5  1  0
  4 10  1  0
  4 11  1  0
  5  6  1  0
  6 12  1  0
  6 13  1  0
 14 15  1  0
 14 20  1  0
 14 21  1  0
 14 22  1  0
 15 16  1  0
 15 23  1  0
 15 24  1  0
 16 17  1  0
 16 26  1  0
 17 18  1  0
 18 19  1  0
 18 27  1  0
 18 28  1  0
 19 29  1  0
 19 30  1  0
 19 31  1  0
M  RAD  1  16   2
M  END
>  <reaction>  (5) 
rmg_rxn_337

>  <mol_properties>  (5) 
{"0": {"label": "*3", "atom_type": "Cs"}, "1": {"label": "*4", "atom_type": "Cs"}, "15": {"label": "*1", "atom_type": "Cs"}, "16": {"label": "*0", "atom_type": "O2s"}, "24": {"label": "*2", "atom_type": "H0"}}

>  <type>  (5) 
unop_1

>  <geom_source>  (5) 
Heuristics

$$$$

     RDKit          3D

 31 30  0  0  0  0  0  0  0  0999 V2000
    1.3735    0.0025    0.4112 C   0  0  0  0  0  0  0  0  0  0  0  0
    1.7723   -0.4653   -0.9812 C   0  0  0  0  0  0  0  0  0  0  0  0
    2.4706    0.5587   -1.6631 O   0  0  0  0  0  0  0  0  0  0  0  0
    1.7149    1.7297   -1.7271 C   0  0  0  0  0  0  0  0  0  0  0  0
    1.4058    2.2475   -0.4690 O   0  0  0  0  0  0  0  0  0  0  0  0
    0.6399    1.3304    0.2885 C   0  0  0  0  0  0  0  0  0  0  0  0
    2.2699    0.1378    1.0194 H   0  0  0  0  0  0  0  0  0  0  0  0
    2.4362   -1.3280   -0.9464 H   0  0  0  0  0  0  0  0  0  0  0  0
    0.8758   -0.7439   -1.5561 H   0  0  0  0  0  0  0  0  0  0  0  0
    0.7799    1.5335   -2.2834 H   0  0  0  0  0  0  0  0  0  0  0  0
    2.3155    2.4744   -2.2447 H   0  0  0  0  0  0  0  0  0  0  0  0
   -0.3362    1.1782   -0.1971 H   0  0  0  0  0  0  0  0  0  0  0  0
    0.4685    1.7923    1.2599 H   0  0  0  0  0  0  0  0  0  0  0  0
   -0.7158   -2.7411   -0.8459 C   0  0  0  0  0  0  0  0  0  0  0  0
   -0.7158   -2.7411    0.6770 C   0  0  0  0  0  0  0  0  0  0  0  0
   -0.7158   -1.3481    1.2725 C   0  0  0  0  0  3  0  0  0  0  0  0
   -1.8988   -0.6845    0.9049 O   0  0  0  0  0  0  0  0  0  0  0  0
   -1.9696    0.6336    1.3858 C   0  0  0  0  0  0  0  0  0  0  0  0
   -3.2729    1.2514    0.9350 C   0  0  0  0  0  0  0  0  0  0  0  0
    0.1662   -2.2268   -1.2355 H   0  0  0  0  0  0  0  0  0  0  0  0
   -1.5986   -2.2314   -1.2320 H   0  0  0  0  0  0  0  0  0  0  0  0
   -0.7104   -3.7590   -1.2386 H   0  0  0  0  0  0  0  0  0  0  0  0
    0.1657   -3.2676    1.0533 H   0  0  0  0  0  0  0  0  0  0  0  0
   -1.5902   -3.2791    1.0523 H   0  0  0  0  0  0  0  0  0  0  0  0
    0.3332   -0.6700    0.8401 H   0  0  0  0  0  0  0  0  0  0  0  0
   -0.6411   -1.4020    2.3686 H   0  0  0  0  0  0  0  0  0  0  0  0
   -1.9023    0.6365    2.4839 H   0  0  0  0  0  0  0  0  0  0  0  0
   -1.1167    1.2166    1.0080 H   0  0  0  0  0  0  0  0  0  0  0  0
   -4.1192    0.6820    1.3207 H   0  0  0  0  0  0  0  0  0  0  0  0
   -3.3337    1.2632   -0.1538 H   0  0  0  0  0  0  0  0  0  0  0  0
   -3.3505    2.2774    1.2981 H   0  0  0  0  0  0  0  0  0  0  0  0
  1  2  1  0
  1  6  1  0
  1  7  1  0
  1 25  1  0
  2  3  1  0
  2  8  1  0
  2  9  1  0
  3  4  1  0
  4  5  1  0
  4 10  1  0
  4 11  1  0
  5  6  1  0
  6 12  1  0
  6 13  1  0
 14 15  1  0
 14 20  1  0
 14 21  1  0
 14 22  1  0
 15 16  1  0
 15 23  1  0
 15 24  1  0
 16 17  1  0
 16 26  1  0
 17 18  1  0
 18 19  1  0
 18 27  1  0
 18 28  1  0
 19 29  1  0
 19 30  1  0
 19 31  1  0
M  RAD  1  16   2
M  END
>  <reaction>  (6) 
rmg_rxn_337

>  <mol_properties>  (6) 
{"0": {"label": "*3", "atom_type": "Cs"}, "1": {"label": "*4", "atom_type": "Cs"}, "15": {"label": "*1", "atom_type": "Cs"}, "16": {"label": "*0", "atom_type": "O2s"}, "24": {"label": "*2", "atom_type": "H0"}}

>  <type>  (6) 
unop_2

>  <geom_source>  (6) 
Heuristics

$$$$

     RDKit          3D

 31 30  0  0  0  0  0  0  0  0999 V2000
    1.1126   -0.0396   -0.5529 C   0  0  0  0  0  0  0  0  0  0  0  0
    0.7955    1.4476   -0.6165 C   0  0  0  0  0  0  0  0  0  0  0  0
    1.9411    2.2096   -0.2872 O   0  0  0  0  0  0  0  0  0  0  0  0
    2.4380    1.8583    0.9683 C   0  0  0  0  0  0  0  0  0  0  0  0
    2.8308    0.5217    1.0436 O   0  0  0  0  0  0  0  0  0  0  0  0
    1.7416   -0.3472    0.7985 C   0  0  0  0  0  0  0  0  0  0  0  0
    1.8164   -0.2950   -1.3474 H   0  0  0  0  0  0  0  0  0  0  0  0
    0.4899    1.7566   -1.6152 H   0  0  0  0  0  0  0  0  0  0  0  0
   -0.0196    1.6893    0.0829 H   0  0  0  0  0  0  0  0  0  0  0  0
    1.6692    2.0590    1.7369 H   0  0  0  0  0  0  0  0  0  0  0  0
    3.3222    2.4659    1.1477 H   0  0  0  0  0  0  0  0  0  0  0  0
    0.9931   -0.2319    1.5975 H   0  0  0  0  0  0  0  0  0  0  0  0
    2.1340   -1.3622    0.8436 H   0  0  0  0  0  0  0  0  0  0  0  0
   -0.9767   -2.7832   -1.8100 C   0  0  0  0  0  0  0  0  0  0  0  0
   -0.9767   -2.7832   -0.2871 C   0  0  0  0  0  0  0  0  0  0  0  0
   -0.9767   -1.3902    0.3084 C   0  0  0  0  0  3  0  0  0  0  0  0
   -2.1597   -0.7266   -0.0591 O   0  0  0  0  0  0  0  0  0  0  0  0
   -2.2304    0.5915    0.4217 C   0  0  0  0  0  0  0  0  0  0  0  0
   -3.5337    1.2093   -0.0291 C   0  0  0  0  0  0  0  0  0  0  0  0
   -0.0946   -2.2689   -2.1996 H   0  0  0  0  0  0  0  0  0  0  0  0
   -1.8594   -2.2735   -2.1960 H   0  0  0  0  0  0  0  0  0  0  0  0
   -0.9712   -3.8011   -2.2026 H   0  0  0  0  0  0  0  0  0  0  0  0
   -0.0952   -3.3097    0.0892 H   0  0  0  0  0  0  0  0  0  0  0  0
   -1.8511   -3.3212    0.0882 H   0  0  0  0  0  0  0  0  0  0  0  0
    0.0723   -0.7121   -0.1240 H   0  0  0  0  0  0  0  0  0  0  0  0
   -0.9019   -1.4441    1.4045 H   0  0  0  0  0  0  0  0  0  0  0  0
   -2.1632    0.5944    1.5198 H   0  0  0  0  0  0  0  0  0  0  0  0
   -1.3775    1.1745    0.0439 H   0  0  0  0  0  0  0  0  0  0  0  0
   -4.3801    0.6399    0.3566 H   0  0  0  0  0  0  0  0  0  0  0  0
   -3.5945    1.2211   -1.1179 H   0  0  0  0  0  0  0  0  0  0  0  0
   -3.6113    2.2353    0.3340 H   0  0  0  0  0  0  0  0  0  0  0  0
  1  2  1  0
  1  6  1  0
  1  7  1  0
  1 25  1  0
  2  3  1  0
  2  8  1  0
  2  9  1  0
  3  4  1  0
  4  5  1  0
  4 10  1  0
  4 11  1  0
  5  6  1  0
  6 12  1  0
  6 13  1  0
 14 15  1  0
 14 20  1  0
 14 21  1  0
 14 22  1  0
 15 16  1  0
 15 23  1  0
 15 24  1  0
 16 17  1  0
 16 26  1  0
 17 18  1  0
 18 19  1  0
 18 27  1  0
 18 28  1  0
 19 29  1  0
 19 30  1  0
 19 31  1  0
M  RAD  1  16   2
M  END
>  <reaction>  (7) 
rmg_rxn_337

>  <mol_properties>  (7) 
{"0": {"label": "*3", "atom_type": "Cs"}, "1": {"label": "*4", "atom_type": "Cs"}, "15": {"label": "*1", "atom_type": "Cs"}, "16": {"label": "*0", "atom_type": "O2s"}, "24": {"label": "*2", "atom_type": "H0"}}

>  <type>  (7) 
unop_3

>  <geom_source>  (7) 
Heuristics

$$$$

     RDKit          3D

 31 30  0  0  0  0  0  0  0  0999 V2000
    0.8050    0.2146    0.0328 C   0  0  0  0  0  0  0  0  0  0  0  0
    2.0946   -0.4869    0.4345 C   0  0  0  0  0  0  0  0  0  0  0  0
    3.1577    0.4433    0.5109 O   0  0  0  0  0  0  0  0  0  0  0  0
    3.3167    1.1291   -0.6937 C   0  0  0  0  0  0  0  0  0  0  0  0
    2.1875    1.8648   -1.0542 O   0  0  0  0  0  0  0  0  0  0  0  0
    1.0629    1.0246   -1.2298 C   0  0  0  0  0  0  0  0  0  0  0  0
    0.4907    0.8841    0.8357 H   0  0  0  0  0  0  0  0  0  0  0  0
    2.0157   -0.9540    1.4152 H   0  0  0  0  0  0  0  0  0  0  0  0
    2.3428   -1.2685   -0.2999 H   0  0  0  0  0  0  0  0  0  0  0  0
    3.5580    0.4092   -1.4972 H   0  0  0  0  0  0  0  0  0  0  0  0
    4.1331    1.8351   -0.5586 H   0  0  0  0  0  0  0  0  0  0  0  0
    1.2385    0.3494   -2.0812 H   0  0  0  0  0  0  0  0  0  0  0  0
    0.2230    1.6725   -1.4767 H   0  0  0  0  0  0  0  0  0  0  0  0
   -1.2843   -2.5290   -1.2243 C   0  0  0  0  0  0  0  0  0  0  0  0
   -1.2843   -2.5290    0.2986 C   0  0  0  0  0  0  0  0  0  0  0  0
   -1.2843   -1.1359    0.8941 C   0  0  0  0  0  3  0  0  0  0  0  0
   -2.4673   -0.4723    0.5265 O   0  0  0  0  0  0  0  0  0  0  0  0
   -2.5380    0.8458    1.0074 C   0  0  0  0  0  0  0  0  0  0  0  0
   -3.8413    1.4635    0.5566 C   0  0  0  0  0  0  0  0  0  0  0  0
   -0.4022   -2.0146   -1.6139 H   0  0  0  0  0  0  0  0  0  0  0  0
   -2.1670   -2.0193   -1.6104 H   0  0  0  0  0  0  0  0  0  0  0  0
   -1.2788   -3.5468   -1.6170 H   0  0  0  0  0  0  0  0  0  0  0  0
   -0.4027   -3.0554    0.6749 H   0  0  0  0  0  0  0  0  0  0  0  0
   -2.1586   -3.0669    0.6739 H   0  0  0  0  0  0  0  0  0  0  0  0
   -0.2352   -0.4578    0.4616 H   0  0  0  0  0  0  0  0  0  0  0  0
   -1.2095   -1.1898    1.9901 H   0  0  0  0  0  0  0  0  0  0  0  0
   -2.4707    0.8486    2.1055 H   0  0  0  0  0  0  0  0  0  0  0  0
   -1.6851    1.4287    0.6295 H   0  0  0  0  0  0  0  0  0  0  0  0
   -4.6877    0.8941    0.9422 H   0  0  0  0  0  0  0  0  0  0  0  0
   -3.9021    1.4754   -0.5323 H   0  0  0  0  0  0  0  0  0  0  0  0
   -3.9189    2.4896    0.9196 H   0  0  0  0  0  0  0  0  0  0  0  0
  1  2  1  0
  1  6  1  0
  1  7  1  0
  1 25  1  0
  2  3  1  0
  2  8  1  0
  2  9  1  0
  3  4  1  0
  4  5  1  0
  4 10  1  0
  4 11  1  0
  5  6  1  0
  6 12  1  0
  6 13  1  0
 14 15  1  0
 14 20  1  0
 14 21  1  0
 14 22  1  0
 15 16  1  0
 15 23  1  0
 15 24  1  0
 16 17  1  0
 16 26  1  0
 17 18  1  0
 18 19  1  0
 18 27  1  0
 18 28  1  0
 19 29  1  0
 19 30  1  0
 19 31  1  0
M  RAD  1  16   2
M  END
>  <reaction>  (8) 
rmg_rxn_337

>  <mol_properties>  (8) 
{"0": {"label": "*3", "atom_type": "Cs"}, "1": {"label": "*4", "atom_type": "Cs"}, "15": {"label": "*1", "atom_type": "Cs"}, "16": {"label": "*0", "atom_type": "O2s"}, "24": {"label": "*2", "atom_type": "H0"}}

>  <type>  (8) 
unop_4

>  <geom_source>  (8) 
Heuristics

$$$$

     RDKit          3D

 31 30  0  0  0  0  0  0  0  0999 V2000
    0.8522    0.1031   -0.3196 C   0  0  0  0  0  0  0  0  0  0  0  0
    0.8611    1.5048    0.2734 C   0  0  0  0  0  0  0  0  0  0  0  0
    2.0570    2.1774   -0.0713 O   0  0  0  0  0  0  0  0  0  0  0  0
    3.1787    1.4553    0.3371 C   0  0  0  0  0  0  0  0  0  0  0  0
    3.2612    0.1958   -0.2573 O   0  0  0  0  0  0  0  0  0  0  0  0
    2.1416   -0.6023    0.0756 C   0  0  0  0  0  0  0  0  0  0  0  0
    0.7937    0.1697   -1.4078 H   0  0  0  0  0  0  0  0  0  0  0  0
    0.0397    2.1122   -0.1043 H   0  0  0  0  0  0  0  0  0  0  0  0
    0.7732    1.4507    1.3694 H   0  0  0  0  0  0  0  0  0  0  0  0
    3.1624    1.3422    1.4367 H   0  0  0  0  0  0  0  0  0  0  0  0
    4.0563    2.0178    0.0261 H   0  0  0  0  0  0  0  0  0  0  0  0
    2.1439   -0.8047    1.1577 H   0  0  0  0  0  0  0  0  0  0  0  0
    2.2649   -1.5493   -0.4480 H   0  0  0  0  0  0  0  0  0  0  0  0
   -1.2371   -2.6405   -1.5767 C   0  0  0  0  0  0  0  0  0  0  0  0
   -1.2371   -2.6405   -0.0538 C   0  0  0  0  0  0  0  0  0  0  0  0
   -1.2371   -1.2474    0.5417 C   0  0  0  0  0  3  0  0  0  0  0  0
   -2.4201   -0.5838    0.1741 O   0  0  0  0  0  0  0  0  0  0  0  0
   -2.4908    0.7343    0.6550 C   0  0  0  0  0  0  0  0  0  0  0  0
   -3.7941    1.3520    0.2041 C   0  0  0  0  0  0  0  0  0  0  0  0
   -0.3550   -2.1261   -1.9664 H   0  0  0  0  0  0  0  0  0  0  0  0
   -2.1198   -2.1308   -1.9628 H   0  0  0  0  0  0  0  0  0  0  0  0
   -1.2316   -3.6583   -1.9694 H   0  0  0  0  0  0  0  0  0  0  0  0
   -0.3556   -3.1669    0.3224 H   0  0  0  0  0  0  0  0  0  0  0  0
   -2.1115   -3.1784    0.3214 H   0  0  0  0  0  0  0  0  0  0  0  0
   -0.1881   -0.5693    0.1092 H   0  0  0  0  0  0  0  0  0  0  0  0
   -1.1623   -1.3013    1.6377 H   0  0  0  0  0  0  0  0  0  0  0  0
   -2.4236    0.7371    1.7531 H   0  0  0  0  0  0  0  0  0  0  0  0
   -1.6380    1.3172    0.2771 H   0  0  0  0  0  0  0  0  0  0  0  0
   -4.6405    0.7826    0.5898 H   0  0  0  0  0  0  0  0  0  0  0  0
   -3.8550    1.3639   -0.8847 H   0  0  0  0  0  0  0  0  0  0  0  0
   -3.8718    2.3781    0.5672 H   0  0  0  0  0  0  0  0  0  0  0  0
  1  2  1  0
  1  6  1  0
  1  7  1  0
  1 25  1  0
  2  3  1  0
  2  8  1  0
  2  9  1  0
  3  4  1  0
  4  5  1  0
  4 10  1  0
  4 11  1  0
  5  6  1  0
  6 12  1  0
  6 13  1  0
 14 15  1  0
 14 20  1  0
 14 21  1  0
 14 22  1  0
 15 16  1  0
 15 23  1  0
 15 24  1  0
 16 17  1  0
 16 26  1  0
 17 18  1  0
 18 19  1  0
 18 27  1  0
 18 28  1  0
 19 29  1  0
 19 30  1  0
 19 31  1  0
M  RAD  1  16   2
M  END
>  <reaction>  (9) 
rmg_rxn_337

>  <mol_properties>  (9) 
{"0": {"label": "*3", "atom_type": "Cs"}, "1": {"label": "*4", "atom_type": "Cs"}, "15": {"label": "*1", "atom_type": "Cs"}, "16": {"label": "*0", "atom_type": "O2s"}, "24": {"label": "*2", "atom_type": "H0"}}

>  <type>  (9) 
unop_5

>  <geom_source>  (9) 
Heuristics

$$$$

     RDKit          3D

 31 30  0  0  0  0  0  0  0  0999 V2000
    0.8359    0.1016   -0.0777 C   0  0  0  0  0  0  0  0  0  0  0  0
    2.0210   -0.0990    0.8561 C   0  0  0  0  0  0  0  0  0  0  0  0
    2.8173    1.0695    0.8986 O   0  0  0  0  0  0  0  0  0  0  0  0
    3.2439    1.4372   -0.3778 C   0  0  0  0  0  0  0  0  0  0  0  0
    2.1878    1.7232   -1.2433 O   0  0  0  0  0  0  0  0  0  0  0  0
    1.3516    0.5961   -1.4216 C   0  0  0  0  0  0  0  0  0  0  0  0
    0.1602    0.8460    0.3481 H   0  0  0  0  0  0  0  0  0  0  0  0
    1.7044   -0.3001    1.8786 H   0  0  0  0  0  0  0  0  0  0  0  0
    2.6322   -0.9474    0.5120 H   0  0  0  0  0  0  0  0  0  0  0  0
    3.8609    0.6262   -0.8066 H   0  0  0  0  0  0  0  0  0  0  0  0
    3.8316    2.3465   -0.2730 H   0  0  0  0  0  0  0  0  0  0  0  0
    1.9158   -0.2034   -1.9259 H   0  0  0  0  0  0  0  0  0  0  0  0
    0.5412    0.9078   -2.0792 H   0  0  0  0  0  0  0  0  0  0  0  0
   -1.2534   -2.6420   -1.3348 C   0  0  0  0  0  0  0  0  0  0  0  0
   -1.2534   -2.6420    0.1881 C   0  0  0  0  0  0  0  0  0  0  0  0
   -1.2534   -1.2489    0.7837 C   0  0  0  0  0  3  0  0  0  0  0  0
   -2.4364   -0.5853    0.4161 O   0  0  0  0  0  0  0  0  0  0  0  0
   -2.5072    0.7328    0.8970 C   0  0  0  0  0  0  0  0  0  0  0  0
   -3.8105    1.3505    0.4461 C   0  0  0  0  0  0  0  0  0  0  0  0
   -0.3714   -2.1276   -1.7244 H   0  0  0  0  0  0  0  0  0  0  0  0
   -2.1362   -2.1323   -1.7208 H   0  0  0  0  0  0  0  0  0  0  0  0
   -1.2480   -3.6598   -1.7274 H   0  0  0  0  0  0  0  0  0  0  0  0
   -0.3719   -3.1684    0.5644 H   0  0  0  0  0  0  0  0  0  0  0  0
   -2.1278   -3.1799    0.5634 H   0  0  0  0  0  0  0  0  0  0  0  0
   -0.2044   -0.5708    0.3512 H   0  0  0  0  0  0  0  0  0  0  0  0
   -1.1787   -1.3028    1.8797 H   0  0  0  0  0  0  0  0  0  0  0  0
   -2.4399    0.7356    1.9950 H   0  0  0  0  0  0  0  0  0  0  0  0
   -1.6543    1.3157    0.5191 H   0  0  0  0  0  0  0  0  0  0  0  0
   -4.6568    0.7811    0.8318 H   0  0  0  0  0  0  0  0  0  0  0  0
   -3.8713    1.3624   -0.6427 H   0  0  0  0  0  0  0  0  0  0  0  0
   -3.8881    2.3766    0.8092 H   0  0  0  0  0  0  0  0  0  0  0  0
  1  2  1  0
  1  6  1  0
  1  7  1  0
  1 25  1  0
  2  3  1  0
  2  8  1  0
  2  9  1  0
  3  4  1  0
  4  5  1  0
  4 10  1  0
  4 11  1  0
  5  6  1  0
  6 12  1  0
  6 13  1  0
 14 15  1  0
 14 20  1  0
 14 21  1  0
 14 22  1  0
 15 16  1  0
 15 23  1  0
 15 24  1  0
 16 17  1  0
 16 26  1  0
 17 18  1  0
 18 19  1  0
 18 27  1  0
 18 28  1  0
 19 29  1  0
 19 30  1  0
 19 31  1  0
M  RAD  1  16   2
M  END
>  <reaction>  (10) 
rmg_rxn_337

>  <mol_properties>  (10) 
{"0": {"label": "*3", "atom_type": "Cs"}, "1": {"label": "*4", "atom_type": "Cs"}, "15": {"label": "*1", "atom_type": "Cs"}, "16": {"label": "*0", "atom_type": "O2s"}, "24": {"label": "*2", "atom_type": "H0"}}

>  <type>  (10) 
unop_6

>  <geom_source>  (10) 
Heuristics

$$$$

     RDKit          3D

 31 30  0  0  0  0  0  0  0  0999 V2000
    0.8865    0.0248   -0.0762 C   0  0  0  0  0  0  0  0  0  0  0  0
    1.7627    0.4520    1.0927 C   0  0  0  0  0  0  0  0  0  0  0  0
    2.3748    1.6978    0.8194 O   0  0  0  0  0  0  0  0  0  0  0  0
    3.1106    1.6503   -0.3650 C   0  0  0  0  0  0  0  0  0  0  0  0
    2.3273    1.3540   -1.4809 O   0  0  0  0  0  0  0  0  0  0  0  0
    1.7122    0.0864   -1.3533 C   0  0  0  0  0  0  0  0  0  0  0  0
    0.0366    0.7048   -0.1603 H   0  0  0  0  0  0  0  0  0  0  0  0
    1.1867    0.5799    2.0082 H   0  0  0  0  0  0  0  0  0  0  0  0
    2.5394   -0.3058    1.2780 H   0  0  0  0  0  0  0  0  0  0  0  0
    3.9132    0.8962   -0.2689 H   0  0  0  0  0  0  0  0  0  0  0  0
    3.5356    2.6393   -0.5216 H   0  0  0  0  0  0  0  0  0  0  0  0
    2.4854   -0.6971   -1.3401 H   0  0  0  0  0  0  0  0  0  0  0  0
    1.0990   -0.0554   -2.2421 H   0  0  0  0  0  0  0  0  0  0  0  0
   -1.2028   -2.7188   -1.3333 C   0  0  0  0  0  0  0  0  0  0  0  0
   -1.2028   -2.7188    0.1896 C   0  0  0  0  0  0  0  0  0  0  0  0
   -1.2028   -1.3257    0.7851 C   0  0  0  0  0  3  0  0  0  0  0  0
   -2.3858   -0.6621    0.4175 O   0  0  0  0  0  0  0  0  0  0  0  0
   -2.4565    0.6559    0.8984 C   0  0  0  0  0  0  0  0  0  0  0  0
   -3.7599    1.2737    0.4476 C   0  0  0  0  0  0  0  0  0  0  0  0
   -0.3208   -2.2044   -1.7229 H   0  0  0  0  0  0  0  0  0  0  0  0
   -2.0855   -2.2091   -1.7194 H   0  0  0  0  0  0  0  0  0  0  0  0
   -1.1973   -3.7366   -1.7260 H   0  0  0  0  0  0  0  0  0  0  0  0
   -0.3213   -3.2452    0.5659 H   0  0  0  0  0  0  0  0  0  0  0  0
   -2.0772   -3.2567    0.5649 H   0  0  0  0  0  0  0  0  0  0  0  0
   -0.1538   -0.6476    0.3527 H   0  0  0  0  0  0  0  0  0  0  0  0
   -1.1280   -1.3796    1.8812 H   0  0  0  0  0  0  0  0  0  0  0  0
   -2.3893    0.6588    1.9965 H   0  0  0  0  0  0  0  0  0  0  0  0
   -1.6037    1.2389    0.5206 H   0  0  0  0  0  0  0  0  0  0  0  0
   -4.6062    0.7043    0.8333 H   0  0  0  0  0  0  0  0  0  0  0  0
   -3.8207    1.2856   -0.6412 H   0  0  0  0  0  0  0  0  0  0  0  0
   -3.8375    2.2998    0.8107 H   0  0  0  0  0  0  0  0  0  0  0  0
  1  2  1  0
  1  6  1  0
  1  7  1  0
  1 25  1  0
  2  3  1  0
  2  8  1  0
  2  9  1  0
  3  4  1  0
  4  5  1  0
  4 10  1  0
  4 11  1  0
  5  6  1  0
  6 12  1  0
  6 13  1  0
 14 15  1  0
 14 20  1  0
 14 21  1  0
 14 22  1  0
 15 16  1  0
 15 23  1  0
 15 24  1  0
 16 17  1  0
 16 26  1  0
 17 18  1  0
 18 19  1  0
 18 27  1  0
 18 28  1  0
 19 29  1  0
 19 30  1  0
 19 31  1  0
M  RAD  1  16   2
M  END
>  <reaction>  (11) 
rmg_rxn_337

>  <mol_properties>  (11) 
{"0": {"label": "*3", "atom_type": "Cs"}, "1": {"label": "*4", "atom_type": "Cs"}, "15": {"label": "*1", "atom_type": "Cs"}, "16": {"label": "*0", "atom_type": "O2s"}, "24": {"label": "*2", "atom_type": "H0"}}

>  <type>  (11) 
unop_7

>  <geom_source>  (11) 
Heuristics

$$$$

     RDKit          3D

 31 30  0  0  0  0  0  0  0  0999 V2000
    1.5610   -0.2664   -0.1271 C   0  0  0  0  0  0  0  0  0  0  0  0
    1.2204    0.4802   -1.4090 C   0  0  0  0  0  0  0  0  0  0  0  0
    1.6994    1.8098   -1.3461 O   0  0  0  0  0  0  0  0  0  0  0  0
    1.1935    2.4771   -0.2303 C   0  0  0  0  0  0  0  0  0  0  0  0
    1.5618    1.8787    0.9750 O   0  0  0  0  0  0  0  0  0  0  0  0
    1.0740    0.5534    1.0593 C   0  0  0  0  0  0  0  0  0  0  0  0
    2.6428   -0.3961   -0.0590 H   0  0  0  0  0  0  0  0  0  0  0  0
    1.6820    0.0216   -2.2823 H   0  0  0  0  0  0  0  0  0  0  0  0
    0.1302    0.4896   -1.5611 H   0  0  0  0  0  0  0  0  0  0  0  0
    0.0909    2.5206   -0.2970 H   0  0  0  0  0  0  0  0  0  0  0  0
    1.6140    3.4803   -0.2351 H   0  0  0  0  0  0  0  0  0  0  0  0
   -0.0265    0.5680    1.0808 H   0  0  0  0  0  0  0  0  0  0  0  0
    1.4277    0.1489    2.0066 H   0  0  0  0  0  0  0  0  0  0  0  0
   -0.5283   -3.0100   -1.3842 C   0  0  0  0  0  0  0  0  0  0  0  0
   -0.5283   -3.0100    0.1388 C   0  0  0  0  0  0  0  0  0  0  0  0
   -0.5283   -1.6169    0.7343 C   0  0  0  0  0  3  0  0  0  0  0  0
   -1.7113   -0.9533    0.3667 O   0  0  0  0  0  0  0  0  0  0  0  0
   -1.7820    0.3648    0.8476 C   0  0  0  0  0  0  0  0  0  0  0  0
   -3.0854    0.9825    0.3967 C   0  0  0  0  0  0  0  0  0  0  0  0
    0.3537   -2.4956   -1.7738 H   0  0  0  0  0  0  0  0  0  0  0  0
   -1.4110   -2.5003   -1.7702 H   0  0  0  0  0  0  0  0  0  0  0  0
   -0.5228   -4.0278   -1.7768 H   0  0  0  0  0  0  0  0  0  0  0  0
    0.3532   -3.5364    0.5150 H   0  0  0  0  0  0  0  0  0  0  0  0
   -1.4027   -3.5479    0.5140 H   0  0  0  0  0  0  0  0  0  0  0  0
    0.5207   -0.9388    0.3018 H   0  0  0  0  0  0  0  0  0  0  0  0
   -0.4535   -1.6708    1.8303 H   0  0  0  0  0  0  0  0  0  0  0  0
   -1.7148    0.3676    1.9456 H   0  0  0  0  0  0  0  0  0  0  0  0
   -0.9292    0.9477    0.4697 H   0  0  0  0  0  0  0  0  0  0  0  0
   -3.9317    0.4131    0.7824 H   0  0  0  0  0  0  0  0  0  0  0  0
   -3.1462    0.9944   -0.6921 H   0  0  0  0  0  0  0  0  0  0  0  0
   -3.1630    2.0086    0.7598 H   0  0  0  0  0  0  0  0  0  0  0  0
  1  2  1  0
  1  6  1  0
  1  7  1  0
  1 25  1  0
  2  3  1  0
  2  8  1  0
  2  9  1  0
  3  4  1  0
  4  5  1  0
  4 10  1  0
  4 11  1  0
  5  6  1  0
  6 12  1  0
  6 13  1  0
 14 15  1  0
 14 20  1  0
 14 21  1  0
 14 22  1  0
 15 16  1  0
 15 23  1  0
 15 24  1  0
 16 17  1  0
 16 26  1  0
 17 18  1  0
 18 19  1  0
 18 27  1  0
 18 28  1  0
 19 29  1  0
 19 30  1  0
 19 31  1  0
M  RAD  1  16   2
M  END
>  <reaction>  (12) 
rmg_rxn_337

>  <mol_properties>  (12) 
{"0": {"label": "*3", "atom_type": "Cs"}, "1": {"label": "*4", "atom_type": "Cs"}, "15": {"label": "*1", "atom_type": "Cs"}, "16": {"label": "*0", "atom_type": "O2s"}, "24": {"label": "*2", "atom_type": "H0"}}

>  <type>  (12) 
unop_8

>  <geom_source>  (12) 
Heuristics

$$$$

     RDKit          3D

 31 30  0  0  0  0  0  0  0  0999 V2000
    0.8833    0.2663    0.2415 C   0  0  0  0  0  0  0  0  0  0  0  0
    2.0450   -0.6750   -0.0430 C   0  0  0  0  0  0  0  0  0  0  0  0
    3.2363    0.0606   -0.2456 O   0  0  0  0  0  0  0  0  0  0  0  0
    3.0860    0.9930   -1.2726 C   0  0  0  0  0  0  0  0  0  0  0  0
    2.0920    1.9361   -1.0103 O   0  0  0  0  0  0  0  0  0  0  0  0
    0.8282    1.3193   -0.8562 C   0  0  0  0  0  0  0  0  0  0  0  0
    1.0395    0.7546    1.2054 H   0  0  0  0  0  0  0  0  0  0  0  0
    2.2328   -1.3531    0.7883 H   0  0  0  0  0  0  0  0  0  0  0  0
    1.8299   -1.2790   -0.9379 H   0  0  0  0  0  0  0  0  0  0  0  0
    2.8527    0.4660   -2.2159 H   0  0  0  0  0  0  0  0  0  0  0  0
    4.0272    1.5312   -1.3610 H   0  0  0  0  0  0  0  0  0  0  0  0
    0.5275    0.8556   -1.8082 H   0  0  0  0  0  0  0  0  0  0  0  0
    0.1184    2.1123   -0.6246 H   0  0  0  0  0  0  0  0  0  0  0  0
   -1.2060   -2.4773   -1.0156 C   0  0  0  0  0  0  0  0  0  0  0  0
   -1.2060   -2.4773    0.5073 C   0  0  0  0  0  0  0  0  0  0  0  0
   -1.2060   -1.0842    1.1028 C   0  0  0  0  0  3  0  0  0  0  0  0
   -2.3890   -0.4206    0.7352 O   0  0  0  0  0  0  0  0  0  0  0  0
   -2.4597    0.8975    1.2161 C   0  0  0  0  0  0  0  0  0  0  0  0
   -3.7630    1.5152    0.7653 C   0  0  0  0  0  0  0  0  0  0  0  0
   -0.3239   -1.9629   -1.4052 H   0  0  0  0  0  0  0  0  0  0  0  0
   -2.0887   -1.9676   -1.4017 H   0  0  0  0  0  0  0  0  0  0  0  0
   -1.2005   -3.4951   -1.4082 H   0  0  0  0  0  0  0  0  0  0  0  0
   -0.3244   -3.0037    0.8836 H   0  0  0  0  0  0  0  0  0  0  0  0
   -2.0803   -3.0152    0.8826 H   0  0  0  0  0  0  0  0  0  0  0  0
   -0.1569   -0.4061    0.6704 H   0  0  0  0  0  0  0  0  0  0  0  0
   -1.1312   -1.1381    2.1989 H   0  0  0  0  0  0  0  0  0  0  0  0
   -2.3924    0.9003    2.3142 H   0  0  0  0  0  0  0  0  0  0  0  0
   -1.6068    1.4804    0.8383 H   0  0  0  0  0  0  0  0  0  0  0  0
   -4.6094    0.9458    1.1510 H   0  0  0  0  0  0  0  0  0  0  0  0
   -3.8238    1.5271   -0.3235 H   0  0  0  0  0  0  0  0  0  0  0  0
   -3.8406    2.5413    1.1284 H   0  0  0  0  0  0  0  0  0  0  0  0
  1  2  1  0
  1  6  1  0
  1  7  1  0
  1 25  1  0
  2  3  1  0
  2  8  1  0
  2  9  1  0
  3  4  1  0
  4  5  1  0
  4 10  1  0
  4 11  1  0
  5  6  1  0
  6 12  1  0
  6 13  1  0
 14 15  1  0
 14 20  1  0
 14 21  1  0
 14 22  1  0
 15 16  1  0
 15 23  1  0
 15 24  1  0
 16 17  1  0
 16 26  1  0
 17 18  1  0
 18 19  1  0
 18 27  1  0
 18 28  1  0
 19 29  1  0
 19 30  1  0
 19 31  1  0
M  RAD  1  16   2
M  END
>  <reaction>  (13) 
rmg_rxn_337

>  <mol_properties>  (13) 
{"0": {"label": "*3", "atom_type": "Cs"}, "1": {"label": "*4", "atom_type": "Cs"}, "15": {"label": "*1", "atom_type": "Cs"}, "16": {"label": "*0", "atom_type": "O2s"}, "24": {"label": "*2", "atom_type": "H0"}}

>  <type>  (13) 
unop_9

>  <geom_source>  (13) 
Heuristics

$$$$

     RDKit          3D

 31 30  0  0  0  0  0  0  0  0999 V2000
    1.5492   -0.1790    0.1963 C   0  0  0  0  0  0  0  0  0  0  0  0
    1.5175   -0.0603   -1.3207 C   0  0  0  0  0  0  0  0  0  0  0  0
    1.9747    1.2163   -1.7241 O   0  0  0  0  0  0  0  0  0  0  0  0
    1.2273    2.2324   -1.1280 C   0  0  0  0  0  0  0  0  0  0  0  0
    1.3043    2.2192    0.2650 O   0  0  0  0  0  0  0  0  0  0  0  0
    0.8046    1.0061    0.7944 C   0  0  0  0  0  0  0  0  0  0  0  0
    2.5854   -0.1675    0.5398 H   0  0  0  0  0  0  0  0  0  0  0  0
    2.1666   -0.7917   -1.8002 H   0  0  0  0  0  0  0  0  0  0  0  0
    0.4921   -0.2163   -1.6895 H   0  0  0  0  0  0  0  0  0  0  0  0
    0.1702    2.1412   -1.4383 H   0  0  0  0  0  0  0  0  0  0  0  0
    1.6419    3.1796   -1.4658 H   0  0  0  0  0  0  0  0  0  0  0  0
   -0.2710    0.9252    0.5744 H   0  0  0  0  0  0  0  0  0  0  0  0
    0.9279    1.0614    1.8751 H   0  0  0  0  0  0  0  0  0  0  0  0
   -0.5401   -2.9226   -1.0607 C   0  0  0  0  0  0  0  0  0  0  0  0
   -0.5401   -2.9226    0.4622 C   0  0  0  0  0  0  0  0  0  0  0  0
   -0.5401   -1.5295    1.0577 C   0  0  0  0  0  3  0  0  0  0  0  0
   -1.7231   -0.8659    0.6901 O   0  0  0  0  0  0  0  0  0  0  0  0
   -1.7938    0.4521    1.1710 C   0  0  0  0  0  0  0  0  0  0  0  0
   -3.0971    1.0699    0.7201 C   0  0  0  0  0  0  0  0  0  0  0  0
    0.3420   -2.4083   -1.4504 H   0  0  0  0  0  0  0  0  0  0  0  0
   -1.4228   -2.4129   -1.4468 H   0  0  0  0  0  0  0  0  0  0  0  0
   -0.5346   -3.9405   -1.4534 H   0  0  0  0  0  0  0  0  0  0  0  0
    0.3414   -3.4491    0.8384 H   0  0  0  0  0  0  0  0  0  0  0  0
   -1.4145   -3.4606    0.8374 H   0  0  0  0  0  0  0  0  0  0  0  0
    0.5089   -0.8514    0.6252 H   0  0  0  0  0  0  0  0  0  0  0  0
   -0.4653   -1.5834    2.1537 H   0  0  0  0  0  0  0  0  0  0  0  0
   -1.7266    0.4550    2.2690 H   0  0  0  0  0  0  0  0  0  0  0  0
   -0.9409    1.0351    0.7931 H   0  0  0  0  0  0  0  0  0  0  0  0
   -3.9435    0.5005    1.1058 H   0  0  0  0  0  0  0  0  0  0  0  0
   -3.1579    1.0818   -0.3687 H   0  0  0  0  0  0  0  0  0  0  0  0
   -3.1747    2.0959    1.0832 H   0  0  0  0  0  0  0  0  0  0  0  0
  1  2  1  0
  1  6  1  0
  1  7  1  0
  1 25  1  0
  2  3  1  0
  2  8  1  0
  2  9  1  0
  3  4  1  0
  4  5  1  0
  4 10  1  0
  4 11  1  0
  5  6  1  0
  6 12  1  0
  6 13  1  0
 14 15  1  0
 14 20  1  0
 14 21  1  0
 14 22  1  0
 15 16  1  0
 15 23  1  0
 15 24  1  0
 16 17  1  0
 16 26  1  0
 17 18  1  0
 18 19  1  0
 18 27  1  0
 18 28  1  0
 19 29  1  0
 19 30  1  0
 19 31  1  0
M  RAD  1  16   2
M  END
>  <reaction>  (14) 
rmg_rxn_337

>  <mol_properties>  (14) 
{"0": {"label": "*3", "atom_type": "Cs"}, "1": {"label": "*4", "atom_type": "Cs"}, "15": {"label": "*1", "atom_type": "Cs"}, "16": {"label": "*0", "atom_type": "O2s"}, "24": {"label": "*2", "atom_type": "H0"}}

>  <type>  (14) 
unop_10

>  <geom_source>  (14) 
Heuristics

$$$$

     RDKit          3D

 31 30  0  0  0  0  0  0  0  0999 V2000
    0.8678    0.0505   -0.0785 C   0  0  0  0  0  0  0  0  0  0  0  0
    1.3135    1.0642    0.9657 C   0  0  0  0  0  0  0  0  0  0  0  0
    2.0636    2.0987    0.3586 O   0  0  0  0  0  0  0  0  0  0  0  0
    3.1578    1.5868   -0.3393 C   0  0  0  0  0  0  0  0  0  0  0  0
    2.7895    0.7229   -1.3710 O   0  0  0  0  0  0  0  0  0  0  0  0
    2.0854   -0.3988   -0.8735 C   0  0  0  0  0  0  0  0  0  0  0  0
    0.1461    0.5167   -0.7521 H   0  0  0  0  0  0  0  0  0  0  0  0
    0.4669    1.5392    1.4597 H   0  0  0  0  0  0  0  0  0  0  0  0
    1.9265    0.5687    1.7342 H   0  0  0  0  0  0  0  0  0  0  0  0
    3.8260    1.0559    0.3634 H   0  0  0  0  0  0  0  0  0  0  0  0
    3.6754    2.4294   -0.7923 H   0  0  0  0  0  0  0  0  0  0  0  0
    2.7527   -0.9972   -0.2345 H   0  0  0  0  0  0  0  0  0  0  0  0
    1.8083   -1.0030   -1.7363 H   0  0  0  0  0  0  0  0  0  0  0  0
   -1.2215   -2.6931   -1.3356 C   0  0  0  0  0  0  0  0  0  0  0  0
   -1.2215   -2.6931    0.1873 C   0  0  0  0  0  0  0  0  0  0  0  0
   -1.2215   -1.3000    0.7829 C   0  0  0  0  0  3  0  0  0  0  0  0
   -2.4045   -0.6364    0.4153 O   0  0  0  0  0  0  0  0  0  0  0  0
   -2.4753    0.6816    0.8962 C   0  0  0  0  0  0  0  0  0  0  0  0
   -3.7786    1.2994    0.4453 C   0  0  0  0  0  0  0  0  0  0  0  0
   -0.3395   -2.1788   -1.7252 H   0  0  0  0  0  0  0  0  0  0  0  0
   -2.1043   -2.1834   -1.7216 H   0  0  0  0  0  0  0  0  0  0  0  0
   -1.2161   -3.7109   -1.7282 H   0  0  0  0  0  0  0  0  0  0  0  0
   -0.3400   -3.2195    0.5636 H   0  0  0  0  0  0  0  0  0  0  0  0
   -2.0959   -3.2310    0.5626 H   0  0  0  0  0  0  0  0  0  0  0  0
   -0.1725   -0.6219    0.3504 H   0  0  0  0  0  0  0  0  0  0  0  0
   -1.1468   -1.3539    1.8789 H   0  0  0  0  0  0  0  0  0  0  0  0
   -2.4080    0.6845    1.9942 H   0  0  0  0  0  0  0  0  0  0  0  0
   -1.6224    1.2646    0.5183 H   0  0  0  0  0  0  0  0  0  0  0  0
   -4.6249    0.7300    0.8310 H   0  0  0  0  0  0  0  0  0  0  0  0
   -3.8394    1.3113   -0.6435 H   0  0  0  0  0  0  0  0  0  0  0  0
   -3.8562    2.3254    0.8084 H   0  0  0  0  0  0  0  0  0  0  0  0
  1  2  1  0
  1  6  1  0
  1  7  1  0
  1 25  1  0
  2  3  1  0
  2  8  1  0
  2  9  1  0
  3  4  1  0
  4  5  1  0
  4 10  1  0
  4 11  1  0
  5  6  1  0
  6 12  1  0
  6 13  1  0
 14 15  1  0
 14 20  1  0
 14 21  1  0
 14 22  1  0
 15 16  1  0
 15 23  1  0
 15 24  1  0
 16 17  1  0
 16 26  1  0
 17 18  1  0
 18 19  1  0
 18 27  1  0
 18 28  1  0
 19 29  1  0
 19 30  1  0
 19 31  1  0
M  RAD  1  16   2
M  END
>  <reaction>  (15) 
rmg_rxn_337

>  <mol_properties>  (15) 
{"0": {"label": "*3", "atom_type": "Cs"}, "1": {"label": "*4", "atom_type": "Cs"}, "15": {"label": "*1", "atom_type": "Cs"}, "16": {"label": "*0", "atom_type": "O2s"}, "24": {"label": "*2", "atom_type": "H0"}}

>  <type>  (15) 
unop_11

>  <geom_source>  (15) 
Heuristics

$$$$

     RDKit          3D

 31 30  0  0  0  0  0  0  0  0999 V2000
    1.1032    0.1863    0.4196 C   0  0  0  0  0  0  0  0  0  0  0  0
    1.9388   -0.6695   -0.5217 C   0  0  0  0  0  0  0  0  0  0  0  0
    2.9759    0.1013   -1.0975 O   0  0  0  0  0  0  0  0  0  0  0  0
    2.4671    1.2196   -1.7586 C   0  0  0  0  0  0  0  0  0  0  0  0
    1.7717    2.0829   -0.9115 O   0  0  0  0  0  0  0  0  0  0  0  0
    0.6583    1.4377   -0.3239 C   0  0  0  0  0  0  0  0  0  0  0  0
    1.7073    0.4724    1.2828 H   0  0  0  0  0  0  0  0  0  0  0  0
    2.4163   -1.4992   -0.0021 H   0  0  0  0  0  0  0  0  0  0  0  0
    1.3028   -1.0833   -1.3192 H   0  0  0  0  0  0  0  0  0  0  0  0
    1.7998    0.8909   -2.5763 H   0  0  0  0  0  0  0  0  0  0  0  0
    3.3144    1.7721   -2.1587 H   0  0  0  0  0  0  0  0  0  0  0  0
   -0.0678    1.1721   -1.1075 H   0  0  0  0  0  0  0  0  0  0  0  0
    0.1911    2.1624    0.3416 H   0  0  0  0  0  0  0  0  0  0  0  0
   -0.9861   -2.5573   -0.8375 C   0  0  0  0  0  0  0  0  0  0  0  0
   -0.9861   -2.5573    0.6854 C   0  0  0  0  0  0  0  0  0  0  0  0
   -0.9861   -1.1642    1.2809 C   0  0  0  0  0  3  0  0  0  0  0  0
   -2.1691   -0.5006    0.9133 O   0  0  0  0  0  0  0  0  0  0  0  0
   -2.2398    0.8174    1.3942 C   0  0  0  0  0  0  0  0  0  0  0  0
   -3.5431    1.4352    0.9434 C   0  0  0  0  0  0  0  0  0  0  0  0
   -0.1040   -2.0430   -1.2271 H   0  0  0  0  0  0  0  0  0  0  0  0
   -1.8688   -2.0476   -1.2236 H   0  0  0  0  0  0  0  0  0  0  0  0
   -0.9806   -3.5752   -1.2302 H   0  0  0  0  0  0  0  0  0  0  0  0
   -0.1046   -3.0838    1.0617 H   0  0  0  0  0  0  0  0  0  0  0  0
   -1.8605   -3.0953    1.0607 H   0  0  0  0  0  0  0  0  0  0  0  0
    0.0629   -0.4861    0.8484 H   0  0  0  0  0  0  0  0  0  0  0  0
   -0.9113   -1.2182    2.3770 H   0  0  0  0  0  0  0  0  0  0  0  0
   -2.1726    0.8203    2.4923 H   0  0  0  0  0  0  0  0  0  0  0  0
   -1.3870    1.4004    1.0163 H   0  0  0  0  0  0  0  0  0  0  0  0
   -4.3895    0.8658    1.3291 H   0  0  0  0  0  0  0  0  0  0  0  0
   -3.6039    1.4471   -0.1454 H   0  0  0  0  0  0  0  0  0  0  0  0
   -3.6208    2.4612    1.3064 H   0  0  0  0  0  0  0  0  0  0  0  0
  1  2  1  0
  1  6  1  0
  1  7  1  0
  1 25  1  0
  2  3  1  0
  2  8  1  0
  2  9  1  0
  3  4  1  0
  4  5  1  0
  4 10  1  0
  4 11  1  0
  5  6  1  0
  6 12  1  0
  6 13  1  0
 14 15  1  0
 14 20  1  0
 14 21  1  0
 14 22  1  0
 15 16  1  0
 15 23  1  0
 15 24  1  0
 16 17  1  0
 16 26  1  0
 17 18  1  0
 18 19  1  0
 18 27  1  0
 18 28  1  0
 19 29  1  0
 19 30  1  0
 19 31  1  0
M  RAD  1  16   2
M  END
>  <reaction>  (16) 
rmg_rxn_337

>  <mol_properties>  (16) 
{"0": {"label": "*3", "atom_type": "Cs"}, "1": {"label": "*4", "atom_type": "Cs"}, "15": {"label": "*1", "atom_type": "Cs"}, "16": {"label": "*0", "atom_type": "O2s"}, "24": {"label": "*2", "atom_type": "H0"}}

>  <type>  (16) 
unop_12

>  <geom_source>  (16) 
Heuristics

$$$$

     RDKit          3D

 31 26  0  0  0  0  0  0  0  0999 V2000
    2.3852    0.8041   -0.9974 O   0  0  0  0  0  1  0  0  0  0  0  0
    2.7994   -1.0048    0.5219 O   0  0  0  0  0  0  0  0  0  0  0  0
   -2.3812   -0.4631   -0.2800 O   0  0  0  0  0  0  0  0  0  0  0  0
    0.7631    0.2670    0.6967 C   0  0  0  0  0  3  0  0  0  0  0  0
   -0.8447    1.2383   -0.9847 C   0  0  0  0  0  2  0  0  0  0  0  0
    1.6915    1.3312    0.1119 C   0  0  0  0  0  2  0  0  0  0  0  0
    1.3930   -1.1101    0.4876 C   0  0  0  0  0  0  0  0  0  0  0  0
   -2.0903   -1.4645    0.6644 C   0  0  0  0  0  0  0  0  0  0  0  0
   -0.0505    2.4507   -0.5144 C   0  0  0  0  0  3  0  0  0  0  0  0
   -2.7738   -2.7580    0.2480 C   0  0  0  0  0  0  0  0  0  0  0  0
    3.2666   -0.2358   -0.5829 C   0  0  0  0  0  0  0  0  0  0  0  0
   -1.7277    0.7058    0.1379 C   0  0  0  0  0  2  0  0  0  0  0  0
    0.6107    0.4625    1.7804 H   0  0  0  0  0  0  0  0  0  0  0  0
   -0.4029    0.3056    0.0921 H   0  0  0  0  0  0  0  0  0  0  0  0
   -1.4761    1.5227   -1.8542 H   0  0  0  0  0  0  0  0  0  0  0  0
   -0.1369    0.4429   -1.3031 H   0  0  0  0  0  0  0  0  0  0  0  0
    1.0854    2.2002   -0.2187 H   0  0  0  0  0  0  0  0  0  0  0  0
    2.4071    1.6968    0.8845 H   0  0  0  0  0  0  0  0  0  0  0  0
    1.0599   -1.7948    1.2957 H   0  0  0  0  0  0  0  0  0  0  0  0
    1.0554   -1.5479   -0.4798 H   0  0  0  0  0  0  0  0  0  0  0  0
   -0.9923   -1.6518    0.7173 H   0  0  0  0  0  0  0  0  0  0  0  0
   -2.4689   -1.1784    1.6734 H   0  0  0  0  0  0  0  0  0  0  0  0
   -2.5504   -3.5559    0.9873 H   0  0  0  0  0  0  0  0  0  0  0  0
   -2.4057   -3.0782   -0.7499 H   0  0  0  0  0  0  0  0  0  0  0  0
   -3.8735   -2.6088    0.2004 H   0  0  0  0  0  0  0  0  0  0  0  0
   -0.7382    3.2709   -0.2165 H   0  0  0  0  0  0  0  0  0  0  0  0
    0.5918    2.1779    0.3501 H   0  0  0  0  0  0  0  0  0  0  0  0
    0.5980    2.8132   -1.3396 H   0  0  0  0  0  0  0  0  0  0  0  0
    4.2472    0.2109   -0.3139 H   0  0  0  0  0  0  0  0  0  0  0  0
    3.4428   -0.9149   -1.4438 H   0  0  0  0  0  0  0  0  0  0  0  0
   -2.4839    1.4664    0.4292 H   0  0  0  0  0  0  0  0  0  0  0  0
  1 11  1  0
  2 11  1  0
  2  7  1  0
  3 12  1  0
  3  8  1  0
  4 14  1  0
  4  7  1  0
  4 13  1  0
  5 16  1  0
  5 15  1  0
  6 17  1  0
  6 18  1  0
  7 19  1  0
  7 20  1  0
  8 22  1  0
  8 10  1  0
  8 21  1  0
  9 28  1  0
  9 26  1  0
  9 27  1  0
 10 25  1  0
 10 24  1  0
 10 23  1  0
 11 30  1  0
 11 29  1  0
 12 31  1  0
M  RAD  6   1   2   4   2   5   3   6   3   9   2  12   3
M  END
>  <reaction>  (17) 
rmg_rxn_337

>  <mol_properties>  (17) 
{"0": {"label": "*3", "atom_type": "Cs"}, "1": {"label": "*4", "atom_type": "Cs"}, "15": {"label": "*1", "atom_type": "Cs"}, "16": {"label": "*0", "atom_type": "O2s"}, "24": {"label": "*2", "atom_type": "H0"}}

>  <type>  (17) 
unop_13

>  <geom_source>  (17) 
AutoTST

$$$$

     RDKit          3D

 31 30  0  0  0  0  0  0  0  0999 V2000
    1.3735    0.0025    0.4112 C   0  0  0  0  0  0  0  0  0  0  0  0
    1.7723   -0.4653   -0.9812 C   0  0  0  0  0  0  0  0  0  0  0  0
    2.4706    0.5587   -1.6631 O   0  0  0  0  0  0  0  0  0  0  0  0
    1.7149    1.7297   -1.7271 C   0  0  0  0  0  0  0  0  0  0  0  0
    1.4058    2.2475   -0.4690 O   0  0  0  0  0  0  0  0  0  0  0  0
    0.6399    1.3304    0.2885 C   0  0  0  0  0  0  0  0  0  0  0  0
    2.2699    0.1378    1.0194 H   0  0  0  0  0  0  0  0  0  0  0  0
    2.4362   -1.3280   -0.9464 H   0  0  0  0  0  0  0  0  0  0  0  0
    0.8758   -0.7439   -1.5561 H   0  0  0  0  0  0  0  0  0  0  0  0
    0.7799    1.5335   -2.2834 H   0  0  0  0  0  0  0  0  0  0  0  0
    2.3155    2.4744   -2.2447 H   0  0  0  0  0  0  0  0  0  0  0  0
   -0.3362    1.1782   -0.1971 H   0  0  0  0  0  0  0  0  0  0  0  0
    0.4685    1.7923    1.2599 H   0  0  0  0  0  0  0  0  0  0  0  0
   -0.7158   -2.7411   -0.8459 C   0  0  0  0  0  0  0  0  0  0  0  0
   -0.7158   -2.7411    0.6770 C   0  0  0  0  0  0  0  0  0  0  0  0
   -0.7158   -1.3481    1.2725 C   0  0  0  0  0  3  0  0  0  0  0  0
   -1.8988   -0.6845    0.9050 O   0  0  0  0  0  0  0  0  0  0  0  0
   -1.9696    0.6336    1.3858 C   0  0  0  0  0  0  0  0  0  0  0  0
   -3.2729    1.2514    0.9350 C   0  0  0  0  0  0  0  0  0  0  0  0
    0.1662   -2.2268   -1.2355 H   0  0  0  0  0  0  0  0  0  0  0  0
   -1.5986   -2.2314   -1.2320 H   0  0  0  0  0  0  0  0  0  0  0  0
   -0.7104   -3.7590   -1.2386 H   0  0  0  0  0  0  0  0  0  0  0  0
    0.1657   -3.2676    1.0533 H   0  0  0  0  0  0  0  0  0  0  0  0
   -1.5902   -3.2791    1.0523 H   0  0  0  0  0  0  0  0  0  0  0  0
    0.3332   -0.6700    0.8401 H   0  0  0  0  0  0  0  0  0  0  0  0
   -0.6411   -1.4020    2.3686 H   0  0  0  0  0  0  0  0  0  0  0  0
   -1.9023    0.6364    2.4839 H   0  0  0  0  0  0  0  0  0  0  0  0
   -1.1167    1.2166    1.0079 H   0  0  0  0  0  0  0  0  0  0  0  0
   -4.1192    0.6820    1.3207 H   0  0  0  0  0  0  0  0  0  0  0  0
   -3.3337    1.2632   -0.1538 H   0  0  0  0  0  0  0  0  0  0  0  0
   -3.3505    2.2774    1.2980 H   0  0  0  0  0  0  0  0  0  0  0  0
  1  2  1  0
  1  6  1  0
  1  7  1  0
  1 25  1  0
  2  3  1  0
  2  8  1  0
  2  9  1  0
  3  4  1  0
  4  5  1  0
  4 10  1  0
  4 11  1  0
  5  6  1  0
  6 12  1  0
  6 13  1  0
 14 15  1  0
 14 20  1  0
 14 21  1  0
 14 22  1  0
 15 16  1  0
 15 23  1  0
 15 24  1  0
 16 17  1  0
 16 26  1  0
 17 18  1  0
 18 19  1  0
 18 27  1  0
 18 28  1  0
 19 29  1  0
 19 30  1  0
 19 31  1  0
M  RAD  1  16   2
M  END
>  <reaction>  (18) 
rmg_rxn_337

>  <mol_properties>  (18) 
{"0": {"label": "*3", "atom_type": "Cs"}, "1": {"label": "*4", "atom_type": "Cs"}, "15": {"label": "*1", "atom_type": "Cs"}, "16": {"label": "*0", "atom_type": "O2s"}, "24": {"label": "*2", "atom_type": "H0"}}

>  <type>  (18) 
unop_14

>  <geom_source>  (18) 
gaussian_log

$$$$
