
     RDKit          3D

 10  9  0  0  0  0  0  0  0  0999 V2000
   -1.1238    0.2714    0.2496 C   0  0  0  0  0  0  0  0  0  0  0  0
    0.0881   -0.5850   -0.0680 C   0  0  0  0  0  0  0  0  0  0  0  0
   -0.0512   -1.4242   -1.3070 C   0  0  0  0  0  0  0  0  0  0  0  0
   -1.0187   -1.4480   -2.0158 O   0  0  0  0  0  0  0  0  0  0  0  0
   -2.0096   -0.3470    0.3939 H   0  0  0  0  0  0  0  0  0  0  0  0
   -0.9564    0.8523    1.1567 H   0  0  0  0  0  0  0  0  0  0  0  0
   -1.3376    0.9606   -0.5673 H   0  0  0  0  0  0  0  0  0  0  0  0
    0.3267   -1.2715    0.7528 H   0  0  0  0  0  0  0  0  0  0  0  0
    0.9917    0.0222   -0.1983 H   0  0  0  0  0  0  0  0  0  0  0  0
    0.8330   -2.0534   -1.5447 H   0  0  0  0  0  0  0  0  0  0  0  0
  1  2  1  0
  1  5  1  0
  1  6  1  0
  1  7  1  0
  2  3  1  0
  2  8  1  0
  2  9  1  0
  3  4  2  0
  3 10  1  0
M  END
>  <reaction>  (1) 
rmg_rxn_15494

>  <mol_properties>  (1) 
{"0": {"label": "donator", "atom_type": "Cs"}, "4": {"label": "d_hydrogen", "atom_type": "H0"}}

>  <type>  (1) 
r1h

$$$$

     RDKit          3D

  5  4  0  0  0  0  0  0  0  0999 V2000
    0.8934    0.3742    0.4948 O   0  0  0  0  0  0  0  0  0  0  0  0
    0.1582   -0.1610   -0.5904 N   0  0  0  0  0  0  0  0  0  0  0  0
   -1.0297   -0.3739   -0.4689 C   0  0  0  0  0  3  0  0  0  0  0  0
    1.7804    0.4382    0.1306 H   0  0  0  0  0  0  0  0  0  0  0  0
   -1.8023   -0.2775    0.2859 H   0  0  0  0  0  0  0  0  0  0  0  0
  1  2  1  0
  1  4  1  0
  2  3  2  3
  3  5  1  0
M  RAD  1   3   2
M  END
>  <reaction>  (2) 
rmg_rxn_15494

>  <mol_properties>  (2) 
{"2": {"label": "acceptor", "atom_type": "Cd"}}

>  <type>  (2) 
r2

$$$$

     RDKit          3D

  6  5  0  0  0  0  0  0  0  0999 V2000
    1.2314    0.0428    0.5088 O   0  0  0  0  0  0  0  0  0  0  0  0
    0.2987    0.2341   -0.4915 N   0  0  0  0  0  0  0  0  0  0  0  0
   -0.8599   -0.1122   -0.1290 C   0  0  0  0  0  0  0  0  0  0  0  0
    2.0507    0.3401    0.1082 H   0  0  0  0  0  0  0  0  0  0  0  0
   -1.0700   -0.5112    0.8610 H   0  0  0  0  0  0  0  0  0  0  0  0
   -1.6509    0.0064   -0.8574 H   0  0  0  0  0  0  0  0  0  0  0  0
  1  2  1  0
  1  4  1  0
  2  3  2  3
  3  5  1  0
  3  6  1  0
M  END
>  <reaction>  (3) 
rmg_rxn_15494

>  <mol_properties>  (3) 
{"2": {"label": "acceptor", "atom_type": "Cd"}, "5": {"label": "a_hydrogen", "atom_type": "H0"}}

>  <type>  (3) 
r2h

$$$$

     RDKit          3D

 15 13  0  0  0  0  0  0  0  0999 V2000
   -2.6953    0.3920   -1.1505 O   0  0  0  0  0  0  0  0  0  0  0  0
   -1.5929    0.5257   -0.2984 N   0  0  0  0  0  0  0  0  0  0  0  0
   -0.6418    1.1573   -0.7931 C   0  0  0  0  0  3  0  0  0  0  0  0
   -3.3166   -0.1115   -0.6197 H   0  0  0  0  0  0  0  0  0  0  0  0
   -0.5725    1.5936   -1.7886 H   0  0  0  0  0  0  0  0  0  0  0  0
    1.3454    1.1263    0.9776 C   0  0  0  0  0  0  0  0  0  0  0  0
    1.1440   -0.2408    1.5660 C   0  0  0  0  0  0  0  0  0  0  0  0
    1.4968   -1.3697    0.6365 C   0  0  0  0  0  0  0  0  0  0  0  0
    1.9682   -1.2342   -0.4581 O   0  0  0  0  0  0  0  0  0  0  0  0
    0.4491    1.2389    0.0652 H   0  0  0  0  0  0  0  0  0  0  0  0
    1.1339    1.9423    1.6645 H   0  0  0  0  0  0  0  0  0  0  0  0
    2.2853    1.2566    0.4466 H   0  0  0  0  0  0  0  0  0  0  0  0
    0.1030   -0.3890    1.8752 H   0  0  0  0  0  0  0  0  0  0  0  0
    1.7392   -0.3864    2.4779 H   0  0  0  0  0  0  0  0  0  0  0  0
    1.2958   -2.3835    1.0406 H   0  0  0  0  0  0  0  0  0  0  0  0
  1  2  1  0
  1  4  1  0
  2  3  2  3
  3  5  1  0
  6  7  1  0
  6 10  1  0
  6 11  1  0
  6 12  1  0
  7  8  1  0
  7 13  1  0
  7 14  1  0
  8  9  2  0
  8 15  1  0
M  RAD  1   3   2
M  END
>  <reaction>  (4) 
rmg_rxn_15494

>  <mol_properties>  (4) 
{"1": {"label": "*4", "atom_type": "N3d"}, "2": {"label": "*3", "atom_type": "Cd"}, "5": {"label": "*1", "atom_type": "Cs"}, "6": {"label": "*0", "atom_type": "Cs"}, "9": {"label": "*2", "atom_type": "H0"}}

>  <type>  (4) 
ts

$$$$

     RDKit          3D

 15 13  0  0  0  0  0  0  0  0999 V2000
   -3.6762   -0.5500    0.0548 O   0  0  0  0  0  0  0  0  0  0  0  0
   -2.3093   -0.2599   -0.0522 N   0  0  0  0  0  0  0  0  0  0  0  0
   -1.8773    0.8764    0.1664 C   0  0  0  0  0  0  0  0  0  0  0  0
   -3.7446   -1.4917   -0.1577 H   0  0  0  0  0  0  0  0  0  0  0  0
   -2.3896    1.7854    0.4530 H   0  0  0  0  0  0  0  0  0  0  0  0
    0.7219    1.0119   -0.1450 C   0  0  0  0  0  3  0  0  0  0  0  0
    1.2453   -0.3994   -0.1086 C   0  0  0  0  0  0  0  0  0  0  0  0
    2.7210   -0.2616   -0.3859 C   0  0  0  0  0  0  0  0  0  0  0  0
    3.5859   -0.3005    0.4449 O   0  0  0  0  0  0  0  0  0  0  0  0
   -0.5829    0.9590    0.0224 H   0  0  0  0  0  0  0  0  0  0  0  0
    1.0837    1.6278    0.6707 H   0  0  0  0  0  0  0  0  0  0  0  0
    0.8512    1.4997   -1.1055 H   0  0  0  0  0  0  0  0  0  0  0  0
    0.7685   -1.0069   -0.8778 H   0  0  0  0  0  0  0  0  0  0  0  0
    1.0904   -0.8458    0.8731 H   0  0  0  0  0  0  0  0  0  0  0  0
    2.9506   -0.0404   -1.4460 H   0  0  0  0  0  0  0  0  0  0  0  0
  1  2  1  0
  1  4  1  0
  2  3  2  3
  3  5  1  0
  3 10  1  0
  6  7  1  0
  6 11  1  0
  6 12  1  0
  7  8  1  0
  7 13  1  0
  7 14  1  0
  8  9  2  0
  8 15  1  0
M  RAD  1   6   2
M  END
>  <reaction>  (5) 
rmg_rxn_15494

>  <mol_properties>  (5) 
{"1": {"label": "*4", "atom_type": "N3d"}, "2": {"label": "*3", "atom_type": "Cd"}, "5": {"label": "*1", "atom_type": "Cs"}, "6": {"label": "*0", "atom_type": "Cs"}, "9": {"label": "*2", "atom_type": "H0"}}

>  <type>  (5) 
unop_1

>  <geom_source>  (5) 
crest_best.xyz

$$$$

     RDKit          3D

 15 13  0  0  0  0  0  0  0  0999 V2000
   -2.0836    2.1630   -1.6016 O   0  0  0  0  0  0  0  0  0  0  0  0
   -1.6596    1.5748   -0.4263 N   0  0  0  0  0  0  0  0  0  0  0  0
   -0.8832    0.6024   -0.6385 C   0  0  0  0  0  0  0  0  0  0  0  0
   -2.6551    2.8724   -1.3013 H   0  0  0  0  0  0  0  0  0  0  0  0
   -0.5985    0.2867   -1.6400 H   0  0  0  0  0  0  0  0  0  0  0  0
    1.2167    0.4300    0.8952 C   0  0  0  0  0  3  0  0  0  0  0  0
    1.2167   -0.8760    1.6681 C   0  0  0  0  0  0  0  0  0  0  0  0
    1.2167   -2.1079    0.8070 C   0  0  0  0  0  0  0  0  0  0  0  0
    1.2167   -2.1079   -0.3926 O   0  0  0  0  0  0  0  0  0  0  0  0
    0.1629    0.5165    0.1255 H   0  0  0  0  0  0  0  0  0  0  0  0
    1.2167    1.2801    1.5777 H   0  0  0  0  0  0  0  0  0  0  0  0
    2.0950    0.5021    0.2538 H   0  0  0  0  0  0  0  0  0  0  0  0
    0.3477   -0.9552    2.3319 H   0  0  0  0  0  0  0  0  0  0  0  0
    2.0857   -0.9552    2.3319 H   0  0  0  0  0  0  0  0  0  0  0  0
    1.2167   -3.0672    1.3672 H   0  0  0  0  0  0  0  0  0  0  0  0
  1  2  1  0
  1  4  1  0
  2  3  2  3
  3  5  1  0
  3 10  1  0
  6  7  1  0
  6 11  1  0
  6 12  1  0
  7  8  1  0
  7 13  1  0
  7 14  1  0
  8  9  2  0
  8 15  1  0
M  RAD  1   6   2
M  END
>  <reaction>  (6) 
rmg_rxn_15494

>  <mol_properties>  (6) 
{"1": {"label": "*4", "atom_type": "N3d"}, "2": {"label": "*3", "atom_type": "Cd"}, "5": {"label": "*1", "atom_type": "Cs"}, "6": {"label": "*0", "atom_type": "Cs"}, "9": {"label": "*2", "atom_type": "H0"}}

>  <type>  (6) 
unop_2

>  <geom_source>  (6) 
Heuristics

$$$$

     RDKit          3D

 15 13  0  0  0  0  0  0  0  0999 V2000
   -3.6713    0.5556   -0.0527 O   0  0  0  0  0  0  0  0  0  0  0  0
   -2.3051    0.2605    0.0481 N   0  0  0  0  0  0  0  0  0  0  0  0
   -1.8785   -0.8791   -0.1636 C   0  0  0  0  0  0  0  0  0  0  0  0
   -3.7341    1.4995    0.1520 H   0  0  0  0  0  0  0  0  0  0  0  0
   -2.3952   -1.7891   -0.4389 H   0  0  0  0  0  0  0  0  0  0  0  0
    0.7219   -1.0182    0.1350 C   0  0  0  0  0  3  0  0  0  0  0  0
    1.2426    0.3946    0.1183 C   0  0  0  0  0  0  0  0  0  0  0  0
    2.7197    0.2561    0.3872 C   0  0  0  0  0  0  0  0  0  0  0  0
    3.5812    0.3119   -0.4462 O   0  0  0  0  0  0  0  0  0  0  0  0
   -0.5834   -0.9647   -0.0256 H   0  0  0  0  0  0  0  0  0  0  0  0
    1.0814   -1.6206   -0.6917 H   0  0  0  0  0  0  0  0  0  0  0  0
    0.8565   -1.5206    1.0873 H   0  0  0  0  0  0  0  0  0  0  0  0
    0.7679    0.9891    0.8988 H   0  0  0  0  0  0  0  0  0  0  0  0
    1.0824    0.8558   -0.8556 H   0  0  0  0  0  0  0  0  0  0  0  0
    2.9540    0.0162    1.4422 H   0  0  0  0  0  0  0  0  0  0  0  0
  1  2  1  0
  1  4  1  0
  2  3  2  3
  3  5  1  0
  3 10  1  0
  6  7  1  0
  6 11  1  0
  6 12  1  0
  7  8  1  0
  7 13  1  0
  7 14  1  0
  8  9  2  0
  8 15  1  0
M  RAD  1   6   2
M  END
>  <reaction>  (7) 
rmg_rxn_15494

>  <mol_properties>  (7) 
{"1": {"label": "*4", "atom_type": "N3d"}, "2": {"label": "*3", "atom_type": "Cd"}, "5": {"label": "*1", "atom_type": "Cs"}, "6": {"label": "*0", "atom_type": "Cs"}, "9": {"label": "*2", "atom_type": "H0"}}

>  <type>  (7) 
unop_3

>  <geom_source>  (7) 
Heuristics

$$$$

     RDKit          3D

 15 13  0  0  0  0  0  0  0  0999 V2000
   -2.8547    0.9695   -1.0299 O   0  0  0  0  0  0  0  0  0  0  0  0
   -1.7218    0.5094   -0.3880 N   0  0  0  0  0  0  0  0  0  0  0  0
   -0.6802    1.1000   -0.7876 C   0  0  0  0  0  0  0  0  0  0  0  0
   -3.5584    0.4474   -0.6397 H   0  0  0  0  0  0  0  0  0  0  0  0
   -0.7017    1.8763   -1.5495 H   0  0  0  0  0  0  0  0  0  0  0  0
    1.4197    0.9276    0.7462 C   0  0  0  0  0  3  0  0  0  0  0  0
    1.4197   -0.3784    1.5190 C   0  0  0  0  0  0  0  0  0  0  0  0
    1.4197   -1.6103    0.6580 C   0  0  0  0  0  0  0  0  0  0  0  0
    1.4197   -1.6103   -0.5416 O   0  0  0  0  0  0  0  0  0  0  0  0
    0.3659    1.0141   -0.0236 H   0  0  0  0  0  0  0  0  0  0  0  0
    1.4197    1.7776    1.4286 H   0  0  0  0  0  0  0  0  0  0  0  0
    2.2980    0.9997    0.1047 H   0  0  0  0  0  0  0  0  0  0  0  0
    0.5507   -0.4576    2.1828 H   0  0  0  0  0  0  0  0  0  0  0  0
    2.2887   -0.4576    2.1828 H   0  0  0  0  0  0  0  0  0  0  0  0
    1.4197   -2.5696    1.2181 H   0  0  0  0  0  0  0  0  0  0  0  0
  1  2  1  0
  1  4  1  0
  2  3  2  3
  3  5  1  0
  3 10  1  0
  6  7  1  0
  6 11  1  0
  6 12  1  0
  7  8  1  0
  7 13  1  0
  7 14  1  0
  8  9  2  0
  8 15  1  0
M  RAD  1   6   2
M  END
>  <reaction>  (8) 
rmg_rxn_15494

>  <mol_properties>  (8) 
{"1": {"label": "*4", "atom_type": "N3d"}, "2": {"label": "*3", "atom_type": "Cd"}, "5": {"label": "*1", "atom_type": "Cs"}, "6": {"label": "*0", "atom_type": "Cs"}, "9": {"label": "*2", "atom_type": "H0"}}

>  <type>  (8) 
unop_4

>  <geom_source>  (8) 
Heuristics

$$$$

     RDKit          3D

 15 13  0  0  0  0  0  0  0  0999 V2000
   -1.9537    1.8955   -1.9792 O   0  0  0  0  0  0  0  0  0  0  0  0
   -1.4040    1.7893   -0.7168 N   0  0  0  0  0  0  0  0  0  0  0  0
   -0.9638    0.6282   -0.4899 C   0  0  0  0  0  0  0  0  0  0  0  0
   -2.2432    2.8091   -2.0191 H   0  0  0  0  0  0  0  0  0  0  0  0
   -1.0236   -0.1752   -1.2212 H   0  0  0  0  0  0  0  0  0  0  0  0
    1.1362    0.4558    1.0438 C   0  0  0  0  0  3  0  0  0  0  0  0
    1.1362   -0.8502    1.8167 C   0  0  0  0  0  0  0  0  0  0  0  0
    1.1362   -2.0821    0.9556 C   0  0  0  0  0  0  0  0  0  0  0  0
    1.1362   -2.0821   -0.2440 O   0  0  0  0  0  0  0  0  0  0  0  0
    0.0823    0.5423    0.2741 H   0  0  0  0  0  0  0  0  0  0  0  0
    1.1362    1.3058    1.7263 H   0  0  0  0  0  0  0  0  0  0  0  0
    2.0144    0.5279    0.4024 H   0  0  0  0  0  0  0  0  0  0  0  0
    0.2672   -0.9294    2.4805 H   0  0  0  0  0  0  0  0  0  0  0  0
    2.0052   -0.9294    2.4805 H   0  0  0  0  0  0  0  0  0  0  0  0
    1.1362   -3.0414    1.5158 H   0  0  0  0  0  0  0  0  0  0  0  0
  1  2  1  0
  1  4  1  0
  2  3  2  3
  3  5  1  0
  3 10  1  0
  6  7  1  0
  6 11  1  0
  6 12  1  0
  7  8  1  0
  7 13  1  0
  7 14  1  0
  8  9  2  0
  8 15  1  0
M  RAD  1   6   2
M  END
>  <reaction>  (9) 
rmg_rxn_15494

>  <mol_properties>  (9) 
{"1": {"label": "*4", "atom_type": "N3d"}, "2": {"label": "*3", "atom_type": "Cd"}, "5": {"label": "*1", "atom_type": "Cs"}, "6": {"label": "*0", "atom_type": "Cs"}, "9": {"label": "*2", "atom_type": "H0"}}

>  <type>  (9) 
unop_5

>  <geom_source>  (9) 
Heuristics

$$$$

     RDKit          3D

 15 13  0  0  0  0  0  0  0  0999 V2000
   -1.8013    0.7702   -2.3274 O   0  0  0  0  0  0  0  0  0  0  0  0
   -1.1784    0.2927   -1.1911 N   0  0  0  0  0  0  0  0  0  0  0  0
   -1.0443    1.1904   -0.3138 C   0  0  0  0  0  0  0  0  0  0  0  0
   -1.8387    0.0014   -2.8998 H   0  0  0  0  0  0  0  0  0  0  0  0
   -1.3882    2.2118   -0.4623 H   0  0  0  0  0  0  0  0  0  0  0  0
    1.0557    1.0180    1.2199 C   0  0  0  0  0  3  0  0  0  0  0  0
    1.0557   -0.2880    1.9928 C   0  0  0  0  0  0  0  0  0  0  0  0
    1.0557   -1.5199    1.1317 C   0  0  0  0  0  0  0  0  0  0  0  0
    1.0557   -1.5199   -0.0679 O   0  0  0  0  0  0  0  0  0  0  0  0
    0.0018    1.1045    0.4502 H   0  0  0  0  0  0  0  0  0  0  0  0
    1.0557    1.8681    1.9024 H   0  0  0  0  0  0  0  0  0  0  0  0
    1.9339    1.0901    0.5785 H   0  0  0  0  0  0  0  0  0  0  0  0
    0.1867   -0.3672    2.6566 H   0  0  0  0  0  0  0  0  0  0  0  0
    1.9247   -0.3672    2.6566 H   0  0  0  0  0  0  0  0  0  0  0  0
    1.0557   -2.4792    1.6919 H   0  0  0  0  0  0  0  0  0  0  0  0
  1  2  1  0
  1  4  1  0
  2  3  2  3
  3  5  1  0
  3 10  1  0
  6  7  1  0
  6 11  1  0
  6 12  1  0
  7  8  1  0
  7 13  1  0
  7 14  1  0
  8  9  2  0
  8 15  1  0
M  RAD  1   6   2
M  END
>  <reaction>  (10) 
rmg_rxn_15494

>  <mol_properties>  (10) 
{"1": {"label": "*4", "atom_type": "N3d"}, "2": {"label": "*3", "atom_type": "Cd"}, "5": {"label": "*1", "atom_type": "Cs"}, "6": {"label": "*0", "atom_type": "Cs"}, "9": {"label": "*2", "atom_type": "H0"}}

>  <type>  (10) 
unop_6

>  <geom_source>  (10) 
Heuristics

$$$$

     RDKit          3D

 15 13  0  0  0  0  0  0  0  0999 V2000
   -3.6687   -0.5584   -0.0528 O   0  0  0  0  0  0  0  0  0  0  0  0
   -2.3022   -0.2625    0.0427 N   0  0  0  0  0  0  0  0  0  0  0  0
   -1.8791    0.8803   -0.1584 C   0  0  0  0  0  0  0  0  0  0  0  0
   -3.7290   -1.5048    0.1404 H   0  0  0  0  0  0  0  0  0  0  0  0
   -2.4000    1.7921   -0.4198 H   0  0  0  0  0  0  0  0  0  0  0  0
    0.7233    1.0226    0.1208 C   0  0  0  0  0  3  0  0  0  0  0  0
    1.2418   -0.3909    0.1412 C   0  0  0  0  0  0  0  0  0  0  0  0
    2.7221   -0.2459    0.3883 C   0  0  0  0  0  0  0  0  0  0  0  0
    3.5732   -0.3252   -0.4537 O   0  0  0  0  0  0  0  0  0  0  0  0
   -0.5835    0.9671   -0.0284 H   0  0  0  0  0  0  0  0  0  0  0  0
    0.8661    1.5526    1.0567 H   0  0  0  0  0  0  0  0  0  0  0  0
    1.0769    1.5998   -0.7261 H   0  0  0  0  0  0  0  0  0  0  0  0
    1.0695   -0.8811   -0.8163 H   0  0  0  0  0  0  0  0  0  0  0  0
    0.7757   -0.9607    0.9448 H   0  0  0  0  0  0  0  0  0  0  0  0
    2.9695    0.0218    1.4335 H   0  0  0  0  0  0  0  0  0  0  0  0
  1  2  1  0
  1  4  1  0
  2  3  2  3
  3  5  1  0
  3 10  1  0
  6  7  1  0
  6 11  1  0
  6 12  1  0
  7  8  1  0
  7 13  1  0
  7 14  1  0
  8  9  2  0
  8 15  1  0
M  RAD  1   6   2
M  END
>  <reaction>  (11) 
rmg_rxn_15494

>  <mol_properties>  (11) 
{"1": {"label": "*4", "atom_type": "N3d"}, "2": {"label": "*3", "atom_type": "Cd"}, "5": {"label": "*1", "atom_type": "Cs"}, "6": {"label": "*0", "atom_type": "Cs"}, "9": {"label": "*2", "atom_type": "H0"}}

>  <type>  (11) 
unop_7

>  <geom_source>  (11) 
Heuristics

$$$$

     RDKit          3D

 15 13  0  0  0  0  0  0  0  0999 V2000
   -2.2139    1.7220   -1.9006 O   0  0  0  0  0  0  0  0  0  0  0  0
   -1.0705    1.7309   -1.1263 N   0  0  0  0  0  0  0  0  0  0  0  0
   -0.9624    0.6822   -0.4320 C   0  0  0  0  0  0  0  0  0  0  0  0
   -2.1724    2.5588   -2.3675 H   0  0  0  0  0  0  0  0  0  0  0  0
   -1.6984   -0.1184   -0.4601 H   0  0  0  0  0  0  0  0  0  0  0  0
    1.1376    0.5099    1.1018 C   0  0  0  0  0  3  0  0  0  0  0  0
    1.1376   -0.7962    1.8746 C   0  0  0  0  0  0  0  0  0  0  0  0
    1.1376   -2.0281    1.0136 C   0  0  0  0  0  0  0  0  0  0  0  0
    1.1376   -2.0281   -0.1860 O   0  0  0  0  0  0  0  0  0  0  0  0
    0.0837    0.5964    0.3320 H   0  0  0  0  0  0  0  0  0  0  0  0
    1.1376    1.3599    1.7842 H   0  0  0  0  0  0  0  0  0  0  0  0
    2.0158    0.5820    0.4603 H   0  0  0  0  0  0  0  0  0  0  0  0
    0.2686   -0.8753    2.5384 H   0  0  0  0  0  0  0  0  0  0  0  0
    2.0066   -0.8753    2.5384 H   0  0  0  0  0  0  0  0  0  0  0  0
    1.1376   -2.9874    1.5738 H   0  0  0  0  0  0  0  0  0  0  0  0
  1  2  1  0
  1  4  1  0
  2  3  2  3
  3  5  1  0
  3 10  1  0
  6  7  1  0
  6 11  1  0
  6 12  1  0
  7  8  1  0
  7 13  1  0
  7 14  1  0
  8  9  2  0
  8 15  1  0
M  RAD  1   6   2
M  END
>  <reaction>  (12) 
rmg_rxn_15494

>  <mol_properties>  (12) 
{"1": {"label": "*4", "atom_type": "N3d"}, "2": {"label": "*3", "atom_type": "Cd"}, "5": {"label": "*1", "atom_type": "Cs"}, "6": {"label": "*0", "atom_type": "Cs"}, "9": {"label": "*2", "atom_type": "H0"}}

>  <type>  (12) 
unop_8

>  <geom_source>  (12) 
Heuristics

$$$$

     RDKit          3D

 15 13  0  0  0  0  0  0  0  0999 V2000
   -3.6745   -0.5530   -0.0536 O   0  0  0  0  0  0  0  0  0  0  0  0
   -2.3072   -0.2621    0.0452 N   0  0  0  0  0  0  0  0  0  0  0  0
   -1.8787    0.8780   -0.1600 C   0  0  0  0  0  0  0  0  0  0  0  0
   -3.7392   -1.4981    0.1445 H   0  0  0  0  0  0  0  0  0  0  0  0
   -2.3946    1.7906   -0.4278 H   0  0  0  0  0  0  0  0  0  0  0  0
    0.7229    1.0161    0.1290 C   0  0  0  0  0  3  0  0  0  0  0  0
    1.2452   -0.3962    0.1298 C   0  0  0  0  0  0  0  0  0  0  0  0
    2.7236   -0.2507    0.3876 C   0  0  0  0  0  0  0  0  0  0  0  0
    3.5798   -0.3141   -0.4507 O   0  0  0  0  0  0  0  0  0  0  0  0
   -0.5832    0.9610   -0.0259 H   0  0  0  0  0  0  0  0  0  0  0  0
    0.8607    1.5319    1.0736 H   0  0  0  0  0  0  0  0  0  0  0  0
    1.0789    1.6072   -0.7074 H   0  0  0  0  0  0  0  0  0  0  0  0
    1.0797   -0.8718   -0.8362 H   0  0  0  0  0  0  0  0  0  0  0  0
    0.7763   -0.9799    0.9220 H   0  0  0  0  0  0  0  0  0  0  0  0
    2.9641    0.0025    1.4380 H   0  0  0  0  0  0  0  0  0  0  0  0
  1  2  1  0
  1  4  1  0
  2  3  2  3
  3  5  1  0
  3 10  1  0
  6  7  1  0
  6 11  1  0
  6 12  1  0
  7  8  1  0
  7 13  1  0
  7 14  1  0
  8  9  2  0
  8 15  1  0
M  RAD  1   6   2
M  END
>  <reaction>  (13) 
rmg_rxn_15494

>  <mol_properties>  (13) 
{"1": {"label": "*4", "atom_type": "N3d"}, "2": {"label": "*3", "atom_type": "Cd"}, "5": {"label": "*1", "atom_type": "Cs"}, "6": {"label": "*0", "atom_type": "Cs"}, "9": {"label": "*2", "atom_type": "H0"}}

>  <type>  (13) 
unop_9

>  <geom_source>  (13) 
Heuristics

$$$$

     RDKit          3D

 15 13  0  0  0  0  0  0  0  0999 V2000
   -1.6203    1.3506   -2.3647 O   0  0  0  0  0  0  0  0  0  0  0  0
   -1.0058    0.5410   -1.4299 N   0  0  0  0  0  0  0  0  0  0  0  0
   -1.1218    0.9995   -0.2594 C   0  0  0  0  0  0  0  0  0  0  0  0
   -1.4593    0.8949   -3.1932 H   0  0  0  0  0  0  0  0  0  0  0  0
   -1.6492    1.9258   -0.0418 H   0  0  0  0  0  0  0  0  0  0  0  0
    0.9781    0.8271    1.2743 C   0  0  0  0  0  3  0  0  0  0  0  0
    0.9781   -0.4789    2.0472 C   0  0  0  0  0  0  0  0  0  0  0  0
    0.9781   -1.7108    1.1861 C   0  0  0  0  0  0  0  0  0  0  0  0
    0.9781   -1.7108   -0.0134 O   0  0  0  0  0  0  0  0  0  0  0  0
   -0.0757    0.9136    0.5046 H   0  0  0  0  0  0  0  0  0  0  0  0
    0.9781    1.6771    1.9568 H   0  0  0  0  0  0  0  0  0  0  0  0
    1.8564    0.8992    0.6329 H   0  0  0  0  0  0  0  0  0  0  0  0
    0.1091   -0.5581    2.7110 H   0  0  0  0  0  0  0  0  0  0  0  0
    1.8471   -0.5581    2.7110 H   0  0  0  0  0  0  0  0  0  0  0  0
    0.9781   -2.6701    1.7463 H   0  0  0  0  0  0  0  0  0  0  0  0
  1  2  1  0
  1  4  1  0
  2  3  2  3
  3  5  1  0
  3 10  1  0
  6  7  1  0
  6 11  1  0
  6 12  1  0
  7  8  1  0
  7 13  1  0
  7 14  1  0
  8  9  2  0
  8 15  1  0
M  RAD  1   6   2
M  END
>  <reaction>  (14) 
rmg_rxn_15494

>  <mol_properties>  (14) 
{"1": {"label": "*4", "atom_type": "N3d"}, "2": {"label": "*3", "atom_type": "Cd"}, "5": {"label": "*1", "atom_type": "Cs"}, "6": {"label": "*0", "atom_type": "Cs"}, "9": {"label": "*2", "atom_type": "H0"}}

>  <type>  (14) 
unop_10

>  <geom_source>  (14) 
Heuristics

$$$$

     RDKit          3D

 15 14  0  0  0  0  0  0  0  0999 V2000
   -1.9981   -0.3196   -0.2233 O   0  0  0  0  0  0  0  0  0  0  0  0
   -0.7507   -0.7115    0.0596 N   0  0  0  0  0  0  0  0  0  0  0  0
   -0.1937   -1.8235    0.1238 C   0  0  0  0  0  2  0  0  0  0  0  0
   -1.8629    0.7385   -0.2206 H   0  0  0  0  0  0  0  0  0  0  0  0
   -0.5742   -2.7588   -0.0371 H   0  0  0  0  0  0  0  0  0  0  0  0
    2.1498   -0.6598    0.0290 C   0  0  0  0  0  0  0  0  0  0  0  0
    1.5077    0.6449   -0.3752 C   0  0  0  0  0  0  0  0  0  0  0  0
    0.2047    0.9142    0.3725 C   0  0  0  0  0  0  0  0  0  0  0  0
   -0.5970    1.7843    0.0560 O   0  0  0  0  0  1  0  0  0  0  0  0
    1.1094   -1.4709    0.1159 H   0  0  0  0  0  0  0  0  0  0  0  0
    2.8652   -1.0502   -0.7261 H   0  0  0  0  0  0  0  0  0  0  0  0
    2.5664   -0.6566    1.0488 H   0  0  0  0  0  0  0  0  0  0  0  0
    1.3149    0.6916   -1.4598 H   0  0  0  0  0  0  0  0  0  0  0  0
    2.1658    1.4849   -0.1288 H   0  0  0  0  0  0  0  0  0  0  0  0
    0.3257    0.6725    1.4461 H   0  0  0  0  0  0  0  0  0  0  0  0
  1  2  1  0
  1  4  1  0
  2  3  1  0
  2  8  1  0
  3  5  1  0
  6 12  1  0
  6 10  1  0
  6 11  1  0
  6  7  1  0
  7 14  1  0
  7  8  1  0
  7 13  1  0
  8 15  1  0
  8  9  1  0
M  RAD  2   3   3   9   2
M  END
>  <reaction>  (15) 
rmg_rxn_15494

>  <mol_properties>  (15) 
{"1": {"label": "*4", "atom_type": "N3d"}, "2": {"label": "*3", "atom_type": "Cd"}, "5": {"label": "*1", "atom_type": "Cs"}, "6": {"label": "*0", "atom_type": "Cs"}, "9": {"label": "*2", "atom_type": "H0"}}

>  <type>  (15) 
unop_11

>  <geom_source>  (15) 
Heuristics

$$$$

     RDKit          3D

 15 13  0  0  0  0  0  0  0  0999 V2000
   -1.7297    1.8558   -2.1207 O   0  0  0  0  0  0  0  0  0  0  0  0
   -0.9014    0.9167   -1.5384 N   0  0  0  0  0  0  0  0  0  0  0  0
   -1.1144    0.8031   -0.2994 C   0  0  0  0  0  0  0  0  0  0  0  0
   -1.4674    1.8416   -3.0433 H   0  0  0  0  0  0  0  0  0  0  0  0
   -1.8683    1.3888    0.2224 H   0  0  0  0  0  0  0  0  0  0  0  0
    0.9855    0.6307    1.2344 C   0  0  0  0  0  3  0  0  0  0  0  0
    0.9855   -0.6753    2.0072 C   0  0  0  0  0  0  0  0  0  0  0  0
    0.9855   -1.9072    1.1462 C   0  0  0  0  0  0  0  0  0  0  0  0
    0.9855   -1.9072   -0.0534 O   0  0  0  0  0  0  0  0  0  0  0  0
   -0.0684    0.7172    0.4646 H   0  0  0  0  0  0  0  0  0  0  0  0
    0.9855    1.4808    1.9168 H   0  0  0  0  0  0  0  0  0  0  0  0
    1.8637    0.7028    0.5929 H   0  0  0  0  0  0  0  0  0  0  0  0
    0.1165   -0.7545    2.6710 H   0  0  0  0  0  0  0  0  0  0  0  0
    1.8545   -0.7545    2.6710 H   0  0  0  0  0  0  0  0  0  0  0  0
    0.9855   -2.8665    1.7063 H   0  0  0  0  0  0  0  0  0  0  0  0
  1  2  1  0
  1  4  1  0
  2  3  2  3
  3  5  1  0
  3 10  1  0
  6  7  1  0
  6 11  1  0
  6 12  1  0
  7  8  1  0
  7 13  1  0
  7 14  1  0
  8  9  2  0
  8 15  1  0
M  RAD  1   6   2
M  END
>  <reaction>  (16) 
rmg_rxn_15494

>  <mol_properties>  (16) 
{"1": {"label": "*4", "atom_type": "N3d"}, "2": {"label": "*3", "atom_type": "Cd"}, "5": {"label": "*1", "atom_type": "Cs"}, "6": {"label": "*0", "atom_type": "Cs"}, "9": {"label": "*2", "atom_type": "H0"}}

>  <type>  (16) 
unop_12

>  <geom_source>  (16) 
Heuristics

$$$$

     RDKit          3D

 15 13  0  0  0  0  0  0  0  0999 V2000
   -2.4382    2.0605   -1.1652 O   0  0  0  0  0  0  0  0  0  0  0  0
   -1.7960    1.2268   -0.2709 N   0  0  0  0  0  0  0  0  0  0  0  0
   -0.7694    0.6937   -0.7762 C   0  0  0  0  0  0  0  0  0  0  0  0
   -3.1847    2.3924   -0.6626 H   0  0  0  0  0  0  0  0  0  0  0  0
   -0.4513    0.8862   -1.7986 H   0  0  0  0  0  0  0  0  0  0  0  0
    1.3305    0.5213    0.7576 C   0  0  0  0  0  3  0  0  0  0  0  0
    1.3305   -0.7847    1.5304 C   0  0  0  0  0  0  0  0  0  0  0  0
    1.3305   -2.0166    0.6694 C   0  0  0  0  0  0  0  0  0  0  0  0
    1.3305   -2.0166   -0.5302 O   0  0  0  0  0  0  0  0  0  0  0  0
    0.2766    0.6078   -0.0122 H   0  0  0  0  0  0  0  0  0  0  0  0
    1.3305    1.3713    1.4400 H   0  0  0  0  0  0  0  0  0  0  0  0
    2.2087    0.5934    0.1161 H   0  0  0  0  0  0  0  0  0  0  0  0
    0.4615   -0.8639    2.1942 H   0  0  0  0  0  0  0  0  0  0  0  0
    2.1995   -0.8639    2.1942 H   0  0  0  0  0  0  0  0  0  0  0  0
    1.3305   -2.9759    1.2295 H   0  0  0  0  0  0  0  0  0  0  0  0
  1  2  1  0
  1  4  1  0
  2  3  2  3
  3  5  1  0
  3 10  1  0
  6  7  1  0
  6 11  1  0
  6 12  1  0
  7  8  1  0
  7 13  1  0
  7 14  1  0
  8  9  2  0
  8 15  1  0
M  RAD  1   6   2
M  END
>  <reaction>  (17) 
rmg_rxn_15494

>  <mol_properties>  (17) 
{"1": {"label": "*4", "atom_type": "N3d"}, "2": {"label": "*3", "atom_type": "Cd"}, "5": {"label": "*1", "atom_type": "Cs"}, "6": {"label": "*0", "atom_type": "Cs"}, "9": {"label": "*2", "atom_type": "H0"}}

>  <type>  (17) 
unop_13

>  <geom_source>  (17) 
Heuristics

$$$$

     RDKit          3D

 15 13  0  0  0  0  0  0  0  0999 V2000
   -3.6762   -0.5500    0.0548 O   0  0  0  0  0  0  0  0  0  0  0  0
   -2.3093   -0.2599   -0.0522 N   0  0  0  0  0  0  0  0  0  0  0  0
   -1.8773    0.8764    0.1664 C   0  0  0  0  0  0  0  0  0  0  0  0
   -3.7446   -1.4917   -0.1577 H   0  0  0  0  0  0  0  0  0  0  0  0
   -2.3896    1.7854    0.4530 H   0  0  0  0  0  0  0  0  0  0  0  0
    0.7219    1.0119   -0.1450 C   0  0  0  0  0  3  0  0  0  0  0  0
    1.2453   -0.3994   -0.1086 C   0  0  0  0  0  0  0  0  0  0  0  0
    2.7210   -0.2616   -0.3859 C   0  0  0  0  0  0  0  0  0  0  0  0
    3.5859   -0.3005    0.4449 O   0  0  0  0  0  0  0  0  0  0  0  0
   -0.5829    0.9590    0.0224 H   0  0  0  0  0  0  0  0  0  0  0  0
    1.0837    1.6278    0.6707 H   0  0  0  0  0  0  0  0  0  0  0  0
    0.8512    1.4997   -1.1055 H   0  0  0  0  0  0  0  0  0  0  0  0
    0.7685   -1.0069   -0.8778 H   0  0  0  0  0  0  0  0  0  0  0  0
    1.0904   -0.8458    0.8731 H   0  0  0  0  0  0  0  0  0  0  0  0
    2.9506   -0.0404   -1.4460 H   0  0  0  0  0  0  0  0  0  0  0  0
  1  2  1  0
  1  4  1  0
  2  3  2  3
  3  5  1  0
  3 10  1  0
  6  7  1  0
  6 11  1  0
  6 12  1  0
  7  8  1  0
  7 13  1  0
  7 14  1  0
  8  9  2  0
  8 15  1  0
M  RAD  1   6   2
M  END
>  <reaction>  (18) 
rmg_rxn_15494

>  <mol_properties>  (18) 
{"1": {"label": "*4", "atom_type": "N3d"}, "2": {"label": "*3", "atom_type": "Cd"}, "5": {"label": "*1", "atom_type": "Cs"}, "6": {"label": "*0", "atom_type": "Cs"}, "9": {"label": "*2", "atom_type": "H0"}}

>  <type>  (18) 
unop_14

>  <geom_source>  (18) 
Heuristics

$$$$

     RDKit          3D

 15 13  0  0  0  0  0  0  0  0999 V2000
   -2.2069    0.4072   -1.9800 O   0  0  0  0  0  0  0  0  0  0  0  0
   -1.3766    0.2097   -0.8944 N   0  0  0  0  0  0  0  0  0  0  0  0
   -0.9062    1.2961   -0.4562 C   0  0  0  0  0  0  0  0  0  0  0  0
   -2.4891   -0.4807   -2.2081 H   0  0  0  0  0  0  0  0  0  0  0  0
   -1.1439    2.2601   -0.9009 H   0  0  0  0  0  0  0  0  0  0  0  0
    1.1938    1.1237    1.0776 C   0  0  0  0  0  3  0  0  0  0  0  0
    1.1937   -0.1823    1.8504 C   0  0  0  0  0  0  0  0  0  0  0  0
    1.1937   -1.4142    0.9894 C   0  0  0  0  0  0  0  0  0  0  0  0
    1.1937   -1.4142   -0.2102 O   0  0  0  0  0  0  0  0  0  0  0  0
    0.1399    1.2102    0.3079 H   0  0  0  0  0  0  0  0  0  0  0  0
    1.1938    1.9738    1.7601 H   0  0  0  0  0  0  0  0  0  0  0  0
    2.0720    1.1958    0.4362 H   0  0  0  0  0  0  0  0  0  0  0  0
    0.3247   -0.2614    2.5143 H   0  0  0  0  0  0  0  0  0  0  0  0
    2.0627   -0.2614    2.5143 H   0  0  0  0  0  0  0  0  0  0  0  0
    1.1937   -2.3735    1.5496 H   0  0  0  0  0  0  0  0  0  0  0  0
  1  2  1  0
  1  4  1  0
  2  3  2  3
  3  5  1  0
  3 10  1  0
  6  7  1  0
  6 11  1  0
  6 12  1  0
  7  8  1  0
  7 13  1  0
  7 14  1  0
  8  9  2  0
  8 15  1  0
M  RAD  1   6   2
M  END
>  <reaction>  (19) 
rmg_rxn_15494

>  <mol_properties>  (19) 
{"1": {"label": "*4", "atom_type": "N3d"}, "2": {"label": "*3", "atom_type": "Cd"}, "5": {"label": "*1", "atom_type": "Cs"}, "6": {"label": "*0", "atom_type": "Cs"}, "9": {"label": "*2", "atom_type": "H0"}}

>  <type>  (19) 
unop_15

>  <geom_source>  (19) 
Heuristics

$$$$

     RDKit          3D

 15 13  0  0  0  0  0  0  0  0999 V2000
   -2.7565    1.5992   -0.9265 O   0  0  0  0  0  0  0  0  0  0  0  0
   -1.8113    0.8420   -0.2630 N   0  0  0  0  0  0  0  0  0  0  0  0
   -0.6876    0.8809   -0.8369 C   0  0  0  0  0  0  0  0  0  0  0  0
   -3.5465    1.4837   -0.3950 H   0  0  0  0  0  0  0  0  0  0  0  0
   -0.5128    1.4520   -1.7462 H   0  0  0  0  0  0  0  0  0  0  0  0
    1.4123    0.7085    0.6969 C   0  0  0  0  0  3  0  0  0  0  0  0
    1.4123   -0.5975    1.4697 C   0  0  0  0  0  0  0  0  0  0  0  0
    1.4123   -1.8294    0.6087 C   0  0  0  0  0  0  0  0  0  0  0  0
    1.4123   -1.8294   -0.5909 O   0  0  0  0  0  0  0  0  0  0  0  0
    0.3584    0.7950   -0.0729 H   0  0  0  0  0  0  0  0  0  0  0  0
    1.4123    1.5585    1.3793 H   0  0  0  0  0  0  0  0  0  0  0  0
    2.2905    0.7806    0.0554 H   0  0  0  0  0  0  0  0  0  0  0  0
    0.5433   -0.6767    2.1335 H   0  0  0  0  0  0  0  0  0  0  0  0
    2.2813   -0.6767    2.1335 H   0  0  0  0  0  0  0  0  0  0  0  0
    1.4123   -2.7887    1.1688 H   0  0  0  0  0  0  0  0  0  0  0  0
  1  2  1  0
  1  4  1  0
  2  3  2  3
  3  5  1  0
  3 10  1  0
  6  7  1  0
  6 11  1  0
  6 12  1  0
  7  8  1  0
  7 13  1  0
  7 14  1  0
  8  9  2  0
  8 15  1  0
M  RAD  1   6   2
M  END
>  <reaction>  (20) 
rmg_rxn_15494

>  <mol_properties>  (20) 
{"1": {"label": "*4", "atom_type": "N3d"}, "2": {"label": "*3", "atom_type": "Cd"}, "5": {"label": "*1", "atom_type": "Cs"}, "6": {"label": "*0", "atom_type": "Cs"}, "9": {"label": "*2", "atom_type": "H0"}}

>  <type>  (20) 
unop_16

>  <geom_source>  (20) 
Heuristics

$$$$

     RDKit          3D

 15 13  0  0  0  0  0  0  0  0999 V2000
   -2.0689    1.9955   -1.8102 O   0  0  0  0  0  0  0  0  0  0  0  0
   -0.8996    1.3515   -1.4566 N   0  0  0  0  0  0  0  0  0  0  0  0
   -1.0306    0.6862   -0.3919 C   0  0  0  0  0  0  0  0  0  0  0  0
   -1.8339    2.4539   -2.6194 H   0  0  0  0  0  0  0  0  0  0  0  0
   -1.9663    0.6430    0.1615 H   0  0  0  0  0  0  0  0  0  0  0  0
    1.0693    0.5138    1.1419 C   0  0  0  0  0  3  0  0  0  0  0  0
    1.0693   -0.7922    1.9147 C   0  0  0  0  0  0  0  0  0  0  0  0
    1.0693   -2.0241    1.0537 C   0  0  0  0  0  0  0  0  0  0  0  0
    1.0693   -2.0241   -0.1459 O   0  0  0  0  0  0  0  0  0  0  0  0
    0.0154    0.6003    0.3721 H   0  0  0  0  0  0  0  0  0  0  0  0
    1.0693    1.3639    1.8243 H   0  0  0  0  0  0  0  0  0  0  0  0
    1.9475    0.5859    0.5004 H   0  0  0  0  0  0  0  0  0  0  0  0
    0.2003   -0.8714    2.5785 H   0  0  0  0  0  0  0  0  0  0  0  0
    1.9383   -0.8714    2.5785 H   0  0  0  0  0  0  0  0  0  0  0  0
    1.0693   -2.9834    1.6139 H   0  0  0  0  0  0  0  0  0  0  0  0
  1  2  1  0
  1  4  1  0
  2  3  2  3
  3  5  1  0
  3 10  1  0
  6  7  1  0
  6 11  1  0
  6 12  1  0
  7  8  1  0
  7 13  1  0
  7 14  1  0
  8  9  2  0
  8 15  1  0
M  RAD  1   6   2
M  END
>  <reaction>  (21) 
rmg_rxn_15494

>  <mol_properties>  (21) 
{"1": {"label": "*4", "atom_type": "N3d"}, "2": {"label": "*3", "atom_type": "Cd"}, "5": {"label": "*1", "atom_type": "Cs"}, "6": {"label": "*0", "atom_type": "Cs"}, "9": {"label": "*2", "atom_type": "H0"}}

>  <type>  (21) 
unop_17

>  <geom_source>  (21) 
Heuristics

$$$$

     RDKit          3D

 15 13  0  0  0  0  0  0  0  0999 V2000
   -2.6402    0.4801   -1.4564 O   0  0  0  0  0  0  0  0  0  0  0  0
   -1.5655    0.2891   -0.6105 N   0  0  0  0  0  0  0  0  0  0  0  0
   -0.7630    1.2630   -0.6397 C   0  0  0  0  0  0  0  0  0  0  0  0
   -3.1599   -0.3175   -1.3387 H   0  0  0  0  0  0  0  0  0  0  0  0
   -0.9240    2.1373   -1.2669 H   0  0  0  0  0  0  0  0  0  0  0  0
    1.3370    1.0907    0.8940 C   0  0  0  0  0  3  0  0  0  0  0  0
    1.3370   -0.2154    1.6669 C   0  0  0  0  0  0  0  0  0  0  0  0
    1.3370   -1.4473    0.8058 C   0  0  0  0  0  0  0  0  0  0  0  0
    1.3370   -1.4473   -0.3937 O   0  0  0  0  0  0  0  0  0  0  0  0
    0.2831    1.1772    0.1243 H   0  0  0  0  0  0  0  0  0  0  0  0
    1.3370    1.9407    1.5765 H   0  0  0  0  0  0  0  0  0  0  0  0
    2.2152    1.1627    0.2526 H   0  0  0  0  0  0  0  0  0  0  0  0
    0.4680   -0.2945    2.3307 H   0  0  0  0  0  0  0  0  0  0  0  0
    2.2060   -0.2945    2.3307 H   0  0  0  0  0  0  0  0  0  0  0  0
    1.3370   -2.4066    1.3660 H   0  0  0  0  0  0  0  0  0  0  0  0
  1  2  1  0
  1  4  1  0
  2  3  2  3
  3  5  1  0
  3 10  1  0
  6  7  1  0
  6 11  1  0
  6 12  1  0
  7  8  1  0
  7 13  1  0
  7 14  1  0
  8  9  2  0
  8 15  1  0
M  RAD  1   6   2
M  END
>  <reaction>  (22) 
rmg_rxn_15494

>  <mol_properties>  (22) 
{"1": {"label": "*4", "atom_type": "N3d"}, "2": {"label": "*3", "atom_type": "Cd"}, "5": {"label": "*1", "atom_type": "Cs"}, "6": {"label": "*0", "atom_type": "Cs"}, "9": {"label": "*2", "atom_type": "H0"}}

>  <type>  (22) 
unop_18

>  <geom_source>  (22) 
Heuristics

$$$$

     RDKit          3D

 15 13  0  0  0  0  0  0  0  0999 V2000
    3.3820    0.8112    0.2103 O   0  0  0  0  0  0  0  0  0  0  0  0
   -1.4185    1.9105    0.6875 O   0  0  0  0  0  0  0  0  0  0  0  0
    2.2840    0.0927    0.6339 N   0  0  0  0  0  0  0  0  0  0  0  0
   -1.6760   -0.2487   -0.2392 C   0  0  0  0  0  0  0  0  0  0  0  0
   -0.8869   -1.0307    0.8008 C   0  0  0  0  0  3  0  0  0  0  0  0
   -1.2303    1.1803   -0.2727 C   0  0  0  0  0  0  0  0  0  0  0  0
    1.4001   -0.3551   -0.1987 C   0  0  0  0  0  0  0  0  0  0  0  0
   -1.5068   -0.7056   -1.2373 H   0  0  0  0  0  0  0  0  0  0  0  0
   -2.7615   -0.2980   -0.0066 H   0  0  0  0  0  0  0  0  0  0  0  0
   -0.7499    1.5773   -1.1611 H   0  0  0  0  0  0  0  0  0  0  0  0
   -1.1627   -2.1053    0.7558 H   0  0  0  0  0  0  0  0  0  0  0  0
   -1.0979   -0.6452    1.8213 H   0  0  0  0  0  0  0  0  0  0  0  0
    1.4980   -0.1768   -1.2621 H   0  0  0  0  0  0  0  0  0  0  0  0
    0.3898   -1.0216    0.2393 H   0  0  0  0  0  0  0  0  0  0  0  0
    3.5366    1.0150   -0.7710 H   0  0  0  0  0  0  0  0  0  0  0  0
  1  3  1  0
  1 15  1  0
  2  6  2  0
  3  7  2  3
  4  5  1  0
  4  6  1  0
  4  8  1  0
  4  9  1  0
  5 11  1  0
  5 12  1  0
  6 10  1  0
  7 13  1  0
  7 14  1  0
M  RAD  1   5   2
M  END
>  <reaction>  (23) 
rmg_rxn_15494

>  <mol_properties>  (23) 
{"1": {"label": "*4", "atom_type": "N3d"}, "2": {"label": "*3", "atom_type": "Cd"}, "5": {"label": "*1", "atom_type": "Cs"}, "6": {"label": "*0", "atom_type": "Cs"}, "9": {"label": "*2", "atom_type": "H0"}}

>  <type>  (23) 
unop_19

>  <geom_source>  (23) 
AutoTST

$$$$

     RDKit          3D

 15 13  0  0  0  0  0  0  0  0999 V2000
   -2.8547    0.9695   -1.0299 O   0  0  0  0  0  0  0  0  0  0  0  0
   -1.7218    0.5094   -0.3880 N   0  0  0  0  0  0  0  0  0  0  0  0
   -0.6802    1.1000   -0.7876 C   0  0  0  0  0  0  0  0  0  0  0  0
   -3.5584    0.4474   -0.6397 H   0  0  0  0  0  0  0  0  0  0  0  0
   -0.7017    1.8763   -1.5495 H   0  0  0  0  0  0  0  0  0  0  0  0
    1.4197    0.9276    0.7461 C   0  0  0  0  0  3  0  0  0  0  0  0
    1.4197   -0.3784    1.5190 C   0  0  0  0  0  0  0  0  0  0  0  0
    1.4197   -1.6103    0.6580 C   0  0  0  0  0  0  0  0  0  0  0  0
    1.4197   -1.6103   -0.5416 O   0  0  0  0  0  0  0  0  0  0  0  0
    0.3659    1.0141   -0.0236 H   0  0  0  0  0  0  0  0  0  0  0  0
    1.4197    1.7776    1.4286 H   0  0  0  0  0  0  0  0  0  0  0  0
    2.2980    0.9997    0.1047 H   0  0  0  0  0  0  0  0  0  0  0  0
    0.5507   -0.4576    2.1828 H   0  0  0  0  0  0  0  0  0  0  0  0
    2.2887   -0.4576    2.1828 H   0  0  0  0  0  0  0  0  0  0  0  0
    1.4197   -2.5696    1.2182 H   0  0  0  0  0  0  0  0  0  0  0  0
  1  2  1  0
  1  4  1  0
  2  3  2  3
  3  5  1  0
  3 10  1  0
  6  7  1  0
  6 11  1  0
  6 12  1  0
  7  8  1  0
  7 13  1  0
  7 14  1  0
  8  9  2  0
  8 15  1  0
M  RAD  1   6   2
M  END
>  <reaction>  (24) 
rmg_rxn_15494

>  <mol_properties>  (24) 
{"1": {"label": "*4", "atom_type": "N3d"}, "2": {"label": "*3", "atom_type": "Cd"}, "5": {"label": "*1", "atom_type": "Cs"}, "6": {"label": "*0", "atom_type": "Cs"}, "9": {"label": "*2", "atom_type": "H0"}}

>  <type>  (24) 
unop_20

>  <geom_source>  (24) 
gaussian_log

$$$$
