
     RDKit          3D

 15 14  0  0  0  0  0  0  0  0999 V2000
   -2.0554    0.0723   -0.4910 C   0  0  0  0  0  0  0  0  0  0  0  0
   -0.7461   -0.6266   -0.8178 C   0  0  0  0  0  0  0  0  0  0  0  0
    0.3249    0.2591   -1.9782 S   0  0  0  0  0  0  0  0  0  0  0  0
   -0.7172    0.3642   -3.4551 C   0  0  0  0  0  0  0  0  0  0  0  0
   -1.1375   -0.9737   -4.0409 C   0  0  0  0  0  0  0  0  0  0  0  0
   -2.7005    0.1427   -1.3684 H   0  0  0  0  0  0  0  0  0  0  0  0
   -2.6016   -0.4848    0.2733 H   0  0  0  0  0  0  0  0  0  0  0  0
   -1.8758    1.0825   -0.1213 H   0  0  0  0  0  0  0  0  0  0  0  0
   -0.1320   -0.7246    0.0789 H   0  0  0  0  0  0  0  0  0  0  0  0
   -0.9254   -1.6374   -1.1879 H   0  0  0  0  0  0  0  0  0  0  0  0
   -1.5873    0.9874   -3.2422 H   0  0  0  0  0  0  0  0  0  0  0  0
   -0.1021    0.9161   -4.1678 H   0  0  0  0  0  0  0  0  0  0  0  0
   -1.7876   -1.5224   -3.3574 H   0  0  0  0  0  0  0  0  0  0  0  0
   -0.2676   -1.5962   -4.2534 H   0  0  0  0  0  0  0  0  0  0  0  0
   -1.6916   -0.8229   -4.9700 H   0  0  0  0  0  0  0  0  0  0  0  0
  1  2  1  0
  1  6  1  0
  1  7  1  0
  1  8  1  0
  2  3  1  0
  2  9  1  0
  2 10  1  0
  3  4  1  0
  4  5  1  0
  4 11  1  0
  4 12  1  0
  5 13  1  0
  5 14  1  0
  5 15  1  0
M  END
>  <reaction>  (1) 
rmg_rxn_300

>  <mol_properties>  (1) 
{"0": {"label": "donator", "atom_type": "Cs"}, "5": {"label": "d_hydrogen", "atom_type": "H0"}}

>  <type>  (1) 
r1h

$$$$

     RDKit          3D

 11 10  0  0  0  0  0  0  0  0999 V2000
   -1.2230    0.3768   -0.0849 C   0  0  0  0  0  0  0  0  0  0  0  0
   -0.0734   -0.5533    0.2746 C   0  0  0  0  0  0  0  0  0  0  0  0
   -0.0853   -1.8426   -0.5372 C   0  0  0  0  0  0  0  0  0  0  0  0
    0.0319   -1.6944   -1.8815 O   0  0  0  0  0  1  0  0  0  0  0  0
   -2.1874   -0.0885    0.1341 H   0  0  0  0  0  0  0  0  0  0  0  0
   -1.1670    1.3099    0.4765 H   0  0  0  0  0  0  0  0  0  0  0  0
   -1.2014    0.6189   -1.1483 H   0  0  0  0  0  0  0  0  0  0  0  0
    0.8834   -0.0518    0.1071 H   0  0  0  0  0  0  0  0  0  0  0  0
   -0.1104   -0.8149    1.3362 H   0  0  0  0  0  0  0  0  0  0  0  0
    0.6767   -2.5604   -0.1861 H   0  0  0  0  0  0  0  0  0  0  0  0
   -1.0401   -2.3871   -0.3877 H   0  0  0  0  0  0  0  0  0  0  0  0
  1  2  1  0
  1  5  1  0
  1  6  1  0
  1  7  1  0
  2  3  1  0
  2  8  1  0
  2  9  1  0
  3  4  1  0
  3 10  1  0
  3 11  1  0
M  RAD  1   4   2
M  END
>  <reaction>  (2) 
rmg_rxn_300

>  <mol_properties>  (2) 
{"3": {"label": "acceptor", "atom_type": "O2s"}}

>  <type>  (2) 
r2

$$$$

     RDKit          3D

 12 11  0  0  0  0  0  0  0  0999 V2000
   -1.4643   -0.2505   -0.5284 C   0  0  0  0  0  0  0  0  0  0  0  0
   -0.3946    0.4302    0.3143 C   0  0  0  0  0  0  0  0  0  0  0  0
   -0.5959    0.2382    1.8102 C   0  0  0  0  0  0  0  0  0  0  0  0
   -0.5633   -1.1190    2.2092 O   0  0  0  0  0  0  0  0  0  0  0  0
   -2.4511    0.1644   -0.3109 H   0  0  0  0  0  0  0  0  0  0  0  0
   -1.5019   -1.3198   -0.3181 H   0  0  0  0  0  0  0  0  0  0  0  0
   -1.2720   -0.1182   -1.5941 H   0  0  0  0  0  0  0  0  0  0  0  0
    0.5965    0.0515    0.0385 H   0  0  0  0  0  0  0  0  0  0  0  0
   -0.3776    1.5047    0.1078 H   0  0  0  0  0  0  0  0  0  0  0  0
   -1.5821    0.6048    2.1034 H   0  0  0  0  0  0  0  0  0  0  0  0
    0.1495    0.8220    2.3649 H   0  0  0  0  0  0  0  0  0  0  0  0
    0.3017   -1.4750    1.9997 H   0  0  0  0  0  0  0  0  0  0  0  0
  1  2  1  0
  1  5  1  0
  1  6  1  0
  1  7  1  0
  2  3  1  0
  2  8  1  0
  2  9  1  0
  3  4  1  0
  3 10  1  0
  3 11  1  0
  4 12  1  0
M  END
>  <reaction>  (3) 
rmg_rxn_300

>  <mol_properties>  (3) 
{"3": {"label": "acceptor", "atom_type": "O2s"}, "11": {"label": "a_hydrogen", "atom_type": "H0"}}

>  <type>  (3) 
r2h

$$$$

     RDKit          3D

 26 24  0  0  0  0  0  0  0  0999 V2000
   -0.0798   -3.1518    0.1492 C   0  0  0  0  0  0  0  0  0  0  0  0
    0.7417   -2.2775    1.0873 C   0  0  0  0  0  0  0  0  0  0  0  0
    2.0311   -1.7742    0.4532 C   0  0  0  0  0  0  0  0  0  0  0  0
    1.8329   -0.8629   -0.5903 O   0  0  0  0  0  0  0  0  0  0  0  0
    0.4517   -4.0769   -0.0868 H   0  0  0  0  0  0  0  0  0  0  0  0
   -1.0381   -3.4212    0.5956 H   0  0  0  0  0  0  0  0  0  0  0  0
   -0.2789   -2.6357   -0.7907 H   0  0  0  0  0  0  0  0  0  0  0  0
    0.1538   -1.4108    1.4064 H   0  0  0  0  0  0  0  0  0  0  0  0
    0.9944   -2.8384    1.9922 H   0  0  0  0  0  0  0  0  0  0  0  0
    2.6951   -1.3457    1.2154 H   0  0  0  0  0  0  0  0  0  0  0  0
    2.5837   -2.6103    0.0030 H   0  0  0  0  0  0  0  0  0  0  0  0
    1.4796    1.3063    0.6078 C   0  0  0  0  0  3  0  0  0  0  0  0
    0.2547    2.0623    0.1717 C   0  0  0  0  0  0  0  0  0  0  0  0
   -1.3208    1.2406    0.5158 S   0  0  0  0  0  0  0  0  0  0  0  0
   -1.4567    0.1337   -0.9142 C   0  0  0  0  0  0  0  0  0  0  0  0
   -1.8918    0.8210   -2.1978 C   0  0  0  0  0  0  0  0  0  0  0  0
    1.6002    0.2357   -0.0676 H   0  0  0  0  0  0  0  0  0  0  0  0
    2.4170    1.8167    0.3844 H   0  0  0  0  0  0  0  0  0  0  0  0
    1.4387    0.9510    1.6365 H   0  0  0  0  0  0  0  0  0  0  0  0
    0.2056    3.0101    0.7173 H   0  0  0  0  0  0  0  0  0  0  0  0
    0.3055    2.3209   -0.8871 H   0  0  0  0  0  0  0  0  0  0  0  0
   -0.5035   -0.3793   -1.0416 H   0  0  0  0  0  0  0  0  0  0  0  0
   -2.1886   -0.6172   -0.6123 H   0  0  0  0  0  0  0  0  0  0  0  0
   -1.1721    1.5809   -2.5070 H   0  0  0  0  0  0  0  0  0  0  0  0
   -2.8610    1.3052   -2.0752 H   0  0  0  0  0  0  0  0  0  0  0  0
   -1.9679    0.0921   -3.0080 H   0  0  0  0  0  0  0  0  0  0  0  0
  1  2  1  0
  1  5  1  0
  1  6  1  0
  1  7  1  0
  2  3  1  0
  2  8  1  0
  2  9  1  0
  3  4  1  0
  3 10  1  0
  3 11  1  0
  4 17  1  0
 12 13  1  0
 12 18  1  0
 12 19  1  0
 13 14  1  0
 13 20  1  0
 13 21  1  0
 14 15  1  0
 15 16  1  0
 15 22  1  0
 15 23  1  0
 16 24  1  0
 16 25  1  0
 16 26  1  0
M  RAD  1  12   2
M  END
>  <reaction>  (4) 
rmg_rxn_300

>  <mol_properties>  (4) 
{"2": {"label": "*0", "atom_type": "Cs"}, "3": {"label": "*1", "atom_type": "O2s"}, "11": {"label": "*3", "atom_type": "Cs"}, "12": {"label": "*4", "atom_type": "Cs"}, "16": {"label": "*2", "atom_type": "H0"}}

>  <type>  (4) 
ts

$$$$

     RDKit          3D

 26 24  0  0  0  0  0  0  0  0999 V2000
    3.4281   -0.4308    0.5791 C   0  0  0  0  0  0  0  0  0  0  0  0
    2.8936   -0.3245   -0.8426 C   0  0  0  0  0  0  0  0  0  0  0  0
    1.8368   -1.3700   -1.1667 C   0  0  0  0  0  0  0  0  0  0  0  0
    0.6913   -1.2822   -0.3407 O   0  0  0  0  0  0  0  0  0  0  0  0
    3.9135   -1.3962    0.7393 H   0  0  0  0  0  0  0  0  0  0  0  0
    4.1599    0.3513    0.7861 H   0  0  0  0  0  0  0  0  0  0  0  0
    2.6194   -0.3431    1.3053 H   0  0  0  0  0  0  0  0  0  0  0  0
    2.4690    0.6723   -1.0093 H   0  0  0  0  0  0  0  0  0  0  0  0
    3.7107   -0.4311   -1.5625 H   0  0  0  0  0  0  0  0  0  0  0  0
    1.5561   -1.3009   -2.2253 H   0  0  0  0  0  0  0  0  0  0  0  0
    2.2401   -2.3714   -1.0005 H   0  0  0  0  0  0  0  0  0  0  0  0
    0.6435    0.9535    0.6842 C   0  0  0  0  0  3  0  0  0  0  0  0
   -0.6174    1.7124    0.3050 C   0  0  0  0  0  0  0  0  0  0  0  0
   -2.1580    0.9984    0.9336 S   0  0  0  0  0  0  0  0  0  0  0  0
   -2.1580   -0.6427    0.1687 C   0  0  0  0  0  0  0  0  0  0  0  0
   -2.1580   -0.6427   -1.3510 C   0  0  0  0  0  0  0  0  0  0  0  0
    0.6689   -0.2367    0.1386 H   0  0  0  0  0  0  0  0  0  0  0  0
    1.5282    1.4919    0.3373 H   0  0  0  0  0  0  0  0  0  0  0  0
    0.7141    0.8315    1.7656 H   0  0  0  0  0  0  0  0  0  0  0  0
   -0.6024    2.7155    0.7343 H   0  0  0  0  0  0  0  0  0  0  0  0
   -0.6886    1.8346   -0.7771 H   0  0  0  0  0  0  0  0  0  0  0  0
   -1.3218   -1.2253    0.5587 H   0  0  0  0  0  0  0  0  0  0  0  0
   -3.0692   -1.1065    0.5500 H   0  0  0  0  0  0  0  0  0  0  0  0
   -1.2350   -0.2191   -1.7505 H   0  0  0  0  0  0  0  0  0  0  0  0
   -2.9938   -0.0602   -1.7404 H   0  0  0  0  0  0  0  0  0  0  0  0
   -2.2406   -1.6638   -1.7297 H   0  0  0  0  0  0  0  0  0  0  0  0
  1  2  1  0
  1  5  1  0
  1  6  1  0
  1  7  1  0
  2  3  1  0
  2  8  1  0
  2  9  1  0
  3  4  1  0
  3 10  1  0
  3 11  1  0
  4 17  1  0
 12 13  1  0
 12 18  1  0
 12 19  1  0
 13 14  1  0
 13 20  1  0
 13 21  1  0
 14 15  1  0
 15 16  1  0
 15 22  1  0
 15 23  1  0
 16 24  1  0
 16 25  1  0
 16 26  1  0
M  RAD  1  12   2
M  END
>  <reaction>  (5) 
rmg_rxn_300

>  <mol_properties>  (5) 
{"2": {"label": "*0", "atom_type": "Cs"}, "3": {"label": "*1", "atom_type": "O2s"}, "11": {"label": "*3", "atom_type": "Cs"}, "12": {"label": "*4", "atom_type": "Cs"}, "16": {"label": "*2", "atom_type": "H0"}}

>  <type>  (5) 
unop_1

>  <geom_source>  (5) 
Heuristics

$$$$

     RDKit          3D

 26 24  0  0  0  0  0  0  0  0999 V2000
    2.3440    0.0610   -2.2388 C   0  0  0  0  0  0  0  0  0  0  0  0
    0.8780   -0.0776   -1.8521 C   0  0  0  0  0  0  0  0  0  0  0  0
    0.5855   -1.3347   -1.0463 C   0  0  0  0  0  0  0  0  0  0  0  0
    1.2910   -1.3902    0.1790 O   0  0  0  0  0  0  0  0  0  0  0  0
    2.6580   -0.7717   -2.8723 H   0  0  0  0  0  0  0  0  0  0  0  0
    2.5224    0.9865   -2.7881 H   0  0  0  0  0  0  0  0  0  0  0  0
    2.9806    0.0608   -1.3535 H   0  0  0  0  0  0  0  0  0  0  0  0
    0.5593    0.7968   -1.2730 H   0  0  0  0  0  0  0  0  0  0  0  0
    0.2505   -0.0936   -2.7485 H   0  0  0  0  0  0  0  0  0  0  0  0
   -0.4946   -1.4249   -0.8747 H   0  0  0  0  0  0  0  0  0  0  0  0
    0.9023   -2.2178   -1.6055 H   0  0  0  0  0  0  0  0  0  0  0  0
    1.2431    0.8454    1.2039 C   0  0  0  0  0  3  0  0  0  0  0  0
   -0.0178    1.6043    0.8247 C   0  0  0  0  0  0  0  0  0  0  0  0
   -1.5584    0.8904    1.4533 S   0  0  0  0  0  0  0  0  0  0  0  0
   -1.5584   -0.7507    0.6884 C   0  0  0  0  0  0  0  0  0  0  0  0
   -1.5584   -0.7507   -0.8313 C   0  0  0  0  0  0  0  0  0  0  0  0
    1.2686   -0.3448    0.6583 H   0  0  0  0  0  0  0  0  0  0  0  0
    2.1279    1.3838    0.8570 H   0  0  0  0  0  0  0  0  0  0  0  0
    1.3138    0.7234    2.2853 H   0  0  0  0  0  0  0  0  0  0  0  0
   -0.0027    2.6075    1.2540 H   0  0  0  0  0  0  0  0  0  0  0  0
   -0.0889    1.7265   -0.2573 H   0  0  0  0  0  0  0  0  0  0  0  0
   -0.7222   -1.3334    1.0785 H   0  0  0  0  0  0  0  0  0  0  0  0
   -2.4696   -1.2146    1.0697 H   0  0  0  0  0  0  0  0  0  0  0  0
   -0.6353   -0.3272   -1.2307 H   0  0  0  0  0  0  0  0  0  0  0  0
   -2.3941   -0.1683   -1.2207 H   0  0  0  0  0  0  0  0  0  0  0  0
   -1.6409   -1.7719   -1.2100 H   0  0  0  0  0  0  0  0  0  0  0  0
  1  2  1  0
  1  5  1  0
  1  6  1  0
  1  7  1  0
  2  3  1  0
  2  8  1  0
  2  9  1  0
  3  4  1  0
  3 10  1  0
  3 11  1  0
  4 17  1  0
 12 13  1  0
 12 18  1  0
 12 19  1  0
 13 14  1  0
 13 20  1  0
 13 21  1  0
 14 15  1  0
 15 16  1  0
 15 22  1  0
 15 23  1  0
 16 24  1  0
 16 25  1  0
 16 26  1  0
M  RAD  1  12   2
M  END
>  <reaction>  (6) 
rmg_rxn_300

>  <mol_properties>  (6) 
{"2": {"label": "*0", "atom_type": "Cs"}, "3": {"label": "*1", "atom_type": "O2s"}, "11": {"label": "*3", "atom_type": "Cs"}, "12": {"label": "*4", "atom_type": "Cs"}, "16": {"label": "*2", "atom_type": "H0"}}

>  <type>  (6) 
unop_2

>  <geom_source>  (6) 
Heuristics

$$$$

     RDKit          3D

 26 24  0  0  0  0  0  0  0  0999 V2000
    2.7512   -1.2691    1.5717 C   0  0  0  0  0  0  0  0  0  0  0  0
    3.0417   -0.8391    0.1404 C   0  0  0  0  0  0  0  0  0  0  0  0
    2.0837   -1.4445   -0.8749 C   0  0  0  0  0  0  0  0  0  0  0  0
    0.7335   -1.0835   -0.6543 O   0  0  0  0  0  0  0  0  0  0  0  0
    2.8562   -2.3511    1.6801 H   0  0  0  0  0  0  0  0  0  0  0  0
    3.4365   -0.7934    2.2746 H   0  0  0  0  0  0  0  0  0  0  0  0
    1.7321   -1.0060    1.8568 H   0  0  0  0  0  0  0  0  0  0  0  0
    2.9979    0.2534    0.0615 H   0  0  0  0  0  0  0  0  0  0  0  0
    4.0604   -1.1235   -0.1403 H   0  0  0  0  0  0  0  0  0  0  0  0
    2.3957   -1.1716   -1.8909 H   0  0  0  0  0  0  0  0  0  0  0  0
    2.1090   -2.5344   -0.8071 H   0  0  0  0  0  0  0  0  0  0  0  0
    0.6856    1.1522    0.3706 C   0  0  0  0  0  3  0  0  0  0  0  0
   -0.5753    1.9110   -0.0086 C   0  0  0  0  0  0  0  0  0  0  0  0
   -2.1159    1.1971    0.6200 S   0  0  0  0  0  0  0  0  0  0  0  0
   -2.1159   -0.4440   -0.1449 C   0  0  0  0  0  0  0  0  0  0  0  0
   -2.1159   -0.4440   -1.6647 C   0  0  0  0  0  0  0  0  0  0  0  0
    0.7111   -0.0380   -0.1750 H   0  0  0  0  0  0  0  0  0  0  0  0
    1.5704    1.6906    0.0236 H   0  0  0  0  0  0  0  0  0  0  0  0
    0.7563    1.0301    1.4520 H   0  0  0  0  0  0  0  0  0  0  0  0
   -0.5602    2.9142    0.4206 H   0  0  0  0  0  0  0  0  0  0  0  0
   -0.6464    2.0332   -1.0907 H   0  0  0  0  0  0  0  0  0  0  0  0
   -1.2797   -1.0266    0.2451 H   0  0  0  0  0  0  0  0  0  0  0  0
   -3.0271   -0.9078    0.2364 H   0  0  0  0  0  0  0  0  0  0  0  0
   -1.1928   -0.0204   -2.0641 H   0  0  0  0  0  0  0  0  0  0  0  0
   -2.9516    0.1385   -2.0541 H   0  0  0  0  0  0  0  0  0  0  0  0
   -2.1984   -1.4652   -2.0433 H   0  0  0  0  0  0  0  0  0  0  0  0
  1  2  1  0
  1  5  1  0
  1  6  1  0
  1  7  1  0
  2  3  1  0
  2  8  1  0
  2  9  1  0
  3  4  1  0
  3 10  1  0
  3 11  1  0
  4 17  1  0
 12 13  1  0
 12 18  1  0
 12 19  1  0
 13 14  1  0
 13 20  1  0
 13 21  1  0
 14 15  1  0
 15 16  1  0
 15 22  1  0
 15 23  1  0
 16 24  1  0
 16 25  1  0
 16 26  1  0
M  RAD  1  12   2
M  END
>  <reaction>  (7) 
rmg_rxn_300

>  <mol_properties>  (7) 
{"2": {"label": "*0", "atom_type": "Cs"}, "3": {"label": "*1", "atom_type": "O2s"}, "11": {"label": "*3", "atom_type": "Cs"}, "12": {"label": "*4", "atom_type": "Cs"}, "16": {"label": "*2", "atom_type": "H0"}}

>  <type>  (7) 
unop_3

>  <geom_source>  (7) 
Heuristics

$$$$

     RDKit          3D

 26 24  0  0  0  0  0  0  0  0999 V2000
    1.2115   -2.5153    1.6222 C   0  0  0  0  0  0  0  0  0  0  0  0
    2.3285   -1.6501    1.0549 C   0  0  0  0  0  0  0  0  0  0  0  0
    2.2239   -1.4440   -0.4490 C   0  0  0  0  0  0  0  0  0  0  0  0
    1.0283   -0.7979   -0.8431 O   0  0  0  0  0  0  0  0  0  0  0  0
    1.2387   -3.5172    1.1875 H   0  0  0  0  0  0  0  0  0  0  0  0
    1.3006   -2.6166    2.7047 H   0  0  0  0  0  0  0  0  0  0  0  0
    0.2351   -2.0846    1.3984 H   0  0  0  0  0  0  0  0  0  0  0  0
    2.3304   -0.6709    1.5476 H   0  0  0  0  0  0  0  0  0  0  0  0
    3.3021   -2.1007    1.2704 H   0  0  0  0  0  0  0  0  0  0  0  0
    3.0996   -0.8910   -0.8115 H   0  0  0  0  0  0  0  0  0  0  0  0
    2.2144   -2.4106   -0.9577 H   0  0  0  0  0  0  0  0  0  0  0  0
    0.9805    1.4378    0.1818 C   0  0  0  0  0  3  0  0  0  0  0  0
   -0.2804    2.1966   -0.1974 C   0  0  0  0  0  0  0  0  0  0  0  0
   -1.8210    1.4827    0.4312 S   0  0  0  0  0  0  0  0  0  0  0  0
   -1.8210   -0.1584   -0.3337 C   0  0  0  0  0  0  0  0  0  0  0  0
   -1.8210   -0.1584   -1.8535 C   0  0  0  0  0  0  0  0  0  0  0  0
    1.0059    0.2476   -0.3638 H   0  0  0  0  0  0  0  0  0  0  0  0
    1.8652    1.9762   -0.1652 H   0  0  0  0  0  0  0  0  0  0  0  0
    1.0511    1.3158    1.2632 H   0  0  0  0  0  0  0  0  0  0  0  0
   -0.2654    3.1998    0.2318 H   0  0  0  0  0  0  0  0  0  0  0  0
   -0.3516    2.3189   -1.2795 H   0  0  0  0  0  0  0  0  0  0  0  0
   -0.9848   -0.7410    0.0563 H   0  0  0  0  0  0  0  0  0  0  0  0
   -2.7322   -0.6222    0.0476 H   0  0  0  0  0  0  0  0  0  0  0  0
   -0.8980    0.2652   -2.2529 H   0  0  0  0  0  0  0  0  0  0  0  0
   -2.6567    0.4241   -2.2429 H   0  0  0  0  0  0  0  0  0  0  0  0
   -1.9036   -1.1795   -2.2321 H   0  0  0  0  0  0  0  0  0  0  0  0
  1  2  1  0
  1  5  1  0
  1  6  1  0
  1  7  1  0
  2  3  1  0
  2  8  1  0
  2  9  1  0
  3  4  1  0
  3 10  1  0
  3 11  1  0
  4 17  1  0
 12 13  1  0
 12 18  1  0
 12 19  1  0
 13 14  1  0
 13 20  1  0
 13 21  1  0
 14 15  1  0
 15 16  1  0
 15 22  1  0
 15 23  1  0
 16 24  1  0
 16 25  1  0
 16 26  1  0
M  RAD  1  12   2
M  END
>  <reaction>  (8) 
rmg_rxn_300

>  <mol_properties>  (8) 
{"2": {"label": "*0", "atom_type": "Cs"}, "3": {"label": "*1", "atom_type": "O2s"}, "11": {"label": "*3", "atom_type": "Cs"}, "12": {"label": "*4", "atom_type": "Cs"}, "16": {"label": "*2", "atom_type": "H0"}}

>  <type>  (8) 
unop_4

>  <geom_source>  (8) 
Heuristics

$$$$

     RDKit          3D

 26 21  0  0  0  0  0  0  0  0999 V2000
   -0.3128   -2.7020   -1.3179 C   0  0  0  0  0  3  0  0  0  0  0  0
   -0.2750   -2.0122    0.0388 C   0  0  0  0  0  1  0  0  0  0  0  0
    1.1280   -1.6109    0.4698 C   0  0  0  0  0  3  0  0  0  0  0  0
    1.7467   -0.6995   -0.4183 O   0  0  0  0  0  0  0  0  0  0  0  0
    0.2629   -3.6302   -1.2969 H   0  0  0  0  0  0  0  0  0  0  0  0
   -1.3352   -2.9477   -1.6084 H   0  0  0  0  0  0  0  0  0  0  0  0
    0.1179   -2.0637   -2.0901 H   0  0  0  0  0  0  0  0  0  0  0  0
   -0.9098   -1.1187    0.0223 H   0  0  0  0  0  0  0  0  0  0  0  0
   -0.6934   -2.6682    0.8081 H   0  0  0  0  0  0  0  0  0  0  0  0
    1.1029   -1.2019    1.4877 H   0  0  0  0  0  0  0  0  0  0  0  0
    1.7779   -2.4887    0.4864 H   0  0  0  0  0  0  0  0  0  0  0  0
    1.6989    1.5361    0.6066 C   0  0  0  0  0  3  0  0  0  0  0  0
    0.4380    2.2950    0.2274 C   0  0  0  0  0  0  0  0  0  0  0  0
   -1.1026    1.5811    0.8560 S   0  0  0  0  0  1  0  0  0  0  0  0
   -1.1026   -0.0600    0.0911 C   0  0  0  0  0  0  0  0  0  0  0  0
   -1.1026   -0.0600   -1.4287 C   0  0  0  0  0  0  0  0  0  0  0  0
    1.7244    0.3459    0.0609 H   0  0  0  0  0  0  0  0  0  0  0  0
    2.5836    2.0745    0.2596 H   0  0  0  0  0  0  0  0  0  0  0  0
    1.7696    1.4141    1.6880 H   0  0  0  0  0  0  0  0  0  0  0  0
    0.4531    3.2982    0.6566 H   0  0  0  0  0  0  0  0  0  0  0  0
    0.3668    2.4172   -0.8547 H   0  0  0  0  0  0  0  0  0  0  0  0
   -0.2664   -0.6427    0.4811 H   0  0  0  0  0  0  0  0  0  0  0  0
   -2.0138   -0.5239    0.4724 H   0  0  0  0  0  0  0  0  0  0  0  0
   -0.1796    0.3636   -1.8281 H   0  0  0  0  0  0  0  0  0  0  0  0
   -1.9383    0.5224   -1.8181 H   0  0  0  0  0  0  0  0  0  0  0  0
   -1.1852   -1.0812   -1.8073 H   0  0  0  0  0  0  0  0  0  0  0  0
  1  5  1  0
  1  6  1  0
  1  7  1  0
  2  9  1  0
  3  4  1  0
  3 10  1  0
  3 11  1  0
  4 17  1  0
  8 15  1  0
 12 13  1  0
 12 18  1  0
 12 19  1  0
 13 14  1  0
 13 20  1  0
 13 21  1  0
 15 16  1  0
 15 22  1  0
 15 23  1  0
 16 24  1  0
 16 25  1  0
 16 26  1  0
M  CHG  2  12   1  14  -1
M  RAD  3   1   2   2   2   3   2
M  END
>  <reaction>  (9) 
rmg_rxn_300

>  <mol_properties>  (9) 
{"2": {"label": "*0", "atom_type": "Cs"}, "3": {"label": "*1", "atom_type": "O2s"}, "11": {"label": "*3", "atom_type": "Cs"}, "12": {"label": "*4", "atom_type": "Cs"}, "16": {"label": "*2", "atom_type": "H0"}}

>  <type>  (9) 
unop_5

>  <geom_source>  (9) 
Heuristics

$$$$

     RDKit          3D

 26 24  0  0  0  0  0  0  0  0999 V2000
   -0.1812   -3.0580   -0.5563 C   0  0  0  0  0  0  0  0  0  0  0  0
    0.3128   -2.2926    0.6635 C   0  0  0  0  0  0  0  0  0  0  0  0
    1.6367   -1.5798    0.4299 C   0  0  0  0  0  0  0  0  0  0  0  0
    1.5779   -0.6159   -0.6044 O   0  0  0  0  0  0  0  0  0  0  0  0
    0.5272   -3.8416   -0.8351 H   0  0  0  0  0  0  0  0  0  0  0  0
   -1.1453   -3.5305   -0.3631 H   0  0  0  0  0  0  0  0  0  0  0  0
   -0.2921   -2.3929   -1.4132 H   0  0  0  0  0  0  0  0  0  0  0  0
   -0.4373   -1.5551    0.9718 H   0  0  0  0  0  0  0  0  0  0  0  0
    0.4369   -2.9726    1.5118 H   0  0  0  0  0  0  0  0  0  0  0  0
    1.9843   -1.1226    1.3649 H   0  0  0  0  0  0  0  0  0  0  0  0
    2.3965   -2.2988    0.1156 H   0  0  0  0  0  0  0  0  0  0  0  0
    1.5300    1.6198    0.4205 C   0  0  0  0  0  3  0  0  0  0  0  0
    0.2691    2.3787    0.0413 C   0  0  0  0  0  0  0  0  0  0  0  0
   -1.2715    1.6647    0.6699 S   0  0  0  0  0  0  0  0  0  0  0  0
   -1.2715    0.0236   -0.0950 C   0  0  0  0  0  0  0  0  0  0  0  0
   -1.2715    0.0236   -1.6147 C   0  0  0  0  0  0  0  0  0  0  0  0
    1.5555    0.4296   -0.1251 H   0  0  0  0  0  0  0  0  0  0  0  0
    2.4148    2.1582    0.0736 H   0  0  0  0  0  0  0  0  0  0  0  0
    1.6007    1.4978    1.5019 H   0  0  0  0  0  0  0  0  0  0  0  0
    0.2842    3.3818    0.4706 H   0  0  0  0  0  0  0  0  0  0  0  0
    0.1980    2.5009   -1.0407 H   0  0  0  0  0  0  0  0  0  0  0  0
   -0.4353   -0.5590    0.2951 H   0  0  0  0  0  0  0  0  0  0  0  0
   -2.1827   -0.4402    0.2863 H   0  0  0  0  0  0  0  0  0  0  0  0
   -0.3484    0.4472   -2.0141 H   0  0  0  0  0  0  0  0  0  0  0  0
   -2.1072    0.6061   -2.0041 H   0  0  0  0  0  0  0  0  0  0  0  0
   -1.3540   -0.9975   -1.9934 H   0  0  0  0  0  0  0  0  0  0  0  0
  1  2  1  0
  1  5  1  0
  1  6  1  0
  1  7  1  0
  2  3  1  0
  2  8  1  0
  2  9  1  0
  3  4  1  0
  3 10  1  0
  3 11  1  0
  4 17  1  0
 12 13  1  0
 12 18  1  0
 12 19  1  0
 13 14  1  0
 13 20  1  0
 13 21  1  0
 14 15  1  0
 15 16  1  0
 15 22  1  0
 15 23  1  0
 16 24  1  0
 16 25  1  0
 16 26  1  0
M  RAD  1  12   2
M  END
>  <reaction>  (10) 
rmg_rxn_300

>  <mol_properties>  (10) 
{"2": {"label": "*0", "atom_type": "Cs"}, "3": {"label": "*1", "atom_type": "O2s"}, "11": {"label": "*3", "atom_type": "Cs"}, "12": {"label": "*4", "atom_type": "Cs"}, "16": {"label": "*2", "atom_type": "H0"}}

>  <type>  (10) 
unop_6

>  <geom_source>  (10) 
Heuristics

$$$$

     RDKit          3D

 26 24  0  0  0  0  0  0  0  0999 V2000
    3.4371    0.0405   -0.4713 C   0  0  0  0  0  0  0  0  0  0  0  0
    2.3064   -0.0428   -1.4875 C   0  0  0  0  0  0  0  0  0  0  0  0
    1.4577   -1.2971   -1.3403 C   0  0  0  0  0  0  0  0  0  0  0  0
    0.8216   -1.3973   -0.0804 O   0  0  0  0  0  0  0  0  0  0  0  0
    4.1290   -0.7962   -0.5921 H   0  0  0  0  0  0  0  0  0  0  0  0
    4.0049    0.9649   -0.5863 H   0  0  0  0  0  0  0  0  0  0  0  0
    3.0477    0.0028    0.5465 H   0  0  0  0  0  0  0  0  0  0  0  0
    1.6578    0.8364   -1.3988 H   0  0  0  0  0  0  0  0  0  0  0  0
    2.7098   -0.0216   -2.5044 H   0  0  0  0  0  0  0  0  0  0  0  0
    0.7195   -1.3452   -2.1508 H   0  0  0  0  0  0  0  0  0  0  0  0
    2.0885   -2.1852   -1.4200 H   0  0  0  0  0  0  0  0  0  0  0  0
    0.7738    0.8384    0.9445 C   0  0  0  0  0  3  0  0  0  0  0  0
   -0.4872    1.5973    0.5653 C   0  0  0  0  0  0  0  0  0  0  0  0
   -2.0277    0.8834    1.1939 S   0  0  0  0  0  0  0  0  0  0  0  0
   -2.0277   -0.7577    0.4290 C   0  0  0  0  0  0  0  0  0  0  0  0
   -2.0277   -0.7577   -1.0907 C   0  0  0  0  0  0  0  0  0  0  0  0
    0.7992   -0.3518    0.3989 H   0  0  0  0  0  0  0  0  0  0  0  0
    1.6585    1.3768    0.5976 H   0  0  0  0  0  0  0  0  0  0  0  0
    0.8444    0.7164    2.0259 H   0  0  0  0  0  0  0  0  0  0  0  0
   -0.4721    2.6004    0.9946 H   0  0  0  0  0  0  0  0  0  0  0  0
   -0.5583    1.7195   -0.5167 H   0  0  0  0  0  0  0  0  0  0  0  0
   -1.1915   -1.3404    0.8191 H   0  0  0  0  0  0  0  0  0  0  0  0
   -2.9389   -1.2216    0.8103 H   0  0  0  0  0  0  0  0  0  0  0  0
   -1.1047   -0.3342   -1.4901 H   0  0  0  0  0  0  0  0  0  0  0  0
   -2.8635   -0.1753   -1.4801 H   0  0  0  0  0  0  0  0  0  0  0  0
   -2.1103   -1.7789   -1.4694 H   0  0  0  0  0  0  0  0  0  0  0  0
  1  2  1  0
  1  5  1  0
  1  6  1  0
  1  7  1  0
  2  3  1  0
  2  8  1  0
  2  9  1  0
  3  4  1  0
  3 10  1  0
  3 11  1  0
  4 17  1  0
 12 13  1  0
 12 18  1  0
 12 19  1  0
 13 14  1  0
 13 20  1  0
 13 21  1  0
 14 15  1  0
 15 16  1  0
 15 22  1  0
 15 23  1  0
 16 24  1  0
 16 25  1  0
 16 26  1  0
M  RAD  1  12   2
M  END
>  <reaction>  (11) 
rmg_rxn_300

>  <mol_properties>  (11) 
{"2": {"label": "*0", "atom_type": "Cs"}, "3": {"label": "*1", "atom_type": "O2s"}, "11": {"label": "*3", "atom_type": "Cs"}, "12": {"label": "*4", "atom_type": "Cs"}, "16": {"label": "*2", "atom_type": "H0"}}

>  <type>  (11) 
unop_7

>  <geom_source>  (11) 
Heuristics

$$$$

     RDKit          3D

 26 24  0  0  0  0  0  0  0  0999 V2000
    3.0438    0.2218   -1.4226 C   0  0  0  0  0  0  0  0  0  0  0  0
    1.5782    0.0393   -1.7924 C   0  0  0  0  0  0  0  0  0  0  0  0
    0.9981   -1.2834   -1.3138 C   0  0  0  0  0  0  0  0  0  0  0  0
    1.0395   -1.4360    0.0923 O   0  0  0  0  0  0  0  0  0  0  0  0
    3.6597   -0.5521   -1.8864 H   0  0  0  0  0  0  0  0  0  0  0  0
    3.4176    1.1916   -1.7540 H   0  0  0  0  0  0  0  0  0  0  0  0
    3.1834    0.1523   -0.3434 H   0  0  0  0  0  0  0  0  0  0  0  0
    0.9821    0.8594   -1.3756 H   0  0  0  0  0  0  0  0  0  0  0  0
    1.4528    0.0936   -2.8781 H   0  0  0  0  0  0  0  0  0  0  0  0
   -0.0284   -1.3965   -1.6847 H   0  0  0  0  0  0  0  0  0  0  0  0
    1.5837   -2.1137   -1.7146 H   0  0  0  0  0  0  0  0  0  0  0  0
    0.9917    0.7997    1.1172 C   0  0  0  0  0  3  0  0  0  0  0  0
   -0.2692    1.5585    0.7380 C   0  0  0  0  0  0  0  0  0  0  0  0
   -1.8098    0.8446    1.3666 S   0  0  0  0  0  0  0  0  0  0  0  0
   -1.8098   -0.7965    0.6017 C   0  0  0  0  0  0  0  0  0  0  0  0
   -1.8098   -0.7965   -0.9180 C   0  0  0  0  0  0  0  0  0  0  0  0
    1.0172   -0.3906    0.5716 H   0  0  0  0  0  0  0  0  0  0  0  0
    1.8765    1.3381    0.7703 H   0  0  0  0  0  0  0  0  0  0  0  0
    1.0624    0.6776    2.1986 H   0  0  0  0  0  0  0  0  0  0  0  0
   -0.2541    2.5617    1.1673 H   0  0  0  0  0  0  0  0  0  0  0  0
   -0.3404    1.6807   -0.3440 H   0  0  0  0  0  0  0  0  0  0  0  0
   -0.9736   -1.3791    0.9918 H   0  0  0  0  0  0  0  0  0  0  0  0
   -2.7210   -1.2604    0.9830 H   0  0  0  0  0  0  0  0  0  0  0  0
   -0.8868   -0.3729   -1.3174 H   0  0  0  0  0  0  0  0  0  0  0  0
   -2.6455   -0.2140   -1.3074 H   0  0  0  0  0  0  0  0  0  0  0  0
   -1.8924   -1.8177   -1.2967 H   0  0  0  0  0  0  0  0  0  0  0  0
  1  2  1  0
  1  5  1  0
  1  6  1  0
  1  7  1  0
  2  3  1  0
  2  8  1  0
  2  9  1  0
  3  4  1  0
  3 10  1  0
  3 11  1  0
  4 17  1  0
 12 13  1  0
 12 18  1  0
 12 19  1  0
 13 14  1  0
 13 20  1  0
 13 21  1  0
 14 15  1  0
 15 16  1  0
 15 22  1  0
 15 23  1  0
 16 24  1  0
 16 25  1  0
 16 26  1  0
M  RAD  1  12   2
M  END
>  <reaction>  (12) 
rmg_rxn_300

>  <mol_properties>  (12) 
{"2": {"label": "*0", "atom_type": "Cs"}, "3": {"label": "*1", "atom_type": "O2s"}, "11": {"label": "*3", "atom_type": "Cs"}, "12": {"label": "*4", "atom_type": "Cs"}, "16": {"label": "*2", "atom_type": "H0"}}

>  <type>  (12) 
unop_8

>  <geom_source>  (12) 
Heuristics

$$$$

     RDKit          3D

 26 24  0  0  0  0  0  0  0  0999 V2000
    0.1622   -3.1398    0.3962 C   0  0  0  0  0  0  0  0  0  0  0  0
    1.1878   -2.2475    1.0816 C   0  0  0  0  0  0  0  0  0  0  0  0
    2.0737   -1.4897    0.1037 C   0  0  0  0  0  0  0  0  0  0  0  0
    1.3508   -0.6229   -0.7497 O   0  0  0  0  0  0  0  0  0  0  0  0
    0.6560   -3.9066   -0.2051 H   0  0  0  0  0  0  0  0  0  0  0  0
   -0.4743   -3.6433    1.1253 H   0  0  0  0  0  0  0  0  0  0  0  0
   -0.4754   -2.5577   -0.2698 H   0  0  0  0  0  0  0  0  0  0  0  0
    0.6807   -1.5260    1.7327 H   0  0  0  0  0  0  0  0  0  0  0  0
    1.8326   -2.8445    1.7336 H   0  0  0  0  0  0  0  0  0  0  0  0
    2.8463   -0.9363    0.6522 H   0  0  0  0  0  0  0  0  0  0  0  0
    2.5836   -2.1928   -0.5587 H   0  0  0  0  0  0  0  0  0  0  0  0
    1.3030    1.6127    0.2752 C   0  0  0  0  0  3  0  0  0  0  0  0
    0.0421    2.3716   -0.1040 C   0  0  0  0  0  0  0  0  0  0  0  0
   -1.4985    1.6577    0.5246 S   0  0  0  0  0  0  0  0  0  0  0  0
   -1.4985    0.0166   -0.2403 C   0  0  0  0  0  0  0  0  0  0  0  0
   -1.4985    0.0166   -1.7601 C   0  0  0  0  0  0  0  0  0  0  0  0
    1.3285    0.4225   -0.2704 H   0  0  0  0  0  0  0  0  0  0  0  0
    2.1877    2.1511   -0.0718 H   0  0  0  0  0  0  0  0  0  0  0  0
    1.3737    1.4907    1.3566 H   0  0  0  0  0  0  0  0  0  0  0  0
    0.0572    3.3748    0.3252 H   0  0  0  0  0  0  0  0  0  0  0  0
   -0.0291    2.4938   -1.1861 H   0  0  0  0  0  0  0  0  0  0  0  0
   -0.6623   -0.5661    0.1497 H   0  0  0  0  0  0  0  0  0  0  0  0
   -2.4097   -0.4473    0.1410 H   0  0  0  0  0  0  0  0  0  0  0  0
   -0.5755    0.4402   -2.1595 H   0  0  0  0  0  0  0  0  0  0  0  0
   -2.3342    0.5990   -2.1495 H   0  0  0  0  0  0  0  0  0  0  0  0
   -1.5811   -1.0046   -2.1387 H   0  0  0  0  0  0  0  0  0  0  0  0
  1  2  1  0
  1  5  1  0
  1  6  1  0
  1  7  1  0
  2  3  1  0
  2  8  1  0
  2  9  1  0
  3  4  1  0
  3 10  1  0
  3 11  1  0
  4 17  1  0
 12 13  1  0
 12 18  1  0
 12 19  1  0
 13 14  1  0
 13 20  1  0
 13 21  1  0
 14 15  1  0
 15 16  1  0
 15 22  1  0
 15 23  1  0
 16 24  1  0
 16 25  1  0
 16 26  1  0
M  RAD  1  12   2
M  END
>  <reaction>  (13) 
rmg_rxn_300

>  <mol_properties>  (13) 
{"2": {"label": "*0", "atom_type": "Cs"}, "3": {"label": "*1", "atom_type": "O2s"}, "11": {"label": "*3", "atom_type": "Cs"}, "12": {"label": "*4", "atom_type": "Cs"}, "16": {"label": "*2", "atom_type": "H0"}}

>  <type>  (13) 
unop_9

>  <geom_source>  (13) 
Heuristics

$$$$

     RDKit          3D

 26 23  0  0  0  0  0  0  0  0999 V2000
    1.3815   -0.5112   -2.7417 C   0  0  0  0  0  3  0  0  0  0  0  0
    0.2440   -0.4161   -1.7343 C   0  0  0  0  0  0  0  0  0  0  0  0
    0.3656   -1.4170   -0.5947 C   0  0  0  0  0  0  0  0  0  0  0  0
    1.5438   -1.2519    0.1713 O   0  0  0  0  0  0  0  0  0  0  0  0
    1.3969   -1.4946   -3.2172 H   0  0  0  0  0  0  0  0  0  0  0  0
    1.2786    0.2394   -3.5266 H   0  0  0  0  0  0  0  0  0  0  0  0
    2.3456   -0.3653   -2.2536 H   0  0  0  0  0  0  0  0  0  0  0  0
    0.1995    0.5955   -1.3143 H   0  0  0  0  0  0  0  0  0  0  0  0
   -0.7164   -0.5812   -2.2319 H   0  0  0  0  0  0  0  0  0  0  0  0
   -0.5231   -1.3619    0.0466 H   0  0  0  0  0  0  0  0  0  0  0  0
    0.4176   -2.4321   -0.9945 H   0  0  0  0  0  0  0  0  0  0  0  0
    1.4960    0.9838    1.1962 C   0  0  0  0  0  3  0  0  0  0  0  0
    0.2351    1.7427    0.8170 C   0  0  0  0  0  0  0  0  0  0  0  0
   -1.3055    1.0287    1.4456 S   0  0  0  0  0  0  0  0  0  0  0  0
   -1.3055   -0.6124    0.6807 C   0  0  0  0  0  0  0  0  0  0  0  0
   -1.3055   -0.6124   -0.8391 C   0  0  0  0  0  3  0  0  0  0  0  0
    1.5215   -0.2064    0.6506 H   0  0  0  0  0  0  0  0  0  0  0  0
    2.3807    1.5222    0.8492 H   0  0  0  0  0  0  0  0  0  0  0  0
    1.5667    0.8618    2.2776 H   0  0  0  0  0  0  0  0  0  0  0  0
    0.2501    2.7458    1.2462 H   0  0  0  0  0  0  0  0  0  0  0  0
    0.1639    1.8649   -0.2651 H   0  0  0  0  0  0  0  0  0  0  0  0
   -0.4693   -1.1950    1.0707 H   0  0  0  0  0  0  0  0  0  0  0  0
   -2.2167   -1.0762    1.0620 H   0  0  0  0  0  0  0  0  0  0  0  0
   -0.3825   -0.1888   -1.2385 H   0  0  0  0  0  0  0  0  0  0  0  0
   -2.1412   -0.0299   -1.2285 H   0  0  0  0  0  0  0  0  0  0  0  0
   -1.3881   -1.6335   -1.2177 H   0  0  0  0  0  0  0  0  0  0  0  0
  1  5  1  0
  1  6  1  0
  1  7  1  0
  2  3  1  0
  2  8  1  0
  2  9  1  0
  2 24  1  0
  3  4  1  0
  3 10  1  0
  3 11  1  0
  4 17  1  0
 12 13  1  0
 12 18  1  0
 12 19  1  0
 13 14  1  0
 13 20  1  0
 13 21  1  0
 14 15  1  0
 15 16  1  0
 15 22  1  0
 15 23  1  0
 16 25  1  0
 16 26  1  0
M  CHG  2  12  -1  16   1
M  RAD  1   1   2
M  END
>  <reaction>  (14) 
rmg_rxn_300

>  <mol_properties>  (14) 
{"2": {"label": "*0", "atom_type": "Cs"}, "3": {"label": "*1", "atom_type": "O2s"}, "11": {"label": "*3", "atom_type": "Cs"}, "12": {"label": "*4", "atom_type": "Cs"}, "16": {"label": "*2", "atom_type": "H0"}}

>  <type>  (14) 
unop_10

>  <geom_source>  (14) 
Heuristics

$$$$

     RDKit          3D

 26 24  0  0  0  0  0  0  0  0999 V2000
   -2.8242   -1.1447   -0.2433 S   0  0  0  0  0  0  0  0  0  0  0  0
    1.6260    0.9142   -0.6182 O   0  0  0  0  0  0  0  0  0  0  0  0
    3.5093   -0.5752   -0.3795 C   0  0  0  0  0  0  0  0  0  0  0  0
    2.8433    0.5351   -1.1963 C   0  0  0  0  0  0  0  0  0  0  0  0
   -4.0017   -0.2330    0.8169 C   0  0  0  0  0  0  0  0  0  0  0  0
    3.8806   -0.1040    1.0248 C   0  0  0  0  0  0  0  0  0  0  0  0
   -1.3421   -0.2067    0.2649 C   0  0  0  0  0  0  0  0  0  0  0  0
   -4.5292    1.0025    0.0993 C   0  0  0  0  0  0  0  0  0  0  0  0
   -0.1237   -0.7189   -0.4838 C   0  0  0  0  0  3  0  0  0  0  0  0
    4.4325   -0.9038   -0.9039 H   0  0  0  0  0  0  0  0  0  0  0  0
    2.8255   -1.4486   -0.3074 H   0  0  0  0  0  0  0  0  0  0  0  0
    3.5123    1.4204   -1.2477 H   0  0  0  0  0  0  0  0  0  0  0  0
    2.6694    0.1793   -2.2353 H   0  0  0  0  0  0  0  0  0  0  0  0
   -4.8555   -0.9060    1.0424 H   0  0  0  0  0  0  0  0  0  0  0  0
   -3.5325    0.0563    1.7813 H   0  0  0  0  0  0  0  0  0  0  0  0
    4.3836   -0.9291    1.5718 H   0  0  0  0  0  0  0  0  0  0  0  0
    2.9705    0.1903    1.5893 H   0  0  0  0  0  0  0  0  0  0  0  0
    4.5754    0.7610    0.9708 H   0  0  0  0  0  0  0  0  0  0  0  0
   -3.7046    1.7150   -0.1088 H   0  0  0  0  0  0  0  0  0  0  0  0
   -5.0118    0.7116   -0.8578 H   0  0  0  0  0  0  0  0  0  0  0  0
   -5.2821    1.5100    0.7383 H   0  0  0  0  0  0  0  0  0  0  0  0
   -1.1728   -0.3321    1.3550 H   0  0  0  0  0  0  0  0  0  0  0  0
   -1.4743    0.8713    0.0389 H   0  0  0  0  0  0  0  0  0  0  0  0
   -0.2539   -0.5831   -1.5784 H   0  0  0  0  0  0  0  0  0  0  0  0
    0.0522   -1.7913   -0.2543 H   0  0  0  0  0  0  0  0  0  0  0  0
    0.8281    0.0093   -0.8790 H   0  0  0  0  0  0  0  0  0  0  0  0
  1  7  1  0
  1  5  1  0
  2  4  1  0
  2 26  1  0
  3  6  1  0
  3  4  1  0
  3 10  1  0
  3 11  1  0
  4 12  1  0
  4 13  1  0
  5  8  1  0
  5 14  1  0
  5 15  1  0
  6 16  1  0
  6 17  1  0
  6 18  1  0
  7  9  1  0
  7 22  1  0
  7 23  1  0
  8 19  1  0
  8 20  1  0
  8 21  1  0
  9 24  1  0
  9 25  1  0
M  RAD  1   9   2
M  END
>  <reaction>  (15) 
rmg_rxn_300

>  <mol_properties>  (15) 
{"2": {"label": "*0", "atom_type": "Cs"}, "3": {"label": "*1", "atom_type": "O2s"}, "11": {"label": "*3", "atom_type": "Cs"}, "12": {"label": "*4", "atom_type": "Cs"}, "16": {"label": "*2", "atom_type": "H0"}}

>  <type>  (15) 
unop_11

>  <geom_source>  (15) 
AutoTST

$$$$

     RDKit          3D

 26 24  0  0  0  0  0  0  0  0999 V2000
    2.3440    0.0610   -2.2388 C   0  0  0  0  0  0  0  0  0  0  0  0
    0.8780   -0.0776   -1.8521 C   0  0  0  0  0  0  0  0  0  0  0  0
    0.5855   -1.3347   -1.0463 C   0  0  0  0  0  0  0  0  0  0  0  0
    1.2910   -1.3902    0.1790 O   0  0  0  0  0  0  0  0  0  0  0  0
    2.6580   -0.7717   -2.8723 H   0  0  0  0  0  0  0  0  0  0  0  0
    2.5224    0.9865   -2.7881 H   0  0  0  0  0  0  0  0  0  0  0  0
    2.9806    0.0607   -1.3535 H   0  0  0  0  0  0  0  0  0  0  0  0
    0.5593    0.7968   -1.2730 H   0  0  0  0  0  0  0  0  0  0  0  0
    0.2505   -0.0936   -2.7485 H   0  0  0  0  0  0  0  0  0  0  0  0
   -0.4946   -1.4249   -0.8748 H   0  0  0  0  0  0  0  0  0  0  0  0
    0.9023   -2.2178   -1.6055 H   0  0  0  0  0  0  0  0  0  0  0  0
    1.2431    0.8454    1.2039 C   0  0  0  0  0  3  0  0  0  0  0  0
   -0.0178    1.6043    0.8247 C   0  0  0  0  0  0  0  0  0  0  0  0
   -1.5584    0.8904    1.4533 S   0  0  0  0  0  0  0  0  0  0  0  0
   -1.5584   -0.7507    0.6884 C   0  0  0  0  0  0  0  0  0  0  0  0
   -1.5584   -0.7507   -0.8313 C   0  0  0  0  0  0  0  0  0  0  0  0
    1.2686   -0.3448    0.6583 H   0  0  0  0  0  0  0  0  0  0  0  0
    2.1279    1.3838    0.8570 H   0  0  0  0  0  0  0  0  0  0  0  0
    1.3138    0.7234    2.2853 H   0  0  0  0  0  0  0  0  0  0  0  0
   -0.0027    2.6075    1.2540 H   0  0  0  0  0  0  0  0  0  0  0  0
   -0.0889    1.7265   -0.2573 H   0  0  0  0  0  0  0  0  0  0  0  0
   -0.7222   -1.3334    1.0785 H   0  0  0  0  0  0  0  0  0  0  0  0
   -2.4696   -1.2146    1.0697 H   0  0  0  0  0  0  0  0  0  0  0  0
   -0.6353   -0.3271   -1.2307 H   0  0  0  0  0  0  0  0  0  0  0  0
   -2.3941   -0.1683   -1.2207 H   0  0  0  0  0  0  0  0  0  0  0  0
   -1.6409   -1.7719   -1.2100 H   0  0  0  0  0  0  0  0  0  0  0  0
  1  2  1  0
  1  5  1  0
  1  6  1  0
  1  7  1  0
  2  3  1  0
  2  8  1  0
  2  9  1  0
  3  4  1  0
  3 10  1  0
  3 11  1  0
  4 17  1  0
 12 13  1  0
 12 18  1  0
 12 19  1  0
 13 14  1  0
 13 20  1  0
 13 21  1  0
 14 15  1  0
 15 16  1  0
 15 22  1  0
 15 23  1  0
 16 24  1  0
 16 25  1  0
 16 26  1  0
M  RAD  1  12   2
M  END
>  <reaction>  (16) 
rmg_rxn_300

>  <mol_properties>  (16) 
{"2": {"label": "*0", "atom_type": "Cs"}, "3": {"label": "*1", "atom_type": "O2s"}, "11": {"label": "*3", "atom_type": "Cs"}, "12": {"label": "*4", "atom_type": "Cs"}, "16": {"label": "*2", "atom_type": "H0"}}

>  <type>  (16) 
unop_12

>  <geom_source>  (16) 
gaussian_log

$$$$
