
     RDKit          3D

  6  5  0  0  0  0  0  0  0  0999 V2000
   -0.4547   -0.0097   -0.0070 C   0  0  0  0  0  0  0  0  0  0  0  0
    0.8695   -0.1987   -0.6218 N   0  0  0  0  0  0  0  0  0  0  0  0
    1.0322   -1.2809   -1.0969 O   0  0  0  0  0  0  0  0  0  0  0  0
   -0.2820    0.2687    1.0347 H   0  0  0  0  0  0  0  0  0  0  0  0
   -1.0716   -0.9051   -0.0916 H   0  0  0  0  0  0  0  0  0  0  0  0
   -0.9130    0.8487   -0.5026 H   0  0  0  0  0  0  0  0  0  0  0  0
  1  2  1  0
  1  4  1  0
  1  5  1  0
  1  6  1  0
  2  3  2  0
M  END
>  <reaction>  (1) 
rmg_rxn_596

>  <mol_properties>  (1) 
{"0": {"label": "donator", "atom_type": "Cs"}, "3": {"label": "d_hydrogen", "atom_type": "H0"}}

>  <type>  (1) 
r1h

$$$$

     RDKit          3D

  2  1  0  0  0  0  0  0  0  0999 V2000
    0.0000    0.0000    0.6715 S   0  0  0  0  0  1  0  0  0  0  0  0
    0.0000    0.0000   -0.6715 H   0  0  0  0  0  0  0  0  0  0  0  0
  1  2  1  0
M  RAD  1   1   2
M  END
>  <reaction>  (2) 
rmg_rxn_596

>  <mol_properties>  (2) 
{"0": {"label": "acceptor", "atom_type": "S2s"}}

>  <type>  (2) 
r2

$$$$

     RDKit          3D

  3  2  0  0  0  0  0  0  0  0999 V2000
   -0.0007    0.6157    0.0000 S   0  0  0  0  0  0  0  0  0  0  0  0
   -0.9686   -0.3090    0.0000 H   0  0  0  0  0  0  0  0  0  0  0  0
    0.9693   -0.3067    0.0000 H   0  0  0  0  0  0  0  0  0  0  0  0
  1  2  1  0
  1  3  1  0
M  END
>  <reaction>  (3) 
rmg_rxn_596

>  <mol_properties>  (3) 
{"0": {"label": "acceptor", "atom_type": "S2s"}, "2": {"label": "a_hydrogen", "atom_type": "H0"}}

>  <type>  (3) 
r2h

$$$$

     RDKit          3D

  8  6  0  0  0  0  0  0  0  0999 V2000
   -1.2375    0.3155    1.4131 S   0  0  0  0  0  1  0  0  0  0  0  0
   -1.7793   -0.3452    0.3797 H   0  0  0  0  0  0  0  0  0  0  0  0
    1.1608    0.5003   -0.2217 C   0  0  0  0  0  0  0  0  0  0  0  0
    1.2479   -0.7483   -0.8513 N   0  0  0  0  0  0  0  0  0  0  0  0
    0.2980   -1.2036   -1.4144 O   0  0  0  0  0  0  0  0  0  0  0  0
    0.2059    0.3744    0.6095 H   0  0  0  0  0  0  0  0  0  0  0  0
    0.7946    1.2834   -0.8859 H   0  0  0  0  0  0  0  0  0  0  0  0
    2.0634    0.7479    0.3269 H   0  0  0  0  0  0  0  0  0  0  0  0
  1  2  1  0
  3  4  1  0
  3  6  1  0
  3  7  1  0
  3  8  1  0
  4  5  2  0
M  RAD  1   1   2
M  END
>  <reaction>  (4) 
rmg_rxn_596

>  <mol_properties>  (4) 
{"0": {"label": "*3", "atom_type": "S2s"}, "1": {"label": "*4", "atom_type": "H0"}, "2": {"label": "*1", "atom_type": "Cs"}, "3": {"label": "*0", "atom_type": "N3d"}, "5": {"label": "*2", "atom_type": "H0"}}

>  <type>  (4) 
ts

$$$$

     RDKit          3D

  8  6  0  0  0  0  0  0  0  0999 V2000
   -1.3639    0.5945    1.4442 S   0  0  0  0  0  1  0  0  0  0  0  0
   -0.6280    0.8302    2.5372 H   0  0  0  0  0  0  0  0  0  0  0  0
    0.9866    0.4355   -0.2755 C   0  0  0  0  0  0  0  0  0  0  0  0
    0.9866   -0.9102   -0.8723 N   0  0  0  0  0  0  0  0  0  0  0  0
    0.9866   -0.9102   -2.0654 O   0  0  0  0  0  0  0  0  0  0  0  0
   -0.0694    0.5069    0.4971 H   0  0  0  0  0  0  0  0  0  0  0  0
    0.9866    1.2160   -1.0373 H   0  0  0  0  0  0  0  0  0  0  0  0
    1.8666    0.4950    0.3683 H   0  0  0  0  0  0  0  0  0  0  0  0
  1  2  1  0
  3  4  1  0
  3  6  1  0
  3  7  1  0
  3  8  1  0
  4  5  2  0
M  RAD  1   1   2
M  END
>  <reaction>  (5) 
rmg_rxn_596

>  <mol_properties>  (5) 
{"0": {"label": "*3", "atom_type": "S2s"}, "1": {"label": "*4", "atom_type": "H0"}, "2": {"label": "*1", "atom_type": "Cs"}, "3": {"label": "*0", "atom_type": "N3d"}, "5": {"label": "*2", "atom_type": "H0"}}

>  <type>  (5) 
unop_1

>  <geom_source>  (5) 
Heuristics

$$$$

     RDKit          3D

  8  6  0  0  0  0  0  0  0  0999 V2000
   -1.3548    0.6145    1.4548 S   0  0  0  0  0  1  0  0  0  0  0  0
   -1.3271   -0.6968    1.7227 H   0  0  0  0  0  0  0  0  0  0  0  0
    0.9957    0.4555   -0.2648 C   0  0  0  0  0  0  0  0  0  0  0  0
    0.9957   -0.8902   -0.8616 N   0  0  0  0  0  0  0  0  0  0  0  0
    0.9957   -0.8902   -2.0547 O   0  0  0  0  0  0  0  0  0  0  0  0
   -0.0603    0.5269    0.5078 H   0  0  0  0  0  0  0  0  0  0  0  0
    0.9957    1.2360   -1.0266 H   0  0  0  0  0  0  0  0  0  0  0  0
    1.8758    0.5150    0.3790 H   0  0  0  0  0  0  0  0  0  0  0  0
  1  2  1  0
  3  4  1  0
  3  6  1  0
  3  7  1  0
  3  8  1  0
  4  5  2  0
M  RAD  1   1   2
M  END
>  <reaction>  (6) 
rmg_rxn_596

>  <mol_properties>  (6) 
{"0": {"label": "*3", "atom_type": "S2s"}, "1": {"label": "*4", "atom_type": "H0"}, "2": {"label": "*1", "atom_type": "Cs"}, "3": {"label": "*0", "atom_type": "N3d"}, "5": {"label": "*2", "atom_type": "H0"}}

>  <type>  (6) 
unop_2

>  <geom_source>  (6) 
Heuristics

$$$$

     RDKit          3D

  8  6  0  0  0  0  0  0  0  0999 V2000
   -1.3620    0.5864    1.4475 S   0  0  0  0  0  1  0  0  0  0  0  0
   -0.7714    1.4484    2.2841 H   0  0  0  0  0  0  0  0  0  0  0  0
    0.9885    0.4274   -0.2722 C   0  0  0  0  0  0  0  0  0  0  0  0
    0.9885   -0.9183   -0.8690 N   0  0  0  0  0  0  0  0  0  0  0  0
    0.9885   -0.9183   -2.0621 O   0  0  0  0  0  0  0  0  0  0  0  0
   -0.0675    0.4988    0.5004 H   0  0  0  0  0  0  0  0  0  0  0  0
    0.9885    1.2079   -1.0339 H   0  0  0  0  0  0  0  0  0  0  0  0
    1.8685    0.4869    0.3716 H   0  0  0  0  0  0  0  0  0  0  0  0
  1  2  1  0
  3  4  1  0
  3  6  1  0
  3  7  1  0
  3  8  1  0
  4  5  2  0
M  RAD  1   1   2
M  END
>  <reaction>  (7) 
rmg_rxn_596

>  <mol_properties>  (7) 
{"0": {"label": "*3", "atom_type": "S2s"}, "1": {"label": "*4", "atom_type": "H0"}, "2": {"label": "*1", "atom_type": "Cs"}, "3": {"label": "*0", "atom_type": "N3d"}, "5": {"label": "*2", "atom_type": "H0"}}

>  <type>  (7) 
unop_3

>  <geom_source>  (7) 
Heuristics

$$$$

     RDKit          3D

  8  6  0  0  0  0  0  0  0  0999 V2000
   -1.3436    0.6005    1.4714 S   0  0  0  0  0  1  0  0  0  0  0  0
   -2.1830    0.3717    0.4541 H   0  0  0  0  0  0  0  0  0  0  0  0
    1.0069    0.4415   -0.2482 C   0  0  0  0  0  0  0  0  0  0  0  0
    1.0069   -0.9042   -0.8450 N   0  0  0  0  0  0  0  0  0  0  0  0
    1.0069   -0.9042   -2.0381 O   0  0  0  0  0  0  0  0  0  0  0  0
   -0.0491    0.5129    0.5244 H   0  0  0  0  0  0  0  0  0  0  0  0
    1.0069    1.2220   -1.0100 H   0  0  0  0  0  0  0  0  0  0  0  0
    1.8870    0.5010    0.3956 H   0  0  0  0  0  0  0  0  0  0  0  0
  1  2  1  0
  3  4  1  0
  3  6  1  0
  3  7  1  0
  3  8  1  0
  4  5  2  0
M  RAD  1   1   2
M  END
>  <reaction>  (8) 
rmg_rxn_596

>  <mol_properties>  (8) 
{"0": {"label": "*3", "atom_type": "S2s"}, "1": {"label": "*4", "atom_type": "H0"}, "2": {"label": "*1", "atom_type": "Cs"}, "3": {"label": "*0", "atom_type": "N3d"}, "5": {"label": "*2", "atom_type": "H0"}}

>  <type>  (8) 
unop_4

>  <geom_source>  (8) 
Heuristics

$$$$

     RDKit          3D

  8  6  0  0  0  0  0  0  0  0999 V2000
   -1.3579    0.5813    1.4536 S   0  0  0  0  0  1  0  0  0  0  0  0
   -1.0846    1.8395    1.8198 H   0  0  0  0  0  0  0  0  0  0  0  0
    0.9926    0.4223   -0.2661 C   0  0  0  0  0  0  0  0  0  0  0  0
    0.9926   -0.9234   -0.8629 N   0  0  0  0  0  0  0  0  0  0  0  0
    0.9926   -0.9234   -2.0560 O   0  0  0  0  0  0  0  0  0  0  0  0
   -0.0634    0.4937    0.5065 H   0  0  0  0  0  0  0  0  0  0  0  0
    0.9926    1.2028   -1.0279 H   0  0  0  0  0  0  0  0  0  0  0  0
    1.8726    0.4818    0.3777 H   0  0  0  0  0  0  0  0  0  0  0  0
  1  2  1  0
  3  4  1  0
  3  6  1  0
  3  7  1  0
  3  8  1  0
  4  5  2  0
M  RAD  1   1   2
M  END
>  <reaction>  (9) 
rmg_rxn_596

>  <mol_properties>  (9) 
{"0": {"label": "*3", "atom_type": "S2s"}, "1": {"label": "*4", "atom_type": "H0"}, "2": {"label": "*1", "atom_type": "Cs"}, "3": {"label": "*0", "atom_type": "N3d"}, "5": {"label": "*2", "atom_type": "H0"}}

>  <type>  (9) 
unop_5

>  <geom_source>  (9) 
Heuristics

$$$$

     RDKit          3D

  8  6  0  0  0  0  0  0  0  0999 V2000
   -1.3444    0.5916    1.4711 S   0  0  0  0  0  1  0  0  0  0  0  0
   -2.1180    1.0513    0.4801 H   0  0  0  0  0  0  0  0  0  0  0  0
    1.0061    0.4326   -0.2486 C   0  0  0  0  0  0  0  0  0  0  0  0
    1.0061   -0.9131   -0.8454 N   0  0  0  0  0  0  0  0  0  0  0  0
    1.0061   -0.9131   -2.0385 O   0  0  0  0  0  0  0  0  0  0  0  0
   -0.0499    0.5040    0.5240 H   0  0  0  0  0  0  0  0  0  0  0  0
    1.0061    1.2131   -1.0103 H   0  0  0  0  0  0  0  0  0  0  0  0
    1.8861    0.4921    0.3953 H   0  0  0  0  0  0  0  0  0  0  0  0
  1  2  1  0
  3  4  1  0
  3  6  1  0
  3  7  1  0
  3  8  1  0
  4  5  2  0
M  RAD  1   1   2
M  END
>  <reaction>  (10) 
rmg_rxn_596

>  <mol_properties>  (10) 
{"0": {"label": "*3", "atom_type": "S2s"}, "1": {"label": "*4", "atom_type": "H0"}, "2": {"label": "*1", "atom_type": "Cs"}, "3": {"label": "*0", "atom_type": "N3d"}, "5": {"label": "*2", "atom_type": "H0"}}

>  <type>  (10) 
unop_6

>  <geom_source>  (10) 
Heuristics

$$$$

     RDKit          3D

  8  6  0  0  0  0  0  0  0  0999 V2000
   -1.3478    0.5843    1.4672 S   0  0  0  0  0  1  0  0  0  0  0  0
   -1.8621    1.6102    0.7782 H   0  0  0  0  0  0  0  0  0  0  0  0
    1.0027    0.4253   -0.2525 C   0  0  0  0  0  0  0  0  0  0  0  0
    1.0027   -0.9204   -0.8493 N   0  0  0  0  0  0  0  0  0  0  0  0
    1.0027   -0.9204   -2.0424 O   0  0  0  0  0  0  0  0  0  0  0  0
   -0.0533    0.4967    0.5201 H   0  0  0  0  0  0  0  0  0  0  0  0
    1.0027    1.2058   -1.0142 H   0  0  0  0  0  0  0  0  0  0  0  0
    1.8828    0.4848    0.3914 H   0  0  0  0  0  0  0  0  0  0  0  0
  1  2  1  0
  3  4  1  0
  3  6  1  0
  3  7  1  0
  3  8  1  0
  4  5  2  0
M  RAD  1   1   2
M  END
>  <reaction>  (11) 
rmg_rxn_596

>  <mol_properties>  (11) 
{"0": {"label": "*3", "atom_type": "S2s"}, "1": {"label": "*4", "atom_type": "H0"}, "2": {"label": "*1", "atom_type": "Cs"}, "3": {"label": "*0", "atom_type": "N3d"}, "5": {"label": "*2", "atom_type": "H0"}}

>  <type>  (11) 
unop_7

>  <geom_source>  (11) 
Heuristics

$$$$

     RDKit          3D

  8  6  0  0  0  0  0  0  0  0999 V2000
   -1.3631    0.6034    1.4445 S   0  0  0  0  0  1  0  0  0  0  0  0
   -0.6930    0.1506    2.5112 H   0  0  0  0  0  0  0  0  0  0  0  0
    0.9874    0.4444   -0.2751 C   0  0  0  0  0  0  0  0  0  0  0  0
    0.9874   -0.9013   -0.8720 N   0  0  0  0  0  0  0  0  0  0  0  0
    0.9874   -0.9013   -2.0651 O   0  0  0  0  0  0  0  0  0  0  0  0
   -0.0686    0.5158    0.4974 H   0  0  0  0  0  0  0  0  0  0  0  0
    0.9874    1.2249   -1.0369 H   0  0  0  0  0  0  0  0  0  0  0  0
    1.8675    0.5039    0.3687 H   0  0  0  0  0  0  0  0  0  0  0  0
  1  2  1  0
  3  4  1  0
  3  6  1  0
  3  7  1  0
  3  8  1  0
  4  5  2  0
M  RAD  1   1   2
M  END
>  <reaction>  (12) 
rmg_rxn_596

>  <mol_properties>  (12) 
{"0": {"label": "*3", "atom_type": "S2s"}, "1": {"label": "*4", "atom_type": "H0"}, "2": {"label": "*1", "atom_type": "Cs"}, "3": {"label": "*0", "atom_type": "N3d"}, "5": {"label": "*2", "atom_type": "H0"}}

>  <type>  (12) 
unop_8

>  <geom_source>  (12) 
Heuristics

$$$$

     RDKit          3D

  8  6  0  0  0  0  0  0  0  0999 V2000
   -1.3454    0.6086    1.4681 S   0  0  0  0  0  1  0  0  0  0  0  0
   -2.0397   -0.2464    0.7072 H   0  0  0  0  0  0  0  0  0  0  0  0
    1.0051    0.4496   -0.2515 C   0  0  0  0  0  0  0  0  0  0  0  0
    1.0051   -0.8961   -0.8483 N   0  0  0  0  0  0  0  0  0  0  0  0
    1.0051   -0.8961   -2.0415 O   0  0  0  0  0  0  0  0  0  0  0  0
   -0.0509    0.5210    0.5210 H   0  0  0  0  0  0  0  0  0  0  0  0
    1.0051    1.2301   -1.0133 H   0  0  0  0  0  0  0  0  0  0  0  0
    1.8851    0.5091    0.3923 H   0  0  0  0  0  0  0  0  0  0  0  0
  1  2  1  0
  3  4  1  0
  3  6  1  0
  3  7  1  0
  3  8  1  0
  4  5  2  0
M  RAD  1   1   2
M  END
>  <reaction>  (13) 
rmg_rxn_596

>  <mol_properties>  (13) 
{"0": {"label": "*3", "atom_type": "S2s"}, "1": {"label": "*4", "atom_type": "H0"}, "2": {"label": "*1", "atom_type": "Cs"}, "3": {"label": "*0", "atom_type": "N3d"}, "5": {"label": "*2", "atom_type": "H0"}}

>  <type>  (13) 
unop_9

>  <geom_source>  (13) 
Heuristics

$$$$

     RDKit          3D

  8  6  0  0  0  0  0  0  0  0999 V2000
   -1.3597    0.6107    1.4484 S   0  0  0  0  0  1  0  0  0  0  0  0
   -0.9489   -0.4083    2.2131 H   0  0  0  0  0  0  0  0  0  0  0  0
    0.9908    0.4517   -0.2712 C   0  0  0  0  0  0  0  0  0  0  0  0
    0.9908   -0.8940   -0.8681 N   0  0  0  0  0  0  0  0  0  0  0  0
    0.9908   -0.8940   -2.0612 O   0  0  0  0  0  0  0  0  0  0  0  0
   -0.0652    0.5232    0.5013 H   0  0  0  0  0  0  0  0  0  0  0  0
    0.9908    1.2322   -1.0330 H   0  0  0  0  0  0  0  0  0  0  0  0
    1.8708    0.5113    0.3726 H   0  0  0  0  0  0  0  0  0  0  0  0
  1  2  1  0
  3  4  1  0
  3  6  1  0
  3  7  1  0
  3  8  1  0
  4  5  2  0
M  RAD  1   1   2
M  END
>  <reaction>  (14) 
rmg_rxn_596

>  <mol_properties>  (14) 
{"0": {"label": "*3", "atom_type": "S2s"}, "1": {"label": "*4", "atom_type": "H0"}, "2": {"label": "*1", "atom_type": "Cs"}, "3": {"label": "*0", "atom_type": "N3d"}, "5": {"label": "*2", "atom_type": "H0"}}

>  <type>  (14) 
unop_10

>  <geom_source>  (14) 
Heuristics

$$$$

     RDKit          3D

  8  6  0  0  0  0  0  0  0  0999 V2000
   -1.3527    0.5805    1.4608 S   0  0  0  0  0  1  0  0  0  0  0  0
   -1.4839    1.8987    1.2686 H   0  0  0  0  0  0  0  0  0  0  0  0
    0.9978    0.4216   -0.2589 C   0  0  0  0  0  0  0  0  0  0  0  0
    0.9978   -0.9242   -0.8557 N   0  0  0  0  0  0  0  0  0  0  0  0
    0.9978   -0.9242   -2.0488 O   0  0  0  0  0  0  0  0  0  0  0  0
   -0.0582    0.4930    0.5137 H   0  0  0  0  0  0  0  0  0  0  0  0
    0.9978    1.2020   -1.0207 H   0  0  0  0  0  0  0  0  0  0  0  0
    1.8778    0.4811    0.3849 H   0  0  0  0  0  0  0  0  0  0  0  0
  1  2  1  0
  3  4  1  0
  3  6  1  0
  3  7  1  0
  3  8  1  0
  4  5  2  0
M  RAD  1   1   2
M  END
>  <reaction>  (15) 
rmg_rxn_596

>  <mol_properties>  (15) 
{"0": {"label": "*3", "atom_type": "S2s"}, "1": {"label": "*4", "atom_type": "H0"}, "2": {"label": "*1", "atom_type": "Cs"}, "3": {"label": "*0", "atom_type": "N3d"}, "5": {"label": "*2", "atom_type": "H0"}}

>  <type>  (15) 
unop_11

>  <geom_source>  (15) 
Heuristics

$$$$

     RDKit          3D

  8  6  0  0  0  0  0  0  0  0999 V2000
   -1.3495    0.6137    1.4620 S   0  0  0  0  0  1  0  0  0  0  0  0
   -1.7264   -0.6375    1.1715 H   0  0  0  0  0  0  0  0  0  0  0  0
    1.0010    0.4547   -0.2576 C   0  0  0  0  0  0  0  0  0  0  0  0
    1.0010   -0.8910   -0.8544 N   0  0  0  0  0  0  0  0  0  0  0  0
    1.0010   -0.8910   -2.0475 O   0  0  0  0  0  0  0  0  0  0  0  0
   -0.0550    0.5262    0.5150 H   0  0  0  0  0  0  0  0  0  0  0  0
    1.0010    1.2352   -1.0194 H   0  0  0  0  0  0  0  0  0  0  0  0
    1.8810    0.5143    0.3862 H   0  0  0  0  0  0  0  0  0  0  0  0
  1  2  1  0
  3  4  1  0
  3  6  1  0
  3  7  1  0
  3  8  1  0
  4  5  2  0
M  RAD  1   1   2
M  END
>  <reaction>  (16) 
rmg_rxn_596

>  <mol_properties>  (16) 
{"0": {"label": "*3", "atom_type": "S2s"}, "1": {"label": "*4", "atom_type": "H0"}, "2": {"label": "*1", "atom_type": "Cs"}, "3": {"label": "*0", "atom_type": "N3d"}, "5": {"label": "*2", "atom_type": "H0"}}

>  <type>  (16) 
unop_12

>  <geom_source>  (16) 
Heuristics

$$$$

     RDKit          3D

  8  6  0  0  0  0  0  0  0  0999 V2000
   -1.3548    0.6145    1.4548 S   0  0  0  0  0  1  0  0  0  0  0  0
   -1.3271   -0.6968    1.7228 H   0  0  0  0  0  0  0  0  0  0  0  0
    0.9957    0.4555   -0.2648 C   0  0  0  0  0  0  0  0  0  0  0  0
    0.9957   -0.8902   -0.8616 N   0  0  0  0  0  0  0  0  0  0  0  0
    0.9957   -0.8902   -2.0547 O   0  0  0  0  0  0  0  0  0  0  0  0
   -0.0603    0.5269    0.5078 H   0  0  0  0  0  0  0  0  0  0  0  0
    0.9957    1.2360   -1.0266 H   0  0  0  0  0  0  0  0  0  0  0  0
    1.8758    0.5150    0.3790 H   0  0  0  0  0  0  0  0  0  0  0  0
  1  2  1  0
  3  4  1  0
  3  6  1  0
  3  7  1  0
  3  8  1  0
  4  5  2  0
M  RAD  1   1   2
M  END
>  <reaction>  (17) 
rmg_rxn_596

>  <mol_properties>  (17) 
{"0": {"label": "*3", "atom_type": "S2s"}, "1": {"label": "*4", "atom_type": "H0"}, "2": {"label": "*1", "atom_type": "Cs"}, "3": {"label": "*0", "atom_type": "N3d"}, "5": {"label": "*2", "atom_type": "H0"}}

>  <type>  (17) 
unop_13

>  <geom_source>  (17) 
gaussian_log

$$$$
