
     RDKit          3D

  9  8  0  0  0  0  0  0  0  0999 V2000
   -1.5470   -0.0755   -0.1976 C   0  0  0  0  0  0  0  0  0  0  0  0
   -0.2885    0.4507    0.1749 O   0  0  0  0  0  0  0  0  0  0  0  0
   -0.1502    1.7216   -0.3294 N   0  0  0  0  0  0  0  0  0  0  0  0
    0.9626    2.2353   -0.0219 C   0  0  0  0  0  0  0  0  0  0  0  0
   -1.6392   -0.1356   -1.2844 H   0  0  0  0  0  0  0  0  0  0  0  0
   -2.3597    0.5337    0.2044 H   0  0  0  0  0  0  0  0  0  0  0  0
   -1.5879   -1.0750    0.2318 H   0  0  0  0  0  0  0  0  0  0  0  0
    1.1497    3.2381   -0.3820 H   0  0  0  0  0  0  0  0  0  0  0  0
    1.7060    1.7101    0.5739 H   0  0  0  0  0  0  0  0  0  0  0  0
  1  2  1  0
  1  5  1  0
  1  6  1  0
  1  7  1  0
  2  3  1  0
  3  4  2  3
  4  8  1  0
  4  9  1  0
M  END
>  <reaction>  (1) 
rmg_rxn_15719

>  <mol_properties>  (1) 
{"0": {"label": "donator", "atom_type": "Cs"}, "4": {"label": "d_hydrogen", "atom_type": "H0"}}

>  <type>  (1) 
r1h

$$$$

     RDKit          3D

 14 13  0  0  0  0  0  0  0  0999 V2000
   -2.2399   -0.0166   -0.1883 C   0  0  0  0  0  0  0  0  0  0  0  0
   -1.3469   -1.1905   -0.0279 C   0  0  0  0  0  3  0  0  0  0  0  0
   -1.6654   -2.2692    0.9493 C   0  0  0  0  0  0  0  0  0  0  0  0
   -2.0490   -1.7958    2.2240 O   0  0  0  0  0  0  0  0  0  0  0  0
   -0.9990   -1.1771    2.9198 C   0  0  0  0  0  0  0  0  0  0  0  0
   -2.6700    0.2862    0.7685 H   0  0  0  0  0  0  0  0  0  0  0  0
   -3.0850   -0.2450   -0.8547 H   0  0  0  0  0  0  0  0  0  0  0  0
   -1.7143    0.8346   -0.6240 H   0  0  0  0  0  0  0  0  0  0  0  0
   -0.5797   -1.3809   -0.7686 H   0  0  0  0  0  0  0  0  0  0  0  0
   -2.5244   -2.8609    0.6038 H   0  0  0  0  0  0  0  0  0  0  0  0
   -0.8142   -2.9586    1.0411 H   0  0  0  0  0  0  0  0  0  0  0  0
   -0.6226   -0.2923    2.3915 H   0  0  0  0  0  0  0  0  0  0  0  0
   -1.3883   -0.8732    3.8905 H   0  0  0  0  0  0  0  0  0  0  0  0
   -0.1599   -1.8693    3.0725 H   0  0  0  0  0  0  0  0  0  0  0  0
  1  2  1  0
  1  6  1  0
  1  7  1  0
  1  8  1  0
  2  3  1  0
  2  9  1  0
  3  4  1  0
  3 10  1  0
  3 11  1  0
  4  5  1  0
  5 12  1  0
  5 13  1  0
  5 14  1  0
M  RAD  1   2   2
M  END
>  <reaction>  (2) 
rmg_rxn_15719

>  <mol_properties>  (2) 
{"1": {"label": "acceptor", "atom_type": "Cs"}}

>  <type>  (2) 
r2

$$$$

     RDKit          3D

 15 14  0  0  0  0  0  0  0  0999 V2000
   -1.2811   -0.4129    1.0228 C   0  0  0  0  0  0  0  0  0  0  0  0
   -1.0023   -0.5809   -0.4650 C   0  0  0  0  0  0  0  0  0  0  0  0
   -2.0576    0.0568   -1.3449 C   0  0  0  0  0  0  0  0  0  0  0  0
   -2.0663    1.4464   -1.1307 O   0  0  0  0  0  0  0  0  0  0  0  0
   -3.0424    2.1072   -1.8849 C   0  0  0  0  0  0  0  0  0  0  0  0
   -2.2382   -0.8657    1.2935 H   0  0  0  0  0  0  0  0  0  0  0  0
   -1.3219    0.6426    1.2914 H   0  0  0  0  0  0  0  0  0  0  0  0
   -0.5042   -0.8881    1.6236 H   0  0  0  0  0  0  0  0  0  0  0  0
   -0.0316   -0.1460   -0.7167 H   0  0  0  0  0  0  0  0  0  0  0  0
   -0.9494   -1.6429   -0.7203 H   0  0  0  0  0  0  0  0  0  0  0  0
   -1.8518   -0.1570   -2.4041 H   0  0  0  0  0  0  0  0  0  0  0  0
   -3.0491   -0.3636   -1.1124 H   0  0  0  0  0  0  0  0  0  0  0  0
   -4.0521    1.7545   -1.6343 H   0  0  0  0  0  0  0  0  0  0  0  0
   -2.8850    1.9634   -2.9626 H   0  0  0  0  0  0  0  0  0  0  0  0
   -2.9730    3.1700   -1.6570 H   0  0  0  0  0  0  0  0  0  0  0  0
  1  2  1  0
  1  6  1  0
  1  7  1  0
  1  8  1  0
  2  3  1  0
  2  9  1  0
  2 10  1  0
  3  4  1  0
  3 11  1  0
  3 12  1  0
  4  5  1  0
  5 13  1  0
  5 14  1  0
  5 15  1  0
M  END
>  <reaction>  (3) 
rmg_rxn_15719

>  <mol_properties>  (3) 
{"0": {"label": "a_hydrogen", "atom_type": "H0"}, "2": {"label": "acceptor", "atom_type": "Cs"}}

>  <type>  (3) 
r2h

$$$$

     RDKit          3D

 23 21  0  0  0  0  0  0  0  0999 V2000
   -1.1966    1.8877   -0.2354 C   0  0  0  0  0  0  0  0  0  0  0  0
   -1.1959    1.4430   -1.5525 O   0  0  0  0  0  0  0  0  0  0  0  0
   -1.5562    0.1153   -1.6151 N   0  0  0  0  0  0  0  0  0  0  0  0
   -1.4943   -0.3322   -2.7956 C   0  0  0  0  0  0  0  0  0  0  0  0
   -0.1518    1.3190    0.3924 H   0  0  0  0  0  0  0  0  0  0  0  0
   -2.0837    1.5817    0.3191 H   0  0  0  0  0  0  0  0  0  0  0  0
   -1.0207    2.9599   -0.2430 H   0  0  0  0  0  0  0  0  0  0  0  0
   -1.7701   -1.3689   -2.9342 H   0  0  0  0  0  0  0  0  0  0  0  0
   -1.1838    0.2797   -3.6393 H   0  0  0  0  0  0  0  0  0  0  0  0
    1.8618    0.4948   -0.2984 C   0  0  0  0  0  0  0  0  0  0  0  0
    0.9206    0.6393    0.8667 C   0  0  0  0  0  3  0  0  0  0  0  0
    0.3288   -0.6311    1.4011 C   0  0  0  0  0  0  0  0  0  0  0  0
    1.3443   -1.4212    1.9861 O   0  0  0  0  0  0  0  0  0  0  0  0
    0.8608   -2.6396    2.4773 C   0  0  0  0  0  0  0  0  0  0  0  0
    2.7688   -0.0404   -0.0030 H   0  0  0  0  0  0  0  0  0  0  0  0
    2.1590    1.4681   -0.6931 H   0  0  0  0  0  0  0  0  0  0  0  0
    1.3925   -0.0696   -1.1080 H   0  0  0  0  0  0  0  0  0  0  0  0
    1.2946    1.2919    1.6565 H   0  0  0  0  0  0  0  0  0  0  0  0
   -0.4441   -0.4078    2.1518 H   0  0  0  0  0  0  0  0  0  0  0  0
   -0.1576   -1.1877    0.5864 H   0  0  0  0  0  0  0  0  0  0  0  0
    0.4153   -3.2481    1.6785 H   0  0  0  0  0  0  0  0  0  0  0  0
    1.7033   -3.1811    2.9061 H   0  0  0  0  0  0  0  0  0  0  0  0
    0.1017   -2.4878    3.2570 H   0  0  0  0  0  0  0  0  0  0  0  0
  1  2  1  0
  1  5  1  0
  1  6  1  0
  1  7  1  0
  2  3  1  0
  3  4  2  3
  4  8  1  0
  4  9  1  0
 10 11  1  0
 10 15  1  0
 10 16  1  0
 10 17  1  0
 11 12  1  0
 11 18  1  0
 12 13  1  0
 12 19  1  0
 12 20  1  0
 13 14  1  0
 14 21  1  0
 14 22  1  0
 14 23  1  0
M  RAD  1  11   2
M  END
>  <reaction>  (4) 
rmg_rxn_15719

>  <mol_properties>  (4) 
{"0": {"label": "*1", "atom_type": "Cs"}, "1": {"label": "*0", "atom_type": "O2s"}, "4": {"label": "*2", "atom_type": "H0"}, "10": {"label": "*3", "atom_type": "Cs"}, "11": {"label": "*4", "atom_type": "Cs"}}

>  <type>  (4) 
ts

$$$$

     RDKit          3D

 23 21  0  0  0  0  0  0  0  0999 V2000
   -0.7294   -0.7963    1.2303 C   0  0  0  0  0  3  0  0  0  0  0  0
   -1.8995   -0.8318    0.4917 O   0  0  0  0  0  0  0  0  0  0  0  0
   -2.1809    0.3756   -0.1137 N   0  0  0  0  0  0  0  0  0  0  0  0
   -3.2256    0.4084   -0.8240 C   0  0  0  0  0  0  0  0  0  0  0  0
    0.3073   -0.8405    0.3816 H   0  0  0  0  0  0  0  0  0  0  0  0
   -0.6908   -1.6926    1.8381 H   0  0  0  0  0  0  0  0  0  0  0  0
   -0.5793    0.1295    1.7785 H   0  0  0  0  0  0  0  0  0  0  0  0
   -3.4545    1.3472   -1.2956 H   0  0  0  0  0  0  0  0  0  0  0  0
   -3.8892   -0.4372   -0.9766 H   0  0  0  0  0  0  0  0  0  0  0  0
    1.8463   -2.1918   -0.6234 C   0  0  0  0  0  0  0  0  0  0  0  0
    1.2723   -0.8029   -0.5034 C   0  0  0  0  0  0  0  0  0  0  0  0
    2.2518    0.2310    0.0180 C   0  0  0  0  0  0  0  0  0  0  0  0
    1.6576    1.3791    0.5820 O   0  0  0  0  0  0  0  0  0  0  0  0
    0.9126    2.1626   -0.3215 C   0  0  0  0  0  0  0  0  0  0  0  0
    2.2443   -2.5294    0.3316 H   0  0  0  0  0  0  0  0  0  0  0  0
    2.6588   -2.2158   -1.3531 H   0  0  0  0  0  0  0  0  0  0  0  0
    1.0814   -2.8930   -0.9496 H   0  0  0  0  0  0  0  0  0  0  0  0
    0.7830   -0.4833   -1.4223 H   0  0  0  0  0  0  0  0  0  0  0  0
    2.8461   -0.1969    0.8304 H   0  0  0  0  0  0  0  0  0  0  0  0
    2.9408    0.5347   -0.7929 H   0  0  0  0  0  0  0  0  0  0  0  0
    0.6958    3.0960    0.1954 H   0  0  0  0  0  0  0  0  0  0  0  0
    1.4922    2.3777   -1.2276 H   0  0  0  0  0  0  0  0  0  0  0  0
   -0.0313    1.6816   -0.5983 H   0  0  0  0  0  0  0  0  0  0  0  0
  1  2  1  0
  1  6  1  0
  1  7  1  0
  2  3  1  0
  3  4  2  3
  4  8  1  0
  4  9  1  0
  5 11  1  0
 10 11  1  0
 10 15  1  0
 10 16  1  0
 10 17  1  0
 11 12  1  0
 11 18  1  0
 12 13  1  0
 12 19  1  0
 12 20  1  0
 13 14  1  0
 14 21  1  0
 14 22  1  0
 14 23  1  0
M  RAD  1   1   2
M  END
>  <reaction>  (5) 
rmg_rxn_15719

>  <mol_properties>  (5) 
{"0": {"label": "*1", "atom_type": "Cs"}, "1": {"label": "*0", "atom_type": "O2s"}, "4": {"label": "*2", "atom_type": "H0"}, "10": {"label": "*3", "atom_type": "Cs"}, "11": {"label": "*4", "atom_type": "Cs"}}

>  <type>  (5) 
unop_1

>  <geom_source>  (5) 
crest_best.xyz

$$$$

     RDKit          3D

 23 21  0  0  0  0  0  0  0  0999 V2000
   -1.7518    1.5356    0.1015 C   0  0  0  0  0  0  0  0  0  0  0  0
   -1.7518    1.5935   -1.3114 O   0  0  0  0  0  0  0  0  0  0  0  0
   -1.7518    0.3196   -1.8271 N   0  0  0  0  0  0  0  0  0  0  0  0
   -1.7518    0.3196   -3.0907 C   0  0  0  0  0  0  0  0  0  0  0  0
   -0.6812    0.9234    0.5456 H   0  0  0  0  0  0  0  0  0  0  0  0
   -2.6439    1.0254    0.4716 H   0  0  0  0  0  0  0  0  0  0  0  0
   -1.7518    2.5705    0.4393 H   0  0  0  0  0  0  0  0  0  0  0  0
   -1.7518   -0.6474   -3.5756 H   0  0  0  0  0  0  0  0  0  0  0  0
   -1.7518    1.2361   -3.6769 H   0  0  0  0  0  0  0  0  0  0  0  0
    1.1953    1.2445    1.8843 C   0  0  0  0  0  0  0  0  0  0  0  0
    0.3906    0.3106    0.9902 C   0  0  0  0  0  3  0  0  0  0  0  0
    1.2046   -0.8485    0.4531 C   0  0  0  0  0  0  0  0  0  0  0  0
    1.6361   -1.6514    1.5237 O   0  0  0  0  0  0  0  0  0  0  0  0
    2.4273   -2.7293    1.1111 C   0  0  0  0  0  0  0  0  0  0  0  0
    1.5904    0.7083    2.7471 H   0  0  0  0  0  0  0  0  0  0  0  0
    0.5785    2.0679    2.2475 H   0  0  0  0  0  0  0  0  0  0  0  0
    2.0401    1.6735    1.3396 H   0  0  0  0  0  0  0  0  0  0  0  0
   -0.4646   -0.0913    1.5398 H   0  0  0  0  0  0  0  0  0  0  0  0
    0.6012   -1.4481   -0.2445 H   0  0  0  0  0  0  0  0  0  0  0  0
    2.0756   -0.4723   -0.1069 H   0  0  0  0  0  0  0  0  0  0  0  0
    3.3380   -2.3881    0.6004 H   0  0  0  0  0  0  0  0  0  0  0  0
    2.7105   -3.2911    2.0003 H   0  0  0  0  0  0  0  0  0  0  0  0
    1.8792   -3.3943    0.4298 H   0  0  0  0  0  0  0  0  0  0  0  0
  1  2  1  0
  1  5  1  0
  1  6  1  0
  1  7  1  0
  2  3  1  0
  3  4  2  3
  4  8  1  0
  4  9  1  0
 10 11  1  0
 10 15  1  0
 10 16  1  0
 10 17  1  0
 11 12  1  0
 11 18  1  0
 12 13  1  0
 12 19  1  0
 12 20  1  0
 13 14  1  0
 14 21  1  0
 14 22  1  0
 14 23  1  0
M  RAD  1  11   2
M  END
>  <reaction>  (6) 
rmg_rxn_15719

>  <mol_properties>  (6) 
{"0": {"label": "*1", "atom_type": "Cs"}, "1": {"label": "*0", "atom_type": "O2s"}, "4": {"label": "*2", "atom_type": "H0"}, "10": {"label": "*3", "atom_type": "Cs"}, "11": {"label": "*4", "atom_type": "Cs"}}

>  <type>  (6) 
unop_2

>  <geom_source>  (6) 
Heuristics

$$$$

     RDKit          3D

 23 21  0  0  0  0  0  0  0  0999 V2000
    0.7735   -0.4578    1.0942 C   0  0  0  0  0  3  0  0  0  0  0  0
    1.7945   -0.8702    0.2573 O   0  0  0  0  0  0  0  0  0  0  0  0
    2.7623    0.0976    0.0831 N   0  0  0  0  0  0  0  0  0  0  0  0
    3.7011   -0.1970   -0.7097 C   0  0  0  0  0  0  0  0  0  0  0  0
   -0.1007    0.2700    0.3847 H   0  0  0  0  0  0  0  0  0  0  0  0
    1.1044    0.2043    1.8899 H   0  0  0  0  0  0  0  0  0  0  0  0
    0.2298   -1.3320    1.4318 H   0  0  0  0  0  0  0  0  0  0  0  0
    4.4635    0.5486   -0.8466 H   0  0  0  0  0  0  0  0  0  0  0  0
    3.7803   -1.1395   -1.2431 H   0  0  0  0  0  0  0  0  0  0  0  0
   -0.5965    2.4328   -0.1214 C   0  0  0  0  0  0  0  0  0  0  0  0
   -0.9357    0.9789   -0.3325 C   0  0  0  0  0  0  0  0  0  0  0  0
   -2.3146    0.5844    0.1591 C   0  0  0  0  0  0  0  0  0  0  0  0
   -2.4903   -0.8008    0.3691 O   0  0  0  0  0  0  0  0  0  0  0  0
   -2.4428   -1.5822   -0.7987 C   0  0  0  0  0  0  0  0  0  0  0  0
   -0.7081    2.7067    0.9258 H   0  0  0  0  0  0  0  0  0  0  0  0
   -1.2541    3.0769   -0.7094 H   0  0  0  0  0  0  0  0  0  0  0  0
    0.4291    2.6298   -0.4249 H   0  0  0  0  0  0  0  0  0  0  0  0
   -0.7547    0.6657   -1.3596 H   0  0  0  0  0  0  0  0  0  0  0  0
   -2.5028    1.0360    1.1372 H   0  0  0  0  0  0  0  0  0  0  0  0
   -3.0852    0.9493   -0.5456 H   0  0  0  0  0  0  0  0  0  0  0  0
   -3.1274   -1.1945   -1.5634 H   0  0  0  0  0  0  0  0  0  0  0  0
   -1.4321   -1.6326   -1.2174 H   0  0  0  0  0  0  0  0  0  0  0  0
   -2.7576   -2.5834   -0.5092 H   0  0  0  0  0  0  0  0  0  0  0  0
  1  2  1  0
  1  6  1  0
  1  7  1  0
  2  3  1  0
  3  4  2  3
  4  8  1  0
  4  9  1  0
  5 11  1  0
 10 11  1  0
 10 15  1  0
 10 16  1  0
 10 17  1  0
 11 12  1  0
 11 18  1  0
 12 13  1  0
 12 19  1  0
 12 20  1  0
 13 14  1  0
 14 21  1  0
 14 22  1  0
 14 23  1  0
M  RAD  1   1   2
M  END
>  <reaction>  (7) 
rmg_rxn_15719

>  <mol_properties>  (7) 
{"0": {"label": "*1", "atom_type": "Cs"}, "1": {"label": "*0", "atom_type": "O2s"}, "4": {"label": "*2", "atom_type": "H0"}, "10": {"label": "*3", "atom_type": "Cs"}, "11": {"label": "*4", "atom_type": "Cs"}}

>  <type>  (7) 
unop_3

>  <geom_source>  (7) 
Heuristics

$$$$

     RDKit          3D

 23 21  0  0  0  0  0  0  0  0999 V2000
   -1.4241    1.6924    0.6528 C   0  0  0  0  0  3  0  0  0  0  0  0
   -2.4043    0.8487    0.3179 O   0  0  0  0  0  0  0  0  0  0  0  0
   -2.0102   -0.2661   -0.3794 N   0  0  0  0  0  0  0  0  0  0  0  0
   -2.9458   -1.0674   -0.7077 C   0  0  0  0  0  0  0  0  0  0  0  0
    1.6339   -2.5171   -0.3972 H   0  0  0  0  0  0  0  0  0  0  0  0
   -0.4077    1.5064    0.3638 H   0  0  0  0  0  0  0  0  0  0  0  0
   -1.7610    2.5525    1.1931 H   0  0  0  0  0  0  0  0  0  0  0  0
   -2.6518   -1.9461   -1.2512 H   0  0  0  0  0  0  0  0  0  0  0  0
   -3.9929   -0.9112   -0.4717 H   0  0  0  0  0  0  0  0  0  0  0  0
    0.8355   -1.4751    1.3532 C   0  0  0  0  0  0  0  0  0  0  0  0
    1.6912   -1.5457    0.1036 C   0  0  0  0  0  0  0  0  0  0  0  0
    1.4053   -0.4172   -0.8793 C   0  0  0  0  0  0  0  0  0  0  0  0
    1.6343    0.8756   -0.3530 O   0  0  0  0  0  0  0  0  0  0  0  0
    2.9869    1.1971   -0.1583 C   0  0  0  0  0  0  0  0  0  0  0  0
    1.0177   -0.5392    1.8766 H   0  0  0  0  0  0  0  0  0  0  0  0
    1.0598   -2.3001    2.0252 H   0  0  0  0  0  0  0  0  0  0  0  0
   -0.2166   -1.5147    1.0822 H   0  0  0  0  0  0  0  0  0  0  0  0
    2.7355   -1.6638    0.3130 H   0  0  0  0  0  0  0  0  0  0  0  0
    2.0032   -0.5553   -1.7934 H   0  0  0  0  0  0  0  0  0  0  0  0
    0.3426   -0.4287   -1.1371 H   0  0  0  0  0  0  0  0  0  0  0  0
    3.4449    0.5910    0.6309 H   0  0  0  0  0  0  0  0  0  0  0  0
    3.5614    1.0642   -1.0838 H   0  0  0  0  0  0  0  0  0  0  0  0
    3.0152    2.2452    0.1356 H   0  0  0  0  0  0  0  0  0  0  0  0
  1  2  1  0
  1  6  1  0
  1  7  1  0
  2  3  1  0
  3  4  2  3
  4  8  1  0
  4  9  1  0
  5 11  1  0
 10 11  1  0
 10 15  1  0
 10 16  1  0
 10 17  1  0
 11 12  1  0
 11 18  1  0
 12 13  1  0
 12 19  1  0
 12 20  1  0
 13 14  1  0
 14 21  1  0
 14 22  1  0
 14 23  1  0
M  RAD  1   1   2
M  END
>  <reaction>  (8) 
rmg_rxn_15719

>  <mol_properties>  (8) 
{"0": {"label": "*1", "atom_type": "Cs"}, "1": {"label": "*0", "atom_type": "O2s"}, "4": {"label": "*2", "atom_type": "H0"}, "10": {"label": "*3", "atom_type": "Cs"}, "11": {"label": "*4", "atom_type": "Cs"}}

>  <type>  (8) 
unop_4

>  <geom_source>  (8) 
Heuristics

$$$$

     RDKit          3D

 23 21  0  0  0  0  0  0  0  0999 V2000
    0.7313   -0.7865   -1.2352 C   0  0  0  0  0  3  0  0  0  0  0  0
    1.9023   -0.8239   -0.4981 O   0  0  0  0  0  0  0  0  0  0  0  0
    2.1795    0.3793    0.1175 N   0  0  0  0  0  0  0  0  0  0  0  0
    3.2248    0.4100    0.8271 C   0  0  0  0  0  0  0  0  0  0  0  0
   -0.3037   -0.8383   -0.3849 H   0  0  0  0  0  0  0  0  0  0  0  0
    0.6942   -1.6790   -1.8485 H   0  0  0  0  0  0  0  0  0  0  0  0
    0.5784    0.1423   -1.7775 H   0  0  0  0  0  0  0  0  0  0  0  0
    3.4504    1.3454    1.3069 H   0  0  0  0  0  0  0  0  0  0  0  0
    3.8919   -0.4343    0.9716 H   0  0  0  0  0  0  0  0  0  0  0  0
   -1.8330   -2.1980    0.6244 C   0  0  0  0  0  0  0  0  0  0  0  0
   -1.2668   -0.8059    0.5025 C   0  0  0  0  0  0  0  0  0  0  0  0
   -2.2530    0.2227   -0.0167 C   0  0  0  0  0  0  0  0  0  0  0  0
   -1.6660    1.3748   -0.5801 O   0  0  0  0  0  0  0  0  0  0  0  0
   -0.9239    2.1612    0.3232 C   0  0  0  0  0  0  0  0  0  0  0  0
   -2.6417   -2.2265    1.3580 H   0  0  0  0  0  0  0  0  0  0  0  0
   -1.0628   -2.8953    0.9465 H   0  0  0  0  0  0  0  0  0  0  0  0
   -2.2338   -2.5371   -0.3288 H   0  0  0  0  0  0  0  0  0  0  0  0
   -0.7769   -0.4835    1.4200 H   0  0  0  0  0  0  0  0  0  0  0  0
   -2.8458   -0.2078   -0.8288 H   0  0  0  0  0  0  0  0  0  0  0  0
   -2.9428    0.5216    0.7953 H   0  0  0  0  0  0  0  0  0  0  0  0
   -1.5034    2.3723    1.2304 H   0  0  0  0  0  0  0  0  0  0  0  0
    0.0229    1.6849    0.5982 H   0  0  0  0  0  0  0  0  0  0  0  0
   -0.7128    3.0963   -0.1930 H   0  0  0  0  0  0  0  0  0  0  0  0
  1  2  1  0
  1  6  1  0
  1  7  1  0
  2  3  1  0
  3  4  2  3
  4  8  1  0
  4  9  1  0
  5 11  1  0
 10 11  1  0
 10 15  1  0
 10 16  1  0
 10 17  1  0
 11 12  1  0
 11 18  1  0
 12 13  1  0
 12 19  1  0
 12 20  1  0
 13 14  1  0
 14 21  1  0
 14 22  1  0
 14 23  1  0
M  RAD  1   1   2
M  END
>  <reaction>  (9) 
rmg_rxn_15719

>  <mol_properties>  (9) 
{"0": {"label": "*1", "atom_type": "Cs"}, "1": {"label": "*0", "atom_type": "O2s"}, "4": {"label": "*2", "atom_type": "H0"}, "10": {"label": "*3", "atom_type": "Cs"}, "11": {"label": "*4", "atom_type": "Cs"}}

>  <type>  (9) 
unop_5

>  <geom_source>  (9) 
Heuristics

$$$$

     RDKit          3D

 23 21  0  0  0  0  0  0  0  0999 V2000
   -1.5660    1.6078   -0.0902 C   0  0  0  0  0  0  0  0  0  0  0  0
   -1.5660    1.6657   -1.5031 O   0  0  0  0  0  0  0  0  0  0  0  0
   -1.5660    0.3918   -2.0188 N   0  0  0  0  0  0  0  0  0  0  0  0
   -1.5660    0.3918   -3.2824 C   0  0  0  0  0  0  0  0  0  0  0  0
   -0.4954    0.9956    0.3539 H   0  0  0  0  0  0  0  0  0  0  0  0
   -2.4581    1.0976    0.2799 H   0  0  0  0  0  0  0  0  0  0  0  0
   -1.5660    2.6427    0.2476 H   0  0  0  0  0  0  0  0  0  0  0  0
   -1.5660   -0.5753   -3.7673 H   0  0  0  0  0  0  0  0  0  0  0  0
   -1.5660    1.3083   -3.8686 H   0  0  0  0  0  0  0  0  0  0  0  0
    1.7383    0.5956   -0.1626 C   0  0  0  0  0  0  0  0  0  0  0  0
    0.5764    0.3827    0.7985 C   0  0  0  0  0  3  0  0  0  0  0  0
    0.5001   -1.0308    1.3377 C   0  0  0  0  0  0  0  0  0  0  0  0
    1.6533   -1.3045    2.0943 O   0  0  0  0  0  0  0  0  0  0  0  0
    1.6751   -2.6088    2.6006 C   0  0  0  0  0  0  0  0  0  0  0  0
    2.6893    0.3927    0.3299 H   0  0  0  0  0  0  0  0  0  0  0  0
    1.7581    1.6215   -0.5331 H   0  0  0  0  0  0  0  0  0  0  0  0
    1.6578   -0.0708   -1.0250 H   0  0  0  0  0  0  0  0  0  0  0  0
    0.6561    1.0723    1.6429 H   0  0  0  0  0  0  0  0  0  0  0  0
   -0.3958   -1.1527    1.9643 H   0  0  0  0  0  0  0  0  0  0  0  0
    0.4190   -1.7494    0.5066 H   0  0  0  0  0  0  0  0  0  0  0  0
    1.6565   -3.3543    1.7940 H   0  0  0  0  0  0  0  0  0  0  0  0
    2.5963   -2.7273    3.1696 H   0  0  0  0  0  0  0  0  0  0  0  0
    0.8202   -2.7981    3.2641 H   0  0  0  0  0  0  0  0  0  0  0  0
  1  2  1  0
  1  5  1  0
  1  6  1  0
  1  7  1  0
  2  3  1  0
  3  4  2  3
  4  8  1  0
  4  9  1  0
 10 11  1  0
 10 15  1  0
 10 16  1  0
 10 17  1  0
 11 12  1  0
 11 18  1  0
 12 13  1  0
 12 19  1  0
 12 20  1  0
 13 14  1  0
 14 21  1  0
 14 22  1  0
 14 23  1  0
M  RAD  1  11   2
M  END
>  <reaction>  (10) 
rmg_rxn_15719

>  <mol_properties>  (10) 
{"0": {"label": "*1", "atom_type": "Cs"}, "1": {"label": "*0", "atom_type": "O2s"}, "4": {"label": "*2", "atom_type": "H0"}, "10": {"label": "*3", "atom_type": "Cs"}, "11": {"label": "*4", "atom_type": "Cs"}}

>  <type>  (10) 
unop_6

>  <geom_source>  (10) 
Heuristics

$$$$

     RDKit          3D

 23 21  0  0  0  0  0  0  0  0999 V2000
   -0.7290   -0.7962    1.2308 C   0  0  0  0  0  3  0  0  0  0  0  0
   -1.8997   -0.8317    0.4928 O   0  0  0  0  0  0  0  0  0  0  0  0
   -2.1795    0.3747   -0.1152 N   0  0  0  0  0  0  0  0  0  0  0  0
   -3.2252    0.4078   -0.8240 C   0  0  0  0  0  0  0  0  0  0  0  0
    0.3071   -0.8415    0.3814 H   0  0  0  0  0  0  0  0  0  0  0  0
   -0.6907   -1.6919    1.8393 H   0  0  0  0  0  0  0  0  0  0  0  0
   -0.5782    0.1301    1.7780 H   0  0  0  0  0  0  0  0  0  0  0  0
   -3.4527    1.3458   -1.2980 H   0  0  0  0  0  0  0  0  0  0  0  0
   -3.8909   -0.4367   -0.9733 H   0  0  0  0  0  0  0  0  0  0  0  0
    1.8473   -2.1912   -0.6247 C   0  0  0  0  0  0  0  0  0  0  0  0
    1.2724   -0.8027   -0.5033 C   0  0  0  0  0  0  0  0  0  0  0  0
    2.2510    0.2311    0.0197 C   0  0  0  0  0  0  0  0  0  0  0  0
    1.6560    1.3794    0.5823 O   0  0  0  0  0  0  0  0  0  0  0  0
    0.9120    2.1624   -0.3224 C   0  0  0  0  0  0  0  0  0  0  0  0
    1.0831   -2.8924   -0.9523 H   0  0  0  0  0  0  0  0  0  0  0  0
    2.2450   -2.5298    0.3300 H   0  0  0  0  0  0  0  0  0  0  0  0
    2.6602   -2.2135   -1.3540 H   0  0  0  0  0  0  0  0  0  0  0  0
    0.7832   -0.4823   -1.4220 H   0  0  0  0  0  0  0  0  0  0  0  0
    2.8439   -0.1967    0.8332 H   0  0  0  0  0  0  0  0  0  0  0  0
    2.9416    0.5346   -0.7901 H   0  0  0  0  0  0  0  0  0  0  0  0
   -0.0318    1.6814   -0.5997 H   0  0  0  0  0  0  0  0  0  0  0  0
    0.6950    3.0962    0.1936 H   0  0  0  0  0  0  0  0  0  0  0  0
    1.4926    2.3767   -1.2282 H   0  0  0  0  0  0  0  0  0  0  0  0
  1  2  1  0
  1  6  1  0
  1  7  1  0
  2  3  1  0
  3  4  2  3
  4  8  1  0
  4  9  1  0
  5 11  1  0
 10 11  1  0
 10 15  1  0
 10 16  1  0
 10 17  1  0
 11 12  1  0
 11 18  1  0
 12 13  1  0
 12 19  1  0
 12 20  1  0
 13 14  1  0
 14 21  1  0
 14 22  1  0
 14 23  1  0
M  RAD  1   1   2
M  END
>  <reaction>  (11) 
rmg_rxn_15719

>  <mol_properties>  (11) 
{"0": {"label": "*1", "atom_type": "Cs"}, "1": {"label": "*0", "atom_type": "O2s"}, "4": {"label": "*2", "atom_type": "H0"}, "10": {"label": "*3", "atom_type": "Cs"}, "11": {"label": "*4", "atom_type": "Cs"}}

>  <type>  (11) 
unop_7

>  <geom_source>  (11) 
Heuristics

$$$$

     RDKit          3D

 23 21  0  0  0  0  0  0  0  0999 V2000
   -1.9172    1.3361    0.2687 C   0  0  0  0  0  0  0  0  0  0  0  0
   -1.9172    1.3940   -1.1442 O   0  0  0  0  0  0  0  0  0  0  0  0
   -1.9172    0.1201   -1.6600 N   0  0  0  0  0  0  0  0  0  0  0  0
   -1.9172    0.1201   -2.9236 C   0  0  0  0  0  0  0  0  0  0  0  0
   -0.8466    0.7239    0.7128 H   0  0  0  0  0  0  0  0  0  0  0  0
   -2.8093    0.8259    0.6388 H   0  0  0  0  0  0  0  0  0  0  0  0
   -1.9172    2.3709    0.6065 H   0  0  0  0  0  0  0  0  0  0  0  0
   -1.9172   -0.8470   -3.4084 H   0  0  0  0  0  0  0  0  0  0  0  0
   -1.9172    1.0366   -3.5097 H   0  0  0  0  0  0  0  0  0  0  0  0
    0.6124    0.6583    2.5248 C   0  0  0  0  0  0  0  0  0  0  0  0
    0.2252    0.1110    1.1574 C   0  0  0  0  0  3  0  0  0  0  0  0
    1.4141   -0.3594    0.3451 C   0  0  0  0  0  0  0  0  0  0  0  0
    2.0343   -1.4347    1.0054 O   0  0  0  0  0  0  0  0  0  0  0  0
    3.1673   -1.9058    0.3328 C   0  0  0  0  0  0  0  0  0  0  0  0
    1.1188   -0.1040    3.1168 H   0  0  0  0  0  0  0  0  0  0  0  0
   -0.2673    0.9910    3.0777 H   0  0  0  0  0  0  0  0  0  0  0  0
    1.2886    1.5111    2.4260 H   0  0  0  0  0  0  0  0  0  0  0  0
   -0.4702   -0.7247    1.2705 H   0  0  0  0  0  0  0  0  0  0  0  0
    1.0909   -0.6731   -0.6585 H   0  0  0  0  0  0  0  0  0  0  0  0
    2.1337    0.4646    0.2149 H   0  0  0  0  0  0  0  0  0  0  0  0
    3.9334   -1.1244    0.2381 H   0  0  0  0  0  0  0  0  0  0  0  0
    3.5760   -2.7326    0.9123 H   0  0  0  0  0  0  0  0  0  0  0  0
    2.9173   -2.2666   -0.6743 H   0  0  0  0  0  0  0  0  0  0  0  0
  1  2  1  0
  1  5  1  0
  1  6  1  0
  1  7  1  0
  2  3  1  0
  3  4  2  3
  4  8  1  0
  4  9  1  0
 10 11  1  0
 10 15  1  0
 10 16  1  0
 10 17  1  0
 11 12  1  0
 11 18  1  0
 12 13  1  0
 12 19  1  0
 12 20  1  0
 13 14  1  0
 14 21  1  0
 14 22  1  0
 14 23  1  0
M  RAD  1  11   2
M  END
>  <reaction>  (12) 
rmg_rxn_15719

>  <mol_properties>  (12) 
{"0": {"label": "*1", "atom_type": "Cs"}, "1": {"label": "*0", "atom_type": "O2s"}, "4": {"label": "*2", "atom_type": "H0"}, "10": {"label": "*3", "atom_type": "Cs"}, "11": {"label": "*4", "atom_type": "Cs"}}

>  <type>  (12) 
unop_8

>  <geom_source>  (12) 
Heuristics

$$$$

     RDKit          3D

 23 21  0  0  0  0  0  0  0  0999 V2000
   -1.0144    1.2233   -0.5434 C   0  0  0  0  0  0  0  0  0  0  0  0
   -1.0144    1.2812   -1.9563 O   0  0  0  0  0  0  0  0  0  0  0  0
   -1.0144    0.0073   -2.4720 N   0  0  0  0  0  0  0  0  0  0  0  0
   -1.0144    0.0073   -3.7356 C   0  0  0  0  0  0  0  0  0  0  0  0
    0.0562    0.6111   -0.0993 H   0  0  0  0  0  0  0  0  0  0  0  0
   -1.9066    0.7131   -0.1733 H   0  0  0  0  0  0  0  0  0  0  0  0
   -1.0145    2.2582   -0.2056 H   0  0  0  0  0  0  0  0  0  0  0  0
   -1.0145   -0.9598   -4.2205 H   0  0  0  0  0  0  0  0  0  0  0  0
   -1.0144    0.9238   -4.3218 H   0  0  0  0  0  0  0  0  0  0  0  0
    1.1792   -1.4252   -0.1937 C   0  0  0  0  0  0  0  0  0  0  0  0
    1.1279   -0.0018    0.3453 C   0  0  0  0  0  3  0  0  0  0  0  0
    0.3756    0.1129    1.6551 C   0  0  0  0  0  0  0  0  0  0  0  0
    1.0462   -0.6273    2.6448 O   0  0  0  0  0  0  0  0  0  0  0  0
    0.3921   -0.6001    3.8815 C   0  0  0  0  0  0  0  0  0  0  0  0
    1.6740   -2.0892    0.5150 H   0  0  0  0  0  0  0  0  0  0  0  0
    1.7235   -1.4677   -1.1382 H   0  0  0  0  0  0  0  0  0  0  0  0
    0.1722   -1.8118   -0.3694 H   0  0  0  0  0  0  0  0  0  0  0  0
    2.1412    0.3808    0.4926 H   0  0  0  0  0  0  0  0  0  0  0  0
    0.3017    1.1667    1.9621 H   0  0  0  0  0  0  0  0  0  0  0  0
   -0.6518   -0.2666    1.5362 H   0  0  0  0  0  0  0  0  0  0  0  0
   -0.6171   -1.0283    3.8129 H   0  0  0  0  0  0  0  0  0  0  0  0
    0.9807   -1.1934    4.5800 H   0  0  0  0  0  0  0  0  0  0  0  0
    0.3058    0.4241    4.2694 H   0  0  0  0  0  0  0  0  0  0  0  0
  1  2  1  0
  1  5  1  0
  1  6  1  0
  1  7  1  0
  2  3  1  0
  3  4  2  3
  4  8  1  0
  4  9  1  0
 10 11  1  0
 10 15  1  0
 10 16  1  0
 10 17  1  0
 11 12  1  0
 11 18  1  0
 12 13  1  0
 12 19  1  0
 12 20  1  0
 13 14  1  0
 14 21  1  0
 14 22  1  0
 14 23  1  0
M  RAD  1  11   2
M  END
>  <reaction>  (13) 
rmg_rxn_15719

>  <mol_properties>  (13) 
{"0": {"label": "*1", "atom_type": "Cs"}, "1": {"label": "*0", "atom_type": "O2s"}, "4": {"label": "*2", "atom_type": "H0"}, "10": {"label": "*3", "atom_type": "Cs"}, "11": {"label": "*4", "atom_type": "Cs"}}

>  <type>  (13) 
unop_9

>  <geom_source>  (13) 
Heuristics

$$$$

     RDKit          3D

 23 21  0  0  0  0  0  0  0  0999 V2000
   -1.7389    0.9402   -1.3725 C   0  0  0  0  0  3  0  0  0  0  0  0
   -2.4287    0.0461   -0.6590 O   0  0  0  0  0  0  0  0  0  0  0  0
   -1.7723   -0.4793    0.4267 N   0  0  0  0  0  0  0  0  0  0  0  0
   -2.4334   -1.3330    1.1048 C   0  0  0  0  0  0  0  0  0  0  0  0
    0.9215   -1.0853    0.7303 H   0  0  0  0  0  0  0  0  0  0  0  0
   -0.7418    1.2256   -1.0966 H   0  0  0  0  0  0  0  0  0  0  0  0
   -2.2758    1.3319   -2.2110 H   0  0  0  0  0  0  0  0  0  0  0  0
   -1.9356   -1.7559    1.9578 H   0  0  0  0  0  0  0  0  0  0  0  0
   -3.4450   -1.6449    0.8701 H   0  0  0  0  0  0  0  0  0  0  0  0
    2.5239   -2.0517   -0.3939 C   0  0  0  0  0  0  0  0  0  0  0  0
    1.5320   -0.9293   -0.1638 C   0  0  0  0  0  0  0  0  0  0  0  0
    2.1833    0.4482   -0.1869 C   0  0  0  0  0  0  0  0  0  0  0  0
    1.2844    1.5250   -0.0430 O   0  0  0  0  0  0  0  0  0  0  0  0
    0.7665    1.6890    1.2574 C   0  0  0  0  0  0  0  0  0  0  0  0
    3.2943   -2.0441    0.3747 H   0  0  0  0  0  0  0  0  0  0  0  0
    3.0071   -1.9391   -1.3623 H   0  0  0  0  0  0  0  0  0  0  0  0
    2.0225   -3.0157   -0.3691 H   0  0  0  0  0  0  0  0  0  0  0  0
    0.6815   -0.9801   -0.8122 H   0  0  0  0  0  0  0  0  0  0  0  0
    2.9582    0.5010    0.5942 H   0  0  0  0  0  0  0  0  0  0  0  0
    2.6608    0.6086   -1.1585 H   0  0  0  0  0  0  0  0  0  0  0  0
    0.2536    2.6497    1.2611 H   0  0  0  0  0  0  0  0  0  0  0  0
    0.0528    0.8993    1.5139 H   0  0  0  0  0  0  0  0  0  0  0  0
    1.5724    1.7055    2.0007 H   0  0  0  0  0  0  0  0  0  0  0  0
  1  2  1  0
  1  6  1  0
  1  7  1  0
  2  3  1  0
  3  4  2  3
  4  8  1  0
  4  9  1  0
  5 11  1  0
 10 11  1  0
 10 15  1  0
 10 16  1  0
 10 17  1  0
 11 12  1  0
 11 18  1  0
 12 13  1  0
 12 19  1  0
 12 20  1  0
 13 14  1  0
 14 21  1  0
 14 22  1  0
 14 23  1  0
M  RAD  1   1   2
M  END
>  <reaction>  (14) 
rmg_rxn_15719

>  <mol_properties>  (14) 
{"0": {"label": "*1", "atom_type": "Cs"}, "1": {"label": "*0", "atom_type": "O2s"}, "4": {"label": "*2", "atom_type": "H0"}, "10": {"label": "*3", "atom_type": "Cs"}, "11": {"label": "*4", "atom_type": "Cs"}}

>  <type>  (14) 
unop_10

>  <geom_source>  (14) 
Heuristics

$$$$

     RDKit          3D

 23 21  0  0  0  0  0  0  0  0999 V2000
   -2.0105    0.7806    0.2086 C   0  0  0  0  0  0  0  0  0  0  0  0
   -2.0105    0.8385   -1.2043 O   0  0  0  0  0  0  0  0  0  0  0  0
   -2.0105   -0.4354   -1.7200 N   0  0  0  0  0  0  0  0  0  0  0  0
   -2.0105   -0.4354   -2.9836 C   0  0  0  0  0  0  0  0  0  0  0  0
   -0.9399    0.1684    0.6527 H   0  0  0  0  0  0  0  0  0  0  0  0
   -2.9026    0.2704    0.5787 H   0  0  0  0  0  0  0  0  0  0  0  0
   -2.0105    1.8155    0.5464 H   0  0  0  0  0  0  0  0  0  0  0  0
   -2.0105   -1.4025   -3.4684 H   0  0  0  0  0  0  0  0  0  0  0  0
   -2.0105    0.4811   -3.5698 H   0  0  0  0  0  0  0  0  0  0  0  0
    0.1125   -0.4961    2.6193 C   0  0  0  0  0  0  0  0  0  0  0  0
    0.1319   -0.4445    1.0974 C   0  0  0  0  0  3  0  0  0  0  0  0
    1.3433    0.2747    0.5407 C   0  0  0  0  0  0  0  0  0  0  0  0
    2.5077   -0.4288    0.8960 O   0  0  0  0  0  0  0  0  0  0  0  0
    3.6778    0.1932    0.4465 C   0  0  0  0  0  0  0  0  0  0  0  0
    0.9919   -1.0159    2.9995 H   0  0  0  0  0  0  0  0  0  0  0  0
   -0.7749   -1.0161    2.9829 H   0  0  0  0  0  0  0  0  0  0  0  0
    0.1082    0.5111    3.0434 H   0  0  0  0  0  0  0  0  0  0  0  0
    0.1107   -1.4573    0.6869 H   0  0  0  0  0  0  0  0  0  0  0  0
    1.2722    0.3513   -0.5544 H   0  0  0  0  0  0  0  0  0  0  0  0
    1.3904    1.3010    0.9386 H   0  0  0  0  0  0  0  0  0  0  0  0
    3.7883    1.1994    0.8729 H   0  0  0  0  0  0  0  0  0  0  0  0
    4.5207   -0.4193    0.7638 H   0  0  0  0  0  0  0  0  0  0  0  0
    3.6932    0.2798   -0.6486 H   0  0  0  0  0  0  0  0  0  0  0  0
  1  2  1  0
  1  5  1  0
  1  6  1  0
  1  7  1  0
  2  3  1  0
  3  4  2  3
  4  8  1  0
  4  9  1  0
 10 11  1  0
 10 15  1  0
 10 16  1  0
 10 17  1  0
 11 12  1  0
 11 18  1  0
 12 13  1  0
 12 19  1  0
 12 20  1  0
 13 14  1  0
 14 21  1  0
 14 22  1  0
 14 23  1  0
M  RAD  1  11   2
M  END
>  <reaction>  (15) 
rmg_rxn_15719

>  <mol_properties>  (15) 
{"0": {"label": "*1", "atom_type": "Cs"}, "1": {"label": "*0", "atom_type": "O2s"}, "4": {"label": "*2", "atom_type": "H0"}, "10": {"label": "*3", "atom_type": "Cs"}, "11": {"label": "*4", "atom_type": "Cs"}}

>  <type>  (15) 
unop_11

>  <geom_source>  (15) 
Heuristics

$$$$

     RDKit          3D

 23 21  0  0  0  0  0  0  0  0999 V2000
   -0.7330    0.7774   -1.2378 C   0  0  0  0  0  3  0  0  0  0  0  0
   -1.9043    0.8173   -0.5012 O   0  0  0  0  0  0  0  0  0  0  0  0
   -2.1820   -0.3837    0.1183 N   0  0  0  0  0  0  0  0  0  0  0  0
   -3.2270   -0.4113    0.8283 C   0  0  0  0  0  0  0  0  0  0  0  0
    0.3014    0.8339   -0.3870 H   0  0  0  0  0  0  0  0  0  0  0  0
   -0.6961    1.6672   -1.8550 H   0  0  0  0  0  0  0  0  0  0  0  0
   -0.5795   -0.1537   -1.7760 H   0  0  0  0  0  0  0  0  0  0  0  0
   -3.4533   -1.3448    1.3115 H   0  0  0  0  0  0  0  0  0  0  0  0
   -3.8937    0.4339    0.9697 H   0  0  0  0  0  0  0  0  0  0  0  0
    1.8206    2.2042    0.6220 C   0  0  0  0  0  0  0  0  0  0  0  0
    1.2630    0.8086    0.5021 C   0  0  0  0  0  0  0  0  0  0  0  0
    2.2560   -0.2155   -0.0130 C   0  0  0  0  0  0  0  0  0  0  0  0
    1.6764   -1.3708   -0.5776 O   0  0  0  0  0  0  0  0  0  0  0  0
    0.9344   -2.1598    0.3236 C   0  0  0  0  0  0  0  0  0  0  0  0
    1.0451    2.8978    0.9393 H   0  0  0  0  0  0  0  0  0  0  0  0
    2.2227    2.5430   -0.3308 H   0  0  0  0  0  0  0  0  0  0  0  0
    2.6265    2.2398    1.3584 H   0  0  0  0  0  0  0  0  0  0  0  0
    0.7731    0.4853    1.4194 H   0  0  0  0  0  0  0  0  0  0  0  0
    2.8497    0.2172   -0.8233 H   0  0  0  0  0  0  0  0  0  0  0  0
    2.9442   -0.5107    0.8017 H   0  0  0  0  0  0  0  0  0  0  0  0
    1.5105   -2.3652    1.2342 H   0  0  0  0  0  0  0  0  0  0  0  0
   -0.0166   -1.6887    0.5929 H   0  0  0  0  0  0  0  0  0  0  0  0
    0.7318   -3.0974   -0.1914 H   0  0  0  0  0  0  0  0  0  0  0  0
  1  2  1  0
  1  6  1  0
  1  7  1  0
  2  3  1  0
  3  4  2  3
  4  8  1  0
  4  9  1  0
  5 11  1  0
 10 11  1  0
 10 15  1  0
 10 16  1  0
 10 17  1  0
 11 12  1  0
 11 18  1  0
 12 13  1  0
 12 19  1  0
 12 20  1  0
 13 14  1  0
 14 21  1  0
 14 22  1  0
 14 23  1  0
M  RAD  1   1   2
M  END
>  <reaction>  (16) 
rmg_rxn_15719

>  <mol_properties>  (16) 
{"0": {"label": "*1", "atom_type": "Cs"}, "1": {"label": "*0", "atom_type": "O2s"}, "4": {"label": "*2", "atom_type": "H0"}, "10": {"label": "*3", "atom_type": "Cs"}, "11": {"label": "*4", "atom_type": "Cs"}}

>  <type>  (16) 
unop_12

>  <geom_source>  (16) 
Heuristics

$$$$

     RDKit          3D

 23 21  0  0  0  0  0  0  0  0999 V2000
   -1.2005   -0.4540    1.1329 C   0  0  0  0  0  3  0  0  0  0  0  0
   -2.4048   -0.3825    0.4539 O   0  0  0  0  0  0  0  0  0  0  0  0
   -2.6634    0.6163   -0.4205 N   0  0  0  0  0  0  0  0  0  0  0  0
   -1.7861    1.4601   -0.7605 C   0  0  0  0  0  0  0  0  0  0  0  0
   -0.2192   -0.8483    0.3097 H   0  0  0  0  0  0  0  0  0  0  0  0
   -1.3049   -1.2337    1.8793 H   0  0  0  0  0  0  0  0  0  0  0  0
   -0.8558    0.4949    1.5412 H   0  0  0  0  0  0  0  0  0  0  0  0
   -2.1191    2.2120   -1.4552 H   0  0  0  0  0  0  0  0  0  0  0  0
   -0.7485    1.4851   -0.4420 H   0  0  0  0  0  0  0  0  0  0  0  0
    0.9804   -2.6788   -0.3367 C   0  0  0  0  0  0  0  0  0  0  0  0
    0.7651   -1.1945   -0.4849 C   0  0  0  0  0  0  0  0  0  0  0  0
    1.9329   -0.3458   -0.0437 C   0  0  0  0  0  0  0  0  0  0  0  0
    1.5390    1.0117   -0.0320 O   0  0  0  0  0  0  0  0  0  0  0  0
    2.5725    1.8849    0.3384 C   0  0  0  0  0  0  0  0  0  0  0  0
    1.2499   -2.9302    0.6874 H   0  0  0  0  0  0  0  0  0  0  0  0
    1.7839   -3.0245   -0.9907 H   0  0  0  0  0  0  0  0  0  0  0  0
    0.0749   -3.2193   -0.6012 H   0  0  0  0  0  0  0  0  0  0  0  0
    0.4271   -0.9155   -1.4808 H   0  0  0  0  0  0  0  0  0  0  0  0
    2.2659   -0.6461    0.9637 H   0  0  0  0  0  0  0  0  0  0  0  0
    2.7916   -0.4736   -0.7289 H   0  0  0  0  0  0  0  0  0  0  0  0
    3.4172    1.8202   -0.3587 H   0  0  0  0  0  0  0  0  0  0  0  0
    2.1581    2.8910    0.3126 H   0  0  0  0  0  0  0  0  0  0  0  0
    2.9353    1.6642    1.3505 H   0  0  0  0  0  0  0  0  0  0  0  0
  1  2  1  0
  1  6  1  0
  1  7  1  0
  2  3  1  0
  3  4  2  3
  4  8  1  0
  4  9  1  0
  5 11  1  0
 10 11  1  0
 10 15  1  0
 10 16  1  0
 10 17  1  0
 11 12  1  0
 11 18  1  0
 12 13  1  0
 12 19  1  0
 12 20  1  0
 13 14  1  0
 14 21  1  0
 14 22  1  0
 14 23  1  0
M  RAD  1   1   2
M  END
>  <reaction>  (17) 
rmg_rxn_15719

>  <mol_properties>  (17) 
{"0": {"label": "*1", "atom_type": "Cs"}, "1": {"label": "*0", "atom_type": "O2s"}, "4": {"label": "*2", "atom_type": "H0"}, "10": {"label": "*3", "atom_type": "Cs"}, "11": {"label": "*4", "atom_type": "Cs"}}

>  <type>  (17) 
unop_13

>  <geom_source>  (17) 
Heuristics

$$$$

     RDKit          3D

 23 21  0  0  0  0  0  0  0  0999 V2000
   -1.0882    0.8400   -0.6051 C   0  0  0  0  0  0  0  0  0  0  0  0
   -1.0882    0.8979   -2.0179 O   0  0  0  0  0  0  0  0  0  0  0  0
   -1.0882   -0.3760   -2.5337 N   0  0  0  0  0  0  0  0  0  0  0  0
   -1.0882   -0.3760   -3.7973 C   0  0  0  0  0  0  0  0  0  0  0  0
   -0.0176    0.2278   -0.1609 H   0  0  0  0  0  0  0  0  0  0  0  0
   -1.9803    0.3298   -0.2349 H   0  0  0  0  0  0  0  0  0  0  0  0
   -1.0882    1.8749   -0.2672 H   0  0  0  0  0  0  0  0  0  0  0  0
   -1.0882   -1.3430   -4.2821 H   0  0  0  0  0  0  0  0  0  0  0  0
   -1.0882    0.5405   -4.3834 H   0  0  0  0  0  0  0  0  0  0  0  0
    0.7889   -1.8793    0.4100 C   0  0  0  0  0  0  0  0  0  0  0  0
    1.0542   -0.3850    0.2837 C   0  0  0  0  0  3  0  0  0  0  0  0
    0.5406    0.4134    1.4641 C   0  0  0  0  0  0  0  0  0  0  0  0
    1.2249    0.0191    2.6274 O   0  0  0  0  0  0  0  0  0  0  0  0
    0.7816    0.6892    3.7730 C   0  0  0  0  0  0  0  0  0  0  0  0
    1.2714   -2.2836    1.2998 H   0  0  0  0  0  0  0  0  0  0  0  0
    1.1676   -2.4198   -0.4587 H   0  0  0  0  0  0  0  0  0  0  0  0
   -0.2826   -2.0796    0.4885 H   0  0  0  0  0  0  0  0  0  0  0  0
    2.1268   -0.2013    0.1809 H   0  0  0  0  0  0  0  0  0  0  0  0
    0.6878    1.4896    1.2902 H   0  0  0  0  0  0  0  0  0  0  0  0
   -0.5409    0.2471    1.5920 H   0  0  0  0  0  0  0  0  0  0  0  0
   -0.2824    0.4963    3.9660 H   0  0  0  0  0  0  0  0  0  0  0  0
    1.3654    0.3234    4.6167 H   0  0  0  0  0  0  0  0  0  0  0  0
    0.9243    1.7749    3.6857 H   0  0  0  0  0  0  0  0  0  0  0  0
  1  2  1  0
  1  5  1  0
  1  6  1  0
  1  7  1  0
  2  3  1  0
  3  4  2  3
  4  8  1  0
  4  9  1  0
 10 11  1  0
 10 15  1  0
 10 16  1  0
 10 17  1  0
 11 12  1  0
 11 18  1  0
 12 13  1  0
 12 19  1  0
 12 20  1  0
 13 14  1  0
 14 21  1  0
 14 22  1  0
 14 23  1  0
M  RAD  1  11   2
M  END
>  <reaction>  (18) 
rmg_rxn_15719

>  <mol_properties>  (18) 
{"0": {"label": "*1", "atom_type": "Cs"}, "1": {"label": "*0", "atom_type": "O2s"}, "4": {"label": "*2", "atom_type": "H0"}, "10": {"label": "*3", "atom_type": "Cs"}, "11": {"label": "*4", "atom_type": "Cs"}}

>  <type>  (18) 
unop_14

>  <geom_source>  (18) 
Heuristics

$$$$

     RDKit          3D

 23 21  0  0  0  0  0  0  0  0999 V2000
   -0.7306   -0.7905    1.2342 C   0  0  0  0  0  3  0  0  0  0  0  0
   -1.9011   -0.8270    0.4962 O   0  0  0  0  0  0  0  0  0  0  0  0
   -2.1789    0.3776   -0.1163 N   0  0  0  0  0  0  0  0  0  0  0  0
   -3.2235    0.4093   -0.8269 C   0  0  0  0  0  0  0  0  0  0  0  0
    0.3050   -0.8398    0.3844 H   0  0  0  0  0  0  0  0  0  0  0  0
   -0.6934   -1.6842    1.8457 H   0  0  0  0  0  0  0  0  0  0  0  0
   -0.5785    0.1374    1.7784 H   0  0  0  0  0  0  0  0  0  0  0  0
   -3.4495    1.3459   -1.3042 H   0  0  0  0  0  0  0  0  0  0  0  0
   -3.8898   -0.4351   -0.9744 H   0  0  0  0  0  0  0  0  0  0  0  0
    1.8380   -2.1954   -0.6248 C   0  0  0  0  0  0  0  0  0  0  0  0
    1.2684   -0.8048   -0.5025 C   0  0  0  0  0  0  0  0  0  0  0  0
    2.2519    0.2260    0.0173 C   0  0  0  0  0  0  0  0  0  0  0  0
    1.6620    1.3765    0.5809 O   0  0  0  0  0  0  0  0  0  0  0  0
    0.9187    2.1618   -0.3224 C   0  0  0  0  0  0  0  0  0  0  0  0
    2.6475   -2.2215   -1.3578 H   0  0  0  0  0  0  0  0  0  0  0  0
    1.0699   -2.8944   -0.9479 H   0  0  0  0  0  0  0  0  0  0  0  0
    2.2389   -2.5341    0.3285 H   0  0  0  0  0  0  0  0  0  0  0  0
    0.7779   -0.4832   -1.4201 H   0  0  0  0  0  0  0  0  0  0  0  0
    2.8456   -0.2033    0.8294 H   0  0  0  0  0  0  0  0  0  0  0  0
    2.9412    0.5269   -0.7944 H   0  0  0  0  0  0  0  0  0  0  0  0
   -0.0273    1.6839   -0.5975 H   0  0  0  0  0  0  0  0  0  0  0  0
    0.7061    3.0965    0.1938 H   0  0  0  0  0  0  0  0  0  0  0  0
    1.4980    2.3738   -1.2295 H   0  0  0  0  0  0  0  0  0  0  0  0
  1  2  1  0
  1  6  1  0
  1  7  1  0
  2  3  1  0
  3  4  2  3
  4  8  1  0
  4  9  1  0
  5 11  1  0
 10 11  1  0
 10 15  1  0
 10 16  1  0
 10 17  1  0
 11 12  1  0
 11 18  1  0
 12 13  1  0
 12 19  1  0
 12 20  1  0
 13 14  1  0
 14 21  1  0
 14 22  1  0
 14 23  1  0
M  RAD  1   1   2
M  END
>  <reaction>  (19) 
rmg_rxn_15719

>  <mol_properties>  (19) 
{"0": {"label": "*1", "atom_type": "Cs"}, "1": {"label": "*0", "atom_type": "O2s"}, "4": {"label": "*2", "atom_type": "H0"}, "10": {"label": "*3", "atom_type": "Cs"}, "11": {"label": "*4", "atom_type": "Cs"}}

>  <type>  (19) 
unop_15

>  <geom_source>  (19) 
Heuristics

$$$$

     RDKit          3D

 23 21  0  0  0  0  0  0  0  0999 V2000
   -1.3244    0.5067   -0.4878 C   0  0  0  0  0  0  0  0  0  0  0  0
   -1.3244    0.5646   -1.9007 O   0  0  0  0  0  0  0  0  0  0  0  0
   -1.3244   -0.7093   -2.4164 N   0  0  0  0  0  0  0  0  0  0  0  0
   -1.3244   -0.7093   -3.6800 C   0  0  0  0  0  0  0  0  0  0  0  0
   -0.2538   -0.1055   -0.0437 H   0  0  0  0  0  0  0  0  0  0  0  0
   -2.2165   -0.0035   -0.1177 H   0  0  0  0  0  0  0  0  0  0  0  0
   -1.3244    1.5416   -0.1500 H   0  0  0  0  0  0  0  0  0  0  0  0
   -1.3244   -1.6763   -4.1649 H   0  0  0  0  0  0  0  0  0  0  0  0
   -1.3244    0.2072   -4.2662 H   0  0  0  0  0  0  0  0  0  0  0  0
    0.4219   -1.9487    1.2063 C   0  0  0  0  0  0  0  0  0  0  0  0
    0.8180   -0.7183    0.4009 C   0  0  0  0  0  3  0  0  0  0  0  0
    0.7369    0.5673    1.1979 C   0  0  0  0  0  0  0  0  0  0  0  0
    1.6562    0.5162    2.2607 O   0  0  0  0  0  0  0  0  0  0  0  0
    1.6179    1.6580    3.0687 C   0  0  0  0  0  0  0  0  0  0  0  0
    1.0738   -2.0706    2.0713 H   0  0  0  0  0  0  0  0  0  0  0  0
    0.4878   -2.8528    0.5993 H   0  0  0  0  0  0  0  0  0  0  0  0
   -0.6053   -1.8628    1.5693 H   0  0  0  0  0  0  0  0  0  0  0  0
    1.8378   -0.8288    0.0235 H   0  0  0  0  0  0  0  0  0  0  0  0
    0.9581    1.4308    0.5534 H   0  0  0  0  0  0  0  0  0  0  0  0
   -0.2827    0.7050    1.5919 H   0  0  0  0  0  0  0  0  0  0  0  0
    0.6293    1.7934    3.5279 H   0  0  0  0  0  0  0  0  0  0  0  0
    2.3589    1.5304    3.8568 H   0  0  0  0  0  0  0  0  0  0  0  0
    1.8590    2.5647    2.4971 H   0  0  0  0  0  0  0  0  0  0  0  0
  1  2  1  0
  1  5  1  0
  1  6  1  0
  1  7  1  0
  2  3  1  0
  3  4  2  3
  4  8  1  0
  4  9  1  0
 10 11  1  0
 10 15  1  0
 10 16  1  0
 10 17  1  0
 11 12  1  0
 11 18  1  0
 12 13  1  0
 12 19  1  0
 12 20  1  0
 13 14  1  0
 14 21  1  0
 14 22  1  0
 14 23  1  0
M  RAD  1  11   2
M  END
>  <reaction>  (20) 
rmg_rxn_15719

>  <mol_properties>  (20) 
{"0": {"label": "*1", "atom_type": "Cs"}, "1": {"label": "*0", "atom_type": "O2s"}, "4": {"label": "*2", "atom_type": "H0"}, "10": {"label": "*3", "atom_type": "Cs"}, "11": {"label": "*4", "atom_type": "Cs"}}

>  <type>  (20) 
unop_16

>  <geom_source>  (20) 
Heuristics

$$$$

     RDKit          3D

 23 21  0  0  0  0  0  0  0  0999 V2000
   -1.1996   -0.4483    1.1354 C   0  0  0  0  0  3  0  0  0  0  0  0
   -2.4048   -0.3784    0.4577 O   0  0  0  0  0  0  0  0  0  0  0  0
   -2.6631    0.6167   -0.4210 N   0  0  0  0  0  0  0  0  0  0  0  0
   -1.7854    1.4583   -0.7653 C   0  0  0  0  0  0  0  0  0  0  0  0
   -0.2200   -0.8456    0.3118 H   0  0  0  0  0  0  0  0  0  0  0  0
   -1.3033   -1.2254    1.8845 H   0  0  0  0  0  0  0  0  0  0  0  0
   -0.8538    0.5019    1.5401 H   0  0  0  0  0  0  0  0  0  0  0  0
   -2.1181    2.2072   -1.4633 H   0  0  0  0  0  0  0  0  0  0  0  0
   -0.7476    1.4841   -0.4473 H   0  0  0  0  0  0  0  0  0  0  0  0
    0.9739   -2.6791   -0.3370 C   0  0  0  0  0  0  0  0  0  0  0  0
    0.7621   -1.1942   -0.4846 C   0  0  0  0  0  0  0  0  0  0  0  0
    1.9326   -0.3483   -0.0455 C   0  0  0  0  0  0  0  0  0  0  0  0
    1.5416    1.0100   -0.0317 O   0  0  0  0  0  0  0  0  0  0  0  0
    2.5774    1.8805    0.3386 C   0  0  0  0  0  0  0  0  0  0  0  0
    0.0663   -3.2171   -0.5990 H   0  0  0  0  0  0  0  0  0  0  0  0
    1.2453   -2.9311    0.6865 H   0  0  0  0  0  0  0  0  0  0  0  0
    1.7748   -3.0268   -0.9930 H   0  0  0  0  0  0  0  0  0  0  0  0
    0.4228   -0.9144   -1.4799 H   0  0  0  0  0  0  0  0  0  0  0  0
    2.2673   -0.6501    0.9609 H   0  0  0  0  0  0  0  0  0  0  0  0
    2.7896   -0.4773   -0.7327 H   0  0  0  0  0  0  0  0  0  0  0  0
    3.4208    1.8156   -0.3601 H   0  0  0  0  0  0  0  0  0  0  0  0
    2.1649    2.8874    0.3155 H   0  0  0  0  0  0  0  0  0  0  0  0
    2.9415    1.6571    1.3495 H   0  0  0  0  0  0  0  0  0  0  0  0
  1  2  1  0
  1  6  1  0
  1  7  1  0
  2  3  1  0
  3  4  2  3
  4  8  1  0
  4  9  1  0
  5 11  1  0
 10 11  1  0
 10 15  1  0
 10 16  1  0
 10 17  1  0
 11 12  1  0
 11 18  1  0
 12 13  1  0
 12 19  1  0
 12 20  1  0
 13 14  1  0
 14 21  1  0
 14 22  1  0
 14 23  1  0
M  RAD  1   1   2
M  END
>  <reaction>  (21) 
rmg_rxn_15719

>  <mol_properties>  (21) 
{"0": {"label": "*1", "atom_type": "Cs"}, "1": {"label": "*0", "atom_type": "O2s"}, "4": {"label": "*2", "atom_type": "H0"}, "10": {"label": "*3", "atom_type": "Cs"}, "11": {"label": "*4", "atom_type": "Cs"}}

>  <type>  (21) 
unop_17

>  <geom_source>  (21) 
Heuristics

$$$$

     RDKit          3D

 23 21  0  0  0  0  0  0  0  0999 V2000
   -1.6883    1.5505   -0.0310 C   0  0  0  0  0  0  0  0  0  0  0  0
   -1.6884    1.6084   -1.4438 O   0  0  0  0  0  0  0  0  0  0  0  0
   -1.6884    0.3345   -1.9596 N   0  0  0  0  0  0  0  0  0  0  0  0
   -1.6884    0.3345   -3.2232 C   0  0  0  0  0  0  0  0  0  0  0  0
   -0.6177    0.9383    0.4132 H   0  0  0  0  0  0  0  0  0  0  0  0
   -2.5805    1.0403    0.3392 H   0  0  0  0  0  0  0  0  0  0  0  0
   -1.6884    2.5854    0.3069 H   0  0  0  0  0  0  0  0  0  0  0  0
   -1.6884   -0.6325   -3.7080 H   0  0  0  0  0  0  0  0  0  0  0  0
   -1.6884    1.2510   -3.8093 H   0  0  0  0  0  0  0  0  0  0  0  0
    1.5753    1.3303    1.0865 C   0  0  0  0  0  0  0  0  0  0  0  0
    0.4540    0.3255    0.8578 C   0  0  0  0  0  3  0  0  0  0  0  0
    0.9497   -1.0991    0.7179 C   0  0  0  0  0  0  0  0  0  0  0  0
    1.5594   -1.5011    1.9195 O   0  0  0  0  0  0  0  0  0  0  0  0
    2.0767   -2.7999    1.8593 C   0  0  0  0  0  0  0  0  0  0  0  0
    2.1248    1.0953    1.9980 H   0  0  0  0  0  0  0  0  0  0  0  0
    1.1814    2.3437    1.1774 H   0  0  0  0  0  0  0  0  0  0  0  0
    2.2840    1.3195    0.2547 H   0  0  0  0  0  0  0  0  0  0  0  0
   -0.2600    0.3648    1.6844 H   0  0  0  0  0  0  0  0  0  0  0  0
    0.1134   -1.7727    0.4794 H   0  0  0  0  0  0  0  0  0  0  0  0
    1.6731   -1.1689   -0.1100 H   0  0  0  0  0  0  0  0  0  0  0  0
    2.8473   -2.8908    1.0818 H   0  0  0  0  0  0  0  0  0  0  0  0
    2.5235   -3.0230    2.8272 H   0  0  0  0  0  0  0  0  0  0  0  0
    1.2898   -3.5380    1.6520 H   0  0  0  0  0  0  0  0  0  0  0  0
  1  2  1  0
  1  5  1  0
  1  6  1  0
  1  7  1  0
  2  3  1  0
  3  4  2  3
  4  8  1  0
  4  9  1  0
 10 11  1  0
 10 15  1  0
 10 16  1  0
 10 17  1  0
 11 12  1  0
 11 18  1  0
 12 13  1  0
 12 19  1  0
 12 20  1  0
 13 14  1  0
 14 21  1  0
 14 22  1  0
 14 23  1  0
M  RAD  1  11   2
M  END
>  <reaction>  (22) 
rmg_rxn_15719

>  <mol_properties>  (22) 
{"0": {"label": "*1", "atom_type": "Cs"}, "1": {"label": "*0", "atom_type": "O2s"}, "4": {"label": "*2", "atom_type": "H0"}, "10": {"label": "*3", "atom_type": "Cs"}, "11": {"label": "*4", "atom_type": "Cs"}}

>  <type>  (22) 
unop_18

>  <geom_source>  (22) 
Heuristics

$$$$

     RDKit          3D

 23 21  0  0  0  0  0  0  0  0999 V2000
   -0.7294   -0.7963    1.2303 C   0  0  0  0  0  3  0  0  0  0  0  0
   -1.8995   -0.8318    0.4917 O   0  0  0  0  0  0  0  0  0  0  0  0
   -2.1809    0.3756   -0.1137 N   0  0  0  0  0  0  0  0  0  0  0  0
   -3.2256    0.4084   -0.8240 C   0  0  0  0  0  0  0  0  0  0  0  0
    0.3073   -0.8405    0.3816 H   0  0  0  0  0  0  0  0  0  0  0  0
   -0.6908   -1.6926    1.8381 H   0  0  0  0  0  0  0  0  0  0  0  0
   -0.5793    0.1295    1.7785 H   0  0  0  0  0  0  0  0  0  0  0  0
   -3.4545    1.3472   -1.2956 H   0  0  0  0  0  0  0  0  0  0  0  0
   -3.8892   -0.4372   -0.9766 H   0  0  0  0  0  0  0  0  0  0  0  0
    1.8463   -2.1918   -0.6234 C   0  0  0  0  0  0  0  0  0  0  0  0
    1.2723   -0.8029   -0.5034 C   0  0  0  0  0  0  0  0  0  0  0  0
    2.2518    0.2310    0.0180 C   0  0  0  0  0  0  0  0  0  0  0  0
    1.6576    1.3791    0.5820 O   0  0  0  0  0  0  0  0  0  0  0  0
    0.9126    2.1626   -0.3215 C   0  0  0  0  0  0  0  0  0  0  0  0
    2.2443   -2.5294    0.3316 H   0  0  0  0  0  0  0  0  0  0  0  0
    2.6588   -2.2158   -1.3531 H   0  0  0  0  0  0  0  0  0  0  0  0
    1.0814   -2.8930   -0.9496 H   0  0  0  0  0  0  0  0  0  0  0  0
    0.7830   -0.4833   -1.4223 H   0  0  0  0  0  0  0  0  0  0  0  0
    2.8461   -0.1969    0.8304 H   0  0  0  0  0  0  0  0  0  0  0  0
    2.9408    0.5347   -0.7929 H   0  0  0  0  0  0  0  0  0  0  0  0
    0.6958    3.0960    0.1954 H   0  0  0  0  0  0  0  0  0  0  0  0
    1.4922    2.3777   -1.2276 H   0  0  0  0  0  0  0  0  0  0  0  0
   -0.0313    1.6816   -0.5983 H   0  0  0  0  0  0  0  0  0  0  0  0
  1  2  1  0
  1  6  1  0
  1  7  1  0
  2  3  1  0
  3  4  2  3
  4  8  1  0
  4  9  1  0
  5 11  1  0
 10 11  1  0
 10 15  1  0
 10 16  1  0
 10 17  1  0
 11 12  1  0
 11 18  1  0
 12 13  1  0
 12 19  1  0
 12 20  1  0
 13 14  1  0
 14 21  1  0
 14 22  1  0
 14 23  1  0
M  RAD  1   1   2
M  END
>  <reaction>  (23) 
rmg_rxn_15719

>  <mol_properties>  (23) 
{"0": {"label": "*1", "atom_type": "Cs"}, "1": {"label": "*0", "atom_type": "O2s"}, "4": {"label": "*2", "atom_type": "H0"}, "10": {"label": "*3", "atom_type": "Cs"}, "11": {"label": "*4", "atom_type": "Cs"}}

>  <type>  (23) 
unop_19

>  <geom_source>  (23) 
Heuristics

$$$$

     RDKit          3D

 23 21  0  0  0  0  0  0  0  0999 V2000
   -1.1211    1.5263   -0.3622 C   0  0  0  0  0  0  0  0  0  0  0  0
   -1.1211    1.5842   -1.7750 O   0  0  0  0  0  0  0  0  0  0  0  0
   -1.1211    0.3103   -2.2908 N   0  0  0  0  0  0  0  0  0  0  0  0
   -1.1211    0.3103   -3.5544 C   0  0  0  0  0  0  0  0  0  0  0  0
   -0.0505    0.9141    0.0820 H   0  0  0  0  0  0  0  0  0  0  0  0
   -2.0132    1.0161    0.0080 H   0  0  0  0  0  0  0  0  0  0  0  0
   -1.1211    2.5612   -0.0243 H   0  0  0  0  0  0  0  0  0  0  0  0
   -1.1211   -0.6567   -4.0392 H   0  0  0  0  0  0  0  0  0  0  0  0
   -1.1211    1.2268   -4.1405 H   0  0  0  0  0  0  0  0  0  0  0  0
    1.4900   -0.7354   -0.4857 C   0  0  0  0  0  0  0  0  0  0  0  0
    1.0213    0.3013    0.5266 C   0  0  0  0  0  3  0  0  0  0  0  0
    0.2873   -0.3053    1.7047 C   0  0  0  0  0  0  0  0  0  0  0  0
    1.1627   -1.1422    2.4191 O   0  0  0  0  0  0  0  0  0  0  0  0
    0.5477   -1.7705    3.5078 C   0  0  0  0  0  0  0  0  0  0  0  0
    2.1711   -1.4486   -0.0214 H   0  0  0  0  0  0  0  0  0  0  0  0
    2.0089   -0.2620   -1.3205 H   0  0  0  0  0  0  0  0  0  0  0  0
    0.6432   -1.2947   -0.8913 H   0  0  0  0  0  0  0  0  0  0  0  0
    1.8749    0.8695    0.9049 H   0  0  0  0  0  0  0  0  0  0  0  0
   -0.0952    0.4867    2.3652 H   0  0  0  0  0  0  0  0  0  0  0  0
   -0.5803   -0.8856    1.3523 H   0  0  0  0  0  0  0  0  0  0  0  0
   -0.2872   -2.4076    3.1860 H   0  0  0  0  0  0  0  0  0  0  0  0
    1.2968   -2.3910    3.9979 H   0  0  0  0  0  0  0  0  0  0  0  0
    0.1633   -1.0386    4.2312 H   0  0  0  0  0  0  0  0  0  0  0  0
  1  2  1  0
  1  5  1  0
  1  6  1  0
  1  7  1  0
  2  3  1  0
  3  4  2  3
  4  8  1  0
  4  9  1  0
 10 11  1  0
 10 15  1  0
 10 16  1  0
 10 17  1  0
 11 12  1  0
 11 18  1  0
 12 13  1  0
 12 19  1  0
 12 20  1  0
 13 14  1  0
 14 21  1  0
 14 22  1  0
 14 23  1  0
M  RAD  1  11   2
M  END
>  <reaction>  (24) 
rmg_rxn_15719

>  <mol_properties>  (24) 
{"0": {"label": "*1", "atom_type": "Cs"}, "1": {"label": "*0", "atom_type": "O2s"}, "4": {"label": "*2", "atom_type": "H0"}, "10": {"label": "*3", "atom_type": "Cs"}, "11": {"label": "*4", "atom_type": "Cs"}}

>  <type>  (24) 
unop_20

>  <geom_source>  (24) 
Heuristics

$$$$

     RDKit          3D

 23 21  0  0  0  0  0  0  0  0999 V2000
   -1.6598    1.5530   -0.0759 C   0  0  0  0  0  0  0  0  0  0  0  0
   -1.6598    1.6109   -1.4888 O   0  0  0  0  0  0  0  0  0  0  0  0
   -1.6598    0.3370   -2.0045 N   0  0  0  0  0  0  0  0  0  0  0  0
   -1.6598    0.3370   -3.2681 C   0  0  0  0  0  0  0  0  0  0  0  0
   -0.5892    0.9408    0.3682 H   0  0  0  0  0  0  0  0  0  0  0  0
   -2.5519    1.0428    0.2942 H   0  0  0  0  0  0  0  0  0  0  0  0
   -1.6598    2.5879    0.2619 H   0  0  0  0  0  0  0  0  0  0  0  0
   -1.6598   -0.6301   -3.7530 H   0  0  0  0  0  0  0  0  0  0  0  0
   -1.6598    1.2535   -3.8543 H   0  0  0  0  0  0  0  0  0  0  0  0
    1.7346    1.0688    0.3625 C   0  0  0  0  0  0  0  0  0  0  0  0
    0.4826    0.3279    0.8128 C   0  0  0  0  0  3  0  0  0  0  0  0
    0.7131   -1.1529    1.0333 C   0  0  0  0  0  0  0  0  0  0  0  0
    1.6371   -1.3308    2.0782 O   0  0  0  0  0  0  0  0  0  0  0  0
    1.9311   -2.6771    2.3213 C   0  0  0  0  0  0  0  0  0  0  0  0
    2.5256    0.9789    1.1070 H   0  0  0  0  0  0  0  0  0  0  0  0
    1.5292    2.1293    0.2095 H   0  0  0  0  0  0  0  0  0  0  0  0
    2.1113    0.6611   -0.5788 H   0  0  0  0  0  0  0  0  0  0  0  0
    0.1028    0.7620    1.7414 H   0  0  0  0  0  0  0  0  0  0  0  0
   -0.2340   -1.6540    1.2824 H   0  0  0  0  0  0  0  0  0  0  0  0
    1.0972   -1.6178    0.1113 H   0  0  0  0  0  0  0  0  0  0  0  0
    2.3737   -3.1584    1.4387 H   0  0  0  0  0  0  0  0  0  0  0  0
    2.6472   -2.7163    3.1412 H   0  0  0  0  0  0  0  0  0  0  0  0
    1.0324   -3.2408    2.6066 H   0  0  0  0  0  0  0  0  0  0  0  0
  1  2  1  0
  1  5  1  0
  1  6  1  0
  1  7  1  0
  2  3  1  0
  3  4  2  3
  4  8  1  0
  4  9  1  0
 10 11  1  0
 10 15  1  0
 10 16  1  0
 10 17  1  0
 11 12  1  0
 11 18  1  0
 12 13  1  0
 12 19  1  0
 12 20  1  0
 13 14  1  0
 14 21  1  0
 14 22  1  0
 14 23  1  0
M  RAD  1  11   2
M  END
>  <reaction>  (25) 
rmg_rxn_15719

>  <mol_properties>  (25) 
{"0": {"label": "*1", "atom_type": "Cs"}, "1": {"label": "*0", "atom_type": "O2s"}, "4": {"label": "*2", "atom_type": "H0"}, "10": {"label": "*3", "atom_type": "Cs"}, "11": {"label": "*4", "atom_type": "Cs"}}

>  <type>  (25) 
unop_21

>  <geom_source>  (25) 
Heuristics

$$$$

     RDKit          3D

 23 21  0  0  0  0  0  0  0  0999 V2000
   -1.6939    0.3965   -0.1779 C   0  0  0  0  0  0  0  0  0  0  0  0
   -1.6939    0.4544   -1.5908 O   0  0  0  0  0  0  0  0  0  0  0  0
   -1.6939   -0.8195   -2.1066 N   0  0  0  0  0  0  0  0  0  0  0  0
   -1.6939   -0.8195   -3.3702 C   0  0  0  0  0  0  0  0  0  0  0  0
   -0.6233   -0.2157    0.2662 H   0  0  0  0  0  0  0  0  0  0  0  0
   -2.5860   -0.1137    0.1922 H   0  0  0  0  0  0  0  0  0  0  0  0
   -1.6939    1.4314    0.1599 H   0  0  0  0  0  0  0  0  0  0  0  0
   -1.6939   -1.7865   -3.8550 H   0  0  0  0  0  0  0  0  0  0  0  0
   -1.6939    0.0970   -3.9563 H   0  0  0  0  0  0  0  0  0  0  0  0
    0.1425   -1.5308    2.0270 C   0  0  0  0  0  0  0  0  0  0  0  0
    0.4485   -0.8285    0.7108 C   0  0  0  0  0  3  0  0  0  0  0  0
    0.9960    0.5717    0.8956 C   0  0  0  0  0  0  0  0  0  0  0  0
    2.2289    0.5057    1.5684 O   0  0  0  0  0  0  0  0  0  0  0  0
    2.7855    1.7667    1.8093 C   0  0  0  0  0  0  0  0  0  0  0  0
    1.0423   -1.6203    2.6356 H   0  0  0  0  0  0  0  0  0  0  0  0
   -0.2536   -2.5326    1.8543 H   0  0  0  0  0  0  0  0  0  0  0  0
   -0.5989   -0.9721    2.6036 H   0  0  0  0  0  0  0  0  0  0  0  0
    1.1718   -1.4105    0.1338 H   0  0  0  0  0  0  0  0  0  0  0  0
    1.1283    1.0619   -0.0803 H   0  0  0  0  0  0  0  0  0  0  0  0
    0.2858    1.1826    1.4755 H   0  0  0  0  0  0  0  0  0  0  0  0
    2.1287    2.3835    2.4377 H   0  0  0  0  0  0  0  0  0  0  0  0
    3.7316    1.6170    2.3279 H   0  0  0  0  0  0  0  0  0  0  0  0
    2.9750    2.3093    0.8730 H   0  0  0  0  0  0  0  0  0  0  0  0
  1  2  1  0
  1  5  1  0
  1  6  1  0
  1  7  1  0
  2  3  1  0
  3  4  2  3
  4  8  1  0
  4  9  1  0
 10 11  1  0
 10 15  1  0
 10 16  1  0
 10 17  1  0
 11 12  1  0
 11 18  1  0
 12 13  1  0
 12 19  1  0
 12 20  1  0
 13 14  1  0
 14 21  1  0
 14 22  1  0
 14 23  1  0
M  RAD  1  11   2
M  END
>  <reaction>  (26) 
rmg_rxn_15719

>  <mol_properties>  (26) 
{"0": {"label": "*1", "atom_type": "Cs"}, "1": {"label": "*0", "atom_type": "O2s"}, "4": {"label": "*2", "atom_type": "H0"}, "10": {"label": "*3", "atom_type": "Cs"}, "11": {"label": "*4", "atom_type": "Cs"}}

>  <type>  (26) 
unop_22

>  <geom_source>  (26) 
Heuristics

$$$$

     RDKit          3D

 23 21  0  0  0  0  0  0  0  0999 V2000
   -1.3555    1.6465   -0.1767 C   0  0  0  0  0  0  0  0  0  0  0  0
   -1.3555    1.7044   -1.5896 O   0  0  0  0  0  0  0  0  0  0  0  0
   -1.3555    0.4305   -2.1053 N   0  0  0  0  0  0  0  0  0  0  0  0
   -1.3555    0.4305   -3.3689 C   0  0  0  0  0  0  0  0  0  0  0  0
   -0.2849    1.0343    0.2674 H   0  0  0  0  0  0  0  0  0  0  0  0
   -2.2476    1.1363    0.1934 H   0  0  0  0  0  0  0  0  0  0  0  0
   -1.3555    2.6814    0.1611 H   0  0  0  0  0  0  0  0  0  0  0  0
   -1.3555   -0.5365   -3.8538 H   0  0  0  0  0  0  0  0  0  0  0  0
   -1.3555    1.3470   -3.9551 H   0  0  0  0  0  0  0  0  0  0  0  0
    1.6621   -0.0163   -0.4548 C   0  0  0  0  0  0  0  0  0  0  0  0
    0.7869    0.4215    0.7120 C   0  0  0  0  0  3  0  0  0  0  0  0
    0.3349   -0.7320    1.5838 C   0  0  0  0  0  0  0  0  0  0  0  0
    1.4574   -1.3362    2.1771 O   0  0  0  0  0  0  0  0  0  0  0  0
    1.1251   -2.4372    2.9742 C   0  0  0  0  0  0  0  0  0  0  0  0
    2.5630   -0.5144   -0.0965 H   0  0  0  0  0  0  0  0  0  0  0  0
    1.9635    0.8388   -1.0615 H   0  0  0  0  0  0  0  0  0  0  0  0
    1.1270   -0.7151   -1.1027 H   0  0  0  0  0  0  0  0  0  0  0  0
    1.3253    1.1385    1.3371 H   0  0  0  0  0  0  0  0  0  0  0  0
   -0.3534   -0.3744    2.3638 H   0  0  0  0  0  0  0  0  0  0  0  0
   -0.2120   -1.4725    0.9786 H   0  0  0  0  0  0  0  0  0  0  0  0
    0.6304   -3.2238    2.3884 H   0  0  0  0  0  0  0  0  0  0  0  0
    2.0497   -2.8354    3.3902 H   0  0  0  0  0  0  0  0  0  0  0  0
    0.4581   -2.1512    3.7990 H   0  0  0  0  0  0  0  0  0  0  0  0
  1  2  1  0
  1  5  1  0
  1  6  1  0
  1  7  1  0
  2  3  1  0
  3  4  2  3
  4  8  1  0
  4  9  1  0
 10 11  1  0
 10 15  1  0
 10 16  1  0
 10 17  1  0
 11 12  1  0
 11 18  1  0
 12 13  1  0
 12 19  1  0
 12 20  1  0
 13 14  1  0
 14 21  1  0
 14 22  1  0
 14 23  1  0
M  RAD  1  11   2
M  END
>  <reaction>  (27) 
rmg_rxn_15719

>  <mol_properties>  (27) 
{"0": {"label": "*1", "atom_type": "Cs"}, "1": {"label": "*0", "atom_type": "O2s"}, "4": {"label": "*2", "atom_type": "H0"}, "10": {"label": "*3", "atom_type": "Cs"}, "11": {"label": "*4", "atom_type": "Cs"}}

>  <type>  (27) 
unop_23

>  <geom_source>  (27) 
Heuristics

$$$$

     RDKit          3D

 23 21  0  0  0  0  0  0  0  0999 V2000
   -0.7309   -0.7871    1.2328 C   0  0  0  0  0  3  0  0  0  0  0  0
   -1.9024   -0.8251    0.4965 O   0  0  0  0  0  0  0  0  0  0  0  0
   -2.1819    0.3786   -0.1171 N   0  0  0  0  0  0  0  0  0  0  0  0
   -3.2286    0.4091   -0.8246 C   0  0  0  0  0  0  0  0  0  0  0  0
    0.3041   -0.8387    0.3824 H   0  0  0  0  0  0  0  0  0  0  0  0
   -0.6930   -1.6795    1.8462 H   0  0  0  0  0  0  0  0  0  0  0  0
   -0.5781    0.1419    1.7749 H   0  0  0  0  0  0  0  0  0  0  0  0
   -3.4561    1.3448   -1.3029 H   0  0  0  0  0  0  0  0  0  0  0  0
   -3.8955   -0.4355   -0.9682 H   0  0  0  0  0  0  0  0  0  0  0  0
    1.8365   -2.1970   -0.6239 C   0  0  0  0  0  0  0  0  0  0  0  0
    1.2690   -0.8055   -0.5029 C   0  0  0  0  0  0  0  0  0  0  0  0
    2.2534    0.2235    0.0189 C   0  0  0  0  0  0  0  0  0  0  0  0
    1.6644    1.3754    0.5806 O   0  0  0  0  0  0  0  0  0  0  0  0
    0.9249    2.1617   -0.3248 C   0  0  0  0  0  0  0  0  0  0  0  0
    2.6473   -2.2247   -1.3553 H   0  0  0  0  0  0  0  0  0  0  0  0
    1.0679   -2.8948   -0.9484 H   0  0  0  0  0  0  0  0  0  0  0  0
    2.2350   -2.5364    0.3302 H   0  0  0  0  0  0  0  0  0  0  0  0
    0.7810   -0.4831   -1.4215 H   0  0  0  0  0  0  0  0  0  0  0  0
    2.8441   -0.2067    0.8327 H   0  0  0  0  0  0  0  0  0  0  0  0
    2.9453    0.5227   -0.7912 H   0  0  0  0  0  0  0  0  0  0  0  0
    0.7117    3.0965    0.1909 H   0  0  0  0  0  0  0  0  0  0  0  0
    1.5072    2.3733   -1.2300 H   0  0  0  0  0  0  0  0  0  0  0  0
   -0.0208    1.6850   -0.6030 H   0  0  0  0  0  0  0  0  0  0  0  0
  1  2  1  0
  1  6  1  0
  1  7  1  0
  2  3  1  0
  3  4  2  3
  4  8  1  0
  4  9  1  0
  5 11  1  0
 10 11  1  0
 10 15  1  0
 10 16  1  0
 10 17  1  0
 11 12  1  0
 11 18  1  0
 12 13  1  0
 12 19  1  0
 12 20  1  0
 13 14  1  0
 14 21  1  0
 14 22  1  0
 14 23  1  0
M  RAD  1   1   2
M  END
>  <reaction>  (28) 
rmg_rxn_15719

>  <mol_properties>  (28) 
{"0": {"label": "*1", "atom_type": "Cs"}, "1": {"label": "*0", "atom_type": "O2s"}, "4": {"label": "*2", "atom_type": "H0"}, "10": {"label": "*3", "atom_type": "Cs"}, "11": {"label": "*4", "atom_type": "Cs"}}

>  <type>  (28) 
unop_24

>  <geom_source>  (28) 
Heuristics

$$$$

     RDKit          3D

 23 21  0  0  0  0  0  0  0  0999 V2000
   -2.3294   -0.1464    0.6762 O   0  0  0  0  0  0  0  0  0  0  0  0
    2.9898   -0.0489   -0.3219 O   0  0  0  0  0  0  0  0  0  0  0  0
    2.6620   -0.1962    1.0060 N   0  0  0  0  0  0  0  0  0  0  0  0
   -0.4866   -0.4553   -0.8391 C   0  0  0  0  0  0  0  0  0  0  0  0
   -1.0944    0.4046    0.2685 C   0  0  0  0  0  0  0  0  0  0  0  0
   -1.3354   -0.4352   -2.1076 C   0  0  0  0  0  0  0  0  0  0  0  0
   -2.8903    0.6618    1.6858 C   0  0  0  0  0  0  0  0  0  0  0  0
    2.0279   -0.3175   -1.3267 C   0  0  0  0  0  3  0  0  0  0  0  0
    3.5343    0.0460    1.9279 C   0  0  0  0  0  0  0  0  0  0  0  0
   -0.3791   -1.5026   -0.4819 H   0  0  0  0  0  0  0  0  0  0  0  0
    0.7164    0.0084   -1.1273 H   0  0  0  0  0  0  0  0  0  0  0  0
   -1.2227    1.4437   -0.1134 H   0  0  0  0  0  0  0  0  0  0  0  0
   -0.3752    0.4186    1.1187 H   0  0  0  0  0  0  0  0  0  0  0  0
   -0.8428   -1.0498   -2.8897 H   0  0  0  0  0  0  0  0  0  0  0  0
   -2.3439   -0.8557   -1.9087 H   0  0  0  0  0  0  0  0  0  0  0  0
   -1.4371    0.6041   -2.4857 H   0  0  0  0  0  0  0  0  0  0  0  0
   -2.2300    0.7071    2.5804 H   0  0  0  0  0  0  0  0  0  0  0  0
   -3.8539    0.2130    2.0029 H   0  0  0  0  0  0  0  0  0  0  0  0
   -3.1050    1.6864    1.3083 H   0  0  0  0  0  0  0  0  0  0  0  0
    2.4627   -0.0937   -2.3224 H   0  0  0  0  0  0  0  0  0  0  0  0
    1.7330   -1.3871   -1.2877 H   0  0  0  0  0  0  0  0  0  0  0  0
    3.2646   -0.0735    2.9682 H   0  0  0  0  0  0  0  0  0  0  0  0
    4.5351    0.3681    1.6690 H   0  0  0  0  0  0  0  0  0  0  0  0
  1  7  1  0
  1  5  1  0
  2  8  1  0
  2  3  1  0
  3  9  2  3
  4  6  1  0
  4  5  1  0
  4 10  1  0
  4 11  1  0
  5 12  1  0
  5 13  1  0
  6 14  1  0
  6 15  1  0
  6 16  1  0
  7 17  1  0
  7 18  1  0
  7 19  1  0
  8 20  1  0
  8 21  1  0
  9 22  1  0
  9 23  1  0
M  RAD  1   8   2
M  END
>  <reaction>  (29) 
rmg_rxn_15719

>  <mol_properties>  (29) 
{"0": {"label": "*1", "atom_type": "Cs"}, "1": {"label": "*0", "atom_type": "O2s"}, "4": {"label": "*2", "atom_type": "H0"}, "10": {"label": "*3", "atom_type": "Cs"}, "11": {"label": "*4", "atom_type": "Cs"}}

>  <type>  (29) 
unop_25

>  <geom_source>  (29) 
AutoTST

$$$$

     RDKit          3D

 23 21  0  0  0  0  0  0  0  0999 V2000
   -1.5660    1.6078   -0.0902 C   0  0  0  0  0  0  0  0  0  0  0  0
   -1.5660    1.6657   -1.5031 O   0  0  0  0  0  0  0  0  0  0  0  0
   -1.5660    0.3918   -2.0188 N   0  0  0  0  0  0  0  0  0  0  0  0
   -1.5660    0.3918   -3.2824 C   0  0  0  0  0  0  0  0  0  0  0  0
   -0.4954    0.9956    0.3539 H   0  0  0  0  0  0  0  0  0  0  0  0
   -2.4581    1.0976    0.2799 H   0  0  0  0  0  0  0  0  0  0  0  0
   -1.5660    2.6427    0.2476 H   0  0  0  0  0  0  0  0  0  0  0  0
   -1.5660   -0.5753   -3.7673 H   0  0  0  0  0  0  0  0  0  0  0  0
   -1.5660    1.3083   -3.8686 H   0  0  0  0  0  0  0  0  0  0  0  0
    1.7384    0.5956   -0.1626 C   0  0  0  0  0  0  0  0  0  0  0  0
    0.5764    0.3827    0.7985 C   0  0  0  0  0  3  0  0  0  0  0  0
    0.5001   -1.0308    1.3377 C   0  0  0  0  0  0  0  0  0  0  0  0
    1.6533   -1.3045    2.0943 O   0  0  0  0  0  0  0  0  0  0  0  0
    1.6751   -2.6088    2.6006 C   0  0  0  0  0  0  0  0  0  0  0  0
    2.6893    0.3927    0.3299 H   0  0  0  0  0  0  0  0  0  0  0  0
    1.7581    1.6215   -0.5331 H   0  0  0  0  0  0  0  0  0  0  0  0
    1.6578   -0.0708   -1.0250 H   0  0  0  0  0  0  0  0  0  0  0  0
    0.6561    1.0723    1.6429 H   0  0  0  0  0  0  0  0  0  0  0  0
   -0.3958   -1.1527    1.9643 H   0  0  0  0  0  0  0  0  0  0  0  0
    0.4189   -1.7494    0.5066 H   0  0  0  0  0  0  0  0  0  0  0  0
    1.6565   -3.3542    1.7940 H   0  0  0  0  0  0  0  0  0  0  0  0
    2.5962   -2.7273    3.1696 H   0  0  0  0  0  0  0  0  0  0  0  0
    0.8202   -2.7981    3.2641 H   0  0  0  0  0  0  0  0  0  0  0  0
  1  2  1  0
  1  5  1  0
  1  6  1  0
  1  7  1  0
  2  3  1  0
  3  4  2  3
  4  8  1  0
  4  9  1  0
 10 11  1  0
 10 15  1  0
 10 16  1  0
 10 17  1  0
 11 12  1  0
 11 18  1  0
 12 13  1  0
 12 19  1  0
 12 20  1  0
 13 14  1  0
 14 21  1  0
 14 22  1  0
 14 23  1  0
M  RAD  1  11   2
M  END
>  <reaction>  (30) 
rmg_rxn_15719

>  <mol_properties>  (30) 
{"0": {"label": "*1", "atom_type": "Cs"}, "1": {"label": "*0", "atom_type": "O2s"}, "4": {"label": "*2", "atom_type": "H0"}, "10": {"label": "*3", "atom_type": "Cs"}, "11": {"label": "*4", "atom_type": "Cs"}}

>  <type>  (30) 
unop_26

>  <geom_source>  (30) 
gaussian_log

$$$$
