
     RDKit          3D

 15 14  0  0  0  0  0  0  0  0999 V2000
    2.4145    0.0817    0.4065 C   0  0  0  0  0  0  0  0  0  0  0  0
    1.1257   -0.2220   -0.3219 C   0  0  0  0  0  0  0  0  0  0  0  0
    1.0983   -1.5879   -0.6512 O   0  0  0  0  0  0  0  0  0  0  0  0
   -0.0685   -1.9694   -1.3352 C   0  0  0  0  0  0  0  0  0  0  0  0
    0.0024   -3.4478   -1.6403 C   0  0  0  0  0  0  0  0  0  0  0  0
    3.2736   -0.1534   -0.2229 H   0  0  0  0  0  0  0  0  0  0  0  0
    2.4581    1.1389    0.6728 H   0  0  0  0  0  0  0  0  0  0  0  0
    2.4855   -0.5095    1.3201 H   0  0  0  0  0  0  0  0  0  0  0  0
    0.2597    0.0294    0.3083 H   0  0  0  0  0  0  0  0  0  0  0  0
    1.0482    0.3858   -1.2356 H   0  0  0  0  0  0  0  0  0  0  0  0
   -0.9535   -1.7457   -0.7211 H   0  0  0  0  0  0  0  0  0  0  0  0
   -0.1650   -1.3894   -2.2650 H   0  0  0  0  0  0  0  0  0  0  0  0
    0.0831   -4.0247   -0.7183 H   0  0  0  0  0  0  0  0  0  0  0  0
   -0.8950   -3.7674   -2.1724 H   0  0  0  0  0  0  0  0  0  0  0  0
    0.8712   -3.6686   -2.2613 H   0  0  0  0  0  0  0  0  0  0  0  0
  1  2  1  0
  1  6  1  0
  1  7  1  0
  1  8  1  0
  2  3  1  0
  2  9  1  0
  2 10  1  0
  3  4  1  0
  4  5  1  0
  4 11  1  0
  4 12  1  0
  5 13  1  0
  5 14  1  0
  5 15  1  0
M  END
>  <reaction>  (1) 
rmg_rxn_646

>  <mol_properties>  (1) 
{"0": {"label": "donator", "atom_type": "Cs"}, "5": {"label": "d_hydrogen", "atom_type": "H0"}}

>  <type>  (1) 
r1h

$$$$

     RDKit          3D

 11 10  0  0  0  0  0  0  0  0999 V2000
   -1.2230    0.3768   -0.0849 C   0  0  0  0  0  0  0  0  0  0  0  0
   -0.0734   -0.5533    0.2746 C   0  0  0  0  0  0  0  0  0  0  0  0
   -0.0853   -1.8426   -0.5372 C   0  0  0  0  0  0  0  0  0  0  0  0
    0.0319   -1.6944   -1.8815 O   0  0  0  0  0  1  0  0  0  0  0  0
   -2.1874   -0.0885    0.1341 H   0  0  0  0  0  0  0  0  0  0  0  0
   -1.1670    1.3099    0.4765 H   0  0  0  0  0  0  0  0  0  0  0  0
   -1.2014    0.6189   -1.1483 H   0  0  0  0  0  0  0  0  0  0  0  0
    0.8834   -0.0518    0.1071 H   0  0  0  0  0  0  0  0  0  0  0  0
   -0.1104   -0.8149    1.3362 H   0  0  0  0  0  0  0  0  0  0  0  0
    0.6767   -2.5604   -0.1861 H   0  0  0  0  0  0  0  0  0  0  0  0
   -1.0401   -2.3871   -0.3877 H   0  0  0  0  0  0  0  0  0  0  0  0
  1  2  1  0
  1  5  1  0
  1  6  1  0
  1  7  1  0
  2  3  1  0
  2  8  1  0
  2  9  1  0
  3  4  1  0
  3 10  1  0
  3 11  1  0
M  RAD  1   4   2
M  END
>  <reaction>  (2) 
rmg_rxn_646

>  <mol_properties>  (2) 
{"3": {"label": "acceptor", "atom_type": "O2s"}}

>  <type>  (2) 
r2

$$$$

     RDKit          3D

 12 11  0  0  0  0  0  0  0  0999 V2000
   -1.4643   -0.2505   -0.5284 C   0  0  0  0  0  0  0  0  0  0  0  0
   -0.3946    0.4302    0.3143 C   0  0  0  0  0  0  0  0  0  0  0  0
   -0.5959    0.2382    1.8102 C   0  0  0  0  0  0  0  0  0  0  0  0
   -0.5633   -1.1190    2.2092 O   0  0  0  0  0  0  0  0  0  0  0  0
   -2.4511    0.1644   -0.3109 H   0  0  0  0  0  0  0  0  0  0  0  0
   -1.5019   -1.3198   -0.3181 H   0  0  0  0  0  0  0  0  0  0  0  0
   -1.2720   -0.1182   -1.5941 H   0  0  0  0  0  0  0  0  0  0  0  0
    0.5965    0.0515    0.0385 H   0  0  0  0  0  0  0  0  0  0  0  0
   -0.3776    1.5047    0.1078 H   0  0  0  0  0  0  0  0  0  0  0  0
   -1.5821    0.6048    2.1034 H   0  0  0  0  0  0  0  0  0  0  0  0
    0.1495    0.8220    2.3649 H   0  0  0  0  0  0  0  0  0  0  0  0
    0.3017   -1.4750    1.9997 H   0  0  0  0  0  0  0  0  0  0  0  0
  1  2  1  0
  1  5  1  0
  1  6  1  0
  1  7  1  0
  2  3  1  0
  2  8  1  0
  2  9  1  0
  3  4  1  0
  3 10  1  0
  3 11  1  0
  4 12  1  0
M  END
>  <reaction>  (3) 
rmg_rxn_646

>  <mol_properties>  (3) 
{"3": {"label": "acceptor", "atom_type": "O2s"}, "11": {"label": "a_hydrogen", "atom_type": "H0"}}

>  <type>  (3) 
r2h

$$$$

     RDKit          3D

 26 24  0  0  0  0  0  0  0  0999 V2000
   -1.5528    0.8729   -1.4646 C   0  0  0  0  0  0  0  0  0  0  0  0
   -0.3511    1.7358   -1.1111 C   0  0  0  0  0  0  0  0  0  0  0  0
   -0.5625    2.5637    0.1498 C   0  0  0  0  0  0  0  0  0  0  0  0
   -0.9455    1.8295    1.2736 O   0  0  0  0  0  0  0  0  0  0  0  0
   -2.4517    1.4797   -1.6003 H   0  0  0  0  0  0  0  0  0  0  0  0
   -1.3812    0.3192   -2.3892 H   0  0  0  0  0  0  0  0  0  0  0  0
   -1.7532    0.1536   -0.6698 H   0  0  0  0  0  0  0  0  0  0  0  0
    0.5239    1.0962   -0.9716 H   0  0  0  0  0  0  0  0  0  0  0  0
   -0.1211    2.4243   -1.9302 H   0  0  0  0  0  0  0  0  0  0  0  0
    0.3266    3.1741    0.3591 H   0  0  0  0  0  0  0  0  0  0  0  0
   -1.3933    3.2671   -0.0051 H   0  0  0  0  0  0  0  0  0  0  0  0
    0.9454    0.3549    1.9921 C   0  0  0  0  0  3  0  0  0  0  0  0
    0.6080   -1.0219    1.5121 C   0  0  0  0  0  0  0  0  0  0  0  0
    0.8584   -1.1103    0.1359 O   0  0  0  0  0  0  0  0  0  0  0  0
    0.3958   -2.3050   -0.4461 C   0  0  0  0  0  0  0  0  0  0  0  0
    0.7448   -2.2938   -1.9155 C   0  0  0  0  0  0  0  0  0  0  0  0
    0.0043    1.1221    1.6195 H   0  0  0  0  0  0  0  0  0  0  0  0
    0.9131    0.4626    3.0745 H   0  0  0  0  0  0  0  0  0  0  0  0
    1.8553    0.7638    1.5567 H   0  0  0  0  0  0  0  0  0  0  0  0
    1.2142   -1.7678    2.0540 H   0  0  0  0  0  0  0  0  0  0  0  0
   -0.4462   -1.2491    1.7286 H   0  0  0  0  0  0  0  0  0  0  0  0
    0.8560   -3.1693    0.0542 H   0  0  0  0  0  0  0  0  0  0  0  0
   -0.6918   -2.3871   -0.3089 H   0  0  0  0  0  0  0  0  0  0  0  0
    1.8248   -2.2303   -2.0527 H   0  0  0  0  0  0  0  0  0  0  0  0
    0.3863   -3.2051   -2.3961 H   0  0  0  0  0  0  0  0  0  0  0  0
    0.2830   -1.4373   -2.4077 H   0  0  0  0  0  0  0  0  0  0  0  0
  1  2  1  0
  1  5  1  0
  1  6  1  0
  1  7  1  0
  2  3  1  0
  2  8  1  0
  2  9  1  0
  3  4  1  0
  3 10  1  0
  3 11  1  0
  4 17  1  0
 12 13  1  0
 12 18  1  0
 12 19  1  0
 13 14  1  0
 13 20  1  0
 13 21  1  0
 14 15  1  0
 15 16  1  0
 15 22  1  0
 15 23  1  0
 16 24  1  0
 16 25  1  0
 16 26  1  0
M  RAD  1  12   2
M  END
>  <reaction>  (4) 
rmg_rxn_646

>  <mol_properties>  (4) 
{"2": {"label": "*0", "atom_type": "Cs"}, "3": {"label": "*1", "atom_type": "O2s"}, "11": {"label": "*3", "atom_type": "Cs"}, "12": {"label": "*4", "atom_type": "Cs"}, "16": {"label": "*2", "atom_type": "H0"}}

>  <type>  (4) 
ts

$$$$

     RDKit          3D

 26 24  0  0  0  0  0  0  0  0999 V2000
    0.0940    2.8965    2.0029 C   0  0  0  0  0  0  0  0  0  0  0  0
   -1.0990    1.9625    2.1525 C   0  0  0  0  0  0  0  0  0  0  0  0
   -1.9172    1.8240    0.8771 C   0  0  0  0  0  0  0  0  0  0  0  0
   -1.1771    1.2970   -0.2076 O   0  0  0  0  0  0  0  0  0  0  0  0
   -0.2348    3.9085    1.7556 H   0  0  0  0  0  0  0  0  0  0  0  0
    0.6741    2.9482    2.9253 H   0  0  0  0  0  0  0  0  0  0  0  0
    0.7535    2.5588    1.2029 H   0  0  0  0  0  0  0  0  0  0  0  0
   -0.7592    0.9683    2.4653 H   0  0  0  0  0  0  0  0  0  0  0  0
   -1.7622    2.3205    2.9458 H   0  0  0  0  0  0  0  0  0  0  0  0
   -2.8082    1.2134    1.0700 H   0  0  0  0  0  0  0  0  0  0  0  0
   -2.2601    2.8068    0.5460 H   0  0  0  0  0  0  0  0  0  0  0  0
    0.8170    0.1711    0.6882 C   0  0  0  0  0  3  0  0  0  0  0  0
    0.8170   -1.2905    0.3046 C   0  0  0  0  0  0  0  0  0  0  0  0
    0.8170   -1.3947   -1.0969 O   0  0  0  0  0  0  0  0  0  0  0  0
    0.8170   -2.7239   -1.5535 C   0  0  0  0  0  0  0  0  0  0  0  0
    0.8170   -2.7239   -3.0646 C   0  0  0  0  0  0  0  0  0  0  0  0
   -0.2443    0.7703    0.2114 H   0  0  0  0  0  0  0  0  0  0  0  0
    0.8170    0.2769    1.7742 H   0  0  0  0  0  0  0  0  0  0  0  0
    1.7014    0.6704    0.2909 H   0  0  0  0  0  0  0  0  0  0  0  0
    1.7019   -1.7965    0.7184 H   0  0  0  0  0  0  0  0  0  0  0  0
   -0.0679   -1.7965    0.7184 H   0  0  0  0  0  0  0  0  0  0  0  0
    1.7019   -3.2525   -1.1691 H   0  0  0  0  0  0  0  0  0  0  0  0
   -0.0679   -3.2525   -1.1691 H   0  0  0  0  0  0  0  0  0  0  0  0
    1.7014   -2.2128   -3.4467 H   0  0  0  0  0  0  0  0  0  0  0  0
    0.8170   -3.7474   -3.4426 H   0  0  0  0  0  0  0  0  0  0  0  0
   -0.0674   -2.2128   -3.4467 H   0  0  0  0  0  0  0  0  0  0  0  0
  1  2  1  0
  1  5  1  0
  1  6  1  0
  1  7  1  0
  2  3  1  0
  2  8  1  0
  2  9  1  0
  3  4  1  0
  3 10  1  0
  3 11  1  0
  4 17  1  0
 12 13  1  0
 12 18  1  0
 12 19  1  0
 13 14  1  0
 13 20  1  0
 13 21  1  0
 14 15  1  0
 15 16  1  0
 15 22  1  0
 15 23  1  0
 16 24  1  0
 16 25  1  0
 16 26  1  0
M  RAD  1  12   2
M  END
>  <reaction>  (5) 
rmg_rxn_646

>  <mol_properties>  (5) 
{"2": {"label": "*0", "atom_type": "Cs"}, "3": {"label": "*1", "atom_type": "O2s"}, "11": {"label": "*3", "atom_type": "Cs"}, "12": {"label": "*4", "atom_type": "Cs"}, "16": {"label": "*2", "atom_type": "H0"}}

>  <type>  (5) 
unop_1

>  <geom_source>  (5) 
Heuristics

$$$$

     RDKit          3D

 26 24  0  0  0  0  0  0  0  0999 V2000
   -2.0830    0.9238    2.4670 C   0  0  0  0  0  0  0  0  0  0  0  0
   -1.8427    0.1737    1.1641 C   0  0  0  0  0  0  0  0  0  0  0  0
   -1.7691    1.0874   -0.0503 C   0  0  0  0  0  0  0  0  0  0  0  0
   -0.7185    2.0323    0.0236 O   0  0  0  0  0  0  0  0  0  0  0  0
   -3.0394    1.4511    2.4398 H   0  0  0  0  0  0  0  0  0  0  0  0
   -2.0997    0.2423    3.3186 H   0  0  0  0  0  0  0  0  0  0  0  0
   -1.3018    1.6652    2.6378 H   0  0  0  0  0  0  0  0  0  0  0  0
   -0.9131   -0.4034    1.2304 H   0  0  0  0  0  0  0  0  0  0  0  0
   -2.6413   -0.5549    0.9947 H   0  0  0  0  0  0  0  0  0  0  0  0
   -1.6847    0.4865   -0.9646 H   0  0  0  0  0  0  0  0  0  0  0  0
   -2.6858    1.6760   -0.1297 H   0  0  0  0  0  0  0  0  0  0  0  0
    1.2756    0.9065    0.9195 C   0  0  0  0  0  3  0  0  0  0  0  0
    1.2756   -0.5551    0.5359 C   0  0  0  0  0  0  0  0  0  0  0  0
    1.2756   -0.6593   -0.8656 O   0  0  0  0  0  0  0  0  0  0  0  0
    1.2756   -1.9885   -1.3222 C   0  0  0  0  0  0  0  0  0  0  0  0
    1.2756   -1.9885   -2.8334 C   0  0  0  0  0  0  0  0  0  0  0  0
    0.2143    1.5057    0.4427 H   0  0  0  0  0  0  0  0  0  0  0  0
    1.2756    1.0123    2.0055 H   0  0  0  0  0  0  0  0  0  0  0  0
    2.1600    1.4058    0.5222 H   0  0  0  0  0  0  0  0  0  0  0  0
    2.1605   -1.0611    0.9496 H   0  0  0  0  0  0  0  0  0  0  0  0
    0.3907   -1.0611    0.9496 H   0  0  0  0  0  0  0  0  0  0  0  0
    2.1605   -2.5171   -0.9379 H   0  0  0  0  0  0  0  0  0  0  0  0
    0.3907   -2.5171   -0.9379 H   0  0  0  0  0  0  0  0  0  0  0  0
    2.1600   -1.4774   -3.2154 H   0  0  0  0  0  0  0  0  0  0  0  0
    1.2756   -3.0120   -3.2114 H   0  0  0  0  0  0  0  0  0  0  0  0
    0.3912   -1.4774   -3.2154 H   0  0  0  0  0  0  0  0  0  0  0  0
  1  2  1  0
  1  5  1  0
  1  6  1  0
  1  7  1  0
  2  3  1  0
  2  8  1  0
  2  9  1  0
  3  4  1  0
  3 10  1  0
  3 11  1  0
  4 17  1  0
 12 13  1  0
 12 18  1  0
 12 19  1  0
 13 14  1  0
 13 20  1  0
 13 21  1  0
 14 15  1  0
 15 16  1  0
 15 22  1  0
 15 23  1  0
 16 24  1  0
 16 25  1  0
 16 26  1  0
M  RAD  1  12   2
M  END
>  <reaction>  (6) 
rmg_rxn_646

>  <mol_properties>  (6) 
{"2": {"label": "*0", "atom_type": "Cs"}, "3": {"label": "*1", "atom_type": "O2s"}, "11": {"label": "*3", "atom_type": "Cs"}, "12": {"label": "*4", "atom_type": "Cs"}, "16": {"label": "*2", "atom_type": "H0"}}

>  <type>  (6) 
unop_2

>  <geom_source>  (6) 
Heuristics

$$$$

     RDKit          3D

 26 24  0  0  0  0  0  0  0  0999 V2000
    0.5089    3.3211    0.7089 C   0  0  0  0  0  0  0  0  0  0  0  0
   -0.5171    2.7230    1.6615 C   0  0  0  0  0  0  0  0  0  0  0  0
   -1.7166    2.1162    0.9487 C   0  0  0  0  0  0  0  0  0  0  0  0
   -1.3715    1.0577    0.0753 O   0  0  0  0  0  0  0  0  0  0  0  0
    0.0703    4.1367    0.1293 H   0  0  0  0  0  0  0  0  0  0  0  0
    1.3677    3.7190    1.2514 H   0  0  0  0  0  0  0  0  0  0  0  0
    0.8678    2.5707    0.0038 H   0  0  0  0  0  0  0  0  0  0  0  0
   -0.0465    1.9519    2.2825 H   0  0  0  0  0  0  0  0  0  0  0  0
   -0.8826    3.4885    2.3526 H   0  0  0  0  0  0  0  0  0  0  0  0
   -2.4589    1.7833    1.6850 H   0  0  0  0  0  0  0  0  0  0  0  0
   -2.1959    2.8692    0.3191 H   0  0  0  0  0  0  0  0  0  0  0  0
    0.6226   -0.0681    0.9712 C   0  0  0  0  0  3  0  0  0  0  0  0
    0.6226   -1.5298    0.5876 C   0  0  0  0  0  0  0  0  0  0  0  0
    0.6226   -1.6340   -0.8140 O   0  0  0  0  0  0  0  0  0  0  0  0
    0.6226   -2.9631   -1.2705 C   0  0  0  0  0  0  0  0  0  0  0  0
    0.6226   -2.9631   -2.7817 C   0  0  0  0  0  0  0  0  0  0  0  0
   -0.4387    0.5310    0.4944 H   0  0  0  0  0  0  0  0  0  0  0  0
    0.6226    0.0377    2.0571 H   0  0  0  0  0  0  0  0  0  0  0  0
    1.5070    0.4312    0.5739 H   0  0  0  0  0  0  0  0  0  0  0  0
    1.5075   -2.0357    1.0013 H   0  0  0  0  0  0  0  0  0  0  0  0
   -0.2623   -2.0357    1.0013 H   0  0  0  0  0  0  0  0  0  0  0  0
    1.5075   -3.4918   -0.8862 H   0  0  0  0  0  0  0  0  0  0  0  0
   -0.2623   -3.4918   -0.8862 H   0  0  0  0  0  0  0  0  0  0  0  0
    1.5070   -2.4521   -3.1638 H   0  0  0  0  0  0  0  0  0  0  0  0
    0.6226   -3.9867   -3.1597 H   0  0  0  0  0  0  0  0  0  0  0  0
   -0.2618   -2.4521   -3.1638 H   0  0  0  0  0  0  0  0  0  0  0  0
  1  2  1  0
  1  5  1  0
  1  6  1  0
  1  7  1  0
  2  3  1  0
  2  8  1  0
  2  9  1  0
  3  4  1  0
  3 10  1  0
  3 11  1  0
  4 17  1  0
 12 13  1  0
 12 18  1  0
 12 19  1  0
 13 14  1  0
 13 20  1  0
 13 21  1  0
 14 15  1  0
 15 16  1  0
 15 22  1  0
 15 23  1  0
 16 24  1  0
 16 25  1  0
 16 26  1  0
M  RAD  1  12   2
M  END
>  <reaction>  (7) 
rmg_rxn_646

>  <mol_properties>  (7) 
{"2": {"label": "*0", "atom_type": "Cs"}, "3": {"label": "*1", "atom_type": "O2s"}, "11": {"label": "*3", "atom_type": "Cs"}, "12": {"label": "*4", "atom_type": "Cs"}, "16": {"label": "*2", "atom_type": "H0"}}

>  <type>  (7) 
unop_3

>  <geom_source>  (7) 
Heuristics

$$$$

     RDKit          3D

 26 24  0  0  0  0  0  0  0  0999 V2000
   -3.0625    0.7262   -0.6137 C   0  0  0  0  0  0  0  0  0  0  0  0
   -1.5892    0.6080   -0.9789 C   0  0  0  0  0  0  0  0  0  0  0  0
   -0.7476    1.7659   -0.4629 C   0  0  0  0  0  0  0  0  0  0  0  0
   -0.7638    1.8843    0.9470 O   0  0  0  0  0  0  0  0  0  0  0  0
   -3.5002    1.6247   -1.0548 H   0  0  0  0  0  0  0  0  0  0  0  0
   -3.6293   -0.1340   -0.9725 H   0  0  0  0  0  0  0  0  0  0  0  0
   -3.1903    0.7931    0.4672 H   0  0  0  0  0  0  0  0  0  0  0  0
   -1.1803   -0.3301   -0.5860 H   0  0  0  0  0  0  0  0  0  0  0  0
   -1.4720    0.5591   -2.0657 H   0  0  0  0  0  0  0  0  0  0  0  0
    0.2818    1.6718   -0.8310 H   0  0  0  0  0  0  0  0  0  0  0  0
   -1.1441    2.7114   -0.8396 H   0  0  0  0  0  0  0  0  0  0  0  0
    1.2303    0.7585    1.8428 C   0  0  0  0  0  3  0  0  0  0  0  0
    1.2303   -0.7032    1.4592 C   0  0  0  0  0  0  0  0  0  0  0  0
    1.2303   -0.8074    0.0577 O   0  0  0  0  0  0  0  0  0  0  0  0
    1.2303   -2.1365   -0.3988 C   0  0  0  0  0  0  0  0  0  0  0  0
    1.2303   -2.1365   -1.9100 C   0  0  0  0  0  0  0  0  0  0  0  0
    0.1690    1.3576    1.3661 H   0  0  0  0  0  0  0  0  0  0  0  0
    1.2303    0.8643    2.9288 H   0  0  0  0  0  0  0  0  0  0  0  0
    2.1147    1.2578    1.4455 H   0  0  0  0  0  0  0  0  0  0  0  0
    2.1152   -1.2091    1.8730 H   0  0  0  0  0  0  0  0  0  0  0  0
    0.3454   -1.2091    1.8730 H   0  0  0  0  0  0  0  0  0  0  0  0
    2.1152   -2.6652   -0.0145 H   0  0  0  0  0  0  0  0  0  0  0  0
    0.3454   -2.6652   -0.0145 H   0  0  0  0  0  0  0  0  0  0  0  0
    2.1147   -1.6255   -2.2921 H   0  0  0  0  0  0  0  0  0  0  0  0
    1.2303   -3.1601   -2.2880 H   0  0  0  0  0  0  0  0  0  0  0  0
    0.3459   -1.6255   -2.2921 H   0  0  0  0  0  0  0  0  0  0  0  0
  1  2  1  0
  1  5  1  0
  1  6  1  0
  1  7  1  0
  2  3  1  0
  2  8  1  0
  2  9  1  0
  3  4  1  0
  3 10  1  0
  3 11  1  0
  4 17  1  0
 12 13  1  0
 12 18  1  0
 12 19  1  0
 13 14  1  0
 13 20  1  0
 13 21  1  0
 14 15  1  0
 15 16  1  0
 15 22  1  0
 15 23  1  0
 16 24  1  0
 16 25  1  0
 16 26  1  0
M  RAD  1  12   2
M  END
>  <reaction>  (8) 
rmg_rxn_646

>  <mol_properties>  (8) 
{"2": {"label": "*0", "atom_type": "Cs"}, "3": {"label": "*1", "atom_type": "O2s"}, "11": {"label": "*3", "atom_type": "Cs"}, "12": {"label": "*4", "atom_type": "Cs"}, "16": {"label": "*2", "atom_type": "H0"}}

>  <type>  (8) 
unop_4

>  <geom_source>  (8) 
Heuristics

$$$$

     RDKit          3D

 26 24  0  0  0  0  0  0  0  0999 V2000
   -0.0939    3.1183   -1.1153 C   0  0  0  0  0  0  0  0  0  0  0  0
   -0.1385    3.0963    0.4063 C   0  0  0  0  0  0  0  0  0  0  0  0
   -1.3456    2.3547    0.9613 C   0  0  0  0  0  0  0  0  0  0  0  0
   -1.3911    0.9937    0.5769 O   0  0  0  0  0  0  0  0  0  0  0  0
   -0.9663    3.6356   -1.5211 H   0  0  0  0  0  0  0  0  0  0  0  0
    0.7985    3.6306   -1.4776 H   0  0  0  0  0  0  0  0  0  0  0  0
   -0.0937    2.1051   -1.5183 H   0  0  0  0  0  0  0  0  0  0  0  0
    0.7737    2.6340    0.8009 H   0  0  0  0  0  0  0  0  0  0  0  0
   -0.1558    4.1176    0.7988 H   0  0  0  0  0  0  0  0  0  0  0  0
   -1.3711    2.4487    2.0542 H   0  0  0  0  0  0  0  0  0  0  0  0
   -2.2656    2.7980    0.5738 H   0  0  0  0  0  0  0  0  0  0  0  0
    0.6031   -0.1322    1.4728 C   0  0  0  0  0  3  0  0  0  0  0  0
    0.6031   -1.5938    1.0892 C   0  0  0  0  0  0  0  0  0  0  0  0
    0.6031   -1.6980   -0.3123 O   0  0  0  0  0  0  0  0  0  0  0  0
    0.6031   -3.0272   -0.7689 C   0  0  0  0  0  0  0  0  0  0  0  0
    0.6031   -3.0272   -2.2801 C   0  0  0  0  0  0  0  0  0  0  0  0
   -0.4582    0.4670    0.9960 H   0  0  0  0  0  0  0  0  0  0  0  0
    0.6031   -0.0264    2.5588 H   0  0  0  0  0  0  0  0  0  0  0  0
    1.4874    0.3671    1.0755 H   0  0  0  0  0  0  0  0  0  0  0  0
    1.4880   -2.0998    1.5030 H   0  0  0  0  0  0  0  0  0  0  0  0
   -0.2819   -2.0998    1.5030 H   0  0  0  0  0  0  0  0  0  0  0  0
    1.4880   -3.5558   -0.3846 H   0  0  0  0  0  0  0  0  0  0  0  0
   -0.2819   -3.5558   -0.3846 H   0  0  0  0  0  0  0  0  0  0  0  0
    1.4874   -2.5161   -2.6621 H   0  0  0  0  0  0  0  0  0  0  0  0
    0.6031   -4.0507   -2.6581 H   0  0  0  0  0  0  0  0  0  0  0  0
   -0.2813   -2.5161   -2.6621 H   0  0  0  0  0  0  0  0  0  0  0  0
  1  2  1  0
  1  5  1  0
  1  6  1  0
  1  7  1  0
  2  3  1  0
  2  8  1  0
  2  9  1  0
  3  4  1  0
  3 10  1  0
  3 11  1  0
  4 17  1  0
 12 13  1  0
 12 18  1  0
 12 19  1  0
 13 14  1  0
 13 20  1  0
 13 21  1  0
 14 15  1  0
 15 16  1  0
 15 22  1  0
 15 23  1  0
 16 24  1  0
 16 25  1  0
 16 26  1  0
M  RAD  1  12   2
M  END
>  <reaction>  (9) 
rmg_rxn_646

>  <mol_properties>  (9) 
{"2": {"label": "*0", "atom_type": "Cs"}, "3": {"label": "*1", "atom_type": "O2s"}, "11": {"label": "*3", "atom_type": "Cs"}, "12": {"label": "*4", "atom_type": "Cs"}, "16": {"label": "*2", "atom_type": "H0"}}

>  <type>  (9) 
unop_5

>  <geom_source>  (9) 
Heuristics

$$$$

     RDKit          3D

 26 24  0  0  0  0  0  0  0  0999 V2000
   -2.7181    1.2405   -1.2974 C   0  0  0  0  0  0  0  0  0  0  0  0
   -1.1973    1.2997   -1.3378 C   0  0  0  0  0  0  0  0  0  0  0  0
   -0.5982    2.1283   -0.2109 C   0  0  0  0  0  0  0  0  0  0  0  0
   -0.9081    1.6289    1.0762 O   0  0  0  0  0  0  0  0  0  0  0  0
   -3.1478    2.2387   -1.4086 H   0  0  0  0  0  0  0  0  0  0  0  0
   -3.1110    0.6147   -2.0999 H   0  0  0  0  0  0  0  0  0  0  0  0
   -3.0656    0.8353   -0.3466 H   0  0  0  0  0  0  0  0  0  0  0  0
   -0.7818    0.2864   -1.2921 H   0  0  0  0  0  0  0  0  0  0  0  0
   -0.8606    1.7236   -2.2887 H   0  0  0  0  0  0  0  0  0  0  0  0
    0.4881    2.2079   -0.3433 H   0  0  0  0  0  0  0  0  0  0  0  0
   -1.0055    3.1415   -0.2364 H   0  0  0  0  0  0  0  0  0  0  0  0
    1.0860    0.5031    1.9720 C   0  0  0  0  0  3  0  0  0  0  0  0
    1.0860   -0.9586    1.5884 C   0  0  0  0  0  0  0  0  0  0  0  0
    1.0860   -1.0628    0.1869 O   0  0  0  0  0  0  0  0  0  0  0  0
    1.0860   -2.3920   -0.2696 C   0  0  0  0  0  0  0  0  0  0  0  0
    1.0860   -2.3920   -1.7808 C   0  0  0  0  0  0  0  0  0  0  0  0
    0.0247    1.1022    1.4953 H   0  0  0  0  0  0  0  0  0  0  0  0
    1.0860    0.6088    3.0580 H   0  0  0  0  0  0  0  0  0  0  0  0
    1.9704    1.0023    1.5747 H   0  0  0  0  0  0  0  0  0  0  0  0
    1.9709   -1.4646    2.0022 H   0  0  0  0  0  0  0  0  0  0  0  0
    0.2011   -1.4646    2.0022 H   0  0  0  0  0  0  0  0  0  0  0  0
    1.9709   -2.9206    0.1147 H   0  0  0  0  0  0  0  0  0  0  0  0
    0.2011   -2.9206    0.1147 H   0  0  0  0  0  0  0  0  0  0  0  0
    1.9704   -1.8809   -2.1629 H   0  0  0  0  0  0  0  0  0  0  0  0
    1.0860   -3.4155   -2.1588 H   0  0  0  0  0  0  0  0  0  0  0  0
    0.2016   -1.8809   -2.1629 H   0  0  0  0  0  0  0  0  0  0  0  0
  1  2  1  0
  1  5  1  0
  1  6  1  0
  1  7  1  0
  2  3  1  0
  2  8  1  0
  2  9  1  0
  3  4  1  0
  3 10  1  0
  3 11  1  0
  4 17  1  0
 12 13  1  0
 12 18  1  0
 12 19  1  0
 13 14  1  0
 13 20  1  0
 13 21  1  0
 14 15  1  0
 15 16  1  0
 15 22  1  0
 15 23  1  0
 16 24  1  0
 16 25  1  0
 16 26  1  0
M  RAD  1  12   2
M  END
>  <reaction>  (10) 
rmg_rxn_646

>  <mol_properties>  (10) 
{"2": {"label": "*0", "atom_type": "Cs"}, "3": {"label": "*1", "atom_type": "O2s"}, "11": {"label": "*3", "atom_type": "Cs"}, "12": {"label": "*4", "atom_type": "Cs"}, "16": {"label": "*2", "atom_type": "H0"}}

>  <type>  (10) 
unop_6

>  <geom_source>  (10) 
Heuristics

$$$$

     RDKit          3D

 26 24  0  0  0  0  0  0  0  0999 V2000
   -2.2444    1.8049   -1.6660 C   0  0  0  0  0  0  0  0  0  0  0  0
   -0.7968    2.0705   -1.2766 C   0  0  0  0  0  0  0  0  0  0  0  0
   -0.6229    2.4052    0.1975 C   0  0  0  0  0  0  0  0  0  0  0  0
   -1.0464    1.3669    1.0605 O   0  0  0  0  0  0  0  0  0  0  0  0
   -2.8609    2.6901   -1.4928 H   0  0  0  0  0  0  0  0  0  0  0  0
   -2.3280    1.5389   -2.7207 H   0  0  0  0  0  0  0  0  0  0  0  0
   -2.6625    0.9903   -1.0738 H   0  0  0  0  0  0  0  0  0  0  0  0
   -0.1783    1.1980   -1.5173 H   0  0  0  0  0  0  0  0  0  0  0  0
   -0.3934    2.9005   -1.8645 H   0  0  0  0  0  0  0  0  0  0  0  0
    0.4221    2.6726    0.3985 H   0  0  0  0  0  0  0  0  0  0  0  0
   -1.2373    3.2699    0.4581 H   0  0  0  0  0  0  0  0  0  0  0  0
    0.9477    0.2411    1.9563 C   0  0  0  0  0  3  0  0  0  0  0  0
    0.9477   -1.2205    1.5727 C   0  0  0  0  0  0  0  0  0  0  0  0
    0.9477   -1.3247    0.1712 O   0  0  0  0  0  0  0  0  0  0  0  0
    0.9477   -2.6539   -0.2854 C   0  0  0  0  0  0  0  0  0  0  0  0
    0.9477   -2.6539   -1.7965 C   0  0  0  0  0  0  0  0  0  0  0  0
   -0.1136    0.8403    1.4795 H   0  0  0  0  0  0  0  0  0  0  0  0
    0.9477    0.3469    3.0423 H   0  0  0  0  0  0  0  0  0  0  0  0
    1.8320    0.7404    1.5590 H   0  0  0  0  0  0  0  0  0  0  0  0
    1.8326   -1.7265    1.9865 H   0  0  0  0  0  0  0  0  0  0  0  0
    0.0627   -1.7265    1.9865 H   0  0  0  0  0  0  0  0  0  0  0  0
    1.8326   -3.1825    0.0990 H   0  0  0  0  0  0  0  0  0  0  0  0
    0.0627   -3.1825    0.0990 H   0  0  0  0  0  0  0  0  0  0  0  0
    1.8320   -2.1428   -2.1786 H   0  0  0  0  0  0  0  0  0  0  0  0
    0.9477   -3.6774   -2.1745 H   0  0  0  0  0  0  0  0  0  0  0  0
    0.0633   -2.1428   -2.1786 H   0  0  0  0  0  0  0  0  0  0  0  0
  1  2  1  0
  1  5  1  0
  1  6  1  0
  1  7  1  0
  2  3  1  0
  2  8  1  0
  2  9  1  0
  3  4  1  0
  3 10  1  0
  3 11  1  0
  4 17  1  0
 12 13  1  0
 12 18  1  0
 12 19  1  0
 13 14  1  0
 13 20  1  0
 13 21  1  0
 14 15  1  0
 15 16  1  0
 15 22  1  0
 15 23  1  0
 16 24  1  0
 16 25  1  0
 16 26  1  0
M  RAD  1  12   2
M  END
>  <reaction>  (11) 
rmg_rxn_646

>  <mol_properties>  (11) 
{"2": {"label": "*0", "atom_type": "Cs"}, "3": {"label": "*1", "atom_type": "O2s"}, "11": {"label": "*3", "atom_type": "Cs"}, "12": {"label": "*4", "atom_type": "Cs"}, "16": {"label": "*2", "atom_type": "H0"}}

>  <type>  (11) 
unop_7

>  <geom_source>  (11) 
Heuristics

$$$$

     RDKit          3D

 26 24  0  0  0  0  0  0  0  0999 V2000
   -0.5652    2.2501    2.6323 C   0  0  0  0  0  0  0  0  0  0  0  0
   -1.5106    1.1867    2.0907 C   0  0  0  0  0  0  0  0  0  0  0  0
   -2.0184    1.4919    0.6892 C   0  0  0  0  0  0  0  0  0  0  0  0
   -0.9847    1.5827   -0.2727 O   0  0  0  0  0  0  0  0  0  0  0  0
   -1.0708    3.2155    2.7087 H   0  0  0  0  0  0  0  0  0  0  0  0
   -0.1977    1.9844    3.6245 H   0  0  0  0  0  0  0  0  0  0  0  0
    0.2935    2.3784    1.9727 H   0  0  0  0  0  0  0  0  0  0  0  0
   -1.0110    0.2110    2.0820 H   0  0  0  0  0  0  0  0  0  0  0  0
   -2.3764    1.0790    2.7511 H   0  0  0  0  0  0  0  0  0  0  0  0
   -2.7603    0.7410    0.3895 H   0  0  0  0  0  0  0  0  0  0  0  0
   -2.5148    2.4648    0.6766 H   0  0  0  0  0  0  0  0  0  0  0  0
    1.0094    0.4569    0.6231 C   0  0  0  0  0  3  0  0  0  0  0  0
    1.0094   -1.0047    0.2395 C   0  0  0  0  0  0  0  0  0  0  0  0
    1.0094   -1.1090   -1.1620 O   0  0  0  0  0  0  0  0  0  0  0  0
    1.0094   -2.4381   -1.6186 C   0  0  0  0  0  0  0  0  0  0  0  0
    1.0094   -2.4381   -3.1297 C   0  0  0  0  0  0  0  0  0  0  0  0
   -0.0518    1.0561    0.1464 H   0  0  0  0  0  0  0  0  0  0  0  0
    1.0094    0.5627    1.7091 H   0  0  0  0  0  0  0  0  0  0  0  0
    1.8938    0.9562    0.2258 H   0  0  0  0  0  0  0  0  0  0  0  0
    1.8943   -1.5107    0.6533 H   0  0  0  0  0  0  0  0  0  0  0  0
    0.1245   -1.5107    0.6533 H   0  0  0  0  0  0  0  0  0  0  0  0
    1.8943   -2.9668   -1.2342 H   0  0  0  0  0  0  0  0  0  0  0  0
    0.1245   -2.9668   -1.2342 H   0  0  0  0  0  0  0  0  0  0  0  0
    1.8938   -1.9271   -3.5118 H   0  0  0  0  0  0  0  0  0  0  0  0
    1.0094   -3.4617   -3.5077 H   0  0  0  0  0  0  0  0  0  0  0  0
    0.1250   -1.9271   -3.5118 H   0  0  0  0  0  0  0  0  0  0  0  0
  1  2  1  0
  1  5  1  0
  1  6  1  0
  1  7  1  0
  2  3  1  0
  2  8  1  0
  2  9  1  0
  3  4  1  0
  3 10  1  0
  3 11  1  0
  4 17  1  0
 12 13  1  0
 12 18  1  0
 12 19  1  0
 13 14  1  0
 13 20  1  0
 13 21  1  0
 14 15  1  0
 15 16  1  0
 15 22  1  0
 15 23  1  0
 16 24  1  0
 16 25  1  0
 16 26  1  0
M  RAD  1  12   2
M  END
>  <reaction>  (12) 
rmg_rxn_646

>  <mol_properties>  (12) 
{"2": {"label": "*0", "atom_type": "Cs"}, "3": {"label": "*1", "atom_type": "O2s"}, "11": {"label": "*3", "atom_type": "Cs"}, "12": {"label": "*4", "atom_type": "Cs"}, "16": {"label": "*2", "atom_type": "H0"}}

>  <type>  (12) 
unop_8

>  <geom_source>  (12) 
Heuristics

$$$$

     RDKit          3D

 26 24  0  0  0  0  0  0  0  0999 V2000
   -3.1641    0.4164    0.4401 C   0  0  0  0  0  0  0  0  0  0  0  0
   -1.8556    0.1555   -0.2932 C   0  0  0  0  0  0  0  0  0  0  0  0
   -1.0357    1.4159   -0.5258 C   0  0  0  0  0  0  0  0  0  0  0  0
   -0.6569    2.0658    0.6727 O   0  0  0  0  0  0  0  0  0  0  0  0
   -3.8081    1.0807   -0.1408 H   0  0  0  0  0  0  0  0  0  0  0  0
   -3.7106   -0.5112    0.6163 H   0  0  0  0  0  0  0  0  0  0  0  0
   -2.9808    0.8934    1.4034 H   0  0  0  0  0  0  0  0  0  0  0  0
   -1.2485   -0.5637    0.2687 H   0  0  0  0  0  0  0  0  0  0  0  0
   -2.0527   -0.3071   -1.2651 H   0  0  0  0  0  0  0  0  0  0  0  0
   -0.1528    1.1798   -1.1331 H   0  0  0  0  0  0  0  0  0  0  0  0
   -1.6271    2.1480   -1.0801 H   0  0  0  0  0  0  0  0  0  0  0  0
    1.3372    0.9400    1.5685 C   0  0  0  0  0  3  0  0  0  0  0  0
    1.3372   -0.5217    1.1849 C   0  0  0  0  0  0  0  0  0  0  0  0
    1.3372   -0.6259   -0.2166 O   0  0  0  0  0  0  0  0  0  0  0  0
    1.3372   -1.9550   -0.6731 C   0  0  0  0  0  0  0  0  0  0  0  0
    1.3372   -1.9550   -2.1843 C   0  0  0  0  0  0  0  0  0  0  0  0
    0.2760    1.5391    1.0918 H   0  0  0  0  0  0  0  0  0  0  0  0
    1.3372    1.0458    2.6545 H   0  0  0  0  0  0  0  0  0  0  0  0
    2.2216    1.4393    1.1712 H   0  0  0  0  0  0  0  0  0  0  0  0
    2.2221   -1.0276    1.5987 H   0  0  0  0  0  0  0  0  0  0  0  0
    0.4523   -1.0276    1.5987 H   0  0  0  0  0  0  0  0  0  0  0  0
    2.2221   -2.4837   -0.2888 H   0  0  0  0  0  0  0  0  0  0  0  0
    0.4523   -2.4837   -0.2888 H   0  0  0  0  0  0  0  0  0  0  0  0
    2.2216   -1.4440   -2.5664 H   0  0  0  0  0  0  0  0  0  0  0  0
    1.3372   -2.9786   -2.5623 H   0  0  0  0  0  0  0  0  0  0  0  0
    0.4528   -1.4440   -2.5664 H   0  0  0  0  0  0  0  0  0  0  0  0
  1  2  1  0
  1  5  1  0
  1  6  1  0
  1  7  1  0
  2  3  1  0
  2  8  1  0
  2  9  1  0
  3  4  1  0
  3 10  1  0
  3 11  1  0
  4 17  1  0
 12 13  1  0
 12 18  1  0
 12 19  1  0
 13 14  1  0
 13 20  1  0
 13 21  1  0
 14 15  1  0
 15 16  1  0
 15 22  1  0
 15 23  1  0
 16 24  1  0
 16 25  1  0
 16 26  1  0
M  RAD  1  12   2
M  END
>  <reaction>  (13) 
rmg_rxn_646

>  <mol_properties>  (13) 
{"2": {"label": "*0", "atom_type": "Cs"}, "3": {"label": "*1", "atom_type": "O2s"}, "11": {"label": "*3", "atom_type": "Cs"}, "12": {"label": "*4", "atom_type": "Cs"}, "16": {"label": "*2", "atom_type": "H0"}}

>  <type>  (13) 
unop_9

>  <geom_source>  (13) 
Heuristics

$$$$

     RDKit          3D

 26 24  0  0  0  0  0  0  0  0999 V2000
   -1.2935    1.5572    2.7788 C   0  0  0  0  0  0  0  0  0  0  0  0
   -1.7323    0.5659    1.7099 C   0  0  0  0  0  0  0  0  0  0  0  0
   -1.9809    1.2135    0.3557 C   0  0  0  0  0  0  0  0  0  0  0  0
   -0.8335    1.8431   -0.1821 O   0  0  0  0  0  0  0  0  0  0  0  0
   -2.0676    2.3083    2.9520 H   0  0  0  0  0  0  0  0  0  0  0  0
   -1.0952    1.0550    3.7267 H   0  0  0  0  0  0  0  0  0  0  0  0
   -0.3873    2.0813    2.4736 H   0  0  0  0  0  0  0  0  0  0  0  0
   -0.9759   -0.2189    1.5940 H   0  0  0  0  0  0  0  0  0  0  0  0
   -2.6514    0.0589    2.0191 H   0  0  0  0  0  0  0  0  0  0  0  0
   -2.3782    0.4696   -0.3463 H   0  0  0  0  0  0  0  0  0  0  0  0
   -2.7288    2.0037    0.4523 H   0  0  0  0  0  0  0  0  0  0  0  0
    1.1606    0.7173    0.7137 C   0  0  0  0  0  3  0  0  0  0  0  0
    1.1606   -0.7443    0.3301 C   0  0  0  0  0  0  0  0  0  0  0  0
    1.1606   -0.8485   -1.0714 O   0  0  0  0  0  0  0  0  0  0  0  0
    1.1606   -2.1777   -1.5280 C   0  0  0  0  0  0  0  0  0  0  0  0
    1.1606   -2.1777   -3.0391 C   0  0  0  0  0  0  0  0  0  0  0  0
    0.0994    1.3165    0.2369 H   0  0  0  0  0  0  0  0  0  0  0  0
    1.1606    0.8231    1.7997 H   0  0  0  0  0  0  0  0  0  0  0  0
    2.0450    1.2166    0.3164 H   0  0  0  0  0  0  0  0  0  0  0  0
    2.0455   -1.2503    0.7439 H   0  0  0  0  0  0  0  0  0  0  0  0
    0.2757   -1.2503    0.7439 H   0  0  0  0  0  0  0  0  0  0  0  0
    2.0455   -2.7063   -1.1436 H   0  0  0  0  0  0  0  0  0  0  0  0
    0.2757   -2.7063   -1.1436 H   0  0  0  0  0  0  0  0  0  0  0  0
    2.0450   -1.6666   -3.4212 H   0  0  0  0  0  0  0  0  0  0  0  0
    1.1606   -3.2012   -3.4171 H   0  0  0  0  0  0  0  0  0  0  0  0
    0.2762   -1.6666   -3.4212 H   0  0  0  0  0  0  0  0  0  0  0  0
  1  2  1  0
  1  5  1  0
  1  6  1  0
  1  7  1  0
  2  3  1  0
  2  8  1  0
  2  9  1  0
  3  4  1  0
  3 10  1  0
  3 11  1  0
  4 17  1  0
 12 13  1  0
 12 18  1  0
 12 19  1  0
 13 14  1  0
 13 20  1  0
 13 21  1  0
 14 15  1  0
 15 16  1  0
 15 22  1  0
 15 23  1  0
 16 24  1  0
 16 25  1  0
 16 26  1  0
M  RAD  1  12   2
M  END
>  <reaction>  (14) 
rmg_rxn_646

>  <mol_properties>  (14) 
{"2": {"label": "*0", "atom_type": "Cs"}, "3": {"label": "*1", "atom_type": "O2s"}, "11": {"label": "*3", "atom_type": "Cs"}, "12": {"label": "*4", "atom_type": "Cs"}, "16": {"label": "*2", "atom_type": "H0"}}

>  <type>  (14) 
unop_10

>  <geom_source>  (14) 
Heuristics

$$$$

     RDKit          3D

 26 24  0  0  0  0  0  0  0  0999 V2000
   -1.4668    2.4039   -1.7980 C   0  0  0  0  0  0  0  0  0  0  0  0
   -0.4110    2.7506   -0.7574 C   0  0  0  0  0  0  0  0  0  0  0  0
   -0.8698    2.4978    0.6712 C   0  0  0  0  0  0  0  0  0  0  0  0
   -1.1966    1.1442    0.9224 O   0  0  0  0  0  0  0  0  0  0  0  0
   -2.3592    3.0197   -1.6647 H   0  0  0  0  0  0  0  0  0  0  0  0
   -1.0938    2.5683   -2.8100 H   0  0  0  0  0  0  0  0  0  0  0  0
   -1.7697    1.3601   -1.7108 H   0  0  0  0  0  0  0  0  0  0  0  0
    0.5021    2.1734   -0.9437 H   0  0  0  0  0  0  0  0  0  0  0  0
   -0.1274    3.8040   -0.8430 H   0  0  0  0  0  0  0  0  0  0  0  0
   -0.1052    2.8480    1.3760 H   0  0  0  0  0  0  0  0  0  0  0  0
   -1.7835    3.0609    0.8741 H   0  0  0  0  0  0  0  0  0  0  0  0
    0.7975    0.0184    1.8182 C   0  0  0  0  0  3  0  0  0  0  0  0
    0.7975   -1.4433    1.4346 C   0  0  0  0  0  0  0  0  0  0  0  0
    0.7975   -1.5475    0.0331 O   0  0  0  0  0  0  0  0  0  0  0  0
    0.7975   -2.8766   -0.4235 C   0  0  0  0  0  0  0  0  0  0  0  0
    0.7975   -2.8766   -1.9346 C   0  0  0  0  0  0  0  0  0  0  0  0
   -0.2637    0.6175    1.3415 H   0  0  0  0  0  0  0  0  0  0  0  0
    0.7975    0.1242    2.9042 H   0  0  0  0  0  0  0  0  0  0  0  0
    1.6819    0.5177    1.4209 H   0  0  0  0  0  0  0  0  0  0  0  0
    1.6825   -1.9492    1.8484 H   0  0  0  0  0  0  0  0  0  0  0  0
   -0.0874   -1.9492    1.8484 H   0  0  0  0  0  0  0  0  0  0  0  0
    1.6825   -3.4053   -0.0391 H   0  0  0  0  0  0  0  0  0  0  0  0
   -0.0874   -3.4053   -0.0391 H   0  0  0  0  0  0  0  0  0  0  0  0
    1.6819   -2.3656   -2.3167 H   0  0  0  0  0  0  0  0  0  0  0  0
    0.7975   -3.9002   -2.3126 H   0  0  0  0  0  0  0  0  0  0  0  0
   -0.0868   -2.3656   -2.3167 H   0  0  0  0  0  0  0  0  0  0  0  0
  1  2  1  0
  1  5  1  0
  1  6  1  0
  1  7  1  0
  2  3  1  0
  2  8  1  0
  2  9  1  0
  3  4  1  0
  3 10  1  0
  3 11  1  0
  4 17  1  0
 12 13  1  0
 12 18  1  0
 12 19  1  0
 13 14  1  0
 13 20  1  0
 13 21  1  0
 14 15  1  0
 15 16  1  0
 15 22  1  0
 15 23  1  0
 16 24  1  0
 16 25  1  0
 16 26  1  0
M  RAD  1  12   2
M  END
>  <reaction>  (15) 
rmg_rxn_646

>  <mol_properties>  (15) 
{"2": {"label": "*0", "atom_type": "Cs"}, "3": {"label": "*1", "atom_type": "O2s"}, "11": {"label": "*3", "atom_type": "Cs"}, "12": {"label": "*4", "atom_type": "Cs"}, "16": {"label": "*2", "atom_type": "H0"}}

>  <type>  (15) 
unop_11

>  <geom_source>  (15) 
Heuristics

$$$$

     RDKit          3D

 26 24  0  0  0  0  0  0  0  0999 V2000
   -2.8129    0.4844    1.6270 C   0  0  0  0  0  0  0  0  0  0  0  0
   -1.9115    0.0227    0.4903 C   0  0  0  0  0  0  0  0  0  0  0  0
   -1.4135    1.1647   -0.3832 C   0  0  0  0  0  0  0  0  0  0  0  0
   -0.6442    2.1171    0.3263 O   0  0  0  0  0  0  0  0  0  0  0  0
   -3.7119    0.9672    1.2370 H   0  0  0  0  0  0  0  0  0  0  0  0
   -3.1259   -0.3550    2.2495 H   0  0  0  0  0  0  0  0  0  0  0  0
   -2.2986    1.2072    2.2612 H   0  0  0  0  0  0  0  0  0  0  0  0
   -1.0473   -0.5178    0.8937 H   0  0  0  0  0  0  0  0  0  0  0  0
   -2.4434   -0.6884   -0.1489 H   0  0  0  0  0  0  0  0  0  0  0  0
   -0.8454    0.7644   -1.2325 H   0  0  0  0  0  0  0  0  0  0  0  0
   -2.2617    1.7197   -0.7901 H   0  0  0  0  0  0  0  0  0  0  0  0
    1.3499    0.9913    1.2221 C   0  0  0  0  0  3  0  0  0  0  0  0
    1.3499   -0.4704    0.8385 C   0  0  0  0  0  0  0  0  0  0  0  0
    1.3499   -0.5746   -0.5630 O   0  0  0  0  0  0  0  0  0  0  0  0
    1.3499   -1.9037   -1.0196 C   0  0  0  0  0  0  0  0  0  0  0  0
    1.3499   -1.9037   -2.5307 C   0  0  0  0  0  0  0  0  0  0  0  0
    0.2887    1.5904    0.7453 H   0  0  0  0  0  0  0  0  0  0  0  0
    1.3499    1.0971    2.3081 H   0  0  0  0  0  0  0  0  0  0  0  0
    2.2343    1.4906    0.8248 H   0  0  0  0  0  0  0  0  0  0  0  0
    2.2348   -0.9763    1.2523 H   0  0  0  0  0  0  0  0  0  0  0  0
    0.4650   -0.9763    1.2523 H   0  0  0  0  0  0  0  0  0  0  0  0
    2.2348   -2.4324   -0.6352 H   0  0  0  0  0  0  0  0  0  0  0  0
    0.4650   -2.4324   -0.6352 H   0  0  0  0  0  0  0  0  0  0  0  0
    2.2343   -1.3927   -2.9128 H   0  0  0  0  0  0  0  0  0  0  0  0
    1.3499   -2.9273   -2.9087 H   0  0  0  0  0  0  0  0  0  0  0  0
    0.4655   -1.3927   -2.9128 H   0  0  0  0  0  0  0  0  0  0  0  0
  1  2  1  0
  1  5  1  0
  1  6  1  0
  1  7  1  0
  2  3  1  0
  2  8  1  0
  2  9  1  0
  3  4  1  0
  3 10  1  0
  3 11  1  0
  4 17  1  0
 12 13  1  0
 12 18  1  0
 12 19  1  0
 13 14  1  0
 13 20  1  0
 13 21  1  0
 14 15  1  0
 15 16  1  0
 15 22  1  0
 15 23  1  0
 16 24  1  0
 16 25  1  0
 16 26  1  0
M  RAD  1  12   2
M  END
>  <reaction>  (16) 
rmg_rxn_646

>  <mol_properties>  (16) 
{"2": {"label": "*0", "atom_type": "Cs"}, "3": {"label": "*1", "atom_type": "O2s"}, "11": {"label": "*3", "atom_type": "Cs"}, "12": {"label": "*4", "atom_type": "Cs"}, "16": {"label": "*2", "atom_type": "H0"}}

>  <type>  (16) 
unop_12

>  <geom_source>  (16) 
Heuristics

$$$$

     RDKit          3D

 26 24  0  0  0  0  0  0  0  0999 V2000
    2.7202   -0.1586   -0.8202 O   0  0  0  0  0  0  0  0  0  0  0  0
   -1.4700   -1.2285   -0.6164 O   0  0  0  0  0  0  0  0  0  0  0  0
   -3.4104    0.1750   -0.4516 C   0  0  0  0  0  0  0  0  0  0  0  0
   -2.3196   -0.5934    0.2957 C   0  0  0  0  0  0  0  0  0  0  0  0
    3.7582   -0.6430    0.0111 C   0  0  0  0  0  0  0  0  0  0  0  0
   -4.3691    0.8585    0.5188 C   0  0  0  0  0  0  0  0  0  0  0  0
    1.4593   -0.4203   -0.2403 C   0  0  0  0  0  0  0  0  0  0  0  0
    4.3118    0.4839    0.8760 C   0  0  0  0  0  0  0  0  0  0  0  0
    0.3758    0.2281   -1.0841 C   0  0  0  0  0  3  0  0  0  0  0  0
   -2.9431    0.9454   -1.1025 H   0  0  0  0  0  0  0  0  0  0  0  0
   -3.9833   -0.5278   -1.0947 H   0  0  0  0  0  0  0  0  0  0  0  0
   -2.7838   -1.3664    0.9447 H   0  0  0  0  0  0  0  0  0  0  0  0
   -1.7316    0.0976    0.9396 H   0  0  0  0  0  0  0  0  0  0  0  0
    4.5771   -1.0106   -0.6427 H   0  0  0  0  0  0  0  0  0  0  0  0
    3.4570   -1.5042    0.6541 H   0  0  0  0  0  0  0  0  0  0  0  0
   -4.8679    0.1043    1.1642 H   0  0  0  0  0  0  0  0  0  0  0  0
   -5.1472    1.4074   -0.0523 H   0  0  0  0  0  0  0  0  0  0  0  0
   -3.8200    1.5828    1.1576 H   0  0  0  0  0  0  0  0  0  0  0  0
    5.1749    0.1120    1.4674 H   0  0  0  0  0  0  0  0  0  0  0  0
    4.6515    1.3241    0.2339 H   0  0  0  0  0  0  0  0  0  0  0  0
    3.5329    0.8525    1.5756 H   0  0  0  0  0  0  0  0  0  0  0  0
    1.2651   -1.5156   -0.2094 H   0  0  0  0  0  0  0  0  0  0  0  0
    1.3917   -0.0013    0.7888 H   0  0  0  0  0  0  0  0  0  0  0  0
    0.3898   -0.1854   -2.1148 H   0  0  0  0  0  0  0  0  0  0  0  0
    0.5230    1.3284   -1.1212 H   0  0  0  0  0  0  0  0  0  0  0  0
   -0.7423   -0.3445   -1.0772 H   0  0  0  0  0  0  0  0  0  0  0  0
  1  7  1  0
  1  5  1  0
  2  4  1  0
  2 26  1  0
  3  6  1  0
  3  4  1  0
  3 10  1  0
  3 11  1  0
  4 12  1  0
  4 13  1  0
  5  8  1  0
  5 14  1  0
  5 15  1  0
  6 16  1  0
  6 17  1  0
  6 18  1  0
  7  9  1  0
  7 22  1  0
  7 23  1  0
  8 19  1  0
  8 20  1  0
  8 21  1  0
  9 24  1  0
  9 25  1  0
M  RAD  1   9   2
M  END
>  <reaction>  (17) 
rmg_rxn_646

>  <mol_properties>  (17) 
{"2": {"label": "*0", "atom_type": "Cs"}, "3": {"label": "*1", "atom_type": "O2s"}, "11": {"label": "*3", "atom_type": "Cs"}, "12": {"label": "*4", "atom_type": "Cs"}, "16": {"label": "*2", "atom_type": "H0"}}

>  <type>  (17) 
unop_13

>  <geom_source>  (17) 
AutoTST

$$$$

     RDKit          3D

 26 24  0  0  0  0  0  0  0  0999 V2000
   -2.0830    0.9238    2.4670 C   0  0  0  0  0  0  0  0  0  0  0  0
   -1.8427    0.1737    1.1641 C   0  0  0  0  0  0  0  0  0  0  0  0
   -1.7691    1.0874   -0.0503 C   0  0  0  0  0  0  0  0  0  0  0  0
   -0.7185    2.0323    0.0236 O   0  0  0  0  0  0  0  0  0  0  0  0
   -3.0394    1.4511    2.4398 H   0  0  0  0  0  0  0  0  0  0  0  0
   -2.0997    0.2423    3.3186 H   0  0  0  0  0  0  0  0  0  0  0  0
   -1.3018    1.6652    2.6378 H   0  0  0  0  0  0  0  0  0  0  0  0
   -0.9131   -0.4034    1.2304 H   0  0  0  0  0  0  0  0  0  0  0  0
   -2.6414   -0.5549    0.9947 H   0  0  0  0  0  0  0  0  0  0  0  0
   -1.6847    0.4865   -0.9646 H   0  0  0  0  0  0  0  0  0  0  0  0
   -2.6858    1.6760   -0.1297 H   0  0  0  0  0  0  0  0  0  0  0  0
    1.2756    0.9065    0.9195 C   0  0  0  0  0  3  0  0  0  0  0  0
    1.2756   -0.5551    0.5359 C   0  0  0  0  0  0  0  0  0  0  0  0
    1.2756   -0.6593   -0.8656 O   0  0  0  0  0  0  0  0  0  0  0  0
    1.2756   -1.9885   -1.3222 C   0  0  0  0  0  0  0  0  0  0  0  0
    1.2756   -1.9885   -2.8334 C   0  0  0  0  0  0  0  0  0  0  0  0
    0.2143    1.5057    0.4427 H   0  0  0  0  0  0  0  0  0  0  0  0
    1.2756    1.0123    2.0055 H   0  0  0  0  0  0  0  0  0  0  0  0
    2.1600    1.4058    0.5222 H   0  0  0  0  0  0  0  0  0  0  0  0
    2.1605   -1.0611    0.9496 H   0  0  0  0  0  0  0  0  0  0  0  0
    0.3907   -1.0611    0.9496 H   0  0  0  0  0  0  0  0  0  0  0  0
    2.1605   -2.5171   -0.9379 H   0  0  0  0  0  0  0  0  0  0  0  0
    0.3907   -2.5171   -0.9379 H   0  0  0  0  0  0  0  0  0  0  0  0
    2.1600   -1.4774   -3.2155 H   0  0  0  0  0  0  0  0  0  0  0  0
    1.2756   -3.0120   -3.2114 H   0  0  0  0  0  0  0  0  0  0  0  0
    0.3912   -1.4774   -3.2155 H   0  0  0  0  0  0  0  0  0  0  0  0
  1  2  1  0
  1  5  1  0
  1  6  1  0
  1  7  1  0
  2  3  1  0
  2  8  1  0
  2  9  1  0
  3  4  1  0
  3 10  1  0
  3 11  1  0
  4 17  1  0
 12 13  1  0
 12 18  1  0
 12 19  1  0
 13 14  1  0
 13 20  1  0
 13 21  1  0
 14 15  1  0
 15 16  1  0
 15 22  1  0
 15 23  1  0
 16 24  1  0
 16 25  1  0
 16 26  1  0
M  RAD  1  12   2
M  END
>  <reaction>  (18) 
rmg_rxn_646

>  <mol_properties>  (18) 
{"2": {"label": "*0", "atom_type": "Cs"}, "3": {"label": "*1", "atom_type": "O2s"}, "11": {"label": "*3", "atom_type": "Cs"}, "12": {"label": "*4", "atom_type": "Cs"}, "16": {"label": "*2", "atom_type": "H0"}}

>  <type>  (18) 
unop_14

>  <geom_source>  (18) 
gaussian_log

$$$$
