
     RDKit          3D

 15 14  0  0  0  0  0  0  0  0999 V2000
   -1.2811   -0.4129    1.0228 C   0  0  0  0  0  0  0  0  0  0  0  0
   -1.0023   -0.5809   -0.4650 C   0  0  0  0  0  0  0  0  0  0  0  0
   -2.0576    0.0568   -1.3449 C   0  0  0  0  0  0  0  0  0  0  0  0
   -2.0663    1.4464   -1.1307 O   0  0  0  0  0  0  0  0  0  0  0  0
   -3.0424    2.1072   -1.8849 C   0  0  0  0  0  0  0  0  0  0  0  0
   -2.2382   -0.8657    1.2935 H   0  0  0  0  0  0  0  0  0  0  0  0
   -1.3219    0.6426    1.2914 H   0  0  0  0  0  0  0  0  0  0  0  0
   -0.5042   -0.8881    1.6236 H   0  0  0  0  0  0  0  0  0  0  0  0
   -0.0316   -0.1460   -0.7167 H   0  0  0  0  0  0  0  0  0  0  0  0
   -0.9494   -1.6429   -0.7203 H   0  0  0  0  0  0  0  0  0  0  0  0
   -1.8518   -0.1570   -2.4041 H   0  0  0  0  0  0  0  0  0  0  0  0
   -3.0491   -0.3636   -1.1124 H   0  0  0  0  0  0  0  0  0  0  0  0
   -4.0521    1.7545   -1.6343 H   0  0  0  0  0  0  0  0  0  0  0  0
   -2.8850    1.9634   -2.9626 H   0  0  0  0  0  0  0  0  0  0  0  0
   -2.9730    3.1700   -1.6570 H   0  0  0  0  0  0  0  0  0  0  0  0
  1  2  1  0
  1  6  1  0
  1  7  1  0
  1  8  1  0
  2  3  1  0
  2  9  1  0
  2 10  1  0
  3  4  1  0
  3 11  1  0
  3 12  1  0
  4  5  1  0
  5 13  1  0
  5 14  1  0
  5 15  1  0
M  END
>  <reaction>  (1) 
rmg_rxn_15601

>  <mol_properties>  (1) 
{"4": {"label": "donator", "atom_type": "Cs"}, "12": {"label": "d_hydrogen", "atom_type": "H0"}}

>  <type>  (1) 
r1h

$$$$

     RDKit          3D

  8  7  0  0  0  0  0  0  0  0999 V2000
    1.7077   -0.1964   -0.0607 C   0  0  0  0  0  3  0  0  0  0  0  0
    0.4209   -0.4565    0.2808 O   0  0  0  0  0  0  0  0  0  0  0  0
   -0.4607    0.4385   -0.2968 N   0  0  0  0  0  0  0  0  0  0  0  0
   -1.6584    0.1416   -0.0244 C   0  0  0  0  0  0  0  0  0  0  0  0
    2.4163   -0.7685    0.5170 H   0  0  0  0  0  0  0  0  0  0  0  0
    1.9214    0.7645   -0.5045 H   0  0  0  0  0  0  0  0  0  0  0  0
   -2.4185    0.7953   -0.4307 H   0  0  0  0  0  0  0  0  0  0  0  0
   -1.9286   -0.7185    0.5831 H   0  0  0  0  0  0  0  0  0  0  0  0
  1  2  1  0
  1  5  1  0
  1  6  1  0
  2  3  1  0
  3  4  2  3
  4  7  1  0
  4  8  1  0
M  RAD  1   1   2
M  END
>  <reaction>  (2) 
rmg_rxn_15601

>  <mol_properties>  (2) 
{"0": {"label": "acceptor", "atom_type": "Cs"}}

>  <type>  (2) 
r2

$$$$

     RDKit          3D

  9  8  0  0  0  0  0  0  0  0999 V2000
   -1.5470   -0.0755   -0.1976 C   0  0  0  0  0  0  0  0  0  0  0  0
   -0.2885    0.4507    0.1749 O   0  0  0  0  0  0  0  0  0  0  0  0
   -0.1502    1.7216   -0.3294 N   0  0  0  0  0  0  0  0  0  0  0  0
    0.9626    2.2353   -0.0219 C   0  0  0  0  0  0  0  0  0  0  0  0
   -1.6392   -0.1356   -1.2844 H   0  0  0  0  0  0  0  0  0  0  0  0
   -2.3597    0.5337    0.2044 H   0  0  0  0  0  0  0  0  0  0  0  0
   -1.5879   -1.0750    0.2318 H   0  0  0  0  0  0  0  0  0  0  0  0
    1.1497    3.2381   -0.3820 H   0  0  0  0  0  0  0  0  0  0  0  0
    1.7060    1.7101    0.5739 H   0  0  0  0  0  0  0  0  0  0  0  0
  1  2  1  0
  1  5  1  0
  1  6  1  0
  1  7  1  0
  2  3  1  0
  3  4  2  3
  4  8  1  0
  4  9  1  0
M  END
>  <reaction>  (3) 
rmg_rxn_15601

>  <mol_properties>  (3) 
{"0": {"label": "acceptor", "atom_type": "Cs"}, "8": {"label": "a_hydrogen", "atom_type": "H0"}}

>  <type>  (3) 
r2h

$$$$

     RDKit          3D

 23 21  0  0  0  0  0  0  0  0999 V2000
    0.8435    1.8302    0.9775 C   0  0  0  0  0  3  0  0  0  0  0  0
    1.1101    1.3020   -0.2805 O   0  0  0  0  0  0  0  0  0  0  0  0
    0.1764    1.7383   -1.1955 N   0  0  0  0  0  0  0  0  0  0  0  0
    0.3519    1.2114   -2.3304 C   0  0  0  0  0  0  0  0  0  0  0  0
    1.6789    1.5867    1.6289 H   0  0  0  0  0  0  0  0  0  0  0  0
    0.5874    2.8890    0.9513 H   0  0  0  0  0  0  0  0  0  0  0  0
   -0.3355    1.5081   -3.1112 H   0  0  0  0  0  0  0  0  0  0  0  0
    1.1441    0.4939   -2.5293 H   0  0  0  0  0  0  0  0  0  0  0  0
    0.2725   -2.2570   -1.0964 C   0  0  0  0  0  0  0  0  0  0  0  0
   -0.1258   -2.7260    0.2966 C   0  0  0  0  0  0  0  0  0  0  0  0
   -0.2204   -1.5911    1.2937 C   0  0  0  0  0  0  0  0  0  0  0  0
   -1.2498   -0.7105    0.8965 O   0  0  0  0  0  0  0  0  0  0  0  0
   -1.3540    0.4126    1.6819 C   0  0  0  0  0  0  0  0  0  0  0  0
    1.2402   -1.7503   -1.0704 H   0  0  0  0  0  0  0  0  0  0  0  0
   -0.4616   -1.5523   -1.4879 H   0  0  0  0  0  0  0  0  0  0  0  0
    0.3461   -3.0971   -1.7885 H   0  0  0  0  0  0  0  0  0  0  0  0
   -1.0886   -3.2421    0.2603 H   0  0  0  0  0  0  0  0  0  0  0  0
    0.6054   -3.4451    0.6760 H   0  0  0  0  0  0  0  0  0  0  0  0
   -0.4351   -1.9744    2.3009 H   0  0  0  0  0  0  0  0  0  0  0  0
    0.7318   -1.0456    1.3368 H   0  0  0  0  0  0  0  0  0  0  0  0
   -0.2748    1.1814    1.4562 H   0  0  0  0  0  0  0  0  0  0  0  0
   -1.3470    0.2050    2.7588 H   0  0  0  0  0  0  0  0  0  0  0  0
   -2.2087    1.0059    1.3661 H   0  0  0  0  0  0  0  0  0  0  0  0
  1  2  1  0
  1  5  1  0
  1  6  1  0
  2  3  1  0
  3  4  2  3
  4  7  1  0
  4  8  1  0
  9 10  1  0
  9 14  1  0
  9 15  1  0
  9 16  1  0
 10 11  1  0
 10 17  1  0
 10 18  1  0
 11 12  1  0
 11 19  1  0
 11 20  1  0
 12 13  1  0
 13 21  1  0
 13 22  1  0
 13 23  1  0
M  RAD  1   1   2
M  END
>  <reaction>  (4) 
rmg_rxn_15601

>  <mol_properties>  (4) 
{"0": {"label": "*3", "atom_type": "Cs"}, "1": {"label": "*4", "atom_type": "O2s"}, "11": {"label": "*0", "atom_type": "O2s"}, "12": {"label": "*1", "atom_type": "Cs"}, "20": {"label": "*2", "atom_type": "H0"}}

>  <type>  (4) 
ts

$$$$

     RDKit          3D

 23 21  0  0  0  0  0  0  0  0999 V2000
    1.0992   -1.0078    1.1979 C   0  0  0  0  0  0  0  0  0  0  0  0
    2.1861   -0.6539    0.4045 O   0  0  0  0  0  0  0  0  0  0  0  0
    2.0284    0.5900   -0.1707 N   0  0  0  0  0  0  0  0  0  0  0  0
    2.9612    0.9738   -0.9312 C   0  0  0  0  0  0  0  0  0  0  0  0
    1.3858   -1.8876    1.7631 H   0  0  0  0  0  0  0  0  0  0  0  0
    0.7404   -0.1909    1.8198 H   0  0  0  0  0  0  0  0  0  0  0  0
    2.8460    1.9456   -1.3770 H   0  0  0  0  0  0  0  0  0  0  0  0
    3.8511    0.3920   -1.1497 H   0  0  0  0  0  0  0  0  0  0  0  0
   -1.8075    1.5507    1.2201 C   0  0  0  0  0  0  0  0  0  0  0  0
   -1.3559    1.3218   -0.2169 C   0  0  0  0  0  0  0  0  0  0  0  0
   -2.1625    0.2039   -0.8841 C   0  0  0  0  0  0  0  0  0  0  0  0
   -2.0408   -1.0490   -0.2477 O   0  0  0  0  0  0  0  0  0  0  0  0
   -0.8583   -1.7320   -0.4547 C   0  0  0  0  0  3  0  0  0  0  0  0
   -1.7557    0.6205    1.7811 H   0  0  0  0  0  0  0  0  0  0  0  0
   -2.8356    1.9059    1.2460 H   0  0  0  0  0  0  0  0  0  0  0  0
   -1.1738    2.2890    1.7050 H   0  0  0  0  0  0  0  0  0  0  0  0
   -1.4972    2.2320   -0.8024 H   0  0  0  0  0  0  0  0  0  0  0  0
   -0.2940    1.0716   -0.2400 H   0  0  0  0  0  0  0  0  0  0  0  0
   -3.2301    0.4380   -0.8358 H   0  0  0  0  0  0  0  0  0  0  0  0
   -1.8654    0.1155   -1.9397 H   0  0  0  0  0  0  0  0  0  0  0  0
    0.0951   -1.3538    0.4065 H   0  0  0  0  0  0  0  0  0  0  0  0
   -0.4287   -1.5788   -1.4464 H   0  0  0  0  0  0  0  0  0  0  0  0
   -1.0216   -2.7814   -0.2258 H   0  0  0  0  0  0  0  0  0  0  0  0
  1  2  1  0
  1  5  1  0
  1  6  1  0
  1 21  1  0
  2  3  1  0
  3  4  2  3
  4  7  1  0
  4  8  1  0
  9 10  1  0
  9 14  1  0
  9 15  1  0
  9 16  1  0
 10 11  1  0
 10 17  1  0
 10 18  1  0
 11 12  1  0
 11 19  1  0
 11 20  1  0
 12 13  1  0
 13 22  1  0
 13 23  1  0
M  RAD  1  13   2
M  END
>  <reaction>  (5) 
rmg_rxn_15601

>  <mol_properties>  (5) 
{"0": {"label": "*3", "atom_type": "Cs"}, "1": {"label": "*4", "atom_type": "O2s"}, "11": {"label": "*0", "atom_type": "O2s"}, "12": {"label": "*1", "atom_type": "Cs"}, "20": {"label": "*2", "atom_type": "H0"}}

>  <type>  (5) 
unop_1

>  <geom_source>  (5) 
crest_best.xyz

$$$$

     RDKit          3D

 23 21  0  0  0  0  0  0  0  0999 V2000
    0.7848    1.2146    0.1329 C   0  0  0  0  0  0  0  0  0  0  0  0
    0.1723    2.2741   -0.5755 O   0  0  0  0  0  0  0  0  0  0  0  0
    0.8841    3.4335   -0.3814 N   0  0  0  0  0  0  0  0  0  0  0  0
    0.3738    4.4120   -0.9969 C   0  0  0  0  0  0  0  0  0  0  0  0
    1.8035    1.0445   -0.2225 H   0  0  0  0  0  0  0  0  0  0  0  0
    0.8020    1.4203    1.2055 H   0  0  0  0  0  0  0  0  0  0  0  0
    0.8765    5.3645   -0.8950 H   0  0  0  0  0  0  0  0  0  0  0  0
   -0.5250    4.3191   -1.6027 H   0  0  0  0  0  0  0  0  0  0  0  0
    0.0621   -3.6161   -1.1738 C   0  0  0  0  0  0  0  0  0  0  0  0
    0.0621   -3.6161    0.3491 C   0  0  0  0  0  0  0  0  0  0  0  0
    0.0621   -2.2235    0.9452 C   0  0  0  0  0  0  0  0  0  0  0  0
   -1.1230   -1.5601    0.5810 O   0  0  0  0  0  0  0  0  0  0  0  0
   -1.1837   -0.2490    1.0662 C   0  0  0  0  0  3  0  0  0  0  0  0
    0.9445   -3.1025   -1.5635 H   0  0  0  0  0  0  0  0  0  0  0  0
   -0.8204   -3.1062   -1.5602 H   0  0  0  0  0  0  0  0  0  0  0  0
    0.0670   -4.6341   -1.5661 H   0  0  0  0  0  0  0  0  0  0  0  0
   -0.8120   -4.1543    0.7247 H   0  0  0  0  0  0  0  0  0  0  0  0
    0.9438   -4.1423    0.7254 H   0  0  0  0  0  0  0  0  0  0  0  0
    0.1389   -2.2772    2.0412 H   0  0  0  0  0  0  0  0  0  0  0  0
    0.9345   -1.6565    0.5830 H   0  0  0  0  0  0  0  0  0  0  0  0
   -0.1951    0.4861    0.5974 H   0  0  0  0  0  0  0  0  0  0  0  0
   -1.1418   -0.2229    2.1637 H   0  0  0  0  0  0  0  0  0  0  0  0
   -2.1294    0.1812    0.7391 H   0  0  0  0  0  0  0  0  0  0  0  0
  1  2  1  0
  1  5  1  0
  1  6  1  0
  1 21  1  0
  2  3  1  0
  3  4  2  3
  4  7  1  0
  4  8  1  0
  9 10  1  0
  9 14  1  0
  9 15  1  0
  9 16  1  0
 10 11  1  0
 10 17  1  0
 10 18  1  0
 11 12  1  0
 11 19  1  0
 11 20  1  0
 12 13  1  0
 13 22  1  0
 13 23  1  0
M  RAD  1  13   2
M  END
>  <reaction>  (6) 
rmg_rxn_15601

>  <mol_properties>  (6) 
{"0": {"label": "*3", "atom_type": "Cs"}, "1": {"label": "*4", "atom_type": "O2s"}, "11": {"label": "*0", "atom_type": "O2s"}, "12": {"label": "*1", "atom_type": "Cs"}, "20": {"label": "*2", "atom_type": "H0"}}

>  <type>  (6) 
unop_2

>  <geom_source>  (6) 
Heuristics

$$$$

     RDKit          3D

 23 21  0  0  0  0  0  0  0  0999 V2000
    1.3362   -1.0154    1.2814 C   0  0  0  0  0  0  0  0  0  0  0  0
    2.3776   -0.5814    0.4451 O   0  0  0  0  0  0  0  0  0  0  0  0
    1.9732    0.4911   -0.3274 N   0  0  0  0  0  0  0  0  0  0  0  0
    2.8375    0.9821   -1.0979 C   0  0  0  0  0  0  0  0  0  0  0  0
    1.5396   -2.0164    1.5981 H   0  0  0  0  0  0  0  0  0  0  0  0
    1.1326   -0.3314    2.1010 H   0  0  0  0  0  0  0  0  0  0  0  0
    2.5257    1.8165   -1.7016 H   0  0  0  0  0  0  0  0  0  0  0  0
    3.8576    0.6196   -1.1869 H   0  0  0  0  0  0  0  0  0  0  0  0
   -1.6770    1.4500    1.3567 C   0  0  0  0  0  0  0  0  0  0  0  0
   -1.3566    1.3023   -0.1251 C   0  0  0  0  0  0  0  0  0  0  0  0
   -2.2822    0.2845   -0.7998 C   0  0  0  0  0  0  0  0  0  0  0  0
   -2.1654   -1.0116   -0.2618 O   0  0  0  0  0  0  0  0  0  0  0  0
   -1.0500   -1.7154   -0.5999 C   0  0  0  0  0  3  0  0  0  0  0  0
   -2.6814    1.8449    1.4959 H   0  0  0  0  0  0  0  0  0  0  0  0
   -0.9701    2.1262    1.8303 H   0  0  0  0  0  0  0  0  0  0  0  0
   -1.6182    0.4826    1.8494 H   0  0  0  0  0  0  0  0  0  0  0  0
   -1.4814    2.2601   -0.6331 H   0  0  0  0  0  0  0  0  0  0  0  0
   -0.3203    0.9824   -0.2499 H   0  0  0  0  0  0  0  0  0  0  0  0
   -3.3278    0.5654   -0.6420 H   0  0  0  0  0  0  0  0  0  0  0  0
   -2.0761    0.2606   -1.8795 H   0  0  0  0  0  0  0  0  0  0  0  0
    0.4191   -1.2956    0.7165 H   0  0  0  0  0  0  0  0  0  0  0  0
   -0.5397   -1.4493   -1.5140 H   0  0  0  0  0  0  0  0  0  0  0  0
   -1.1280   -2.7542   -0.3295 H   0  0  0  0  0  0  0  0  0  0  0  0
  1  2  1  0
  1  5  1  0
  1  6  1  0
  1 21  1  0
  2  3  1  0
  3  4  2  3
  4  7  1  0
  4  8  1  0
  9 10  1  0
  9 14  1  0
  9 15  1  0
  9 16  1  0
 10 11  1  0
 10 17  1  0
 10 18  1  0
 11 12  1  0
 11 19  1  0
 11 20  1  0
 12 13  1  0
 13 22  1  0
 13 23  1  0
M  RAD  1  13   2
M  END
>  <reaction>  (7) 
rmg_rxn_15601

>  <mol_properties>  (7) 
{"0": {"label": "*3", "atom_type": "Cs"}, "1": {"label": "*4", "atom_type": "O2s"}, "11": {"label": "*0", "atom_type": "O2s"}, "12": {"label": "*1", "atom_type": "Cs"}, "20": {"label": "*2", "atom_type": "H0"}}

>  <type>  (7) 
unop_3

>  <geom_source>  (7) 
Heuristics

$$$$

     RDKit          3D

 23 21  0  0  0  0  0  0  0  0999 V2000
    1.3436   -1.0035   -1.2935 C   0  0  0  0  0  0  0  0  0  0  0  0
    2.3807   -0.5693   -0.4515 O   0  0  0  0  0  0  0  0  0  0  0  0
    1.9665    0.4923    0.3309 N   0  0  0  0  0  0  0  0  0  0  0  0
    2.8252    0.9813    1.1090 C   0  0  0  0  0  0  0  0  0  0  0  0
    1.1381   -0.3137   -2.1079 H   0  0  0  0  0  0  0  0  0  0  0  0
    1.5582   -1.9995   -1.6203 H   0  0  0  0  0  0  0  0  0  0  0  0
    2.5057    1.8071    1.7204 H   0  0  0  0  0  0  0  0  0  0  0  0
    3.8475    0.6252    1.1972 H   0  0  0  0  0  0  0  0  0  0  0  0
   -1.6930    1.4448   -1.3568 C   0  0  0  0  0  0  0  0  0  0  0  0
   -1.3638    1.2987    0.1232 C   0  0  0  0  0  0  0  0  0  0  0  0
   -2.2797    0.2755    0.8028 C   0  0  0  0  0  0  0  0  0  0  0  0
   -2.1556   -1.0207    0.2667 O   0  0  0  0  0  0  0  0  0  0  0  0
   -1.0323   -1.7143    0.5991 C   0  0  0  0  0  3  0  0  0  0  0  0
   -2.7007    1.8331   -1.4905 H   0  0  0  0  0  0  0  0  0  0  0  0
   -1.6305    0.4780   -1.8504 H   0  0  0  0  0  0  0  0  0  0  0  0
   -0.9932    2.1259   -1.8341 H   0  0  0  0  0  0  0  0  0  0  0  0
   -0.3251    0.9845    0.2426 H   0  0  0  0  0  0  0  0  0  0  0  0
   -1.4914    2.2557    0.6320 H   0  0  0  0  0  0  0  0  0  0  0  0
   -2.0696    0.2548    1.8819 H   0  0  0  0  0  0  0  0  0  0  0  0
   -3.3278    0.5486    0.6483 H   0  0  0  0  0  0  0  0  0  0  0  0
    0.4260   -1.2888   -0.7306 H   0  0  0  0  0  0  0  0  0  0  0  0
   -0.5167   -1.4406    1.5079 H   0  0  0  0  0  0  0  0  0  0  0  0
   -1.1033   -2.7546    0.3325 H   0  0  0  0  0  0  0  0  0  0  0  0
  1  2  1  0
  1  5  1  0
  1  6  1  0
  1 21  1  0
  2  3  1  0
  3  4  2  3
  4  7  1  0
  4  8  1  0
  9 10  1  0
  9 14  1  0
  9 15  1  0
  9 16  1  0
 10 11  1  0
 10 17  1  0
 10 18  1  0
 11 12  1  0
 11 19  1  0
 11 20  1  0
 12 13  1  0
 13 22  1  0
 13 23  1  0
M  RAD  1  13   2
M  END
>  <reaction>  (8) 
rmg_rxn_15601

>  <mol_properties>  (8) 
{"0": {"label": "*3", "atom_type": "Cs"}, "1": {"label": "*4", "atom_type": "O2s"}, "11": {"label": "*0", "atom_type": "O2s"}, "12": {"label": "*1", "atom_type": "Cs"}, "20": {"label": "*2", "atom_type": "H0"}}

>  <type>  (8) 
unop_4

>  <geom_source>  (8) 
Heuristics

$$$$

     RDKit          3D

 23 21  0  0  0  0  0  0  0  0999 V2000
   -1.8141   -0.5409    1.1855 C   0  0  0  0  0  0  0  0  0  0  0  0
   -1.7262    0.7873    0.7786 O   0  0  0  0  0  0  0  0  0  0  0  0
   -1.8748    1.1349   -0.5177 N   0  0  0  0  0  0  0  0  0  0  0  0
   -2.0125    0.2834   -1.4394 C   0  0  0  0  0  0  0  0  0  0  0  0
   -1.8055   -0.5289    2.2704 H   0  0  0  0  0  0  0  0  0  0  0  0
   -2.6815   -1.0662    0.7842 H   0  0  0  0  0  0  0  0  0  0  0  0
   -2.1294    0.6863   -2.4301 H   0  0  0  0  0  0  0  0  0  0  0  0
   -2.0038   -0.7973   -1.3320 H   0  0  0  0  0  0  0  0  0  0  0  0
    2.6715    1.7562    0.3201 C   0  0  0  0  0  0  0  0  0  0  0  0
    1.5033    0.7999    0.1255 C   0  0  0  0  0  0  0  0  0  0  0  0
    1.9895   -0.5664   -0.3629 C   0  0  0  0  0  0  0  0  0  0  0  0
    0.9503   -1.4739   -0.6555 O   0  0  0  0  0  0  0  0  0  0  0  0
    0.2784   -2.0082    0.4274 C   0  0  0  0  0  3  0  0  0  0  0  0
    3.3729    1.3626    1.0532 H   0  0  0  0  0  0  0  0  0  0  0  0
    2.3108    2.7193    0.6707 H   0  0  0  0  0  0  0  0  0  0  0  0
    3.2037    1.9075   -0.6164 H   0  0  0  0  0  0  0  0  0  0  0  0
    0.9668    0.6815    1.0685 H   0  0  0  0  0  0  0  0  0  0  0  0
    0.8057    1.2108   -0.6061 H   0  0  0  0  0  0  0  0  0  0  0  0
    2.5328   -0.4504   -1.3048 H   0  0  0  0  0  0  0  0  0  0  0  0
    2.6676   -1.0063    0.3841 H   0  0  0  0  0  0  0  0  0  0  0  0
   -0.7533   -1.2385    0.8062 H   0  0  0  0  0  0  0  0  0  0  0  0
    0.8980   -2.1258    1.3177 H   0  0  0  0  0  0  0  0  0  0  0  0
   -0.1890   -2.9403    0.1199 H   0  0  0  0  0  0  0  0  0  0  0  0
  1  2  1  0
  1  5  1  0
  1  6  1  0
  1 21  1  0
  2  3  1  0
  3  4  2  3
  4  7  1  0
  4  8  1  0
  9 10  1  0
  9 14  1  0
  9 15  1  0
  9 16  1  0
 10 11  1  0
 10 17  1  0
 10 18  1  0
 11 12  1  0
 11 19  1  0
 11 20  1  0
 12 13  1  0
 13 22  1  0
 13 23  1  0
M  RAD  1  13   2
M  END
>  <reaction>  (9) 
rmg_rxn_15601

>  <mol_properties>  (9) 
{"0": {"label": "*3", "atom_type": "Cs"}, "1": {"label": "*4", "atom_type": "O2s"}, "11": {"label": "*0", "atom_type": "O2s"}, "12": {"label": "*1", "atom_type": "Cs"}, "20": {"label": "*2", "atom_type": "H0"}}

>  <type>  (9) 
unop_5

>  <geom_source>  (9) 
Heuristics

$$$$

     RDKit          3D

 23 21  0  0  0  0  0  0  0  0999 V2000
    1.8119   -0.5310    1.1920 C   0  0  0  0  0  0  0  0  0  0  0  0
    1.7230    0.7943    0.7754 O   0  0  0  0  0  0  0  0  0  0  0  0
    1.8740    1.1327   -0.5230 N   0  0  0  0  0  0  0  0  0  0  0  0
    2.0151    0.2747   -1.4383 C   0  0  0  0  0  0  0  0  0  0  0  0
    2.6816   -1.0574    0.7972 H   0  0  0  0  0  0  0  0  0  0  0  0
    1.7996   -0.5113    2.2767 H   0  0  0  0  0  0  0  0  0  0  0  0
    2.1333    0.6707   -2.4316 H   0  0  0  0  0  0  0  0  0  0  0  0
    2.0080   -0.8052   -1.3231 H   0  0  0  0  0  0  0  0  0  0  0  0
   -2.6772    1.7513    0.3162 C   0  0  0  0  0  0  0  0  0  0  0  0
   -1.5057    0.7982    0.1251 C   0  0  0  0  0  0  0  0  0  0  0  0
   -1.9865   -0.5688   -0.3666 C   0  0  0  0  0  0  0  0  0  0  0  0
   -0.9442   -1.4746   -0.6533 O   0  0  0  0  0  0  0  0  0  0  0  0
   -0.2756   -2.0053    0.4335 C   0  0  0  0  0  3  0  0  0  0  0  0
   -2.3204    2.7149    0.6693 H   0  0  0  0  0  0  0  0  0  0  0  0
   -3.3804    1.3550    1.0461 H   0  0  0  0  0  0  0  0  0  0  0  0
   -3.2060    1.9022   -0.6222 H   0  0  0  0  0  0  0  0  0  0  0  0
   -0.8062    1.2117   -0.6032 H   0  0  0  0  0  0  0  0  0  0  0  0
   -0.9727    0.6801    1.0701 H   0  0  0  0  0  0  0  0  0  0  0  0
   -2.6682   -1.0100    0.3764 H   0  0  0  0  0  0  0  0  0  0  0  0
   -2.5246   -0.4536   -1.3116 H   0  0  0  0  0  0  0  0  0  0  0  0
    0.7536   -1.2326    0.8135 H   0  0  0  0  0  0  0  0  0  0  0  0
    0.1942   -2.9377    0.1301 H   0  0  0  0  0  0  0  0  0  0  0  0
   -0.8982   -2.1214    1.3219 H   0  0  0  0  0  0  0  0  0  0  0  0
  1  2  1  0
  1  5  1  0
  1  6  1  0
  1 21  1  0
  2  3  1  0
  3  4  2  3
  4  7  1  0
  4  8  1  0
  9 10  1  0
  9 14  1  0
  9 15  1  0
  9 16  1  0
 10 11  1  0
 10 17  1  0
 10 18  1  0
 11 12  1  0
 11 19  1  0
 11 20  1  0
 12 13  1  0
 13 22  1  0
 13 23  1  0
M  RAD  1  13   2
M  END
>  <reaction>  (10) 
rmg_rxn_15601

>  <mol_properties>  (10) 
{"0": {"label": "*3", "atom_type": "Cs"}, "1": {"label": "*4", "atom_type": "O2s"}, "11": {"label": "*0", "atom_type": "O2s"}, "12": {"label": "*1", "atom_type": "Cs"}, "20": {"label": "*2", "atom_type": "H0"}}

>  <type>  (10) 
unop_6

>  <geom_source>  (10) 
Heuristics

$$$$

     RDKit          3D

 23 21  0  0  0  0  0  0  0  0999 V2000
    0.3941    1.9469    0.5794 C   0  0  0  0  0  0  0  0  0  0  0  0
    0.6999    1.4115   -0.6931 O   0  0  0  0  0  0  0  0  0  0  0  0
    1.4095    2.3332   -1.4250 N   0  0  0  0  0  0  0  0  0  0  0  0
    1.7069    1.8991   -2.5738 C   0  0  0  0  0  0  0  0  0  0  0  0
    1.3055    2.1830    1.1333 H   0  0  0  0  0  0  0  0  0  0  0  0
   -0.2204    2.8453    0.4879 H   0  0  0  0  0  0  0  0  0  0  0  0
    2.2676    2.5668   -3.2143 H   0  0  0  0  0  0  0  0  0  0  0  0
    1.4216    0.9072   -2.9176 H   0  0  0  0  0  0  0  0  0  0  0  0
   -0.3286   -2.8838   -0.7272 C   0  0  0  0  0  0  0  0  0  0  0  0
   -0.3286   -2.8838    0.7957 C   0  0  0  0  0  0  0  0  0  0  0  0
   -0.3286   -1.4912    1.3917 C   0  0  0  0  0  0  0  0  0  0  0  0
   -1.5136   -0.8278    1.0276 O   0  0  0  0  0  0  0  0  0  0  0  0
   -1.5744    0.4833    1.5128 C   0  0  0  0  0  3  0  0  0  0  0  0
    0.5538   -2.3701   -1.1169 H   0  0  0  0  0  0  0  0  0  0  0  0
   -1.2110   -2.3739   -1.1136 H   0  0  0  0  0  0  0  0  0  0  0  0
   -0.3237   -3.9018   -1.1195 H   0  0  0  0  0  0  0  0  0  0  0  0
   -1.2027   -3.4219    1.1713 H   0  0  0  0  0  0  0  0  0  0  0  0
    0.5531   -3.4099    1.1719 H   0  0  0  0  0  0  0  0  0  0  0  0
   -0.2518   -1.5449    2.4878 H   0  0  0  0  0  0  0  0  0  0  0  0
    0.5438   -0.9242    1.0296 H   0  0  0  0  0  0  0  0  0  0  0  0
   -0.5857    1.2184    1.0440 H   0  0  0  0  0  0  0  0  0  0  0  0
   -1.5324    0.5094    2.6102 H   0  0  0  0  0  0  0  0  0  0  0  0
   -2.5201    0.9135    1.1856 H   0  0  0  0  0  0  0  0  0  0  0  0
  1  2  1  0
  1  5  1  0
  1  6  1  0
  1 21  1  0
  2  3  1  0
  3  4  2  3
  4  7  1  0
  4  8  1  0
  9 10  1  0
  9 14  1  0
  9 15  1  0
  9 16  1  0
 10 11  1  0
 10 17  1  0
 10 18  1  0
 11 12  1  0
 11 19  1  0
 11 20  1  0
 12 13  1  0
 13 22  1  0
 13 23  1  0
M  RAD  1  13   2
M  END
>  <reaction>  (11) 
rmg_rxn_15601

>  <mol_properties>  (11) 
{"0": {"label": "*3", "atom_type": "Cs"}, "1": {"label": "*4", "atom_type": "O2s"}, "11": {"label": "*0", "atom_type": "O2s"}, "12": {"label": "*1", "atom_type": "Cs"}, "20": {"label": "*2", "atom_type": "H0"}}

>  <type>  (11) 
unop_7

>  <geom_source>  (11) 
Heuristics

$$$$

     RDKit          3D

 23 21  0  0  0  0  0  0  0  0999 V2000
    1.0980    1.0109   -1.1956 C   0  0  0  0  0  0  0  0  0  0  0  0
    2.1851    0.6565   -0.4026 O   0  0  0  0  0  0  0  0  0  0  0  0
    2.0279   -0.5881    0.1713 N   0  0  0  0  0  0  0  0  0  0  0  0
    2.9614   -0.9729    0.9305 C   0  0  0  0  0  0  0  0  0  0  0  0
    1.3841    1.8919   -1.7591 H   0  0  0  0  0  0  0  0  0  0  0  0
    0.7401    0.1947   -1.8191 H   0  0  0  0  0  0  0  0  0  0  0  0
    2.8466   -1.9452    1.3751 H   0  0  0  0  0  0  0  0  0  0  0  0
    3.8516   -0.3914    1.1487 H   0  0  0  0  0  0  0  0  0  0  0  0
   -1.7971   -1.5529   -1.2210 C   0  0  0  0  0  0  0  0  0  0  0  0
   -1.3534   -1.3224    0.2182 C   0  0  0  0  0  0  0  0  0  0  0  0
   -2.1662   -0.2063    0.8809 C   0  0  0  0  0  0  0  0  0  0  0  0
   -2.0437    1.0470    0.2453 O   0  0  0  0  0  0  0  0  0  0  0  0
   -0.8622    1.7307    0.4559 C   0  0  0  0  0  3  0  0  0  0  0  0
   -2.8231   -1.9137   -1.2520 H   0  0  0  0  0  0  0  0  0  0  0  0
   -1.1570   -2.2874   -1.7033 H   0  0  0  0  0  0  0  0  0  0  0  0
   -1.7478   -0.6221   -1.7811 H   0  0  0  0  0  0  0  0  0  0  0  0
   -1.4954   -2.2327    0.8033 H   0  0  0  0  0  0  0  0  0  0  0  0
   -0.2923   -1.0694    0.2465 H   0  0  0  0  0  0  0  0  0  0  0  0
   -3.2330   -0.4425    0.8266 H   0  0  0  0  0  0  0  0  0  0  0  0
   -1.8752   -0.1173    1.9381 H   0  0  0  0  0  0  0  0  0  0  0  0
    0.0932    1.3547   -0.4043 H   0  0  0  0  0  0  0  0  0  0  0  0
   -0.4345    1.5763    1.4482 H   0  0  0  0  0  0  0  0  0  0  0  0
   -1.0258    2.7803    0.2282 H   0  0  0  0  0  0  0  0  0  0  0  0
  1  2  1  0
  1  5  1  0
  1  6  1  0
  1 21  1  0
  2  3  1  0
  3  4  2  3
  4  7  1  0
  4  8  1  0
  9 10  1  0
  9 14  1  0
  9 15  1  0
  9 16  1  0
 10 11  1  0
 10 17  1  0
 10 18  1  0
 11 12  1  0
 11 19  1  0
 11 20  1  0
 12 13  1  0
 13 22  1  0
 13 23  1  0
M  RAD  1  13   2
M  END
>  <reaction>  (12) 
rmg_rxn_15601

>  <mol_properties>  (12) 
{"0": {"label": "*3", "atom_type": "Cs"}, "1": {"label": "*4", "atom_type": "O2s"}, "11": {"label": "*0", "atom_type": "O2s"}, "12": {"label": "*1", "atom_type": "Cs"}, "20": {"label": "*2", "atom_type": "H0"}}

>  <type>  (12) 
unop_8

>  <geom_source>  (12) 
Heuristics

$$$$

     RDKit          3D

 23 21  0  0  0  0  0  0  0  0999 V2000
    0.6644    1.1623   -0.1197 C   0  0  0  0  0  0  0  0  0  0  0  0
    0.1634    2.4831   -0.1833 O   0  0  0  0  0  0  0  0  0  0  0  0
    1.2024    3.3776   -0.0886 N   0  0  0  0  0  0  0  0  0  0  0  0
    0.8031    4.5754   -0.1408 C   0  0  0  0  0  0  0  0  0  0  0  0
    1.3515    0.9648   -0.9456 H   0  0  0  0  0  0  0  0  0  0  0  0
    1.1739    0.9830    0.8298 H   0  0  0  0  0  0  0  0  0  0  0  0
    1.5624    5.3429   -0.0727 H   0  0  0  0  0  0  0  0  0  0  0  0
   -0.2468    4.8391   -0.2484 H   0  0  0  0  0  0  0  0  0  0  0  0
   -0.0583   -3.6684   -1.4263 C   0  0  0  0  0  0  0  0  0  0  0  0
   -0.0583   -3.6684    0.0966 C   0  0  0  0  0  0  0  0  0  0  0  0
   -0.0583   -2.2758    0.6927 C   0  0  0  0  0  0  0  0  0  0  0  0
   -1.2433   -1.6124    0.3285 O   0  0  0  0  0  0  0  0  0  0  0  0
   -1.3041   -0.3013    0.8137 C   0  0  0  0  0  3  0  0  0  0  0  0
    0.8241   -3.1548   -1.8160 H   0  0  0  0  0  0  0  0  0  0  0  0
   -0.9407   -3.1585   -1.8127 H   0  0  0  0  0  0  0  0  0  0  0  0
   -0.0533   -4.6864   -1.8186 H   0  0  0  0  0  0  0  0  0  0  0  0
   -0.9324   -4.2066    0.4722 H   0  0  0  0  0  0  0  0  0  0  0  0
    0.8235   -4.1946    0.4729 H   0  0  0  0  0  0  0  0  0  0  0  0
    0.0186   -2.3295    1.7887 H   0  0  0  0  0  0  0  0  0  0  0  0
    0.8141   -1.7088    0.3305 H   0  0  0  0  0  0  0  0  0  0  0  0
   -0.3154    0.4338    0.3449 H   0  0  0  0  0  0  0  0  0  0  0  0
   -1.2621   -0.2752    1.9112 H   0  0  0  0  0  0  0  0  0  0  0  0
   -2.2498    0.1289    0.4866 H   0  0  0  0  0  0  0  0  0  0  0  0
  1  2  1  0
  1  5  1  0
  1  6  1  0
  1 21  1  0
  2  3  1  0
  3  4  2  3
  4  7  1  0
  4  8  1  0
  9 10  1  0
  9 14  1  0
  9 15  1  0
  9 16  1  0
 10 11  1  0
 10 17  1  0
 10 18  1  0
 11 12  1  0
 11 19  1  0
 11 20  1  0
 12 13  1  0
 13 22  1  0
 13 23  1  0
M  RAD  1  13   2
M  END
>  <reaction>  (13) 
rmg_rxn_15601

>  <mol_properties>  (13) 
{"0": {"label": "*3", "atom_type": "Cs"}, "1": {"label": "*4", "atom_type": "O2s"}, "11": {"label": "*0", "atom_type": "O2s"}, "12": {"label": "*1", "atom_type": "Cs"}, "20": {"label": "*2", "atom_type": "H0"}}

>  <type>  (13) 
unop_9

>  <geom_source>  (13) 
Heuristics

$$$$

     RDKit          3D

 23 21  0  0  0  0  0  0  0  0999 V2000
   -0.0409    1.9831   -0.3584 C   0  0  0  0  0  0  0  0  0  0  0  0
    1.1467    1.3511    0.0773 O   0  0  0  0  0  0  0  0  0  0  0  0
    2.1228    2.2951    0.2890 N   0  0  0  0  0  0  0  0  0  0  0  0
    3.2066    1.7769    0.6808 C   0  0  0  0  0  0  0  0  0  0  0  0
   -0.4103    2.6825    0.3949 H   0  0  0  0  0  0  0  0  0  0  0  0
    0.1212    2.5128   -1.2999 H   0  0  0  0  0  0  0  0  0  0  0  0
    4.0277    2.4553    0.8704 H   0  0  0  0  0  0  0  0  0  0  0  0
    3.3254    0.7052    0.8253 H   0  0  0  0  0  0  0  0  0  0  0  0
   -0.7636   -2.8476   -1.6651 C   0  0  0  0  0  0  0  0  0  0  0  0
   -0.7636   -2.8476   -0.1422 C   0  0  0  0  0  0  0  0  0  0  0  0
   -0.7636   -1.4550    0.4539 C   0  0  0  0  0  0  0  0  0  0  0  0
   -1.9486   -0.7916    0.0898 O   0  0  0  0  0  0  0  0  0  0  0  0
   -2.0094    0.5195    0.5749 C   0  0  0  0  0  3  0  0  0  0  0  0
    0.1188   -2.3340   -2.0548 H   0  0  0  0  0  0  0  0  0  0  0  0
   -1.6460   -2.3377   -2.0515 H   0  0  0  0  0  0  0  0  0  0  0  0
   -0.7586   -3.8656   -2.0574 H   0  0  0  0  0  0  0  0  0  0  0  0
   -1.6377   -3.3858    0.2335 H   0  0  0  0  0  0  0  0  0  0  0  0
    0.1182   -3.3738    0.2341 H   0  0  0  0  0  0  0  0  0  0  0  0
   -0.6867   -1.5087    1.5500 H   0  0  0  0  0  0  0  0  0  0  0  0
    0.1088   -0.8880    0.0917 H   0  0  0  0  0  0  0  0  0  0  0  0
   -1.0207    1.2546    0.1062 H   0  0  0  0  0  0  0  0  0  0  0  0
   -1.9674    0.5456    1.6724 H   0  0  0  0  0  0  0  0  0  0  0  0
   -2.9551    0.9497    0.2478 H   0  0  0  0  0  0  0  0  0  0  0  0
  1  2  1  0
  1  5  1  0
  1  6  1  0
  1 21  1  0
  2  3  1  0
  3  4  2  3
  4  7  1  0
  4  8  1  0
  9 10  1  0
  9 14  1  0
  9 15  1  0
  9 16  1  0
 10 11  1  0
 10 17  1  0
 10 18  1  0
 11 12  1  0
 11 19  1  0
 11 20  1  0
 12 13  1  0
 13 22  1  0
 13 23  1  0
M  RAD  1  13   2
M  END
>  <reaction>  (14) 
rmg_rxn_15601

>  <mol_properties>  (14) 
{"0": {"label": "*3", "atom_type": "Cs"}, "1": {"label": "*4", "atom_type": "O2s"}, "11": {"label": "*0", "atom_type": "O2s"}, "12": {"label": "*1", "atom_type": "Cs"}, "20": {"label": "*2", "atom_type": "H0"}}

>  <type>  (14) 
unop_10

>  <geom_source>  (14) 
Heuristics

$$$$

     RDKit          3D

 23 21  0  0  0  0  0  0  0  0999 V2000
   -1.3404   -0.9891    1.3029 C   0  0  0  0  0  0  0  0  0  0  0  0
   -2.3799   -0.5622    0.4606 O   0  0  0  0  0  0  0  0  0  0  0  0
   -1.9669    0.4899   -0.3353 N   0  0  0  0  0  0  0  0  0  0  0  0
   -2.8279    0.9716   -1.1155 C   0  0  0  0  0  0  0  0  0  0  0  0
   -1.1329   -0.2942    2.1123 H   0  0  0  0  0  0  0  0  0  0  0  0
   -1.5482   -1.9845    1.6341 H   0  0  0  0  0  0  0  0  0  0  0  0
   -2.5095    1.7900   -1.7374 H   0  0  0  0  0  0  0  0  0  0  0  0
   -3.8511    0.6160   -1.1957 H   0  0  0  0  0  0  0  0  0  0  0  0
    1.7033    1.4449    1.3527 C   0  0  0  0  0  0  0  0  0  0  0  0
    1.3662    1.2976   -0.1254 C   0  0  0  0  0  0  0  0  0  0  0  0
    2.2760    0.2710   -0.8081 C   0  0  0  0  0  0  0  0  0  0  0  0
    2.1520   -1.0238   -0.2687 O   0  0  0  0  0  0  0  0  0  0  0  0
    1.0256   -1.7159   -0.5942 C   0  0  0  0  0  3  0  0  0  0  0  0
    1.6421    0.4787    1.8476 H   0  0  0  0  0  0  0  0  0  0  0  0
    1.0069    2.1274    1.8330 H   0  0  0  0  0  0  0  0  0  0  0  0
    2.7122    1.8320    1.4807 H   0  0  0  0  0  0  0  0  0  0  0  0
    0.3262    0.9859   -0.2396 H   0  0  0  0  0  0  0  0  0  0  0  0
    1.4938    2.2536   -0.6362 H   0  0  0  0  0  0  0  0  0  0  0  0
    2.0600    0.2488   -1.8859 H   0  0  0  0  0  0  0  0  0  0  0  0
    3.3256    0.5420   -0.6598 H   0  0  0  0  0  0  0  0  0  0  0  0
   -0.4255   -1.2815    0.7409 H   0  0  0  0  0  0  0  0  0  0  0  0
    0.5064   -1.4432   -1.5013 H   0  0  0  0  0  0  0  0  0  0  0  0
    1.0956   -2.7557   -0.3255 H   0  0  0  0  0  0  0  0  0  0  0  0
  1  2  1  0
  1  5  1  0
  1  6  1  0
  1 21  1  0
  2  3  1  0
  3  4  2  3
  4  7  1  0
  4  8  1  0
  9 10  1  0
  9 14  1  0
  9 15  1  0
  9 16  1  0
 10 11  1  0
 10 17  1  0
 10 18  1  0
 11 12  1  0
 11 19  1  0
 11 20  1  0
 12 13  1  0
 13 22  1  0
 13 23  1  0
M  RAD  1  13   2
M  END
>  <reaction>  (15) 
rmg_rxn_15601

>  <mol_properties>  (15) 
{"0": {"label": "*3", "atom_type": "Cs"}, "1": {"label": "*4", "atom_type": "O2s"}, "11": {"label": "*0", "atom_type": "O2s"}, "12": {"label": "*1", "atom_type": "Cs"}, "20": {"label": "*2", "atom_type": "H0"}}

>  <type>  (15) 
unop_11

>  <geom_source>  (15) 
Heuristics

$$$$

     RDKit          3D

 23 21  0  0  0  0  0  0  0  0999 V2000
    0.5365    1.1896   -0.2672 C   0  0  0  0  0  0  0  0  0  0  0  0
    0.3583    2.4751    0.2945 O   0  0  0  0  0  0  0  0  0  0  0  0
    1.3541    3.3144   -0.1444 N   0  0  0  0  0  0  0  0  0  0  0  0
    1.2371    4.4789    0.3322 C   0  0  0  0  0  0  0  0  0  0  0  0
    0.4838    1.2289   -1.3575 H   0  0  0  0  0  0  0  0  0  0  0  0
    1.4937    0.7598    0.0367 H   0  0  0  0  0  0  0  0  0  0  0  0
    1.9844    5.2020    0.0342 H   0  0  0  0  0  0  0  0  0  0  0  0
    0.4320    4.7571    1.0089 H   0  0  0  0  0  0  0  0  0  0  0  0
   -0.1861   -3.6411   -1.5738 C   0  0  0  0  0  0  0  0  0  0  0  0
   -0.1861   -3.6411   -0.0509 C   0  0  0  0  0  0  0  0  0  0  0  0
   -0.1861   -2.2485    0.5452 C   0  0  0  0  0  0  0  0  0  0  0  0
   -1.3712   -1.5850    0.1810 O   0  0  0  0  0  0  0  0  0  0  0  0
   -1.4320   -0.2739    0.6662 C   0  0  0  0  0  3  0  0  0  0  0  0
    0.6963   -3.1274   -1.9635 H   0  0  0  0  0  0  0  0  0  0  0  0
   -1.0686   -3.1312   -1.9602 H   0  0  0  0  0  0  0  0  0  0  0  0
   -0.1812   -4.6591   -1.9661 H   0  0  0  0  0  0  0  0  0  0  0  0
   -1.0602   -4.1792    0.3247 H   0  0  0  0  0  0  0  0  0  0  0  0
    0.6956   -4.1672    0.3254 H   0  0  0  0  0  0  0  0  0  0  0  0
   -0.1093   -2.3022    1.6412 H   0  0  0  0  0  0  0  0  0  0  0  0
    0.6863   -1.6814    0.1830 H   0  0  0  0  0  0  0  0  0  0  0  0
   -0.4433    0.4611    0.1974 H   0  0  0  0  0  0  0  0  0  0  0  0
   -1.3900   -0.2478    1.7637 H   0  0  0  0  0  0  0  0  0  0  0  0
   -2.3776    0.1562    0.3390 H   0  0  0  0  0  0  0  0  0  0  0  0
  1  2  1  0
  1  5  1  0
  1  6  1  0
  1 21  1  0
  2  3  1  0
  3  4  2  3
  4  7  1  0
  4  8  1  0
  9 10  1  0
  9 14  1  0
  9 15  1  0
  9 16  1  0
 10 11  1  0
 10 17  1  0
 10 18  1  0
 11 12  1  0
 11 19  1  0
 11 20  1  0
 12 13  1  0
 13 22  1  0
 13 23  1  0
M  RAD  1  13   2
M  END
>  <reaction>  (16) 
rmg_rxn_15601

>  <mol_properties>  (16) 
{"0": {"label": "*3", "atom_type": "Cs"}, "1": {"label": "*4", "atom_type": "O2s"}, "11": {"label": "*0", "atom_type": "O2s"}, "12": {"label": "*1", "atom_type": "Cs"}, "20": {"label": "*2", "atom_type": "H0"}}

>  <type>  (16) 
unop_12

>  <geom_source>  (16) 
Heuristics

$$$$

     RDKit          3D

 23 21  0  0  0  0  0  0  0  0999 V2000
    1.8109   -0.5311    1.1926 C   0  0  0  0  0  0  0  0  0  0  0  0
    1.7222    0.7940    0.7756 O   0  0  0  0  0  0  0  0  0  0  0  0
    1.8747    1.1324   -0.5227 N   0  0  0  0  0  0  0  0  0  0  0  0
    2.0180    0.2743   -1.4375 C   0  0  0  0  0  0  0  0  0  0  0  0
    2.6812   -1.0575    0.7989 H   0  0  0  0  0  0  0  0  0  0  0  0
    1.7975   -0.5112    2.2773 H   0  0  0  0  0  0  0  0  0  0  0  0
    2.1374    0.6702   -2.4308 H   0  0  0  0  0  0  0  0  0  0  0  0
    2.0117   -0.8056   -1.3222 H   0  0  0  0  0  0  0  0  0  0  0  0
   -2.6770    1.7518    0.3160 C   0  0  0  0  0  0  0  0  0  0  0  0
   -1.5056    0.7989    0.1235 C   0  0  0  0  0  0  0  0  0  0  0  0
   -1.9871   -0.5686   -0.3663 C   0  0  0  0  0  0  0  0  0  0  0  0
   -0.9450   -1.4746   -0.6534 O   0  0  0  0  0  0  0  0  0  0  0  0
   -0.2762   -2.0055    0.4331 C   0  0  0  0  0  3  0  0  0  0  0  0
   -3.2083    1.9008   -0.6213 H   0  0  0  0  0  0  0  0  0  0  0  0
   -2.3196    2.7161    0.6664 H   0  0  0  0  0  0  0  0  0  0  0  0
   -3.3781    1.3566    1.0484 H   0  0  0  0  0  0  0  0  0  0  0  0
   -0.8075    1.2119   -0.6064 H   0  0  0  0  0  0  0  0  0  0  0  0
   -0.9709    0.6817    1.0676 H   0  0  0  0  0  0  0  0  0  0  0  0
   -2.6679   -1.0092    0.3779 H   0  0  0  0  0  0  0  0  0  0  0  0
   -2.5263   -0.4544   -1.3108 H   0  0  0  0  0  0  0  0  0  0  0  0
    0.7532   -1.2330    0.8132 H   0  0  0  0  0  0  0  0  0  0  0  0
    0.1935   -2.9378    0.1295 H   0  0  0  0  0  0  0  0  0  0  0  0
   -0.8985   -2.1217    1.3217 H   0  0  0  0  0  0  0  0  0  0  0  0
  1  2  1  0
  1  5  1  0
  1  6  1  0
  1 21  1  0
  2  3  1  0
  3  4  2  3
  4  7  1  0
  4  8  1  0
  9 10  1  0
  9 14  1  0
  9 15  1  0
  9 16  1  0
 10 11  1  0
 10 17  1  0
 10 18  1  0
 11 12  1  0
 11 19  1  0
 11 20  1  0
 12 13  1  0
 13 22  1  0
 13 23  1  0
M  RAD  1  13   2
M  END
>  <reaction>  (17) 
rmg_rxn_15601

>  <mol_properties>  (17) 
{"0": {"label": "*3", "atom_type": "Cs"}, "1": {"label": "*4", "atom_type": "O2s"}, "11": {"label": "*0", "atom_type": "O2s"}, "12": {"label": "*1", "atom_type": "Cs"}, "20": {"label": "*2", "atom_type": "H0"}}

>  <type>  (17) 
unop_13

>  <geom_source>  (17) 
Heuristics

$$$$

     RDKit          3D

 23 21  0  0  0  0  0  0  0  0999 V2000
   -1.3787    1.2774    0.9618 C   0  0  0  0  0  0  0  0  0  0  0  0
   -2.3025    0.5778    0.1919 O   0  0  0  0  0  0  0  0  0  0  0  0
   -1.9158   -0.7275   -0.0307 N   0  0  0  0  0  0  0  0  0  0  0  0
   -2.6875   -1.4222   -0.7504 C   0  0  0  0  0  0  0  0  0  0  0  0
   -1.8439    2.2127    1.2516 H   0  0  0  0  0  0  0  0  0  0  0  0
   -0.9991    0.7026    1.8035 H   0  0  0  0  0  0  0  0  0  0  0  0
   -2.3931   -2.4424   -0.9208 H   0  0  0  0  0  0  0  0  0  0  0  0
   -3.6093   -1.0553   -1.1908 H   0  0  0  0  0  0  0  0  0  0  0  0
    1.9961   -2.3332    0.2759 C   0  0  0  0  0  0  0  0  0  0  0  0
    1.4677   -0.9207    0.4866 C   0  0  0  0  0  0  0  0  0  0  0  0
    2.2346    0.0850   -0.3759 C   0  0  0  0  0  0  0  0  0  0  0  0
    1.8899    1.4296   -0.1254 O   0  0  0  0  0  0  0  0  0  0  0  0
    0.6761    1.8566   -0.6283 C   0  0  0  0  0  3  0  0  0  0  0  0
    3.0468   -2.3993    0.5507 H   0  0  0  0  0  0  0  0  0  0  0  0
    1.8960   -2.6262   -0.7669 H   0  0  0  0  0  0  0  0  0  0  0  0
    1.4354   -3.0375    0.8846 H   0  0  0  0  0  0  0  0  0  0  0  0
    0.4069   -0.8908    0.2330 H   0  0  0  0  0  0  0  0  0  0  0  0
    1.5798   -0.6341    1.5340 H   0  0  0  0  0  0  0  0  0  0  0  0
    3.3042    0.0237   -0.1537 H   0  0  0  0  0  0  0  0  0  0  0  0
    2.0823   -0.1494   -1.4400 H   0  0  0  0  0  0  0  0  0  0  0  0
   -0.3325    1.5694    0.2043 H   0  0  0  0  0  0  0  0  0  0  0  0
    0.4071    1.3954   -1.5803 H   0  0  0  0  0  0  0  0  0  0  0  0
    0.6846    2.9418   -0.6751 H   0  0  0  0  0  0  0  0  0  0  0  0
  1  2  1  0
  1  5  1  0
  1  6  1  0
  1 21  1  0
  2  3  1  0
  3  4  2  3
  4  7  1  0
  4  8  1  0
  9 10  1  0
  9 14  1  0
  9 15  1  0
  9 16  1  0
 10 11  1  0
 10 17  1  0
 10 18  1  0
 11 12  1  0
 11 19  1  0
 11 20  1  0
 12 13  1  0
 13 22  1  0
 13 23  1  0
M  RAD  1  13   2
M  END
>  <reaction>  (18) 
rmg_rxn_15601

>  <mol_properties>  (18) 
{"0": {"label": "*3", "atom_type": "Cs"}, "1": {"label": "*4", "atom_type": "O2s"}, "11": {"label": "*0", "atom_type": "O2s"}, "12": {"label": "*1", "atom_type": "Cs"}, "20": {"label": "*2", "atom_type": "H0"}}

>  <type>  (18) 
unop_14

>  <geom_source>  (18) 
Heuristics

$$$$

     RDKit          3D

 23 21  0  0  0  0  0  0  0  0999 V2000
    0.0878    1.7176   -0.5553 C   0  0  0  0  0  0  0  0  0  0  0  0
    1.1456    1.5736    0.3720 O   0  0  0  0  0  0  0  0  0  0  0  0
    1.7922    2.7763    0.5275 N   0  0  0  0  0  0  0  0  0  0  0  0
    2.7488    2.6976    1.3494 C   0  0  0  0  0  0  0  0  0  0  0  0
   -0.6445    2.4473   -0.2023 H   0  0  0  0  0  0  0  0  0  0  0  0
    0.4649    2.0231   -1.5339 H   0  0  0  0  0  0  0  0  0  0  0  0
    3.3102    3.6049    1.5281 H   0  0  0  0  0  0  0  0  0  0  0  0
    3.0082    1.7728    1.8601 H   0  0  0  0  0  0  0  0  0  0  0  0
   -0.6349   -3.1131   -1.8619 C   0  0  0  0  0  0  0  0  0  0  0  0
   -0.6349   -3.1131   -0.3390 C   0  0  0  0  0  0  0  0  0  0  0  0
   -0.6349   -1.7205    0.2571 C   0  0  0  0  0  0  0  0  0  0  0  0
   -1.8199   -1.0570   -0.1071 O   0  0  0  0  0  0  0  0  0  0  0  0
   -1.8807    0.2541    0.3781 C   0  0  0  0  0  3  0  0  0  0  0  0
    0.2475   -2.5994   -2.2516 H   0  0  0  0  0  0  0  0  0  0  0  0
   -1.5173   -2.6032   -2.2483 H   0  0  0  0  0  0  0  0  0  0  0  0
   -0.6300   -4.1311   -2.2542 H   0  0  0  0  0  0  0  0  0  0  0  0
   -1.5090   -3.6512    0.0366 H   0  0  0  0  0  0  0  0  0  0  0  0
    0.2468   -3.6392    0.0373 H   0  0  0  0  0  0  0  0  0  0  0  0
   -0.5581   -1.7742    1.3531 H   0  0  0  0  0  0  0  0  0  0  0  0
    0.2375   -1.1535   -0.1051 H   0  0  0  0  0  0  0  0  0  0  0  0
   -0.8921    0.9891   -0.0907 H   0  0  0  0  0  0  0  0  0  0  0  0
   -1.8387    0.2802    1.4756 H   0  0  0  0  0  0  0  0  0  0  0  0
   -2.8264    0.6842    0.0509 H   0  0  0  0  0  0  0  0  0  0  0  0
  1  2  1  0
  1  5  1  0
  1  6  1  0
  1 21  1  0
  2  3  1  0
  3  4  2  3
  4  7  1  0
  4  8  1  0
  9 10  1  0
  9 14  1  0
  9 15  1  0
  9 16  1  0
 10 11  1  0
 10 17  1  0
 10 18  1  0
 11 12  1  0
 11 19  1  0
 11 20  1  0
 12 13  1  0
 13 22  1  0
 13 23  1  0
M  RAD  1  13   2
M  END
>  <reaction>  (19) 
rmg_rxn_15601

>  <mol_properties>  (19) 
{"0": {"label": "*3", "atom_type": "Cs"}, "1": {"label": "*4", "atom_type": "O2s"}, "11": {"label": "*0", "atom_type": "O2s"}, "12": {"label": "*1", "atom_type": "Cs"}, "20": {"label": "*2", "atom_type": "H0"}}

>  <type>  (19) 
unop_15

>  <geom_source>  (19) 
Heuristics

$$$$

     RDKit          3D

 23 21  0  0  0  0  0  0  0  0999 V2000
   -1.0981    0.9996    1.2028 C   0  0  0  0  0  0  0  0  0  0  0  0
   -2.1873    0.6494    0.4108 O   0  0  0  0  0  0  0  0  0  0  0  0
   -2.0288   -0.5896   -0.1748 N   0  0  0  0  0  0  0  0  0  0  0  0
   -2.9639   -0.9698   -0.9343 C   0  0  0  0  0  0  0  0  0  0  0  0
   -1.3833    1.8766    1.7729 H   0  0  0  0  0  0  0  0  0  0  0  0
   -0.7375    0.1798    1.8198 H   0  0  0  0  0  0  0  0  0  0  0  0
   -2.8484   -1.9376   -1.3883 H   0  0  0  0  0  0  0  0  0  0  0  0
   -3.8562   -0.3883   -1.1443 H   0  0  0  0  0  0  0  0  0  0  0  0
    1.8140   -1.5463    1.2200 C   0  0  0  0  0  0  0  0  0  0  0  0
    1.3606   -1.3211   -0.2170 C   0  0  0  0  0  0  0  0  0  0  0  0
    2.1628   -0.2012   -0.8861 C   0  0  0  0  0  0  0  0  0  0  0  0
    2.0384    1.0518   -0.2504 O   0  0  0  0  0  0  0  0  0  0  0  0
    0.8529    1.7303   -0.4546 C   0  0  0  0  0  3  0  0  0  0  0  0
    1.1838   -2.2869    1.7061 H   0  0  0  0  0  0  0  0  0  0  0  0
    1.7585   -0.6158    1.7800 H   0  0  0  0  0  0  0  0  0  0  0  0
    2.8437   -1.8970    1.2457 H   0  0  0  0  0  0  0  0  0  0  0  0
    1.5049   -2.2316   -0.8014 H   0  0  0  0  0  0  0  0  0  0  0  0
    0.2978   -1.0746   -0.2400 H   0  0  0  0  0  0  0  0  0  0  0  0
    3.2311   -0.4320   -0.8394 H   0  0  0  0  0  0  0  0  0  0  0  0
    1.8637   -0.1144   -1.9413 H   0  0  0  0  0  0  0  0  0  0  0  0
   -0.0968    1.3492    0.4096 H   0  0  0  0  0  0  0  0  0  0  0  0
    0.4211    1.5748   -1.4450 H   0  0  0  0  0  0  0  0  0  0  0  0
    1.0130    2.7805   -0.2270 H   0  0  0  0  0  0  0  0  0  0  0  0
  1  2  1  0
  1  5  1  0
  1  6  1  0
  1 21  1  0
  2  3  1  0
  3  4  2  3
  4  7  1  0
  4  8  1  0
  9 10  1  0
  9 14  1  0
  9 15  1  0
  9 16  1  0
 10 11  1  0
 10 17  1  0
 10 18  1  0
 11 12  1  0
 11 19  1  0
 11 20  1  0
 12 13  1  0
 13 22  1  0
 13 23  1  0
M  RAD  1  13   2
M  END
>  <reaction>  (20) 
rmg_rxn_15601

>  <mol_properties>  (20) 
{"0": {"label": "*3", "atom_type": "Cs"}, "1": {"label": "*4", "atom_type": "O2s"}, "11": {"label": "*0", "atom_type": "O2s"}, "12": {"label": "*1", "atom_type": "Cs"}, "20": {"label": "*2", "atom_type": "H0"}}

>  <type>  (20) 
unop_16

>  <geom_source>  (20) 
Heuristics

$$$$

     RDKit          3D

 23 21  0  0  0  0  0  0  0  0999 V2000
    0.2794    1.4493   -0.5649 C   0  0  0  0  0  0  0  0  0  0  0  0
    1.0011    1.8890    0.5688 O   0  0  0  0  0  0  0  0  0  0  0  0
    1.4303    3.1798    0.3726 N   0  0  0  0  0  0  0  0  0  0  0  0
    2.0824    3.6183    1.3622 C   0  0  0  0  0  0  0  0  0  0  0  0
   -0.6019    2.0725   -0.7328 H   0  0  0  0  0  0  0  0  0  0  0  0
    0.9092    1.4599   -1.4573 H   0  0  0  0  0  0  0  0  0  0  0  0
    2.4564    4.6305    1.2863 H   0  0  0  0  0  0  0  0  0  0  0  0
    2.2677    3.0218    2.2529 H   0  0  0  0  0  0  0  0  0  0  0  0
   -0.4433   -3.3813   -1.8715 C   0  0  0  0  0  0  0  0  0  0  0  0
   -0.4433   -3.3813   -0.3486 C   0  0  0  0  0  0  0  0  0  0  0  0
   -0.4433   -1.9888    0.2474 C   0  0  0  0  0  0  0  0  0  0  0  0
   -1.6283   -1.3253   -0.1167 O   0  0  0  0  0  0  0  0  0  0  0  0
   -1.6891   -0.0142    0.3685 C   0  0  0  0  0  3  0  0  0  0  0  0
    0.4391   -2.8677   -2.2612 H   0  0  0  0  0  0  0  0  0  0  0  0
   -1.3257   -2.8714   -2.2579 H   0  0  0  0  0  0  0  0  0  0  0  0
   -0.4384   -4.3993   -2.2638 H   0  0  0  0  0  0  0  0  0  0  0  0
   -1.3174   -3.9195    0.0270 H   0  0  0  0  0  0  0  0  0  0  0  0
    0.4384   -3.9075    0.0276 H   0  0  0  0  0  0  0  0  0  0  0  0
   -0.3665   -2.0425    1.3435 H   0  0  0  0  0  0  0  0  0  0  0  0
    0.4291   -1.4217   -0.1148 H   0  0  0  0  0  0  0  0  0  0  0  0
   -0.7005    0.7209   -0.1003 H   0  0  0  0  0  0  0  0  0  0  0  0
   -1.6471    0.0119    1.4659 H   0  0  0  0  0  0  0  0  0  0  0  0
   -2.6348    0.4159    0.0413 H   0  0  0  0  0  0  0  0  0  0  0  0
  1  2  1  0
  1  5  1  0
  1  6  1  0
  1 21  1  0
  2  3  1  0
  3  4  2  3
  4  7  1  0
  4  8  1  0
  9 10  1  0
  9 14  1  0
  9 15  1  0
  9 16  1  0
 10 11  1  0
 10 17  1  0
 10 18  1  0
 11 12  1  0
 11 19  1  0
 11 20  1  0
 12 13  1  0
 13 22  1  0
 13 23  1  0
M  RAD  1  13   2
M  END
>  <reaction>  (21) 
rmg_rxn_15601

>  <mol_properties>  (21) 
{"0": {"label": "*3", "atom_type": "Cs"}, "1": {"label": "*4", "atom_type": "O2s"}, "11": {"label": "*0", "atom_type": "O2s"}, "12": {"label": "*1", "atom_type": "Cs"}, "20": {"label": "*2", "atom_type": "H0"}}

>  <type>  (21) 
unop_17

>  <geom_source>  (21) 
Heuristics

$$$$

     RDKit          3D

 23 21  0  0  0  0  0  0  0  0999 V2000
    1.8063   -0.5172   -1.2014 C   0  0  0  0  0  0  0  0  0  0  0  0
    1.7142    0.8033   -0.7710 O   0  0  0  0  0  0  0  0  0  0  0  0
    1.8690    1.1294    0.5301 N   0  0  0  0  0  0  0  0  0  0  0  0
    2.0188    0.2630    1.4360 C   0  0  0  0  0  0  0  0  0  0  0  0
    1.7862   -0.4869   -2.2858 H   0  0  0  0  0  0  0  0  0  0  0  0
    2.6810   -1.0437   -0.8178 H   0  0  0  0  0  0  0  0  0  0  0  0
    2.1391    0.6496    2.4328 H   0  0  0  0  0  0  0  0  0  0  0  0
    2.0173   -0.8157    1.3100 H   0  0  0  0  0  0  0  0  0  0  0  0
   -2.6778    1.7485   -0.3095 C   0  0  0  0  0  0  0  0  0  0  0  0
   -1.5048    0.7965   -0.1227 C   0  0  0  0  0  0  0  0  0  0  0  0
   -1.9824   -0.5723    0.3673 C   0  0  0  0  0  0  0  0  0  0  0  0
   -0.9378   -1.4766    0.6502 O   0  0  0  0  0  0  0  0  0  0  0  0
   -0.2709   -2.0044   -0.4390 C   0  0  0  0  0  3  0  0  0  0  0  0
   -3.3816    1.3533   -1.0393 H   0  0  0  0  0  0  0  0  0  0  0  0
   -2.3226    2.7134   -0.6606 H   0  0  0  0  0  0  0  0  0  0  0  0
   -3.2053    1.8963    0.6302 H   0  0  0  0  0  0  0  0  0  0  0  0
   -0.9738    0.6811   -1.0691 H   0  0  0  0  0  0  0  0  0  0  0  0
   -0.8043    1.2095    0.6049 H   0  0  0  0  0  0  0  0  0  0  0  0
   -2.5189   -0.4598    1.3135 H   0  0  0  0  0  0  0  0  0  0  0  0
   -2.6646   -1.0133   -0.3753 H   0  0  0  0  0  0  0  0  0  0  0  0
    0.7539   -1.2270   -0.8212 H   0  0  0  0  0  0  0  0  0  0  0  0
   -0.8961   -2.1226   -1.3253 H   0  0  0  0  0  0  0  0  0  0  0  0
    0.2035   -2.9349   -0.1375 H   0  0  0  0  0  0  0  0  0  0  0  0
  1  2  1  0
  1  5  1  0
  1  6  1  0
  1 21  1  0
  2  3  1  0
  3  4  2  3
  4  7  1  0
  4  8  1  0
  9 10  1  0
  9 14  1  0
  9 15  1  0
  9 16  1  0
 10 11  1  0
 10 17  1  0
 10 18  1  0
 11 12  1  0
 11 19  1  0
 11 20  1  0
 12 13  1  0
 13 22  1  0
 13 23  1  0
M  RAD  1  13   2
M  END
>  <reaction>  (22) 
rmg_rxn_15601

>  <mol_properties>  (22) 
{"0": {"label": "*3", "atom_type": "Cs"}, "1": {"label": "*4", "atom_type": "O2s"}, "11": {"label": "*0", "atom_type": "O2s"}, "12": {"label": "*1", "atom_type": "Cs"}, "20": {"label": "*2", "atom_type": "H0"}}

>  <type>  (22) 
unop_18

>  <geom_source>  (22) 
Heuristics

$$$$

     RDKit          3D

 23 21  0  0  0  0  0  0  0  0999 V2000
    0.7872    1.3927    0.4104 C   0  0  0  0  0  0  0  0  0  0  0  0
    0.3044    1.9643   -0.7895 O   0  0  0  0  0  0  0  0  0  0  0  0
    0.7572    3.2571   -0.9016 N   0  0  0  0  0  0  0  0  0  0  0  0
    0.3506    3.8117   -1.9617 C   0  0  0  0  0  0  0  0  0  0  0  0
    1.8792    1.3661    0.4188 H   0  0  0  0  0  0  0  0  0  0  0  0
    0.4290    1.9486    1.2798 H   0  0  0  0  0  0  0  0  0  0  0  0
    0.6643    4.8340   -2.1250 H   0  0  0  0  0  0  0  0  0  0  0  0
   -0.2832    3.3018   -2.6840 H   0  0  0  0  0  0  0  0  0  0  0  0
    0.0645   -3.4380   -0.8962 C   0  0  0  0  0  0  0  0  0  0  0  0
    0.0645   -3.4380    0.6267 C   0  0  0  0  0  0  0  0  0  0  0  0
    0.0645   -2.0454    1.2227 C   0  0  0  0  0  0  0  0  0  0  0  0
   -1.1205   -1.3820    0.8586 O   0  0  0  0  0  0  0  0  0  0  0  0
   -1.1813   -0.0709    1.3438 C   0  0  0  0  0  3  0  0  0  0  0  0
    0.9469   -2.9243   -1.2859 H   0  0  0  0  0  0  0  0  0  0  0  0
   -0.8179   -2.9281   -1.2826 H   0  0  0  0  0  0  0  0  0  0  0  0
    0.0695   -4.4560   -1.2885 H   0  0  0  0  0  0  0  0  0  0  0  0
   -0.8096   -3.9761    1.0023 H   0  0  0  0  0  0  0  0  0  0  0  0
    0.9463   -3.9641    1.0029 H   0  0  0  0  0  0  0  0  0  0  0  0
    0.1414   -2.0991    2.3188 H   0  0  0  0  0  0  0  0  0  0  0  0
    0.9369   -1.4784    0.8605 H   0  0  0  0  0  0  0  0  0  0  0  0
   -0.1926    0.6642    0.8750 H   0  0  0  0  0  0  0  0  0  0  0  0
   -1.1393   -0.0447    2.4412 H   0  0  0  0  0  0  0  0  0  0  0  0
   -2.1270    0.3593    1.0166 H   0  0  0  0  0  0  0  0  0  0  0  0
  1  2  1  0
  1  5  1  0
  1  6  1  0
  1 21  1  0
  2  3  1  0
  3  4  2  3
  4  7  1  0
  4  8  1  0
  9 10  1  0
  9 14  1  0
  9 15  1  0
  9 16  1  0
 10 11  1  0
 10 17  1  0
 10 18  1  0
 11 12  1  0
 11 19  1  0
 11 20  1  0
 12 13  1  0
 13 22  1  0
 13 23  1  0
M  RAD  1  13   2
M  END
>  <reaction>  (23) 
rmg_rxn_15601

>  <mol_properties>  (23) 
{"0": {"label": "*3", "atom_type": "Cs"}, "1": {"label": "*4", "atom_type": "O2s"}, "11": {"label": "*0", "atom_type": "O2s"}, "12": {"label": "*1", "atom_type": "Cs"}, "20": {"label": "*2", "atom_type": "H0"}}

>  <type>  (23) 
unop_19

>  <geom_source>  (23) 
Heuristics

$$$$

     RDKit          3D

 23 21  0  0  0  0  0  0  0  0999 V2000
    1.0992   -1.0078    1.1979 C   0  0  0  0  0  0  0  0  0  0  0  0
    2.1861   -0.6539    0.4045 O   0  0  0  0  0  0  0  0  0  0  0  0
    2.0284    0.5900   -0.1707 N   0  0  0  0  0  0  0  0  0  0  0  0
    2.9612    0.9738   -0.9312 C   0  0  0  0  0  0  0  0  0  0  0  0
    1.3858   -1.8876    1.7631 H   0  0  0  0  0  0  0  0  0  0  0  0
    0.7404   -0.1909    1.8198 H   0  0  0  0  0  0  0  0  0  0  0  0
    2.8460    1.9456   -1.3770 H   0  0  0  0  0  0  0  0  0  0  0  0
    3.8511    0.3920   -1.1497 H   0  0  0  0  0  0  0  0  0  0  0  0
   -1.8075    1.5507    1.2201 C   0  0  0  0  0  0  0  0  0  0  0  0
   -1.3559    1.3218   -0.2169 C   0  0  0  0  0  0  0  0  0  0  0  0
   -2.1625    0.2039   -0.8841 C   0  0  0  0  0  0  0  0  0  0  0  0
   -2.0408   -1.0490   -0.2477 O   0  0  0  0  0  0  0  0  0  0  0  0
   -0.8583   -1.7320   -0.4547 C   0  0  0  0  0  3  0  0  0  0  0  0
   -1.7557    0.6205    1.7811 H   0  0  0  0  0  0  0  0  0  0  0  0
   -2.8356    1.9059    1.2460 H   0  0  0  0  0  0  0  0  0  0  0  0
   -1.1738    2.2890    1.7050 H   0  0  0  0  0  0  0  0  0  0  0  0
   -1.4972    2.2320   -0.8024 H   0  0  0  0  0  0  0  0  0  0  0  0
   -0.2940    1.0716   -0.2400 H   0  0  0  0  0  0  0  0  0  0  0  0
   -3.2301    0.4380   -0.8358 H   0  0  0  0  0  0  0  0  0  0  0  0
   -1.8654    0.1155   -1.9397 H   0  0  0  0  0  0  0  0  0  0  0  0
    0.0951   -1.3538    0.4065 H   0  0  0  0  0  0  0  0  0  0  0  0
   -0.4287   -1.5788   -1.4464 H   0  0  0  0  0  0  0  0  0  0  0  0
   -1.0216   -2.7814   -0.2258 H   0  0  0  0  0  0  0  0  0  0  0  0
  1  2  1  0
  1  5  1  0
  1  6  1  0
  1 21  1  0
  2  3  1  0
  3  4  2  3
  4  7  1  0
  4  8  1  0
  9 10  1  0
  9 14  1  0
  9 15  1  0
  9 16  1  0
 10 11  1  0
 10 17  1  0
 10 18  1  0
 11 12  1  0
 11 19  1  0
 11 20  1  0
 12 13  1  0
 13 22  1  0
 13 23  1  0
M  RAD  1  13   2
M  END
>  <reaction>  (24) 
rmg_rxn_15601

>  <mol_properties>  (24) 
{"0": {"label": "*3", "atom_type": "Cs"}, "1": {"label": "*4", "atom_type": "O2s"}, "11": {"label": "*0", "atom_type": "O2s"}, "12": {"label": "*1", "atom_type": "Cs"}, "20": {"label": "*2", "atom_type": "H0"}}

>  <type>  (24) 
unop_20

>  <geom_source>  (24) 
Heuristics

$$$$

     RDKit          3D

 23 21  0  0  0  0  0  0  0  0999 V2000
   -0.0381    2.1477   -0.0172 C   0  0  0  0  0  0  0  0  0  0  0  0
    1.0381    1.2544   -0.2263 O   0  0  0  0  0  0  0  0  0  0  0  0
    2.2147    1.9592   -0.3133 N   0  0  0  0  0  0  0  0  0  0  0  0
    3.2085    1.2016   -0.5007 C   0  0  0  0  0  0  0  0  0  0  0  0
    0.0894    2.7014    0.9157 H   0  0  0  0  0  0  0  0  0  0  0  0
   -0.1301    2.8499   -0.8488 H   0  0  0  0  0  0  0  0  0  0  0  0
    4.1751    1.6807   -0.5806 H   0  0  0  0  0  0  0  0  0  0  0  0
    3.1148    0.1206   -0.5800 H   0  0  0  0  0  0  0  0  0  0  0  0
   -0.7607   -2.6830   -1.3239 C   0  0  0  0  0  0  0  0  0  0  0  0
   -0.7607   -2.6830    0.1990 C   0  0  0  0  0  0  0  0  0  0  0  0
   -0.7607   -1.2905    0.7951 C   0  0  0  0  0  0  0  0  0  0  0  0
   -1.9458   -0.6270    0.4309 O   0  0  0  0  0  0  0  0  0  0  0  0
   -2.0066    0.6841    0.9161 C   0  0  0  0  0  3  0  0  0  0  0  0
    0.1216   -2.1694   -1.7136 H   0  0  0  0  0  0  0  0  0  0  0  0
   -1.6432   -2.1731   -1.7103 H   0  0  0  0  0  0  0  0  0  0  0  0
   -0.7558   -3.7010   -1.7162 H   0  0  0  0  0  0  0  0  0  0  0  0
   -1.6349   -3.2212    0.5747 H   0  0  0  0  0  0  0  0  0  0  0  0
    0.1210   -3.2092    0.5753 H   0  0  0  0  0  0  0  0  0  0  0  0
   -0.6839   -1.3442    1.8911 H   0  0  0  0  0  0  0  0  0  0  0  0
    0.1116   -0.7234    0.4329 H   0  0  0  0  0  0  0  0  0  0  0  0
   -1.0179    1.4192    0.4473 H   0  0  0  0  0  0  0  0  0  0  0  0
   -1.9646    0.7102    2.0136 H   0  0  0  0  0  0  0  0  0  0  0  0
   -2.9523    1.1142    0.5890 H   0  0  0  0  0  0  0  0  0  0  0  0
  1  2  1  0
  1  5  1  0
  1  6  1  0
  1 21  1  0
  2  3  1  0
  3  4  2  3
  4  7  1  0
  4  8  1  0
  9 10  1  0
  9 14  1  0
  9 15  1  0
  9 16  1  0
 10 11  1  0
 10 17  1  0
 10 18  1  0
 11 12  1  0
 11 19  1  0
 11 20  1  0
 12 13  1  0
 13 22  1  0
 13 23  1  0
M  RAD  1  13   2
M  END
>  <reaction>  (25) 
rmg_rxn_15601

>  <mol_properties>  (25) 
{"0": {"label": "*3", "atom_type": "Cs"}, "1": {"label": "*4", "atom_type": "O2s"}, "11": {"label": "*0", "atom_type": "O2s"}, "12": {"label": "*1", "atom_type": "Cs"}, "20": {"label": "*2", "atom_type": "H0"}}

>  <type>  (25) 
unop_21

>  <geom_source>  (25) 
Heuristics

$$$$

     RDKit          3D

 23 21  0  0  0  0  0  0  0  0999 V2000
    0.6459    1.6641    0.5897 C   0  0  0  0  0  0  0  0  0  0  0  0
    0.4992    1.6519   -0.8166 O   0  0  0  0  0  0  0  0  0  0  0  0
    0.9437    2.8429   -1.3389 N   0  0  0  0  0  0  0  0  0  0  0  0
    0.8325    2.8798   -2.5971 C   0  0  0  0  0  0  0  0  0  0  0  0
    1.6944    1.7820    0.8722 H   0  0  0  0  0  0  0  0  0  0  0  0
    0.0549    2.4663    1.0373 H   0  0  0  0  0  0  0  0  0  0  0  0
    1.1617    3.7867   -3.0865 H   0  0  0  0  0  0  0  0  0  0  0  0
    0.4284    2.0510   -3.1744 H   0  0  0  0  0  0  0  0  0  0  0  0
   -0.0768   -3.1666   -0.7169 C   0  0  0  0  0  0  0  0  0  0  0  0
   -0.0768   -3.1666    0.8060 C   0  0  0  0  0  0  0  0  0  0  0  0
   -0.0768   -1.7741    1.4021 C   0  0  0  0  0  0  0  0  0  0  0  0
   -1.2618   -1.1106    1.0379 O   0  0  0  0  0  0  0  0  0  0  0  0
   -1.3226    0.2005    1.5231 C   0  0  0  0  0  3  0  0  0  0  0  0
    0.8056   -2.6530   -1.1066 H   0  0  0  0  0  0  0  0  0  0  0  0
   -0.9592   -2.6567   -1.1033 H   0  0  0  0  0  0  0  0  0  0  0  0
   -0.0719   -4.1846   -1.1092 H   0  0  0  0  0  0  0  0  0  0  0  0
   -0.9509   -3.7048    1.1816 H   0  0  0  0  0  0  0  0  0  0  0  0
    0.8049   -3.6928    1.1823 H   0  0  0  0  0  0  0  0  0  0  0  0
    0.0000   -1.8278    2.4981 H   0  0  0  0  0  0  0  0  0  0  0  0
    0.7956   -1.2070    1.0399 H   0  0  0  0  0  0  0  0  0  0  0  0
   -0.3340    0.9356    1.0543 H   0  0  0  0  0  0  0  0  0  0  0  0
   -1.2806    0.2266    2.6206 H   0  0  0  0  0  0  0  0  0  0  0  0
   -2.2683    0.6306    1.1960 H   0  0  0  0  0  0  0  0  0  0  0  0
  1  2  1  0
  1  5  1  0
  1  6  1  0
  1 21  1  0
  2  3  1  0
  3  4  2  3
  4  7  1  0
  4  8  1  0
  9 10  1  0
  9 14  1  0
  9 15  1  0
  9 16  1  0
 10 11  1  0
 10 17  1  0
 10 18  1  0
 11 12  1  0
 11 19  1  0
 11 20  1  0
 12 13  1  0
 13 22  1  0
 13 23  1  0
M  RAD  1  13   2
M  END
>  <reaction>  (26) 
rmg_rxn_15601

>  <mol_properties>  (26) 
{"0": {"label": "*3", "atom_type": "Cs"}, "1": {"label": "*4", "atom_type": "O2s"}, "11": {"label": "*0", "atom_type": "O2s"}, "12": {"label": "*1", "atom_type": "Cs"}, "20": {"label": "*2", "atom_type": "H0"}}

>  <type>  (26) 
unop_22

>  <geom_source>  (26) 
Heuristics

$$$$

     RDKit          3D

 23 21  0  0  0  0  0  0  0  0999 V2000
    0.4439    1.2647   -0.4241 C   0  0  0  0  0  0  0  0  0  0  0  0
    0.7132    2.2277    0.5758 O   0  0  0  0  0  0  0  0  0  0  0  0
    1.2690    3.3467    0.0034 N   0  0  0  0  0  0  0  0  0  0  0  0
    1.5281    4.2386    0.8602 C   0  0  0  0  0  0  0  0  0  0  0  0
   -0.2661    1.6520   -1.1584 H   0  0  0  0  0  0  0  0  0  0  0  0
    1.3625    0.9597   -0.9303 H   0  0  0  0  0  0  0  0  0  0  0  0
    1.9692    5.1540    0.4889 H   0  0  0  0  0  0  0  0  0  0  0  0
    1.3246    4.1091    1.9210 H   0  0  0  0  0  0  0  0  0  0  0  0
   -0.2788   -3.5660   -1.7308 C   0  0  0  0  0  0  0  0  0  0  0  0
   -0.2788   -3.5660   -0.2078 C   0  0  0  0  0  0  0  0  0  0  0  0
   -0.2788   -2.1734    0.3882 C   0  0  0  0  0  0  0  0  0  0  0  0
   -1.4638   -1.5099    0.0241 O   0  0  0  0  0  0  0  0  0  0  0  0
   -1.5246   -0.1989    0.5092 C   0  0  0  0  0  3  0  0  0  0  0  0
    0.6036   -3.0523   -2.1205 H   0  0  0  0  0  0  0  0  0  0  0  0
   -1.1612   -3.0561   -2.1172 H   0  0  0  0  0  0  0  0  0  0  0  0
   -0.2739   -4.5840   -2.1230 H   0  0  0  0  0  0  0  0  0  0  0  0
   -1.1529   -4.1041    0.1678 H   0  0  0  0  0  0  0  0  0  0  0  0
    0.6030   -4.0921    0.1684 H   0  0  0  0  0  0  0  0  0  0  0  0
   -0.2020   -2.2271    1.4843 H   0  0  0  0  0  0  0  0  0  0  0  0
    0.5936   -1.6064    0.0260 H   0  0  0  0  0  0  0  0  0  0  0  0
   -0.5359    0.5362    0.0405 H   0  0  0  0  0  0  0  0  0  0  0  0
   -1.4826   -0.1727    1.6067 H   0  0  0  0  0  0  0  0  0  0  0  0
   -2.4703    0.2313    0.1821 H   0  0  0  0  0  0  0  0  0  0  0  0
  1  2  1  0
  1  5  1  0
  1  6  1  0
  1 21  1  0
  2  3  1  0
  3  4  2  3
  4  7  1  0
  4  8  1  0
  9 10  1  0
  9 14  1  0
  9 15  1  0
  9 16  1  0
 10 11  1  0
 10 17  1  0
 10 18  1  0
 11 12  1  0
 11 19  1  0
 11 20  1  0
 12 13  1  0
 13 22  1  0
 13 23  1  0
M  RAD  1  13   2
M  END
>  <reaction>  (27) 
rmg_rxn_15601

>  <mol_properties>  (27) 
{"0": {"label": "*3", "atom_type": "Cs"}, "1": {"label": "*4", "atom_type": "O2s"}, "11": {"label": "*0", "atom_type": "O2s"}, "12": {"label": "*1", "atom_type": "Cs"}, "20": {"label": "*2", "atom_type": "H0"}}

>  <type>  (27) 
unop_23

>  <geom_source>  (27) 
Heuristics

$$$$

     RDKit          3D

 23 21  0  0  0  0  0  0  0  0999 V2000
    0.1252    2.1359    0.3492 C   0  0  0  0  0  0  0  0  0  0  0  0
    0.8786    1.2781   -0.4851 O   0  0  0  0  0  0  0  0  0  0  0  0
    1.9394    1.9678   -1.0214 N   0  0  0  0  0  0  0  0  0  0  0  0
    2.6446    1.2407   -1.7769 C   0  0  0  0  0  0  0  0  0  0  0  0
    0.7332    2.5095    1.1763 H   0  0  0  0  0  0  0  0  0  0  0  0
   -0.2767    2.9786   -0.2180 H   0  0  0  0  0  0  0  0  0  0  0  0
    3.5020    1.7107   -2.2397 H   0  0  0  0  0  0  0  0  0  0  0  0
    2.4156    0.1937   -1.9633 H   0  0  0  0  0  0  0  0  0  0  0  0
   -0.5975   -2.6948   -0.9575 C   0  0  0  0  0  0  0  0  0  0  0  0
   -0.5975   -2.6948    0.5654 C   0  0  0  0  0  0  0  0  0  0  0  0
   -0.5975   -1.3022    1.1615 C   0  0  0  0  0  0  0  0  0  0  0  0
   -1.7825   -0.6387    0.7973 O   0  0  0  0  0  0  0  0  0  0  0  0
   -1.8433    0.6724    1.2825 C   0  0  0  0  0  3  0  0  0  0  0  0
    0.2849   -2.1811   -1.3472 H   0  0  0  0  0  0  0  0  0  0  0  0
   -1.4799   -2.1849   -1.3439 H   0  0  0  0  0  0  0  0  0  0  0  0
   -0.5925   -3.7128   -1.3498 H   0  0  0  0  0  0  0  0  0  0  0  0
   -1.4716   -3.2329    0.9411 H   0  0  0  0  0  0  0  0  0  0  0  0
    0.2843   -3.2209    0.9417 H   0  0  0  0  0  0  0  0  0  0  0  0
   -0.5206   -1.3559    2.2575 H   0  0  0  0  0  0  0  0  0  0  0  0
    0.2749   -0.7351    0.7993 H   0  0  0  0  0  0  0  0  0  0  0  0
   -0.8546    1.4074    0.8138 H   0  0  0  0  0  0  0  0  0  0  0  0
   -1.8013    0.6985    2.3800 H   0  0  0  0  0  0  0  0  0  0  0  0
   -2.7890    1.1025    0.9554 H   0  0  0  0  0  0  0  0  0  0  0  0
  1  2  1  0
  1  5  1  0
  1  6  1  0
  1 21  1  0
  2  3  1  0
  3  4  2  3
  4  7  1  0
  4  8  1  0
  9 10  1  0
  9 14  1  0
  9 15  1  0
  9 16  1  0
 10 11  1  0
 10 17  1  0
 10 18  1  0
 11 12  1  0
 11 19  1  0
 11 20  1  0
 12 13  1  0
 13 22  1  0
 13 23  1  0
M  RAD  1  13   2
M  END
>  <reaction>  (28) 
rmg_rxn_15601

>  <mol_properties>  (28) 
{"0": {"label": "*3", "atom_type": "Cs"}, "1": {"label": "*4", "atom_type": "O2s"}, "11": {"label": "*0", "atom_type": "O2s"}, "12": {"label": "*1", "atom_type": "Cs"}, "20": {"label": "*2", "atom_type": "H0"}}

>  <type>  (28) 
unop_24

>  <geom_source>  (28) 
Heuristics

$$$$

     RDKit          3D

 23 21  0  0  0  0  0  0  0  0999 V2000
    1.3403   -1.0048    1.2913 C   0  0  0  0  0  0  0  0  0  0  0  0
    2.3790   -0.5727    0.4504 O   0  0  0  0  0  0  0  0  0  0  0  0
    1.9690    0.4917   -0.3303 N   0  0  0  0  0  0  0  0  0  0  0  0
    2.8297    0.9785   -1.1076 C   0  0  0  0  0  0  0  0  0  0  0  0
    1.5528   -2.0009    1.6188 H   0  0  0  0  0  0  0  0  0  0  0  0
    1.1349   -0.3141    2.1051 H   0  0  0  0  0  0  0  0  0  0  0  0
    2.5137    1.8065   -1.7178 H   0  0  0  0  0  0  0  0  0  0  0  0
    3.8505    0.6181   -1.1963 H   0  0  0  0  0  0  0  0  0  0  0  0
   -1.6837    1.4492    1.3548 C   0  0  0  0  0  0  0  0  0  0  0  0
   -1.3631    1.2994   -0.1268 C   0  0  0  0  0  0  0  0  0  0  0  0
   -2.2845    0.2764   -0.7991 C   0  0  0  0  0  0  0  0  0  0  0  0
   -2.1583   -1.0195   -0.2627 O   0  0  0  0  0  0  0  0  0  0  0  0
   -1.0364   -1.7133   -0.5997 C   0  0  0  0  0  3  0  0  0  0  0  0
   -0.9795    2.1296    1.8266 H   0  0  0  0  0  0  0  0  0  0  0  0
   -1.6206    0.4833    1.8499 H   0  0  0  0  0  0  0  0  0  0  0  0
   -2.6896    1.8403    1.4934 H   0  0  0  0  0  0  0  0  0  0  0  0
   -1.4920    2.2556   -0.6369 H   0  0  0  0  0  0  0  0  0  0  0  0
   -0.3256    0.9833   -0.2512 H   0  0  0  0  0  0  0  0  0  0  0  0
   -3.3314    0.5506   -0.6378 H   0  0  0  0  0  0  0  0  0  0  0  0
   -2.0818    0.2545   -1.8796 H   0  0  0  0  0  0  0  0  0  0  0  0
    0.4228   -1.2889    0.7275 H   0  0  0  0  0  0  0  0  0  0  0  0
   -0.5241   -1.4393   -1.5103 H   0  0  0  0  0  0  0  0  0  0  0  0
   -1.1068   -2.7539   -0.3337 H   0  0  0  0  0  0  0  0  0  0  0  0
  1  2  1  0
  1  5  1  0
  1  6  1  0
  1 21  1  0
  2  3  1  0
  3  4  2  3
  4  7  1  0
  4  8  1  0
  9 10  1  0
  9 14  1  0
  9 15  1  0
  9 16  1  0
 10 11  1  0
 10 17  1  0
 10 18  1  0
 11 12  1  0
 11 19  1  0
 11 20  1  0
 12 13  1  0
 13 22  1  0
 13 23  1  0
M  RAD  1  13   2
M  END
>  <reaction>  (29) 
rmg_rxn_15601

>  <mol_properties>  (29) 
{"0": {"label": "*3", "atom_type": "Cs"}, "1": {"label": "*4", "atom_type": "O2s"}, "11": {"label": "*0", "atom_type": "O2s"}, "12": {"label": "*1", "atom_type": "Cs"}, "20": {"label": "*2", "atom_type": "H0"}}

>  <type>  (29) 
unop_25

>  <geom_source>  (29) 
Heuristics

$$$$

     RDKit          3D

 23 21  0  0  0  0  0  0  0  0999 V2000
   -1.1193   -1.1221    0.4574 O   0  0  0  0  0  0  0  0  0  0  0  0
    3.4340   -0.6965   -0.6888 O   0  0  0  0  0  0  0  0  0  0  0  0
    3.7023    0.4442    0.0514 N   0  0  0  0  0  0  0  0  0  0  0  0
   -2.3318    0.9464    0.6199 C   0  0  0  0  0  0  0  0  0  0  0  0
   -0.9648    0.2616    0.6668 C   0  0  0  0  0  0  0  0  0  0  0  0
   -2.9711    0.8479   -0.7638 C   0  0  0  0  0  0  0  0  0  0  0  0
    2.1179   -1.1324   -1.0164 C   0  0  0  0  0  0  0  0  0  0  0  0
    0.1586   -1.6958    0.5032 C   0  0  0  0  0  3  0  0  0  0  0  0
    2.7985    1.2460    0.5251 C   0  0  0  0  0  0  0  0  0  0  0  0
   -3.0062    0.4821    1.3719 H   0  0  0  0  0  0  0  0  0  0  0  0
   -2.2086    2.0193    0.8828 H   0  0  0  0  0  0  0  0  0  0  0  0
   -0.5204    0.4545    1.6712 H   0  0  0  0  0  0  0  0  0  0  0  0
   -0.3075    0.7142   -0.1130 H   0  0  0  0  0  0  0  0  0  0  0  0
   -3.1456   -0.2143   -1.0371 H   0  0  0  0  0  0  0  0  0  0  0  0
   -3.9478    1.3760   -0.7592 H   0  0  0  0  0  0  0  0  0  0  0  0
   -2.3162    1.3206   -1.5265 H   0  0  0  0  0  0  0  0  0  0  0  0
    2.1815   -2.0722   -1.6021 H   0  0  0  0  0  0  0  0  0  0  0  0
    1.6042   -0.3632   -1.6306 H   0  0  0  0  0  0  0  0  0  0  0  0
    1.4183   -1.3702    0.1112 H   0  0  0  0  0  0  0  0  0  0  0  0
    3.1023    2.1144    1.0930 H   0  0  0  0  0  0  0  0  0  0  0  0
    1.7430    1.0726    0.3682 H   0  0  0  0  0  0  0  0  0  0  0  0
    0.3921   -2.1588   -0.4780 H   0  0  0  0  0  0  0  0  0  0  0  0
    0.1868   -2.4743    1.2935 H   0  0  0  0  0  0  0  0  0  0  0  0
  1  8  1  0
  1  5  1  0
  2  7  1  0
  2  3  1  0
  3  9  2  3
  4  6  1  0
  4  5  1  0
  4 10  1  0
  4 11  1  0
  5 12  1  0
  5 13  1  0
  6 14  1  0
  6 15  1  0
  6 16  1  0
  7 17  1  0
  7 18  1  0
  7 19  1  0
  8 22  1  0
  8 23  1  0
  9 20  1  0
  9 21  1  0
M  RAD  1   8   2
M  END
>  <reaction>  (30) 
rmg_rxn_15601

>  <mol_properties>  (30) 
{"0": {"label": "*3", "atom_type": "Cs"}, "1": {"label": "*4", "atom_type": "O2s"}, "11": {"label": "*0", "atom_type": "O2s"}, "12": {"label": "*1", "atom_type": "Cs"}, "20": {"label": "*2", "atom_type": "H0"}}

>  <type>  (30) 
unop_26

>  <geom_source>  (30) 
AutoTST

$$$$

     RDKit          3D

 23 21  0  0  0  0  0  0  0  0999 V2000
    0.3941    1.9469    0.5794 C   0  0  0  0  0  0  0  0  0  0  0  0
    0.6999    1.4115   -0.6932 O   0  0  0  0  0  0  0  0  0  0  0  0
    1.4095    2.3333   -1.4250 N   0  0  0  0  0  0  0  0  0  0  0  0
    1.7069    1.8991   -2.5739 C   0  0  0  0  0  0  0  0  0  0  0  0
    1.3055    2.1830    1.1333 H   0  0  0  0  0  0  0  0  0  0  0  0
   -0.2204    2.8453    0.4879 H   0  0  0  0  0  0  0  0  0  0  0  0
    2.2676    2.5668   -3.2143 H   0  0  0  0  0  0  0  0  0  0  0  0
    1.4216    0.9072   -2.9176 H   0  0  0  0  0  0  0  0  0  0  0  0
   -0.3286   -2.8838   -0.7272 C   0  0  0  0  0  0  0  0  0  0  0  0
   -0.3286   -2.8838    0.7957 C   0  0  0  0  0  0  0  0  0  0  0  0
   -0.3286   -1.4912    1.3918 C   0  0  0  0  0  0  0  0  0  0  0  0
   -1.5136   -0.8278    1.0276 O   0  0  0  0  0  0  0  0  0  0  0  0
   -1.5744    0.4833    1.5128 C   0  0  0  0  0  3  0  0  0  0  0  0
    0.5538   -2.3701   -1.1169 H   0  0  0  0  0  0  0  0  0  0  0  0
   -1.2110   -2.3739   -1.1136 H   0  0  0  0  0  0  0  0  0  0  0  0
   -0.3237   -3.9018   -1.1195 H   0  0  0  0  0  0  0  0  0  0  0  0
   -1.2027   -3.4219    1.1713 H   0  0  0  0  0  0  0  0  0  0  0  0
    0.5532   -3.4099    1.1720 H   0  0  0  0  0  0  0  0  0  0  0  0
   -0.2518   -1.5449    2.4878 H   0  0  0  0  0  0  0  0  0  0  0  0
    0.5438   -0.9242    1.0295 H   0  0  0  0  0  0  0  0  0  0  0  0
   -0.5857    1.2184    1.0440 H   0  0  0  0  0  0  0  0  0  0  0  0
   -1.5324    0.5094    2.6103 H   0  0  0  0  0  0  0  0  0  0  0  0
   -2.5201    0.9135    1.1856 H   0  0  0  0  0  0  0  0  0  0  0  0
  1  2  1  0
  1  5  1  0
  1  6  1  0
  1 21  1  0
  2  3  1  0
  3  4  2  3
  4  7  1  0
  4  8  1  0
  9 10  1  0
  9 14  1  0
  9 15  1  0
  9 16  1  0
 10 11  1  0
 10 17  1  0
 10 18  1  0
 11 12  1  0
 11 19  1  0
 11 20  1  0
 12 13  1  0
 13 22  1  0
 13 23  1  0
M  RAD  1  13   2
M  END
>  <reaction>  (31) 
rmg_rxn_15601

>  <mol_properties>  (31) 
{"0": {"label": "*3", "atom_type": "Cs"}, "1": {"label": "*4", "atom_type": "O2s"}, "11": {"label": "*0", "atom_type": "O2s"}, "12": {"label": "*1", "atom_type": "Cs"}, "20": {"label": "*2", "atom_type": "H0"}}

>  <type>  (31) 
unop_27

>  <geom_source>  (31) 
gaussian_log

$$$$
