
     RDKit          3D

  9  8  0  0  0  0  0  0  0  0999 V2000
   -1.5470   -0.0755   -0.1976 C   0  0  0  0  0  0  0  0  0  0  0  0
   -0.2885    0.4507    0.1749 O   0  0  0  0  0  0  0  0  0  0  0  0
   -0.1502    1.7216   -0.3294 N   0  0  0  0  0  0  0  0  0  0  0  0
    0.9626    2.2353   -0.0219 C   0  0  0  0  0  0  0  0  0  0  0  0
   -1.6392   -0.1356   -1.2844 H   0  0  0  0  0  0  0  0  0  0  0  0
   -2.3597    0.5337    0.2044 H   0  0  0  0  0  0  0  0  0  0  0  0
   -1.5879   -1.0750    0.2318 H   0  0  0  0  0  0  0  0  0  0  0  0
    1.1497    3.2381   -0.3820 H   0  0  0  0  0  0  0  0  0  0  0  0
    1.7060    1.7101    0.5739 H   0  0  0  0  0  0  0  0  0  0  0  0
  1  2  1  0
  1  5  1  0
  1  6  1  0
  1  7  1  0
  2  3  1  0
  3  4  2  3
  4  8  1  0
  4  9  1  0
M  END
>  <reaction>  (1) 
rmg_rxn_15615

>  <mol_properties>  (1) 
{"0": {"label": "donator", "atom_type": "Cs"}, "4": {"label": "d_hydrogen", "atom_type": "H0"}}

>  <type>  (1) 
r1h

$$$$

     RDKit          3D

 17 16  0  0  0  0  0  0  0  0999 V2000
    2.3993   -0.7259   -0.8796 C   0  0  0  0  0  0  0  0  0  0  0  0
    1.8173   -0.7170    0.4851 C   0  0  0  0  0  3  0  0  0  0  0  0
    2.6779   -0.5182    1.6852 C   0  0  0  0  0  0  0  0  0  0  0  0
    3.8710   -1.2723    1.6674 O   0  0  0  0  0  0  0  0  0  0  0  0
    3.6589   -2.6587    1.8015 C   0  0  0  0  0  0  0  0  0  0  0  0
    4.9969   -3.3586    1.7556 C   0  0  0  0  0  0  0  0  0  0  0  0
    3.3755   -1.2152   -0.8894 H   0  0  0  0  0  0  0  0  0  0  0  0
    1.7457   -1.2284   -1.5943 H   0  0  0  0  0  0  0  0  0  0  0  0
    2.5578    0.2962   -1.2545 H   0  0  0  0  0  0  0  0  0  0  0  0
    0.7445   -0.6275    0.6059 H   0  0  0  0  0  0  0  0  0  0  0  0
    2.1057   -0.7316    2.5992 H   0  0  0  0  0  0  0  0  0  0  0  0
    3.0103    0.5272    1.7516 H   0  0  0  0  0  0  0  0  0  0  0  0
    3.0050   -3.0235    0.9977 H   0  0  0  0  0  0  0  0  0  0  0  0
    3.1469   -2.8645    2.7531 H   0  0  0  0  0  0  0  0  0  0  0  0
    5.6430   -3.0039    2.5594 H   0  0  0  0  0  0  0  0  0  0  0  0
    4.8641   -4.4360    1.8660 H   0  0  0  0  0  0  0  0  0  0  0  0
    5.4957   -3.1672    0.8046 H   0  0  0  0  0  0  0  0  0  0  0  0
  1  2  1  0
  1  7  1  0
  1  8  1  0
  1  9  1  0
  2  3  1  0
  2 10  1  0
  3  4  1  0
  3 11  1  0
  3 12  1  0
  4  5  1  0
  5  6  1  0
  5 13  1  0
  5 14  1  0
  6 15  1  0
  6 16  1  0
  6 17  1  0
M  RAD  1   2   2
M  END
>  <reaction>  (2) 
rmg_rxn_15615

>  <mol_properties>  (2) 
{"1": {"label": "acceptor", "atom_type": "Cs"}}

>  <type>  (2) 
r2

$$$$

     RDKit          3D

 18 17  0  0  0  0  0  0  0  0999 V2000
    2.2026   -0.7213   -0.2612 C   0  0  0  0  0  0  0  0  0  0  0  0
    1.5384    0.2638    0.6915 C   0  0  0  0  0  0  0  0  0  0  0  0
    2.2584    1.5946    0.7694 C   0  0  0  0  0  0  0  0  0  0  0  0
    2.2212    2.2185   -0.4893 O   0  0  0  0  0  0  0  0  0  0  0  0
    2.8988    3.4488   -0.5204 C   0  0  0  0  0  0  0  0  0  0  0  0
    2.7981    4.0296   -1.9118 C   0  0  0  0  0  0  0  0  0  0  0  0
    3.2294   -0.9309    0.0486 H   0  0  0  0  0  0  0  0  0  0  0  0
    2.2338   -0.3181   -1.2734 H   0  0  0  0  0  0  0  0  0  0  0  0
    1.6610   -1.6680   -0.2875 H   0  0  0  0  0  0  0  0  0  0  0  0
    1.4990   -0.1566    1.7002 H   0  0  0  0  0  0  0  0  0  0  0  0
    0.5055    0.4455    0.3835 H   0  0  0  0  0  0  0  0  0  0  0  0
    3.3038    1.4410    1.0808 H   0  0  0  0  0  0  0  0  0  0  0  0
    1.7844    2.2410    1.5226 H   0  0  0  0  0  0  0  0  0  0  0  0
    2.4596    4.1376    0.2164 H   0  0  0  0  0  0  0  0  0  0  0  0
    3.9524    3.3035   -0.2397 H   0  0  0  0  0  0  0  0  0  0  0  0
    1.7543    4.1869   -2.1856 H   0  0  0  0  0  0  0  0  0  0  0  0
    3.2472    3.3545   -2.6411 H   0  0  0  0  0  0  0  0  0  0  0  0
    3.3178    4.9878   -1.9600 H   0  0  0  0  0  0  0  0  0  0  0  0
  1  2  1  0
  1  7  1  0
  1  8  1  0
  1  9  1  0
  2  3  1  0
  2 10  1  0
  2 11  1  0
  3  4  1  0
  3 12  1  0
  3 13  1  0
  4  5  1  0
  5  6  1  0
  5 14  1  0
  5 15  1  0
  6 16  1  0
  6 17  1  0
  6 18  1  0
M  END
>  <reaction>  (3) 
rmg_rxn_15615

>  <mol_properties>  (3) 
{"0": {"label": "a_hydrogen", "atom_type": "H0"}, "2": {"label": "acceptor", "atom_type": "Cs"}}

>  <type>  (3) 
r2h

$$$$

     RDKit          3D

 26 24  0  0  0  0  0  0  0  0999 V2000
    1.2976   -0.2689    1.3056 C   0  0  0  0  0  3  0  0  0  0  0  0
    2.2717    0.0521    0.3631 O   0  0  0  0  0  0  0  0  0  0  0  0
    1.7522    0.8599   -0.6206 N   0  0  0  0  0  0  0  0  0  0  0  0
    2.6052    1.1205   -1.5166 C   0  0  0  0  0  0  0  0  0  0  0  0
    0.4201   -1.1274    0.7452 H   0  0  0  0  0  0  0  0  0  0  0  0
    0.6919    0.5848    1.6060 H   0  0  0  0  0  0  0  0  0  0  0  0
    1.7848   -0.7893    2.1253 H   0  0  0  0  0  0  0  0  0  0  0  0
    2.2772    1.7595   -2.3255 H   0  0  0  0  0  0  0  0  0  0  0  0
    3.6210    0.7331   -1.4892 H   0  0  0  0  0  0  0  0  0  0  0  0
    0.3628   -2.5364   -1.0547 C   0  0  0  0  0  0  0  0  0  0  0  0
   -0.4477   -1.8480    0.0104 C   0  0  0  0  0  0  0  0  0  0  0  0
   -1.4088   -0.8094   -0.4840 C   0  0  0  0  0  0  0  0  0  0  0  0
   -2.0778   -0.2357    0.6149 O   0  0  0  0  0  0  0  0  0  0  0  0
   -2.7486    0.9667    0.3110 C   0  0  0  0  0  0  0  0  0  0  0  0
   -1.8298    2.1757    0.3731 C   0  0  0  0  0  0  0  0  0  0  0  0
   -0.2687   -3.1433   -1.7133 H   0  0  0  0  0  0  0  0  0  0  0  0
    0.8867   -1.8091   -1.6798 H   0  0  0  0  0  0  0  0  0  0  0  0
    1.1100   -3.1988   -0.6155 H   0  0  0  0  0  0  0  0  0  0  0  0
   -0.9020   -2.5224    0.7365 H   0  0  0  0  0  0  0  0  0  0  0  0
   -2.1460   -1.2537   -1.1754 H   0  0  0  0  0  0  0  0  0  0  0  0
   -0.8521   -0.0480   -1.0469 H   0  0  0  0  0  0  0  0  0  0  0  0
   -3.5480    1.0648    1.0483 H   0  0  0  0  0  0  0  0  0  0  0  0
   -3.2228    0.8941   -0.6772 H   0  0  0  0  0  0  0  0  0  0  0  0
   -0.9885    2.0755   -0.3147 H   0  0  0  0  0  0  0  0  0  0  0  0
   -2.3789    3.0839    0.1154 H   0  0  0  0  0  0  0  0  0  0  0  0
   -1.4284    2.2914    1.3811 H   0  0  0  0  0  0  0  0  0  0  0  0
  1  2  1  0
  1  6  1  0
  1  7  1  0
  2  3  1  0
  3  4  2  3
  4  8  1  0
  4  9  1  0
  5 11  1  0
 10 11  1  0
 10 16  1  0
 10 17  1  0
 10 18  1  0
 11 12  1  0
 11 19  1  0
 12 13  1  0
 12 20  1  0
 12 21  1  0
 13 14  1  0
 14 15  1  0
 14 22  1  0
 14 23  1  0
 15 24  1  0
 15 25  1  0
 15 26  1  0
M  RAD  1   1   2
M  END
>  <reaction>  (4) 
rmg_rxn_15615

>  <mol_properties>  (4) 
{"0": {"label": "*3", "atom_type": "Cs"}, "1": {"label": "*4", "atom_type": "O2s"}, "4": {"label": "*2", "atom_type": "H0"}, "10": {"label": "*1", "atom_type": "Cs"}, "11": {"label": "*0", "atom_type": "Cs"}}

>  <type>  (4) 
ts

$$$$

     RDKit          3D

 26 24  0  0  0  0  0  0  0  0999 V2000
   -1.5665    0.0428   -1.1351 C   0  0  0  0  0  3  0  0  0  0  0  0
   -2.6128   -0.5665   -0.4638 O   0  0  0  0  0  0  0  0  0  0  0  0
   -2.3953   -1.5557    0.4328 N   0  0  0  0  0  0  0  0  0  0  0  0
   -1.2331   -1.8877    0.8025 C   0  0  0  0  0  0  0  0  0  0  0  0
   -0.8953    0.8668   -0.3186 H   0  0  0  0  0  0  0  0  0  0  0  0
   -2.0065    0.6681   -1.9041 H   0  0  0  0  0  0  0  0  0  0  0  0
   -0.8124   -0.6455   -1.5140 H   0  0  0  0  0  0  0  0  0  0  0  0
   -1.1927   -2.6965    1.5121 H   0  0  0  0  0  0  0  0  0  0  0  0
   -0.2971   -1.4314    0.4964 H   0  0  0  0  0  0  0  0  0  0  0  0
   -0.6636    3.0642    0.2572 C   0  0  0  0  0  0  0  0  0  0  0  0
   -0.1922    1.6481    0.4660 C   0  0  0  0  0  0  0  0  0  0  0  0
    1.2423    1.3993    0.0665 C   0  0  0  0  0  0  0  0  0  0  0  0
    1.4925    0.0115    0.1005 O   0  0  0  0  0  0  0  0  0  0  0  0
    2.8188   -0.3339   -0.2288 C   0  0  0  0  0  0  0  0  0  0  0  0
    2.9593   -1.8461   -0.1624 C   0  0  0  0  0  0  0  0  0  0  0  0
   -0.1164    3.7571    0.9000 H   0  0  0  0  0  0  0  0  0  0  0  0
   -0.5119    3.3738   -0.7752 H   0  0  0  0  0  0  0  0  0  0  0  0
   -1.7212    3.1485    0.4943 H   0  0  0  0  0  0  0  0  0  0  0  0
   -0.3923    1.2814    1.4707 H   0  0  0  0  0  0  0  0  0  0  0  0
    1.9375    1.9172    0.7540 H   0  0  0  0  0  0  0  0  0  0  0  0
    1.4312    1.7891   -0.9480 H   0  0  0  0  0  0  0  0  0  0  0  0
    3.5154    0.1474    0.4763 H   0  0  0  0  0  0  0  0  0  0  0  0
    3.0584    0.0310   -1.2408 H   0  0  0  0  0  0  0  0  0  0  0  0
    2.7149   -2.1965    0.8367 H   0  0  0  0  0  0  0  0  0  0  0  0
    2.2802   -2.3149   -0.8696 H   0  0  0  0  0  0  0  0  0  0  0  0
    3.9784   -2.1345   -0.4032 H   0  0  0  0  0  0  0  0  0  0  0  0
  1  2  1  0
  1  6  1  0
  1  7  1  0
  2  3  1  0
  3  4  2  3
  4  8  1  0
  4  9  1  0
  5 11  1  0
 10 11  1  0
 10 16  1  0
 10 17  1  0
 10 18  1  0
 11 12  1  0
 11 19  1  0
 12 13  1  0
 12 20  1  0
 12 21  1  0
 13 14  1  0
 14 15  1  0
 14 22  1  0
 14 23  1  0
 15 24  1  0
 15 25  1  0
 15 26  1  0
M  RAD  1   1   2
M  END
>  <reaction>  (5) 
rmg_rxn_15615

>  <mol_properties>  (5) 
{"0": {"label": "*3", "atom_type": "Cs"}, "1": {"label": "*4", "atom_type": "O2s"}, "4": {"label": "*2", "atom_type": "H0"}, "10": {"label": "*1", "atom_type": "Cs"}, "11": {"label": "*0", "atom_type": "Cs"}}

>  <type>  (5) 
unop_1

>  <geom_source>  (5) 
crest_best.xyz

$$$$

     RDKit          3D

 26 24  0  0  0  0  0  0  0  0999 V2000
   -2.0286    1.8788   -0.1331 C   0  0  0  0  0  0  0  0  0  0  0  0
   -2.0286    1.9368   -1.5460 O   0  0  0  0  0  0  0  0  0  0  0  0
   -2.0286    0.6629   -2.0617 N   0  0  0  0  0  0  0  0  0  0  0  0
   -2.0286    0.6629   -3.3253 C   0  0  0  0  0  0  0  0  0  0  0  0
   -0.9580    1.2667    0.3110 H   0  0  0  0  0  0  0  0  0  0  0  0
   -2.9207    1.3687    0.2370 H   0  0  0  0  0  0  0  0  0  0  0  0
   -2.0286    2.9137    0.2047 H   0  0  0  0  0  0  0  0  0  0  0  0
   -2.0286   -0.3042   -3.8102 H   0  0  0  0  0  0  0  0  0  0  0  0
   -2.0286    1.5794   -3.9115 H   0  0  0  0  0  0  0  0  0  0  0  0
    0.9185    1.5877    1.6497 C   0  0  0  0  0  0  0  0  0  0  0  0
    0.1138    0.6538    0.7556 C   0  0  0  0  0  3  0  0  0  0  0  0
    0.9283   -0.5055    0.2192 C   0  0  0  0  0  0  0  0  0  0  0  0
    1.3618   -1.3052    1.2904 O   0  0  0  0  0  0  0  0  0  0  0  0
    2.1583   -2.3901    0.8877 C   0  0  0  0  0  0  0  0  0  0  0  0
    2.5683   -3.1784    2.1100 C   0  0  0  0  0  0  0  0  0  0  0  0
    1.7640    2.0158    1.1053 H   0  0  0  0  0  0  0  0  0  0  0  0
    0.3023    2.4118    2.0124 H   0  0  0  0  0  0  0  0  0  0  0  0
    1.3129    1.0513    2.5127 H   0  0  0  0  0  0  0  0  0  0  0  0
   -0.7413    0.2522    1.3055 H   0  0  0  0  0  0  0  0  0  0  0  0
    1.7974   -0.1287   -0.3430 H   0  0  0  0  0  0  0  0  0  0  0  0
    0.3243   -1.1061   -0.4768 H   0  0  0  0  0  0  0  0  0  0  0  0
    3.0458   -2.0244    0.3505 H   0  0  0  0  0  0  0  0  0  0  0  0
    1.5973   -3.0284    0.1890 H   0  0  0  0  0  0  0  0  0  0  0  0
    1.6893   -3.5531    2.6357 H   0  0  0  0  0  0  0  0  0  0  0  0
    3.1885   -4.0284    1.8212 H   0  0  0  0  0  0  0  0  0  0  0  0
    3.1379   -2.5507    2.7962 H   0  0  0  0  0  0  0  0  0  0  0  0
  1  2  1  0
  1  5  1  0
  1  6  1  0
  1  7  1  0
  2  3  1  0
  3  4  2  3
  4  8  1  0
  4  9  1  0
 10 11  1  0
 10 16  1  0
 10 17  1  0
 10 18  1  0
 11 12  1  0
 11 19  1  0
 12 13  1  0
 12 20  1  0
 12 21  1  0
 13 14  1  0
 14 15  1  0
 14 22  1  0
 14 23  1  0
 15 24  1  0
 15 25  1  0
 15 26  1  0
M  RAD  1  11   2
M  END
>  <reaction>  (6) 
rmg_rxn_15615

>  <mol_properties>  (6) 
{"0": {"label": "*3", "atom_type": "Cs"}, "1": {"label": "*4", "atom_type": "O2s"}, "4": {"label": "*2", "atom_type": "H0"}, "10": {"label": "*1", "atom_type": "Cs"}, "11": {"label": "*0", "atom_type": "Cs"}}

>  <type>  (6) 
unop_2

>  <geom_source>  (6) 
Heuristics

$$$$

     RDKit          3D

 26 24  0  0  0  0  0  0  0  0999 V2000
    1.1547   -0.4269    1.5046 C   0  0  0  0  0  3  0  0  0  0  0  0
    2.1607   -0.2530    0.5669 O   0  0  0  0  0  0  0  0  0  0  0  0
    1.9541    0.8546   -0.2291 N   0  0  0  0  0  0  0  0  0  0  0  0
    2.8102    1.0544   -1.1366 C   0  0  0  0  0  0  0  0  0  0  0  0
    0.0963   -0.9774    0.8895 H   0  0  0  0  0  0  0  0  0  0  0  0
    0.8027    0.5057    1.9391 H   0  0  0  0  0  0  0  0  0  0  0  0
    1.5051   -1.1484    2.2338 H   0  0  0  0  0  0  0  0  0  0  0  0
    2.6583    1.9201   -1.7562 H   0  0  0  0  0  0  0  0  0  0  0  0
    3.6708    0.4177   -1.3160 H   0  0  0  0  0  0  0  0  0  0  0  0
   -0.1380   -2.7653   -0.4292 C   0  0  0  0  0  0  0  0  0  0  0  0
   -0.8359   -1.5779    0.1879 C   0  0  0  0  0  0  0  0  0  0  0  0
   -1.3915   -0.6029   -0.8365 C   0  0  0  0  0  0  0  0  0  0  0  0
   -2.4376    0.2133   -0.3584 O   0  0  0  0  0  0  0  0  0  0  0  0
   -2.0902    1.1925    0.5991 C   0  0  0  0  0  0  0  0  0  0  0  0
   -1.1865    2.3028    0.0657 C   0  0  0  0  0  0  0  0  0  0  0  0
    0.2849   -3.4045    0.3426 H   0  0  0  0  0  0  0  0  0  0  0  0
   -0.8323   -3.3627   -1.0228 H   0  0  0  0  0  0  0  0  0  0  0  0
    0.6665   -2.4352   -1.0840 H   0  0  0  0  0  0  0  0  0  0  0  0
   -1.5971   -1.8688    0.9104 H   0  0  0  0  0  0  0  0  0  0  0  0
   -1.8557   -1.1656   -1.6576 H   0  0  0  0  0  0  0  0  0  0  0  0
   -0.5809    0.0022   -1.2666 H   0  0  0  0  0  0  0  0  0  0  0  0
   -1.6291    0.7221    1.4787 H   0  0  0  0  0  0  0  0  0  0  0  0
   -3.0533    1.6143    0.9010 H   0  0  0  0  0  0  0  0  0  0  0  0
   -1.1220    3.0964    0.8055 H   0  0  0  0  0  0  0  0  0  0  0  0
   -0.1822    1.9375   -0.1371 H   0  0  0  0  0  0  0  0  0  0  0  0
   -1.6066    2.7112   -0.8503 H   0  0  0  0  0  0  0  0  0  0  0  0
  1  2  1  0
  1  6  1  0
  1  7  1  0
  2  3  1  0
  3  4  2  3
  4  8  1  0
  4  9  1  0
  5 11  1  0
 10 11  1  0
 10 16  1  0
 10 17  1  0
 10 18  1  0
 11 12  1  0
 11 19  1  0
 12 13  1  0
 12 20  1  0
 12 21  1  0
 13 14  1  0
 14 15  1  0
 14 22  1  0
 14 23  1  0
 15 24  1  0
 15 25  1  0
 15 26  1  0
M  RAD  1   1   2
M  END
>  <reaction>  (7) 
rmg_rxn_15615

>  <mol_properties>  (7) 
{"0": {"label": "*3", "atom_type": "Cs"}, "1": {"label": "*4", "atom_type": "O2s"}, "4": {"label": "*2", "atom_type": "H0"}, "10": {"label": "*1", "atom_type": "Cs"}, "11": {"label": "*0", "atom_type": "Cs"}}

>  <type>  (7) 
unop_3

>  <geom_source>  (7) 
Heuristics

$$$$

     RDKit          3D

 26 24  0  0  0  0  0  0  0  0999 V2000
   -1.5204    0.2025    1.7454 C   0  0  0  0  0  3  0  0  0  0  0  0
   -2.4495    0.3429    0.7949 O   0  0  0  0  0  0  0  0  0  0  0  0
   -2.0331    0.0382   -0.4776 N   0  0  0  0  0  0  0  0  0  0  0  0
   -2.9098    0.1815   -1.3920 C   0  0  0  0  0  0  0  0  0  0  0  0
    3.0790    2.1513   -0.5201 H   0  0  0  0  0  0  0  0  0  0  0  0
   -0.5274   -0.1232    1.5001 H   0  0  0  0  0  0  0  0  0  0  0  0
   -1.8687    0.4388    2.7292 H   0  0  0  0  0  0  0  0  0  0  0  0
   -2.5981   -0.0547   -2.3925 H   0  0  0  0  0  0  0  0  0  0  0  0
   -3.9248    0.5201   -1.2148 H   0  0  0  0  0  0  0  0  0  0  0  0
    0.8880    2.1015   -0.5302 C   0  0  0  0  0  0  0  0  0  0  0  0
    2.2504    1.4358   -0.5320 C   0  0  0  0  0  0  0  0  0  0  0  0
    2.4203    0.4023    0.5768 C   0  0  0  0  0  0  0  0  0  0  0  0
    1.4362   -0.6046    0.5829 O   0  0  0  0  0  0  0  0  0  0  0  0
    1.5227   -1.5298   -0.4811 C   0  0  0  0  0  0  0  0  0  0  0  0
    0.3727   -2.5156   -0.3506 C   0  0  0  0  0  0  0  0  0  0  0  0
    0.7214    2.6159    0.4139 H   0  0  0  0  0  0  0  0  0  0  0  0
    0.8120    2.8245   -1.3389 H   0  0  0  0  0  0  0  0  0  0  0  0
    0.1083    1.3538   -0.6566 H   0  0  0  0  0  0  0  0  0  0  0  0
    2.5299    1.0593   -1.4953 H   0  0  0  0  0  0  0  0  0  0  0  0
    2.3191    0.8925    1.5496 H   0  0  0  0  0  0  0  0  0  0  0  0
    3.4225   -0.0508    0.5128 H   0  0  0  0  0  0  0  0  0  0  0  0
    2.4925   -2.0527   -0.4348 H   0  0  0  0  0  0  0  0  0  0  0  0
    1.4588   -1.0131   -1.4479 H   0  0  0  0  0  0  0  0  0  0  0  0
    0.4111   -3.0048    0.6190 H   0  0  0  0  0  0  0  0  0  0  0  0
   -0.5707   -1.9836   -0.4404 H   0  0  0  0  0  0  0  0  0  0  0  0
    0.4376   -3.2665   -1.1331 H   0  0  0  0  0  0  0  0  0  0  0  0
  1  2  1  0
  1  6  1  0
  1  7  1  0
  2  3  1  0
  3  4  2  3
  4  8  1  0
  4  9  1  0
  5 11  1  0
 10 11  1  0
 10 16  1  0
 10 17  1  0
 10 18  1  0
 11 12  1  0
 11 19  1  0
 12 13  1  0
 12 20  1  0
 12 21  1  0
 13 14  1  0
 14 15  1  0
 14 22  1  0
 14 23  1  0
 15 24  1  0
 15 25  1  0
 15 26  1  0
M  RAD  1   1   2
M  END
>  <reaction>  (8) 
rmg_rxn_15615

>  <mol_properties>  (8) 
{"0": {"label": "*3", "atom_type": "Cs"}, "1": {"label": "*4", "atom_type": "O2s"}, "4": {"label": "*2", "atom_type": "H0"}, "10": {"label": "*1", "atom_type": "Cs"}, "11": {"label": "*0", "atom_type": "Cs"}}

>  <type>  (8) 
unop_4

>  <geom_source>  (8) 
Heuristics

$$$$

     RDKit          3D

 26 24  0  0  0  0  0  0  0  0999 V2000
    1.4245   -0.6536    1.3532 C   0  0  0  0  0  3  0  0  0  0  0  0
    2.1975   -0.0123    0.4016 O   0  0  0  0  0  0  0  0  0  0  0  0
    1.6773    1.2053    0.0202 N   0  0  0  0  0  0  0  0  0  0  0  0
    2.2888    1.8004   -0.9127 C   0  0  0  0  0  0  0  0  0  0  0  0
    0.4701   -1.3611    0.7318 H   0  0  0  0  0  0  0  0  0  0  0  0
    0.8694    0.0258    1.9929 H   0  0  0  0  0  0  0  0  0  0  0  0
    2.0514   -1.3637    1.8809 H   0  0  0  0  0  0  0  0  0  0  0  0
    1.8947    2.7551   -1.2120 H   0  0  0  0  0  0  0  0  0  0  0  0
    3.1724    1.4134   -1.4111 H   0  0  0  0  0  0  0  0  0  0  0  0
    0.1647   -2.8098   -1.0062 C   0  0  0  0  0  0  0  0  0  0  0  0
   -0.4805   -1.9611    0.0593 C   0  0  0  0  0  0  0  0  0  0  0  0
   -1.3258   -0.8270   -0.4678 C   0  0  0  0  0  0  0  0  0  0  0  0
   -1.7589   -0.0515    0.6289 O   0  0  0  0  0  0  0  0  0  0  0  0
   -2.5018    1.0960    0.2901 C   0  0  0  0  0  0  0  0  0  0  0  0
   -1.6759    2.1948   -0.3796 C   0  0  0  0  0  0  0  0  0  0  0  0
   -0.5884   -3.3088   -1.6200 H   0  0  0  0  0  0  0  0  0  0  0  0
    0.7803   -2.1978   -1.6631 H   0  0  0  0  0  0  0  0  0  0  0  0
    0.7934   -3.5738   -0.5555 H   0  0  0  0  0  0  0  0  0  0  0  0
   -1.0161   -2.5420    0.8063 H   0  0  0  0  0  0  0  0  0  0  0  0
   -2.2054   -1.2115   -1.0204 H   0  0  0  0  0  0  0  0  0  0  0  0
   -0.7327   -0.2205   -1.1669 H   0  0  0  0  0  0  0  0  0  0  0  0
   -2.8895    1.4583    1.2460 H   0  0  0  0  0  0  0  0  0  0  0  0
   -3.3540    0.8201   -0.3515 H   0  0  0  0  0  0  0  0  0  0  0  0
   -1.4522    1.9468   -1.4144 H   0  0  0  0  0  0  0  0  0  0  0  0
   -2.2322    3.1279   -0.3633 H   0  0  0  0  0  0  0  0  0  0  0  0
   -0.7381    2.3224    0.1557 H   0  0  0  0  0  0  0  0  0  0  0  0
  1  2  1  0
  1  6  1  0
  1  7  1  0
  2  3  1  0
  3  4  2  3
  4  8  1  0
  4  9  1  0
  5 11  1  0
 10 11  1  0
 10 16  1  0
 10 17  1  0
 10 18  1  0
 11 12  1  0
 11 19  1  0
 12 13  1  0
 12 20  1  0
 12 21  1  0
 13 14  1  0
 14 15  1  0
 14 22  1  0
 14 23  1  0
 15 24  1  0
 15 25  1  0
 15 26  1  0
M  RAD  1   1   2
M  END
>  <reaction>  (9) 
rmg_rxn_15615

>  <mol_properties>  (9) 
{"0": {"label": "*3", "atom_type": "Cs"}, "1": {"label": "*4", "atom_type": "O2s"}, "4": {"label": "*2", "atom_type": "H0"}, "10": {"label": "*1", "atom_type": "Cs"}, "11": {"label": "*0", "atom_type": "Cs"}}

>  <type>  (9) 
unop_5

>  <geom_source>  (9) 
Heuristics

$$$$

     RDKit          3D

 26 24  0  0  0  0  0  0  0  0999 V2000
   -1.8608    1.8778   -0.4207 C   0  0  0  0  0  0  0  0  0  0  0  0
   -1.8608    1.9357   -1.8336 O   0  0  0  0  0  0  0  0  0  0  0  0
   -1.8608    0.6618   -2.3493 N   0  0  0  0  0  0  0  0  0  0  0  0
   -1.8608    0.6618   -3.6129 C   0  0  0  0  0  0  0  0  0  0  0  0
   -0.7902    1.2656    0.0234 H   0  0  0  0  0  0  0  0  0  0  0  0
   -2.7529    1.3676   -0.0506 H   0  0  0  0  0  0  0  0  0  0  0  0
   -1.8608    2.9127   -0.0829 H   0  0  0  0  0  0  0  0  0  0  0  0
   -1.8608   -0.3053   -4.0978 H   0  0  0  0  0  0  0  0  0  0  0  0
   -1.8608    1.5783   -4.1991 H   0  0  0  0  0  0  0  0  0  0  0  0
    1.4435    0.8656   -0.4930 C   0  0  0  0  0  0  0  0  0  0  0  0
    0.2815    0.6527    0.4680 C   0  0  0  0  0  3  0  0  0  0  0  0
    0.2061   -0.7610    1.0074 C   0  0  0  0  0  0  0  0  0  0  0  0
    1.3607   -1.0344    1.7604 O   0  0  0  0  0  0  0  0  0  0  0  0
    1.3938   -2.3421    2.2728 C   0  0  0  0  0  0  0  0  0  0  0  0
    2.6701   -2.5286    3.0601 C   0  0  0  0  0  0  0  0  0  0  0  0
    1.3635    0.1984   -1.3549 H   0  0  0  0  0  0  0  0  0  0  0  0
    1.4631    1.8912   -0.8645 H   0  0  0  0  0  0  0  0  0  0  0  0
    2.3944    0.6633   -0.0000 H   0  0  0  0  0  0  0  0  0  0  0  0
    0.3616    1.3425    1.3122 H   0  0  0  0  0  0  0  0  0  0  0  0
    0.1222   -1.4787    0.1759 H   0  0  0  0  0  0  0  0  0  0  0  0
   -0.6887   -0.8822    1.6354 H   0  0  0  0  0  0  0  0  0  0  0  0
    1.3407   -3.0688    1.4488 H   0  0  0  0  0  0  0  0  0  0  0  0
    0.5173   -2.5158    2.9145 H   0  0  0  0  0  0  0  0  0  0  0  0
    2.7172   -1.8176    3.8857 H   0  0  0  0  0  0  0  0  0  0  0  0
    2.7177   -3.5391    3.4692 H   0  0  0  0  0  0  0  0  0  0  0  0
    3.5397   -2.3719    2.4210 H   0  0  0  0  0  0  0  0  0  0  0  0
  1  2  1  0
  1  5  1  0
  1  6  1  0
  1  7  1  0
  2  3  1  0
  3  4  2  3
  4  8  1  0
  4  9  1  0
 10 11  1  0
 10 16  1  0
 10 17  1  0
 10 18  1  0
 11 12  1  0
 11 19  1  0
 12 13  1  0
 12 20  1  0
 12 21  1  0
 13 14  1  0
 14 15  1  0
 14 22  1  0
 14 23  1  0
 15 24  1  0
 15 25  1  0
 15 26  1  0
M  RAD  1  11   2
M  END
>  <reaction>  (10) 
rmg_rxn_15615

>  <mol_properties>  (10) 
{"0": {"label": "*3", "atom_type": "Cs"}, "1": {"label": "*4", "atom_type": "O2s"}, "4": {"label": "*2", "atom_type": "H0"}, "10": {"label": "*1", "atom_type": "Cs"}, "11": {"label": "*0", "atom_type": "Cs"}}

>  <type>  (10) 
unop_6

>  <geom_source>  (10) 
Heuristics

$$$$

     RDKit          3D

 26 24  0  0  0  0  0  0  0  0999 V2000
   -1.1548   -0.4288   -1.5042 C   0  0  0  0  0  3  0  0  0  0  0  0
   -2.1602   -0.2551   -0.5659 O   0  0  0  0  0  0  0  0  0  0  0  0
   -1.9547    0.8541    0.2282 N   0  0  0  0  0  0  0  0  0  0  0  0
   -2.8097    1.0536    1.1368 C   0  0  0  0  0  0  0  0  0  0  0  0
   -0.0952   -0.9770   -0.8892 H   0  0  0  0  0  0  0  0  0  0  0  0
   -0.8044    0.5036   -1.9402 H   0  0  0  0  0  0  0  0  0  0  0  0
   -1.5048   -1.1518   -2.2322 H   0  0  0  0  0  0  0  0  0  0  0  0
   -2.6582    1.9202    1.7551 H   0  0  0  0  0  0  0  0  0  0  0  0
   -3.6685    0.4153    1.3188 H   0  0  0  0  0  0  0  0  0  0  0  0
    0.1402   -2.7649    0.4293 C   0  0  0  0  0  0  0  0  0  0  0  0
    0.8375   -1.5771   -0.1878 C   0  0  0  0  0  0  0  0  0  0  0  0
    1.3930   -0.6022    0.8366 C   0  0  0  0  0  0  0  0  0  0  0  0
    2.4377    0.2156    0.3582 O   0  0  0  0  0  0  0  0  0  0  0  0
    2.0886    1.1942   -0.5994 C   0  0  0  0  0  0  0  0  0  0  0  0
    1.1824    2.3026   -0.0664 C   0  0  0  0  0  0  0  0  0  0  0  0
    0.8352   -3.3632    1.0211 H   0  0  0  0  0  0  0  0  0  0  0  0
   -0.6630   -2.4351    1.0858 H   0  0  0  0  0  0  0  0  0  0  0  0
   -0.2844   -3.4031   -0.3423 H   0  0  0  0  0  0  0  0  0  0  0  0
    1.5986   -1.8677   -0.9105 H   0  0  0  0  0  0  0  0  0  0  0  0
    1.8587   -1.1650    1.6567 H   0  0  0  0  0  0  0  0  0  0  0  0
    0.5822    0.0017    1.2680 H   0  0  0  0  0  0  0  0  0  0  0  0
    1.6286    0.7227   -1.4791 H   0  0  0  0  0  0  0  0  0  0  0  0
    3.0509    1.6178   -0.9011 H   0  0  0  0  0  0  0  0  0  0  0  0
    1.6008    2.7110    0.8504 H   0  0  0  0  0  0  0  0  0  0  0  0
    1.1175    3.0966   -0.8056 H   0  0  0  0  0  0  0  0  0  0  0  0
    0.1785    1.9356    0.1350 H   0  0  0  0  0  0  0  0  0  0  0  0
  1  2  1  0
  1  6  1  0
  1  7  1  0
  2  3  1  0
  3  4  2  3
  4  8  1  0
  4  9  1  0
  5 11  1  0
 10 11  1  0
 10 16  1  0
 10 17  1  0
 10 18  1  0
 11 12  1  0
 11 19  1  0
 12 13  1  0
 12 20  1  0
 12 21  1  0
 13 14  1  0
 14 15  1  0
 14 22  1  0
 14 23  1  0
 15 24  1  0
 15 25  1  0
 15 26  1  0
M  RAD  1   1   2
M  END
>  <reaction>  (11) 
rmg_rxn_15615

>  <mol_properties>  (11) 
{"0": {"label": "*3", "atom_type": "Cs"}, "1": {"label": "*4", "atom_type": "O2s"}, "4": {"label": "*2", "atom_type": "H0"}, "10": {"label": "*1", "atom_type": "Cs"}, "11": {"label": "*0", "atom_type": "Cs"}}

>  <type>  (11) 
unop_7

>  <geom_source>  (11) 
Heuristics

$$$$

     RDKit          3D

 26 24  0  0  0  0  0  0  0  0999 V2000
   -2.2830    1.6375    0.1529 C   0  0  0  0  0  0  0  0  0  0  0  0
   -2.2830    1.6954   -1.2600 O   0  0  0  0  0  0  0  0  0  0  0  0
   -2.2830    0.4215   -1.7757 N   0  0  0  0  0  0  0  0  0  0  0  0
   -2.2830    0.4215   -3.0394 C   0  0  0  0  0  0  0  0  0  0  0  0
   -1.2124    1.0253    0.5970 H   0  0  0  0  0  0  0  0  0  0  0  0
   -3.1751    1.1273    0.5230 H   0  0  0  0  0  0  0  0  0  0  0  0
   -2.2830    2.6724    0.4907 H   0  0  0  0  0  0  0  0  0  0  0  0
   -2.2830   -0.5455   -3.5242 H   0  0  0  0  0  0  0  0  0  0  0  0
   -2.2830    1.3380   -3.6255 H   0  0  0  0  0  0  0  0  0  0  0  0
    0.2466    0.9597    2.4090 C   0  0  0  0  0  0  0  0  0  0  0  0
   -0.1407    0.4125    1.0416 C   0  0  0  0  0  3  0  0  0  0  0  0
    1.0488   -0.0583    0.2299 C   0  0  0  0  0  0  0  0  0  0  0  0
    1.6698   -1.1307    0.8926 O   0  0  0  0  0  0  0  0  0  0  0  0
    2.8095   -1.6112    0.2265 C   0  0  0  0  0  0  0  0  0  0  0  0
    3.3962   -2.7554    1.0204 C   0  0  0  0  0  0  0  0  0  0  0  0
    0.9237    1.8119    2.3101 H   0  0  0  0  0  0  0  0  0  0  0  0
   -0.6327    1.2934    2.9618 H   0  0  0  0  0  0  0  0  0  0  0  0
    0.7524    0.1970    3.0010 H   0  0  0  0  0  0  0  0  0  0  0  0
   -0.8361   -0.4231    1.1550 H   0  0  0  0  0  0  0  0  0  0  0  0
    1.7666    0.7668    0.0978 H   0  0  0  0  0  0  0  0  0  0  0  0
    0.7252   -0.3738   -0.7729 H   0  0  0  0  0  0  0  0  0  0  0  0
    3.5470   -0.8026    0.1149 H   0  0  0  0  0  0  0  0  0  0  0  0
    2.5393   -1.9448   -0.7864 H   0  0  0  0  0  0  0  0  0  0  0  0
    2.6705   -3.5633    1.1197 H   0  0  0  0  0  0  0  0  0  0  0  0
    4.2842   -3.1459    0.5209 H   0  0  0  0  0  0  0  0  0  0  0  0
    3.6788   -2.4219    2.0195 H   0  0  0  0  0  0  0  0  0  0  0  0
  1  2  1  0
  1  5  1  0
  1  6  1  0
  1  7  1  0
  2  3  1  0
  3  4  2  3
  4  8  1  0
  4  9  1  0
 10 11  1  0
 10 16  1  0
 10 17  1  0
 10 18  1  0
 11 12  1  0
 11 19  1  0
 12 13  1  0
 12 20  1  0
 12 21  1  0
 13 14  1  0
 14 15  1  0
 14 22  1  0
 14 23  1  0
 15 24  1  0
 15 25  1  0
 15 26  1  0
M  RAD  1  11   2
M  END
>  <reaction>  (12) 
rmg_rxn_15615

>  <mol_properties>  (12) 
{"0": {"label": "*3", "atom_type": "Cs"}, "1": {"label": "*4", "atom_type": "O2s"}, "4": {"label": "*2", "atom_type": "H0"}, "10": {"label": "*1", "atom_type": "Cs"}, "11": {"label": "*0", "atom_type": "Cs"}}

>  <type>  (12) 
unop_8

>  <geom_source>  (12) 
Heuristics

$$$$

     RDKit          3D

 26 24  0  0  0  0  0  0  0  0999 V2000
   -1.1349    1.3684   -1.0178 C   0  0  0  0  0  0  0  0  0  0  0  0
   -1.1349    1.4263   -2.4307 O   0  0  0  0  0  0  0  0  0  0  0  0
   -1.1349    0.1524   -2.9465 N   0  0  0  0  0  0  0  0  0  0  0  0
   -1.1349    0.1524   -4.2101 C   0  0  0  0  0  0  0  0  0  0  0  0
   -0.0643    0.7562   -0.5737 H   0  0  0  0  0  0  0  0  0  0  0  0
   -2.0270    0.8582   -0.6477 H   0  0  0  0  0  0  0  0  0  0  0  0
   -1.1349    2.4033   -0.6800 H   0  0  0  0  0  0  0  0  0  0  0  0
   -1.1349   -0.8147   -4.6949 H   0  0  0  0  0  0  0  0  0  0  0  0
   -1.1349    1.0689   -4.7962 H   0  0  0  0  0  0  0  0  0  0  0  0
    1.0587   -1.2801   -0.6681 C   0  0  0  0  0  0  0  0  0  0  0  0
    1.0075    0.1433   -0.1291 C   0  0  0  0  0  3  0  0  0  0  0  0
    0.2554    0.2573    1.1811 C   0  0  0  0  0  0  0  0  0  0  0  0
    0.9247   -0.4858    2.1684 O   0  0  0  0  0  0  0  0  0  0  0  0
    0.2760   -0.4664    3.4144 C   0  0  0  0  0  0  0  0  0  0  0  0
    1.0745   -1.2919    4.3965 C   0  0  0  0  0  0  0  0  0  0  0  0
    0.0517   -1.6671   -0.8427 H   0  0  0  0  0  0  0  0  0  0  0  0
    1.6022   -1.3228   -1.6131 H   0  0  0  0  0  0  0  0  0  0  0  0
    1.5543   -1.9436    0.0406 H   0  0  0  0  0  0  0  0  0  0  0  0
    2.0209    0.5256    0.0180 H   0  0  0  0  0  0  0  0  0  0  0  0
   -0.7726   -0.1198    1.0608 H   0  0  0  0  0  0  0  0  0  0  0  0
    0.1832    1.3108    1.4889 H   0  0  0  0  0  0  0  0  0  0  0  0
   -0.7427   -0.8689    3.3127 H   0  0  0  0  0  0  0  0  0  0  0  0
    0.1804    0.5698    3.7715 H   0  0  0  0  0  0  0  0  0  0  0  0
    2.0803   -0.8854    4.5083 H   0  0  0  0  0  0  0  0  0  0  0  0
    0.5891   -1.2909    5.3737 H   0  0  0  0  0  0  0  0  0  0  0  0
    1.1566   -2.3230    4.0510 H   0  0  0  0  0  0  0  0  0  0  0  0
  1  2  1  0
  1  5  1  0
  1  6  1  0
  1  7  1  0
  2  3  1  0
  3  4  2  3
  4  8  1  0
  4  9  1  0
 10 11  1  0
 10 16  1  0
 10 17  1  0
 10 18  1  0
 11 12  1  0
 11 19  1  0
 12 13  1  0
 12 20  1  0
 12 21  1  0
 13 14  1  0
 14 15  1  0
 14 22  1  0
 14 23  1  0
 15 24  1  0
 15 25  1  0
 15 26  1  0
M  RAD  1  11   2
M  END
>  <reaction>  (13) 
rmg_rxn_15615

>  <mol_properties>  (13) 
{"0": {"label": "*3", "atom_type": "Cs"}, "1": {"label": "*4", "atom_type": "O2s"}, "4": {"label": "*2", "atom_type": "H0"}, "10": {"label": "*1", "atom_type": "Cs"}, "11": {"label": "*0", "atom_type": "Cs"}}

>  <type>  (13) 
unop_9

>  <geom_source>  (13) 
Heuristics

$$$$

     RDKit          3D

 26 24  0  0  0  0  0  0  0  0999 V2000
   -1.5213    0.3815    1.7043 C   0  0  0  0  0  3  0  0  0  0  0  0
   -2.3900   -0.0153    0.7699 O   0  0  0  0  0  0  0  0  0  0  0  0
   -1.8626   -0.2095   -0.4825 N   0  0  0  0  0  0  0  0  0  0  0  0
   -2.6900   -0.5949   -1.3719 C   0  0  0  0  0  0  0  0  0  0  0  0
    2.5508   -1.6254    1.0733 H   0  0  0  0  0  0  0  0  0  0  0  0
   -0.4814    0.5178    1.4768 H   0  0  0  0  0  0  0  0  0  0  0  0
   -1.9588    0.5224    2.6707 H   0  0  0  0  0  0  0  0  0  0  0  0
   -2.2936   -0.7510   -2.3582 H   0  0  0  0  0  0  0  0  0  0  0  0
   -3.7450   -0.7680   -1.1891 H   0  0  0  0  0  0  0  0  0  0  0  0
    1.4586   -2.8914   -0.3436 C   0  0  0  0  0  0  0  0  0  0  0  0
    1.6348   -1.6292    0.4751 C   0  0  0  0  0  0  0  0  0  0  0  0
    1.5028   -0.3594   -0.3463 C   0  0  0  0  0  0  0  0  0  0  0  0
    1.5961    0.7536    0.5249 O   0  0  0  0  0  0  0  0  0  0  0  0
    1.7441    1.9966   -0.1200 C   0  0  0  0  0  0  0  0  0  0  0  0
    0.4887    2.4853   -0.8410 C   0  0  0  0  0  0  0  0  0  0  0  0
    1.5648   -3.7725    0.2837 H   0  0  0  0  0  0  0  0  0  0  0  0
    0.4706   -2.9072   -0.7988 H   0  0  0  0  0  0  0  0  0  0  0  0
    2.2025   -2.9400   -1.1360 H   0  0  0  0  0  0  0  0  0  0  0  0
    1.0087   -1.5976    1.3429 H   0  0  0  0  0  0  0  0  0  0  0  0
    0.5338   -0.3623   -0.8644 H   0  0  0  0  0  0  0  0  0  0  0  0
    2.3056   -0.3102   -1.0987 H   0  0  0  0  0  0  0  0  0  0  0  0
    2.5833    1.9489   -0.8319 H   0  0  0  0  0  0  0  0  0  0  0  0
    2.0061    2.6950    0.6801 H   0  0  0  0  0  0  0  0  0  0  0  0
    0.2288    1.8236   -1.6629 H   0  0  0  0  0  0  0  0  0  0  0  0
   -0.3494    2.5227   -0.1501 H   0  0  0  0  0  0  0  0  0  0  0  0
    0.6651    3.4821   -1.2363 H   0  0  0  0  0  0  0  0  0  0  0  0
  1  2  1  0
  1  6  1  0
  1  7  1  0
  2  3  1  0
  3  4  2  3
  4  8  1  0
  4  9  1  0
  5 11  1  0
 10 11  1  0
 10 16  1  0
 10 17  1  0
 10 18  1  0
 11 12  1  0
 11 19  1  0
 12 13  1  0
 12 20  1  0
 12 21  1  0
 13 14  1  0
 14 15  1  0
 14 22  1  0
 14 23  1  0
 15 24  1  0
 15 25  1  0
 15 26  1  0
M  RAD  1   1   2
M  END
>  <reaction>  (14) 
rmg_rxn_15615

>  <mol_properties>  (14) 
{"0": {"label": "*3", "atom_type": "Cs"}, "1": {"label": "*4", "atom_type": "O2s"}, "4": {"label": "*2", "atom_type": "H0"}, "10": {"label": "*1", "atom_type": "Cs"}, "11": {"label": "*0", "atom_type": "Cs"}}

>  <type>  (14) 
unop_10

>  <geom_source>  (14) 
Heuristics

$$$$

     RDKit          3D

 26 24  0  0  0  0  0  0  0  0999 V2000
   -2.4869    0.8484    0.1187 C   0  0  0  0  0  0  0  0  0  0  0  0
   -2.4869    0.9063   -1.2942 O   0  0  0  0  0  0  0  0  0  0  0  0
   -2.4869   -0.3676   -1.8099 N   0  0  0  0  0  0  0  0  0  0  0  0
   -2.4869   -0.3676   -3.0736 C   0  0  0  0  0  0  0  0  0  0  0  0
   -1.4163    0.2362    0.5628 H   0  0  0  0  0  0  0  0  0  0  0  0
   -3.3790    0.3382    0.4888 H   0  0  0  0  0  0  0  0  0  0  0  0
   -2.4869    1.8833    0.4565 H   0  0  0  0  0  0  0  0  0  0  0  0
   -2.4869   -1.3346   -3.5584 H   0  0  0  0  0  0  0  0  0  0  0  0
   -2.4869    0.5489   -3.6597 H   0  0  0  0  0  0  0  0  0  0  0  0
   -0.3638   -0.4283    2.5293 C   0  0  0  0  0  0  0  0  0  0  0  0
   -0.3445   -0.3767    1.0074 C   0  0  0  0  0  3  0  0  0  0  0  0
    0.8675    0.3423    0.4513 C   0  0  0  0  0  0  0  0  0  0  0  0
    2.0308   -0.3600    0.8100 O   0  0  0  0  0  0  0  0  0  0  0  0
    3.2121    0.2564    0.3647 C   0  0  0  0  0  0  0  0  0  0  0  0
    4.3951   -0.5757    0.8026 C   0  0  0  0  0  0  0  0  0  0  0  0
   -0.3670    0.5789    2.9534 H   0  0  0  0  0  0  0  0  0  0  0  0
   -1.2516   -0.9475    2.8934 H   0  0  0  0  0  0  0  0  0  0  0  0
    0.5153   -0.9488    2.9091 H   0  0  0  0  0  0  0  0  0  0  0  0
   -0.3658   -1.3896    0.5972 H   0  0  0  0  0  0  0  0  0  0  0  0
    0.9125    1.3692    0.8473 H   0  0  0  0  0  0  0  0  0  0  0  0
    0.7973    0.4171   -0.6438 H   0  0  0  0  0  0  0  0  0  0  0  0
    3.2830    1.2732    0.7783 H   0  0  0  0  0  0  0  0  0  0  0  0
    3.1947    0.3532   -0.7310 H   0  0  0  0  0  0  0  0  0  0  0  0
    4.3327   -1.5799    0.3818 H   0  0  0  0  0  0  0  0  0  0  0  0
    5.3258   -0.1158    0.4667 H   0  0  0  0  0  0  0  0  0  0  0  0
    4.4220   -0.6593    1.8896 H   0  0  0  0  0  0  0  0  0  0  0  0
  1  2  1  0
  1  5  1  0
  1  6  1  0
  1  7  1  0
  2  3  1  0
  3  4  2  3
  4  8  1  0
  4  9  1  0
 10 11  1  0
 10 16  1  0
 10 17  1  0
 10 18  1  0
 11 12  1  0
 11 19  1  0
 12 13  1  0
 12 20  1  0
 12 21  1  0
 13 14  1  0
 14 15  1  0
 14 22  1  0
 14 23  1  0
 15 24  1  0
 15 25  1  0
 15 26  1  0
M  RAD  1  11   2
M  END
>  <reaction>  (15) 
rmg_rxn_15615

>  <mol_properties>  (15) 
{"0": {"label": "*3", "atom_type": "Cs"}, "1": {"label": "*4", "atom_type": "O2s"}, "4": {"label": "*2", "atom_type": "H0"}, "10": {"label": "*1", "atom_type": "Cs"}, "11": {"label": "*0", "atom_type": "Cs"}}

>  <type>  (15) 
unop_11

>  <geom_source>  (15) 
Heuristics

$$$$

     RDKit          3D

 26 24  0  0  0  0  0  0  0  0999 V2000
   -1.5658   -0.0413    1.1364 C   0  0  0  0  0  3  0  0  0  0  0  0
   -2.6124    0.5669    0.4646 O   0  0  0  0  0  0  0  0  0  0  0  0
   -2.3954    1.5547   -0.4337 N   0  0  0  0  0  0  0  0  0  0  0  0
   -1.2335    1.8865   -0.8043 C   0  0  0  0  0  0  0  0  0  0  0  0
   -0.8949   -0.8664    0.3206 H   0  0  0  0  0  0  0  0  0  0  0  0
   -2.0053   -0.6655    1.9064 H   0  0  0  0  0  0  0  0  0  0  0  0
   -0.8115    0.6477    1.5140 H   0  0  0  0  0  0  0  0  0  0  0  0
   -1.1936    2.6940   -1.5153 H   0  0  0  0  0  0  0  0  0  0  0  0
   -0.2972    1.4310   -0.4976 H   0  0  0  0  0  0  0  0  0  0  0  0
   -0.6644   -3.0636   -0.2559 C   0  0  0  0  0  0  0  0  0  0  0  0
   -0.1930   -1.6476   -0.4651 C   0  0  0  0  0  0  0  0  0  0  0  0
    1.2421   -1.3993   -0.0676 C   0  0  0  0  0  0  0  0  0  0  0  0
    1.4928   -0.0116   -0.1013 O   0  0  0  0  0  0  0  0  0  0  0  0
    2.8197    0.3332    0.2260 C   0  0  0  0  0  0  0  0  0  0  0  0
    2.9592    1.8457    0.1655 C   0  0  0  0  0  0  0  0  0  0  0  0
   -0.1178   -3.7564   -0.8993 H   0  0  0  0  0  0  0  0  0  0  0  0
   -0.5119   -3.3733    0.7763 H   0  0  0  0  0  0  0  0  0  0  0  0
   -1.7223   -3.1478   -0.4921 H   0  0  0  0  0  0  0  0  0  0  0  0
   -0.3945   -1.2806   -1.4694 H   0  0  0  0  0  0  0  0  0  0  0  0
    1.9360   -1.9171   -0.7564 H   0  0  0  0  0  0  0  0  0  0  0  0
    1.4326   -1.7895    0.9464 H   0  0  0  0  0  0  0  0  0  0  0  0
    3.5149   -0.1447   -0.4827 H   0  0  0  0  0  0  0  0  0  0  0  0
    3.0620   -0.0356    1.2359 H   0  0  0  0  0  0  0  0  0  0  0  0
    2.2821    2.3113    0.8767 H   0  0  0  0  0  0  0  0  0  0  0  0
    3.9790    2.1337    0.4042 H   0  0  0  0  0  0  0  0  0  0  0  0
    2.7115    2.2001   -0.8315 H   0  0  0  0  0  0  0  0  0  0  0  0
  1  2  1  0
  1  6  1  0
  1  7  1  0
  2  3  1  0
  3  4  2  3
  4  8  1  0
  4  9  1  0
  5 11  1  0
 10 11  1  0
 10 16  1  0
 10 17  1  0
 10 18  1  0
 11 12  1  0
 11 19  1  0
 12 13  1  0
 12 20  1  0
 12 21  1  0
 13 14  1  0
 14 15  1  0
 14 22  1  0
 14 23  1  0
 15 24  1  0
 15 25  1  0
 15 26  1  0
M  RAD  1   1   2
M  END
>  <reaction>  (16) 
rmg_rxn_15615

>  <mol_properties>  (16) 
{"0": {"label": "*3", "atom_type": "Cs"}, "1": {"label": "*4", "atom_type": "O2s"}, "4": {"label": "*2", "atom_type": "H0"}, "10": {"label": "*1", "atom_type": "Cs"}, "11": {"label": "*0", "atom_type": "Cs"}}

>  <type>  (16) 
unop_12

>  <geom_source>  (16) 
Heuristics

$$$$

     RDKit          3D

 26 24  0  0  0  0  0  0  0  0999 V2000
   -1.2452    0.8274   -1.0909 C   0  0  0  0  0  0  0  0  0  0  0  0
   -1.2453    0.8853   -2.5038 O   0  0  0  0  0  0  0  0  0  0  0  0
   -1.2453   -0.3886   -3.0195 N   0  0  0  0  0  0  0  0  0  0  0  0
   -1.2453   -0.3886   -4.2831 C   0  0  0  0  0  0  0  0  0  0  0  0
   -0.1747    0.2152   -0.6468 H   0  0  0  0  0  0  0  0  0  0  0  0
   -2.1374    0.3172   -0.7208 H   0  0  0  0  0  0  0  0  0  0  0  0
   -1.2453    1.8623   -0.7531 H   0  0  0  0  0  0  0  0  0  0  0  0
   -1.2453   -1.3557   -4.7679 H   0  0  0  0  0  0  0  0  0  0  0  0
   -1.2453    0.5279   -4.8693 H   0  0  0  0  0  0  0  0  0  0  0  0
    0.6319   -1.8919   -0.0758 C   0  0  0  0  0  0  0  0  0  0  0  0
    0.8971   -0.3977   -0.2022 C   0  0  0  0  0  3  0  0  0  0  0  0
    0.3837    0.4003    0.9789 C   0  0  0  0  0  0  0  0  0  0  0  0
    1.0660    0.0028    2.1414 O   0  0  0  0  0  0  0  0  0  0  0  0
    0.6280    0.6685    3.2984 C   0  0  0  0  0  0  0  0  0  0  0  0
    1.4219    0.1682    4.4829 C   0  0  0  0  0  0  0  0  0  0  0  0
   -0.4396   -2.0921    0.0038 H   0  0  0  0  0  0  0  0  0  0  0  0
    1.0096   -2.4327   -0.9448 H   0  0  0  0  0  0  0  0  0  0  0  0
    1.1151   -2.2960    0.8137 H   0  0  0  0  0  0  0  0  0  0  0  0
    1.9698   -0.2143   -0.3050 H   0  0  0  0  0  0  0  0  0  0  0  0
   -0.6982    0.2357    1.1046 H   0  0  0  0  0  0  0  0  0  0  0  0
    0.5327    1.4762    0.8059 H   0  0  0  0  0  0  0  0  0  0  0  0
   -0.4461    0.4870    3.4512 H   0  0  0  0  0  0  0  0  0  0  0  0
    0.7589    1.7542    3.1788 H   0  0  0  0  0  0  0  0  0  0  0  0
    2.4857    0.3602    4.3385 H   0  0  0  0  0  0  0  0  0  0  0  0
    1.0988    0.6727    5.3948 H   0  0  0  0  0  0  0  0  0  0  0  0
    1.2805   -0.9054    4.6117 H   0  0  0  0  0  0  0  0  0  0  0  0
  1  2  1  0
  1  5  1  0
  1  6  1  0
  1  7  1  0
  2  3  1  0
  3  4  2  3
  4  8  1  0
  4  9  1  0
 10 11  1  0
 10 16  1  0
 10 17  1  0
 10 18  1  0
 11 12  1  0
 11 19  1  0
 12 13  1  0
 12 20  1  0
 12 21  1  0
 13 14  1  0
 14 15  1  0
 14 22  1  0
 14 23  1  0
 15 24  1  0
 15 25  1  0
 15 26  1  0
M  RAD  1  11   2
M  END
>  <reaction>  (17) 
rmg_rxn_15615

>  <mol_properties>  (17) 
{"0": {"label": "*3", "atom_type": "Cs"}, "1": {"label": "*4", "atom_type": "O2s"}, "4": {"label": "*2", "atom_type": "H0"}, "10": {"label": "*1", "atom_type": "Cs"}, "11": {"label": "*0", "atom_type": "Cs"}}

>  <type>  (17) 
unop_13

>  <geom_source>  (17) 
Heuristics

$$$$

     RDKit          3D

 26 24  0  0  0  0  0  0  0  0999 V2000
    1.5658   -0.0418   -1.1365 C   0  0  0  0  0  3  0  0  0  0  0  0
    2.6133    0.5658   -0.4656 O   0  0  0  0  0  0  0  0  0  0  0  0
    2.3975    1.5539    0.4327 N   0  0  0  0  0  0  0  0  0  0  0  0
    1.2360    1.8865    0.8041 C   0  0  0  0  0  0  0  0  0  0  0  0
    0.8950   -0.8663   -0.3199 H   0  0  0  0  0  0  0  0  0  0  0  0
    2.0044   -0.6664   -1.9068 H   0  0  0  0  0  0  0  0  0  0  0  0
    0.8117    0.6476   -1.5135 H   0  0  0  0  0  0  0  0  0  0  0  0
    1.1971    2.6941    1.5150 H   0  0  0  0  0  0  0  0  0  0  0  0
    0.2993    1.4315    0.4981 H   0  0  0  0  0  0  0  0  0  0  0  0
    0.6639   -3.0630    0.2592 C   0  0  0  0  0  0  0  0  0  0  0  0
    0.1922   -1.6466    0.4658 C   0  0  0  0  0  0  0  0  0  0  0  0
   -1.2423   -1.3986    0.0658 C   0  0  0  0  0  0  0  0  0  0  0  0
   -1.4937   -0.0111    0.1009 O   0  0  0  0  0  0  0  0  0  0  0  0
   -2.8194    0.3335   -0.2313 C   0  0  0  0  0  0  0  0  0  0  0  0
   -2.9625    1.8452   -0.1597 C   0  0  0  0  0  0  0  0  0  0  0  0
    1.7218   -3.1464    0.4953 H   0  0  0  0  0  0  0  0  0  0  0  0
    0.1176   -3.7546    0.9041 H   0  0  0  0  0  0  0  0  0  0  0  0
    0.5110   -3.3748   -0.7724 H   0  0  0  0  0  0  0  0  0  0  0  0
    0.3921   -1.2784    1.4700 H   0  0  0  0  0  0  0  0  0  0  0  0
   -1.9374   -1.9178    0.7525 H   0  0  0  0  0  0  0  0  0  0  0  0
   -1.4304   -1.7877   -0.9491 H   0  0  0  0  0  0  0  0  0  0  0  0
   -3.5176   -0.1513    0.4697 H   0  0  0  0  0  0  0  0  0  0  0  0
   -3.0552   -0.0279   -1.2455 H   0  0  0  0  0  0  0  0  0  0  0  0
   -2.7230    2.1920    0.8419 H   0  0  0  0  0  0  0  0  0  0  0  0
   -2.2810    2.3179   -0.8620 H   0  0  0  0  0  0  0  0  0  0  0  0
   -3.9810    2.1330   -0.4038 H   0  0  0  0  0  0  0  0  0  0  0  0
  1  2  1  0
  1  6  1  0
  1  7  1  0
  2  3  1  0
  3  4  2  3
  4  8  1  0
  4  9  1  0
  5 11  1  0
 10 11  1  0
 10 16  1  0
 10 17  1  0
 10 18  1  0
 11 12  1  0
 11 19  1  0
 12 13  1  0
 12 20  1  0
 12 21  1  0
 13 14  1  0
 14 15  1  0
 14 22  1  0
 14 23  1  0
 15 24  1  0
 15 25  1  0
 15 26  1  0
M  RAD  1   1   2
M  END
>  <reaction>  (18) 
rmg_rxn_15615

>  <mol_properties>  (18) 
{"0": {"label": "*3", "atom_type": "Cs"}, "1": {"label": "*4", "atom_type": "O2s"}, "4": {"label": "*2", "atom_type": "H0"}, "10": {"label": "*1", "atom_type": "Cs"}, "11": {"label": "*0", "atom_type": "Cs"}}

>  <type>  (18) 
unop_14

>  <geom_source>  (18) 
Heuristics

$$$$

     RDKit          3D

 26 24  0  0  0  0  0  0  0  0999 V2000
   -1.5849    0.3654   -0.8985 C   0  0  0  0  0  0  0  0  0  0  0  0
   -1.5850    0.4233   -2.3114 O   0  0  0  0  0  0  0  0  0  0  0  0
   -1.5850   -0.8506   -2.8271 N   0  0  0  0  0  0  0  0  0  0  0  0
   -1.5850   -0.8506   -4.0907 C   0  0  0  0  0  0  0  0  0  0  0  0
   -0.5143   -0.2468   -0.4544 H   0  0  0  0  0  0  0  0  0  0  0  0
   -2.4771   -0.1448   -0.5284 H   0  0  0  0  0  0  0  0  0  0  0  0
   -1.5850    1.4003   -0.5607 H   0  0  0  0  0  0  0  0  0  0  0  0
   -1.5850   -1.8177   -4.5756 H   0  0  0  0  0  0  0  0  0  0  0  0
   -1.5849    0.0659   -4.6769 H   0  0  0  0  0  0  0  0  0  0  0  0
    0.1614   -2.0900    0.7956 C   0  0  0  0  0  0  0  0  0  0  0  0
    0.5574   -0.8597   -0.0098 C   0  0  0  0  0  3  0  0  0  0  0  0
    0.4766    0.4257    0.7880 C   0  0  0  0  0  0  0  0  0  0  0  0
    1.3934    0.3720    1.8518 O   0  0  0  0  0  0  0  0  0  0  0  0
    1.3627    1.5131    2.6706 C   0  0  0  0  0  0  0  0  0  0  0  0
    2.3799    1.3514    3.7764 C   0  0  0  0  0  0  0  0  0  0  0  0
   -0.8655   -2.0035    1.1595 H   0  0  0  0  0  0  0  0  0  0  0  0
    0.2263   -2.9942    0.1886 H   0  0  0  0  0  0  0  0  0  0  0  0
    0.8139   -2.2120    1.6601 H   0  0  0  0  0  0  0  0  0  0  0  0
    1.5773   -0.9705   -0.3872 H   0  0  0  0  0  0  0  0  0  0  0  0
   -0.5438    0.5642    1.1793 H   0  0  0  0  0  0  0  0  0  0  0  0
    0.6997    1.2889    0.1439 H   0  0  0  0  0  0  0  0  0  0  0  0
    0.3550    1.6452    3.0915 H   0  0  0  0  0  0  0  0  0  0  0  0
    1.5838    2.4098    2.0729 H   0  0  0  0  0  0  0  0  0  0  0  0
    3.3812    1.2342    3.3603 H   0  0  0  0  0  0  0  0  0  0  0  0
    2.3745    2.2279    4.4262 H   0  0  0  0  0  0  0  0  0  0  0  0
    2.1526    0.4714    4.3791 H   0  0  0  0  0  0  0  0  0  0  0  0
  1  2  1  0
  1  5  1  0
  1  6  1  0
  1  7  1  0
  2  3  1  0
  3  4  2  3
  4  8  1  0
  4  9  1  0
 10 11  1  0
 10 16  1  0
 10 17  1  0
 10 18  1  0
 11 12  1  0
 11 19  1  0
 12 13  1  0
 12 20  1  0
 12 21  1  0
 13 14  1  0
 14 15  1  0
 14 22  1  0
 14 23  1  0
 15 24  1  0
 15 25  1  0
 15 26  1  0
M  RAD  1  11   2
M  END
>  <reaction>  (19) 
rmg_rxn_15615

>  <mol_properties>  (19) 
{"0": {"label": "*3", "atom_type": "Cs"}, "1": {"label": "*4", "atom_type": "O2s"}, "4": {"label": "*2", "atom_type": "H0"}, "10": {"label": "*1", "atom_type": "Cs"}, "11": {"label": "*0", "atom_type": "Cs"}}

>  <type>  (19) 
unop_15

>  <geom_source>  (19) 
Heuristics

$$$$

     RDKit          3D

 26 24  0  0  0  0  0  0  0  0999 V2000
   -1.5697    0.0456   -1.1330 C   0  0  0  0  0  3  0  0  0  0  0  0
   -2.6137   -0.5658   -0.4602 O   0  0  0  0  0  0  0  0  0  0  0  0
   -2.3934   -1.5583    0.4321 N   0  0  0  0  0  0  0  0  0  0  0  0
   -1.2300   -1.8912    0.7976 C   0  0  0  0  0  0  0  0  0  0  0  0
   -0.8966    0.8689   -0.3171 H   0  0  0  0  0  0  0  0  0  0  0  0
   -2.0122    0.6721   -1.8996 H   0  0  0  0  0  0  0  0  0  0  0  0
   -0.8162   -0.6414   -1.5154 H   0  0  0  0  0  0  0  0  0  0  0  0
   -1.1874   -2.7027    1.5039 H   0  0  0  0  0  0  0  0  0  0  0  0
   -0.2951   -1.4330    0.4908 H   0  0  0  0  0  0  0  0  0  0  0  0
   -0.6618    3.0660    0.2584 C   0  0  0  0  0  0  0  0  0  0  0  0
   -0.1915    1.6494    0.4663 C   0  0  0  0  0  0  0  0  0  0  0  0
    1.2422    1.3995    0.0645 C   0  0  0  0  0  0  0  0  0  0  0  0
    1.4922    0.0119    0.1006 O   0  0  0  0  0  0  0  0  0  0  0  0
    2.8175   -0.3347   -0.2312 C   0  0  0  0  0  0  0  0  0  0  0  0
    2.9580   -1.8466   -0.1600 C   0  0  0  0  0  0  0  0  0  0  0  0
   -1.7189    3.1514    0.4975 H   0  0  0  0  0  0  0  0  0  0  0  0
   -0.1126    3.7582    0.9003 H   0  0  0  0  0  0  0  0  0  0  0  0
   -0.5117    3.3755   -0.7742 H   0  0  0  0  0  0  0  0  0  0  0  0
   -0.3902    1.2828    1.4713 H   0  0  0  0  0  0  0  0  0  0  0  0
    1.9387    1.9186    0.7498 H   0  0  0  0  0  0  0  0  0  0  0  0
    1.4293    1.7875   -0.9510 H   0  0  0  0  0  0  0  0  0  0  0  0
    3.5162    0.1488    0.4703 H   0  0  0  0  0  0  0  0  0  0  0  0
    3.0543    0.0267   -1.2452 H   0  0  0  0  0  0  0  0  0  0  0  0
    3.9767   -2.1359   -0.4019 H   0  0  0  0  0  0  0  0  0  0  0  0
    2.7158   -2.1933    0.8409 H   0  0  0  0  0  0  0  0  0  0  0  0
    2.2774   -2.3180   -0.8640 H   0  0  0  0  0  0  0  0  0  0  0  0
  1  2  1  0
  1  6  1  0
  1  7  1  0
  2  3  1  0
  3  4  2  3
  4  8  1  0
  4  9  1  0
  5 11  1  0
 10 11  1  0
 10 16  1  0
 10 17  1  0
 10 18  1  0
 11 12  1  0
 11 19  1  0
 12 13  1  0
 12 20  1  0
 12 21  1  0
 13 14  1  0
 14 15  1  0
 14 22  1  0
 14 23  1  0
 15 24  1  0
 15 25  1  0
 15 26  1  0
M  RAD  1   1   2
M  END
>  <reaction>  (20) 
rmg_rxn_15615

>  <mol_properties>  (20) 
{"0": {"label": "*3", "atom_type": "Cs"}, "1": {"label": "*4", "atom_type": "O2s"}, "4": {"label": "*2", "atom_type": "H0"}, "10": {"label": "*1", "atom_type": "Cs"}, "11": {"label": "*0", "atom_type": "Cs"}}

>  <type>  (20) 
unop_16

>  <geom_source>  (20) 
Heuristics

$$$$

     RDKit          3D

 26 24  0  0  0  0  0  0  0  0999 V2000
   -1.9548    1.8524   -0.3483 C   0  0  0  0  0  0  0  0  0  0  0  0
   -1.9549    1.9103   -1.7612 O   0  0  0  0  0  0  0  0  0  0  0  0
   -1.9549    0.6364   -2.2769 N   0  0  0  0  0  0  0  0  0  0  0  0
   -1.9549    0.6364   -3.5405 C   0  0  0  0  0  0  0  0  0  0  0  0
   -0.8842    1.2402    0.0958 H   0  0  0  0  0  0  0  0  0  0  0  0
   -2.8470    1.3422    0.0218 H   0  0  0  0  0  0  0  0  0  0  0  0
   -1.9549    2.8873   -0.0105 H   0  0  0  0  0  0  0  0  0  0  0  0
   -1.9549   -0.3306   -4.0253 H   0  0  0  0  0  0  0  0  0  0  0  0
   -1.9549    1.5529   -4.1267 H   0  0  0  0  0  0  0  0  0  0  0  0
    1.3088    1.6322    0.7692 C   0  0  0  0  0  0  0  0  0  0  0  0
    0.1875    0.6274    0.5405 C   0  0  0  0  0  3  0  0  0  0  0  0
    0.6838   -0.7973    0.4012 C   0  0  0  0  0  0  0  0  0  0  0  0
    1.2960   -1.1966    1.6015 O   0  0  0  0  0  0  0  0  0  0  0  0
    1.8201   -2.4990    1.5520 C   0  0  0  0  0  0  0  0  0  0  0  0
    2.4523   -2.8248    2.8854 C   0  0  0  0  0  0  0  0  0  0  0  0
    2.0181    1.6205   -0.0621 H   0  0  0  0  0  0  0  0  0  0  0  0
    0.9154    2.6458    0.8592 H   0  0  0  0  0  0  0  0  0  0  0  0
    1.8577    1.3972    1.6811 H   0  0  0  0  0  0  0  0  0  0  0  0
   -0.5264    0.6670    1.3672 H   0  0  0  0  0  0  0  0  0  0  0  0
    1.4049   -0.8669   -0.4286 H   0  0  0  0  0  0  0  0  0  0  0  0
   -0.1528   -1.4710    0.1646 H   0  0  0  0  0  0  0  0  0  0  0  0
    2.5643   -2.5730    0.7453 H   0  0  0  0  0  0  0  0  0  0  0  0
    1.0195   -3.2171    1.3205 H   0  0  0  0  0  0  0  0  0  0  0  0
    1.7121   -2.7651    3.6840 H   0  0  0  0  0  0  0  0  0  0  0  0
    2.8667   -3.8340    2.8708 H   0  0  0  0  0  0  0  0  0  0  0  0
    3.2566   -2.1229    3.1086 H   0  0  0  0  0  0  0  0  0  0  0  0
  1  2  1  0
  1  5  1  0
  1  6  1  0
  1  7  1  0
  2  3  1  0
  3  4  2  3
  4  8  1  0
  4  9  1  0
 10 11  1  0
 10 16  1  0
 10 17  1  0
 10 18  1  0
 11 12  1  0
 11 19  1  0
 12 13  1  0
 12 20  1  0
 12 21  1  0
 13 14  1  0
 14 15  1  0
 14 22  1  0
 14 23  1  0
 15 24  1  0
 15 25  1  0
 15 26  1  0
M  RAD  1  11   2
M  END
>  <reaction>  (21) 
rmg_rxn_15615

>  <mol_properties>  (21) 
{"0": {"label": "*3", "atom_type": "Cs"}, "1": {"label": "*4", "atom_type": "O2s"}, "4": {"label": "*2", "atom_type": "H0"}, "10": {"label": "*1", "atom_type": "Cs"}, "11": {"label": "*0", "atom_type": "Cs"}}

>  <type>  (21) 
unop_17

>  <geom_source>  (21) 
Heuristics

$$$$

     RDKit          3D

 26 24  0  0  0  0  0  0  0  0999 V2000
   -1.5665    0.0428   -1.1351 C   0  0  0  0  0  3  0  0  0  0  0  0
   -2.6128   -0.5665   -0.4638 O   0  0  0  0  0  0  0  0  0  0  0  0
   -2.3953   -1.5557    0.4328 N   0  0  0  0  0  0  0  0  0  0  0  0
   -1.2331   -1.8877    0.8025 C   0  0  0  0  0  0  0  0  0  0  0  0
   -0.8953    0.8668   -0.3186 H   0  0  0  0  0  0  0  0  0  0  0  0
   -2.0065    0.6681   -1.9041 H   0  0  0  0  0  0  0  0  0  0  0  0
   -0.8124   -0.6455   -1.5140 H   0  0  0  0  0  0  0  0  0  0  0  0
   -1.1927   -2.6965    1.5121 H   0  0  0  0  0  0  0  0  0  0  0  0
   -0.2971   -1.4314    0.4964 H   0  0  0  0  0  0  0  0  0  0  0  0
   -0.6636    3.0642    0.2572 C   0  0  0  0  0  0  0  0  0  0  0  0
   -0.1922    1.6481    0.4660 C   0  0  0  0  0  0  0  0  0  0  0  0
    1.2423    1.3993    0.0665 C   0  0  0  0  0  0  0  0  0  0  0  0
    1.4925    0.0115    0.1005 O   0  0  0  0  0  0  0  0  0  0  0  0
    2.8188   -0.3339   -0.2288 C   0  0  0  0  0  0  0  0  0  0  0  0
    2.9593   -1.8461   -0.1624 C   0  0  0  0  0  0  0  0  0  0  0  0
   -0.1164    3.7571    0.9000 H   0  0  0  0  0  0  0  0  0  0  0  0
   -0.5119    3.3738   -0.7752 H   0  0  0  0  0  0  0  0  0  0  0  0
   -1.7212    3.1485    0.4943 H   0  0  0  0  0  0  0  0  0  0  0  0
   -0.3923    1.2814    1.4707 H   0  0  0  0  0  0  0  0  0  0  0  0
    1.9375    1.9172    0.7540 H   0  0  0  0  0  0  0  0  0  0  0  0
    1.4312    1.7891   -0.9480 H   0  0  0  0  0  0  0  0  0  0  0  0
    3.5154    0.1474    0.4763 H   0  0  0  0  0  0  0  0  0  0  0  0
    3.0584    0.0310   -1.2408 H   0  0  0  0  0  0  0  0  0  0  0  0
    2.7149   -2.1965    0.8367 H   0  0  0  0  0  0  0  0  0  0  0  0
    2.2802   -2.3149   -0.8696 H   0  0  0  0  0  0  0  0  0  0  0  0
    3.9784   -2.1345   -0.4032 H   0  0  0  0  0  0  0  0  0  0  0  0
  1  2  1  0
  1  6  1  0
  1  7  1  0
  2  3  1  0
  3  4  2  3
  4  8  1  0
  4  9  1  0
  5 11  1  0
 10 11  1  0
 10 16  1  0
 10 17  1  0
 10 18  1  0
 11 12  1  0
 11 19  1  0
 12 13  1  0
 12 20  1  0
 12 21  1  0
 13 14  1  0
 14 15  1  0
 14 22  1  0
 14 23  1  0
 15 24  1  0
 15 25  1  0
 15 26  1  0
M  RAD  1   1   2
M  END
>  <reaction>  (22) 
rmg_rxn_15615

>  <mol_properties>  (22) 
{"0": {"label": "*3", "atom_type": "Cs"}, "1": {"label": "*4", "atom_type": "O2s"}, "4": {"label": "*2", "atom_type": "H0"}, "10": {"label": "*1", "atom_type": "Cs"}, "11": {"label": "*0", "atom_type": "Cs"}}

>  <type>  (22) 
unop_18

>  <geom_source>  (22) 
Heuristics

$$$$

     RDKit          3D

 26 24  0  0  0  0  0  0  0  0999 V2000
   -1.2803    1.7885   -0.7697 C   0  0  0  0  0  0  0  0  0  0  0  0
   -1.2803    1.8464   -2.1826 O   0  0  0  0  0  0  0  0  0  0  0  0
   -1.2803    0.5725   -2.6983 N   0  0  0  0  0  0  0  0  0  0  0  0
   -1.2803    0.5725   -3.9619 C   0  0  0  0  0  0  0  0  0  0  0  0
   -0.2097    1.1763   -0.3256 H   0  0  0  0  0  0  0  0  0  0  0  0
   -2.1724    1.2783   -0.3996 H   0  0  0  0  0  0  0  0  0  0  0  0
   -1.2803    2.8234   -0.4319 H   0  0  0  0  0  0  0  0  0  0  0  0
   -1.2803   -0.3946   -4.4467 H   0  0  0  0  0  0  0  0  0  0  0  0
   -1.2803    1.4890   -4.5481 H   0  0  0  0  0  0  0  0  0  0  0  0
    1.3308   -0.4733   -0.8932 C   0  0  0  0  0  0  0  0  0  0  0  0
    0.8621    0.5634    0.1191 C   0  0  0  0  0  3  0  0  0  0  0  0
    0.1285   -0.0439    1.2973 C   0  0  0  0  0  0  0  0  0  0  0  0
    1.0036   -0.8827    2.0085 O   0  0  0  0  0  0  0  0  0  0  0  0
    0.3961   -1.5199    3.1033 C   0  0  0  0  0  0  0  0  0  0  0  0
    1.4190   -2.3929    3.7927 C   0  0  0  0  0  0  0  0  0  0  0  0
    0.4840   -1.0333   -1.2979 H   0  0  0  0  0  0  0  0  0  0  0  0
    1.8489   -0.0001   -1.7286 H   0  0  0  0  0  0  0  0  0  0  0  0
    2.0124   -1.1858   -0.4287 H   0  0  0  0  0  0  0  0  0  0  0  0
    1.7159    1.1316    0.4971 H   0  0  0  0  0  0  0  0  0  0  0  0
   -0.7404   -0.6217    0.9445 H   0  0  0  0  0  0  0  0  0  0  0  0
   -0.2523    0.7481    1.9588 H   0  0  0  0  0  0  0  0  0  0  0  0
   -0.4560   -2.1245    2.7594 H   0  0  0  0  0  0  0  0  0  0  0  0
   -0.0012   -0.7685    3.8017 H   0  0  0  0  0  0  0  0  0  0  0  0
    2.2578   -1.7922    4.1462 H   0  0  0  0  0  0  0  0  0  0  0  0
    0.9692   -2.8986    4.6485 H   0  0  0  0  0  0  0  0  0  0  0  0
    1.8021   -3.1481    3.1055 H   0  0  0  0  0  0  0  0  0  0  0  0
  1  2  1  0
  1  5  1  0
  1  6  1  0
  1  7  1  0
  2  3  1  0
  3  4  2  3
  4  8  1  0
  4  9  1  0
 10 11  1  0
 10 16  1  0
 10 17  1  0
 10 18  1  0
 11 12  1  0
 11 19  1  0
 12 13  1  0
 12 20  1  0
 12 21  1  0
 13 14  1  0
 14 15  1  0
 14 22  1  0
 14 23  1  0
 15 24  1  0
 15 25  1  0
 15 26  1  0
M  RAD  1  11   2
M  END
>  <reaction>  (23) 
rmg_rxn_15615

>  <mol_properties>  (23) 
{"0": {"label": "*3", "atom_type": "Cs"}, "1": {"label": "*4", "atom_type": "O2s"}, "4": {"label": "*2", "atom_type": "H0"}, "10": {"label": "*1", "atom_type": "Cs"}, "11": {"label": "*0", "atom_type": "Cs"}}

>  <type>  (23) 
unop_19

>  <geom_source>  (23) 
Heuristics

$$$$

     RDKit          3D

 26 24  0  0  0  0  0  0  0  0999 V2000
   -1.9506    1.8173   -0.4158 C   0  0  0  0  0  0  0  0  0  0  0  0
   -1.9506    1.8752   -1.8287 O   0  0  0  0  0  0  0  0  0  0  0  0
   -1.9506    0.6014   -2.3445 N   0  0  0  0  0  0  0  0  0  0  0  0
   -1.9506    0.6014   -3.6081 C   0  0  0  0  0  0  0  0  0  0  0  0
   -0.8800    1.2052    0.0283 H   0  0  0  0  0  0  0  0  0  0  0  0
   -2.8427    1.3071   -0.0457 H   0  0  0  0  0  0  0  0  0  0  0  0
   -1.9506    2.8522   -0.0780 H   0  0  0  0  0  0  0  0  0  0  0  0
   -1.9506   -0.3657   -4.0929 H   0  0  0  0  0  0  0  0  0  0  0  0
   -1.9506    1.5179   -4.1942 H   0  0  0  0  0  0  0  0  0  0  0  0
    1.4438    1.3332    0.0226 C   0  0  0  0  0  0  0  0  0  0  0  0
    0.1918    0.5923    0.4729 C   0  0  0  0  0  3  0  0  0  0  0  0
    0.4231   -0.8886    0.6938 C   0  0  0  0  0  0  0  0  0  0  0  0
    1.3493   -1.0649    1.7359 O   0  0  0  0  0  0  0  0  0  0  0  0
    1.6529   -2.4131    1.9880 C   0  0  0  0  0  0  0  0  0  0  0  0
    2.6524   -2.4882    3.1189 C   0  0  0  0  0  0  0  0  0  0  0  0
    1.8211    0.9246   -0.9182 H   0  0  0  0  0  0  0  0  0  0  0  0
    1.2385    2.3935   -0.1314 H   0  0  0  0  0  0  0  0  0  0  0  0
    2.2343    1.2436    0.7676 H   0  0  0  0  0  0  0  0  0  0  0  0
   -0.1878    1.0266    1.4014 H   0  0  0  0  0  0  0  0  0  0  0  0
    0.8045   -1.3533   -0.2293 H   0  0  0  0  0  0  0  0  0  0  0  0
   -0.5236   -1.3891    0.9447 H   0  0  0  0  0  0  0  0  0  0  0  0
    2.0630   -2.8808    1.0807 H   0  0  0  0  0  0  0  0  0  0  0  0
    0.7356   -2.9619    2.2485 H   0  0  0  0  0  0  0  0  0  0  0  0
    2.2413   -2.0370    4.0227 H   0  0  0  0  0  0  0  0  0  0  0  0
    2.9033   -3.5282    3.3333 H   0  0  0  0  0  0  0  0  0  0  0  0
    3.5681   -1.9577    2.8554 H   0  0  0  0  0  0  0  0  0  0  0  0
  1  2  1  0
  1  5  1  0
  1  6  1  0
  1  7  1  0
  2  3  1  0
  3  4  2  3
  4  8  1  0
  4  9  1  0
 10 11  1  0
 10 16  1  0
 10 17  1  0
 10 18  1  0
 11 12  1  0
 11 19  1  0
 12 13  1  0
 12 20  1  0
 12 21  1  0
 13 14  1  0
 14 15  1  0
 14 22  1  0
 14 23  1  0
 15 24  1  0
 15 25  1  0
 15 26  1  0
M  RAD  1  11   2
M  END
>  <reaction>  (24) 
rmg_rxn_15615

>  <mol_properties>  (24) 
{"0": {"label": "*3", "atom_type": "Cs"}, "1": {"label": "*4", "atom_type": "O2s"}, "4": {"label": "*2", "atom_type": "H0"}, "10": {"label": "*1", "atom_type": "Cs"}, "11": {"label": "*0", "atom_type": "Cs"}}

>  <type>  (24) 
unop_20

>  <geom_source>  (24) 
Heuristics

$$$$

     RDKit          3D

 26 24  0  0  0  0  0  0  0  0999 V2000
   -2.0974    0.2467   -0.4288 C   0  0  0  0  0  0  0  0  0  0  0  0
   -2.0974    0.3046   -1.8417 O   0  0  0  0  0  0  0  0  0  0  0  0
   -2.0974   -0.9693   -2.3574 N   0  0  0  0  0  0  0  0  0  0  0  0
   -2.0974   -0.9693   -3.6210 C   0  0  0  0  0  0  0  0  0  0  0  0
   -1.0268   -0.3655    0.0153 H   0  0  0  0  0  0  0  0  0  0  0  0
   -2.9895   -0.2635   -0.0587 H   0  0  0  0  0  0  0  0  0  0  0  0
   -2.0974    1.2816   -0.0910 H   0  0  0  0  0  0  0  0  0  0  0  0
   -2.0974   -1.9363   -4.1058 H   0  0  0  0  0  0  0  0  0  0  0  0
   -2.0974   -0.0528   -4.2072 H   0  0  0  0  0  0  0  0  0  0  0  0
   -0.2610   -1.6807    1.7761 C   0  0  0  0  0  0  0  0  0  0  0  0
    0.0450   -0.9783    0.4600 C   0  0  0  0  0  3  0  0  0  0  0  0
    0.5929    0.4219    0.6454 C   0  0  0  0  0  0  0  0  0  0  0  0
    1.8234    0.3547    1.3210 O   0  0  0  0  0  0  0  0  0  0  0  0
    2.3910    1.6156    1.5693 C   0  0  0  0  0  0  0  0  0  0  0  0
    3.7026    1.4289    2.2963 C   0  0  0  0  0  0  0  0  0  0  0  0
   -1.0016   -1.1213    2.3532 H   0  0  0  0  0  0  0  0  0  0  0  0
   -0.6580   -2.6822    1.6038 H   0  0  0  0  0  0  0  0  0  0  0  0
    0.6391   -1.7706    2.3842 H   0  0  0  0  0  0  0  0  0  0  0  0
    0.7682   -1.5606   -0.1168 H   0  0  0  0  0  0  0  0  0  0  0  0
   -0.1189    1.0328    1.2230 H   0  0  0  0  0  0  0  0  0  0  0  0
    0.7270    0.9112   -0.3305 H   0  0  0  0  0  0  0  0  0  0  0  0
    1.7010    2.2251    2.1714 H   0  0  0  0  0  0  0  0  0  0  0  0
    2.5500    2.1489    0.6204 H   0  0  0  0  0  0  0  0  0  0  0  0
    4.3922    0.8363    1.6942 H   0  0  0  0  0  0  0  0  0  0  0  0
    4.1631    2.3969    2.4998 H   0  0  0  0  0  0  0  0  0  0  0  0
    3.5440    0.9140    3.2445 H   0  0  0  0  0  0  0  0  0  0  0  0
  1  2  1  0
  1  5  1  0
  1  6  1  0
  1  7  1  0
  2  3  1  0
  3  4  2  3
  4  8  1  0
  4  9  1  0
 10 11  1  0
 10 16  1  0
 10 17  1  0
 10 18  1  0
 11 12  1  0
 11 19  1  0
 12 13  1  0
 12 20  1  0
 12 21  1  0
 13 14  1  0
 14 15  1  0
 14 22  1  0
 14 23  1  0
 15 24  1  0
 15 25  1  0
 15 26  1  0
M  RAD  1  11   2
M  END
>  <reaction>  (25) 
rmg_rxn_15615

>  <mol_properties>  (25) 
{"0": {"label": "*3", "atom_type": "Cs"}, "1": {"label": "*4", "atom_type": "O2s"}, "4": {"label": "*2", "atom_type": "H0"}, "10": {"label": "*1", "atom_type": "Cs"}, "11": {"label": "*0", "atom_type": "Cs"}}

>  <type>  (25) 
unop_21

>  <geom_source>  (25) 
Heuristics

$$$$

     RDKit          3D

 26 24  0  0  0  0  0  0  0  0999 V2000
   -1.5967    1.9408   -0.5214 C   0  0  0  0  0  0  0  0  0  0  0  0
   -1.5967    1.9987   -1.9343 O   0  0  0  0  0  0  0  0  0  0  0  0
   -1.5967    0.7249   -2.4500 N   0  0  0  0  0  0  0  0  0  0  0  0
   -1.5967    0.7249   -3.7137 C   0  0  0  0  0  0  0  0  0  0  0  0
   -0.5261    1.3286   -0.0773 H   0  0  0  0  0  0  0  0  0  0  0  0
   -2.4888    1.4306   -0.1513 H   0  0  0  0  0  0  0  0  0  0  0  0
   -1.5967    2.9757   -0.1836 H   0  0  0  0  0  0  0  0  0  0  0  0
   -1.5967   -0.2422   -4.1985 H   0  0  0  0  0  0  0  0  0  0  0  0
   -1.5967    1.6413   -4.2998 H   0  0  0  0  0  0  0  0  0  0  0  0
    1.4210    0.2780   -0.7995 C   0  0  0  0  0  0  0  0  0  0  0  0
    0.5457    0.7158    0.3673 C   0  0  0  0  0  3  0  0  0  0  0  0
    0.0944   -0.4382    1.2391 C   0  0  0  0  0  0  0  0  0  0  0  0
    1.2174   -1.0433    1.8287 O   0  0  0  0  0  0  0  0  0  0  0  0
    0.8955   -2.1510    2.6305 C   0  0  0  0  0  0  0  0  0  0  0  0
    2.1680   -2.7230    3.2113 C   0  0  0  0  0  0  0  0  0  0  0  0
    0.8862   -0.4216   -1.4467 H   0  0  0  0  0  0  0  0  0  0  0  0
    1.7218    1.1327   -1.4070 H   0  0  0  0  0  0  0  0  0  0  0  0
    2.3220   -0.2195   -0.4408 H   0  0  0  0  0  0  0  0  0  0  0  0
    1.0843    1.4329    0.9921 H   0  0  0  0  0  0  0  0  0  0  0  0
   -0.4547   -1.1768    0.6338 H   0  0  0  0  0  0  0  0  0  0  0  0
   -0.5922   -0.0802    2.0202 H   0  0  0  0  0  0  0  0  0  0  0  0
    0.3724   -2.9093    2.0294 H   0  0  0  0  0  0  0  0  0  0  0  0
    0.2094   -1.8455    3.4344 H   0  0  0  0  0  0  0  0  0  0  0  0
    2.6803   -1.9761    3.8187 H   0  0  0  0  0  0  0  0  0  0  0  0
    1.9423   -3.5860    3.8396 H   0  0  0  0  0  0  0  0  0  0  0  0
    2.8424   -3.0405    2.4152 H   0  0  0  0  0  0  0  0  0  0  0  0
  1  2  1  0
  1  5  1  0
  1  6  1  0
  1  7  1  0
  2  3  1  0
  3  4  2  3
  4  8  1  0
  4  9  1  0
 10 11  1  0
 10 16  1  0
 10 17  1  0
 10 18  1  0
 11 12  1  0
 11 19  1  0
 12 13  1  0
 12 20  1  0
 12 21  1  0
 13 14  1  0
 14 15  1  0
 14 22  1  0
 14 23  1  0
 15 24  1  0
 15 25  1  0
 15 26  1  0
M  RAD  1  11   2
M  END
>  <reaction>  (26) 
rmg_rxn_15615

>  <mol_properties>  (26) 
{"0": {"label": "*3", "atom_type": "Cs"}, "1": {"label": "*4", "atom_type": "O2s"}, "4": {"label": "*2", "atom_type": "H0"}, "10": {"label": "*1", "atom_type": "Cs"}, "11": {"label": "*0", "atom_type": "Cs"}}

>  <type>  (26) 
unop_22

>  <geom_source>  (26) 
Heuristics

$$$$

     RDKit          3D

 26 24  0  0  0  0  0  0  0  0999 V2000
   -1.5658   -0.0436    1.1347 C   0  0  0  0  0  3  0  0  0  0  0  0
   -2.6129    0.5654    0.4644 O   0  0  0  0  0  0  0  0  0  0  0  0
   -2.3965    1.5552   -0.4319 N   0  0  0  0  0  0  0  0  0  0  0  0
   -1.2348    1.8880   -0.8023 C   0  0  0  0  0  0  0  0  0  0  0  0
   -0.8947   -0.8674    0.3177 H   0  0  0  0  0  0  0  0  0  0  0  0
   -2.0049   -0.6692    1.9039 H   0  0  0  0  0  0  0  0  0  0  0  0
   -0.8116    0.6450    1.5131 H   0  0  0  0  0  0  0  0  0  0  0  0
   -1.1954    2.6972   -1.5115 H   0  0  0  0  0  0  0  0  0  0  0  0
   -0.2983    1.4320   -0.4971 H   0  0  0  0  0  0  0  0  0  0  0  0
   -0.6626   -3.0644   -0.2584 C   0  0  0  0  0  0  0  0  0  0  0  0
   -0.1911   -1.6483   -0.4667 C   0  0  0  0  0  0  0  0  0  0  0  0
    1.2429   -1.3991   -0.0656 C   0  0  0  0  0  0  0  0  0  0  0  0
    1.4930   -0.0114   -0.1010 O   0  0  0  0  0  0  0  0  0  0  0  0
    2.8181    0.3351    0.2317 C   0  0  0  0  0  0  0  0  0  0  0  0
    2.9590    1.8470    0.1596 C   0  0  0  0  0  0  0  0  0  0  0  0
   -1.7198   -3.1489   -0.4972 H   0  0  0  0  0  0  0  0  0  0  0  0
   -0.1142   -3.7572   -0.9003 H   0  0  0  0  0  0  0  0  0  0  0  0
   -0.5125   -3.3739    0.7743 H   0  0  0  0  0  0  0  0  0  0  0  0
   -0.3902   -1.2815   -1.4715 H   0  0  0  0  0  0  0  0  0  0  0  0
    1.9391   -1.9178   -0.7516 H   0  0  0  0  0  0  0  0  0  0  0  0
    1.4305   -1.7877    0.9496 H   0  0  0  0  0  0  0  0  0  0  0  0
    3.5172   -0.1490   -0.4688 H   0  0  0  0  0  0  0  0  0  0  0  0
    3.0539   -0.0257    1.2461 H   0  0  0  0  0  0  0  0  0  0  0  0
    2.2773    2.3188    0.8623 H   0  0  0  0  0  0  0  0  0  0  0  0
    3.9773    2.1363    0.4030 H   0  0  0  0  0  0  0  0  0  0  0  0
    2.7183    2.1931   -0.8419 H   0  0  0  0  0  0  0  0  0  0  0  0
  1  2  1  0
  1  6  1  0
  1  7  1  0
  2  3  1  0
  3  4  2  3
  4  8  1  0
  4  9  1  0
  5 11  1  0
 10 11  1  0
 10 16  1  0
 10 17  1  0
 10 18  1  0
 11 12  1  0
 11 19  1  0
 12 13  1  0
 12 20  1  0
 12 21  1  0
 13 14  1  0
 14 15  1  0
 14 22  1  0
 14 23  1  0
 15 24  1  0
 15 25  1  0
 15 26  1  0
M  RAD  1   1   2
M  END
>  <reaction>  (27) 
rmg_rxn_15615

>  <mol_properties>  (27) 
{"0": {"label": "*3", "atom_type": "Cs"}, "1": {"label": "*4", "atom_type": "O2s"}, "4": {"label": "*2", "atom_type": "H0"}, "10": {"label": "*1", "atom_type": "Cs"}, "11": {"label": "*0", "atom_type": "Cs"}}

>  <type>  (27) 
unop_23

>  <geom_source>  (27) 
Heuristics

$$$$

     RDKit          3D

 26 24  0  0  0  0  0  0  0  0999 V2000
   -2.2347   -0.5130   -0.2985 O   0  0  0  0  0  0  0  0  0  0  0  0
    3.3367   -0.4556    0.1286 O   0  0  0  0  0  0  0  0  0  0  0  0
    4.5409    0.1584    0.4358 N   0  0  0  0  0  0  0  0  0  0  0  0
    0.0534   -1.2530   -0.2083 C   0  0  0  0  0  0  0  0  0  0  0  0
   -0.9047   -0.0651   -0.1310 C   0  0  0  0  0  0  0  0  0  0  0  0
   -3.1462    0.5517   -0.1024 C   0  0  0  0  0  0  0  0  0  0  0  0
    0.0470   -1.9028   -1.5894 C   0  0  0  0  0  0  0  0  0  0  0  0
   -3.6920    0.5238    1.3208 C   0  0  0  0  0  0  0  0  0  0  0  0
    2.1146    0.2527   -0.0598 C   0  0  0  0  0  3  0  0  0  0  0  0
    4.6997    1.4374    0.5874 C   0  0  0  0  0  0  0  0  0  0  0  0
   -0.2270   -2.0082    0.5578 H   0  0  0  0  0  0  0  0  0  0  0  0
    1.2773   -0.8314    0.0557 H   0  0  0  0  0  0  0  0  0  0  0  0
   -0.7698    0.4140    0.8649 H   0  0  0  0  0  0  0  0  0  0  0  0
   -0.6350    0.6686   -0.9244 H   0  0  0  0  0  0  0  0  0  0  0  0
   -3.9968    0.4073   -0.8016 H   0  0  0  0  0  0  0  0  0  0  0  0
   -2.7201    1.5585   -0.3272 H   0  0  0  0  0  0  0  0  0  0  0  0
    0.7752   -2.7405   -1.6052 H   0  0  0  0  0  0  0  0  0  0  0  0
    0.3413   -1.1631   -2.3638 H   0  0  0  0  0  0  0  0  0  0  0  0
   -0.9609   -2.3044   -1.8268 H   0  0  0  0  0  0  0  0  0  0  0  0
   -4.1548   -0.4638    1.5309 H   0  0  0  0  0  0  0  0  0  0  0  0
   -2.8764    0.7062    2.0511 H   0  0  0  0  0  0  0  0  0  0  0  0
   -4.4622    1.3145    1.4416 H   0  0  0  0  0  0  0  0  0  0  0  0
    2.2043    0.9572   -0.9132 H   0  0  0  0  0  0  0  0  0  0  0  0
    1.8337    0.7919    0.8692 H   0  0  0  0  0  0  0  0  0  0  0  0
    3.8773    2.1312    0.4808 H   0  0  0  0  0  0  0  0  0  0  0  0
    5.6792    1.8275    0.8272 H   0  0  0  0  0  0  0  0  0  0  0  0
  1  6  1  0
  1  5  1  0
  2  9  1  0
  2  3  1  0
  3 10  2  3
  4  7  1  0
  4  5  1  0
  4 11  1  0
  4 12  1  0
  5 13  1  0
  5 14  1  0
  6  8  1  0
  6 15  1  0
  6 16  1  0
  7 17  1  0
  7 18  1  0
  7 19  1  0
  8 20  1  0
  8 21  1  0
  8 22  1  0
  9 23  1  0
  9 24  1  0
 10 25  1  0
 10 26  1  0
M  RAD  1   9   2
M  END
>  <reaction>  (28) 
rmg_rxn_15615

>  <mol_properties>  (28) 
{"0": {"label": "*3", "atom_type": "Cs"}, "1": {"label": "*4", "atom_type": "O2s"}, "4": {"label": "*2", "atom_type": "H0"}, "10": {"label": "*1", "atom_type": "Cs"}, "11": {"label": "*0", "atom_type": "Cs"}}

>  <type>  (28) 
unop_24

>  <geom_source>  (28) 
AutoTST

$$$$

     RDKit          3D

 26 24  0  0  0  0  0  0  0  0999 V2000
   -1.8608    1.8778   -0.4207 C   0  0  0  0  0  0  0  0  0  0  0  0
   -1.8608    1.9357   -1.8336 O   0  0  0  0  0  0  0  0  0  0  0  0
   -1.8608    0.6618   -2.3493 N   0  0  0  0  0  0  0  0  0  0  0  0
   -1.8608    0.6618   -3.6129 C   0  0  0  0  0  0  0  0  0  0  0  0
   -0.7902    1.2656    0.0234 H   0  0  0  0  0  0  0  0  0  0  0  0
   -2.7529    1.3676   -0.0506 H   0  0  0  0  0  0  0  0  0  0  0  0
   -1.8608    2.9127   -0.0829 H   0  0  0  0  0  0  0  0  0  0  0  0
   -1.8608   -0.3053   -4.0978 H   0  0  0  0  0  0  0  0  0  0  0  0
   -1.8608    1.5783   -4.1991 H   0  0  0  0  0  0  0  0  0  0  0  0
    1.4436    0.8656   -0.4930 C   0  0  0  0  0  0  0  0  0  0  0  0
    0.2816    0.6527    0.4680 C   0  0  0  0  0  3  0  0  0  0  0  0
    0.2061   -0.7610    1.0074 C   0  0  0  0  0  0  0  0  0  0  0  0
    1.3607   -1.0344    1.7604 O   0  0  0  0  0  0  0  0  0  0  0  0
    1.3938   -2.3420    2.2728 C   0  0  0  0  0  0  0  0  0  0  0  0
    2.6701   -2.5286    3.0601 C   0  0  0  0  0  0  0  0  0  0  0  0
    1.3635    0.1984   -1.3549 H   0  0  0  0  0  0  0  0  0  0  0  0
    1.4631    1.8912   -0.8645 H   0  0  0  0  0  0  0  0  0  0  0  0
    2.3944    0.6633   -0.0000 H   0  0  0  0  0  0  0  0  0  0  0  0
    0.3616    1.3425    1.3122 H   0  0  0  0  0  0  0  0  0  0  0  0
    0.1222   -1.4787    0.1759 H   0  0  0  0  0  0  0  0  0  0  0  0
   -0.6887   -0.8822    1.6354 H   0  0  0  0  0  0  0  0  0  0  0  0
    1.3407   -3.0688    1.4488 H   0  0  0  0  0  0  0  0  0  0  0  0
    0.5173   -2.5158    2.9145 H   0  0  0  0  0  0  0  0  0  0  0  0
    2.7172   -1.8176    3.8857 H   0  0  0  0  0  0  0  0  0  0  0  0
    2.7177   -3.5391    3.4692 H   0  0  0  0  0  0  0  0  0  0  0  0
    3.5397   -2.3719    2.4210 H   0  0  0  0  0  0  0  0  0  0  0  0
  1  2  1  0
  1  5  1  0
  1  6  1  0
  1  7  1  0
  2  3  1  0
  3  4  2  3
  4  8  1  0
  4  9  1  0
 10 11  1  0
 10 16  1  0
 10 17  1  0
 10 18  1  0
 11 12  1  0
 11 19  1  0
 12 13  1  0
 12 20  1  0
 12 21  1  0
 13 14  1  0
 14 15  1  0
 14 22  1  0
 14 23  1  0
 15 24  1  0
 15 25  1  0
 15 26  1  0
M  RAD  1  11   2
M  END
>  <reaction>  (29) 
rmg_rxn_15615

>  <mol_properties>  (29) 
{"0": {"label": "*3", "atom_type": "Cs"}, "1": {"label": "*4", "atom_type": "O2s"}, "4": {"label": "*2", "atom_type": "H0"}, "10": {"label": "*1", "atom_type": "Cs"}, "11": {"label": "*0", "atom_type": "Cs"}}

>  <type>  (29) 
unop_25

>  <geom_source>  (29) 
gaussian_log

$$$$
