
     RDKit          3D

 18 17  0  0  0  0  0  0  0  0999 V2000
    2.2026   -0.7213   -0.2612 C   0  0  0  0  0  0  0  0  0  0  0  0
    1.5384    0.2638    0.6915 C   0  0  0  0  0  0  0  0  0  0  0  0
    2.2584    1.5946    0.7694 C   0  0  0  0  0  0  0  0  0  0  0  0
    2.2212    2.2185   -0.4893 O   0  0  0  0  0  0  0  0  0  0  0  0
    2.8988    3.4488   -0.5204 C   0  0  0  0  0  0  0  0  0  0  0  0
    2.7981    4.0296   -1.9118 C   0  0  0  0  0  0  0  0  0  0  0  0
    3.2294   -0.9309    0.0486 H   0  0  0  0  0  0  0  0  0  0  0  0
    2.2338   -0.3181   -1.2734 H   0  0  0  0  0  0  0  0  0  0  0  0
    1.6610   -1.6680   -0.2875 H   0  0  0  0  0  0  0  0  0  0  0  0
    1.4990   -0.1566    1.7002 H   0  0  0  0  0  0  0  0  0  0  0  0
    0.5055    0.4455    0.3835 H   0  0  0  0  0  0  0  0  0  0  0  0
    3.3038    1.4410    1.0808 H   0  0  0  0  0  0  0  0  0  0  0  0
    1.7844    2.2410    1.5226 H   0  0  0  0  0  0  0  0  0  0  0  0
    2.4596    4.1376    0.2164 H   0  0  0  0  0  0  0  0  0  0  0  0
    3.9524    3.3035   -0.2397 H   0  0  0  0  0  0  0  0  0  0  0  0
    1.7543    4.1869   -2.1856 H   0  0  0  0  0  0  0  0  0  0  0  0
    3.2472    3.3545   -2.6411 H   0  0  0  0  0  0  0  0  0  0  0  0
    3.3178    4.9878   -1.9600 H   0  0  0  0  0  0  0  0  0  0  0  0
  1  2  1  0
  1  7  1  0
  1  8  1  0
  1  9  1  0
  2  3  1  0
  2 10  1  0
  2 11  1  0
  3  4  1  0
  3 12  1  0
  3 13  1  0
  4  5  1  0
  5  6  1  0
  5 14  1  0
  5 15  1  0
  6 16  1  0
  6 17  1  0
  6 18  1  0
M  END
>  <reaction>  (1) 
rmg_rxn_661

>  <mol_properties>  (1) 
{"4": {"label": "donator", "atom_type": "Cs"}, "13": {"label": "d_hydrogen", "atom_type": "H0"}}

>  <type>  (1) 
r1h

$$$$

     RDKit          3D

 14 13  0  0  0  0  0  0  0  0999 V2000
    2.7687   -0.0362   -0.0732 C   0  0  0  0  0  3  0  0  0  0  0  0
    1.6543    0.2105    0.6386 O   0  0  0  0  0  0  0  0  0  0  0  0
    1.8652    0.6968    1.9544 C   0  0  0  0  0  0  0  0  0  0  0  0
    0.5252    0.9355    2.6156 C   0  0  0  0  0  0  0  0  0  0  0  0
   -0.2992    2.0181    1.9317 C   0  0  0  0  0  0  0  0  0  0  0  0
    2.5851   -0.4757   -1.0422 H   0  0  0  0  0  0  0  0  0  0  0  0
    3.6974   -0.2083    0.4611 H   0  0  0  0  0  0  0  0  0  0  0  0
    2.4441    1.6271    1.9039 H   0  0  0  0  0  0  0  0  0  0  0  0
    2.4506   -0.0397    2.5179 H   0  0  0  0  0  0  0  0  0  0  0  0
    0.7150    1.2089    3.6572 H   0  0  0  0  0  0  0  0  0  0  0  0
   -0.0287   -0.0066    2.6327 H   0  0  0  0  0  0  0  0  0  0  0  0
   -0.5056    1.7522    0.8949 H   0  0  0  0  0  0  0  0  0  0  0  0
   -1.2524    2.1635    2.4416 H   0  0  0  0  0  0  0  0  0  0  0  0
    0.2319    2.9729    1.9340 H   0  0  0  0  0  0  0  0  0  0  0  0
  1  2  1  0
  1  6  1  0
  1  7  1  0
  2  3  1  0
  3  4  1  0
  3  8  1  0
  3  9  1  0
  4  5  1  0
  4 10  1  0
  4 11  1  0
  5 12  1  0
  5 13  1  0
  5 14  1  0
M  RAD  1   1   2
M  END
>  <reaction>  (2) 
rmg_rxn_661

>  <mol_properties>  (2) 
{"0": {"label": "acceptor", "atom_type": "Cs"}}

>  <type>  (2) 
r2

$$$$

     RDKit          3D

 15 14  0  0  0  0  0  0  0  0999 V2000
   -1.2811   -0.4129    1.0228 C   0  0  0  0  0  0  0  0  0  0  0  0
   -1.0023   -0.5809   -0.4650 C   0  0  0  0  0  0  0  0  0  0  0  0
   -2.0576    0.0568   -1.3449 C   0  0  0  0  0  0  0  0  0  0  0  0
   -2.0663    1.4464   -1.1307 O   0  0  0  0  0  0  0  0  0  0  0  0
   -3.0424    2.1072   -1.8849 C   0  0  0  0  0  0  0  0  0  0  0  0
   -2.2382   -0.8657    1.2935 H   0  0  0  0  0  0  0  0  0  0  0  0
   -1.3219    0.6426    1.2914 H   0  0  0  0  0  0  0  0  0  0  0  0
   -0.5042   -0.8881    1.6236 H   0  0  0  0  0  0  0  0  0  0  0  0
   -0.0316   -0.1460   -0.7167 H   0  0  0  0  0  0  0  0  0  0  0  0
   -0.9494   -1.6429   -0.7203 H   0  0  0  0  0  0  0  0  0  0  0  0
   -1.8518   -0.1570   -2.4041 H   0  0  0  0  0  0  0  0  0  0  0  0
   -3.0491   -0.3636   -1.1124 H   0  0  0  0  0  0  0  0  0  0  0  0
   -4.0521    1.7545   -1.6343 H   0  0  0  0  0  0  0  0  0  0  0  0
   -2.8850    1.9634   -2.9626 H   0  0  0  0  0  0  0  0  0  0  0  0
   -2.9730    3.1700   -1.6570 H   0  0  0  0  0  0  0  0  0  0  0  0
  1  2  1  0
  1  6  1  0
  1  7  1  0
  1  8  1  0
  2  3  1  0
  2  9  1  0
  2 10  1  0
  3  4  1  0
  3 11  1  0
  3 12  1  0
  4  5  1  0
  5 13  1  0
  5 14  1  0
  5 15  1  0
M  END
>  <reaction>  (3) 
rmg_rxn_661

>  <mol_properties>  (3) 
{"0": {"label": "acceptor", "atom_type": "Cs"}, "14": {"label": "a_hydrogen", "atom_type": "H0"}}

>  <type>  (3) 
r2h

$$$$

     RDKit          3D

 32 30  0  0  0  0  0  0  0  0999 V2000
    0.2797   -0.1455    1.5191 C   0  0  0  0  0  3  0  0  0  0  0  0
   -0.2058    1.0723    1.9426 O   0  0  0  0  0  0  0  0  0  0  0  0
    0.6926    2.1400    1.7402 C   0  0  0  0  0  0  0  0  0  0  0  0
    0.0438    3.4322    2.1883 C   0  0  0  0  0  0  0  0  0  0  0  0
   -0.2855    3.4548    3.6750 C   0  0  0  0  0  0  0  0  0  0  0  0
   -0.4215   -0.9345    1.7815 H   0  0  0  0  0  0  0  0  0  0  0  0
    1.3049   -0.3527    1.8468 H   0  0  0  0  0  0  0  0  0  0  0  0
    0.9659    2.1957    0.6779 H   0  0  0  0  0  0  0  0  0  0  0  0
    1.6163    1.9550    2.3091 H   0  0  0  0  0  0  0  0  0  0  0  0
   -0.8644    3.5867    1.5998 H   0  0  0  0  0  0  0  0  0  0  0  0
    0.7247    4.2514    1.9410 H   0  0  0  0  0  0  0  0  0  0  0  0
   -0.7446    4.4024    3.9600 H   0  0  0  0  0  0  0  0  0  0  0  0
   -0.9762    2.6513    3.9306 H   0  0  0  0  0  0  0  0  0  0  0  0
    0.6177    3.3253    4.2762 H   0  0  0  0  0  0  0  0  0  0  0  0
    0.0072   -3.6134   -3.4903 C   0  0  0  0  0  0  0  0  0  0  0  0
    0.3540   -3.6367   -2.0076 C   0  0  0  0  0  0  0  0  0  0  0  0
    0.8149   -2.2933   -1.4823 C   0  0  0  0  0  0  0  0  0  0  0  0
   -0.2355   -1.3611   -1.6031 O   0  0  0  0  0  0  0  0  0  0  0  0
    0.0979   -0.0829   -1.1944 C   0  0  0  0  0  0  0  0  0  0  0  0
   -1.0433    0.8669   -1.3985 C   0  0  0  0  0  0  0  0  0  0  0  0
    0.8725   -3.3171   -4.0884 H   0  0  0  0  0  0  0  0  0  0  0  0
   -0.7960   -2.9035   -3.6882 H   0  0  0  0  0  0  0  0  0  0  0  0
   -0.3156   -4.5974   -3.8330 H   0  0  0  0  0  0  0  0  0  0  0  0
    1.1508   -4.3613   -1.8185 H   0  0  0  0  0  0  0  0  0  0  0  0
   -0.5121   -3.9595   -1.4242 H   0  0  0  0  0  0  0  0  0  0  0  0
    1.6882   -1.9402   -2.0514 H   0  0  0  0  0  0  0  0  0  0  0  0
    1.1176   -2.3749   -0.4301 H   0  0  0  0  0  0  0  0  0  0  0  0
    0.3042   -0.1321    0.1396 H   0  0  0  0  0  0  0  0  0  0  0  0
    1.0516    0.2544   -1.6222 H   0  0  0  0  0  0  0  0  0  0  0  0
   -1.9162    0.5411   -0.8304 H   0  0  0  0  0  0  0  0  0  0  0  0
   -1.3250    0.9311   -2.4534 H   0  0  0  0  0  0  0  0  0  0  0  0
   -0.7676    1.8646   -1.0537 H   0  0  0  0  0  0  0  0  0  0  0  0
  1  2  1  0
  1  6  1  0
  1  7  1  0
  2  3  1  0
  3  4  1  0
  3  8  1  0
  3  9  1  0
  4  5  1  0
  4 10  1  0
  4 11  1  0
  5 12  1  0
  5 13  1  0
  5 14  1  0
 15 16  1  0
 15 21  1  0
 15 22  1  0
 15 23  1  0
 16 17  1  0
 16 24  1  0
 16 25  1  0
 17 18  1  0
 17 26  1  0
 17 27  1  0
 18 19  1  0
 19 20  1  0
 19 28  1  0
 19 29  1  0
 20 30  1  0
 20 31  1  0
 20 32  1  0
M  RAD  1   1   2
M  END
>  <reaction>  (4) 
rmg_rxn_661

>  <mol_properties>  (4) 
{"0": {"label": "*3", "atom_type": "Cs"}, "1": {"label": "*4", "atom_type": "O2s"}, "17": {"label": "*0", "atom_type": "O2s"}, "18": {"label": "*1", "atom_type": "Cs"}, "27": {"label": "*2", "atom_type": "H0"}}

>  <type>  (4) 
ts

$$$$

     RDKit          3D

 32 30  0  0  0  0  0  0  0  0999 V2000
   -1.0044    0.5780    1.3321 C   0  0  0  0  0  0  0  0  0  0  0  0
    0.0996    1.3136    1.7771 O   0  0  0  0  0  0  0  0  0  0  0  0
    1.1930    0.5015    2.1266 C   0  0  0  0  0  0  0  0  0  0  0  0
    2.3250    1.3724    2.6312 C   0  0  0  0  0  0  0  0  0  0  0  0
    1.9752    2.1320    3.9039 C   0  0  0  0  0  0  0  0  0  0  0  0
   -1.7948    1.2852    1.0842 H   0  0  0  0  0  0  0  0  0  0  0  0
   -1.3706   -0.1078    2.1082 H   0  0  0  0  0  0  0  0  0  0  0  0
    1.5200   -0.0816    1.2530 H   0  0  0  0  0  0  0  0  0  0  0  0
    0.8914   -0.2167    2.9057 H   0  0  0  0  0  0  0  0  0  0  0  0
    2.6028    2.0733    1.8398 H   0  0  0  0  0  0  0  0  0  0  0  0
    3.1924    0.7290    2.8034 H   0  0  0  0  0  0  0  0  0  0  0  0
    2.8144    2.7432    4.2392 H   0  0  0  0  0  0  0  0  0  0  0  0
    1.1201    2.7876    3.7399 H   0  0  0  0  0  0  0  0  0  0  0  0
    1.7193    1.4418    4.7118 H   0  0  0  0  0  0  0  0  0  0  0  0
    0.0880   -2.8036   -3.5331 C   0  0  0  0  0  0  0  0  0  0  0  0
    0.0880   -2.8036   -2.0102 C   0  0  0  0  0  0  0  0  0  0  0  0
    0.0880   -1.4106   -1.4147 C   0  0  0  0  0  0  0  0  0  0  0  0
   -1.0950   -0.7470   -1.7823 O   0  0  0  0  0  0  0  0  0  0  0  0
   -1.1657    0.5711   -1.3014 C   0  0  0  0  0  3  0  0  0  0  0  0
   -2.4690    1.1889   -1.7522 C   0  0  0  0  0  0  0  0  0  0  0  0
    0.9701   -2.2893   -3.9227 H   0  0  0  0  0  0  0  0  0  0  0  0
   -0.7947   -2.2939   -3.9192 H   0  0  0  0  0  0  0  0  0  0  0  0
    0.0935   -3.8215   -3.9258 H   0  0  0  0  0  0  0  0  0  0  0  0
    0.9695   -3.3301   -1.6339 H   0  0  0  0  0  0  0  0  0  0  0  0
   -0.7864   -3.3416   -1.6349 H   0  0  0  0  0  0  0  0  0  0  0  0
    0.9622   -0.8455   -1.7751 H   0  0  0  0  0  0  0  0  0  0  0  0
    0.1628   -1.4645   -0.3187 H   0  0  0  0  0  0  0  0  0  0  0  0
   -1.0850    0.5745    0.0163 H   0  0  0  0  0  0  0  0  0  0  0  0
   -0.3128    1.1541   -1.6793 H   0  0  0  0  0  0  0  0  0  0  0  0
   -3.3154    0.6195   -1.3666 H   0  0  0  0  0  0  0  0  0  0  0  0
   -2.5298    1.2007   -2.8411 H   0  0  0  0  0  0  0  0  0  0  0  0
   -2.5466    2.2149   -1.3892 H   0  0  0  0  0  0  0  0  0  0  0  0
  1  2  1  0
  1  6  1  0
  1  7  1  0
  1 28  1  0
  2  3  1  0
  3  4  1  0
  3  8  1  0
  3  9  1  0
  4  5  1  0
  4 10  1  0
  4 11  1  0
  5 12  1  0
  5 13  1  0
  5 14  1  0
 15 16  1  0
 15 21  1  0
 15 22  1  0
 15 23  1  0
 16 17  1  0
 16 24  1  0
 16 25  1  0
 17 18  1  0
 17 26  1  0
 17 27  1  0
 18 19  1  0
 19 20  1  0
 19 29  1  0
 20 30  1  0
 20 31  1  0
 20 32  1  0
M  RAD  1  19   2
M  END
>  <reaction>  (5) 
rmg_rxn_661

>  <mol_properties>  (5) 
{"0": {"label": "*3", "atom_type": "Cs"}, "1": {"label": "*4", "atom_type": "O2s"}, "17": {"label": "*0", "atom_type": "O2s"}, "18": {"label": "*1", "atom_type": "Cs"}, "27": {"label": "*2", "atom_type": "H0"}}

>  <type>  (5) 
unop_1

>  <geom_source>  (5) 
Heuristics

$$$$

     RDKit          3D

 32 30  0  0  0  0  0  0  0  0999 V2000
   -0.4203    1.7476    1.3896 C   0  0  0  0  0  0  0  0  0  0  0  0
    0.3442    0.6742    1.8601 O   0  0  0  0  0  0  0  0  0  0  0  0
   -0.3638   -0.5407    1.8651 C   0  0  0  0  0  0  0  0  0  0  0  0
    0.5217   -1.6362    2.4223 C   0  0  0  0  0  0  0  0  0  0  0  0
    0.9189   -1.4052    3.8742 C   0  0  0  0  0  0  0  0  0  0  0  0
    0.2062    2.6381    1.4197 H   0  0  0  0  0  0  0  0  0  0  0  0
   -1.3074    1.9151    2.0154 H   0  0  0  0  0  0  0  0  0  0  0  0
   -0.6838   -0.7912    0.8428 H   0  0  0  0  0  0  0  0  0  0  0  0
   -1.2737   -0.4406    2.4780 H   0  0  0  0  0  0  0  0  0  0  0  0
    1.4144   -1.7128    1.7962 H   0  0  0  0  0  0  0  0  0  0  0  0
   -0.0155   -2.5837    2.3253 H   0  0  0  0  0  0  0  0  0  0  0  0
    1.5509   -2.2151    4.2416 H   0  0  0  0  0  0  0  0  0  0  0  0
    1.4678   -0.4696    3.9805 H   0  0  0  0  0  0  0  0  0  0  0  0
    0.0360   -1.3515    4.5160 H   0  0  0  0  0  0  0  0  0  0  0  0
    0.6721   -1.6339   -3.4756 C   0  0  0  0  0  0  0  0  0  0  0  0
    0.6721   -1.6339   -1.9527 C   0  0  0  0  0  0  0  0  0  0  0  0
    0.6721   -0.2409   -1.3572 C   0  0  0  0  0  0  0  0  0  0  0  0
   -0.5109    0.4227   -1.7248 O   0  0  0  0  0  0  0  0  0  0  0  0
   -0.5816    1.7408   -1.2439 C   0  0  0  0  0  3  0  0  0  0  0  0
   -1.8849    2.3586   -1.6947 C   0  0  0  0  0  0  0  0  0  0  0  0
    1.5542   -1.1196   -3.8653 H   0  0  0  0  0  0  0  0  0  0  0  0
   -0.2106   -1.1243   -3.8617 H   0  0  0  0  0  0  0  0  0  0  0  0
    0.6776   -2.6518   -3.8683 H   0  0  0  0  0  0  0  0  0  0  0  0
    1.5536   -2.1604   -1.5765 H   0  0  0  0  0  0  0  0  0  0  0  0
   -0.2023   -2.1719   -1.5775 H   0  0  0  0  0  0  0  0  0  0  0  0
    1.5463    0.3242   -1.7176 H   0  0  0  0  0  0  0  0  0  0  0  0
    0.7469   -0.2948   -0.2612 H   0  0  0  0  0  0  0  0  0  0  0  0
   -0.5009    1.7442    0.0738 H   0  0  0  0  0  0  0  0  0  0  0  0
    0.2712    2.3238   -1.6218 H   0  0  0  0  0  0  0  0  0  0  0  0
   -2.7313    1.7892   -1.3091 H   0  0  0  0  0  0  0  0  0  0  0  0
   -1.9458    2.3704   -2.7836 H   0  0  0  0  0  0  0  0  0  0  0  0
   -1.9626    3.3846   -1.3317 H   0  0  0  0  0  0  0  0  0  0  0  0
  1  2  1  0
  1  6  1  0
  1  7  1  0
  1 28  1  0
  2  3  1  0
  3  4  1  0
  3  8  1  0
  3  9  1  0
  4  5  1  0
  4 10  1  0
  4 11  1  0
  5 12  1  0
  5 13  1  0
  5 14  1  0
 15 16  1  0
 15 21  1  0
 15 22  1  0
 15 23  1  0
 16 17  1  0
 16 24  1  0
 16 25  1  0
 17 18  1  0
 17 26  1  0
 17 27  1  0
 18 19  1  0
 19 20  1  0
 19 29  1  0
 20 30  1  0
 20 31  1  0
 20 32  1  0
M  RAD  1  19   2
M  END
>  <reaction>  (6) 
rmg_rxn_661

>  <mol_properties>  (6) 
{"0": {"label": "*3", "atom_type": "Cs"}, "1": {"label": "*4", "atom_type": "O2s"}, "17": {"label": "*0", "atom_type": "O2s"}, "18": {"label": "*1", "atom_type": "Cs"}, "27": {"label": "*2", "atom_type": "H0"}}

>  <type>  (6) 
unop_2

>  <geom_source>  (6) 
Heuristics

$$$$

     RDKit          3D

 32 30  0  0  0  0  0  0  0  0999 V2000
   -0.7865    0.1931    1.3658 C   0  0  0  0  0  0  0  0  0  0  0  0
   -0.1927    1.3678    1.8409 O   0  0  0  0  0  0  0  0  0  0  0  0
    1.2065    1.2712    1.9416 C   0  0  0  0  0  0  0  0  0  0  0  0
    1.7611    2.5667    2.4973 C   0  0  0  0  0  0  0  0  0  0  0  0
    1.2834    2.8649    3.9123 C   0  0  0  0  0  0  0  0  0  0  0  0
   -1.8616    0.3614    1.3195 H   0  0  0  0  0  0  0  0  0  0  0  0
   -0.5874   -0.6568    2.0325 H   0  0  0  0  0  0  0  0  0  0  0  0
    1.6392    1.0640    0.9517 H   0  0  0  0  0  0  0  0  0  0  0  0
    1.4768    0.4302    2.5999 H   0  0  0  0  0  0  0  0  0  0  0  0
    1.4782    3.3815    1.8259 H   0  0  0  0  0  0  0  0  0  0  0  0
    2.8524    2.5017    2.4744 H   0  0  0  0  0  0  0  0  0  0  0  0
    1.7063    3.8009    4.2800 H   0  0  0  0  0  0  0  0  0  0  0  0
    0.1969    2.9459    3.9443 H   0  0  0  0  0  0  0  0  0  0  0  0
    1.5814    2.0694    4.5999 H   0  0  0  0  0  0  0  0  0  0  0  0
    0.3060   -3.1884   -3.4995 C   0  0  0  0  0  0  0  0  0  0  0  0
    0.3060   -3.1884   -1.9766 C   0  0  0  0  0  0  0  0  0  0  0  0
    0.3060   -1.7954   -1.3810 C   0  0  0  0  0  0  0  0  0  0  0  0
   -0.8770   -1.1318   -1.7486 O   0  0  0  0  0  0  0  0  0  0  0  0
   -0.9477    0.1863   -1.2677 C   0  0  0  0  0  3  0  0  0  0  0  0
   -2.2511    0.8041   -1.7186 C   0  0  0  0  0  0  0  0  0  0  0  0
    1.1880   -2.6741   -3.8891 H   0  0  0  0  0  0  0  0  0  0  0  0
   -0.5768   -2.6787   -3.8855 H   0  0  0  0  0  0  0  0  0  0  0  0
    0.3114   -4.2063   -3.8921 H   0  0  0  0  0  0  0  0  0  0  0  0
    1.1875   -3.7149   -1.6003 H   0  0  0  0  0  0  0  0  0  0  0  0
   -0.5684   -3.7264   -1.6013 H   0  0  0  0  0  0  0  0  0  0  0  0
    1.1802   -1.2303   -1.7414 H   0  0  0  0  0  0  0  0  0  0  0  0
    0.3808   -1.8493   -0.2850 H   0  0  0  0  0  0  0  0  0  0  0  0
   -0.8670    0.1897    0.0499 H   0  0  0  0  0  0  0  0  0  0  0  0
   -0.0949    0.7693   -1.6456 H   0  0  0  0  0  0  0  0  0  0  0  0
   -3.0974    0.2347   -1.3329 H   0  0  0  0  0  0  0  0  0  0  0  0
   -2.3119    0.8159   -2.8074 H   0  0  0  0  0  0  0  0  0  0  0  0
   -2.3287    1.8301   -1.3555 H   0  0  0  0  0  0  0  0  0  0  0  0
  1  2  1  0
  1  6  1  0
  1  7  1  0
  1 28  1  0
  2  3  1  0
  3  4  1  0
  3  8  1  0
  3  9  1  0
  4  5  1  0
  4 10  1  0
  4 11  1  0
  5 12  1  0
  5 13  1  0
  5 14  1  0
 15 16  1  0
 15 21  1  0
 15 22  1  0
 15 23  1  0
 16 17  1  0
 16 24  1  0
 16 25  1  0
 17 18  1  0
 17 26  1  0
 17 27  1  0
 18 19  1  0
 19 20  1  0
 19 29  1  0
 20 30  1  0
 20 31  1  0
 20 32  1  0
M  RAD  1  19   2
M  END
>  <reaction>  (7) 
rmg_rxn_661

>  <mol_properties>  (7) 
{"0": {"label": "*3", "atom_type": "Cs"}, "1": {"label": "*4", "atom_type": "O2s"}, "17": {"label": "*0", "atom_type": "O2s"}, "18": {"label": "*1", "atom_type": "Cs"}, "27": {"label": "*2", "atom_type": "H0"}}

>  <type>  (7) 
unop_3

>  <geom_source>  (7) 
Heuristics

$$$$

     RDKit          3D

 32 30  0  0  0  0  0  0  0  0999 V2000
    0.7916    1.2002    1.5484 C   0  0  0  0  0  0  0  0  0  0  0  0
   -0.2496    0.4673    2.1285 O   0  0  0  0  0  0  0  0  0  0  0  0
   -1.4166    0.4603    1.3442 C   0  0  0  0  0  0  0  0  0  0  0  0
   -2.4995   -0.3193    2.0612 C   0  0  0  0  0  0  0  0  0  0  0  0
   -2.9166    0.3114    3.3832 C   0  0  0  0  0  0  0  0  0  0  0  0
    1.6473    1.1478    2.2202 H   0  0  0  0  0  0  0  0  0  0  0  0
    0.5132    2.2535    1.4080 H   0  0  0  0  0  0  0  0  0  0  0  0
   -1.2056    0.0078    0.3640 H   0  0  0  0  0  0  0  0  0  0  0  0
   -1.7512    1.4941    1.1627 H   0  0  0  0  0  0  0  0  0  0  0  0
   -2.1409   -1.3383    2.2278 H   0  0  0  0  0  0  0  0  0  0  0  0
   -3.3605   -0.3921    1.3909 H   0  0  0  0  0  0  0  0  0  0  0  0
   -3.6997   -0.2738    3.8673 H   0  0  0  0  0  0  0  0  0  0  0  0
   -2.0686    0.3760    4.0650 H   0  0  0  0  0  0  0  0  0  0  0  0
   -3.3010    1.3226    3.2284 H   0  0  0  0  0  0  0  0  0  0  0  0
    1.8841   -2.1813   -3.3169 C   0  0  0  0  0  0  0  0  0  0  0  0
    1.8841   -2.1813   -1.7940 C   0  0  0  0  0  0  0  0  0  0  0  0
    1.8841   -0.7883   -1.1984 C   0  0  0  0  0  0  0  0  0  0  0  0
    0.7011   -0.1247   -1.5660 O   0  0  0  0  0  0  0  0  0  0  0  0
    0.6303    1.1934   -1.0852 C   0  0  0  0  0  3  0  0  0  0  0  0
   -0.6730    1.8112   -1.5360 C   0  0  0  0  0  0  0  0  0  0  0  0
    2.7661   -1.6670   -3.7065 H   0  0  0  0  0  0  0  0  0  0  0  0
    1.0013   -1.6716   -3.7029 H   0  0  0  0  0  0  0  0  0  0  0  0
    1.8895   -3.1992   -3.7095 H   0  0  0  0  0  0  0  0  0  0  0  0
    2.7656   -2.7078   -1.4177 H   0  0  0  0  0  0  0  0  0  0  0  0
    1.0097   -2.7193   -1.4187 H   0  0  0  0  0  0  0  0  0  0  0  0
    2.7583   -0.2232   -1.5588 H   0  0  0  0  0  0  0  0  0  0  0  0
    1.9589   -0.8422   -0.1024 H   0  0  0  0  0  0  0  0  0  0  0  0
    0.7110    1.1968    0.2325 H   0  0  0  0  0  0  0  0  0  0  0  0
    1.4832    1.7764   -1.4630 H   0  0  0  0  0  0  0  0  0  0  0  0
   -1.5193    1.2418   -1.1503 H   0  0  0  0  0  0  0  0  0  0  0  0
   -0.7338    1.8230   -2.6248 H   0  0  0  0  0  0  0  0  0  0  0  0
   -0.7506    2.8372   -1.1729 H   0  0  0  0  0  0  0  0  0  0  0  0
  1  2  1  0
  1  6  1  0
  1  7  1  0
  1 28  1  0
  2  3  1  0
  3  4  1  0
  3  8  1  0
  3  9  1  0
  4  5  1  0
  4 10  1  0
  4 11  1  0
  5 12  1  0
  5 13  1  0
  5 14  1  0
 15 16  1  0
 15 21  1  0
 15 22  1  0
 15 23  1  0
 16 17  1  0
 16 24  1  0
 16 25  1  0
 17 18  1  0
 17 26  1  0
 17 27  1  0
 18 19  1  0
 19 20  1  0
 19 29  1  0
 20 30  1  0
 20 31  1  0
 20 32  1  0
M  RAD  1  19   2
M  END
>  <reaction>  (8) 
rmg_rxn_661

>  <mol_properties>  (8) 
{"0": {"label": "*3", "atom_type": "Cs"}, "1": {"label": "*4", "atom_type": "O2s"}, "17": {"label": "*0", "atom_type": "O2s"}, "18": {"label": "*1", "atom_type": "Cs"}, "27": {"label": "*2", "atom_type": "H0"}}

>  <type>  (8) 
unop_4

>  <geom_source>  (8) 
Heuristics

$$$$

     RDKit          3D

 32 30  0  0  0  0  0  0  0  0999 V2000
   -0.3891   -0.0845    1.4799 C   0  0  0  0  0  0  0  0  0  0  0  0
   -0.4563    1.2148    1.9951 O   0  0  0  0  0  0  0  0  0  0  0  0
    0.5851    2.0400    1.5351 C   0  0  0  0  0  0  0  0  0  0  0  0
    0.4584    3.4099    2.1691 C   0  0  0  0  0  0  0  0  0  0  0  0
    0.6139    3.3859    3.6838 C   0  0  0  0  0  0  0  0  0  0  0  0
   -1.2298   -0.6453    1.8862 H   0  0  0  0  0  0  0  0  0  0  0  0
    0.5453   -0.5845    1.7688 H   0  0  0  0  0  0  0  0  0  0  0  0
    0.5417    2.1209    0.4389 H   0  0  0  0  0  0  0  0  0  0  0  0
    1.5583    1.5922    1.7923 H   0  0  0  0  0  0  0  0  0  0  0  0
   -0.5140    3.8290    1.8979 H   0  0  0  0  0  0  0  0  0  0  0  0
    1.2181    4.0577    1.7230 H   0  0  0  0  0  0  0  0  0  0  0  0
    0.5216    4.3887    4.1035 H   0  0  0  0  0  0  0  0  0  0  0  0
   -0.1477    2.7539    4.1405 H   0  0  0  0  0  0  0  0  0  0  0  0
    1.5926    2.9919    3.9689 H   0  0  0  0  0  0  0  0  0  0  0  0
    0.7033   -3.4661   -3.3854 C   0  0  0  0  0  0  0  0  0  0  0  0
    0.7033   -3.4661   -1.8625 C   0  0  0  0  0  0  0  0  0  0  0  0
    0.7033   -2.0730   -1.2670 C   0  0  0  0  0  0  0  0  0  0  0  0
   -0.4797   -1.4094   -1.6346 O   0  0  0  0  0  0  0  0  0  0  0  0
   -0.5504   -0.0914   -1.1537 C   0  0  0  0  0  3  0  0  0  0  0  0
   -1.8537    0.5264   -1.6045 C   0  0  0  0  0  0  0  0  0  0  0  0
    1.5854   -2.9517   -3.7750 H   0  0  0  0  0  0  0  0  0  0  0  0
   -0.1794   -2.9564   -3.7715 H   0  0  0  0  0  0  0  0  0  0  0  0
    0.7088   -4.4839   -3.7781 H   0  0  0  0  0  0  0  0  0  0  0  0
    1.5848   -3.9925   -1.4862 H   0  0  0  0  0  0  0  0  0  0  0  0
   -0.1711   -4.0040   -1.4872 H   0  0  0  0  0  0  0  0  0  0  0  0
    1.5775   -1.5079   -1.6274 H   0  0  0  0  0  0  0  0  0  0  0  0
    0.7781   -2.1269   -0.1709 H   0  0  0  0  0  0  0  0  0  0  0  0
   -0.4697   -0.0879    0.1640 H   0  0  0  0  0  0  0  0  0  0  0  0
    0.3025    0.4916   -1.5316 H   0  0  0  0  0  0  0  0  0  0  0  0
   -2.7001   -0.0430   -1.2188 H   0  0  0  0  0  0  0  0  0  0  0  0
   -1.9145    0.5383   -2.6933 H   0  0  0  0  0  0  0  0  0  0  0  0
   -1.9313    1.5525   -1.2415 H   0  0  0  0  0  0  0  0  0  0  0  0
  1  2  1  0
  1  6  1  0
  1  7  1  0
  1 28  1  0
  2  3  1  0
  3  4  1  0
  3  8  1  0
  3  9  1  0
  4  5  1  0
  4 10  1  0
  4 11  1  0
  5 12  1  0
  5 13  1  0
  5 14  1  0
 15 16  1  0
 15 21  1  0
 15 22  1  0
 15 23  1  0
 16 17  1  0
 16 24  1  0
 16 25  1  0
 17 18  1  0
 17 26  1  0
 17 27  1  0
 18 19  1  0
 19 20  1  0
 19 29  1  0
 20 30  1  0
 20 31  1  0
 20 32  1  0
M  RAD  1  19   2
M  END
>  <reaction>  (9) 
rmg_rxn_661

>  <mol_properties>  (9) 
{"0": {"label": "*3", "atom_type": "Cs"}, "1": {"label": "*4", "atom_type": "O2s"}, "17": {"label": "*0", "atom_type": "O2s"}, "18": {"label": "*1", "atom_type": "Cs"}, "27": {"label": "*2", "atom_type": "H0"}}

>  <type>  (9) 
unop_5

>  <geom_source>  (9) 
Heuristics

$$$$

     RDKit          3D

 32 30  0  0  0  0  0  0  0  0999 V2000
    0.8497    0.7084    1.5751 C   0  0  0  0  0  0  0  0  0  0  0  0
   -0.4144    0.6111    2.1673 O   0  0  0  0  0  0  0  0  0  0  0  0
   -1.4535    1.0053    1.3059 C   0  0  0  0  0  0  0  0  0  0  0  0
   -2.7769    0.9060    2.0364 C   0  0  0  0  0  0  0  0  0  0  0  0
   -2.8749    1.8476    3.2294 C   0  0  0  0  0  0  0  0  0  0  0  0
    1.5850    0.3831    2.3099 H   0  0  0  0  0  0  0  0  0  0  0  0
    1.0766    1.7411    1.2774 H   0  0  0  0  0  0  0  0  0  0  0  0
   -1.4617    0.3642    0.4120 H   0  0  0  0  0  0  0  0  0  0  0  0
   -1.2853    2.0396    0.9659 H   0  0  0  0  0  0  0  0  0  0  0  0
   -2.9170   -0.1281    2.3615 H   0  0  0  0  0  0  0  0  0  0  0  0
   -3.5732    1.1233    1.3192 H   0  0  0  0  0  0  0  0  0  0  0  0
   -3.8414    1.7517    3.7264 H   0  0  0  0  0  0  0  0  0  0  0  0
   -2.0939    1.6306    3.9580 H   0  0  0  0  0  0  0  0  0  0  0  0
   -2.7615    2.8880    2.9150 H   0  0  0  0  0  0  0  0  0  0  0  0
    1.9421   -2.6732   -3.2901 C   0  0  0  0  0  0  0  0  0  0  0  0
    1.9421   -2.6732   -1.7672 C   0  0  0  0  0  0  0  0  0  0  0  0
    1.9421   -1.2802   -1.1717 C   0  0  0  0  0  0  0  0  0  0  0  0
    0.7591   -0.6166   -1.5393 O   0  0  0  0  0  0  0  0  0  0  0  0
    0.6884    0.7015   -1.0584 C   0  0  0  0  0  3  0  0  0  0  0  0
   -0.6149    1.3193   -1.5092 C   0  0  0  0  0  0  0  0  0  0  0  0
    2.8242   -2.1589   -3.6797 H   0  0  0  0  0  0  0  0  0  0  0  0
    1.0594   -2.1635   -3.6762 H   0  0  0  0  0  0  0  0  0  0  0  0
    1.9476   -3.6911   -3.6828 H   0  0  0  0  0  0  0  0  0  0  0  0
    2.8237   -3.1997   -1.3909 H   0  0  0  0  0  0  0  0  0  0  0  0
    1.0678   -3.2112   -1.3919 H   0  0  0  0  0  0  0  0  0  0  0  0
    2.8163   -0.7151   -1.5321 H   0  0  0  0  0  0  0  0  0  0  0  0
    2.0169   -1.3341   -0.0757 H   0  0  0  0  0  0  0  0  0  0  0  0
    0.7691    0.7049    0.2593 H   0  0  0  0  0  0  0  0  0  0  0  0
    1.5413    1.2845   -1.4363 H   0  0  0  0  0  0  0  0  0  0  0  0
   -1.4613    0.7499   -1.1236 H   0  0  0  0  0  0  0  0  0  0  0  0
   -0.6757    1.3311   -2.5981 H   0  0  0  0  0  0  0  0  0  0  0  0
   -0.6925    2.3453   -1.1462 H   0  0  0  0  0  0  0  0  0  0  0  0
  1  2  1  0
  1  6  1  0
  1  7  1  0
  1 28  1  0
  2  3  1  0
  3  4  1  0
  3  8  1  0
  3  9  1  0
  4  5  1  0
  4 10  1  0
  4 11  1  0
  5 12  1  0
  5 13  1  0
  5 14  1  0
 15 16  1  0
 15 21  1  0
 15 22  1  0
 15 23  1  0
 16 17  1  0
 16 24  1  0
 16 25  1  0
 17 18  1  0
 17 26  1  0
 17 27  1  0
 18 19  1  0
 19 20  1  0
 19 29  1  0
 20 30  1  0
 20 31  1  0
 20 32  1  0
M  RAD  1  19   2
M  END
>  <reaction>  (10) 
rmg_rxn_661

>  <mol_properties>  (10) 
{"0": {"label": "*3", "atom_type": "Cs"}, "1": {"label": "*4", "atom_type": "O2s"}, "17": {"label": "*0", "atom_type": "O2s"}, "18": {"label": "*1", "atom_type": "Cs"}, "27": {"label": "*2", "atom_type": "H0"}}

>  <type>  (10) 
unop_6

>  <geom_source>  (10) 
Heuristics

$$$$

     RDKit          3D

 32 30  0  0  0  0  0  0  0  0999 V2000
    0.6451    0.2293    1.5907 C   0  0  0  0  0  0  0  0  0  0  0  0
   -0.4948    0.7943    2.1736 O   0  0  0  0  0  0  0  0  0  0  0  0
   -1.2107    1.6184    1.2874 C   0  0  0  0  0  0  0  0  0  0  0  0
   -2.4015    2.2163    2.0079 C   0  0  0  0  0  0  0  0  0  0  0  0
   -2.0076    3.1274    3.1629 C   0  0  0  0  0  0  0  0  0  0  0  0
    1.1299   -0.3893    2.3447 H   0  0  0  0  0  0  0  0  0  0  0  0
    1.3510    1.0015    1.2559 H   0  0  0  0  0  0  0  0  0  0  0  0
   -1.5449    1.0321    0.4187 H   0  0  0  0  0  0  0  0  0  0  0  0
   -0.5554    2.4194    0.9096 H   0  0  0  0  0  0  0  0  0  0  0  0
   -3.0325    1.4009    2.3710 H   0  0  0  0  0  0  0  0  0  0  0  0
   -2.9929    2.7721    1.2750 H   0  0  0  0  0  0  0  0  0  0  0  0
   -2.8893    3.5423    3.6536 H   0  0  0  0  0  0  0  0  0  0  0  0
   -1.4293    2.5799    3.9071 H   0  0  0  0  0  0  0  0  0  0  0  0
   -1.3965    3.9619    2.8100 H   0  0  0  0  0  0  0  0  0  0  0  0
    1.7375   -3.1523   -3.2745 C   0  0  0  0  0  0  0  0  0  0  0  0
    1.7375   -3.1523   -1.7516 C   0  0  0  0  0  0  0  0  0  0  0  0
    1.7375   -1.7592   -1.1561 C   0  0  0  0  0  0  0  0  0  0  0  0
    0.5545   -1.0956   -1.5237 O   0  0  0  0  0  0  0  0  0  0  0  0
    0.4838    0.2225   -1.0428 C   0  0  0  0  0  3  0  0  0  0  0  0
   -0.8196    0.8402   -1.4936 C   0  0  0  0  0  0  0  0  0  0  0  0
    2.6196   -2.6379   -3.6641 H   0  0  0  0  0  0  0  0  0  0  0  0
    0.8548   -2.6426   -3.6606 H   0  0  0  0  0  0  0  0  0  0  0  0
    1.7430   -4.1701   -3.6672 H   0  0  0  0  0  0  0  0  0  0  0  0
    2.6190   -3.6787   -1.3753 H   0  0  0  0  0  0  0  0  0  0  0  0
    0.8631   -3.6902   -1.3763 H   0  0  0  0  0  0  0  0  0  0  0  0
    2.6117   -1.1941   -1.5165 H   0  0  0  0  0  0  0  0  0  0  0  0
    1.8123   -1.8131   -0.0600 H   0  0  0  0  0  0  0  0  0  0  0  0
    0.5645    0.2259    0.2749 H   0  0  0  0  0  0  0  0  0  0  0  0
    1.3366    0.8054   -1.4207 H   0  0  0  0  0  0  0  0  0  0  0  0
   -1.6659    0.2708   -1.1079 H   0  0  0  0  0  0  0  0  0  0  0  0
   -0.8804    0.8521   -2.5824 H   0  0  0  0  0  0  0  0  0  0  0  0
   -0.8972    1.8663   -1.1306 H   0  0  0  0  0  0  0  0  0  0  0  0
  1  2  1  0
  1  6  1  0
  1  7  1  0
  1 28  1  0
  2  3  1  0
  3  4  1  0
  3  8  1  0
  3  9  1  0
  4  5  1  0
  4 10  1  0
  4 11  1  0
  5 12  1  0
  5 13  1  0
  5 14  1  0
 15 16  1  0
 15 21  1  0
 15 22  1  0
 15 23  1  0
 16 17  1  0
 16 24  1  0
 16 25  1  0
 17 18  1  0
 17 26  1  0
 17 27  1  0
 18 19  1  0
 19 20  1  0
 19 29  1  0
 20 30  1  0
 20 31  1  0
 20 32  1  0
M  RAD  1  19   2
M  END
>  <reaction>  (11) 
rmg_rxn_661

>  <mol_properties>  (11) 
{"0": {"label": "*3", "atom_type": "Cs"}, "1": {"label": "*4", "atom_type": "O2s"}, "17": {"label": "*0", "atom_type": "O2s"}, "18": {"label": "*1", "atom_type": "Cs"}, "27": {"label": "*2", "atom_type": "H0"}}

>  <type>  (11) 
unop_7

>  <geom_source>  (11) 
Heuristics

$$$$

     RDKit          3D

 32 30  0  0  0  0  0  0  0  0999 V2000
   -1.0307    1.0343    1.3346 C   0  0  0  0  0  0  0  0  0  0  0  0
    0.2962    1.1342    1.7676 O   0  0  0  0  0  0  0  0  0  0  0  0
    0.8444   -0.1056    2.1409 C   0  0  0  0  0  0  0  0  0  0  0  0
    2.2632    0.0990    2.6305 C   0  0  0  0  0  0  0  0  0  0  0  0
    2.3463    0.9604    3.8837 C   0  0  0  0  0  0  0  0  0  0  0  0
   -1.3673    2.0349    1.0667 H   0  0  0  0  0  0  0  0  0  0  0  0
   -1.6834    0.6386    2.1246 H   0  0  0  0  0  0  0  0  0  0  0  0
    0.8321   -0.7936    1.2826 H   0  0  0  0  0  0  0  0  0  0  0  0
    0.2317   -0.5615    2.9350 H   0  0  0  0  0  0  0  0  0  0  0  0
    2.8465    0.5514    1.8244 H   0  0  0  0  0  0  0  0  0  0  0  0
    2.6977   -0.8862    2.8216 H   0  0  0  0  0  0  0  0  0  0  0  0
    3.3807    1.0814    4.2086 H   0  0  0  0  0  0  0  0  0  0  0  0
    1.9286    1.9503    3.7005 H   0  0  0  0  0  0  0  0  0  0  0  0
    1.7875    0.5068    4.7060 H   0  0  0  0  0  0  0  0  0  0  0  0
    0.0617   -2.3473   -3.5306 C   0  0  0  0  0  0  0  0  0  0  0  0
    0.0617   -2.3473   -2.0077 C   0  0  0  0  0  0  0  0  0  0  0  0
    0.0617   -0.9542   -1.4122 C   0  0  0  0  0  0  0  0  0  0  0  0
   -1.1213   -0.2906   -1.7798 O   0  0  0  0  0  0  0  0  0  0  0  0
   -1.1920    1.0275   -1.2989 C   0  0  0  0  0  3  0  0  0  0  0  0
   -2.4953    1.6452   -1.7498 C   0  0  0  0  0  0  0  0  0  0  0  0
    0.9438   -1.8329   -3.9203 H   0  0  0  0  0  0  0  0  0  0  0  0
   -0.8210   -1.8376   -3.9167 H   0  0  0  0  0  0  0  0  0  0  0  0
    0.0672   -3.3651   -3.9233 H   0  0  0  0  0  0  0  0  0  0  0  0
    0.9433   -2.8737   -1.6315 H   0  0  0  0  0  0  0  0  0  0  0  0
   -0.8126   -2.8852   -1.6325 H   0  0  0  0  0  0  0  0  0  0  0  0
    0.9359   -0.3891   -1.7726 H   0  0  0  0  0  0  0  0  0  0  0  0
    0.1365   -1.0081   -0.3162 H   0  0  0  0  0  0  0  0  0  0  0  0
   -1.1113    1.0309    0.0188 H   0  0  0  0  0  0  0  0  0  0  0  0
   -0.3391    1.6104   -1.6768 H   0  0  0  0  0  0  0  0  0  0  0  0
   -3.3417    1.0758   -1.3641 H   0  0  0  0  0  0  0  0  0  0  0  0
   -2.5561    1.6571   -2.8386 H   0  0  0  0  0  0  0  0  0  0  0  0
   -2.5729    2.6713   -1.3867 H   0  0  0  0  0  0  0  0  0  0  0  0
  1  2  1  0
  1  6  1  0
  1  7  1  0
  1 28  1  0
  2  3  1  0
  3  4  1  0
  3  8  1  0
  3  9  1  0
  4  5  1  0
  4 10  1  0
  4 11  1  0
  5 12  1  0
  5 13  1  0
  5 14  1  0
 15 16  1  0
 15 21  1  0
 15 22  1  0
 15 23  1  0
 16 17  1  0
 16 24  1  0
 16 25  1  0
 17 18  1  0
 17 26  1  0
 17 27  1  0
 18 19  1  0
 19 20  1  0
 19 29  1  0
 20 30  1  0
 20 31  1  0
 20 32  1  0
M  RAD  1  19   2
M  END
>  <reaction>  (12) 
rmg_rxn_661

>  <mol_properties>  (12) 
{"0": {"label": "*3", "atom_type": "Cs"}, "1": {"label": "*4", "atom_type": "O2s"}, "17": {"label": "*0", "atom_type": "O2s"}, "18": {"label": "*1", "atom_type": "Cs"}, "27": {"label": "*2", "atom_type": "H0"}}

>  <type>  (12) 
unop_8

>  <geom_source>  (12) 
Heuristics

$$$$

     RDKit          3D

 32 30  0  0  0  0  0  0  0  0999 V2000
    0.5097    1.5898    1.5060 C   0  0  0  0  0  0  0  0  0  0  0  0
   -0.0212    0.4178    2.0561 O   0  0  0  0  0  0  0  0  0  0  0  0
   -1.2222    0.0208    1.4420 C   0  0  0  0  0  0  0  0  0  0  0  0
   -1.7450   -1.2283    2.1210 C   0  0  0  0  0  0  0  0  0  0  0  0
   -2.1042   -1.0091    3.5846 C   0  0  0  0  0  0  0  0  0  0  0  0
    1.4323    1.8167    2.0388 H   0  0  0  0  0  0  0  0  0  0  0  0
   -0.1823    2.4357    1.6160 H   0  0  0  0  0  0  0  0  0  0  0  0
   -1.0501   -0.1696    0.3723 H   0  0  0  0  0  0  0  0  0  0  0  0
   -1.9652    0.8309    1.5152 H   0  0  0  0  0  0  0  0  0  0  0  0
   -0.9893   -2.0131    2.0331 H   0  0  0  0  0  0  0  0  0  0  0  0
   -2.6227   -1.5700    1.5653 H   0  0  0  0  0  0  0  0  0  0  0  0
   -2.4807   -1.9272    4.0379 H   0  0  0  0  0  0  0  0  0  0  0  0
   -1.2327   -0.6817    4.1514 H   0  0  0  0  0  0  0  0  0  0  0  0
   -2.8776   -0.2437    3.6857 H   0  0  0  0  0  0  0  0  0  0  0  0
    1.6022   -1.7918   -3.3592 C   0  0  0  0  0  0  0  0  0  0  0  0
    1.6022   -1.7918   -1.8363 C   0  0  0  0  0  0  0  0  0  0  0  0
    1.6022   -0.3987   -1.2408 C   0  0  0  0  0  0  0  0  0  0  0  0
    0.4192    0.2649   -1.6084 O   0  0  0  0  0  0  0  0  0  0  0  0
    0.3485    1.5829   -1.1275 C   0  0  0  0  0  3  0  0  0  0  0  0
   -0.9549    2.2007   -1.5783 C   0  0  0  0  0  0  0  0  0  0  0  0
    2.4842   -1.2775   -3.7488 H   0  0  0  0  0  0  0  0  0  0  0  0
    0.7195   -1.2821   -3.7453 H   0  0  0  0  0  0  0  0  0  0  0  0
    1.6077   -2.8097   -3.7519 H   0  0  0  0  0  0  0  0  0  0  0  0
    2.4837   -2.3183   -1.4600 H   0  0  0  0  0  0  0  0  0  0  0  0
    0.7278   -2.3298   -1.4610 H   0  0  0  0  0  0  0  0  0  0  0  0
    2.4764    0.1663   -1.6012 H   0  0  0  0  0  0  0  0  0  0  0  0
    1.6770   -0.4527   -0.1448 H   0  0  0  0  0  0  0  0  0  0  0  0
    0.4292    1.5863    0.1902 H   0  0  0  0  0  0  0  0  0  0  0  0
    1.2013    2.1659   -1.5054 H   0  0  0  0  0  0  0  0  0  0  0  0
   -1.8012    1.6313   -1.1927 H   0  0  0  0  0  0  0  0  0  0  0  0
   -1.0157    2.2125   -2.6672 H   0  0  0  0  0  0  0  0  0  0  0  0
   -1.0325    3.2267   -1.2153 H   0  0  0  0  0  0  0  0  0  0  0  0
  1  2  1  0
  1  6  1  0
  1  7  1  0
  1 28  1  0
  2  3  1  0
  3  4  1  0
  3  8  1  0
  3  9  1  0
  4  5  1  0
  4 10  1  0
  4 11  1  0
  5 12  1  0
  5 13  1  0
  5 14  1  0
 15 16  1  0
 15 21  1  0
 15 22  1  0
 15 23  1  0
 16 17  1  0
 16 24  1  0
 16 25  1  0
 17 18  1  0
 17 26  1  0
 17 27  1  0
 18 19  1  0
 19 20  1  0
 19 29  1  0
 20 30  1  0
 20 31  1  0
 20 32  1  0
M  RAD  1  19   2
M  END
>  <reaction>  (13) 
rmg_rxn_661

>  <mol_properties>  (13) 
{"0": {"label": "*3", "atom_type": "Cs"}, "1": {"label": "*4", "atom_type": "O2s"}, "17": {"label": "*0", "atom_type": "O2s"}, "18": {"label": "*1", "atom_type": "Cs"}, "27": {"label": "*2", "atom_type": "H0"}}

>  <type>  (13) 
unop_9

>  <geom_source>  (13) 
Heuristics

$$$$

     RDKit          3D

 32 30  0  0  0  0  0  0  0  0999 V2000
   -0.8252    1.4657    1.3528 C   0  0  0  0  0  0  0  0  0  0  0  0
    0.3774    0.9034    1.7951 O   0  0  0  0  0  0  0  0  0  0  0  0
    0.2756   -0.4759    2.0487 C   0  0  0  0  0  0  0  0  0  0  0  0
    1.6053   -0.9930    2.5576 C   0  0  0  0  0  0  0  0  0  0  0  0
    2.0186   -0.3769    3.8875 C   0  0  0  0  0  0  0  0  0  0  0  0
   -0.6507    2.5271    1.1815 H   0  0  0  0  0  0  0  0  0  0  0  0
   -1.6219    1.3519    2.1004 H   0  0  0  0  0  0  0  0  0  0  0  0
   -0.0131   -1.0050    1.1285 H   0  0  0  0  0  0  0  0  0  0  0  0
   -0.5136   -0.6616    2.7947 H   0  0  0  0  0  0  0  0  0  0  0  0
    2.3674   -0.7957    1.7992 H   0  0  0  0  0  0  0  0  0  0  0  0
    1.5282   -2.0796    2.6540 H   0  0  0  0  0  0  0  0  0  0  0  0
    2.9766   -0.7761    4.2240 H   0  0  0  0  0  0  0  0  0  0  0  0
    2.1124    0.7054    3.7995 H   0  0  0  0  0  0  0  0  0  0  0  0
    1.2770   -0.5879    4.6620 H   0  0  0  0  0  0  0  0  0  0  0  0
    0.2673   -1.9159   -3.5124 C   0  0  0  0  0  0  0  0  0  0  0  0
    0.2673   -1.9159   -1.9895 C   0  0  0  0  0  0  0  0  0  0  0  0
    0.2673   -0.5228   -1.3940 C   0  0  0  0  0  0  0  0  0  0  0  0
   -0.9157    0.1408   -1.7616 O   0  0  0  0  0  0  0  0  0  0  0  0
   -0.9865    1.4588   -1.2807 C   0  0  0  0  0  3  0  0  0  0  0  0
   -2.2898    2.0766   -1.7315 C   0  0  0  0  0  0  0  0  0  0  0  0
    1.1493   -1.4016   -3.9021 H   0  0  0  0  0  0  0  0  0  0  0  0
   -0.6155   -1.4062   -3.8985 H   0  0  0  0  0  0  0  0  0  0  0  0
    0.2727   -2.9338   -3.9051 H   0  0  0  0  0  0  0  0  0  0  0  0
    1.1488   -2.4424   -1.6133 H   0  0  0  0  0  0  0  0  0  0  0  0
   -0.6071   -2.4539   -1.6143 H   0  0  0  0  0  0  0  0  0  0  0  0
    1.1415    0.0423   -1.7544 H   0  0  0  0  0  0  0  0  0  0  0  0
    0.3420   -0.5767   -0.2980 H   0  0  0  0  0  0  0  0  0  0  0  0
   -0.9058    1.4623    0.0370 H   0  0  0  0  0  0  0  0  0  0  0  0
   -0.1336    2.0418   -1.6586 H   0  0  0  0  0  0  0  0  0  0  0  0
   -3.1361    1.5072   -1.3459 H   0  0  0  0  0  0  0  0  0  0  0  0
   -2.3506    2.0885   -2.8204 H   0  0  0  0  0  0  0  0  0  0  0  0
   -2.3674    3.1026   -1.3685 H   0  0  0  0  0  0  0  0  0  0  0  0
  1  2  1  0
  1  6  1  0
  1  7  1  0
  1 28  1  0
  2  3  1  0
  3  4  1  0
  3  8  1  0
  3  9  1  0
  4  5  1  0
  4 10  1  0
  4 11  1  0
  5 12  1  0
  5 13  1  0
  5 14  1  0
 15 16  1  0
 15 21  1  0
 15 22  1  0
 15 23  1  0
 16 17  1  0
 16 24  1  0
 16 25  1  0
 17 18  1  0
 17 26  1  0
 17 27  1  0
 18 19  1  0
 19 20  1  0
 19 29  1  0
 20 30  1  0
 20 31  1  0
 20 32  1  0
M  RAD  1  19   2
M  END
>  <reaction>  (14) 
rmg_rxn_661

>  <mol_properties>  (14) 
{"0": {"label": "*3", "atom_type": "Cs"}, "1": {"label": "*4", "atom_type": "O2s"}, "17": {"label": "*0", "atom_type": "O2s"}, "18": {"label": "*1", "atom_type": "Cs"}, "27": {"label": "*2", "atom_type": "H0"}}

>  <type>  (14) 
unop_10

>  <geom_source>  (14) 
Heuristics

$$$$

     RDKit          3D

 32 30  0  0  0  0  0  0  0  0999 V2000
    0.1862   -0.0907    1.5777 C   0  0  0  0  0  0  0  0  0  0  0  0
   -0.5155    0.9854    2.1324 O   0  0  0  0  0  0  0  0  0  0  0  0
   -0.5205    2.1208    1.3029 C   0  0  0  0  0  0  0  0  0  0  0  0
   -1.2649    3.2447    1.9937 C   0  0  0  0  0  0  0  0  0  0  0  0
   -0.5973    3.7017    3.2839 C   0  0  0  0  0  0  0  0  0  0  0  0
    0.1344   -0.9184    2.2838 H   0  0  0  0  0  0  0  0  0  0  0  0
    1.2406    0.1632    1.4032 H   0  0  0  0  0  0  0  0  0  0  0  0
   -0.9987    1.8799    0.3420 H   0  0  0  0  0  0  0  0  0  0  0  0
    0.5145    2.4295    1.0855 H   0  0  0  0  0  0  0  0  0  0  0  0
   -2.2859    2.9113    2.1967 H   0  0  0  0  0  0  0  0  0  0  0  0
   -1.3382    4.0800    1.2917 H   0  0  0  0  0  0  0  0  0  0  0  0
   -1.1579    4.5136    3.7495 H   0  0  0  0  0  0  0  0  0  0  0  0
   -0.5316    2.8801    3.9970 H   0  0  0  0  0  0  0  0  0  0  0  0
    0.4166    4.0616    3.0918 H   0  0  0  0  0  0  0  0  0  0  0  0
    1.2786   -3.4722   -3.2876 C   0  0  0  0  0  0  0  0  0  0  0  0
    1.2786   -3.4722   -1.7647 C   0  0  0  0  0  0  0  0  0  0  0  0
    1.2786   -2.0792   -1.1691 C   0  0  0  0  0  0  0  0  0  0  0  0
    0.0956   -1.4156   -1.5367 O   0  0  0  0  0  0  0  0  0  0  0  0
    0.0249   -0.0975   -1.0559 C   0  0  0  0  0  3  0  0  0  0  0  0
   -1.2784    0.5203   -1.5067 C   0  0  0  0  0  0  0  0  0  0  0  0
    2.1607   -2.9579   -3.6772 H   0  0  0  0  0  0  0  0  0  0  0  0
    0.3959   -2.9626   -3.6736 H   0  0  0  0  0  0  0  0  0  0  0  0
    1.2841   -4.4901   -3.6802 H   0  0  0  0  0  0  0  0  0  0  0  0
    2.1601   -3.9987   -1.3884 H   0  0  0  0  0  0  0  0  0  0  0  0
    0.4042   -4.0102   -1.3894 H   0  0  0  0  0  0  0  0  0  0  0  0
    2.1528   -1.5141   -1.5295 H   0  0  0  0  0  0  0  0  0  0  0  0
    1.3534   -2.1331   -0.0731 H   0  0  0  0  0  0  0  0  0  0  0  0
    0.1056   -0.0941    0.2618 H   0  0  0  0  0  0  0  0  0  0  0  0
    0.8778    0.4855   -1.4337 H   0  0  0  0  0  0  0  0  0  0  0  0
   -2.1248   -0.0491   -1.1210 H   0  0  0  0  0  0  0  0  0  0  0  0
   -1.3392    0.5321   -2.5955 H   0  0  0  0  0  0  0  0  0  0  0  0
   -1.3560    1.5463   -1.1436 H   0  0  0  0  0  0  0  0  0  0  0  0
  1  2  1  0
  1  6  1  0
  1  7  1  0
  1 28  1  0
  2  3  1  0
  3  4  1  0
  3  8  1  0
  3  9  1  0
  4  5  1  0
  4 10  1  0
  4 11  1  0
  5 12  1  0
  5 13  1  0
  5 14  1  0
 15 16  1  0
 15 21  1  0
 15 22  1  0
 15 23  1  0
 16 17  1  0
 16 24  1  0
 16 25  1  0
 17 18  1  0
 17 26  1  0
 17 27  1  0
 18 19  1  0
 19 20  1  0
 19 29  1  0
 20 30  1  0
 20 31  1  0
 20 32  1  0
M  RAD  1  19   2
M  END
>  <reaction>  (15) 
rmg_rxn_661

>  <mol_properties>  (15) 
{"0": {"label": "*3", "atom_type": "Cs"}, "1": {"label": "*4", "atom_type": "O2s"}, "17": {"label": "*0", "atom_type": "O2s"}, "18": {"label": "*1", "atom_type": "Cs"}, "27": {"label": "*2", "atom_type": "H0"}}

>  <type>  (15) 
unop_11

>  <geom_source>  (15) 
Heuristics

$$$$

     RDKit          3D

 32 30  0  0  0  0  0  0  0  0999 V2000
    0.0715    1.7912    1.4468 C   0  0  0  0  0  0  0  0  0  0  0  0
    0.2015    0.4946    1.9567 O   0  0  0  0  0  0  0  0  0  0  0  0
   -0.8880   -0.3326    1.6315 C   0  0  0  0  0  0  0  0  0  0  0  0
   -0.6844   -1.6992    2.2523 C   0  0  0  0  0  0  0  0  0  0  0  0
   -0.6539   -1.6674    3.7746 C   0  0  0  0  0  0  0  0  0  0  0  0
    0.9553    2.3538    1.7446 H   0  0  0  0  0  0  0  0  0  0  0  0
   -0.8209    2.2930    1.8449 H   0  0  0  0  0  0  0  0  0  0  0  0
   -0.9787   -0.4193    0.5386 H   0  0  0  0  0  0  0  0  0  0  0  0
   -1.8227    0.1168    2.0032 H   0  0  0  0  0  0  0  0  0  0  0  0
    0.2477   -2.1201    1.8667 H   0  0  0  0  0  0  0  0  0  0  0  0
   -1.4927   -2.3491    1.9057 H   0  0  0  0  0  0  0  0  0  0  0  0
   -0.5108   -2.6680    4.1851 H   0  0  0  0  0  0  0  0  0  0  0  0
    0.1575   -1.0333    4.1316 H   0  0  0  0  0  0  0  0  0  0  0  0
   -1.5906   -1.2716    4.1749 H   0  0  0  0  0  0  0  0  0  0  0  0
    1.1639   -1.5903   -3.4185 C   0  0  0  0  0  0  0  0  0  0  0  0
    1.1639   -1.5903   -1.8956 C   0  0  0  0  0  0  0  0  0  0  0  0
    1.1639   -0.1973   -1.3001 C   0  0  0  0  0  0  0  0  0  0  0  0
   -0.0191    0.4663   -1.6677 O   0  0  0  0  0  0  0  0  0  0  0  0
   -0.0898    1.7844   -1.1868 C   0  0  0  0  0  3  0  0  0  0  0  0
   -1.3931    2.4022   -1.6376 C   0  0  0  0  0  0  0  0  0  0  0  0
    2.0460   -1.0760   -3.8081 H   0  0  0  0  0  0  0  0  0  0  0  0
    0.2812   -1.0806   -3.8046 H   0  0  0  0  0  0  0  0  0  0  0  0
    1.1694   -2.6082   -3.8111 H   0  0  0  0  0  0  0  0  0  0  0  0
    2.0455   -2.1168   -1.5193 H   0  0  0  0  0  0  0  0  0  0  0  0
    0.2896   -2.1283   -1.5203 H   0  0  0  0  0  0  0  0  0  0  0  0
    2.0381    0.3678   -1.6604 H   0  0  0  0  0  0  0  0  0  0  0  0
    1.2387   -0.2512   -0.2040 H   0  0  0  0  0  0  0  0  0  0  0  0
   -0.0091    1.7878    0.1309 H   0  0  0  0  0  0  0  0  0  0  0  0
    0.7631    2.3674   -1.5646 H   0  0  0  0  0  0  0  0  0  0  0  0
   -2.2395    1.8328   -1.2519 H   0  0  0  0  0  0  0  0  0  0  0  0
   -1.4539    2.4140   -2.7264 H   0  0  0  0  0  0  0  0  0  0  0  0
   -1.4707    3.4282   -1.2745 H   0  0  0  0  0  0  0  0  0  0  0  0
  1  2  1  0
  1  6  1  0
  1  7  1  0
  1 28  1  0
  2  3  1  0
  3  4  1  0
  3  8  1  0
  3  9  1  0
  4  5  1  0
  4 10  1  0
  4 11  1  0
  5 12  1  0
  5 13  1  0
  5 14  1  0
 15 16  1  0
 15 21  1  0
 15 22  1  0
 15 23  1  0
 16 17  1  0
 16 24  1  0
 16 25  1  0
 17 18  1  0
 17 26  1  0
 17 27  1  0
 18 19  1  0
 19 20  1  0
 19 29  1  0
 20 30  1  0
 20 31  1  0
 20 32  1  0
M  RAD  1  19   2
M  END
>  <reaction>  (16) 
rmg_rxn_661

>  <mol_properties>  (16) 
{"0": {"label": "*3", "atom_type": "Cs"}, "1": {"label": "*4", "atom_type": "O2s"}, "17": {"label": "*0", "atom_type": "O2s"}, "18": {"label": "*1", "atom_type": "Cs"}, "27": {"label": "*2", "atom_type": "H0"}}

>  <type>  (16) 
unop_12

>  <geom_source>  (16) 
Heuristics

$$$$

     RDKit          3D

 32 30  0  0  0  0  0  0  0  0999 V2000
   -2.2698   -0.7338    0.2893 O   0  0  0  0  0  0  0  0  0  0  0  0
    1.7641   -0.3744    0.1253 O   0  0  0  0  0  0  0  0  0  0  0  0
   -3.6956    1.1149   -0.3891 C   0  0  0  0  0  0  0  0  0  0  0  0
    3.7899    0.8742    0.4847 C   0  0  0  0  0  0  0  0  0  0  0  0
   -3.5274   -0.4049   -0.2732 C   0  0  0  0  0  0  0  0  0  0  0  0
    3.1260   -0.2956   -0.2429 C   0  0  0  0  0  0  0  0  0  0  0  0
   -3.6236    1.8028    0.9726 C   0  0  0  0  0  0  0  0  0  0  0  0
    3.2030    2.2181    0.0578 C   0  0  0  0  0  0  0  0  0  0  0  0
    1.1558   -2.6829    0.5412 C   0  0  0  0  0  0  0  0  0  0  0  0
   -1.3315   -1.0094   -0.7273 C   0  0  0  0  0  0  0  0  0  0  0  0
    1.1711   -1.5238   -0.4453 C   0  0  0  0  0  3  0  0  0  0  0  0
   -4.6839    1.3330   -0.8485 H   0  0  0  0  0  0  0  0  0  0  0  0
   -2.9111    1.5337   -1.0546 H   0  0  0  0  0  0  0  0  0  0  0  0
    4.8784    0.8701    0.2595 H   0  0  0  0  0  0  0  0  0  0  0  0
    3.6640    0.7484    1.5821 H   0  0  0  0  0  0  0  0  0  0  0  0
   -4.3198   -0.8008    0.3974 H   0  0  0  0  0  0  0  0  0  0  0  0
   -3.7067   -0.8778   -1.2683 H   0  0  0  0  0  0  0  0  0  0  0  0
    3.2272   -0.1424   -1.3418 H   0  0  0  0  0  0  0  0  0  0  0  0
    3.6680   -1.2259    0.0427 H   0  0  0  0  0  0  0  0  0  0  0  0
   -4.4096    1.4045    1.6489 H   0  0  0  0  0  0  0  0  0  0  0  0
   -3.7849    2.8940    0.8455 H   0  0  0  0  0  0  0  0  0  0  0  0
   -2.6261    1.6456    1.4351 H   0  0  0  0  0  0  0  0  0  0  0  0
    3.3323    2.3663   -1.0355 H   0  0  0  0  0  0  0  0  0  0  0  0
    3.7283    3.0381    0.5911 H   0  0  0  0  0  0  0  0  0  0  0  0
    2.1225    2.2686    0.3100 H   0  0  0  0  0  0  0  0  0  0  0  0
    0.6741   -2.3641    1.4891 H   0  0  0  0  0  0  0  0  0  0  0  0
    0.5766   -3.5254    0.1098 H   0  0  0  0  0  0  0  0  0  0  0  0
    2.1902   -3.0262    0.7507 H   0  0  0  0  0  0  0  0  0  0  0  0
   -1.6047   -1.9382   -1.2749 H   0  0  0  0  0  0  0  0  0  0  0  0
   -1.2319   -0.1568   -1.4348 H   0  0  0  0  0  0  0  0  0  0  0  0
   -0.1328   -1.2088   -0.1602 H   0  0  0  0  0  0  0  0  0  0  0  0
    1.5881   -1.8213   -1.4363 H   0  0  0  0  0  0  0  0  0  0  0  0
  1 10  1  0
  1  5  1  0
  2 11  1  0
  2  6  1  0
  3  7  1  0
  3  5  1  0
  3 12  1  0
  3 13  1  0
  4  8  1  0
  4  6  1  0
  4 14  1  0
  4 15  1  0
  5 16  1  0
  5 17  1  0
  6 18  1  0
  6 19  1  0
  7 20  1  0
  7 21  1  0
  7 22  1  0
  8 23  1  0
  8 24  1  0
  8 25  1  0
  9 11  1  0
  9 26  1  0
  9 27  1  0
  9 28  1  0
 10 29  1  0
 10 30  1  0
 10 31  1  0
 11 32  1  0
M  RAD  1  11   2
M  END
>  <reaction>  (17) 
rmg_rxn_661

>  <mol_properties>  (17) 
{"0": {"label": "*3", "atom_type": "Cs"}, "1": {"label": "*4", "atom_type": "O2s"}, "17": {"label": "*0", "atom_type": "O2s"}, "18": {"label": "*1", "atom_type": "Cs"}, "27": {"label": "*2", "atom_type": "H0"}}

>  <type>  (17) 
unop_13

>  <geom_source>  (17) 
AutoTST

$$$$

     RDKit          3D

 32 30  0  0  0  0  0  0  0  0999 V2000
   -0.4203    1.7476    1.3896 C   0  0  0  0  0  0  0  0  0  0  0  0
    0.3442    0.6742    1.8601 O   0  0  0  0  0  0  0  0  0  0  0  0
   -0.3638   -0.5407    1.8651 C   0  0  0  0  0  0  0  0  0  0  0  0
    0.5217   -1.6362    2.4223 C   0  0  0  0  0  0  0  0  0  0  0  0
    0.9189   -1.4052    3.8742 C   0  0  0  0  0  0  0  0  0  0  0  0
    0.2062    2.6381    1.4197 H   0  0  0  0  0  0  0  0  0  0  0  0
   -1.3074    1.9151    2.0154 H   0  0  0  0  0  0  0  0  0  0  0  0
   -0.6838   -0.7912    0.8428 H   0  0  0  0  0  0  0  0  0  0  0  0
   -1.2737   -0.4406    2.4780 H   0  0  0  0  0  0  0  0  0  0  0  0
    1.4144   -1.7128    1.7962 H   0  0  0  0  0  0  0  0  0  0  0  0
   -0.0155   -2.5837    2.3253 H   0  0  0  0  0  0  0  0  0  0  0  0
    1.5509   -2.2151    4.2416 H   0  0  0  0  0  0  0  0  0  0  0  0
    1.4678   -0.4696    3.9805 H   0  0  0  0  0  0  0  0  0  0  0  0
    0.0360   -1.3515    4.5160 H   0  0  0  0  0  0  0  0  0  0  0  0
    0.6721   -1.6340   -3.4756 C   0  0  0  0  0  0  0  0  0  0  0  0
    0.6721   -1.6340   -1.9527 C   0  0  0  0  0  0  0  0  0  0  0  0
    0.6721   -0.2409   -1.3572 C   0  0  0  0  0  0  0  0  0  0  0  0
   -0.5109    0.4227   -1.7248 O   0  0  0  0  0  0  0  0  0  0  0  0
   -0.5816    1.7408   -1.2439 C   0  0  0  0  0  3  0  0  0  0  0  0
   -1.8849    2.3586   -1.6947 C   0  0  0  0  0  0  0  0  0  0  0  0
    1.5542   -1.1196   -3.8653 H   0  0  0  0  0  0  0  0  0  0  0  0
   -0.2106   -1.1242   -3.8617 H   0  0  0  0  0  0  0  0  0  0  0  0
    0.6776   -2.6518   -3.8683 H   0  0  0  0  0  0  0  0  0  0  0  0
    1.5536   -2.1604   -1.5764 H   0  0  0  0  0  0  0  0  0  0  0  0
   -0.2023   -2.1719   -1.5775 H   0  0  0  0  0  0  0  0  0  0  0  0
    1.5463    0.3242   -1.7176 H   0  0  0  0  0  0  0  0  0  0  0  0
    0.7469   -0.2948   -0.2612 H   0  0  0  0  0  0  0  0  0  0  0  0
   -0.5009    1.7442    0.0738 H   0  0  0  0  0  0  0  0  0  0  0  0
    0.2712    2.3237   -1.6218 H   0  0  0  0  0  0  0  0  0  0  0  0
   -2.7313    1.7892   -1.3091 H   0  0  0  0  0  0  0  0  0  0  0  0
   -1.9458    2.3704   -2.7836 H   0  0  0  0  0  0  0  0  0  0  0  0
   -1.9626    3.3846   -1.3317 H   0  0  0  0  0  0  0  0  0  0  0  0
  1  2  1  0
  1  6  1  0
  1  7  1  0
  1 28  1  0
  2  3  1  0
  3  4  1  0
  3  8  1  0
  3  9  1  0
  4  5  1  0
  4 10  1  0
  4 11  1  0
  5 12  1  0
  5 13  1  0
  5 14  1  0
 15 16  1  0
 15 21  1  0
 15 22  1  0
 15 23  1  0
 16 17  1  0
 16 24  1  0
 16 25  1  0
 17 18  1  0
 17 26  1  0
 17 27  1  0
 18 19  1  0
 19 20  1  0
 19 29  1  0
 20 30  1  0
 20 31  1  0
 20 32  1  0
M  RAD  1  19   2
M  END
>  <reaction>  (18) 
rmg_rxn_661

>  <mol_properties>  (18) 
{"0": {"label": "*3", "atom_type": "Cs"}, "1": {"label": "*4", "atom_type": "O2s"}, "17": {"label": "*0", "atom_type": "O2s"}, "18": {"label": "*1", "atom_type": "Cs"}, "27": {"label": "*2", "atom_type": "H0"}}

>  <type>  (18) 
unop_14

>  <geom_source>  (18) 
gaussian_log

$$$$
