
     RDKit          3D

  9  8  0  0  0  0  0  0  0  0999 V2000
   -1.5470   -0.0755   -0.1976 C   0  0  0  0  0  0  0  0  0  0  0  0
   -0.2885    0.4507    0.1749 O   0  0  0  0  0  0  0  0  0  0  0  0
   -0.1502    1.7216   -0.3294 N   0  0  0  0  0  0  0  0  0  0  0  0
    0.9626    2.2353   -0.0219 C   0  0  0  0  0  0  0  0  0  0  0  0
   -1.6392   -0.1356   -1.2844 H   0  0  0  0  0  0  0  0  0  0  0  0
   -2.3597    0.5337    0.2044 H   0  0  0  0  0  0  0  0  0  0  0  0
   -1.5879   -1.0750    0.2318 H   0  0  0  0  0  0  0  0  0  0  0  0
    1.1497    3.2381   -0.3820 H   0  0  0  0  0  0  0  0  0  0  0  0
    1.7060    1.7101    0.5739 H   0  0  0  0  0  0  0  0  0  0  0  0
  1  2  1  0
  1  5  1  0
  1  6  1  0
  1  7  1  0
  2  3  1  0
  3  4  2  3
  4  8  1  0
  4  9  1  0
M  END
>  <reaction>  (1) 
rmg_rxn_15633

>  <mol_properties>  (1) 
{"0": {"label": "donator", "atom_type": "Cs"}, "4": {"label": "d_hydrogen", "atom_type": "H0"}}

>  <type>  (1) 
r1h

$$$$

     RDKit          3D

 13 12  0  0  0  0  0  0  0  0999 V2000
   -1.5799    1.1067    0.0515 C   0  0  0  0  0  3  0  0  0  0  0  0
   -0.9928   -0.2393    0.2618 C   0  0  0  0  0  0  0  0  0  0  0  0
   -1.7555   -1.0997    1.2551 C   0  0  0  0  0  0  0  0  0  0  0  0
   -1.8361   -0.4775    2.5485 O   0  0  0  0  0  0  0  0  0  0  0  0
   -0.7917   -0.6299    3.3579 C   0  0  0  0  0  0  0  0  0  0  0  0
    0.2062   -1.2445    3.1186 O   0  0  0  0  0  0  0  0  0  0  0  0
   -1.2812    1.7056   -0.7974 H   0  0  0  0  0  0  0  0  0  0  0  0
   -2.2051    1.5632    0.8066 H   0  0  0  0  0  0  0  0  0  0  0  0
    0.0498   -0.1629    0.6011 H   0  0  0  0  0  0  0  0  0  0  0  0
   -0.9461   -0.7884   -0.6853 H   0  0  0  0  0  0  0  0  0  0  0  0
   -1.2850   -2.0771    1.3590 H   0  0  0  0  0  0  0  0  0  0  0  0
   -2.7930   -1.2235    0.9483 H   0  0  0  0  0  0  0  0  0  0  0  0
   -0.9863   -0.1022    4.3012 H   0  0  0  0  0  0  0  0  0  0  0  0
  1  2  1  0
  1  7  1  0
  1  8  1  0
  2  3  1  0
  2  9  1  0
  2 10  1  0
  3  4  1  0
  3 11  1  0
  3 12  1  0
  4  5  1  0
  5  6  2  0
  5 13  1  0
M  RAD  1   1   2
M  END
>  <reaction>  (2) 
rmg_rxn_15633

>  <mol_properties>  (2) 
{"0": {"label": "acceptor", "atom_type": "Cs"}}

>  <type>  (2) 
r2

$$$$

     RDKit          3D

 14 13  0  0  0  0  0  0  0  0999 V2000
    2.1277    0.0527   -0.0768 C   0  0  0  0  0  0  0  0  0  0  0  0
    0.8550    0.0849    0.7591 C   0  0  0  0  0  0  0  0  0  0  0  0
    0.7150    1.3361    1.5963 C   0  0  0  0  0  0  0  0  0  0  0  0
    0.5975    2.4604    0.7083 O   0  0  0  0  0  0  0  0  0  0  0  0
    0.5113    3.6572    1.2782 C   0  0  0  0  0  0  0  0  0  0  0  0
    0.5224    3.8788    2.4534 O   0  0  0  0  0  0  0  0  0  0  0  0
    3.0138    0.1211    0.5584 H   0  0  0  0  0  0  0  0  0  0  0  0
    2.1544    0.8845   -0.7813 H   0  0  0  0  0  0  0  0  0  0  0  0
    2.1955   -0.8742   -0.6473 H   0  0  0  0  0  0  0  0  0  0  0  0
    0.8361   -0.7663    1.4449 H   0  0  0  0  0  0  0  0  0  0  0  0
   -0.0232   -0.0114    0.1158 H   0  0  0  0  0  0  0  0  0  0  0  0
   -0.1715    1.3001    2.2317 H   0  0  0  0  0  0  0  0  0  0  0  0
    1.5840    1.4884    2.2407 H   0  0  0  0  0  0  0  0  0  0  0  0
    0.4263    4.4265    0.4986 H   0  0  0  0  0  0  0  0  0  0  0  0
  1  2  1  0
  1  7  1  0
  1  8  1  0
  1  9  1  0
  2  3  1  0
  2 10  1  0
  2 11  1  0
  3  4  1  0
  3 12  1  0
  3 13  1  0
  4  5  1  0
  5  6  2  0
  5 14  1  0
M  END
>  <reaction>  (3) 
rmg_rxn_15633

>  <mol_properties>  (3) 
{"0": {"label": "a_hydrogen", "atom_type": "H0"}, "1": {"label": "acceptor", "atom_type": "Cs"}}

>  <type>  (3) 
r2h

$$$$

     RDKit          3D

 22 20  0  0  0  0  0  0  0  0999 V2000
   -2.6076   -0.8169    0.5238 C   0  0  0  0  0  0  0  0  0  0  0  0
   -2.5869    0.3837   -0.1716 O   0  0  0  0  0  0  0  0  0  0  0  0
   -1.4798    1.1214    0.2071 N   0  0  0  0  0  0  0  0  0  0  0  0
   -1.3399    2.1631   -0.4917 C   0  0  0  0  0  0  0  0  0  0  0  0
   -1.6220   -1.5799    0.0778 H   0  0  0  0  0  0  0  0  0  0  0  0
   -3.5345   -1.3315    0.2836 H   0  0  0  0  0  0  0  0  0  0  0  0
   -2.4330   -0.6948    1.5936 H   0  0  0  0  0  0  0  0  0  0  0  0
   -0.4811    2.7788   -0.2624 H   0  0  0  0  0  0  0  0  0  0  0  0
   -2.0271    2.4244   -1.2935 H   0  0  0  0  0  0  0  0  0  0  0  0
   -0.5977   -2.3344   -0.4694 C   0  0  0  0  0  3  0  0  0  0  0  0
    0.6489   -1.4987   -0.6075 C   0  0  0  0  0  0  0  0  0  0  0  0
    1.1439   -0.9821    0.7321 C   0  0  0  0  0  0  0  0  0  0  0  0
    2.5018   -0.5084    0.6465 O   0  0  0  0  0  0  0  0  0  0  0  0
    2.7022    0.7372    0.2410 C   0  0  0  0  0  0  0  0  0  0  0  0
    1.8648    1.5354   -0.0674 O   0  0  0  0  0  0  0  0  0  0  0  0
   -0.5111   -3.1679    0.2280 H   0  0  0  0  0  0  0  0  0  0  0  0
   -1.0324   -2.6475   -1.4160 H   0  0  0  0  0  0  0  0  0  0  0  0
    0.4696   -0.6526   -1.2741 H   0  0  0  0  0  0  0  0  0  0  0  0
    1.4474   -2.1003   -1.0589 H   0  0  0  0  0  0  0  0  0  0  0  0
    1.1881   -1.7882    1.4644 H   0  0  0  0  0  0  0  0  0  0  0  0
    0.4993   -0.1836    1.0995 H   0  0  0  0  0  0  0  0  0  0  0  0
    3.7818    0.9419    0.2314 H   0  0  0  0  0  0  0  0  0  0  0  0
  1  2  1  0
  1  5  1  0
  1  6  1  0
  1  7  1  0
  2  3  1  0
  3  4  2  3
  4  8  1  0
  4  9  1  0
 10 11  1  0
 10 16  1  0
 10 17  1  0
 11 12  1  0
 11 18  1  0
 11 19  1  0
 12 13  1  0
 12 20  1  0
 12 21  1  0
 13 14  1  0
 14 15  2  0
 14 22  1  0
M  RAD  1  10   2
M  END
>  <reaction>  (4) 
rmg_rxn_15633

>  <mol_properties>  (4) 
{"0": {"label": "*1", "atom_type": "Cs"}, "1": {"label": "*0", "atom_type": "O2s"}, "4": {"label": "*2", "atom_type": "H0"}, "9": {"label": "*3", "atom_type": "Cs"}, "10": {"label": "*4", "atom_type": "Cs"}}

>  <type>  (4) 
ts

$$$$

     RDKit          3D

 22 20  0  0  0  0  0  0  0  0999 V2000
   -1.3890   -0.7623   -0.9489 C   0  0  0  0  0  3  0  0  0  0  0  0
   -2.6561   -0.7716   -0.4004 O   0  0  0  0  0  0  0  0  0  0  0  0
   -3.1323    0.2698    0.3174 N   0  0  0  0  0  0  0  0  0  0  0  0
   -2.4288    1.2809    0.6006 C   0  0  0  0  0  0  0  0  0  0  0  0
   -0.4847   -1.0510    0.0170 H   0  0  0  0  0  0  0  0  0  0  0  0
   -1.0700    0.1918   -1.3629 H   0  0  0  0  0  0  0  0  0  0  0  0
   -1.3370   -1.5867   -1.6517 H   0  0  0  0  0  0  0  0  0  0  0  0
   -2.9321    2.0459    1.1660 H   0  0  0  0  0  0  0  0  0  0  0  0
   -1.3899    1.4510    0.3355 H   0  0  0  0  0  0  0  0  0  0  0  0
    0.3561   -1.3420    0.9589 C   0  0  0  0  0  0  0  0  0  0  0  0
    1.6673   -1.7532    0.3335 C   0  0  0  0  0  0  0  0  0  0  0  0
    2.2592   -0.6696   -0.5686 C   0  0  0  0  0  0  0  0  0  0  0  0
    2.6169    0.4936    0.1883 O   0  0  0  0  0  0  0  0  0  0  0  0
    1.8208    1.5376    0.1347 C   0  0  0  0  0  0  0  0  0  0  0  0
    0.8129    1.6553   -0.5021 O   0  0  0  0  0  0  0  0  0  0  0  0
    0.4406   -0.4499    1.5718 H   0  0  0  0  0  0  0  0  0  0  0  0
   -0.1052   -2.1465    1.5203 H   0  0  0  0  0  0  0  0  0  0  0  0
    1.5282   -2.6508   -0.2717 H   0  0  0  0  0  0  0  0  0  0  0  0
    2.3991   -1.9854    1.1155 H   0  0  0  0  0  0  0  0  0  0  0  0
    1.5428   -0.3815   -1.3438 H   0  0  0  0  0  0  0  0  0  0  0  0
    3.1860   -1.0193   -1.0296 H   0  0  0  0  0  0  0  0  0  0  0  0
    2.2338    2.3310    0.7810 H   0  0  0  0  0  0  0  0  0  0  0  0
  1  2  1  0
  1  6  1  0
  1  7  1  0
  2  3  1  0
  3  4  2  3
  4  8  1  0
  4  9  1  0
  5 10  1  0
 10 11  1  0
 10 16  1  0
 10 17  1  0
 11 12  1  0
 11 18  1  0
 11 19  1  0
 12 13  1  0
 12 20  1  0
 12 21  1  0
 13 14  1  0
 14 15  2  0
 14 22  1  0
M  RAD  1   1   2
M  END
>  <reaction>  (5) 
rmg_rxn_15633

>  <mol_properties>  (5) 
{"0": {"label": "*1", "atom_type": "Cs"}, "1": {"label": "*0", "atom_type": "O2s"}, "4": {"label": "*2", "atom_type": "H0"}, "9": {"label": "*3", "atom_type": "Cs"}, "10": {"label": "*4", "atom_type": "Cs"}}

>  <type>  (5) 
unop_1

>  <geom_source>  (5) 
crest_best.xyz

$$$$

     RDKit          3D

 22 20  0  0  0  0  0  0  0  0999 V2000
   -2.2901    1.2279   -1.0117 C   0  0  0  0  0  3  0  0  0  0  0  0
   -2.2901    1.2858   -2.4246 O   0  0  0  0  0  0  0  0  0  0  0  0
   -2.2901    0.0119   -2.9403 N   0  0  0  0  0  0  0  0  0  0  0  0
   -2.2901    0.0119   -4.2040 C   0  0  0  0  0  0  0  0  0  0  0  0
   -1.2195    0.6157   -0.5676 H   0  0  0  0  0  0  0  0  0  0  0  0
   -3.1822    0.7177   -0.6416 H   0  0  0  0  0  0  0  0  0  0  0  0
   -2.2901    2.2628   -0.6739 H   0  0  0  0  0  0  0  0  0  0  0  0
   -2.2901   -0.9551   -4.6888 H   0  0  0  0  0  0  0  0  0  0  0  0
   -2.2901    0.9284   -4.7901 H   0  0  0  0  0  0  0  0  0  0  0  0
   -0.1507    0.0046   -0.1242 C   0  0  0  0  0  0  0  0  0  0  0  0
    0.6684    0.9232    0.7729 C   0  0  0  0  0  0  0  0  0  0  0  0
    1.2292    0.2302    1.9941 C   0  0  0  0  0  0  0  0  0  0  0  0
    2.1585   -0.7743    1.5538 O   0  0  0  0  0  0  0  0  0  0  0  0
    2.7175   -1.5183    2.5017 C   0  0  0  0  0  0  0  0  0  0  0  0
    2.5175   -1.4262    3.6773 O   0  0  0  0  0  0  0  0  0  0  0  0
   -0.9930   -0.4256    0.4225 H   0  0  0  0  0  0  0  0  0  0  0  0
    0.4580   -0.8167   -0.5036 H   0  0  0  0  0  0  0  0  0  0  0  0
    0.0479    1.7505    1.1274 H   0  0  0  0  0  0  0  0  0  0  0  0
    1.4915    1.3684    0.2085 H   0  0  0  0  0  0  0  0  0  0  0  0
    0.4431   -0.2526    2.5793 H   0  0  0  0  0  0  0  0  0  0  0  0
    1.7545    0.9276    2.6488 H   0  0  0  0  0  0  0  0  0  0  0  0
    3.4023   -2.2425    2.0399 H   0  0  0  0  0  0  0  0  0  0  0  0
  1  2  1  0
  1  6  1  0
  1  7  1  0
  2  3  1  0
  3  4  2  3
  4  8  1  0
  4  9  1  0
  5 10  1  0
 10 11  1  0
 10 16  1  0
 10 17  1  0
 11 12  1  0
 11 18  1  0
 11 19  1  0
 12 13  1  0
 12 20  1  0
 12 21  1  0
 13 14  1  0
 14 15  2  0
 14 22  1  0
M  RAD  1   1   2
M  END
>  <reaction>  (6) 
rmg_rxn_15633

>  <mol_properties>  (6) 
{"0": {"label": "*1", "atom_type": "Cs"}, "1": {"label": "*0", "atom_type": "O2s"}, "4": {"label": "*2", "atom_type": "H0"}, "9": {"label": "*3", "atom_type": "Cs"}, "10": {"label": "*4", "atom_type": "Cs"}}

>  <type>  (6) 
unop_2

>  <geom_source>  (6) 
Heuristics

$$$$

     RDKit          3D

 22 20  0  0  0  0  0  0  0  0999 V2000
   -3.3423   -0.5889    0.9116 C   0  0  0  0  0  3  0  0  0  0  0  0
   -3.0465    0.4473    0.1188 O   0  0  0  0  0  0  0  0  0  0  0  0
   -1.6971    0.6575   -0.0772 N   0  0  0  0  0  0  0  0  0  0  0  0
   -1.3942    1.6344   -0.8330 C   0  0  0  0  0  0  0  0  0  0  0  0
   -0.1336   -3.1686   -0.1633 H   0  0  0  0  0  0  0  0  0  0  0  0
   -2.5622   -1.1742    1.3564 H   0  0  0  0  0  0  0  0  0  0  0  0
   -4.3873   -0.7356    1.0805 H   0  0  0  0  0  0  0  0  0  0  0  0
   -0.3446    1.8099   -0.9888 H   0  0  0  0  0  0  0  0  0  0  0  0
   -2.1257    2.2811   -1.3059 H   0  0  0  0  0  0  0  0  0  0  0  0
    0.0153   -2.3552   -0.8752 C   0  0  0  0  0  0  0  0  0  0  0  0
    1.2982   -1.5821   -0.6512 C   0  0  0  0  0  0  0  0  0  0  0  0
    1.2276   -0.8031    0.6600 C   0  0  0  0  0  0  0  0  0  0  0  0
    2.4441   -0.0830    0.9155 O   0  0  0  0  0  0  0  0  0  0  0  0
    2.6201    1.0612    0.2951 C   0  0  0  0  0  0  0  0  0  0  0  0
    1.8733    1.6009   -0.4700 O   0  0  0  0  0  0  0  0  0  0  0  0
    0.0520   -3.0092   -1.7191 H   0  0  0  0  0  0  0  0  0  0  0  0
   -0.8509   -1.7088   -0.9119 H   0  0  0  0  0  0  0  0  0  0  0  0
    1.4457   -0.8765   -1.4706 H   0  0  0  0  0  0  0  0  0  0  0  0
    2.1537   -2.2602   -0.6245 H   0  0  0  0  0  0  0  0  0  0  0  0
    1.1204   -1.4814    1.5088 H   0  0  0  0  0  0  0  0  0  0  0  0
    0.3858   -0.1039    0.6264 H   0  0  0  0  0  0  0  0  0  0  0  0
    3.5963    1.4809    0.5971 H   0  0  0  0  0  0  0  0  0  0  0  0
  1  2  1  0
  1  6  1  0
  1  7  1  0
  2  3  1  0
  3  4  2  3
  4  8  1  0
  4  9  1  0
  5 10  1  0
 10 11  1  0
 10 16  1  0
 10 17  1  0
 11 12  1  0
 11 18  1  0
 11 19  1  0
 12 13  1  0
 12 20  1  0
 12 21  1  0
 13 14  1  0
 14 15  2  0
 14 22  1  0
M  RAD  1   1   2
M  END
>  <reaction>  (7) 
rmg_rxn_15633

>  <mol_properties>  (7) 
{"0": {"label": "*1", "atom_type": "Cs"}, "1": {"label": "*0", "atom_type": "O2s"}, "4": {"label": "*2", "atom_type": "H0"}, "9": {"label": "*3", "atom_type": "Cs"}, "10": {"label": "*4", "atom_type": "Cs"}}

>  <type>  (7) 
unop_3

>  <geom_source>  (7) 
Heuristics

$$$$

     RDKit          3D

 22 20  0  0  0  0  0  0  0  0999 V2000
   -2.7516    1.3976    0.0630 C   0  0  0  0  0  3  0  0  0  0  0  0
   -2.7516    1.4555   -1.3499 O   0  0  0  0  0  0  0  0  0  0  0  0
   -2.7516    0.1816   -1.8656 N   0  0  0  0  0  0  0  0  0  0  0  0
   -2.7516    0.1816   -3.1293 C   0  0  0  0  0  0  0  0  0  0  0  0
   -1.6810    0.7854    0.5071 H   0  0  0  0  0  0  0  0  0  0  0  0
   -3.6438    0.8874    0.4331 H   0  0  0  0  0  0  0  0  0  0  0  0
   -2.7517    2.4325    0.4008 H   0  0  0  0  0  0  0  0  0  0  0  0
   -2.7517   -0.7854   -3.6141 H   0  0  0  0  0  0  0  0  0  0  0  0
   -2.7516    1.0981   -3.7154 H   0  0  0  0  0  0  0  0  0  0  0  0
   -0.6122    0.1743    0.9505 C   0  0  0  0  0  0  0  0  0  0  0  0
    0.5622    0.3755    0.0020 C   0  0  0  0  0  0  0  0  0  0  0  0
    1.9063    0.1105    0.6418 C   0  0  0  0  0  0  0  0  0  0  0  0
    1.9646   -1.2789    1.0061 O   0  0  0  0  0  0  0  0  0  0  0  0
    3.0675   -1.6810    1.6277 C   0  0  0  0  0  0  0  0  0  0  0  0
    4.0066   -0.9954    1.9076 O   0  0  0  0  0  0  0  0  0  0  0  0
   -0.5293    0.8312    1.8194 H   0  0  0  0  0  0  0  0  0  0  0  0
   -0.6534   -0.8543    1.3098 H   0  0  0  0  0  0  0  0  0  0  0  0
    0.5759    1.4058   -0.3634 H   0  0  0  0  0  0  0  0  0  0  0  0
    0.4545   -0.2667   -0.8757 H   0  0  0  0  0  0  0  0  0  0  0  0
    2.0500    0.7144    1.5407 H   0  0  0  0  0  0  0  0  0  0  0  0
    2.7289    0.3260   -0.0422 H   0  0  0  0  0  0  0  0  0  0  0  0
    2.9894   -2.7540    1.8504 H   0  0  0  0  0  0  0  0  0  0  0  0
  1  2  1  0
  1  6  1  0
  1  7  1  0
  2  3  1  0
  3  4  2  3
  4  8  1  0
  4  9  1  0
  5 10  1  0
 10 11  1  0
 10 16  1  0
 10 17  1  0
 11 12  1  0
 11 18  1  0
 11 19  1  0
 12 13  1  0
 12 20  1  0
 12 21  1  0
 13 14  1  0
 14 15  2  0
 14 22  1  0
M  RAD  1   1   2
M  END
>  <reaction>  (8) 
rmg_rxn_15633

>  <mol_properties>  (8) 
{"0": {"label": "*1", "atom_type": "Cs"}, "1": {"label": "*0", "atom_type": "O2s"}, "4": {"label": "*2", "atom_type": "H0"}, "9": {"label": "*3", "atom_type": "Cs"}, "10": {"label": "*4", "atom_type": "Cs"}}

>  <type>  (8) 
unop_4

>  <geom_source>  (8) 
Heuristics

$$$$

     RDKit          3D

 22 20  0  0  0  0  0  0  0  0999 V2000
   -3.3720    0.6077    0.8594 C   0  0  0  0  0  3  0  0  0  0  0  0
   -3.0585   -0.4598    0.1167 O   0  0  0  0  0  0  0  0  0  0  0  0
   -1.7056   -0.6611   -0.0647 N   0  0  0  0  0  0  0  0  0  0  0  0
   -1.3883   -1.6697   -0.7715 C   0  0  0  0  0  0  0  0  0  0  0  0
   -0.1643    3.1516   -0.1337 H   0  0  0  0  0  0  0  0  0  0  0  0
   -2.6026    1.2244    1.2795 H   0  0  0  0  0  0  0  0  0  0  0  0
   -4.4202    0.7522    1.0098 H   0  0  0  0  0  0  0  0  0  0  0  0
   -0.3364   -1.8389   -0.9188 H   0  0  0  0  0  0  0  0  0  0  0  0
   -2.1105   -2.3476   -1.2140 H   0  0  0  0  0  0  0  0  0  0  0  0
   -0.0077    2.3473   -0.8545 C   0  0  0  0  0  0  0  0  0  0  0  0
    1.2891    1.5931   -0.6465 C   0  0  0  0  0  0  0  0  0  0  0  0
    1.2427    0.8053    0.6604 C   0  0  0  0  0  0  0  0  0  0  0  0
    2.4697    0.0960    0.8945 O   0  0  0  0  0  0  0  0  0  0  0  0
    2.6434   -1.0486    0.2743 C   0  0  0  0  0  0  0  0  0  0  0  0
    1.8855   -1.5983   -0.4724 O   0  0  0  0  0  0  0  0  0  0  0  0
   -0.8630    1.6864   -0.8903 H   0  0  0  0  0  0  0  0  0  0  0  0
    0.0121    3.0080   -1.6930 H   0  0  0  0  0  0  0  0  0  0  0  0
    2.1344    2.2841   -0.6234 H   0  0  0  0  0  0  0  0  0  0  0  0
    1.4401    0.8947   -1.4715 H   0  0  0  0  0  0  0  0  0  0  0  0
    0.4074    0.0982    0.6332 H   0  0  0  0  0  0  0  0  0  0  0  0
    1.1395    1.4768    1.5149 H   0  0  0  0  0  0  0  0  0  0  0  0
    3.6298   -1.4580    0.5567 H   0  0  0  0  0  0  0  0  0  0  0  0
  1  2  1  0
  1  6  1  0
  1  7  1  0
  2  3  1  0
  3  4  2  3
  4  8  1  0
  4  9  1  0
  5 10  1  0
 10 11  1  0
 10 16  1  0
 10 17  1  0
 11 12  1  0
 11 18  1  0
 11 19  1  0
 12 13  1  0
 12 20  1  0
 12 21  1  0
 13 14  1  0
 14 15  2  0
 14 22  1  0
M  RAD  1   1   2
M  END
>  <reaction>  (9) 
rmg_rxn_15633

>  <mol_properties>  (9) 
{"0": {"label": "*1", "atom_type": "Cs"}, "1": {"label": "*0", "atom_type": "O2s"}, "4": {"label": "*2", "atom_type": "H0"}, "9": {"label": "*3", "atom_type": "Cs"}, "10": {"label": "*4", "atom_type": "Cs"}}

>  <type>  (9) 
unop_5

>  <geom_source>  (9) 
Heuristics

$$$$

     RDKit          3D

 22 20  0  0  0  0  0  0  0  0999 V2000
   -2.2549    1.4671   -0.9587 C   0  0  0  0  0  3  0  0  0  0  0  0
   -2.2549    1.5250   -2.3716 O   0  0  0  0  0  0  0  0  0  0  0  0
   -2.2549    0.2511   -2.8873 N   0  0  0  0  0  0  0  0  0  0  0  0
   -2.2549    0.2511   -4.1510 C   0  0  0  0  0  0  0  0  0  0  0  0
   -1.1843    0.8549   -0.5146 H   0  0  0  0  0  0  0  0  0  0  0  0
   -3.1470    0.9569   -0.5886 H   0  0  0  0  0  0  0  0  0  0  0  0
   -2.2549    2.5020   -0.6209 H   0  0  0  0  0  0  0  0  0  0  0  0
   -2.2549   -0.7160   -4.6358 H   0  0  0  0  0  0  0  0  0  0  0  0
   -2.2549    1.1676   -4.7371 H   0  0  0  0  0  0  0  0  0  0  0  0
   -0.1155    0.2437   -0.0712 C   0  0  0  0  0  0  0  0  0  0  0  0
    0.2882    0.7776    1.2968 C   0  0  0  0  0  0  0  0  0  0  0  0
    0.9802   -0.2491    2.1646 C   0  0  0  0  0  0  0  0  0  0  0  0
    2.2200   -0.6096    1.5325 O   0  0  0  0  0  0  0  0  0  0  0  0
    2.9434   -1.5434    2.1402 C   0  0  0  0  0  0  0  0  0  0  0  0
    2.6566   -2.1044    3.1568 O   0  0  0  0  0  0  0  0  0  0  0  0
   -0.7908   -0.6094    0.0265 H   0  0  0  0  0  0  0  0  0  0  0  0
    0.7575   -0.0820   -0.6375 H   0  0  0  0  0  0  0  0  0  0  0  0
   -0.5964    1.1176    1.8418 H   0  0  0  0  0  0  0  0  0  0  0  0
    0.9414    1.6468    1.1864 H   0  0  0  0  0  0  0  0  0  0  0  0
    0.3734   -1.1496    2.2840 H   0  0  0  0  0  0  0  0  0  0  0  0
    1.1977    0.1433    3.1594 H   0  0  0  0  0  0  0  0  0  0  0  0
    3.8595   -1.7277    1.5626 H   0  0  0  0  0  0  0  0  0  0  0  0
  1  2  1  0
  1  6  1  0
  1  7  1  0
  2  3  1  0
  3  4  2  3
  4  8  1  0
  4  9  1  0
  5 10  1  0
 10 11  1  0
 10 16  1  0
 10 17  1  0
 11 12  1  0
 11 18  1  0
 11 19  1  0
 12 13  1  0
 12 20  1  0
 12 21  1  0
 13 14  1  0
 14 15  2  0
 14 22  1  0
M  RAD  1   1   2
M  END
>  <reaction>  (10) 
rmg_rxn_15633

>  <mol_properties>  (10) 
{"0": {"label": "*1", "atom_type": "Cs"}, "1": {"label": "*0", "atom_type": "O2s"}, "4": {"label": "*2", "atom_type": "H0"}, "9": {"label": "*3", "atom_type": "Cs"}, "10": {"label": "*4", "atom_type": "Cs"}}

>  <type>  (10) 
unop_6

>  <geom_source>  (10) 
Heuristics

$$$$

     RDKit          3D

 22 20  0  0  0  0  0  0  0  0999 V2000
   -1.5571    2.3115   -0.5620 C   0  0  0  0  0  3  0  0  0  0  0  0
   -1.5571    2.3694   -1.9749 O   0  0  0  0  0  0  0  0  0  0  0  0
   -1.5571    1.0955   -2.4906 N   0  0  0  0  0  0  0  0  0  0  0  0
   -1.5571    1.0955   -3.7542 C   0  0  0  0  0  0  0  0  0  0  0  0
   -0.4865    1.6993   -0.1179 H   0  0  0  0  0  0  0  0  0  0  0  0
   -2.4493    1.8013   -0.1919 H   0  0  0  0  0  0  0  0  0  0  0  0
   -1.5571    3.3464   -0.2242 H   0  0  0  0  0  0  0  0  0  0  0  0
   -1.5571    0.1285   -4.2391 H   0  0  0  0  0  0  0  0  0  0  0  0
   -1.5571    2.0120   -4.3404 H   0  0  0  0  0  0  0  0  0  0  0  0
    0.5823    1.0882    0.3255 C   0  0  0  0  0  0  0  0  0  0  0  0
    0.6517   -0.3385   -0.2031 C   0  0  0  0  0  0  0  0  0  0  0  0
    1.3398   -1.2984    0.7408 C   0  0  0  0  0  0  0  0  0  0  0  0
    0.5530   -1.3910    1.9404 O   0  0  0  0  0  0  0  0  0  0  0  0
    1.0372   -2.1633    2.9066 C   0  0  0  0  0  0  0  0  0  0  0  0
    2.0598   -2.7823    2.8661 O   0  0  0  0  0  0  0  0  0  0  0  0
    1.5828    1.4818    0.5191 H   0  0  0  0  0  0  0  0  0  0  0  0
    0.0174    1.1334    1.2570 H   0  0  0  0  0  0  0  0  0  0  0  0
    1.2038   -0.3616   -1.1464 H   0  0  0  0  0  0  0  0  0  0  0  0
   -0.3526   -0.7118   -0.4186 H   0  0  0  0  0  0  0  0  0  0  0  0
    2.3421   -0.9535    1.0054 H   0  0  0  0  0  0  0  0  0  0  0  0
    1.4319   -2.2955    0.3069 H   0  0  0  0  0  0  0  0  0  0  0  0
    0.3488   -2.1504    3.7626 H   0  0  0  0  0  0  0  0  0  0  0  0
  1  2  1  0
  1  6  1  0
  1  7  1  0
  2  3  1  0
  3  4  2  3
  4  8  1  0
  4  9  1  0
  5 10  1  0
 10 11  1  0
 10 16  1  0
 10 17  1  0
 11 12  1  0
 11 18  1  0
 11 19  1  0
 12 13  1  0
 12 20  1  0
 12 21  1  0
 13 14  1  0
 14 15  2  0
 14 22  1  0
M  RAD  1   1   2
M  END
>  <reaction>  (11) 
rmg_rxn_15633

>  <mol_properties>  (11) 
{"0": {"label": "*1", "atom_type": "Cs"}, "1": {"label": "*0", "atom_type": "O2s"}, "4": {"label": "*2", "atom_type": "H0"}, "9": {"label": "*3", "atom_type": "Cs"}, "10": {"label": "*4", "atom_type": "Cs"}}

>  <type>  (11) 
unop_7

>  <geom_source>  (11) 
Heuristics

$$$$

     RDKit          3D

 22 20  0  0  0  0  0  0  0  0999 V2000
   -3.3700    0.6099    0.8565 C   0  0  0  0  0  3  0  0  0  0  0  0
   -3.0576   -0.4589    0.1152 O   0  0  0  0  0  0  0  0  0  0  0  0
   -1.7050   -0.6640   -0.0632 N   0  0  0  0  0  0  0  0  0  0  0  0
   -1.3889   -1.6736   -0.7691 C   0  0  0  0  0  0  0  0  0  0  0  0
    0.0180    3.0212   -1.7102 H   0  0  0  0  0  0  0  0  0  0  0  0
   -2.5997    1.2241    1.2789 H   0  0  0  0  0  0  0  0  0  0  0  0
   -4.4180    0.7571    1.0052 H   0  0  0  0  0  0  0  0  0  0  0  0
   -0.3373   -1.8453   -0.9148 H   0  0  0  0  0  0  0  0  0  0  0  0
   -2.1121   -2.3491   -1.2137 H   0  0  0  0  0  0  0  0  0  0  0  0
   -0.0058    2.3539   -0.8479 C   0  0  0  0  0  0  0  0  0  0  0  0
    1.2894    1.5955   -0.6451 C   0  0  0  0  0  0  0  0  0  0  0  0
    1.2409    0.8038    0.6597 C   0  0  0  0  0  0  0  0  0  0  0  0
    2.4680    0.0946    0.8937 O   0  0  0  0  0  0  0  0  0  0  0  0
    2.6422   -1.0497    0.2732 C   0  0  0  0  0  0  0  0  0  0  0  0
    1.8846   -1.5995   -0.4738 O   0  0  0  0  0  0  0  0  0  0  0  0
   -0.1572    3.1465   -0.1464 H   0  0  0  0  0  0  0  0  0  0  0  0
   -0.8621    1.6948   -0.8925 H   0  0  0  0  0  0  0  0  0  0  0  0
    2.1364    2.2843   -0.6194 H   0  0  0  0  0  0  0  0  0  0  0  0
    1.4389    0.8992   -1.4720 H   0  0  0  0  0  0  0  0  0  0  0  0
    0.4060    0.0963    0.6290 H   0  0  0  0  0  0  0  0  0  0  0  0
    1.1360    1.4727    1.5161 H   0  0  0  0  0  0  0  0  0  0  0  0
    3.6286   -1.4590    0.5558 H   0  0  0  0  0  0  0  0  0  0  0  0
  1  2  1  0
  1  6  1  0
  1  7  1  0
  2  3  1  0
  3  4  2  3
  4  8  1  0
  4  9  1  0
  5 10  1  0
 10 11  1  0
 10 16  1  0
 10 17  1  0
 11 12  1  0
 11 18  1  0
 11 19  1  0
 12 13  1  0
 12 20  1  0
 12 21  1  0
 13 14  1  0
 14 15  2  0
 14 22  1  0
M  RAD  1   1   2
M  END
>  <reaction>  (12) 
rmg_rxn_15633

>  <mol_properties>  (12) 
{"0": {"label": "*1", "atom_type": "Cs"}, "1": {"label": "*0", "atom_type": "O2s"}, "4": {"label": "*2", "atom_type": "H0"}, "9": {"label": "*3", "atom_type": "Cs"}, "10": {"label": "*4", "atom_type": "Cs"}}

>  <type>  (12) 
unop_8

>  <geom_source>  (12) 
Heuristics

$$$$

     RDKit          3D

 22 20  0  0  0  0  0  0  0  0999 V2000
   -2.3752    1.2645   -0.9188 C   0  0  0  0  0  3  0  0  0  0  0  0
   -2.3752    1.3224   -2.3317 O   0  0  0  0  0  0  0  0  0  0  0  0
   -2.3752    0.0486   -2.8474 N   0  0  0  0  0  0  0  0  0  0  0  0
   -2.3752    0.0486   -4.1110 C   0  0  0  0  0  0  0  0  0  0  0  0
   -1.3046    0.6523   -0.4747 H   0  0  0  0  0  0  0  0  0  0  0  0
   -3.2673    0.7543   -0.5487 H   0  0  0  0  0  0  0  0  0  0  0  0
   -2.3752    2.2994   -0.5810 H   0  0  0  0  0  0  0  0  0  0  0  0
   -2.3752   -0.9185   -4.5959 H   0  0  0  0  0  0  0  0  0  0  0  0
   -2.3752    0.9650   -4.6972 H   0  0  0  0  0  0  0  0  0  0  0  0
   -0.2358    0.0412   -0.0313 C   0  0  0  0  0  0  0  0  0  0  0  0
   -0.2365   -0.0208    1.4904 C   0  0  0  0  0  0  0  0  0  0  0  0
    0.9622   -0.7408    2.0652 C   0  0  0  0  0  0  0  0  0  0  0  0
    2.1411    0.0108    1.7306 O   0  0  0  0  0  0  0  0  0  0  0  0
    3.3013   -0.5050    2.1208 C   0  0  0  0  0  0  0  0  0  0  0  0
    3.4494   -1.5294    2.7201 O   0  0  0  0  0  0  0  0  0  0  0  0
   -0.2201   -0.9623   -0.4628 H   0  0  0  0  0  0  0  0  0  0  0  0
    0.6376    0.5793   -0.4007 H   0  0  0  0  0  0  0  0  0  0  0  0
   -1.1283   -0.5457    1.8431 H   0  0  0  0  0  0  0  0  0  0  0  0
   -0.2797    0.9872    1.9104 H   0  0  0  0  0  0  0  0  0  0  0  0
    1.0613   -1.7484    1.6547 H   0  0  0  0  0  0  0  0  0  0  0  0
    0.9000   -0.8258    3.1514 H   0  0  0  0  0  0  0  0  0  0  0  0
    4.1188    0.1586    1.8073 H   0  0  0  0  0  0  0  0  0  0  0  0
  1  2  1  0
  1  6  1  0
  1  7  1  0
  2  3  1  0
  3  4  2  3
  4  8  1  0
  4  9  1  0
  5 10  1  0
 10 11  1  0
 10 16  1  0
 10 17  1  0
 11 12  1  0
 11 18  1  0
 11 19  1  0
 12 13  1  0
 12 20  1  0
 12 21  1  0
 13 14  1  0
 14 15  2  0
 14 22  1  0
M  RAD  1   1   2
M  END
>  <reaction>  (13) 
rmg_rxn_15633

>  <mol_properties>  (13) 
{"0": {"label": "*1", "atom_type": "Cs"}, "1": {"label": "*0", "atom_type": "O2s"}, "4": {"label": "*2", "atom_type": "H0"}, "9": {"label": "*3", "atom_type": "Cs"}, "10": {"label": "*4", "atom_type": "Cs"}}

>  <type>  (13) 
unop_9

>  <geom_source>  (13) 
Heuristics

$$$$

     RDKit          3D

 22 20  0  0  0  0  0  0  0  0999 V2000
   -1.3885   -0.7619    0.9478 C   0  0  0  0  0  3  0  0  0  0  0  0
   -2.6566   -0.7713    0.4017 O   0  0  0  0  0  0  0  0  0  0  0  0
   -3.1339    0.2700   -0.3157 N   0  0  0  0  0  0  0  0  0  0  0  0
   -2.4301    1.2799   -0.6020 C   0  0  0  0  0  0  0  0  0  0  0  0
   -0.4850   -1.0503   -0.0189 H   0  0  0  0  0  0  0  0  0  0  0  0
   -1.3352   -1.5866    1.6502 H   0  0  0  0  0  0  0  0  0  0  0  0
   -1.0691    0.1922    1.3618 H   0  0  0  0  0  0  0  0  0  0  0  0
   -2.9343    2.0452   -1.1662 H   0  0  0  0  0  0  0  0  0  0  0  0
   -1.3903    1.4489   -0.3396 H   0  0  0  0  0  0  0  0  0  0  0  0
    0.3565   -1.3403   -0.9605 C   0  0  0  0  0  0  0  0  0  0  0  0
    1.6666   -1.7531   -0.3337 C   0  0  0  0  0  0  0  0  0  0  0  0
    2.2590   -0.6701    0.5689 C   0  0  0  0  0  0  0  0  0  0  0  0
    2.6179    0.4930   -0.1874 O   0  0  0  0  0  0  0  0  0  0  0  0
    1.8222    1.5374   -0.1341 C   0  0  0  0  0  0  0  0  0  0  0  0
    0.8136    1.6551    0.5016 O   0  0  0  0  0  0  0  0  0  0  0  0
   -0.1045   -2.1440   -1.5233 H   0  0  0  0  0  0  0  0  0  0  0  0
    0.4425   -0.4477   -1.5723 H   0  0  0  0  0  0  0  0  0  0  0  0
    2.3987   -1.9869   -1.1148 H   0  0  0  0  0  0  0  0  0  0  0  0
    1.5254   -2.6501    0.2719 H   0  0  0  0  0  0  0  0  0  0  0  0
    3.1855   -1.0207    1.0299 H   0  0  0  0  0  0  0  0  0  0  0  0
    1.5428   -0.3818    1.3440 H   0  0  0  0  0  0  0  0  0  0  0  0
    2.2359    2.3308   -0.7799 H   0  0  0  0  0  0  0  0  0  0  0  0
  1  2  1  0
  1  6  1  0
  1  7  1  0
  2  3  1  0
  3  4  2  3
  4  8  1  0
  4  9  1  0
  5 10  1  0
 10 11  1  0
 10 16  1  0
 10 17  1  0
 11 12  1  0
 11 18  1  0
 11 19  1  0
 12 13  1  0
 12 20  1  0
 12 21  1  0
 13 14  1  0
 14 15  2  0
 14 22  1  0
M  RAD  1   1   2
M  END
>  <reaction>  (14) 
rmg_rxn_15633

>  <mol_properties>  (14) 
{"0": {"label": "*1", "atom_type": "Cs"}, "1": {"label": "*0", "atom_type": "O2s"}, "4": {"label": "*2", "atom_type": "H0"}, "9": {"label": "*3", "atom_type": "Cs"}, "10": {"label": "*4", "atom_type": "Cs"}}

>  <type>  (14) 
unop_10

>  <geom_source>  (14) 
Heuristics

$$$$

     RDKit          3D

 22 20  0  0  0  0  0  0  0  0999 V2000
   -1.4300    1.9418   -1.0585 C   0  0  0  0  0  3  0  0  0  0  0  0
   -1.4301    1.9997   -2.4714 O   0  0  0  0  0  0  0  0  0  0  0  0
   -1.4301    0.7259   -2.9871 N   0  0  0  0  0  0  0  0  0  0  0  0
   -1.4301    0.7259   -4.2508 C   0  0  0  0  0  0  0  0  0  0  0  0
   -0.3594    1.3296   -0.6144 H   0  0  0  0  0  0  0  0  0  0  0  0
   -2.3222    1.4316   -0.6884 H   0  0  0  0  0  0  0  0  0  0  0  0
   -1.4301    2.9767   -0.7207 H   0  0  0  0  0  0  0  0  0  0  0  0
   -1.4301   -0.2412   -4.7356 H   0  0  0  0  0  0  0  0  0  0  0  0
   -1.4301    1.6423   -4.8369 H   0  0  0  0  0  0  0  0  0  0  0  0
    0.7094    0.7185   -0.1710 C   0  0  0  0  0  0  0  0  0  0  0  0
    0.4639   -0.7786   -0.0377 C   0  0  0  0  0  0  0  0  0  0  0  0
    1.1193   -1.3912    1.1794 C   0  0  0  0  0  0  0  0  0  0  0  0
    0.5172   -0.8163    2.3513 O   0  0  0  0  0  0  0  0  0  0  0  0
    1.0079   -1.2098    3.5213 C   0  0  0  0  0  0  0  0  0  0  0  0
    1.8974   -1.9928    3.6833 O   0  0  0  0  0  0  0  0  0  0  0  0
    1.7784    0.9348   -0.2325 H   0  0  0  0  0  0  0  0  0  0  0  0
    0.3060    1.2591    0.6856 H   0  0  0  0  0  0  0  0  0  0  0  0
    0.8566   -1.3018   -0.9137 H   0  0  0  0  0  0  0  0  0  0  0  0
   -0.6088   -0.9851   -0.0044 H   0  0  0  0  0  0  0  0  0  0  0  0
    2.1928   -1.1895    1.2026 H   0  0  0  0  0  0  0  0  0  0  0  0
    0.9805   -2.4731    1.2116 H   0  0  0  0  0  0  0  0  0  0  0  0
    0.4674   -0.7025    4.3321 H   0  0  0  0  0  0  0  0  0  0  0  0
  1  2  1  0
  1  6  1  0
  1  7  1  0
  2  3  1  0
  3  4  2  3
  4  8  1  0
  4  9  1  0
  5 10  1  0
 10 11  1  0
 10 16  1  0
 10 17  1  0
 11 12  1  0
 11 18  1  0
 11 19  1  0
 12 13  1  0
 12 20  1  0
 12 21  1  0
 13 14  1  0
 14 15  2  0
 14 22  1  0
M  RAD  1   1   2
M  END
>  <reaction>  (15) 
rmg_rxn_15633

>  <mol_properties>  (15) 
{"0": {"label": "*1", "atom_type": "Cs"}, "1": {"label": "*0", "atom_type": "O2s"}, "4": {"label": "*2", "atom_type": "H0"}, "9": {"label": "*3", "atom_type": "Cs"}, "10": {"label": "*4", "atom_type": "Cs"}}

>  <type>  (15) 
unop_11

>  <geom_source>  (15) 
Heuristics

$$$$

     RDKit          3D

 22 20  0  0  0  0  0  0  0  0999 V2000
   -2.5864   -0.8084    0.2203 C   0  0  0  0  0  3  0  0  0  0  0  0
   -2.2836    0.4182   -0.3317 O   0  0  0  0  0  0  0  0  0  0  0  0
   -1.5087    1.2035    0.5065 N   0  0  0  0  0  0  0  0  0  0  0  0
   -1.1409    2.3132    0.0298 C   0  0  0  0  0  0  0  0  0  0  0  0
   -1.5770   -1.6715   -0.0383 H   0  0  0  0  0  0  0  0  0  0  0  0
   -3.4579   -1.2077   -0.2862 H   0  0  0  0  0  0  0  0  0  0  0  0
   -2.6664   -0.7912    1.3044 H   0  0  0  0  0  0  0  0  0  0  0  0
   -0.5381    2.9343    0.6666 H   0  0  0  0  0  0  0  0  0  0  0  0
   -1.3877    2.6607   -0.9669 H   0  0  0  0  0  0  0  0  0  0  0  0
   -0.6024   -2.4869   -0.2935 C   0  0  0  0  0  0  0  0  0  0  0  0
    0.6564   -1.6946   -0.5428 C   0  0  0  0  0  0  0  0  0  0  0  0
    1.0758   -0.8999    0.6928 C   0  0  0  0  0  0  0  0  0  0  0  0
    2.3797   -0.3234    0.5244 O   0  0  0  0  0  0  0  0  0  0  0  0
    2.4680    0.8087   -0.1401 C   0  0  0  0  0  0  0  0  0  0  0  0
    1.5764    1.4446   -0.6217 O   0  0  0  0  0  0  0  0  0  0  0  0
   -0.5301   -3.1338    0.5744 H   0  0  0  0  0  0  0  0  0  0  0  0
   -0.9172   -3.0438   -1.1685 H   0  0  0  0  0  0  0  0  0  0  0  0
    0.5045   -1.0036   -1.3751 H   0  0  0  0  0  0  0  0  0  0  0  0
    1.4788   -2.3676   -0.8144 H   0  0  0  0  0  0  0  0  0  0  0  0
    1.1680   -1.5549    1.5618 H   0  0  0  0  0  0  0  0  0  0  0  0
    0.3527   -0.1033    0.8982 H   0  0  0  0  0  0  0  0  0  0  0  0
    3.5312    1.1068   -0.1837 H   0  0  0  0  0  0  0  0  0  0  0  0
  1  2  1  0
  1  6  1  0
  1  7  1  0
  2  3  1  0
  3  4  2  3
  4  8  1  0
  4  9  1  0
  5 10  1  0
 10 11  1  0
 10 16  1  0
 10 17  1  0
 11 12  1  0
 11 18  1  0
 11 19  1  0
 12 13  1  0
 12 20  1  0
 12 21  1  0
 13 14  1  0
 14 15  2  0
 14 22  1  0
M  RAD  1   1   2
M  END
>  <reaction>  (16) 
rmg_rxn_15633

>  <mol_properties>  (16) 
{"0": {"label": "*1", "atom_type": "Cs"}, "1": {"label": "*0", "atom_type": "O2s"}, "4": {"label": "*2", "atom_type": "H0"}, "9": {"label": "*3", "atom_type": "Cs"}, "10": {"label": "*4", "atom_type": "Cs"}}

>  <type>  (16) 
unop_12

>  <geom_source>  (16) 
Heuristics

$$$$

     RDKit          3D

 22 20  0  0  0  0  0  0  0  0999 V2000
   -1.6182    1.4140   -1.3148 C   0  0  0  0  0  3  0  0  0  0  0  0
   -1.6183    1.4719   -2.7277 O   0  0  0  0  0  0  0  0  0  0  0  0
   -1.6183    0.1980   -3.2434 N   0  0  0  0  0  0  0  0  0  0  0  0
   -1.6183    0.1980   -4.5070 C   0  0  0  0  0  0  0  0  0  0  0  0
   -0.5477    0.8018   -0.8707 H   0  0  0  0  0  0  0  0  0  0  0  0
   -2.5104    0.9038   -0.9447 H   0  0  0  0  0  0  0  0  0  0  0  0
   -1.6183    2.4489   -0.9770 H   0  0  0  0  0  0  0  0  0  0  0  0
   -1.6183   -0.7691   -4.9919 H   0  0  0  0  0  0  0  0  0  0  0  0
   -1.6183    1.1145   -5.0932 H   0  0  0  0  0  0  0  0  0  0  0  0
    0.5211    0.1906   -0.4273 C   0  0  0  0  0  0  0  0  0  0  0  0
    0.1456   -1.0439    0.3816 C   0  0  0  0  0  0  0  0  0  0  0  0
    1.0227   -1.2603    1.5940 C   0  0  0  0  0  0  0  0  0  0  0  0
    0.8235   -0.1583    2.4953 O   0  0  0  0  0  0  0  0  0  0  0  0
    1.5561   -0.1612    3.6033 C   0  0  0  0  0  0  0  0  0  0  0  0
    2.3584   -0.9921    3.9136 O   0  0  0  0  0  0  0  0  0  0  0  0
    1.5537    0.1279   -0.7785 H   0  0  0  0  0  0  0  0  0  0  0  0
    0.4249    1.0959    0.1727 H   0  0  0  0  0  0  0  0  0  0  0  0
    0.2287   -1.9388   -0.2410 H   0  0  0  0  0  0  0  0  0  0  0  0
   -0.8967   -0.9826    0.7044 H   0  0  0  0  0  0  0  0  0  0  0  0
    2.0801   -1.3040    1.3230 H   0  0  0  0  0  0  0  0  0  0  0  0
    0.7712   -2.1858    2.1146 H   0  0  0  0  0  0  0  0  0  0  0  0
    1.3125    0.7262    4.2034 H   0  0  0  0  0  0  0  0  0  0  0  0
  1  2  1  0
  1  6  1  0
  1  7  1  0
  2  3  1  0
  3  4  2  3
  4  8  1  0
  4  9  1  0
  5 10  1  0
 10 11  1  0
 10 16  1  0
 10 17  1  0
 11 12  1  0
 11 18  1  0
 11 19  1  0
 12 13  1  0
 12 20  1  0
 12 21  1  0
 13 14  1  0
 14 15  2  0
 14 22  1  0
M  RAD  1   1   2
M  END
>  <reaction>  (17) 
rmg_rxn_15633

>  <mol_properties>  (17) 
{"0": {"label": "*1", "atom_type": "Cs"}, "1": {"label": "*0", "atom_type": "O2s"}, "4": {"label": "*2", "atom_type": "H0"}, "9": {"label": "*3", "atom_type": "Cs"}, "10": {"label": "*4", "atom_type": "Cs"}}

>  <type>  (17) 
unop_13

>  <geom_source>  (17) 
Heuristics

$$$$

     RDKit          3D

 22 20  0  0  0  0  0  0  0  0999 V2000
   -3.4181    0.6260    0.7947 C   0  0  0  0  0  3  0  0  0  0  0  0
   -3.0796   -0.4718    0.1095 O   0  0  0  0  0  0  0  0  0  0  0  0
   -1.7221   -0.6603   -0.0507 N   0  0  0  0  0  0  0  0  0  0  0  0
   -1.3851   -1.7004   -0.7007 C   0  0  0  0  0  0  0  0  0  0  0  0
   -0.1682    3.1458   -0.0826 H   0  0  0  0  0  0  0  0  0  0  0  0
   -2.6637    1.2762    1.1908 H   0  0  0  0  0  0  0  0  0  0  0  0
   -4.4704    0.7641    0.9210 H   0  0  0  0  0  0  0  0  0  0  0  0
   -0.3304   -1.8619   -0.8350 H   0  0  0  0  0  0  0  0  0  0  0  0
   -2.0948   -2.4112   -1.1105 H   0  0  0  0  0  0  0  0  0  0  0  0
   -0.0171    2.3528   -0.8176 C   0  0  0  0  0  0  0  0  0  0  0  0
    1.2877    1.6051   -0.6382 C   0  0  0  0  0  0  0  0  0  0  0  0
    1.2680    0.8048    0.6618 C   0  0  0  0  0  0  0  0  0  0  0  0
    2.5037    0.1021    0.8673 O   0  0  0  0  0  0  0  0  0  0  0  0
    2.6677   -1.0438    0.2468 C   0  0  0  0  0  0  0  0  0  0  0  0
    1.8927   -1.6014   -0.4763 O   0  0  0  0  0  0  0  0  0  0  0  0
   -0.8676    1.6855   -0.8488 H   0  0  0  0  0  0  0  0  0  0  0  0
   -0.0140    3.0223   -1.6497 H   0  0  0  0  0  0  0  0  0  0  0  0
    2.1292    2.3009   -0.6222 H   0  0  0  0  0  0  0  0  0  0  0  0
    1.4294    0.9154   -1.4722 H   0  0  0  0  0  0  0  0  0  0  0  0
    0.4369    0.0928    0.6424 H   0  0  0  0  0  0  0  0  0  0  0  0
    1.1747    1.4675    1.5243 H   0  0  0  0  0  0  0  0  0  0  0  0
    3.6640   -1.4461    0.5033 H   0  0  0  0  0  0  0  0  0  0  0  0
  1  2  1  0
  1  6  1  0
  1  7  1  0
  2  3  1  0
  3  4  2  3
  4  8  1  0
  4  9  1  0
  5 10  1  0
 10 11  1  0
 10 16  1  0
 10 17  1  0
 11 12  1  0
 11 18  1  0
 11 19  1  0
 12 13  1  0
 12 20  1  0
 12 21  1  0
 13 14  1  0
 14 15  2  0
 14 22  1  0
M  RAD  1   1   2
M  END
>  <reaction>  (18) 
rmg_rxn_15633

>  <mol_properties>  (18) 
{"0": {"label": "*1", "atom_type": "Cs"}, "1": {"label": "*0", "atom_type": "O2s"}, "4": {"label": "*2", "atom_type": "H0"}, "9": {"label": "*3", "atom_type": "Cs"}, "10": {"label": "*4", "atom_type": "Cs"}}

>  <type>  (18) 
unop_14

>  <geom_source>  (18) 
Heuristics

$$$$

     RDKit          3D

 22 20  0  0  0  0  0  0  0  0999 V2000
   -2.5222    0.9897   -0.7895 C   0  0  0  0  0  3  0  0  0  0  0  0
   -2.5222    1.0476   -2.2023 O   0  0  0  0  0  0  0  0  0  0  0  0
   -2.5222   -0.2263   -2.7181 N   0  0  0  0  0  0  0  0  0  0  0  0
   -2.5222   -0.2263   -3.9817 C   0  0  0  0  0  0  0  0  0  0  0  0
   -1.4516    0.3775   -0.3453 H   0  0  0  0  0  0  0  0  0  0  0  0
   -3.4143    0.4795   -0.4193 H   0  0  0  0  0  0  0  0  0  0  0  0
   -2.5222    2.0246   -0.4517 H   0  0  0  0  0  0  0  0  0  0  0  0
   -2.5222   -1.1934   -4.4665 H   0  0  0  0  0  0  0  0  0  0  0  0
   -2.5222    0.6902   -4.5678 H   0  0  0  0  0  0  0  0  0  0  0  0
   -0.3828   -0.2337    0.0980 C   0  0  0  0  0  0  0  0  0  0  0  0
    0.7512    0.7554    0.3333 C   0  0  0  0  0  0  0  0  0  0  0  0
    1.5414    0.4786    1.5922 C   0  0  0  0  0  0  0  0  0  0  0  0
    2.1920   -0.7947    1.4437 O   0  0  0  0  0  0  0  0  0  0  0  0
    2.8996   -1.2216    2.4836 C   0  0  0  0  0  0  0  0  0  0  0  0
    3.0416   -0.6451    3.5218 O   0  0  0  0  0  0  0  0  0  0  0  0
   -1.0867   -0.2263    0.9334 H   0  0  0  0  0  0  0  0  0  0  0  0
   -0.0004   -1.2490   -0.0101 H   0  0  0  0  0  0  0  0  0  0  0  0
    0.3515    1.7694    0.4192 H   0  0  0  0  0  0  0  0  0  0  0  0
    1.4337    0.7591   -0.5202 H   0  0  0  0  0  0  0  0  0  0  0  0
    0.8956    0.4410    2.4725 H   0  0  0  0  0  0  0  0  0  0  0  0
    2.3030    1.2405    1.7670 H   0  0  0  0  0  0  0  0  0  0  0  0
    3.3433   -2.1981    2.2460 H   0  0  0  0  0  0  0  0  0  0  0  0
  1  2  1  0
  1  6  1  0
  1  7  1  0
  2  3  1  0
  3  4  2  3
  4  8  1  0
  4  9  1  0
  5 10  1  0
 10 11  1  0
 10 16  1  0
 10 17  1  0
 11 12  1  0
 11 18  1  0
 11 19  1  0
 12 13  1  0
 12 20  1  0
 12 21  1  0
 13 14  1  0
 14 15  2  0
 14 22  1  0
M  RAD  1   1   2
M  END
>  <reaction>  (19) 
rmg_rxn_15633

>  <mol_properties>  (19) 
{"0": {"label": "*1", "atom_type": "Cs"}, "1": {"label": "*0", "atom_type": "O2s"}, "4": {"label": "*2", "atom_type": "H0"}, "9": {"label": "*3", "atom_type": "Cs"}, "10": {"label": "*4", "atom_type": "Cs"}}

>  <type>  (19) 
unop_15

>  <geom_source>  (19) 
Heuristics

$$$$

     RDKit          3D

 22 20  0  0  0  0  0  0  0  0999 V2000
   -1.3890   -0.7623   -0.9489 C   0  0  0  0  0  3  0  0  0  0  0  0
   -2.6561   -0.7716   -0.4004 O   0  0  0  0  0  0  0  0  0  0  0  0
   -3.1323    0.2698    0.3174 N   0  0  0  0  0  0  0  0  0  0  0  0
   -2.4288    1.2809    0.6006 C   0  0  0  0  0  0  0  0  0  0  0  0
   -0.4847   -1.0510    0.0170 H   0  0  0  0  0  0  0  0  0  0  0  0
   -1.0700    0.1918   -1.3629 H   0  0  0  0  0  0  0  0  0  0  0  0
   -1.3370   -1.5867   -1.6517 H   0  0  0  0  0  0  0  0  0  0  0  0
   -2.9321    2.0459    1.1660 H   0  0  0  0  0  0  0  0  0  0  0  0
   -1.3899    1.4510    0.3355 H   0  0  0  0  0  0  0  0  0  0  0  0
    0.3561   -1.3420    0.9589 C   0  0  0  0  0  0  0  0  0  0  0  0
    1.6673   -1.7532    0.3335 C   0  0  0  0  0  0  0  0  0  0  0  0
    2.2592   -0.6696   -0.5686 C   0  0  0  0  0  0  0  0  0  0  0  0
    2.6169    0.4936    0.1883 O   0  0  0  0  0  0  0  0  0  0  0  0
    1.8208    1.5376    0.1347 C   0  0  0  0  0  0  0  0  0  0  0  0
    0.8129    1.6553   -0.5021 O   0  0  0  0  0  0  0  0  0  0  0  0
    0.4406   -0.4499    1.5718 H   0  0  0  0  0  0  0  0  0  0  0  0
   -0.1052   -2.1465    1.5203 H   0  0  0  0  0  0  0  0  0  0  0  0
    1.5282   -2.6508   -0.2717 H   0  0  0  0  0  0  0  0  0  0  0  0
    2.3991   -1.9854    1.1155 H   0  0  0  0  0  0  0  0  0  0  0  0
    1.5428   -0.3815   -1.3438 H   0  0  0  0  0  0  0  0  0  0  0  0
    3.1860   -1.0193   -1.0296 H   0  0  0  0  0  0  0  0  0  0  0  0
    2.2338    2.3310    0.7810 H   0  0  0  0  0  0  0  0  0  0  0  0
  1  2  1  0
  1  6  1  0
  1  7  1  0
  2  3  1  0
  3  4  2  3
  4  8  1  0
  4  9  1  0
  5 10  1  0
 10 11  1  0
 10 16  1  0
 10 17  1  0
 11 12  1  0
 11 18  1  0
 11 19  1  0
 12 13  1  0
 12 20  1  0
 12 21  1  0
 13 14  1  0
 14 15  2  0
 14 22  1  0
M  RAD  1   1   2
M  END
>  <reaction>  (20) 
rmg_rxn_15633

>  <mol_properties>  (20) 
{"0": {"label": "*1", "atom_type": "Cs"}, "1": {"label": "*0", "atom_type": "O2s"}, "4": {"label": "*2", "atom_type": "H0"}, "9": {"label": "*3", "atom_type": "Cs"}, "10": {"label": "*4", "atom_type": "Cs"}}

>  <type>  (20) 
unop_16

>  <geom_source>  (20) 
Heuristics

$$$$

     RDKit          3D

 22 20  0  0  0  0  0  0  0  0999 V2000
   -1.9591    2.3281   -0.0499 C   0  0  0  0  0  3  0  0  0  0  0  0
   -1.9591    2.3860   -1.4628 O   0  0  0  0  0  0  0  0  0  0  0  0
   -1.9591    1.1121   -1.9785 N   0  0  0  0  0  0  0  0  0  0  0  0
   -1.9591    1.1121   -3.2421 C   0  0  0  0  0  0  0  0  0  0  0  0
   -0.8885    1.7159    0.3942 H   0  0  0  0  0  0  0  0  0  0  0  0
   -2.8512    1.8179    0.3202 H   0  0  0  0  0  0  0  0  0  0  0  0
   -1.9591    3.3630    0.2879 H   0  0  0  0  0  0  0  0  0  0  0  0
   -1.9591    0.1450   -3.7270 H   0  0  0  0  0  0  0  0  0  0  0  0
   -1.9591    2.0286   -3.8283 H   0  0  0  0  0  0  0  0  0  0  0  0
    0.1803    1.1047    0.8376 C   0  0  0  0  0  0  0  0  0  0  0  0
    0.6651    0.0628   -0.1618 C   0  0  0  0  0  0  0  0  0  0  0  0
    1.6225   -0.9445    0.4338 C   0  0  0  0  0  0  0  0  0  0  0  0
    0.9170   -1.6982    1.4342 O   0  0  0  0  0  0  0  0  0  0  0  0
    1.6240   -2.6058    2.0982 C   0  0  0  0  0  0  0  0  0  0  0  0
    2.7841   -2.8484    1.9379 O   0  0  0  0  0  0  0  0  0  0  0  0
    1.0202    1.6622    1.2587 H   0  0  0  0  0  0  0  0  0  0  0  0
   -0.3584    0.6359    1.6615 H   0  0  0  0  0  0  0  0  0  0  0  0
    1.1849    0.5519   -0.9899 H   0  0  0  0  0  0  0  0  0  0  0  0
   -0.1848   -0.4695   -0.5962 H   0  0  0  0  0  0  0  0  0  0  0  0
    2.4797   -0.4562    0.9031 H   0  0  0  0  0  0  0  0  0  0  0  0
    2.0018   -1.6363   -0.3202 H   0  0  0  0  0  0  0  0  0  0  0  0
    0.9759   -3.1097    2.8282 H   0  0  0  0  0  0  0  0  0  0  0  0
  1  2  1  0
  1  6  1  0
  1  7  1  0
  2  3  1  0
  3  4  2  3
  4  8  1  0
  4  9  1  0
  5 10  1  0
 10 11  1  0
 10 16  1  0
 10 17  1  0
 11 12  1  0
 11 18  1  0
 11 19  1  0
 12 13  1  0
 12 20  1  0
 12 21  1  0
 13 14  1  0
 14 15  2  0
 14 22  1  0
M  RAD  1   1   2
M  END
>  <reaction>  (21) 
rmg_rxn_15633

>  <mol_properties>  (21) 
{"0": {"label": "*1", "atom_type": "Cs"}, "1": {"label": "*0", "atom_type": "O2s"}, "4": {"label": "*2", "atom_type": "H0"}, "9": {"label": "*3", "atom_type": "Cs"}, "10": {"label": "*4", "atom_type": "Cs"}}

>  <type>  (21) 
unop_17

>  <geom_source>  (21) 
Heuristics

$$$$

     RDKit          3D

 22 20  0  0  0  0  0  0  0  0999 V2000
   -2.7403    1.0228   -0.3590 C   0  0  0  0  0  3  0  0  0  0  0  0
   -2.7404    1.0807   -1.7719 O   0  0  0  0  0  0  0  0  0  0  0  0
   -2.7404   -0.1931   -2.2876 N   0  0  0  0  0  0  0  0  0  0  0  0
   -2.7404   -0.1931   -3.5512 C   0  0  0  0  0  0  0  0  0  0  0  0
   -1.6697    0.4107    0.0851 H   0  0  0  0  0  0  0  0  0  0  0  0
   -3.6325    0.5126    0.0111 H   0  0  0  0  0  0  0  0  0  0  0  0
   -2.7404    2.0577   -0.0212 H   0  0  0  0  0  0  0  0  0  0  0  0
   -2.7404   -1.1602   -4.0360 H   0  0  0  0  0  0  0  0  0  0  0  0
   -2.7404    0.7234   -4.1374 H   0  0  0  0  0  0  0  0  0  0  0  0
   -0.6009   -0.2005    0.5285 C   0  0  0  0  0  0  0  0  0  0  0  0
    0.6631    0.5260    0.0882 C   0  0  0  0  0  0  0  0  0  0  0  0
    1.7910    0.4356    1.0911 C   0  0  0  0  0  0  0  0  0  0  0  0
    2.1824   -0.9430    1.2042 O   0  0  0  0  0  0  0  0  0  0  0  0
    3.1396   -1.2152    2.0841 C   0  0  0  0  0  0  0  0  0  0  0  0
    3.6987   -0.4218    2.7829 O   0  0  0  0  0  0  0  0  0  0  0  0
   -0.9724    0.2006    1.4744 H   0  0  0  0  0  0  0  0  0  0  0  0
   -0.4124   -1.2656    0.6663 H   0  0  0  0  0  0  0  0  0  0  0  0
    0.4508    1.5876   -0.0642 H   0  0  0  0  0  0  0  0  0  0  0  0
    1.0098    0.1350   -0.8716 H   0  0  0  0  0  0  0  0  0  0  0  0
    1.4832    0.7940    2.0761 H   0  0  0  0  0  0  0  0  0  0  0  0
    2.6582    1.0192    0.7776 H   0  0  0  0  0  0  0  0  0  0  0  0
    3.3463   -2.2942    2.0752 H   0  0  0  0  0  0  0  0  0  0  0  0
  1  2  1  0
  1  6  1  0
  1  7  1  0
  2  3  1  0
  3  4  2  3
  4  8  1  0
  4  9  1  0
  5 10  1  0
 10 11  1  0
 10 16  1  0
 10 17  1  0
 11 12  1  0
 11 18  1  0
 11 19  1  0
 12 13  1  0
 12 20  1  0
 12 21  1  0
 13 14  1  0
 14 15  2  0
 14 22  1  0
M  RAD  1   1   2
M  END
>  <reaction>  (22) 
rmg_rxn_15633

>  <mol_properties>  (22) 
{"0": {"label": "*1", "atom_type": "Cs"}, "1": {"label": "*0", "atom_type": "O2s"}, "4": {"label": "*2", "atom_type": "H0"}, "9": {"label": "*3", "atom_type": "Cs"}, "10": {"label": "*4", "atom_type": "Cs"}}

>  <type>  (22) 
unop_18

>  <geom_source>  (22) 
Heuristics

$$$$

     RDKit          3D

 22 20  0  0  0  0  0  0  0  0999 V2000
   -2.0553    1.0560   -1.2093 C   0  0  0  0  0  3  0  0  0  0  0  0
   -2.0553    1.1139   -2.6222 O   0  0  0  0  0  0  0  0  0  0  0  0
   -2.0553   -0.1599   -3.1379 N   0  0  0  0  0  0  0  0  0  0  0  0
   -2.0553   -0.1599   -4.4015 C   0  0  0  0  0  0  0  0  0  0  0  0
   -0.9847    0.4438   -0.7652 H   0  0  0  0  0  0  0  0  0  0  0  0
   -2.9474    0.5458   -0.8392 H   0  0  0  0  0  0  0  0  0  0  0  0
   -2.0553    2.0909   -0.8715 H   0  0  0  0  0  0  0  0  0  0  0  0
   -2.0553   -1.1270   -4.8863 H   0  0  0  0  0  0  0  0  0  0  0  0
   -2.0553    0.7565   -4.9877 H   0  0  0  0  0  0  0  0  0  0  0  0
    0.0841   -0.1673   -0.3218 C   0  0  0  0  0  0  0  0  0  0  0  0
   -0.2018   -0.8766    0.9953 C   0  0  0  0  0  0  0  0  0  0  0  0
    1.0169   -1.0241    1.8778 C   0  0  0  0  0  0  0  0  0  0  0  0
    1.4579    0.2901    2.2586 O   0  0  0  0  0  0  0  0  0  0  0  0
    2.5552    0.3522    3.0047 C   0  0  0  0  0  0  0  0  0  0  0  0
    3.2015   -0.5801    3.3836 O   0  0  0  0  0  0  0  0  0  0  0  0
    0.8412   -0.7044   -0.8980 H   0  0  0  0  0  0  0  0  0  0  0  0
    0.4490    0.8457   -0.1497 H   0  0  0  0  0  0  0  0  0  0  0  0
   -0.5851   -1.8822    0.8032 H   0  0  0  0  0  0  0  0  0  0  0  0
   -0.9794   -0.3457    1.5503 H   0  0  0  0  0  0  0  0  0  0  0  0
    1.8328   -1.5294    1.3559 H   0  0  0  0  0  0  0  0  0  0  0  0
    0.7944   -1.5925    2.7824 H   0  0  0  0  0  0  0  0  0  0  0  0
    2.7856    1.4031    3.2268 H   0  0  0  0  0  0  0  0  0  0  0  0
  1  2  1  0
  1  6  1  0
  1  7  1  0
  2  3  1  0
  3  4  2  3
  4  8  1  0
  4  9  1  0
  5 10  1  0
 10 11  1  0
 10 16  1  0
 10 17  1  0
 11 12  1  0
 11 18  1  0
 11 19  1  0
 12 13  1  0
 12 20  1  0
 12 21  1  0
 13 14  1  0
 14 15  2  0
 14 22  1  0
M  RAD  1   1   2
M  END
>  <reaction>  (23) 
rmg_rxn_15633

>  <mol_properties>  (23) 
{"0": {"label": "*1", "atom_type": "Cs"}, "1": {"label": "*0", "atom_type": "O2s"}, "4": {"label": "*2", "atom_type": "H0"}, "9": {"label": "*3", "atom_type": "Cs"}, "10": {"label": "*4", "atom_type": "Cs"}}

>  <type>  (23) 
unop_19

>  <geom_source>  (23) 
Heuristics

$$$$

     RDKit          3D

 22 20  0  0  0  0  0  0  0  0999 V2000
   -2.4511    1.9495    0.2083 C   0  0  0  0  0  3  0  0  0  0  0  0
   -2.4511    2.0074   -1.2046 O   0  0  0  0  0  0  0  0  0  0  0  0
   -2.4511    0.7335   -1.7203 N   0  0  0  0  0  0  0  0  0  0  0  0
   -2.4511    0.7335   -2.9839 C   0  0  0  0  0  0  0  0  0  0  0  0
   -1.3805    1.3373    0.6524 H   0  0  0  0  0  0  0  0  0  0  0  0
   -3.3432    1.4393    0.5784 H   0  0  0  0  0  0  0  0  0  0  0  0
   -2.4511    2.9844    0.5461 H   0  0  0  0  0  0  0  0  0  0  0  0
   -2.4511   -0.2336   -3.4688 H   0  0  0  0  0  0  0  0  0  0  0  0
   -2.4511    1.6500   -3.5701 H   0  0  0  0  0  0  0  0  0  0  0  0
   -0.3117    0.7261    1.0958 C   0  0  0  0  0  0  0  0  0  0  0  0
    0.5775    0.2800   -0.0574 C   0  0  0  0  0  0  0  0  0  0  0  0
    1.8456   -0.4105    0.3912 C   0  0  0  0  0  0  0  0  0  0  0  0
    1.4809   -1.6276    1.0635 O   0  0  0  0  0  0  0  0  0  0  0  0
    2.4781   -2.3455    1.5684 C   0  0  0  0  0  0  0  0  0  0  0  0
    3.6408   -2.0707    1.5127 O   0  0  0  0  0  0  0  0  0  0  0  0
    0.2203    1.4165    1.7545 H   0  0  0  0  0  0  0  0  0  0  0  0
   -0.6348   -0.1266    1.6935 H   0  0  0  0  0  0  0  0  0  0  0  0
    0.8752    1.1447   -0.6565 H   0  0  0  0  0  0  0  0  0  0  0  0
    0.0266   -0.3882   -0.7239 H   0  0  0  0  0  0  0  0  0  0  0  0
    2.4202    0.2119    1.0812 H   0  0  0  0  0  0  0  0  0  0  0  0
    2.4908   -0.6589   -0.4532 H   0  0  0  0  0  0  0  0  0  0  0  0
    2.0715   -3.2440    2.0522 H   0  0  0  0  0  0  0  0  0  0  0  0
  1  2  1  0
  1  6  1  0
  1  7  1  0
  2  3  1  0
  3  4  2  3
  4  8  1  0
  4  9  1  0
  5 10  1  0
 10 11  1  0
 10 16  1  0
 10 17  1  0
 11 12  1  0
 11 18  1  0
 11 19  1  0
 12 13  1  0
 12 20  1  0
 12 21  1  0
 13 14  1  0
 14 15  2  0
 14 22  1  0
M  RAD  1   1   2
M  END
>  <reaction>  (24) 
rmg_rxn_15633

>  <mol_properties>  (24) 
{"0": {"label": "*1", "atom_type": "Cs"}, "1": {"label": "*0", "atom_type": "O2s"}, "4": {"label": "*2", "atom_type": "H0"}, "9": {"label": "*3", "atom_type": "Cs"}, "10": {"label": "*4", "atom_type": "Cs"}}

>  <type>  (24) 
unop_20

>  <geom_source>  (24) 
Heuristics

$$$$

     RDKit          3D

 22 20  0  0  0  0  0  0  0  0999 V2000
   -1.7053    1.1833    0.6404 O   0  0  0  0  0  0  0  0  0  0  0  0
    1.9528   -0.9573    0.1421 O   0  0  0  0  0  0  0  0  0  0  0  0
   -3.0495   -0.0504    2.0686 O   0  0  0  0  0  0  0  0  0  0  0  0
    3.3285   -1.0976    0.0462 N   0  0  0  0  0  0  0  0  0  0  0  0
   -1.8908   -0.6864   -0.9236 C   0  0  0  0  0  0  0  0  0  0  0  0
   -2.3300    0.7366   -0.5628 C   0  0  0  0  0  0  0  0  0  0  0  0
   -0.3887   -0.7669   -1.1808 C   0  0  0  0  0  0  0  0  0  0  0  0
   -2.0853    0.7457    1.9130 C   0  0  0  0  0  0  0  0  0  0  0  0
    1.3044    0.2718    0.4575 C   0  0  0  0  0  3  0  0  0  0  0  0
    4.1828   -0.1381    0.2300 C   0  0  0  0  0  0  0  0  0  0  0  0
   -2.4304   -1.0079   -1.8403 H   0  0  0  0  0  0  0  0  0  0  0  0
   -2.1601   -1.3864   -0.1046 H   0  0  0  0  0  0  0  0  0  0  0  0
   -2.0513    1.4273   -1.3871 H   0  0  0  0  0  0  0  0  0  0  0  0
   -3.4358    0.7751   -0.4543 H   0  0  0  0  0  0  0  0  0  0  0  0
   -0.1170   -1.8037   -1.4708 H   0  0  0  0  0  0  0  0  0  0  0  0
   -0.0996   -0.0802   -2.0047 H   0  0  0  0  0  0  0  0  0  0  0  0
    0.2682   -0.4536   -0.1097 H   0  0  0  0  0  0  0  0  0  0  0  0
   -1.5456    1.1031    2.7790 H   0  0  0  0  0  0  0  0  0  0  0  0
    1.5310    1.0371   -0.3143 H   0  0  0  0  0  0  0  0  0  0  0  0
    1.6127    0.6237    1.4644 H   0  0  0  0  0  0  0  0  0  0  0  0
    5.2404   -0.3415    0.1341 H   0  0  0  0  0  0  0  0  0  0  0  0
    3.8685    0.8662    0.4778 H   0  0  0  0  0  0  0  0  0  0  0  0
  1  6  1  0
  1  8  1  0
  2  9  1  0
  2  4  1  0
  3  8  2  0
  4 10  2  3
  5  7  1  0
  5  6  1  0
  5 11  1  0
  5 12  1  0
  6 13  1  0
  6 14  1  0
  7 15  1  0
  7 16  1  0
  7 17  1  0
  8 18  1  0
  9 19  1  0
  9 20  1  0
 10 21  1  0
 10 22  1  0
M  RAD  1   9   2
M  END
>  <reaction>  (25) 
rmg_rxn_15633

>  <mol_properties>  (25) 
{"0": {"label": "*1", "atom_type": "Cs"}, "1": {"label": "*0", "atom_type": "O2s"}, "4": {"label": "*2", "atom_type": "H0"}, "9": {"label": "*3", "atom_type": "Cs"}, "10": {"label": "*4", "atom_type": "Cs"}}

>  <type>  (25) 
unop_21

>  <geom_source>  (25) 
AutoTST

$$$$

     RDKit          3D

 22 20  0  0  0  0  0  0  0  0999 V2000
   -2.7516    1.3976    0.0630 C   0  0  0  0  0  3  0  0  0  0  0  0
   -2.7517    1.4555   -1.3499 O   0  0  0  0  0  0  0  0  0  0  0  0
   -2.7517    0.1817   -1.8657 N   0  0  0  0  0  0  0  0  0  0  0  0
   -2.7517    0.1817   -3.1293 C   0  0  0  0  0  0  0  0  0  0  0  0
   -1.6810    0.7854    0.5071 H   0  0  0  0  0  0  0  0  0  0  0  0
   -3.6437    0.8874    0.4331 H   0  0  0  0  0  0  0  0  0  0  0  0
   -2.7517    2.4325    0.4008 H   0  0  0  0  0  0  0  0  0  0  0  0
   -2.7517   -0.7854   -3.6141 H   0  0  0  0  0  0  0  0  0  0  0  0
   -2.7516    1.0981   -3.7154 H   0  0  0  0  0  0  0  0  0  0  0  0
   -0.6122    0.1743    0.9505 C   0  0  0  0  0  0  0  0  0  0  0  0
    0.5622    0.3755    0.0020 C   0  0  0  0  0  0  0  0  0  0  0  0
    1.9063    0.1105    0.6418 C   0  0  0  0  0  0  0  0  0  0  0  0
    1.9646   -1.2789    1.0061 O   0  0  0  0  0  0  0  0  0  0  0  0
    3.0675   -1.6810    1.6277 C   0  0  0  0  0  0  0  0  0  0  0  0
    4.0066   -0.9954    1.9076 O   0  0  0  0  0  0  0  0  0  0  0  0
   -0.5292    0.8313    1.8194 H   0  0  0  0  0  0  0  0  0  0  0  0
   -0.6534   -0.8543    1.3098 H   0  0  0  0  0  0  0  0  0  0  0  0
    0.5759    1.4058   -0.3634 H   0  0  0  0  0  0  0  0  0  0  0  0
    0.4545   -0.2667   -0.8757 H   0  0  0  0  0  0  0  0  0  0  0  0
    2.0500    0.7144    1.5407 H   0  0  0  0  0  0  0  0  0  0  0  0
    2.7289    0.3260   -0.0422 H   0  0  0  0  0  0  0  0  0  0  0  0
    2.9894   -2.7540    1.8504 H   0  0  0  0  0  0  0  0  0  0  0  0
  1  2  1  0
  1  6  1  0
  1  7  1  0
  2  3  1  0
  3  4  2  3
  4  8  1  0
  4  9  1  0
  5 10  1  0
 10 11  1  0
 10 16  1  0
 10 17  1  0
 11 12  1  0
 11 18  1  0
 11 19  1  0
 12 13  1  0
 12 20  1  0
 12 21  1  0
 13 14  1  0
 14 15  2  0
 14 22  1  0
M  RAD  1   1   2
M  END
>  <reaction>  (26) 
rmg_rxn_15633

>  <mol_properties>  (26) 
{"0": {"label": "*1", "atom_type": "Cs"}, "1": {"label": "*0", "atom_type": "O2s"}, "4": {"label": "*2", "atom_type": "H0"}, "9": {"label": "*3", "atom_type": "Cs"}, "10": {"label": "*4", "atom_type": "Cs"}}

>  <type>  (26) 
unop_22

>  <geom_source>  (26) 
gaussian_log

$$$$
