
     RDKit          3D

  9  8  0  0  0  0  0  0  0  0999 V2000
   -1.0314    0.2323   -0.1227 C   0  0  0  0  0  0  0  0  0  0  0  0
    0.3094   -0.4511    0.0063 C   0  0  0  0  0  0  0  0  0  0  0  0
    0.3197   -1.7698    0.6841 N   0  0  0  0  0  0  0  0  0  0  0  0
   -0.7498   -2.1455    1.0557 O   0  0  0  0  0  0  0  0  0  0  0  0
   -1.4744    0.4198    0.8552 H   0  0  0  0  0  0  0  0  0  0  0  0
   -0.9073    1.1865   -0.6350 H   0  0  0  0  0  0  0  0  0  0  0  0
   -1.7319   -0.3778   -0.6927 H   0  0  0  0  0  0  0  0  0  0  0  0
    1.0375    0.1401    0.5713 H   0  0  0  0  0  0  0  0  0  0  0  0
    0.7826   -0.6494   -0.9609 H   0  0  0  0  0  0  0  0  0  0  0  0
  1  2  1  0
  1  5  1  0
  1  6  1  0
  1  7  1  0
  2  3  1  0
  2  8  1  0
  2  9  1  0
  3  4  2  0
M  END
>  <reaction>  (1) 
rmg_rxn_500

>  <mol_properties>  (1) 
{"1": {"label": "donator", "atom_type": "Cs"}, "7": {"label": "d_hydrogen", "atom_type": "H0"}}

>  <type>  (1) 
r1h

$$$$

     RDKit          3D

 10  9  0  0  0  0  0  0  0  0999 V2000
    1.4352    0.2660   -0.1351 C   0  0  0  0  0  3  0  0  0  0  0  0
    0.2236   -0.3243    0.4850 C   0  0  0  0  0  0  0  0  0  0  0  0
   -0.8893    0.6872    0.7364 C   0  0  0  0  0  0  0  0  0  0  0  0
    2.3577   -0.2958   -0.1940 H   0  0  0  0  0  0  0  0  0  0  0  0
    1.3935    1.2286   -0.6287 H   0  0  0  0  0  0  0  0  0  0  0  0
   -0.1633   -1.1318   -0.1556 H   0  0  0  0  0  0  0  0  0  0  0  0
    0.4945   -0.8215    1.4240 H   0  0  0  0  0  0  0  0  0  0  0  0
   -1.1991    1.1627   -0.1967 H   0  0  0  0  0  0  0  0  0  0  0  0
   -1.7660    0.2103    1.1768 H   0  0  0  0  0  0  0  0  0  0  0  0
   -0.5545    1.4732    1.4159 H   0  0  0  0  0  0  0  0  0  0  0  0
  1  2  1  0
  1  4  1  0
  1  5  1  0
  2  3  1  0
  2  6  1  0
  2  7  1  0
  3  8  1  0
  3  9  1  0
  3 10  1  0
M  RAD  1   1   2
M  END
>  <reaction>  (2) 
rmg_rxn_500

>  <mol_properties>  (2) 
{"0": {"label": "acceptor", "atom_type": "Cs"}}

>  <type>  (2) 
r2

$$$$

     RDKit          3D

 11 10  0  0  0  0  0  0  0  0999 V2000
   -1.2710    0.1907   -0.2084 C   0  0  0  0  0  0  0  0  0  0  0  0
    0.0202   -0.6130   -0.2928 C   0  0  0  0  0  0  0  0  0  0  0  0
    0.1086   -1.6953    0.7756 C   0  0  0  0  0  0  0  0  0  0  0  0
   -1.3607    0.6851    0.7620 H   0  0  0  0  0  0  0  0  0  0  0  0
   -2.1429   -0.4567   -0.3299 H   0  0  0  0  0  0  0  0  0  0  0  0
   -1.3158    0.9602   -0.9809 H   0  0  0  0  0  0  0  0  0  0  0  0
    0.8757    0.0616   -0.1992 H   0  0  0  0  0  0  0  0  0  0  0  0
    0.0997   -1.0712   -1.2825 H   0  0  0  0  0  0  0  0  0  0  0  0
   -0.7198   -2.4022    0.6850 H   0  0  0  0  0  0  0  0  0  0  0  0
    1.0395   -2.2596    0.6989 H   0  0  0  0  0  0  0  0  0  0  0  0
    0.0624   -1.2603    1.7770 H   0  0  0  0  0  0  0  0  0  0  0  0
  1  2  1  0
  1  4  1  0
  1  5  1  0
  1  6  1  0
  2  3  1  0
  2  7  1  0
  2  8  1  0
  3  9  1  0
  3 10  1  0
  3 11  1  0
M  END
>  <reaction>  (3) 
rmg_rxn_500

>  <mol_properties>  (3) 
{"0": {"label": "a_hydrogen", "atom_type": "H0"}, "1": {"label": "acceptor", "atom_type": "Cs"}}

>  <type>  (3) 
r2h

$$$$

     RDKit          3D

 19 17  0  0  0  0  0  0  0  0999 V2000
   -1.1125   -0.7609   -2.1169 C   0  0  0  0  0  0  0  0  0  0  0  0
   -1.0236   -0.1353   -0.7489 C   0  0  0  0  0  0  0  0  0  0  0  0
   -0.6015    1.2272   -0.6441 N   0  0  0  0  0  0  0  0  0  0  0  0
    0.0506    1.6333   -1.5807 O   0  0  0  0  0  0  0  0  0  0  0  0
   -0.1653   -0.6720   -2.6467 H   0  0  0  0  0  0  0  0  0  0  0  0
   -1.3707   -1.8161   -2.0245 H   0  0  0  0  0  0  0  0  0  0  0  0
   -1.8795   -0.2699   -2.7188 H   0  0  0  0  0  0  0  0  0  0  0  0
   -0.1232   -0.7300   -0.1391 H   0  0  0  0  0  0  0  0  0  0  0  0
   -1.8871   -0.2826   -0.1015 H   0  0  0  0  0  0  0  0  0  0  0  0
    1.0154   -1.4977    0.4422 C   0  0  0  0  0  3  0  0  0  0  0  0
    1.7855   -0.4511    1.1834 C   0  0  0  0  0  0  0  0  0  0  0  0
    1.0133    0.1580    2.3474 C   0  0  0  0  0  0  0  0  0  0  0  0
    1.4587   -1.8977   -0.4652 H   0  0  0  0  0  0  0  0  0  0  0  0
    0.4820   -2.2345    1.0383 H   0  0  0  0  0  0  0  0  0  0  0  0
    2.7148   -0.9037    1.5552 H   0  0  0  0  0  0  0  0  0  0  0  0
    2.0960    0.3346    0.4893 H   0  0  0  0  0  0  0  0  0  0  0  0
    0.6931   -0.6140    3.0509 H   0  0  0  0  0  0  0  0  0  0  0  0
    1.6286    0.8749    2.8917 H   0  0  0  0  0  0  0  0  0  0  0  0
    0.1268    0.6848    1.9895 H   0  0  0  0  0  0  0  0  0  0  0  0
  1  2  1  0
  1  5  1  0
  1  6  1  0
  1  7  1  0
  2  3  1  0
  2  8  1  0
  2  9  1  0
  3  4  2  0
 10 11  1  0
 10 13  1  0
 10 14  1  0
 11 12  1  0
 11 15  1  0
 11 16  1  0
 12 17  1  0
 12 18  1  0
 12 19  1  0
M  RAD  1  10   2
M  END
>  <reaction>  (4) 
rmg_rxn_500

>  <mol_properties>  (4) 
{"1": {"label": "*1", "atom_type": "Cs"}, "2": {"label": "*0", "atom_type": "N3d"}, "7": {"label": "*2", "atom_type": "H0"}, "9": {"label": "*3", "atom_type": "Cs"}, "10": {"label": "*4", "atom_type": "Cs"}}

>  <type>  (4) 
ts

$$$$

     RDKit          3D

 19 17  0  0  0  0  0  0  0  0999 V2000
   -0.9990   -0.4551   -2.1185 C   0  0  0  0  0  0  0  0  0  0  0  0
   -0.9990   -0.4551   -0.6080 C   0  0  0  0  0  0  0  0  0  0  0  0
   -0.9990    0.8708    0.0556 N   0  0  0  0  0  0  0  0  0  0  0  0
   -0.9990    1.8004   -0.6921 O   0  0  0  0  0  1  0  0  0  0  0  0
   -0.1189    0.0522   -2.5130 H   0  0  0  0  0  0  0  0  0  0  0  0
   -0.9990   -1.4823   -2.4837 H   0  0  0  0  0  0  0  0  0  0  0  0
   -1.8792    0.0522   -2.5130 H   0  0  0  0  0  0  0  0  0  0  0  0
    0.0464   -1.0639   -0.0954 H   0  0  0  0  0  0  0  0  0  0  0  0
   -1.8702   -0.9625   -0.1808 H   0  0  0  0  0  0  0  0  0  0  0  0
    1.0897   -1.6715    0.4162 C   0  0  0  0  0  0  0  0  0  0  0  0
    1.9032   -0.7195    1.2836 C   0  0  0  0  0  0  0  0  0  0  0  0
    1.0989    0.4912    1.7394 C   0  0  0  0  0  0  0  0  0  0  0  0
    1.6823   -2.5316    0.0998 H   0  0  0  0  0  0  0  0  0  0  0  0
    0.2187   -2.0467    0.9588 H   0  0  0  0  0  0  0  0  0  0  0  0
    2.2803   -1.2564    2.1584 H   0  0  0  0  0  0  0  0  0  0  0  0
    2.7836   -0.3837    0.7286 H   0  0  0  0  0  0  0  0  0  0  0  0
    0.2281    0.1842    2.3238 H   0  0  0  0  0  0  0  0  0  0  0  0
    1.6981    1.1607    2.3590 H   0  0  0  0  0  0  0  0  0  0  0  0
    0.7354    1.0638    0.8827 H   0  0  0  0  0  0  0  0  0  0  0  0
  1  2  1  0
  1  5  1  0
  1  6  1  0
  1  7  1  0
  2  3  2  3
  2  9  1  0
  3  4  1  0
  8 10  1  0
 10 11  1  0
 10 13  1  0
 10 14  1  0
 11 12  1  0
 11 15  1  0
 11 16  1  0
 12 17  1  0
 12 18  1  0
 12 19  1  0
M  RAD  1   4   2
M  END
>  <reaction>  (5) 
rmg_rxn_500

>  <mol_properties>  (5) 
{"1": {"label": "*1", "atom_type": "Cs"}, "2": {"label": "*0", "atom_type": "N3d"}, "7": {"label": "*2", "atom_type": "H0"}, "9": {"label": "*3", "atom_type": "Cs"}, "10": {"label": "*4", "atom_type": "Cs"}}

>  <type>  (5) 
unop_1

>  <geom_source>  (5) 
Heuristics

$$$$

     RDKit          3D

 19 17  0  0  0  0  0  0  0  0999 V2000
   -1.2552   -0.2481   -1.4497 C   0  0  0  0  0  0  0  0  0  0  0  0
   -1.2552   -0.2481    0.0608 C   0  0  0  0  0  0  0  0  0  0  0  0
   -1.2552    1.0779    0.7244 N   0  0  0  0  0  0  0  0  0  0  0  0
   -1.2552    2.0074   -0.0233 O   0  0  0  0  0  1  0  0  0  0  0  0
   -0.3751    0.2593   -1.8442 H   0  0  0  0  0  0  0  0  0  0  0  0
   -1.2552   -1.2752   -1.8150 H   0  0  0  0  0  0  0  0  0  0  0  0
   -2.1354    0.2593   -1.8442 H   0  0  0  0  0  0  0  0  0  0  0  0
   -0.2098   -0.8569    0.5734 H   0  0  0  0  0  0  0  0  0  0  0  0
   -2.1264   -0.7554    0.4879 H   0  0  0  0  0  0  0  0  0  0  0  0
    0.8336   -1.4645    1.0849 C   0  0  0  0  0  0  0  0  0  0  0  0
    2.0402   -1.3440    0.1629 C   0  0  0  0  0  0  0  0  0  0  0  0
    2.1787    0.0466   -0.4435 C   0  0  0  0  0  0  0  0  0  0  0  0
    0.7513   -2.4666    1.5092 H   0  0  0  0  0  0  0  0  0  0  0  0
    0.9024   -0.7550    1.9132 H   0  0  0  0  0  0  0  0  0  0  0  0
    2.9490   -1.5909    0.7187 H   0  0  0  0  0  0  0  0  0  0  0  0
    1.9616   -2.0842   -0.6381 H   0  0  0  0  0  0  0  0  0  0  0  0
    2.2899    0.8036    0.3366 H   0  0  0  0  0  0  0  0  0  0  0  0
    3.0478    0.1131   -1.1002 H   0  0  0  0  0  0  0  0  0  0  0  0
    1.2947    0.3064   -1.0309 H   0  0  0  0  0  0  0  0  0  0  0  0
  1  2  1  0
  1  5  1  0
  1  6  1  0
  1  7  1  0
  2  3  2  3
  2  9  1  0
  3  4  1  0
  8 10  1  0
 10 11  1  0
 10 13  1  0
 10 14  1  0
 11 12  1  0
 11 15  1  0
 11 16  1  0
 12 17  1  0
 12 18  1  0
 12 19  1  0
M  RAD  1   4   2
M  END
>  <reaction>  (6) 
rmg_rxn_500

>  <mol_properties>  (6) 
{"1": {"label": "*1", "atom_type": "Cs"}, "2": {"label": "*0", "atom_type": "N3d"}, "7": {"label": "*2", "atom_type": "H0"}, "9": {"label": "*3", "atom_type": "Cs"}, "10": {"label": "*4", "atom_type": "Cs"}}

>  <type>  (6) 
unop_2

>  <geom_source>  (6) 
Heuristics

$$$$

     RDKit          3D

 19 17  0  0  0  0  0  0  0  0999 V2000
   -0.8166   -0.2553   -2.2967 C   0  0  0  0  0  0  0  0  0  0  0  0
   -0.8166   -0.2553   -0.7862 C   0  0  0  0  0  0  0  0  0  0  0  0
   -0.8166    1.0707   -0.1226 N   0  0  0  0  0  0  0  0  0  0  0  0
   -0.8166    2.0002   -0.8703 O   0  0  0  0  0  1  0  0  0  0  0  0
    0.0635    0.2521   -2.6912 H   0  0  0  0  0  0  0  0  0  0  0  0
   -0.8166   -1.2824   -2.6620 H   0  0  0  0  0  0  0  0  0  0  0  0
   -1.6967    0.2521   -2.6912 H   0  0  0  0  0  0  0  0  0  0  0  0
    0.2288   -0.8640   -0.2736 H   0  0  0  0  0  0  0  0  0  0  0  0
   -1.6878   -0.7626   -0.3590 H   0  0  0  0  0  0  0  0  0  0  0  0
    1.2722   -1.4716    0.2380 C   0  0  0  0  0  0  0  0  0  0  0  0
    1.6481   -0.8674    1.5848 C   0  0  0  0  0  0  0  0  0  0  0  0
    0.4422   -0.3265    2.3423 C   0  0  0  0  0  0  0  0  0  0  0  0
    2.1483   -1.8532   -0.2891 H   0  0  0  0  0  0  0  0  0  0  0  0
    0.5702   -2.2996    0.3635 H   0  0  0  0  0  0  0  0  0  0  0  0
    2.1522   -1.6223    2.1945 H   0  0  0  0  0  0  0  0  0  0  0  0
    2.3734   -0.0632    1.4333 H   0  0  0  0  0  0  0  0  0  0  0  0
   -0.2860   -1.1183    2.5342 H   0  0  0  0  0  0  0  0  0  0  0  0
    0.7313    0.1018    3.3035 H   0  0  0  0  0  0  0  0  0  0  0  0
   -0.0630    0.4531    1.7669 H   0  0  0  0  0  0  0  0  0  0  0  0
  1  2  1  0
  1  5  1  0
  1  6  1  0
  1  7  1  0
  2  3  2  3
  2  9  1  0
  3  4  1  0
  8 10  1  0
 10 11  1  0
 10 13  1  0
 10 14  1  0
 11 12  1  0
 11 15  1  0
 11 16  1  0
 12 17  1  0
 12 18  1  0
 12 19  1  0
M  RAD  1   4   2
M  END
>  <reaction>  (7) 
rmg_rxn_500

>  <mol_properties>  (7) 
{"1": {"label": "*1", "atom_type": "Cs"}, "2": {"label": "*0", "atom_type": "N3d"}, "7": {"label": "*2", "atom_type": "H0"}, "9": {"label": "*3", "atom_type": "Cs"}, "10": {"label": "*4", "atom_type": "Cs"}}

>  <type>  (7) 
unop_3

>  <geom_source>  (7) 
Heuristics

$$$$

     RDKit          3D

 19 17  0  0  0  0  0  0  0  0999 V2000
   -1.0220    0.4383   -1.4902 C   0  0  0  0  0  0  0  0  0  0  0  0
   -1.0220    0.4383    0.0203 C   0  0  0  0  0  0  0  0  0  0  0  0
   -1.0220    1.7642    0.6838 N   0  0  0  0  0  0  0  0  0  0  0  0
   -1.0220    2.6938   -0.0639 O   0  0  0  0  0  1  0  0  0  0  0  0
   -0.1419    0.9456   -1.8847 H   0  0  0  0  0  0  0  0  0  0  0  0
   -1.0220   -0.5889   -1.8555 H   0  0  0  0  0  0  0  0  0  0  0  0
   -1.9021    0.9456   -1.8847 H   0  0  0  0  0  0  0  0  0  0  0  0
    0.0235   -0.1705    0.5329 H   0  0  0  0  0  0  0  0  0  0  0  0
   -1.8932   -0.0691    0.4474 H   0  0  0  0  0  0  0  0  0  0  0  0
    1.0668   -0.7781    1.0444 C   0  0  0  0  0  0  0  0  0  0  0  0
    1.1199   -2.2348    0.6019 C   0  0  0  0  0  0  0  0  0  0  0  0
    1.9335   -2.4320   -0.6708 C   0  0  0  0  0  0  0  0  0  0  0  0
    0.4802   -0.6571    1.9567 H   0  0  0  0  0  0  0  0  0  0  0  0
    2.0704   -0.3918    1.2382 H   0  0  0  0  0  0  0  0  0  0  0  0
    1.5458   -2.8436    1.4042 H   0  0  0  0  0  0  0  0  0  0  0  0
    0.1030   -2.6048    0.4448 H   0  0  0  0  0  0  0  0  0  0  0  0
    2.9645   -2.0979   -0.5311 H   0  0  0  0  0  0  0  0  0  0  0  0
    1.9599   -3.4808   -0.9715 H   0  0  0  0  0  0  0  0  0  0  0  0
    1.5102   -1.8572   -1.4981 H   0  0  0  0  0  0  0  0  0  0  0  0
  1  2  1  0
  1  5  1  0
  1  6  1  0
  1  7  1  0
  2  3  2  3
  2  9  1  0
  3  4  1  0
  8 10  1  0
 10 11  1  0
 10 13  1  0
 10 14  1  0
 11 12  1  0
 11 15  1  0
 11 16  1  0
 12 17  1  0
 12 18  1  0
 12 19  1  0
M  RAD  1   4   2
M  END
>  <reaction>  (8) 
rmg_rxn_500

>  <mol_properties>  (8) 
{"1": {"label": "*1", "atom_type": "Cs"}, "2": {"label": "*0", "atom_type": "N3d"}, "7": {"label": "*2", "atom_type": "H0"}, "9": {"label": "*3", "atom_type": "Cs"}, "10": {"label": "*4", "atom_type": "Cs"}}

>  <type>  (8) 
unop_4

>  <geom_source>  (8) 
Heuristics

$$$$

     RDKit          3D

 19 17  0  0  0  0  0  0  0  0999 V2000
   -0.6953    0.0867   -2.3156 C   0  0  0  0  0  0  0  0  0  0  0  0
   -0.6953    0.0867   -0.8051 C   0  0  0  0  0  0  0  0  0  0  0  0
   -0.6953    1.4127   -0.1415 N   0  0  0  0  0  0  0  0  0  0  0  0
   -0.6953    2.3422   -0.8892 O   0  0  0  0  0  1  0  0  0  0  0  0
    0.1848    0.5941   -2.7101 H   0  0  0  0  0  0  0  0  0  0  0  0
   -0.6953   -0.9404   -2.6809 H   0  0  0  0  0  0  0  0  0  0  0  0
   -1.5754    0.5941   -2.7101 H   0  0  0  0  0  0  0  0  0  0  0  0
    0.3501   -0.5221   -0.2925 H   0  0  0  0  0  0  0  0  0  0  0  0
   -1.5665   -0.4206   -0.3779 H   0  0  0  0  0  0  0  0  0  0  0  0
    1.3935   -1.1296    0.2191 C   0  0  0  0  0  0  0  0  0  0  0  0
    1.3472   -1.1026    1.7414 C   0  0  0  0  0  0  0  0  0  0  0  0
    0.1065   -1.7853    2.3029 C   0  0  0  0  0  0  0  0  0  0  0  0
    2.2885   -0.6364   -0.1639 H   0  0  0  0  0  0  0  0  0  0  0  0
    1.3920   -2.1568   -0.1537 H   0  0  0  0  0  0  0  0  0  0  0  0
    2.2419   -1.5876    2.1415 H   0  0  0  0  0  0  0  0  0  0  0  0
    1.3808   -0.0661    2.0883 H   0  0  0  0  0  0  0  0  0  0  0  0
    0.0644   -2.8331    1.9958 H   0  0  0  0  0  0  0  0  0  0  0  0
    0.0913   -1.7558    3.3937 H   0  0  0  0  0  0  0  0  0  0  0  0
   -0.8036   -1.2996    1.9422 H   0  0  0  0  0  0  0  0  0  0  0  0
  1  2  1  0
  1  5  1  0
  1  6  1  0
  1  7  1  0
  2  3  2  3
  2  9  1  0
  3  4  1  0
  8 10  1  0
 10 11  1  0
 10 13  1  0
 10 14  1  0
 11 12  1  0
 11 15  1  0
 11 16  1  0
 12 17  1  0
 12 18  1  0
 12 19  1  0
M  RAD  1   4   2
M  END
>  <reaction>  (9) 
rmg_rxn_500

>  <mol_properties>  (9) 
{"1": {"label": "*1", "atom_type": "Cs"}, "2": {"label": "*0", "atom_type": "N3d"}, "7": {"label": "*2", "atom_type": "H0"}, "9": {"label": "*3", "atom_type": "Cs"}, "10": {"label": "*4", "atom_type": "Cs"}}

>  <type>  (9) 
unop_5

>  <geom_source>  (9) 
Heuristics

$$$$

     RDKit          3D

 19 17  0  0  0  0  0  0  0  0999 V2000
   -0.8893    0.5418   -1.7010 C   0  0  0  0  0  0  0  0  0  0  0  0
   -0.8893    0.5418   -0.1905 C   0  0  0  0  0  0  0  0  0  0  0  0
   -0.8893    1.8678    0.4731 N   0  0  0  0  0  0  0  0  0  0  0  0
   -0.8893    2.7973   -0.2746 O   0  0  0  0  0  1  0  0  0  0  0  0
   -0.0092    1.0492   -2.0955 H   0  0  0  0  0  0  0  0  0  0  0  0
   -0.8893   -0.4853   -2.0663 H   0  0  0  0  0  0  0  0  0  0  0  0
   -1.7695    1.0492   -2.0955 H   0  0  0  0  0  0  0  0  0  0  0  0
    0.1561   -0.0670    0.3221 H   0  0  0  0  0  0  0  0  0  0  0  0
   -1.7605    0.0345    0.2366 H   0  0  0  0  0  0  0  0  0  0  0  0
    1.1995   -0.6745    0.8336 C   0  0  0  0  0  0  0  0  0  0  0  0
    0.9168   -2.1563    1.0461 C   0  0  0  0  0  0  0  0  0  0  0  0
    1.4785   -3.0267   -0.0708 C   0  0  0  0  0  0  0  0  0  0  0  0
    0.7898   -0.0679    1.6430 H   0  0  0  0  0  0  0  0  0  0  0  0
    2.2745   -0.4850    0.7845 H   0  0  0  0  0  0  0  0  0  0  0  0
    1.3400   -2.4740    2.0030 H   0  0  0  0  0  0  0  0  0  0  0  0
   -0.1626   -2.3137    1.1224 H   0  0  0  0  0  0  0  0  0  0  0  0
    2.5624   -2.9113   -0.1484 H   0  0  0  0  0  0  0  0  0  0  0  0
    1.2663   -4.0836    0.0990 H   0  0  0  0  0  0  0  0  0  0  0  0
    1.0478   -2.7498   -1.0361 H   0  0  0  0  0  0  0  0  0  0  0  0
  1  2  1  0
  1  5  1  0
  1  6  1  0
  1  7  1  0
  2  3  2  3
  2  9  1  0
  3  4  1  0
  8 10  1  0
 10 11  1  0
 10 13  1  0
 10 14  1  0
 11 12  1  0
 11 15  1  0
 11 16  1  0
 12 17  1  0
 12 18  1  0
 12 19  1  0
M  RAD  1   4   2
M  END
>  <reaction>  (10) 
rmg_rxn_500

>  <mol_properties>  (10) 
{"1": {"label": "*1", "atom_type": "Cs"}, "2": {"label": "*0", "atom_type": "N3d"}, "7": {"label": "*2", "atom_type": "H0"}, "9": {"label": "*3", "atom_type": "Cs"}, "10": {"label": "*4", "atom_type": "Cs"}}

>  <type>  (10) 
unop_6

>  <geom_source>  (10) 
Heuristics

$$$$

     RDKit          3D

 19 17  0  0  0  0  0  0  0  0999 V2000
   -0.7838    0.5208   -1.9444 C   0  0  0  0  0  0  0  0  0  0  0  0
   -0.7838    0.5208   -0.4339 C   0  0  0  0  0  0  0  0  0  0  0  0
   -0.7838    1.8468    0.2297 N   0  0  0  0  0  0  0  0  0  0  0  0
   -0.7838    2.7763   -0.5180 O   0  0  0  0  0  1  0  0  0  0  0  0
    0.0963    1.0282   -2.3389 H   0  0  0  0  0  0  0  0  0  0  0  0
   -0.7838   -0.5063   -2.3096 H   0  0  0  0  0  0  0  0  0  0  0  0
   -1.6640    1.0282   -2.3389 H   0  0  0  0  0  0  0  0  0  0  0  0
    0.2616   -0.0880    0.0787 H   0  0  0  0  0  0  0  0  0  0  0  0
   -1.6550    0.0135   -0.0067 H   0  0  0  0  0  0  0  0  0  0  0  0
    1.3050   -0.6955    0.5903 C   0  0  0  0  0  0  0  0  0  0  0  0
    0.8785   -1.8729    1.4577 C   0  0  0  0  0  0  0  0  0  0  0  0
    0.9896   -3.2074    0.7314 C   0  0  0  0  0  0  0  0  0  0  0  0
    1.2184    0.2505    1.1273 H   0  0  0  0  0  0  0  0  0  0  0  0
    2.3435   -0.8037    0.2681 H   0  0  0  0  0  0  0  0  0  0  0  0
    1.4914   -1.8990    2.3629 H   0  0  0  0  0  0  0  0  0  0  0  0
   -0.1524   -1.7247    1.7912 H   0  0  0  0  0  0  0  0  0  0  0  0
    2.0182   -3.3947    0.4137 H   0  0  0  0  0  0  0  0  0  0  0  0
    0.6801   -4.0377    1.3683 H   0  0  0  0  0  0  0  0  0  0  0  0
    0.3614   -3.2191   -0.1626 H   0  0  0  0  0  0  0  0  0  0  0  0
  1  2  1  0
  1  5  1  0
  1  6  1  0
  1  7  1  0
  2  3  2  3
  2  9  1  0
  3  4  1  0
  8 10  1  0
 10 11  1  0
 10 13  1  0
 10 14  1  0
 11 12  1  0
 11 15  1  0
 11 16  1  0
 12 17  1  0
 12 18  1  0
 12 19  1  0
M  RAD  1   4   2
M  END
>  <reaction>  (11) 
rmg_rxn_500

>  <mol_properties>  (11) 
{"1": {"label": "*1", "atom_type": "Cs"}, "2": {"label": "*0", "atom_type": "N3d"}, "7": {"label": "*2", "atom_type": "H0"}, "9": {"label": "*3", "atom_type": "Cs"}, "10": {"label": "*4", "atom_type": "Cs"}}

>  <type>  (11) 
unop_7

>  <geom_source>  (11) 
Heuristics

$$$$

     RDKit          3D

 19 17  0  0  0  0  0  0  0  0999 V2000
   -1.1460   -0.5004   -1.8737 C   0  0  0  0  0  0  0  0  0  0  0  0
   -1.1460   -0.5004   -0.3632 C   0  0  0  0  0  0  0  0  0  0  0  0
   -1.1460    0.8256    0.3004 N   0  0  0  0  0  0  0  0  0  0  0  0
   -1.1460    1.7551   -0.4473 O   0  0  0  0  0  1  0  0  0  0  0  0
   -0.2659    0.0070   -2.2681 H   0  0  0  0  0  0  0  0  0  0  0  0
   -1.1460   -1.5275   -2.2389 H   0  0  0  0  0  0  0  0  0  0  0  0
   -2.0262    0.0070   -2.2681 H   0  0  0  0  0  0  0  0  0  0  0  0
   -0.1006   -1.1092    0.1494 H   0  0  0  0  0  0  0  0  0  0  0  0
   -2.0172   -1.0077    0.0640 H   0  0  0  0  0  0  0  0  0  0  0  0
    0.9427   -1.7167    0.6610 C   0  0  0  0  0  0  0  0  0  0  0  0
    2.0920   -0.7396    0.8734 C   0  0  0  0  0  0  0  0  0  0  0  0
    1.6270    0.7099    0.9289 C   0  0  0  0  0  0  0  0  0  0  0  0
    1.2953   -2.7488    0.6240 H   0  0  0  0  0  0  0  0  0  0  0  0
    0.2116   -1.6416    1.4695 H   0  0  0  0  0  0  0  0  0  0  0  0
    2.6157   -0.9897    1.8003 H   0  0  0  0  0  0  0  0  0  0  0  0
    2.8229   -0.8569    0.0686 H   0  0  0  0  0  0  0  0  0  0  0  0
    0.9174    0.8615    1.7459 H   0  0  0  0  0  0  0  0  0  0  0  0
    2.4635    1.3940    1.0815 H   0  0  0  0  0  0  0  0  0  0  0  0
    1.1263    0.9954    0.0006 H   0  0  0  0  0  0  0  0  0  0  0  0
  1  2  1  0
  1  5  1  0
  1  6  1  0
  1  7  1  0
  2  3  2  3
  2  9  1  0
  3  4  1  0
  8 10  1  0
 10 11  1  0
 10 13  1  0
 10 14  1  0
 11 12  1  0
 11 15  1  0
 11 16  1  0
 12 17  1  0
 12 18  1  0
 12 19  1  0
M  RAD  1   4   2
M  END
>  <reaction>  (12) 
rmg_rxn_500

>  <mol_properties>  (12) 
{"1": {"label": "*1", "atom_type": "Cs"}, "2": {"label": "*0", "atom_type": "N3d"}, "7": {"label": "*2", "atom_type": "H0"}, "9": {"label": "*3", "atom_type": "Cs"}, "10": {"label": "*4", "atom_type": "Cs"}}

>  <type>  (12) 
unop_8

>  <geom_source>  (12) 
Heuristics

$$$$

     RDKit          3D

 19 17  0  0  0  0  0  0  0  0999 V2000
   -1.1467    0.2329   -1.3651 C   0  0  0  0  0  0  0  0  0  0  0  0
   -1.1467    0.2329    0.1454 C   0  0  0  0  0  0  0  0  0  0  0  0
   -1.1467    1.5588    0.8089 N   0  0  0  0  0  0  0  0  0  0  0  0
   -1.1467    2.4884    0.0612 O   0  0  0  0  0  1  0  0  0  0  0  0
   -0.2666    0.7402   -1.7596 H   0  0  0  0  0  0  0  0  0  0  0  0
   -1.1467   -0.7943   -1.7304 H   0  0  0  0  0  0  0  0  0  0  0  0
   -2.0268    0.7402   -1.7596 H   0  0  0  0  0  0  0  0  0  0  0  0
   -0.1013   -0.3759    0.6579 H   0  0  0  0  0  0  0  0  0  0  0  0
   -2.0179   -0.2745    0.5725 H   0  0  0  0  0  0  0  0  0  0  0  0
    0.9421   -0.9835    1.1695 C   0  0  0  0  0  0  0  0  0  0  0  0
    1.4328   -2.0924    0.2475 C   0  0  0  0  0  0  0  0  0  0  0  0
    2.2356   -1.5614   -0.9332 C   0  0  0  0  0  0  0  0  0  0  0  0
    0.3698   -1.3831    2.0084 H   0  0  0  0  0  0  0  0  0  0  0  0
    1.7812   -0.4148    1.5776 H   0  0  0  0  0  0  0  0  0  0  0  0
    2.0461   -2.7953    0.8180 H   0  0  0  0  0  0  0  0  0  0  0  0
    0.5769   -2.6641   -0.1218 H   0  0  0  0  0  0  0  0  0  0  0  0
    3.1155   -1.0109   -0.5914 H   0  0  0  0  0  0  0  0  0  0  0  0
    2.5780   -2.3698   -1.5815 H   0  0  0  0  0  0  0  0  0  0  0  0
    1.6346   -0.8787   -1.5388 H   0  0  0  0  0  0  0  0  0  0  0  0
  1  2  1  0
  1  5  1  0
  1  6  1  0
  1  7  1  0
  2  3  2  3
  2  9  1  0
  3  4  1  0
  8 10  1  0
 10 11  1  0
 10 13  1  0
 10 14  1  0
 11 12  1  0
 11 15  1  0
 11 16  1  0
 12 17  1  0
 12 18  1  0
 12 19  1  0
M  RAD  1   4   2
M  END
>  <reaction>  (13) 
rmg_rxn_500

>  <mol_properties>  (13) 
{"1": {"label": "*1", "atom_type": "Cs"}, "2": {"label": "*0", "atom_type": "N3d"}, "7": {"label": "*2", "atom_type": "H0"}, "9": {"label": "*3", "atom_type": "Cs"}, "10": {"label": "*4", "atom_type": "Cs"}}

>  <type>  (13) 
unop_9

>  <geom_source>  (13) 
Heuristics

$$$$

     RDKit          3D

 19 17  0  0  0  0  0  0  0  0999 V2000
   -1.2310   -0.4199   -1.6336 C   0  0  0  0  0  0  0  0  0  0  0  0
   -1.2310   -0.4199   -0.1231 C   0  0  0  0  0  0  0  0  0  0  0  0
   -1.2310    0.9060    0.5405 N   0  0  0  0  0  0  0  0  0  0  0  0
   -1.2310    1.8356   -0.2072 O   0  0  0  0  0  1  0  0  0  0  0  0
   -0.3508    0.0874   -2.0281 H   0  0  0  0  0  0  0  0  0  0  0  0
   -1.2310   -1.4471   -1.9989 H   0  0  0  0  0  0  0  0  0  0  0  0
   -2.1111    0.0874   -2.0281 H   0  0  0  0  0  0  0  0  0  0  0  0
   -0.1855   -1.0287    0.3895 H   0  0  0  0  0  0  0  0  0  0  0  0
   -2.1022   -0.9272    0.3041 H   0  0  0  0  0  0  0  0  0  0  0  0
    0.8578   -1.6363    0.9011 C   0  0  0  0  0  0  0  0  0  0  0  0
    2.1509   -0.9636    0.4585 C   0  0  0  0  0  0  0  0  0  0  0  0
    1.9685    0.5189    0.1593 C   0  0  0  0  0  0  0  0  0  0  0  0
    1.0086   -2.6966    1.1106 H   0  0  0  0  0  0  0  0  0  0  0  0
    0.4644   -1.1687    1.8070 H   0  0  0  0  0  0  0  0  0  0  0  0
    2.9101   -1.0872    1.2359 H   0  0  0  0  0  0  0  0  0  0  0  0
    2.5387   -1.4693   -0.4301 H   0  0  0  0  0  0  0  0  0  0  0  0
    1.6101    1.0544    1.0418 H   0  0  0  0  0  0  0  0  0  0  0  0
    2.9047    0.9827   -0.1558 H   0  0  0  0  0  0  0  0  0  0  0  0
    1.2358    0.6693   -0.6374 H   0  0  0  0  0  0  0  0  0  0  0  0
  1  2  1  0
  1  5  1  0
  1  6  1  0
  1  7  1  0
  2  3  2  3
  2  9  1  0
  3  4  1  0
  8 10  1  0
 10 11  1  0
 10 13  1  0
 10 14  1  0
 11 12  1  0
 11 15  1  0
 11 16  1  0
 12 17  1  0
 12 18  1  0
 12 19  1  0
M  RAD  1   4   2
M  END
>  <reaction>  (14) 
rmg_rxn_500

>  <mol_properties>  (14) 
{"1": {"label": "*1", "atom_type": "Cs"}, "2": {"label": "*0", "atom_type": "N3d"}, "7": {"label": "*2", "atom_type": "H0"}, "9": {"label": "*3", "atom_type": "Cs"}, "10": {"label": "*4", "atom_type": "Cs"}}

>  <type>  (14) 
unop_10

>  <geom_source>  (14) 
Heuristics

$$$$

     RDKit          3D

 19 17  0  0  0  0  0  0  0  0999 V2000
   -0.7146    0.3758   -2.1658 C   0  0  0  0  0  0  0  0  0  0  0  0
   -0.7146    0.3758   -0.6553 C   0  0  0  0  0  0  0  0  0  0  0  0
   -0.7146    1.7017    0.0083 N   0  0  0  0  0  0  0  0  0  0  0  0
   -0.7146    2.6313   -0.7394 O   0  0  0  0  0  1  0  0  0  0  0  0
    0.1655    0.8832   -2.5603 H   0  0  0  0  0  0  0  0  0  0  0  0
   -0.7146   -0.6514   -2.5311 H   0  0  0  0  0  0  0  0  0  0  0  0
   -1.5947    0.8832   -2.5603 H   0  0  0  0  0  0  0  0  0  0  0  0
    0.3308   -0.2330   -0.1427 H   0  0  0  0  0  0  0  0  0  0  0  0
   -1.5858   -0.1315   -0.2281 H   0  0  0  0  0  0  0  0  0  0  0  0
    1.3742   -0.8406    0.3689 C   0  0  0  0  0  0  0  0  0  0  0  0
    1.0341   -1.4657    1.7157 C   0  0  0  0  0  0  0  0  0  0  0  0
    0.4907   -2.8827    1.5844 C   0  0  0  0  0  0  0  0  0  0  0  0
    1.7615    0.1732    0.4835 H   0  0  0  0  0  0  0  0  0  0  0  0
    2.1298   -1.4302   -0.1559 H   0  0  0  0  0  0  0  0  0  0  0  0
    1.9261   -1.4751    2.3483 H   0  0  0  0  0  0  0  0  0  0  0  0
    0.3003   -0.8408    2.2322 H   0  0  0  0  0  0  0  0  0  0  0  0
    1.2185   -3.5367    1.0980 H   0  0  0  0  0  0  0  0  0  0  0  0
    0.2532   -3.3132    2.5587 H   0  0  0  0  0  0  0  0  0  0  0  0
   -0.4202   -2.8974    0.9811 H   0  0  0  0  0  0  0  0  0  0  0  0
  1  2  1  0
  1  5  1  0
  1  6  1  0
  1  7  1  0
  2  3  2  3
  2  9  1  0
  3  4  1  0
  8 10  1  0
 10 11  1  0
 10 13  1  0
 10 14  1  0
 11 12  1  0
 11 15  1  0
 11 16  1  0
 12 17  1  0
 12 18  1  0
 12 19  1  0
M  RAD  1   4   2
M  END
>  <reaction>  (15) 
rmg_rxn_500

>  <mol_properties>  (15) 
{"1": {"label": "*1", "atom_type": "Cs"}, "2": {"label": "*0", "atom_type": "N3d"}, "7": {"label": "*2", "atom_type": "H0"}, "9": {"label": "*3", "atom_type": "Cs"}, "10": {"label": "*4", "atom_type": "Cs"}}

>  <type>  (15) 
unop_11

>  <geom_source>  (15) 
Heuristics

$$$$

     RDKit          3D

 19 17  0  0  0  0  0  0  0  0999 V2000
   -1.2276   -0.0172   -1.3534 C   0  0  0  0  0  0  0  0  0  0  0  0
   -1.2276   -0.0172    0.1571 C   0  0  0  0  0  0  0  0  0  0  0  0
   -1.2276    1.3088    0.8207 N   0  0  0  0  0  0  0  0  0  0  0  0
   -1.2276    2.2383    0.0730 O   0  0  0  0  0  1  0  0  0  0  0  0
   -0.3475    0.4902   -1.7479 H   0  0  0  0  0  0  0  0  0  0  0  0
   -1.2276   -1.0443   -1.7187 H   0  0  0  0  0  0  0  0  0  0  0  0
   -2.1077    0.4902   -1.7479 H   0  0  0  0  0  0  0  0  0  0  0  0
   -0.1821   -0.6260    0.6697 H   0  0  0  0  0  0  0  0  0  0  0  0
   -2.0988   -0.5245    0.5842 H   0  0  0  0  0  0  0  0  0  0  0  0
    0.8612   -1.2336    1.1812 C   0  0  0  0  0  0  0  0  0  0  0  0
    1.7741   -1.7652    0.0838 C   0  0  0  0  0  0  0  0  0  0  0  0
    2.2957   -0.6638   -0.8302 C   0  0  0  0  0  0  0  0  0  0  0  0
    0.4981   -2.0365    1.8249 H   0  0  0  0  0  0  0  0  0  0  0  0
    1.3868   -0.5116    1.8109 H   0  0  0  0  0  0  0  0  0  0  0  0
    2.6183   -2.2928    0.5363 H   0  0  0  0  0  0  0  0  0  0  0  0
    1.2342   -2.5068   -0.5114 H   0  0  0  0  0  0  0  0  0  0  0  0
    2.8666    0.0761   -0.2639 H   0  0  0  0  0  0  0  0  0  0  0  0
    2.9472   -1.0638   -1.6091 H   0  0  0  0  0  0  0  0  0  0  0  0
    1.4715   -0.1395   -1.3199 H   0  0  0  0  0  0  0  0  0  0  0  0
  1  2  1  0
  1  5  1  0
  1  6  1  0
  1  7  1  0
  2  3  2  3
  2  9  1  0
  3  4  1  0
  8 10  1  0
 10 11  1  0
 10 13  1  0
 10 14  1  0
 11 12  1  0
 11 15  1  0
 11 16  1  0
 12 17  1  0
 12 18  1  0
 12 19  1  0
M  RAD  1   4   2
M  END
>  <reaction>  (16) 
rmg_rxn_500

>  <mol_properties>  (16) 
{"1": {"label": "*1", "atom_type": "Cs"}, "2": {"label": "*0", "atom_type": "N3d"}, "7": {"label": "*2", "atom_type": "H0"}, "9": {"label": "*3", "atom_type": "Cs"}, "10": {"label": "*4", "atom_type": "Cs"}}

>  <type>  (16) 
unop_12

>  <geom_source>  (16) 
Heuristics

$$$$

     RDKit          3D

 19 17  0  0  0  0  0  0  0  0999 V2000
    2.2356    1.3828   -1.9396 O   0  0  0  0  0  1  0  0  0  0  0  0
    2.3502    0.2172   -1.7104 N   0  0  0  0  0  0  0  0  0  0  0  0
   -1.5975   -0.1670    0.6577 C   0  0  0  0  0  0  0  0  0  0  0  0
   -0.7201    0.1089   -0.5585 C   0  0  0  0  0  0  0  0  0  0  0  0
   -3.0788   -0.1212    0.2954 C   0  0  0  0  0  0  0  0  0  0  0  0
    2.7215    0.1054    0.6959 C   0  0  0  0  0  0  0  0  0  0  0  0
    1.8550   -0.3359   -0.4760 C   0  0  0  0  0  0  0  0  0  0  0  0
   -1.3497   -1.1700    1.0666 H   0  0  0  0  0  0  0  0  0  0  0  0
   -1.3865    0.5931    1.4401 H   0  0  0  0  0  0  0  0  0  0  0  0
   -0.8990   -0.6548   -1.3452 H   0  0  0  0  0  0  0  0  0  0  0  0
   -0.9360    1.1181   -0.9697 H   0  0  0  0  0  0  0  0  0  0  0  0
    0.4986    0.0618   -0.2162 H   0  0  0  0  0  0  0  0  0  0  0  0
   -3.3123   -0.8900   -0.4717 H   0  0  0  0  0  0  0  0  0  0  0  0
   -3.3493    0.8825   -0.0963 H   0  0  0  0  0  0  0  0  0  0  0  0
   -3.6889   -0.3256    1.2004 H   0  0  0  0  0  0  0  0  0  0  0  0
    2.3320   -0.3457    1.6322 H   0  0  0  0  0  0  0  0  0  0  0  0
    3.7708   -0.2260    0.5438 H   0  0  0  0  0  0  0  0  0  0  0  0
    2.6937    1.2108    0.7954 H   0  0  0  0  0  0  0  0  0  0  0  0
    1.8607   -1.4442   -0.5439 H   0  0  0  0  0  0  0  0  0  0  0  0
  1  2  1  0
  2  7  2  3
  3  4  1  0
  3  5  1  0
  3  8  1  0
  3  9  1  0
  4 10  1  0
  4 11  1  0
  4 12  1  0
  5 13  1  0
  5 14  1  0
  5 15  1  0
  6  7  1  0
  6 16  1  0
  6 17  1  0
  6 18  1  0
  7 19  1  0
M  RAD  1   1   2
M  END
>  <reaction>  (17) 
rmg_rxn_500

>  <mol_properties>  (17) 
{"1": {"label": "*1", "atom_type": "Cs"}, "2": {"label": "*0", "atom_type": "N3d"}, "7": {"label": "*2", "atom_type": "H0"}, "9": {"label": "*3", "atom_type": "Cs"}, "10": {"label": "*4", "atom_type": "Cs"}}

>  <type>  (17) 
unop_13

>  <geom_source>  (17) 
AutoTST

$$$$

     RDKit          3D

 19 17  0  0  0  0  0  0  0  0999 V2000
   -1.2552   -0.2481   -1.4497 C   0  0  0  0  0  0  0  0  0  0  0  0
   -1.2552   -0.2481    0.0608 C   0  0  0  0  0  0  0  0  0  0  0  0
   -1.2552    1.0778    0.7244 N   0  0  0  0  0  0  0  0  0  0  0  0
   -1.2552    2.0074   -0.0233 O   0  0  0  0  0  1  0  0  0  0  0  0
   -0.3751    0.2593   -1.8442 H   0  0  0  0  0  0  0  0  0  0  0  0
   -1.2552   -1.2752   -1.8150 H   0  0  0  0  0  0  0  0  0  0  0  0
   -2.1353    0.2593   -1.8442 H   0  0  0  0  0  0  0  0  0  0  0  0
   -0.2098   -0.8569    0.5734 H   0  0  0  0  0  0  0  0  0  0  0  0
   -2.1264   -0.7554    0.4879 H   0  0  0  0  0  0  0  0  0  0  0  0
    0.8336   -1.4645    1.0849 C   0  0  0  0  0  0  0  0  0  0  0  0
    2.0402   -1.3440    0.1629 C   0  0  0  0  0  0  0  0  0  0  0  0
    2.1787    0.0466   -0.4435 C   0  0  0  0  0  0  0  0  0  0  0  0
    0.7513   -2.4665    1.5091 H   0  0  0  0  0  0  0  0  0  0  0  0
    0.9024   -0.7550    1.9132 H   0  0  0  0  0  0  0  0  0  0  0  0
    2.9490   -1.5909    0.7187 H   0  0  0  0  0  0  0  0  0  0  0  0
    1.9616   -2.0842   -0.6381 H   0  0  0  0  0  0  0  0  0  0  0  0
    2.2899    0.8036    0.3366 H   0  0  0  0  0  0  0  0  0  0  0  0
    3.0478    0.1131   -1.1002 H   0  0  0  0  0  0  0  0  0  0  0  0
    1.2947    0.3064   -1.0309 H   0  0  0  0  0  0  0  0  0  0  0  0
  1  2  1  0
  1  5  1  0
  1  6  1  0
  1  7  1  0
  2  3  2  3
  2  9  1  0
  3  4  1  0
  8 10  1  0
 10 11  1  0
 10 13  1  0
 10 14  1  0
 11 12  1  0
 11 15  1  0
 11 16  1  0
 12 17  1  0
 12 18  1  0
 12 19  1  0
M  RAD  1   4   2
M  END
>  <reaction>  (18) 
rmg_rxn_500

>  <mol_properties>  (18) 
{"1": {"label": "*1", "atom_type": "Cs"}, "2": {"label": "*0", "atom_type": "N3d"}, "7": {"label": "*2", "atom_type": "H0"}, "9": {"label": "*3", "atom_type": "Cs"}, "10": {"label": "*4", "atom_type": "Cs"}}

>  <type>  (18) 
unop_14

>  <geom_source>  (18) 
gaussian_log

$$$$
