
     RDKit          3D

 14 13  0  0  0  0  0  0  0  0999 V2000
    1.8106   -0.5953    0.5577 C   0  0  0  0  0  0  0  0  0  0  0  0
    0.5197    0.2064    0.6554 C   0  0  0  0  0  0  0  0  0  0  0  0
   -0.5206   -0.2080   -0.3788 C   0  0  0  0  0  0  0  0  0  0  0  0
   -1.8114    0.5937   -0.2812 C   0  0  0  0  0  0  0  0  0  0  0  0
    2.2725   -0.4752   -0.4251 H   0  0  0  0  0  0  0  0  0  0  0  0
    1.6214   -1.6612    0.7052 H   0  0  0  0  0  0  0  0  0  0  0  0
    2.5364   -0.2784    1.3084 H   0  0  0  0  0  0  0  0  0  0  0  0
    0.0930    0.0950    1.6574 H   0  0  0  0  0  0  0  0  0  0  0  0
    0.7393    1.2723    0.5354 H   0  0  0  0  0  0  0  0  0  0  0  0
   -0.7402   -1.2739   -0.2588 H   0  0  0  0  0  0  0  0  0  0  0  0
   -0.0938   -0.0965   -1.3808 H   0  0  0  0  0  0  0  0  0  0  0  0
   -1.6222    1.6596   -0.4287 H   0  0  0  0  0  0  0  0  0  0  0  0
   -2.2734    0.4736    0.7017 H   0  0  0  0  0  0  0  0  0  0  0  0
   -2.5373    0.2768   -1.0318 H   0  0  0  0  0  0  0  0  0  0  0  0
  1  2  1  0
  1  5  1  0
  1  6  1  0
  1  7  1  0
  2  3  1  0
  2  8  1  0
  2  9  1  0
  3  4  1  0
  3 10  1  0
  3 11  1  0
  4 12  1  0
  4 13  1  0
  4 14  1  0
M  END
>  <reaction>  (1) 
rmg_rxn_343

>  <mol_properties>  (1) 
{"2": {"label": "donator", "atom_type": "Cs"}, "10": {"label": "d_hydrogen", "atom_type": "H0"}}

>  <type>  (1) 
r1h

$$$$

     RDKit          3D

  8  7  0  0  0  0  0  0  0  0999 V2000
    1.3778   -0.6812    0.2772 C   0  0  0  0  0  3  0  0  0  0  0  0
    0.4890    0.2108   -0.0590 C   0  0  0  0  0  0  0  0  0  0  0  0
   -1.0010    0.0286   -0.0323 C   0  0  0  0  0  0  0  0  0  0  0  0
    2.4535   -0.7507    0.3287 H   0  0  0  0  0  0  0  0  0  0  0  0
    0.8447    1.1899   -0.3945 H   0  0  0  0  0  0  0  0  0  0  0  0
   -1.4635    0.7638    0.6301 H   0  0  0  0  0  0  0  0  0  0  0  0
   -1.2709   -0.9687    0.3117 H   0  0  0  0  0  0  0  0  0  0  0  0
   -1.4218    0.1801   -1.0289 H   0  0  0  0  0  0  0  0  0  0  0  0
  1  2  2  3
  1  4  1  0
  2  3  1  0
  2  5  1  0
  3  6  1  0
  3  7  1  0
  3  8  1  0
M  RAD  1   1   2
M  END
>  <reaction>  (2) 
rmg_rxn_343

>  <mol_properties>  (2) 
{"0": {"label": "acceptor", "atom_type": "Cd"}}

>  <type>  (2) 
r2

$$$$

     RDKit          3D

  9  8  0  0  0  0  0  0  0  0999 V2000
    1.1303   -0.2933   -0.7510 C   0  0  0  0  0  0  0  0  0  0  0  0
    0.2866    0.4560   -0.0588 C   0  0  0  0  0  0  0  0  0  0  0  0
   -0.9719   -0.0331    0.5823 C   0  0  0  0  0  0  0  0  0  0  0  0
    2.0274    0.1230   -1.1916 H   0  0  0  0  0  0  0  0  0  0  0  0
    0.9532   -1.3530   -0.9023 H   0  0  0  0  0  0  0  0  0  0  0  0
    0.5065    1.5132    0.0659 H   0  0  0  0  0  0  0  0  0  0  0  0
   -0.9526    0.1426    1.6610 H   0  0  0  0  0  0  0  0  0  0  0  0
   -1.1182   -1.1002    0.4106 H   0  0  0  0  0  0  0  0  0  0  0  0
   -1.8412    0.5010    0.1901 H   0  0  0  0  0  0  0  0  0  0  0  0
  1  2  2  3
  1  4  1  0
  1  5  1  0
  2  3  1  0
  2  6  1  0
  3  7  1  0
  3  8  1  0
  3  9  1  0
M  END
>  <reaction>  (3) 
rmg_rxn_343

>  <mol_properties>  (3) 
{"0": {"label": "acceptor", "atom_type": "Cd"}, "8": {"label": "a_hydrogen", "atom_type": "H0"}}

>  <type>  (3) 
r2h

$$$$

     RDKit          3D

 22 20  0  0  0  0  0  0  0  0999 V2000
    0.3643    1.4184   -0.3882 C   0  0  0  0  0  3  0  0  0  0  0  0
    1.5427    0.8914   -0.6371 C   0  0  0  0  0  0  0  0  0  0  0  0
    2.6715    1.5685   -1.3601 C   0  0  0  0  0  0  0  0  0  0  0  0
    0.0083    2.4080   -0.6552 H   0  0  0  0  0  0  0  0  0  0  0  0
    1.7405   -0.1255   -0.2986 H   0  0  0  0  0  0  0  0  0  0  0  0
    3.5567    1.6285   -0.7219 H   0  0  0  0  0  0  0  0  0  0  0  0
    2.3985    2.5782   -1.6672 H   0  0  0  0  0  0  0  0  0  0  0  0
    2.9544    1.0007   -2.2501 H   0  0  0  0  0  0  0  0  0  0  0  0
   -1.7440   -1.4430   -1.2129 C   0  0  0  0  0  0  0  0  0  0  0  0
   -1.1542   -1.5592    0.1861 C   0  0  0  0  0  0  0  0  0  0  0  0
   -1.2233   -0.2701    0.9729 C   0  0  0  0  0  0  0  0  0  0  0  0
   -0.6178   -0.3176    2.3548 C   0  0  0  0  0  0  0  0  0  0  0  0
   -1.2117   -0.6869   -1.7934 H   0  0  0  0  0  0  0  0  0  0  0  0
   -2.7960   -1.1517   -1.1693 H   0  0  0  0  0  0  0  0  0  0  0  0
   -1.6813   -2.3900   -1.7512 H   0  0  0  0  0  0  0  0  0  0  0  0
   -1.6764   -2.3476    0.7431 H   0  0  0  0  0  0  0  0  0  0  0  0
   -0.1096   -1.8823    0.1209 H   0  0  0  0  0  0  0  0  0  0  0  0
   -2.2306    0.1548    0.9720 H   0  0  0  0  0  0  0  0  0  0  0  0
   -0.5555    0.5781    0.3224 H   0  0  0  0  0  0  0  0  0  0  0  0
    0.4258   -0.6386    2.3113 H   0  0  0  0  0  0  0  0  0  0  0  0
   -1.1539   -1.0234    2.9976 H   0  0  0  0  0  0  0  0  0  0  0  0
   -0.6457    0.6608    2.8367 H   0  0  0  0  0  0  0  0  0  0  0  0
  1  2  2  3
  1  4  1  0
  2  3  1  0
  2  5  1  0
  3  6  1  0
  3  7  1  0
  3  8  1  0
  9 10  1  0
  9 13  1  0
  9 14  1  0
  9 15  1  0
 10 11  1  0
 10 16  1  0
 10 17  1  0
 11 12  1  0
 11 18  1  0
 11 19  1  0
 12 20  1  0
 12 21  1  0
 12 22  1  0
M  RAD  1   1   2
M  END
>  <reaction>  (4) 
rmg_rxn_343

>  <mol_properties>  (4) 
{"0": {"label": "*3", "atom_type": "Cd"}, "1": {"label": "*4", "atom_type": "Cd"}, "9": {"label": "*0", "atom_type": "Cs"}, "10": {"label": "*1", "atom_type": "Cs"}, "18": {"label": "*2", "atom_type": "H0"}}

>  <type>  (4) 
ts

$$$$

     RDKit          3D

 22 20  0  0  0  0  0  0  0  0999 V2000
    1.1308    0.6577   -0.1785 C   0  0  0  0  0  0  0  0  0  0  0  0
    1.0070    1.7787   -0.8716 C   0  0  0  0  0  0  0  0  0  0  0  0
    1.8000    3.0246   -0.6416 C   0  0  0  0  0  0  0  0  0  0  0  0
    1.8452    0.5702    0.6334 H   0  0  0  0  0  0  0  0  0  0  0  0
    0.2773    1.8188   -1.6762 H   0  0  0  0  0  0  0  0  0  0  0  0
    2.3598    3.3006   -1.5390 H   0  0  0  0  0  0  0  0  0  0  0  0
    2.5068    2.9014    0.1799 H   0  0  0  0  0  0  0  0  0  0  0  0
    1.1429    3.8661   -0.4072 H   0  0  0  0  0  0  0  0  0  0  0  0
   -0.9578   -2.0476   -1.4218 C   0  0  0  0  0  0  0  0  0  0  0  0
   -0.9578   -2.0476    0.1009 C   0  0  0  0  0  0  0  0  0  0  0  0
   -0.9578   -0.6452    0.6982 C   0  0  0  0  0  3  0  0  0  0  0  0
   -0.9578   -0.6452    2.2209 C   0  0  0  0  0  0  0  0  0  0  0  0
   -0.0762   -1.5342   -1.8132 H   0  0  0  0  0  0  0  0  0  0  0  0
   -1.8393   -1.5342   -1.8132 H   0  0  0  0  0  0  0  0  0  0  0  0
   -0.9578   -3.0627   -1.8222 H   0  0  0  0  0  0  0  0  0  0  0  0
   -1.8328   -2.5935    0.4682 H   0  0  0  0  0  0  0  0  0  0  0  0
   -0.0827   -2.5935    0.4682 H   0  0  0  0  0  0  0  0  0  0  0  0
   -1.8328   -0.0993    0.3309 H   0  0  0  0  0  0  0  0  0  0  0  0
    0.0923    0.0099    0.2575 H   0  0  0  0  0  0  0  0  0  0  0  0
   -0.0762   -1.1586    2.6123 H   0  0  0  0  0  0  0  0  0  0  0  0
   -1.8393   -1.1586    2.6123 H   0  0  0  0  0  0  0  0  0  0  0  0
   -0.9578    0.3699    2.6213 H   0  0  0  0  0  0  0  0  0  0  0  0
  1  2  2  3
  1  4  1  0
  1 19  1  0
  2  3  1  0
  2  5  1  0
  3  6  1  0
  3  7  1  0
  3  8  1  0
  9 10  1  0
  9 13  1  0
  9 14  1  0
  9 15  1  0
 10 11  1  0
 10 16  1  0
 10 17  1  0
 11 12  1  0
 11 18  1  0
 12 20  1  0
 12 21  1  0
 12 22  1  0
M  RAD  1  11   2
M  END
>  <reaction>  (5) 
rmg_rxn_343

>  <mol_properties>  (5) 
{"0": {"label": "*3", "atom_type": "Cd"}, "1": {"label": "*4", "atom_type": "Cd"}, "9": {"label": "*0", "atom_type": "Cs"}, "10": {"label": "*1", "atom_type": "Cs"}, "18": {"label": "*2", "atom_type": "H0"}}

>  <type>  (5) 
unop_1

>  <geom_source>  (5) 
Heuristics

$$$$

     RDKit          3D

 22 20  0  0  0  0  0  0  0  0999 V2000
    0.9267    1.0991    0.1168 C   0  0  0  0  0  0  0  0  0  0  0  0
    1.4498    0.8489   -1.0732 C   0  0  0  0  0  0  0  0  0  0  0  0
    2.3751    1.7587   -1.8150 C   0  0  0  0  0  0  0  0  0  0  0  0
    1.1463    2.0183    0.6497 H   0  0  0  0  0  0  0  0  0  0  0  0
    1.2004   -0.0859   -1.5686 H   0  0  0  0  0  0  0  0  0  0  0  0
    3.3287    1.2638   -2.0161 H   0  0  0  0  0  0  0  0  0  0  0  0
    2.5738    2.6711   -1.2514 H   0  0  0  0  0  0  0  0  0  0  0  0
    1.9526    2.0375   -2.7837 H   0  0  0  0  0  0  0  0  0  0  0  0
   -1.1618   -1.6061   -1.1266 C   0  0  0  0  0  0  0  0  0  0  0  0
   -1.1618   -1.6061    0.3961 C   0  0  0  0  0  0  0  0  0  0  0  0
   -1.1618   -0.2038    0.9935 C   0  0  0  0  0  3  0  0  0  0  0  0
   -1.1618   -0.2038    2.5162 C   0  0  0  0  0  0  0  0  0  0  0  0
   -0.2803   -1.0928   -1.5179 H   0  0  0  0  0  0  0  0  0  0  0  0
   -2.0434   -1.0928   -1.5179 H   0  0  0  0  0  0  0  0  0  0  0  0
   -1.1618   -2.6212   -1.5269 H   0  0  0  0  0  0  0  0  0  0  0  0
   -2.0369   -2.1520    0.7635 H   0  0  0  0  0  0  0  0  0  0  0  0
   -0.2868   -2.1520    0.7635 H   0  0  0  0  0  0  0  0  0  0  0  0
   -2.0369    0.3421    0.6262 H   0  0  0  0  0  0  0  0  0  0  0  0
   -0.1118    0.4513    0.5527 H   0  0  0  0  0  0  0  0  0  0  0  0
   -0.2803   -0.7171    2.9076 H   0  0  0  0  0  0  0  0  0  0  0  0
   -2.0434   -0.7171    2.9076 H   0  0  0  0  0  0  0  0  0  0  0  0
   -1.1618    0.8113    2.9166 H   0  0  0  0  0  0  0  0  0  0  0  0
  1  2  2  3
  1  4  1  0
  1 19  1  0
  2  3  1  0
  2  5  1  0
  3  6  1  0
  3  7  1  0
  3  8  1  0
  9 10  1  0
  9 13  1  0
  9 14  1  0
  9 15  1  0
 10 11  1  0
 10 16  1  0
 10 17  1  0
 11 12  1  0
 11 18  1  0
 12 20  1  0
 12 21  1  0
 12 22  1  0
M  RAD  1  11   2
M  END
>  <reaction>  (6) 
rmg_rxn_343

>  <mol_properties>  (6) 
{"0": {"label": "*3", "atom_type": "Cd"}, "1": {"label": "*4", "atom_type": "Cd"}, "9": {"label": "*0", "atom_type": "Cs"}, "10": {"label": "*1", "atom_type": "Cs"}, "18": {"label": "*2", "atom_type": "H0"}}

>  <type>  (6) 
unop_2

>  <geom_source>  (6) 
Heuristics

$$$$

     RDKit          3D

 22 20  0  0  0  0  0  0  0  0999 V2000
    1.0444    0.6556   -0.3400 C   0  0  0  0  0  0  0  0  0  0  0  0
    1.0266    1.9704   -0.4926 C   0  0  0  0  0  0  0  0  0  0  0  0
    2.1739    2.8853   -0.2082 C   0  0  0  0  0  0  0  0  0  0  0  0
    1.9296    0.1390    0.0157 H   0  0  0  0  0  0  0  0  0  0  0  0
    0.1163    2.4434   -0.8520 H   0  0  0  0  0  0  0  0  0  0  0  0
    2.4600    3.4407   -1.1051 H   0  0  0  0  0  0  0  0  0  0  0  0
    3.0452    2.3336    0.1468 H   0  0  0  0  0  0  0  0  0  0  0  0
    1.9028    3.6252    0.5493 H   0  0  0  0  0  0  0  0  0  0  0  0
   -1.0442   -2.0497   -1.5834 C   0  0  0  0  0  0  0  0  0  0  0  0
   -1.0442   -2.0497   -0.0607 C   0  0  0  0  0  0  0  0  0  0  0  0
   -1.0442   -0.6473    0.5366 C   0  0  0  0  0  3  0  0  0  0  0  0
   -1.0442   -0.6473    2.0593 C   0  0  0  0  0  0  0  0  0  0  0  0
   -0.1626   -1.5364   -1.9748 H   0  0  0  0  0  0  0  0  0  0  0  0
   -1.9257   -1.5364   -1.9748 H   0  0  0  0  0  0  0  0  0  0  0  0
   -1.0442   -3.0648   -1.9838 H   0  0  0  0  0  0  0  0  0  0  0  0
   -1.9192   -2.5956    0.3066 H   0  0  0  0  0  0  0  0  0  0  0  0
   -0.1691   -2.5956    0.3066 H   0  0  0  0  0  0  0  0  0  0  0  0
   -1.9192   -0.1015    0.1693 H   0  0  0  0  0  0  0  0  0  0  0  0
    0.0059    0.0077    0.0959 H   0  0  0  0  0  0  0  0  0  0  0  0
   -0.1626   -1.1607    2.4507 H   0  0  0  0  0  0  0  0  0  0  0  0
   -1.9257   -1.1607    2.4507 H   0  0  0  0  0  0  0  0  0  0  0  0
   -1.0442    0.3678    2.4597 H   0  0  0  0  0  0  0  0  0  0  0  0
  1  2  2  3
  1  4  1  0
  1 19  1  0
  2  3  1  0
  2  5  1  0
  3  6  1  0
  3  7  1  0
  3  8  1  0
  9 10  1  0
  9 13  1  0
  9 14  1  0
  9 15  1  0
 10 11  1  0
 10 16  1  0
 10 17  1  0
 11 12  1  0
 11 18  1  0
 12 20  1  0
 12 21  1  0
 12 22  1  0
M  RAD  1  11   2
M  END
>  <reaction>  (7) 
rmg_rxn_343

>  <mol_properties>  (7) 
{"0": {"label": "*3", "atom_type": "Cd"}, "1": {"label": "*4", "atom_type": "Cd"}, "9": {"label": "*0", "atom_type": "Cs"}, "10": {"label": "*1", "atom_type": "Cs"}, "18": {"label": "*2", "atom_type": "H0"}}

>  <type>  (7) 
unop_3

>  <geom_source>  (7) 
Heuristics

$$$$

     RDKit          3D

 22 20  0  0  0  0  0  0  0  0999 V2000
    0.6832    1.1555   -0.4324 C   0  0  0  0  0  0  0  0  0  0  0  0
    1.9141    0.7252   -0.2039 C   0  0  0  0  0  0  0  0  0  0  0  0
    3.1109    1.6009   -0.0168 C   0  0  0  0  0  0  0  0  0  0  0  0
    0.4574    2.2145   -0.5008 H   0  0  0  0  0  0  0  0  0  0  0  0
    2.0916   -0.3455   -0.1437 H   0  0  0  0  0  0  0  0  0  0  0  0
    3.5698    1.4287    0.9602 H   0  0  0  0  0  0  0  0  0  0  0  0
    2.8480    2.6567   -0.0916 H   0  0  0  0  0  0  0  0  0  0  0  0
    3.8742    1.3820   -0.7680 H   0  0  0  0  0  0  0  0  0  0  0  0
   -1.4053   -1.5498   -1.6757 C   0  0  0  0  0  0  0  0  0  0  0  0
   -1.4053   -1.5498   -0.1530 C   0  0  0  0  0  0  0  0  0  0  0  0
   -1.4053   -0.1474    0.4443 C   0  0  0  0  0  3  0  0  0  0  0  0
   -1.4053   -0.1474    1.9670 C   0  0  0  0  0  0  0  0  0  0  0  0
   -0.5238   -1.0364   -2.0671 H   0  0  0  0  0  0  0  0  0  0  0  0
   -2.2868   -1.0364   -2.0671 H   0  0  0  0  0  0  0  0  0  0  0  0
   -1.4053   -2.5649   -2.0761 H   0  0  0  0  0  0  0  0  0  0  0  0
   -2.2803   -2.0956    0.2143 H   0  0  0  0  0  0  0  0  0  0  0  0
   -0.5303   -2.0956    0.2143 H   0  0  0  0  0  0  0  0  0  0  0  0
   -2.2803    0.3985    0.0770 H   0  0  0  0  0  0  0  0  0  0  0  0
   -0.3552    0.5077    0.0036 H   0  0  0  0  0  0  0  0  0  0  0  0
   -0.5238   -0.6607    2.3584 H   0  0  0  0  0  0  0  0  0  0  0  0
   -2.2868   -0.6607    2.3584 H   0  0  0  0  0  0  0  0  0  0  0  0
   -1.4053    0.8677    2.3674 H   0  0  0  0  0  0  0  0  0  0  0  0
  1  2  2  3
  1  4  1  0
  1 19  1  0
  2  3  1  0
  2  5  1  0
  3  6  1  0
  3  7  1  0
  3  8  1  0
  9 10  1  0
  9 13  1  0
  9 14  1  0
  9 15  1  0
 10 11  1  0
 10 16  1  0
 10 17  1  0
 11 12  1  0
 11 18  1  0
 12 20  1  0
 12 21  1  0
 12 22  1  0
M  RAD  1  11   2
M  END
>  <reaction>  (8) 
rmg_rxn_343

>  <mol_properties>  (8) 
{"0": {"label": "*3", "atom_type": "Cd"}, "1": {"label": "*4", "atom_type": "Cd"}, "9": {"label": "*0", "atom_type": "Cs"}, "10": {"label": "*1", "atom_type": "Cs"}, "18": {"label": "*2", "atom_type": "H0"}}

>  <type>  (8) 
unop_4

>  <geom_source>  (8) 
Heuristics

$$$$

     RDKit          3D

 22 20  0  0  0  0  0  0  0  0999 V2000
    0.9680    0.6895   -0.3699 C   0  0  0  0  0  0  0  0  0  0  0  0
    1.2093    1.9384   -0.0033 C   0  0  0  0  0  0  0  0  0  0  0  0
    2.3757    2.7574   -0.4540 C   0  0  0  0  0  0  0  0  0  0  0  0
    1.6294    0.1609   -1.0484 H   0  0  0  0  0  0  0  0  0  0  0  0
    0.5179    2.4267    0.6787 H   0  0  0  0  0  0  0  0  0  0  0  0
    2.0403    3.6628   -0.9663 H   0  0  0  0  0  0  0  0  0  0  0  0
    3.0182    2.1961   -1.1335 H   0  0  0  0  0  0  0  0  0  0  0  0
    2.9767    3.0809    0.3997 H   0  0  0  0  0  0  0  0  0  0  0  0
   -1.1205   -2.0158   -1.6133 C   0  0  0  0  0  0  0  0  0  0  0  0
   -1.1205   -2.0158   -0.0906 C   0  0  0  0  0  0  0  0  0  0  0  0
   -1.1205   -0.6134    0.5068 C   0  0  0  0  0  3  0  0  0  0  0  0
   -1.1205   -0.6134    2.0295 C   0  0  0  0  0  0  0  0  0  0  0  0
   -0.2389   -1.5025   -2.0046 H   0  0  0  0  0  0  0  0  0  0  0  0
   -2.0020   -1.5025   -2.0047 H   0  0  0  0  0  0  0  0  0  0  0  0
   -1.1205   -3.0309   -2.0136 H   0  0  0  0  0  0  0  0  0  0  0  0
   -1.9955   -2.5617    0.2767 H   0  0  0  0  0  0  0  0  0  0  0  0
   -0.2454   -2.5617    0.2767 H   0  0  0  0  0  0  0  0  0  0  0  0
   -1.9955   -0.0675    0.1395 H   0  0  0  0  0  0  0  0  0  0  0  0
   -0.0704    0.0416    0.0660 H   0  0  0  0  0  0  0  0  0  0  0  0
   -0.2389   -1.1268    2.4209 H   0  0  0  0  0  0  0  0  0  0  0  0
   -2.0020   -1.1268    2.4209 H   0  0  0  0  0  0  0  0  0  0  0  0
   -1.1205    0.4017    2.4299 H   0  0  0  0  0  0  0  0  0  0  0  0
  1  2  2  3
  1  4  1  0
  1 19  1  0
  2  3  1  0
  2  5  1  0
  3  6  1  0
  3  7  1  0
  3  8  1  0
  9 10  1  0
  9 13  1  0
  9 14  1  0
  9 15  1  0
 10 11  1  0
 10 16  1  0
 10 17  1  0
 11 12  1  0
 11 18  1  0
 12 20  1  0
 12 21  1  0
 12 22  1  0
M  RAD  1  11   2
M  END
>  <reaction>  (9) 
rmg_rxn_343

>  <mol_properties>  (9) 
{"0": {"label": "*3", "atom_type": "Cd"}, "1": {"label": "*4", "atom_type": "Cd"}, "9": {"label": "*0", "atom_type": "Cs"}, "10": {"label": "*1", "atom_type": "Cs"}, "18": {"label": "*2", "atom_type": "H0"}}

>  <type>  (9) 
unop_5

>  <geom_source>  (9) 
Heuristics

$$$$

     RDKit          3D

 22 20  0  0  0  0  0  0  0  0999 V2000
    0.7536    0.9934   -0.5565 C   0  0  0  0  0  0  0  0  0  0  0  0
    1.9089    0.9648    0.0890 C   0  0  0  0  0  0  0  0  0  0  0  0
    2.7979    2.1450    0.3149 C   0  0  0  0  0  0  0  0  0  0  0  0
    0.3641    1.9135   -0.9792 H   0  0  0  0  0  0  0  0  0  0  0  0
    2.2584    0.0190    0.4953 H   0  0  0  0  0  0  0  0  0  0  0  0
    2.9514    2.3174    1.3833 H   0  0  0  0  0  0  0  0  0  0  0  0
    2.3765    3.0510   -0.1223 H   0  0  0  0  0  0  0  0  0  0  0  0
    3.7850    1.9780   -0.1238 H   0  0  0  0  0  0  0  0  0  0  0  0
   -1.3349   -1.7119   -1.7999 C   0  0  0  0  0  0  0  0  0  0  0  0
   -1.3349   -1.7119   -0.2772 C   0  0  0  0  0  0  0  0  0  0  0  0
   -1.3349   -0.3095    0.3202 C   0  0  0  0  0  3  0  0  0  0  0  0
   -1.3349   -0.3095    1.8429 C   0  0  0  0  0  0  0  0  0  0  0  0
   -0.4534   -1.1985   -2.1913 H   0  0  0  0  0  0  0  0  0  0  0  0
   -2.2164   -1.1985   -2.1913 H   0  0  0  0  0  0  0  0  0  0  0  0
   -1.3349   -2.7270   -2.2003 H   0  0  0  0  0  0  0  0  0  0  0  0
   -2.2099   -2.2578    0.0901 H   0  0  0  0  0  0  0  0  0  0  0  0
   -0.4599   -2.2578    0.0901 H   0  0  0  0  0  0  0  0  0  0  0  0
   -2.2099    0.2364   -0.0471 H   0  0  0  0  0  0  0  0  0  0  0  0
   -0.2849    0.3456   -0.1206 H   0  0  0  0  0  0  0  0  0  0  0  0
   -0.4534   -0.8229    2.2342 H   0  0  0  0  0  0  0  0  0  0  0  0
   -2.2164   -0.8229    2.2342 H   0  0  0  0  0  0  0  0  0  0  0  0
   -1.3349    0.7056    2.2432 H   0  0  0  0  0  0  0  0  0  0  0  0
  1  2  2  3
  1  4  1  0
  1 19  1  0
  2  3  1  0
  2  5  1  0
  3  6  1  0
  3  7  1  0
  3  8  1  0
  9 10  1  0
  9 13  1  0
  9 14  1  0
  9 15  1  0
 10 11  1  0
 10 16  1  0
 10 17  1  0
 11 12  1  0
 11 18  1  0
 12 20  1  0
 12 21  1  0
 12 22  1  0
M  RAD  1  11   2
M  END
>  <reaction>  (10) 
rmg_rxn_343

>  <mol_properties>  (10) 
{"0": {"label": "*3", "atom_type": "Cd"}, "1": {"label": "*4", "atom_type": "Cd"}, "9": {"label": "*0", "atom_type": "Cs"}, "10": {"label": "*1", "atom_type": "Cs"}, "18": {"label": "*2", "atom_type": "H0"}}

>  <type>  (10) 
unop_6

>  <geom_source>  (10) 
Heuristics

$$$$

     RDKit          3D

 22 20  0  0  0  0  0  0  0  0999 V2000
    0.8680    0.8210   -0.5618 C   0  0  0  0  0  0  0  0  0  0  0  0
    1.7866    1.2942    0.2656 C   0  0  0  0  0  0  0  0  0  0  0  0
    2.3779    2.6655    0.2014 C   0  0  0  0  0  0  0  0  0  0  0  0
    0.4708    1.4242   -1.3715 H   0  0  0  0  0  0  0  0  0  0  0  0
    2.1543    0.6524    1.0620 H   0  0  0  0  0  0  0  0  0  0  0  0
    2.1977    3.2106    1.1316 H   0  0  0  0  0  0  0  0  0  0  0  0
    1.9568    3.2431   -0.6224 H   0  0  0  0  0  0  0  0  0  0  0  0
    3.4617    2.6158    0.0685 H   0  0  0  0  0  0  0  0  0  0  0  0
   -1.2205   -1.8843   -1.8052 C   0  0  0  0  0  0  0  0  0  0  0  0
   -1.2205   -1.8843   -0.2825 C   0  0  0  0  0  0  0  0  0  0  0  0
   -1.2205   -0.4819    0.3149 C   0  0  0  0  0  3  0  0  0  0  0  0
   -1.2205   -0.4819    1.8376 C   0  0  0  0  0  0  0  0  0  0  0  0
   -0.3390   -1.3709   -2.1965 H   0  0  0  0  0  0  0  0  0  0  0  0
   -2.1021   -1.3709   -2.1965 H   0  0  0  0  0  0  0  0  0  0  0  0
   -1.2205   -2.8994   -2.2055 H   0  0  0  0  0  0  0  0  0  0  0  0
   -2.0956   -2.4302    0.0848 H   0  0  0  0  0  0  0  0  0  0  0  0
   -0.3455   -2.4302    0.0848 H   0  0  0  0  0  0  0  0  0  0  0  0
   -2.0956    0.0640   -0.0524 H   0  0  0  0  0  0  0  0  0  0  0  0
   -0.1705    0.1731   -0.1259 H   0  0  0  0  0  0  0  0  0  0  0  0
   -0.3390   -0.9953    2.2290 H   0  0  0  0  0  0  0  0  0  0  0  0
   -2.1021   -0.9953    2.2290 H   0  0  0  0  0  0  0  0  0  0  0  0
   -1.2205    0.5332    2.2380 H   0  0  0  0  0  0  0  0  0  0  0  0
  1  2  2  3
  1  4  1  0
  1 19  1  0
  2  3  1  0
  2  5  1  0
  3  6  1  0
  3  7  1  0
  3  8  1  0
  9 10  1  0
  9 13  1  0
  9 14  1  0
  9 15  1  0
 10 11  1  0
 10 16  1  0
 10 17  1  0
 11 12  1  0
 11 18  1  0
 12 20  1  0
 12 21  1  0
 12 22  1  0
M  RAD  1  11   2
M  END
>  <reaction>  (11) 
rmg_rxn_343

>  <mol_properties>  (11) 
{"0": {"label": "*3", "atom_type": "Cd"}, "1": {"label": "*4", "atom_type": "Cd"}, "9": {"label": "*0", "atom_type": "Cs"}, "10": {"label": "*1", "atom_type": "Cs"}, "18": {"label": "*2", "atom_type": "H0"}}

>  <type>  (11) 
unop_7

>  <geom_source>  (11) 
Heuristics

$$$$

     RDKit          3D

 22 20  0  0  0  0  0  0  0  0999 V2000
    1.1381    0.7545    0.0043 C   0  0  0  0  0  0  0  0  0  0  0  0
    1.0898    1.4738   -1.1059 C   0  0  0  0  0  0  0  0  0  0  0  0
    1.7027    2.8256   -1.2828 C   0  0  0  0  0  0  0  0  0  0  0  0
    1.6466    1.1166    0.8917 H   0  0  0  0  0  0  0  0  0  0  0  0
    0.5686    1.0690   -1.9697 H   0  0  0  0  0  0  0  0  0  0  0  0
    2.4332    2.8180   -2.0959 H   0  0  0  0  0  0  0  0  0  0  0  0
    2.2045    3.1579   -0.3732 H   0  0  0  0  0  0  0  0  0  0  0  0
    0.9428    3.5656   -1.5468 H   0  0  0  0  0  0  0  0  0  0  0  0
   -0.9504   -1.9508   -1.2391 C   0  0  0  0  0  0  0  0  0  0  0  0
   -0.9504   -1.9508    0.2836 C   0  0  0  0  0  0  0  0  0  0  0  0
   -0.9504   -0.5484    0.8810 C   0  0  0  0  0  3  0  0  0  0  0  0
   -0.9504   -0.5484    2.4037 C   0  0  0  0  0  0  0  0  0  0  0  0
   -0.0689   -1.4374   -1.6304 H   0  0  0  0  0  0  0  0  0  0  0  0
   -1.8320   -1.4374   -1.6304 H   0  0  0  0  0  0  0  0  0  0  0  0
   -0.9504   -2.9659   -1.6394 H   0  0  0  0  0  0  0  0  0  0  0  0
   -1.8255   -2.4967    0.6510 H   0  0  0  0  0  0  0  0  0  0  0  0
   -0.0754   -2.4967    0.6510 H   0  0  0  0  0  0  0  0  0  0  0  0
   -1.8255   -0.0025    0.5137 H   0  0  0  0  0  0  0  0  0  0  0  0
    0.0996    0.1066    0.4402 H   0  0  0  0  0  0  0  0  0  0  0  0
   -0.0689   -1.0618    2.7951 H   0  0  0  0  0  0  0  0  0  0  0  0
   -1.8320   -1.0618    2.7951 H   0  0  0  0  0  0  0  0  0  0  0  0
   -0.9504    0.4667    2.8041 H   0  0  0  0  0  0  0  0  0  0  0  0
  1  2  2  3
  1  4  1  0
  1 19  1  0
  2  3  1  0
  2  5  1  0
  3  6  1  0
  3  7  1  0
  3  8  1  0
  9 10  1  0
  9 13  1  0
  9 14  1  0
  9 15  1  0
 10 11  1  0
 10 16  1  0
 10 17  1  0
 11 12  1  0
 11 18  1  0
 12 20  1  0
 12 21  1  0
 12 22  1  0
M  RAD  1  11   2
M  END
>  <reaction>  (12) 
rmg_rxn_343

>  <mol_properties>  (12) 
{"0": {"label": "*3", "atom_type": "Cd"}, "1": {"label": "*4", "atom_type": "Cd"}, "9": {"label": "*0", "atom_type": "Cs"}, "10": {"label": "*1", "atom_type": "Cs"}, "18": {"label": "*2", "atom_type": "H0"}}

>  <type>  (12) 
unop_8

>  <geom_source>  (12) 
Heuristics

$$$$

     RDKit          3D

 22 20  0  0  0  0  0  0  0  0999 V2000
    0.6910    1.2456   -0.2270 C   0  0  0  0  0  0  0  0  0  0  0  0
    1.8159    0.6214   -0.5391 C   0  0  0  0  0  0  0  0  0  0  0  0
    3.1522    1.2759   -0.6814 C   0  0  0  0  0  0  0  0  0  0  0  0
    0.6683    2.3154   -0.0476 H   0  0  0  0  0  0  0  0  0  0  0  0
    1.7891   -0.4518   -0.7098 H   0  0  0  0  0  0  0  0  0  0  0  0
    3.8730    0.8442    0.0178 H   0  0  0  0  0  0  0  0  0  0  0  0
    3.0926    2.3488   -0.4946 H   0  0  0  0  0  0  0  0  0  0  0  0
    3.5550    1.1231   -1.6859 H   0  0  0  0  0  0  0  0  0  0  0  0
   -1.3975   -1.4597   -1.4704 C   0  0  0  0  0  0  0  0  0  0  0  0
   -1.3975   -1.4597    0.0523 C   0  0  0  0  0  0  0  0  0  0  0  0
   -1.3975   -0.0573    0.6497 C   0  0  0  0  0  3  0  0  0  0  0  0
   -1.3975   -0.0573    2.1724 C   0  0  0  0  0  0  0  0  0  0  0  0
   -0.5160   -0.9463   -1.8617 H   0  0  0  0  0  0  0  0  0  0  0  0
   -2.2790   -0.9463   -1.8617 H   0  0  0  0  0  0  0  0  0  0  0  0
   -1.3975   -2.4748   -1.8707 H   0  0  0  0  0  0  0  0  0  0  0  0
   -2.2725   -2.0056    0.4196 H   0  0  0  0  0  0  0  0  0  0  0  0
   -0.5225   -2.0056    0.4196 H   0  0  0  0  0  0  0  0  0  0  0  0
   -2.2725    0.4886    0.2824 H   0  0  0  0  0  0  0  0  0  0  0  0
   -0.3475    0.5977    0.2089 H   0  0  0  0  0  0  0  0  0  0  0  0
   -0.5160   -0.5707    2.5638 H   0  0  0  0  0  0  0  0  0  0  0  0
   -2.2790   -0.5707    2.5638 H   0  0  0  0  0  0  0  0  0  0  0  0
   -1.3975    0.9578    2.5728 H   0  0  0  0  0  0  0  0  0  0  0  0
  1  2  2  3
  1  4  1  0
  1 19  1  0
  2  3  1  0
  2  5  1  0
  3  6  1  0
  3  7  1  0
  3  8  1  0
  9 10  1  0
  9 13  1  0
  9 14  1  0
  9 15  1  0
 10 11  1  0
 10 16  1  0
 10 17  1  0
 11 12  1  0
 11 18  1  0
 12 20  1  0
 12 21  1  0
 12 22  1  0
M  RAD  1  11   2
M  END
>  <reaction>  (13) 
rmg_rxn_343

>  <mol_properties>  (13) 
{"0": {"label": "*3", "atom_type": "Cd"}, "1": {"label": "*4", "atom_type": "Cd"}, "9": {"label": "*0", "atom_type": "Cs"}, "10": {"label": "*1", "atom_type": "Cs"}, "18": {"label": "*2", "atom_type": "H0"}}

>  <type>  (13) 
unop_9

>  <geom_source>  (13) 
Heuristics

$$$$

     RDKit          3D

 22 20  0  0  0  0  0  0  0  0999 V2000
    1.0620    0.9202    0.1202 C   0  0  0  0  0  0  0  0  0  0  0  0
    1.2505    1.1376   -1.1719 C   0  0  0  0  0  0  0  0  0  0  0  0
    1.9205    2.3406   -1.7534 C   0  0  0  0  0  0  0  0  0  0  0  0
    1.3960    1.6313    0.8684 H   0  0  0  0  0  0  0  0  0  0  0  0
    0.8984    0.3960   -1.8844 H   0  0  0  0  0  0  0  0  0  0  0  0
    2.7956    2.0522   -2.3414 H   0  0  0  0  0  0  0  0  0  0  0  0
    2.2428    3.0328   -0.9746 H   0  0  0  0  0  0  0  0  0  0  0  0
    1.2462    2.8726   -2.4294 H   0  0  0  0  0  0  0  0  0  0  0  0
   -1.0265   -1.7851   -1.1232 C   0  0  0  0  0  0  0  0  0  0  0  0
   -1.0265   -1.7851    0.3995 C   0  0  0  0  0  0  0  0  0  0  0  0
   -1.0265   -0.3827    0.9969 C   0  0  0  0  0  3  0  0  0  0  0  0
   -1.0265   -0.3827    2.5196 C   0  0  0  0  0  0  0  0  0  0  0  0
   -0.1450   -1.2718   -1.5146 H   0  0  0  0  0  0  0  0  0  0  0  0
   -1.9080   -1.2718   -1.5146 H   0  0  0  0  0  0  0  0  0  0  0  0
   -1.0265   -2.8002   -1.5236 H   0  0  0  0  0  0  0  0  0  0  0  0
   -1.9016   -2.3310    0.7668 H   0  0  0  0  0  0  0  0  0  0  0  0
   -0.1515   -2.3310    0.7668 H   0  0  0  0  0  0  0  0  0  0  0  0
   -1.9016    0.1631    0.6296 H   0  0  0  0  0  0  0  0  0  0  0  0
    0.0235    0.2723    0.5561 H   0  0  0  0  0  0  0  0  0  0  0  0
   -0.1450   -0.8961    2.9109 H   0  0  0  0  0  0  0  0  0  0  0  0
   -1.9080   -0.8961    2.9109 H   0  0  0  0  0  0  0  0  0  0  0  0
   -1.0265    0.6324    2.9199 H   0  0  0  0  0  0  0  0  0  0  0  0
  1  2  2  3
  1  4  1  0
  1 19  1  0
  2  3  1  0
  2  5  1  0
  3  6  1  0
  3  7  1  0
  3  8  1  0
  9 10  1  0
  9 13  1  0
  9 14  1  0
  9 15  1  0
 10 11  1  0
 10 16  1  0
 10 17  1  0
 11 12  1  0
 11 18  1  0
 12 20  1  0
 12 21  1  0
 12 22  1  0
M  RAD  1  11   2
M  END
>  <reaction>  (14) 
rmg_rxn_343

>  <mol_properties>  (14) 
{"0": {"label": "*3", "atom_type": "Cd"}, "1": {"label": "*4", "atom_type": "Cd"}, "9": {"label": "*0", "atom_type": "Cs"}, "10": {"label": "*1", "atom_type": "Cs"}, "18": {"label": "*2", "atom_type": "H0"}}

>  <type>  (14) 
unop_10

>  <geom_source>  (14) 
Heuristics

$$$$

     RDKit          3D

 22 20  0  0  0  0  0  0  0  0999 V2000
    0.9642    0.7054   -0.4571 C   0  0  0  0  0  0  0  0  0  0  0  0
    1.5482    1.6463    0.2682 C   0  0  0  0  0  0  0  0  0  0  0  0
    2.1299    2.9126   -0.2724 C   0  0  0  0  0  0  0  0  0  0  0  0
    0.8675    0.7990   -1.5336 H   0  0  0  0  0  0  0  0  0  0  0  0
    1.6216    1.5081    1.3439 H   0  0  0  0  0  0  0  0  0  0  0  0
    1.6459    3.7848    0.1745 H   0  0  0  0  0  0  0  0  0  0  0  0
    2.0155    2.9734   -1.3553 H   0  0  0  0  0  0  0  0  0  0  0  0
    3.1942    2.9844   -0.0340 H   0  0  0  0  0  0  0  0  0  0  0  0
   -1.1244   -1.9999   -1.7004 C   0  0  0  0  0  0  0  0  0  0  0  0
   -1.1244   -1.9999   -0.1777 C   0  0  0  0  0  0  0  0  0  0  0  0
   -1.1244   -0.5975    0.4196 C   0  0  0  0  0  3  0  0  0  0  0  0
   -1.1244   -0.5975    1.9423 C   0  0  0  0  0  0  0  0  0  0  0  0
   -0.2428   -1.4865   -2.0918 H   0  0  0  0  0  0  0  0  0  0  0  0
   -2.0059   -1.4865   -2.0918 H   0  0  0  0  0  0  0  0  0  0  0  0
   -1.1244   -3.0150   -2.1008 H   0  0  0  0  0  0  0  0  0  0  0  0
   -1.9994   -2.5458    0.1896 H   0  0  0  0  0  0  0  0  0  0  0  0
   -0.2493   -2.5458    0.1896 H   0  0  0  0  0  0  0  0  0  0  0  0
   -1.9994   -0.0516    0.0523 H   0  0  0  0  0  0  0  0  0  0  0  0
   -0.0743    0.0576   -0.0211 H   0  0  0  0  0  0  0  0  0  0  0  0
   -0.2428   -1.1108    2.3337 H   0  0  0  0  0  0  0  0  0  0  0  0
   -2.0059   -1.1108    2.3337 H   0  0  0  0  0  0  0  0  0  0  0  0
   -1.1244    0.4176    2.3427 H   0  0  0  0  0  0  0  0  0  0  0  0
  1  2  2  3
  1  4  1  0
  1 19  1  0
  2  3  1  0
  2  5  1  0
  3  6  1  0
  3  7  1  0
  3  8  1  0
  9 10  1  0
  9 13  1  0
  9 14  1  0
  9 15  1  0
 10 11  1  0
 10 16  1  0
 10 17  1  0
 11 12  1  0
 11 18  1  0
 12 20  1  0
 12 21  1  0
 12 22  1  0
M  RAD  1  11   2
M  END
>  <reaction>  (15) 
rmg_rxn_343

>  <mol_properties>  (15) 
{"0": {"label": "*3", "atom_type": "Cd"}, "1": {"label": "*4", "atom_type": "Cd"}, "9": {"label": "*0", "atom_type": "Cs"}, "10": {"label": "*1", "atom_type": "Cs"}, "18": {"label": "*2", "atom_type": "H0"}}

>  <type>  (15) 
unop_11

>  <geom_source>  (15) 
Heuristics

$$$$

     RDKit          3D

 22 20  0  0  0  0  0  0  0  0999 V2000
    0.7831    1.2247   -0.0151 C   0  0  0  0  0  0  0  0  0  0  0  0
    1.6489    0.6664   -0.8464 C   0  0  0  0  0  0  0  0  0  0  0  0
    2.8672    1.3350   -1.3968 C   0  0  0  0  0  0  0  0  0  0  0  0
    0.9093    2.2445    0.3328 H   0  0  0  0  0  0  0  0  0  0  0  0
    1.4804   -0.3583   -1.1674 H   0  0  0  0  0  0  0  0  0  0  0  0
    3.7705    0.7839   -1.1229 H   0  0  0  0  0  0  0  0  0  0  0  0
    2.9627    2.3567   -1.0270 H   0  0  0  0  0  0  0  0  0  0  0  0
    2.8341    1.3658   -2.4889 H   0  0  0  0  0  0  0  0  0  0  0  0
   -1.3054   -1.4806   -1.2585 C   0  0  0  0  0  0  0  0  0  0  0  0
   -1.3054   -1.4806    0.2642 C   0  0  0  0  0  0  0  0  0  0  0  0
   -1.3054   -0.0782    0.8616 C   0  0  0  0  0  3  0  0  0  0  0  0
   -1.3054   -0.0782    2.3843 C   0  0  0  0  0  0  0  0  0  0  0  0
   -0.4239   -0.9672   -1.6499 H   0  0  0  0  0  0  0  0  0  0  0  0
   -2.1870   -0.9672   -1.6499 H   0  0  0  0  0  0  0  0  0  0  0  0
   -1.3054   -2.4957   -1.6589 H   0  0  0  0  0  0  0  0  0  0  0  0
   -2.1805   -2.0265    0.6315 H   0  0  0  0  0  0  0  0  0  0  0  0
   -0.4304   -2.0265    0.6315 H   0  0  0  0  0  0  0  0  0  0  0  0
   -2.1805    0.4677    0.4942 H   0  0  0  0  0  0  0  0  0  0  0  0
   -0.2554    0.5768    0.4208 H   0  0  0  0  0  0  0  0  0  0  0  0
   -0.4239   -0.5916    2.7756 H   0  0  0  0  0  0  0  0  0  0  0  0
   -2.1870   -0.5916    2.7756 H   0  0  0  0  0  0  0  0  0  0  0  0
   -1.3054    0.9369    2.7846 H   0  0  0  0  0  0  0  0  0  0  0  0
  1  2  2  3
  1  4  1  0
  1 19  1  0
  2  3  1  0
  2  5  1  0
  3  6  1  0
  3  7  1  0
  3  8  1  0
  9 10  1  0
  9 13  1  0
  9 14  1  0
  9 15  1  0
 10 11  1  0
 10 16  1  0
 10 17  1  0
 11 12  1  0
 11 18  1  0
 12 20  1  0
 12 21  1  0
 12 22  1  0
M  RAD  1  11   2
M  END
>  <reaction>  (16) 
rmg_rxn_343

>  <mol_properties>  (16) 
{"0": {"label": "*3", "atom_type": "Cd"}, "1": {"label": "*4", "atom_type": "Cd"}, "9": {"label": "*0", "atom_type": "Cs"}, "10": {"label": "*1", "atom_type": "Cs"}, "18": {"label": "*2", "atom_type": "H0"}}

>  <type>  (16) 
unop_12

>  <geom_source>  (16) 
Heuristics

$$$$

     RDKit          3D

 22 19  0  0  0  0  0  0  0  0999 V2000
   -2.0410   -1.4754   -0.4007 C   0  0  0  0  0  0  0  0  0  0  0  0
   -2.1364   -0.7042   -1.7141 C   0  0  0  0  0  0  0  0  0  0  0  0
    0.4853   -1.4800   -0.0674 C   0  0  0  0  0  3  0  0  0  0  0  0
    2.2006    2.7794    0.7990 C   0  0  0  0  0  0  0  0  0  0  0  0
   -0.8646   -0.9958    0.4556 C   0  0  0  0  0  2  0  0  0  0  0  0
    1.4711    1.5599    0.3277 C   0  0  0  0  0  3  0  0  0  0  0  0
    0.9439    0.6925    1.1938 C   0  0  0  0  0  3  0  0  0  0  0  0
   -1.9569   -2.5650   -0.6049 H   0  0  0  0  0  0  0  0  0  0  0  0
   -2.9802   -1.3077    0.1693 H   0  0  0  0  0  0  0  0  0  0  0  0
   -3.0652   -0.9968   -2.2477 H   0  0  0  0  0  0  0  0  0  0  0  0
   -2.1688    0.3889   -1.5185 H   0  0  0  0  0  0  0  0  0  0  0  0
   -1.2720   -0.9367   -2.3700 H   0  0  0  0  0  0  0  0  0  0  0  0
    1.5218    3.4172    1.4039 H   0  0  0  0  0  0  0  0  0  0  0  0
    3.0761    2.4833    1.4147 H   0  0  0  0  0  0  0  0  0  0  0  0
    2.5574    3.3632   -0.0751 H   0  0  0  0  0  0  0  0  0  0  0  0
    0.6946   -1.0468   -1.0667 H   0  0  0  0  0  0  0  0  0  0  0  0
    0.5029   -2.5888   -0.1303 H   0  0  0  0  0  0  0  0  0  0  0  0
    1.2853   -1.1499    0.6274 H   0  0  0  0  0  0  0  0  0  0  0  0
   -0.9978   -1.3541    1.4993 H   0  0  0  0  0  0  0  0  0  0  0  0
    1.3686    1.3770   -0.7375 H   0  0  0  0  0  0  0  0  0  0  0  0
    1.0309    0.8497    2.2649 H   0  0  0  0  0  0  0  0  0  0  0  0
    0.3446   -0.3098    0.7774 H   0  0  0  0  0  0  0  0  0  0  0  0
  1  2  1  0
  1  9  1  0
  1  8  1  0
  1  5  1  0
  2 10  1  0
  2 11  1  0
  2 12  1  0
  3 16  1  0
  3 18  1  0
  3 17  1  0
  4 14  1  0
  4 15  1  0
  4  6  1  0
  4 13  1  0
  5 19  1  0
  6  7  1  0
  6 20  1  0
  7 22  1  0
  7 21  1  0
M  RAD  4   3   2   5   3   6   2   7   2
M  END
>  <reaction>  (17) 
rmg_rxn_343

>  <mol_properties>  (17) 
{"0": {"label": "*3", "atom_type": "Cd"}, "1": {"label": "*4", "atom_type": "Cd"}, "9": {"label": "*0", "atom_type": "Cs"}, "10": {"label": "*1", "atom_type": "Cs"}, "18": {"label": "*2", "atom_type": "H0"}}

>  <type>  (17) 
unop_13

>  <geom_source>  (17) 
AutoTST

$$$$

     RDKit          3D

 22 20  0  0  0  0  0  0  0  0999 V2000
    0.9267    1.0991    0.1168 C   0  0  0  0  0  0  0  0  0  0  0  0
    1.4498    0.8489   -1.0732 C   0  0  0  0  0  0  0  0  0  0  0  0
    2.3751    1.7587   -1.8150 C   0  0  0  0  0  0  0  0  0  0  0  0
    1.1463    2.0183    0.6497 H   0  0  0  0  0  0  0  0  0  0  0  0
    1.2004   -0.0859   -1.5686 H   0  0  0  0  0  0  0  0  0  0  0  0
    3.3287    1.2638   -2.0161 H   0  0  0  0  0  0  0  0  0  0  0  0
    2.5738    2.6711   -1.2514 H   0  0  0  0  0  0  0  0  0  0  0  0
    1.9526    2.0375   -2.7837 H   0  0  0  0  0  0  0  0  0  0  0  0
   -1.1618   -1.6061   -1.1265 C   0  0  0  0  0  0  0  0  0  0  0  0
   -1.1618   -1.6061    0.3961 C   0  0  0  0  0  0  0  0  0  0  0  0
   -1.1618   -0.2038    0.9935 C   0  0  0  0  0  3  0  0  0  0  0  0
   -1.1618   -0.2038    2.5162 C   0  0  0  0  0  0  0  0  0  0  0  0
   -0.2803   -1.0928   -1.5179 H   0  0  0  0  0  0  0  0  0  0  0  0
   -2.0434   -1.0928   -1.5179 H   0  0  0  0  0  0  0  0  0  0  0  0
   -1.1618   -2.6212   -1.5269 H   0  0  0  0  0  0  0  0  0  0  0  0
   -2.0369   -2.1520    0.7635 H   0  0  0  0  0  0  0  0  0  0  0  0
   -0.2868   -2.1520    0.7634 H   0  0  0  0  0  0  0  0  0  0  0  0
   -2.0369    0.3421    0.6262 H   0  0  0  0  0  0  0  0  0  0  0  0
   -0.1118    0.4513    0.5527 H   0  0  0  0  0  0  0  0  0  0  0  0
   -0.2803   -0.7171    2.9076 H   0  0  0  0  0  0  0  0  0  0  0  0
   -2.0434   -0.7171    2.9076 H   0  0  0  0  0  0  0  0  0  0  0  0
   -1.1618    0.8113    2.9166 H   0  0  0  0  0  0  0  0  0  0  0  0
  1  2  2  3
  1  4  1  0
  1 19  1  0
  2  3  1  0
  2  5  1  0
  3  6  1  0
  3  7  1  0
  3  8  1  0
  9 10  1  0
  9 13  1  0
  9 14  1  0
  9 15  1  0
 10 11  1  0
 10 16  1  0
 10 17  1  0
 11 12  1  0
 11 18  1  0
 12 20  1  0
 12 21  1  0
 12 22  1  0
M  RAD  1  11   2
M  END
>  <reaction>  (18) 
rmg_rxn_343

>  <mol_properties>  (18) 
{"0": {"label": "*3", "atom_type": "Cd"}, "1": {"label": "*4", "atom_type": "Cd"}, "9": {"label": "*0", "atom_type": "Cs"}, "10": {"label": "*1", "atom_type": "Cs"}, "18": {"label": "*2", "atom_type": "H0"}}

>  <type>  (18) 
unop_14

>  <geom_source>  (18) 
gaussian_log

$$$$
