
     RDKit          3D

  6  5  0  0  0  0  0  0  0  0999 V2000
   -0.4901    0.0045    0.0014 C   0  0  0  0  0  0  0  0  0  0  0  0
    0.9645   -0.0089   -0.0027 C   0  0  0  0  0  0  0  0  0  0  0  0
    2.1108   -0.0195   -0.0059 N   0  0  0  0  0  0  0  0  0  0  0  0
   -0.8700   -0.6407   -0.7900 H   0  0  0  0  0  0  0  0  0  0  0  0
   -0.8625   -0.3540    0.9604 H   0  0  0  0  0  0  0  0  0  0  0  0
   -0.8530    1.0185   -0.1631 H   0  0  0  0  0  0  0  0  0  0  0  0
  1  2  1  0
  1  4  1  0
  1  5  1  0
  1  6  1  0
  2  3  3  0
M  END
>  <reaction>  (1) 
rmg_rxn_165

>  <mol_properties>  (1) 
{"0": {"label": "donator", "atom_type": "Cs"}, "3": {"label": "d_hydrogen", "atom_type": "H0"}}

>  <type>  (1) 
r1h

$$$$

     RDKit          3D

 17 16  0  0  0  0  0  0  0  0999 V2000
    3.3619    0.3511   -1.0290 C   0  0  0  0  0  3  0  0  0  0  0  0
    2.1806    1.0643   -0.5073 C   0  0  0  0  0  0  0  0  0  0  0  0
    1.4028    0.1998    0.2757 O   0  0  0  0  0  0  0  0  0  0  0  0
    0.2433    0.8081    0.7885 C   0  0  0  0  0  0  0  0  0  0  0  0
   -0.5040   -0.1878    1.6510 C   0  0  0  0  0  0  0  0  0  0  0  0
    0.2852   -0.6298    2.8762 C   0  0  0  0  0  0  0  0  0  0  0  0
    4.1174    0.8902   -1.5820 H   0  0  0  0  0  0  0  0  0  0  0  0
    3.4399   -0.7198   -0.9141 H   0  0  0  0  0  0  0  0  0  0  0  0
    1.5724    1.4684   -1.3398 H   0  0  0  0  0  0  0  0  0  0  0  0
    2.4896    1.9442    0.0856 H   0  0  0  0  0  0  0  0  0  0  0  0
    0.5169    1.6937    1.3835 H   0  0  0  0  0  0  0  0  0  0  0  0
   -0.3954    1.1528   -0.0379 H   0  0  0  0  0  0  0  0  0  0  0  0
   -0.7611   -1.0545    1.0367 H   0  0  0  0  0  0  0  0  0  0  0  0
   -1.4466    0.2743    1.9571 H   0  0  0  0  0  0  0  0  0  0  0  0
    0.5263    0.2245    3.5136 H   0  0  0  0  0  0  0  0  0  0  0  0
    1.2220   -1.1033    2.5825 H   0  0  0  0  0  0  0  0  0  0  0  0
   -0.2849   -1.3427    3.4737 H   0  0  0  0  0  0  0  0  0  0  0  0
  1  2  1  0
  1  7  1  0
  1  8  1  0
  2  3  1  0
  2  9  1  0
  2 10  1  0
  3  4  1  0
  4  5  1  0
  4 11  1  0
  4 12  1  0
  5  6  1  0
  5 13  1  0
  5 14  1  0
  6 15  1  0
  6 16  1  0
  6 17  1  0
M  RAD  1   1   2
M  END
>  <reaction>  (2) 
rmg_rxn_165

>  <mol_properties>  (2) 
{"0": {"label": "acceptor", "atom_type": "Cs"}}

>  <type>  (2) 
r2

$$$$

     RDKit          3D

 18 17  0  0  0  0  0  0  0  0999 V2000
    2.2026   -0.7213   -0.2612 C   0  0  0  0  0  0  0  0  0  0  0  0
    1.5384    0.2638    0.6915 C   0  0  0  0  0  0  0  0  0  0  0  0
    2.2584    1.5946    0.7694 C   0  0  0  0  0  0  0  0  0  0  0  0
    2.2212    2.2185   -0.4893 O   0  0  0  0  0  0  0  0  0  0  0  0
    2.8988    3.4488   -0.5204 C   0  0  0  0  0  0  0  0  0  0  0  0
    2.7981    4.0296   -1.9118 C   0  0  0  0  0  0  0  0  0  0  0  0
    3.2294   -0.9309    0.0486 H   0  0  0  0  0  0  0  0  0  0  0  0
    2.2338   -0.3181   -1.2734 H   0  0  0  0  0  0  0  0  0  0  0  0
    1.6610   -1.6680   -0.2875 H   0  0  0  0  0  0  0  0  0  0  0  0
    1.4990   -0.1566    1.7002 H   0  0  0  0  0  0  0  0  0  0  0  0
    0.5055    0.4455    0.3835 H   0  0  0  0  0  0  0  0  0  0  0  0
    3.3038    1.4410    1.0808 H   0  0  0  0  0  0  0  0  0  0  0  0
    1.7844    2.2410    1.5226 H   0  0  0  0  0  0  0  0  0  0  0  0
    2.4596    4.1376    0.2164 H   0  0  0  0  0  0  0  0  0  0  0  0
    3.9524    3.3035   -0.2397 H   0  0  0  0  0  0  0  0  0  0  0  0
    1.7543    4.1869   -2.1856 H   0  0  0  0  0  0  0  0  0  0  0  0
    3.2472    3.3545   -2.6411 H   0  0  0  0  0  0  0  0  0  0  0  0
    3.3178    4.9878   -1.9600 H   0  0  0  0  0  0  0  0  0  0  0  0
  1  2  1  0
  1  7  1  0
  1  8  1  0
  1  9  1  0
  2  3  1  0
  2 10  1  0
  2 11  1  0
  3  4  1  0
  3 12  1  0
  3 13  1  0
  4  5  1  0
  5  6  1  0
  5 14  1  0
  5 15  1  0
  6 16  1  0
  6 17  1  0
  6 18  1  0
M  END
>  <reaction>  (3) 
rmg_rxn_165

>  <mol_properties>  (3) 
{"0": {"label": "a_hydrogen", "atom_type": "H0"}, "1": {"label": "acceptor", "atom_type": "Cs"}}

>  <type>  (3) 
r2h

$$$$

     RDKit          3D

 23 21  0  0  0  0  0  0  0  0999 V2000
    2.7973    2.0822    0.2526 C   0  0  0  0  0  0  0  0  0  0  0  0
    2.6214    1.9412   -1.1577 C   0  0  0  0  0  0  0  0  0  0  0  0
    2.4306    1.7876   -2.2822 N   0  0  0  0  0  0  0  0  0  0  0  0
    1.8772    1.3313    0.8283 H   0  0  0  0  0  0  0  0  0  0  0  0
    3.7395    1.6811    0.6149 H   0  0  0  0  0  0  0  0  0  0  0  0
    2.5951    3.0851    0.6173 H   0  0  0  0  0  0  0  0  0  0  0  0
    0.9021    0.5354    1.3647 C   0  0  0  0  0  3  0  0  0  0  0  0
    0.1984   -0.0457    0.1748 C   0  0  0  0  0  0  0  0  0  0  0  0
   -0.8334   -0.8866    0.6315 O   0  0  0  0  0  0  0  0  0  0  0  0
   -1.5606   -1.4832   -0.4191 C   0  0  0  0  0  0  0  0  0  0  0  0
   -2.6712   -2.3325    0.1629 C   0  0  0  0  0  0  0  0  0  0  0  0
   -3.6966   -1.5244    0.9468 C   0  0  0  0  0  0  0  0  0  0  0  0
    0.3108    1.2269    1.9600 H   0  0  0  0  0  0  0  0  0  0  0  0
    1.4603   -0.1775    1.9665 H   0  0  0  0  0  0  0  0  0  0  0  0
    0.9045   -0.6124   -0.4482 H   0  0  0  0  0  0  0  0  0  0  0  0
   -0.2136    0.7552   -0.4548 H   0  0  0  0  0  0  0  0  0  0  0  0
   -1.9806   -0.7023   -1.0711 H   0  0  0  0  0  0  0  0  0  0  0  0
   -0.8890   -2.0985   -1.0340 H   0  0  0  0  0  0  0  0  0  0  0  0
   -2.2251   -3.0972    0.8040 H   0  0  0  0  0  0  0  0  0  0  0  0
   -3.1582   -2.8573   -0.6636 H   0  0  0  0  0  0  0  0  0  0  0  0
   -4.1672   -0.7704    0.3110 H   0  0  0  0  0  0  0  0  0  0  0  0
   -3.2257   -1.0100    1.7846 H   0  0  0  0  0  0  0  0  0  0  0  0
   -4.4841   -2.1679    1.3415 H   0  0  0  0  0  0  0  0  0  0  0  0
  1  2  1  0
  1  4  1  0
  1  5  1  0
  1  6  1  0
  2  3  3  0
  7  8  1  0
  7 13  1  0
  7 14  1  0
  8  9  1  0
  8 15  1  0
  8 16  1  0
  9 10  1  0
 10 11  1  0
 10 17  1  0
 10 18  1  0
 11 12  1  0
 11 19  1  0
 11 20  1  0
 12 21  1  0
 12 22  1  0
 12 23  1  0
M  RAD  1   7   2
M  END
>  <reaction>  (4) 
rmg_rxn_165

>  <mol_properties>  (4) 
{"0": {"label": "*1", "atom_type": "Cs"}, "1": {"label": "*0", "atom_type": "Ct"}, "3": {"label": "*2", "atom_type": "H0"}, "6": {"label": "*3", "atom_type": "Cs"}, "7": {"label": "*4", "atom_type": "Cs"}}

>  <type>  (4) 
ts

$$$$

     RDKit          3D

 23 21  0  0  0  0  0  0  0  0999 V2000
    1.5826    2.2384   -1.6786 C   0  0  0  0  0  0  0  0  0  0  0  0
    1.5826    2.2384   -3.1332 C   0  0  0  0  0  0  0  0  0  0  0  0
    1.5826    2.2384   -4.2797 N   0  0  0  0  0  0  0  0  0  0  0  0
    0.6296    1.4625   -1.2325 H   0  0  0  0  0  0  0  0  0  0  0  0
    2.5397    1.8738   -1.3069 H   0  0  0  0  0  0  0  0  0  0  0  0
    1.4199    3.2494   -1.3069 H   0  0  0  0  0  0  0  0  0  0  0  0
   -0.3249    0.6855   -0.7857 C   0  0  0  0  0  3  0  0  0  0  0  0
    0.2560   -0.4246    0.0592 C   0  0  0  0  0  0  0  0  0  0  0  0
   -0.5850   -0.6461    1.1625 O   0  0  0  0  0  0  0  0  0  0  0  0
   -0.1286   -1.6670    2.0137 C   0  0  0  0  0  0  0  0  0  0  0  0
   -1.1176   -1.8563    3.1457 C   0  0  0  0  0  0  0  0  0  0  0  0
   -2.4895   -2.3168    2.6713 C   0  0  0  0  0  0  0  0  0  0  0  0
   -1.3194    0.4143   -1.1417 H   0  0  0  0  0  0  0  0  0  0  0  0
   -0.4061    1.6051   -0.2051 H   0  0  0  0  0  0  0  0  0  0  0  0
    1.2655   -0.1566    0.4048 H   0  0  0  0  0  0  0  0  0  0  0  0
    0.3506   -1.3479   -0.5312 H   0  0  0  0  0  0  0  0  0  0  0  0
   -0.0179   -2.6055    1.4476 H   0  0  0  0  0  0  0  0  0  0  0  0
    0.8628   -1.4073    2.4130 H   0  0  0  0  0  0  0  0  0  0  0  0
   -1.2061   -0.9130    3.6907 H   0  0  0  0  0  0  0  0  0  0  0  0
   -0.6957   -2.5863    3.8421 H   0  0  0  0  0  0  0  0  0  0  0  0
   -2.4194   -3.2719    2.1448 H   0  0  0  0  0  0  0  0  0  0  0  0
   -2.9260   -1.5888    1.9876 H   0  0  0  0  0  0  0  0  0  0  0  0
   -3.1723   -2.4475    3.5121 H   0  0  0  0  0  0  0  0  0  0  0  0
  1  2  1  0
  1  4  1  0
  1  5  1  0
  1  6  1  0
  2  3  3  0
  7  8  1  0
  7 13  1  0
  7 14  1  0
  8  9  1  0
  8 15  1  0
  8 16  1  0
  9 10  1  0
 10 11  1  0
 10 17  1  0
 10 18  1  0
 11 12  1  0
 11 19  1  0
 11 20  1  0
 12 21  1  0
 12 22  1  0
 12 23  1  0
M  RAD  1   7   2
M  END
>  <reaction>  (5) 
rmg_rxn_165

>  <mol_properties>  (5) 
{"0": {"label": "*1", "atom_type": "Cs"}, "1": {"label": "*0", "atom_type": "Ct"}, "3": {"label": "*2", "atom_type": "H0"}, "6": {"label": "*3", "atom_type": "Cs"}, "7": {"label": "*4", "atom_type": "Cs"}}

>  <type>  (5) 
unop_1

>  <geom_source>  (5) 
Heuristics

$$$$

     RDKit          3D

 23 21  0  0  0  0  0  0  0  0999 V2000
    2.2036    2.7195    0.1059 C   0  0  0  0  0  0  0  0  0  0  0  0
    2.2036    2.7195   -1.3488 C   0  0  0  0  0  0  0  0  0  0  0  0
    2.2036    2.7195   -2.4952 N   0  0  0  0  0  0  0  0  0  0  0  0
    1.2505    1.9437    0.5520 H   0  0  0  0  0  0  0  0  0  0  0  0
    3.1606    2.3550    0.4776 H   0  0  0  0  0  0  0  0  0  0  0  0
    2.0408    3.7306    0.4776 H   0  0  0  0  0  0  0  0  0  0  0  0
    0.2961    1.1667    0.9987 C   0  0  0  0  0  3  0  0  0  0  0  0
    0.0369    0.0418    0.0235 C   0  0  0  0  0  0  0  0  0  0  0  0
   -0.6614   -0.9828    0.6837 O   0  0  0  0  0  0  0  0  0  0  0  0
   -0.9524   -2.0806   -0.1441 C   0  0  0  0  0  0  0  0  0  0  0  0
   -1.7368   -3.1096    0.6441 C   0  0  0  0  0  0  0  0  0  0  0  0
   -3.0908   -2.5971    1.1166 C   0  0  0  0  0  0  0  0  0  0  0  0
   -0.6443    1.5636    1.3829 H   0  0  0  0  0  0  0  0  0  0  0  0
    0.8899    0.8122    1.8419 H   0  0  0  0  0  0  0  0  0  0  0  0
    0.9855   -0.3473   -0.3754 H   0  0  0  0  0  0  0  0  0  0  0  0
   -0.5502    0.4035   -0.8335 H   0  0  0  0  0  0  0  0  0  0  0  0
   -1.5363   -1.7476   -1.0168 H   0  0  0  0  0  0  0  0  0  0  0  0
   -0.0192   -2.5216   -0.5241 H   0  0  0  0  0  0  0  0  0  0  0  0
   -1.1347   -3.4237    1.5006 H   0  0  0  0  0  0  0  0  0  0  0  0
   -1.8685   -3.9903    0.0093 H   0  0  0  0  0  0  0  0  0  0  0  0
   -3.7132   -2.3016    0.2682 H   0  0  0  0  0  0  0  0  0  0  0  0
   -2.9704   -1.7275    1.7626 H   0  0  0  0  0  0  0  0  0  0  0  0
   -3.6284   -3.3650    1.6746 H   0  0  0  0  0  0  0  0  0  0  0  0
  1  2  1  0
  1  4  1  0
  1  5  1  0
  1  6  1  0
  2  3  3  0
  7  8  1  0
  7 13  1  0
  7 14  1  0
  8  9  1  0
  8 15  1  0
  8 16  1  0
  9 10  1  0
 10 11  1  0
 10 17  1  0
 10 18  1  0
 11 12  1  0
 11 19  1  0
 11 20  1  0
 12 21  1  0
 12 22  1  0
 12 23  1  0
M  RAD  1   7   2
M  END
>  <reaction>  (6) 
rmg_rxn_165

>  <mol_properties>  (6) 
{"0": {"label": "*1", "atom_type": "Cs"}, "1": {"label": "*0", "atom_type": "Ct"}, "3": {"label": "*2", "atom_type": "H0"}, "6": {"label": "*3", "atom_type": "Cs"}, "7": {"label": "*4", "atom_type": "Cs"}}

>  <type>  (6) 
unop_2

>  <geom_source>  (6) 
Heuristics

$$$$

     RDKit          3D

 23 21  0  0  0  0  0  0  0  0999 V2000
    1.9211    1.8900   -1.8062 C   0  0  0  0  0  0  0  0  0  0  0  0
    1.9211    1.8900   -3.2608 C   0  0  0  0  0  0  0  0  0  0  0  0
    1.9211    1.8900   -4.4073 N   0  0  0  0  0  0  0  0  0  0  0  0
    0.9681    1.1141   -1.3601 H   0  0  0  0  0  0  0  0  0  0  0  0
    2.8781    1.5254   -1.4345 H   0  0  0  0  0  0  0  0  0  0  0  0
    1.7583    2.9010   -1.4345 H   0  0  0  0  0  0  0  0  0  0  0  0
    0.0136    0.3371   -0.9133 C   0  0  0  0  0  3  0  0  0  0  0  0
    0.4042   -0.2588    0.4193 C   0  0  0  0  0  0  0  0  0  0  0  0
   -0.7596   -0.5166    1.1627 O   0  0  0  0  0  0  0  0  0  0  0  0
   -0.5006   -1.0764    2.4254 C   0  0  0  0  0  0  0  0  0  0  0  0
   -1.8127   -1.3529    3.1307 C   0  0  0  0  0  0  0  0  0  0  0  0
   -2.6753   -2.3797    2.4091 C   0  0  0  0  0  0  0  0  0  0  0  0
   -0.6214   -0.3535   -1.4694 H   0  0  0  0  0  0  0  0  0  0  0  0
   -0.5348    1.2687   -0.7693 H   0  0  0  0  0  0  0  0  0  0  0  0
    1.0575    0.4320    0.9727 H   0  0  0  0  0  0  0  0  0  0  0  0
    0.9694   -1.1911    0.2727 H   0  0  0  0  0  0  0  0  0  0  0  0
    0.0712   -2.0109    2.3110 H   0  0  0  0  0  0  0  0  0  0  0  0
    0.1151   -0.3873    3.0220 H   0  0  0  0  0  0  0  0  0  0  0  0
   -2.3572   -0.4106    3.2328 H   0  0  0  0  0  0  0  0  0  0  0  0
   -1.5840   -1.6981    4.1428 H   0  0  0  0  0  0  0  0  0  0  0  0
   -2.1522   -3.3351    2.3209 H   0  0  0  0  0  0  0  0  0  0  0  0
   -2.9218   -2.0387    1.4036 H   0  0  0  0  0  0  0  0  0  0  0  0
   -3.6076   -2.5571    2.9474 H   0  0  0  0  0  0  0  0  0  0  0  0
  1  2  1  0
  1  4  1  0
  1  5  1  0
  1  6  1  0
  2  3  3  0
  7  8  1  0
  7 13  1  0
  7 14  1  0
  8  9  1  0
  8 15  1  0
  8 16  1  0
  9 10  1  0
 10 11  1  0
 10 17  1  0
 10 18  1  0
 11 12  1  0
 11 19  1  0
 11 20  1  0
 12 21  1  0
 12 22  1  0
 12 23  1  0
M  RAD  1   7   2
M  END
>  <reaction>  (7) 
rmg_rxn_165

>  <mol_properties>  (7) 
{"0": {"label": "*1", "atom_type": "Cs"}, "1": {"label": "*0", "atom_type": "Ct"}, "3": {"label": "*2", "atom_type": "H0"}, "6": {"label": "*3", "atom_type": "Cs"}, "7": {"label": "*4", "atom_type": "Cs"}}

>  <type>  (7) 
unop_3

>  <geom_source>  (7) 
Heuristics

$$$$

     RDKit          3D

 23 21  0  0  0  0  0  0  0  0999 V2000
    3.1389    0.7633   -0.6444 C   0  0  0  0  0  0  0  0  0  0  0  0
    3.1389    0.7633   -2.0991 C   0  0  0  0  0  0  0  0  0  0  0  0
    3.1389    0.7633   -3.2455 N   0  0  0  0  0  0  0  0  0  0  0  0
    2.1858   -0.0125   -0.1983 H   0  0  0  0  0  0  0  0  0  0  0  0
    4.0959    0.3988   -0.2727 H   0  0  0  0  0  0  0  0  0  0  0  0
    2.9761    1.7744   -0.2727 H   0  0  0  0  0  0  0  0  0  0  0  0
    1.2314   -0.7896    0.2485 C   0  0  0  0  0  3  0  0  0  0  0  0
   -0.1129   -0.3009   -0.2391 C   0  0  0  0  0  0  0  0  0  0  0  0
   -1.0864   -0.6030    0.7277 O   0  0  0  0  0  0  0  0  0  0  0  0
   -2.3784   -0.1852    0.3657 C   0  0  0  0  0  0  0  0  0  0  0  0
   -3.3454   -0.5186    1.4833 C   0  0  0  0  0  0  0  0  0  0  0  0
   -3.0377    0.2174    2.7806 C   0  0  0  0  0  0  0  0  0  0  0  0
    1.4966   -0.3039    1.1882 H   0  0  0  0  0  0  0  0  0  0  0  0
    1.2097   -1.8675    0.4124 H   0  0  0  0  0  0  0  0  0  0  0  0
   -0.3724   -0.7797   -1.1950 H   0  0  0  0  0  0  0  0  0  0  0  0
   -0.0860    0.7842   -0.4175 H   0  0  0  0  0  0  0  0  0  0  0  0
   -2.3817    0.8995    0.1741 H   0  0  0  0  0  0  0  0  0  0  0  0
   -2.6862   -0.6826   -0.5658 H   0  0  0  0  0  0  0  0  0  0  0  0
   -3.3239   -1.5986    1.6504 H   0  0  0  0  0  0  0  0  0  0  0  0
   -4.3538   -0.2710    1.1403 H   0  0  0  0  0  0  0  0  0  0  0  0
   -3.0793    1.2996    2.6339 H   0  0  0  0  0  0  0  0  0  0  0  0
   -2.0396   -0.0338    3.1396 H   0  0  0  0  0  0  0  0  0  0  0  0
   -3.7560   -0.0426    3.5594 H   0  0  0  0  0  0  0  0  0  0  0  0
  1  2  1  0
  1  4  1  0
  1  5  1  0
  1  6  1  0
  2  3  3  0
  7  8  1  0
  7 13  1  0
  7 14  1  0
  8  9  1  0
  8 15  1  0
  8 16  1  0
  9 10  1  0
 10 11  1  0
 10 17  1  0
 10 18  1  0
 11 12  1  0
 11 19  1  0
 11 20  1  0
 12 21  1  0
 12 22  1  0
 12 23  1  0
M  RAD  1   7   2
M  END
>  <reaction>  (8) 
rmg_rxn_165

>  <mol_properties>  (8) 
{"0": {"label": "*1", "atom_type": "Cs"}, "1": {"label": "*0", "atom_type": "Ct"}, "3": {"label": "*2", "atom_type": "H0"}, "6": {"label": "*3", "atom_type": "Cs"}, "7": {"label": "*4", "atom_type": "Cs"}}

>  <type>  (8) 
unop_4

>  <geom_source>  (8) 
Heuristics

$$$$

     RDKit          3D

 23 21  0  0  0  0  0  0  0  0999 V2000
    2.0301    1.8557   -1.7775 C   0  0  0  0  0  0  0  0  0  0  0  0
    2.0301    1.8557   -3.2321 C   0  0  0  0  0  0  0  0  0  0  0  0
    2.0301    1.8557   -4.3786 N   0  0  0  0  0  0  0  0  0  0  0  0
    1.0770    1.0798   -1.3314 H   0  0  0  0  0  0  0  0  0  0  0  0
    2.9871    1.4911   -1.4058 H   0  0  0  0  0  0  0  0  0  0  0  0
    1.8673    2.8667   -1.4058 H   0  0  0  0  0  0  0  0  0  0  0  0
    0.1226    0.3028   -0.8846 C   0  0  0  0  0  3  0  0  0  0  0  0
    0.1160    0.2974    0.6265 C   0  0  0  0  0  0  0  0  0  0  0  0
   -0.9169   -0.5424    1.0754 O   0  0  0  0  0  0  0  0  0  0  0  0
   -1.0054   -0.6156    2.4760 C   0  0  0  0  0  0  0  0  0  0  0  0
   -2.1171   -1.5706    2.8596 C   0  0  0  0  0  0  0  0  0  0  0  0
   -1.8628   -3.0004    2.4013 C   0  0  0  0  0  0  0  0  0  0  0  0
    0.2865   -0.7043   -1.2696 H   0  0  0  0  0  0  0  0  0  0  0  0
   -0.8304    0.6675   -1.2696 H   0  0  0  0  0  0  0  0  0  0  0  0
   -0.0337    1.3162    1.0139 H   0  0  0  0  0  0  0  0  0  0  0  0
    1.0824   -0.0573    1.0140 H   0  0  0  0  0  0  0  0  0  0  0  0
   -0.0475   -0.9631    2.8944 H   0  0  0  0  0  0  0  0  0  0  0  0
   -1.2005    0.3837    2.8923 H   0  0  0  0  0  0  0  0  0  0  0  0
   -3.0540   -1.2013    2.4346 H   0  0  0  0  0  0  0  0  0  0  0  0
   -2.2280   -1.5381    3.9471 H   0  0  0  0  0  0  0  0  0  0  0  0
   -0.9405   -3.3914    2.8382 H   0  0  0  0  0  0  0  0  0  0  0  0
   -1.7654   -3.0466    1.3167 H   0  0  0  0  0  0  0  0  0  0  0  0
   -2.6797   -3.6594    2.6991 H   0  0  0  0  0  0  0  0  0  0  0  0
  1  2  1  0
  1  4  1  0
  1  5  1  0
  1  6  1  0
  2  3  3  0
  7  8  1  0
  7 13  1  0
  7 14  1  0
  8  9  1  0
  8 15  1  0
  8 16  1  0
  9 10  1  0
 10 11  1  0
 10 17  1  0
 10 18  1  0
 11 12  1  0
 11 19  1  0
 11 20  1  0
 12 21  1  0
 12 22  1  0
 12 23  1  0
M  RAD  1   7   2
M  END
>  <reaction>  (9) 
rmg_rxn_165

>  <mol_properties>  (9) 
{"0": {"label": "*1", "atom_type": "Cs"}, "1": {"label": "*0", "atom_type": "Ct"}, "3": {"label": "*2", "atom_type": "H0"}, "6": {"label": "*3", "atom_type": "Cs"}, "7": {"label": "*4", "atom_type": "Cs"}}

>  <type>  (9) 
unop_5

>  <geom_source>  (9) 
Heuristics

$$$$

     RDKit          3D

 23 21  0  0  0  0  0  0  0  0999 V2000
    2.7665    0.6557   -1.3614 C   0  0  0  0  0  0  0  0  0  0  0  0
    2.7665    0.6557   -2.8161 C   0  0  0  0  0  0  0  0  0  0  0  0
    2.7665    0.6557   -3.9625 N   0  0  0  0  0  0  0  0  0  0  0  0
    1.8135   -0.1202   -0.9154 H   0  0  0  0  0  0  0  0  0  0  0  0
    3.7235    0.2911   -0.9898 H   0  0  0  0  0  0  0  0  0  0  0  0
    2.6037    1.6667   -0.9897 H   0  0  0  0  0  0  0  0  0  0  0  0
    0.8590   -0.8972   -0.4686 C   0  0  0  0  0  3  0  0  0  0  0  0
   -0.4176   -0.1086   -0.2899 C   0  0  0  0  0  0  0  0  0  0  0  0
   -1.0607   -0.5407    0.8820 O   0  0  0  0  0  0  0  0  0  0  0  0
   -2.2648    0.1372    1.1381 C   0  0  0  0  0  0  0  0  0  0  0  0
   -2.8596   -0.3690    2.4362 C   0  0  0  0  0  0  0  0  0  0  0  0
   -1.9796   -0.0894    3.6472 C   0  0  0  0  0  0  0  0  0  0  0  0
    1.5242   -0.7454    0.3822 H   0  0  0  0  0  0  0  0  0  0  0  0
    0.6418   -1.9628   -0.5496 H   0  0  0  0  0  0  0  0  0  0  0  0
   -1.0812   -0.2500   -1.1559 H   0  0  0  0  0  0  0  0  0  0  0  0
   -0.1987    0.9673   -0.2222 H   0  0  0  0  0  0  0  0  0  0  0  0
   -2.0778    1.2207    1.2053 H   0  0  0  0  0  0  0  0  0  0  0  0
   -2.9689   -0.0222    0.3083 H   0  0  0  0  0  0  0  0  0  0  0  0
   -3.0368   -1.4435    2.3411 H   0  0  0  0  0  0  0  0  0  0  0  0
   -3.8376    0.1032    2.5646 H   0  0  0  0  0  0  0  0  0  0  0  0
   -1.8136    0.9840    3.7687 H   0  0  0  0  0  0  0  0  0  0  0  0
   -1.0068   -0.5683    3.5364 H   0  0  0  0  0  0  0  0  0  0  0  0
   -2.4413   -0.4623    4.5627 H   0  0  0  0  0  0  0  0  0  0  0  0
  1  2  1  0
  1  4  1  0
  1  5  1  0
  1  6  1  0
  2  3  3  0
  7  8  1  0
  7 13  1  0
  7 14  1  0
  8  9  1  0
  8 15  1  0
  8 16  1  0
  9 10  1  0
 10 11  1  0
 10 17  1  0
 10 18  1  0
 11 12  1  0
 11 19  1  0
 11 20  1  0
 12 21  1  0
 12 22  1  0
 12 23  1  0
M  RAD  1   7   2
M  END
>  <reaction>  (10) 
rmg_rxn_165

>  <mol_properties>  (10) 
{"0": {"label": "*1", "atom_type": "Cs"}, "1": {"label": "*0", "atom_type": "Ct"}, "3": {"label": "*2", "atom_type": "H0"}, "6": {"label": "*3", "atom_type": "Cs"}, "7": {"label": "*4", "atom_type": "Cs"}}

>  <type>  (10) 
unop_6

>  <geom_source>  (10) 
Heuristics

$$$$

     RDKit          3D

 23 21  0  0  0  0  0  0  0  0999 V2000
    2.2723    0.9795   -1.8453 C   0  0  0  0  0  0  0  0  0  0  0  0
    2.2723    0.9795   -3.2999 C   0  0  0  0  0  0  0  0  0  0  0  0
    2.2723    0.9795   -4.4464 N   0  0  0  0  0  0  0  0  0  0  0  0
    1.3193    0.2036   -1.3992 H   0  0  0  0  0  0  0  0  0  0  0  0
    3.2293    0.6149   -1.4736 H   0  0  0  0  0  0  0  0  0  0  0  0
    2.1095    1.9905   -1.4736 H   0  0  0  0  0  0  0  0  0  0  0  0
    0.3648   -0.5734   -0.9524 C   0  0  0  0  0  3  0  0  0  0  0  0
   -0.6044    0.2206   -0.1075 C   0  0  0  0  0  0  0  0  0  0  0  0
   -0.9931   -0.5585    0.9949 O   0  0  0  0  0  0  0  0  0  0  0  0
   -1.8988    0.0961    1.8471 C   0  0  0  0  0  0  0  0  0  0  0  0
   -2.2256   -0.8053    3.0201 C   0  0  0  0  0  0  0  0  0  0  0  0
   -1.0154   -1.1183    3.8899 C   0  0  0  0  0  0  0  0  0  0  0  0
    1.2489   -0.8394   -0.3718 H   0  0  0  0  0  0  0  0  0  0  0  0
   -0.1024   -1.4923   -1.3083 H   0  0  0  0  0  0  0  0  0  0  0  0
   -1.4886    0.5019   -0.6986 H   0  0  0  0  0  0  0  0  0  0  0  0
   -0.1368    1.1539    0.2394 H   0  0  0  0  0  0  0  0  0  0  0  0
   -1.4596    1.0401    2.2068 H   0  0  0  0  0  0  0  0  0  0  0  0
   -2.8155    0.3513    1.2954 H   0  0  0  0  0  0  0  0  0  0  0  0
   -2.6610   -1.7313    2.6356 H   0  0  0  0  0  0  0  0  0  0  0  0
   -3.0002   -0.3144    3.6157 H   0  0  0  0  0  0  0  0  0  0  0  0
   -0.5837   -0.2024    4.3011 H   0  0  0  0  0  0  0  0  0  0  0  0
   -0.2424   -1.6216    3.3092 H   0  0  0  0  0  0  0  0  0  0  0  0
   -1.2890   -1.7638    4.7258 H   0  0  0  0  0  0  0  0  0  0  0  0
  1  2  1  0
  1  4  1  0
  1  5  1  0
  1  6  1  0
  2  3  3  0
  7  8  1  0
  7 13  1  0
  7 14  1  0
  8  9  1  0
  8 15  1  0
  8 16  1  0
  9 10  1  0
 10 11  1  0
 10 17  1  0
 10 18  1  0
 11 12  1  0
 11 19  1  0
 11 20  1  0
 12 21  1  0
 12 22  1  0
 12 23  1  0
M  RAD  1   7   2
M  END
>  <reaction>  (11) 
rmg_rxn_165

>  <mol_properties>  (11) 
{"0": {"label": "*1", "atom_type": "Cs"}, "1": {"label": "*0", "atom_type": "Ct"}, "3": {"label": "*2", "atom_type": "H0"}, "6": {"label": "*3", "atom_type": "Cs"}, "7": {"label": "*4", "atom_type": "Cs"}}

>  <type>  (11) 
unop_7

>  <geom_source>  (11) 
Heuristics

$$$$

     RDKit          3D

 23 21  0  0  0  0  0  0  0  0999 V2000
    1.4473    2.6859   -1.1955 C   0  0  0  0  0  0  0  0  0  0  0  0
    1.4473    2.6859   -2.6502 C   0  0  0  0  0  0  0  0  0  0  0  0
    1.4473    2.6859   -3.7966 N   0  0  0  0  0  0  0  0  0  0  0  0
    0.4943    1.9100   -0.7494 H   0  0  0  0  0  0  0  0  0  0  0  0
    2.4043    2.3213   -0.8238 H   0  0  0  0  0  0  0  0  0  0  0  0
    1.2845    3.6969   -0.8238 H   0  0  0  0  0  0  0  0  0  0  0  0
   -0.4602    1.1330   -0.3027 C   0  0  0  0  0  3  0  0  0  0  0  0
    0.0530   -0.2770   -0.1240 C   0  0  0  0  0  0  0  0  0  0  0  0
   -0.4994   -0.8186    1.0487 O   0  0  0  0  0  0  0  0  0  0  0  0
   -0.0811   -2.1357    1.3039 C   0  0  0  0  0  0  0  0  0  0  0  0
   -0.7576   -2.6426    2.5612 C   0  0  0  0  0  0  0  0  0  0  0  0
   -2.2731   -2.7233    2.4346 C   0  0  0  0  0  0  0  0  0  0  0  0
   -1.5478    1.1364   -0.3839 H   0  0  0  0  0  0  0  0  0  0  0  0
   -0.1768    1.7535    0.5482 H   0  0  0  0  0  0  0  0  0  0  0  0
    1.1512   -0.2810   -0.0580 H   0  0  0  0  0  0  0  0  0  0  0  0
   -0.2214   -0.8986   -0.9891 H   0  0  0  0  0  0  0  0  0  0  0  0
   -0.3375   -2.7825    0.4498 H   0  0  0  0  0  0  0  0  0  0  0  0
    1.0122   -2.1662    1.4204 H   0  0  0  0  0  0  0  0  0  0  0  0
   -0.4848   -1.9856    3.3911 H   0  0  0  0  0  0  0  0  0  0  0  0
   -0.3460   -3.6296    2.7898 H   0  0  0  0  0  0  0  0  0  0  0  0
   -2.5610   -3.3963    1.6230 H   0  0  0  0  0  0  0  0  0  0  0  0
   -2.6955   -1.7414    2.2212 H   0  0  0  0  0  0  0  0  0  0  0  0
   -2.7247   -3.0965    3.3549 H   0  0  0  0  0  0  0  0  0  0  0  0
  1  2  1  0
  1  4  1  0
  1  5  1  0
  1  6  1  0
  2  3  3  0
  7  8  1  0
  7 13  1  0
  7 14  1  0
  8  9  1  0
  8 15  1  0
  8 16  1  0
  9 10  1  0
 10 11  1  0
 10 17  1  0
 10 18  1  0
 11 12  1  0
 11 19  1  0
 11 20  1  0
 12 21  1  0
 12 22  1  0
 12 23  1  0
M  RAD  1   7   2
M  END
>  <reaction>  (12) 
rmg_rxn_165

>  <mol_properties>  (12) 
{"0": {"label": "*1", "atom_type": "Cs"}, "1": {"label": "*0", "atom_type": "Ct"}, "3": {"label": "*2", "atom_type": "H0"}, "6": {"label": "*3", "atom_type": "Cs"}, "7": {"label": "*4", "atom_type": "Cs"}}

>  <type>  (12) 
unop_8

>  <geom_source>  (12) 
Heuristics

$$$$

     RDKit          3D

 23 21  0  0  0  0  0  0  0  0999 V2000
    3.1855    1.3115    0.0242 C   0  0  0  0  0  0  0  0  0  0  0  0
    3.1855    1.3115   -1.4305 C   0  0  0  0  0  0  0  0  0  0  0  0
    3.1855    1.3115   -2.5769 N   0  0  0  0  0  0  0  0  0  0  0  0
    2.2325    0.5357    0.4703 H   0  0  0  0  0  0  0  0  0  0  0  0
    4.1426    0.9470    0.3959 H   0  0  0  0  0  0  0  0  0  0  0  0
    3.0228    2.3226    0.3959 H   0  0  0  0  0  0  0  0  0  0  0  0
    1.2780   -0.2414    0.9170 C   0  0  0  0  0  3  0  0  0  0  0  0
    0.1240   -0.2669   -0.0582 C   0  0  0  0  0  0  0  0  0  0  0  0
   -1.0206   -0.7444    0.6016 O   0  0  0  0  0  0  0  0  0  0  0  0
   -2.1550   -0.8049   -0.2257 C   0  0  0  0  0  0  0  0  0  0  0  0
   -3.3404   -1.2918    0.5825 C   0  0  0  0  0  0  0  0  0  0  0  0
   -3.7224   -0.3465    1.7138 C   0  0  0  0  0  0  0  0  0  0  0  0
    1.0514    0.4122    1.7602 H   0  0  0  0  0  0  0  0  0  0  0  0
    1.4758   -1.2426    1.3013 H   0  0  0  0  0  0  0  0  0  0  0  0
    0.3599   -0.9140   -0.9161 H   0  0  0  0  0  0  0  0  0  0  0  0
   -0.0658    0.7410   -0.4558 H   0  0  0  0  0  0  0  0  0  0  0  0
   -2.3670    0.1915   -0.6447 H   0  0  0  0  0  0  0  0  0  0  0  0
   -1.9665   -1.4820   -1.0718 H   0  0  0  0  0  0  0  0  0  0  0  0
   -3.1045   -2.2809    0.9835 H   0  0  0  0  0  0  0  0  0  0  0  0
   -4.1838   -1.4201   -0.1016 H   0  0  0  0  0  0  0  0  0  0  0  0
   -3.9843    0.6407    1.3249 H   0  0  0  0  0  0  0  0  0  0  0  0
   -2.8932   -0.2230    2.4103 H   0  0  0  0  0  0  0  0  0  0  0  0
   -4.5812   -0.7259    2.2694 H   0  0  0  0  0  0  0  0  0  0  0  0
  1  2  1  0
  1  4  1  0
  1  5  1  0
  1  6  1  0
  2  3  3  0
  7  8  1  0
  7 13  1  0
  7 14  1  0
  8  9  1  0
  8 15  1  0
  8 16  1  0
  9 10  1  0
 10 11  1  0
 10 17  1  0
 10 18  1  0
 11 12  1  0
 11 19  1  0
 11 20  1  0
 12 21  1  0
 12 22  1  0
 12 23  1  0
M  RAD  1   7   2
M  END
>  <reaction>  (13) 
rmg_rxn_165

>  <mol_properties>  (13) 
{"0": {"label": "*1", "atom_type": "Cs"}, "1": {"label": "*0", "atom_type": "Ct"}, "3": {"label": "*2", "atom_type": "H0"}, "6": {"label": "*3", "atom_type": "Cs"}, "7": {"label": "*4", "atom_type": "Cs"}}

>  <type>  (13) 
unop_9

>  <geom_source>  (13) 
Heuristics

$$$$

     RDKit          3D

 23 21  0  0  0  0  0  0  0  0999 V2000
    1.6671    2.9123   -0.5063 C   0  0  0  0  0  0  0  0  0  0  0  0
    1.6671    2.9123   -1.9609 C   0  0  0  0  0  0  0  0  0  0  0  0
    1.6671    2.9123   -3.1074 N   0  0  0  0  0  0  0  0  0  0  0  0
    0.7141    2.1365   -0.0602 H   0  0  0  0  0  0  0  0  0  0  0  0
    2.6241    2.5478   -0.1346 H   0  0  0  0  0  0  0  0  0  0  0  0
    1.5043    3.9234   -0.1346 H   0  0  0  0  0  0  0  0  0  0  0  0
   -0.2404    1.3595    0.3866 C   0  0  0  0  0  3  0  0  0  0  0  0
   -0.0347   -0.0560   -0.1010 C   0  0  0  0  0  0  0  0  0  0  0  0
   -0.5265   -0.9479    0.8665 O   0  0  0  0  0  0  0  0  0  0  0  0
   -0.3811   -2.2978    0.5037 C   0  0  0  0  0  0  0  0  0  0  0  0
   -0.9733   -3.1755    1.5873 C   0  0  0  0  0  0  0  0  0  0  0  0
   -2.4713   -2.9714    1.7709 C   0  0  0  0  0  0  0  0  0  0  0  0
   -1.3004    1.5569    0.5504 H   0  0  0  0  0  0  0  0  0  0  0  0
    0.2888    1.5207    1.3264 H   0  0  0  0  0  0  0  0  0  0  0  0
    1.0333   -0.2492   -0.2809 H   0  0  0  0  0  0  0  0  0  0  0  0
   -0.5573   -0.2135   -1.0560 H   0  0  0  0  0  0  0  0  0  0  0  0
   -0.8905   -2.4852   -0.4548 H   0  0  0  0  0  0  0  0  0  0  0  0
    0.6832   -2.5351    0.3601 H   0  0  0  0  0  0  0  0  0  0  0  0
   -0.4491   -2.9713    2.5245 H   0  0  0  0  0  0  0  0  0  0  0  0
   -0.7645   -4.2171    1.3279 H   0  0  0  0  0  0  0  0  0  0  0  0
   -3.0111   -3.1954    0.8474 H   0  0  0  0  0  0  0  0  0  0  0  0
   -2.6896   -1.9392    2.0446 H   0  0  0  0  0  0  0  0  0  0  0  0
   -2.8632   -3.6223    2.5539 H   0  0  0  0  0  0  0  0  0  0  0  0
  1  2  1  0
  1  4  1  0
  1  5  1  0
  1  6  1  0
  2  3  3  0
  7  8  1  0
  7 13  1  0
  7 14  1  0
  8  9  1  0
  8 15  1  0
  8 16  1  0
  9 10  1  0
 10 11  1  0
 10 17  1  0
 10 18  1  0
 11 12  1  0
 11 19  1  0
 11 20  1  0
 12 21  1  0
 12 22  1  0
 12 23  1  0
M  RAD  1   7   2
M  END
>  <reaction>  (14) 
rmg_rxn_165

>  <mol_properties>  (14) 
{"0": {"label": "*1", "atom_type": "Cs"}, "1": {"label": "*0", "atom_type": "Ct"}, "3": {"label": "*2", "atom_type": "H0"}, "6": {"label": "*3", "atom_type": "Cs"}, "7": {"label": "*4", "atom_type": "Cs"}}

>  <type>  (14) 
unop_10

>  <geom_source>  (14) 
Heuristics

$$$$

     RDKit          3D

 23 21  0  0  0  0  0  0  0  0999 V2000
    1.9545    1.5413   -1.9308 C   0  0  0  0  0  0  0  0  0  0  0  0
    1.9545    1.5413   -3.3855 C   0  0  0  0  0  0  0  0  0  0  0  0
    1.9545    1.5413   -4.5319 N   0  0  0  0  0  0  0  0  0  0  0  0
    1.0014    0.7654   -1.4847 H   0  0  0  0  0  0  0  0  0  0  0  0
    2.9115    1.1767   -1.5591 H   0  0  0  0  0  0  0  0  0  0  0  0
    1.7917    2.5523   -1.5591 H   0  0  0  0  0  0  0  0  0  0  0  0
    0.0469   -0.0116   -1.0379 C   0  0  0  0  0  3  0  0  0  0  0  0
   -0.4574    0.4918    0.2947 C   0  0  0  0  0  0  0  0  0  0  0  0
   -0.9473   -0.5954    1.0374 O   0  0  0  0  0  0  0  0  0  0  0  0
   -1.4412   -0.2284    2.3009 C   0  0  0  0  0  0  0  0  0  0  0  0
   -1.9078   -1.4678    3.0368 C   0  0  0  0  0  0  0  0  0  0  0  0
   -0.7831   -2.4548    3.3200 C   0  0  0  0  0  0  0  0  0  0  0  0
    0.8480   -0.7375   -0.8939 H   0  0  0  0  0  0  0  0  0  0  0  0
   -0.7581   -0.4934   -1.5939 H   0  0  0  0  0  0  0  0  0  0  0  0
   -1.2546    1.2356    0.1479 H   0  0  0  0  0  0  0  0  0  0  0  0
    0.3519    0.9899    0.8488 H   0  0  0  0  0  0  0  0  0  0  0  0
   -0.6528    0.2797    2.8784 H   0  0  0  0  0  0  0  0  0  0  0  0
   -2.2725    0.4827    2.1866 H   0  0  0  0  0  0  0  0  0  0  0  0
   -2.6896   -1.9497    2.4441 H   0  0  0  0  0  0  0  0  0  0  0  0
   -2.3723   -1.1476    3.9736 H   0  0  0  0  0  0  0  0  0  0  0  0
   -0.0047   -1.9931    3.9327 H   0  0  0  0  0  0  0  0  0  0  0  0
   -0.3225   -2.7921    2.3915 H   0  0  0  0  0  0  0  0  0  0  0  0
   -1.1544   -3.3303    3.8546 H   0  0  0  0  0  0  0  0  0  0  0  0
  1  2  1  0
  1  4  1  0
  1  5  1  0
  1  6  1  0
  2  3  3  0
  7  8  1  0
  7 13  1  0
  7 14  1  0
  8  9  1  0
  8 15  1  0
  8 16  1  0
  9 10  1  0
 10 11  1  0
 10 17  1  0
 10 18  1  0
 11 12  1  0
 11 19  1  0
 11 20  1  0
 12 21  1  0
 12 22  1  0
 12 23  1  0
M  RAD  1   7   2
M  END
>  <reaction>  (15) 
rmg_rxn_165

>  <mol_properties>  (15) 
{"0": {"label": "*1", "atom_type": "Cs"}, "1": {"label": "*0", "atom_type": "Ct"}, "3": {"label": "*2", "atom_type": "H0"}, "6": {"label": "*3", "atom_type": "Cs"}, "7": {"label": "*4", "atom_type": "Cs"}}

>  <type>  (15) 
unop_11

>  <geom_source>  (15) 
Heuristics

$$$$

     RDKit          3D

 23 21  0  0  0  0  0  0  0  0999 V2000
    2.8221    2.0944    0.3298 C   0  0  0  0  0  0  0  0  0  0  0  0
    2.8221    2.0944   -1.1248 C   0  0  0  0  0  0  0  0  0  0  0  0
    2.8221    2.0944   -2.2712 N   0  0  0  0  0  0  0  0  0  0  0  0
    1.8691    1.3185    0.7759 H   0  0  0  0  0  0  0  0  0  0  0  0
    3.7791    1.7299    0.7015 H   0  0  0  0  0  0  0  0  0  0  0  0
    2.6593    3.1055    0.7015 H   0  0  0  0  0  0  0  0  0  0  0  0
    0.9146    0.5415    1.2227 C   0  0  0  0  0  3  0  0  0  0  0  0
    0.1578   -0.0746    0.0689 C   0  0  0  0  0  0  0  0  0  0  0  0
   -0.8570   -0.9017    0.5785 O   0  0  0  0  0  0  0  0  0  0  0  0
   -1.6226   -1.5238   -0.4223 C   0  0  0  0  0  0  0  0  0  0  0  0
   -2.7096   -2.3587    0.2233 C   0  0  0  0  0  0  0  0  0  0  0  0
   -3.7027   -1.5303    1.0274 C   0  0  0  0  0  0  0  0  0  0  0  0
    0.2451    1.1370    1.8444 H   0  0  0  0  0  0  0  0  0  0  0  0
    1.3618   -0.2349    1.8445 H   0  0  0  0  0  0  0  0  0  0  0  0
    0.8371   -0.6622   -0.5664 H   0  0  0  0  0  0  0  0  0  0  0  0
   -0.2812    0.7096   -0.5654 H   0  0  0  0  0  0  0  0  0  0  0  0
   -2.0713   -0.7617   -1.0791 H   0  0  0  0  0  0  0  0  0  0  0  0
   -0.9774   -2.1567   -1.0492 H   0  0  0  0  0  0  0  0  0  0  0  0
   -2.2375   -3.1064    0.8659 H   0  0  0  0  0  0  0  0  0  0  0  0
   -3.2294   -2.9046   -0.5689 H   0  0  0  0  0  0  0  0  0  0  0  0
   -4.2004   -0.7936    0.3917 H   0  0  0  0  0  0  0  0  0  0  0  0
   -3.1970   -0.9931    1.8298 H   0  0  0  0  0  0  0  0  0  0  0  0
   -4.4723   -2.1628    1.4722 H   0  0  0  0  0  0  0  0  0  0  0  0
  1  2  1  0
  1  4  1  0
  1  5  1  0
  1  6  1  0
  2  3  3  0
  7  8  1  0
  7 13  1  0
  7 14  1  0
  8  9  1  0
  8 15  1  0
  8 16  1  0
  9 10  1  0
 10 11  1  0
 10 17  1  0
 10 18  1  0
 11 12  1  0
 11 19  1  0
 11 20  1  0
 12 21  1  0
 12 22  1  0
 12 23  1  0
M  RAD  1   7   2
M  END
>  <reaction>  (16) 
rmg_rxn_165

>  <mol_properties>  (16) 
{"0": {"label": "*1", "atom_type": "Cs"}, "1": {"label": "*0", "atom_type": "Ct"}, "3": {"label": "*2", "atom_type": "H0"}, "6": {"label": "*3", "atom_type": "Cs"}, "7": {"label": "*4", "atom_type": "Cs"}}

>  <type>  (16) 
unop_12

>  <geom_source>  (16) 
Heuristics

$$$$

     RDKit          3D

 23 21  0  0  0  0  0  0  0  0999 V2000
   -0.6354   -0.4134   -0.5755 O   0  0  0  0  0  0  0  0  0  0  0  0
    3.9501    2.2672    2.9792 N   0  0  0  0  0  2  0  0  0  0  0  0
   -2.9037   -1.1927   -0.7627 C   0  0  0  0  0  0  0  0  0  0  0  0
   -1.5931   -1.2624    0.0223 C   0  0  0  0  0  0  0  0  0  0  0  0
    0.5656   -0.4647    0.1640 C   0  0  0  0  0  0  0  0  0  0  0  0
   -3.5353    0.1962   -0.6933 C   0  0  0  0  0  0  0  0  0  0  0  0
    1.5940    0.4430   -0.4906 C   0  0  0  0  0  0  0  0  0  0  0  0
    3.8565    0.9825    0.6974 C   0  0  0  0  0  0  0  0  0  0  0  0
    3.9088    1.6999    1.9714 C   0  0  0  0  0  0  0  0  0  0  0  0
   -3.6178   -1.9335   -0.3422 H   0  0  0  0  0  0  0  0  0  0  0  0
   -2.7150   -1.4596   -1.8252 H   0  0  0  0  0  0  0  0  0  0  0  0
    0.9779   -1.4991    0.1819 H   0  0  0  0  0  0  0  0  0  0  0  0
    0.4048   -0.1095    1.2072 H   0  0  0  0  0  0  0  0  0  0  0  0
   -1.2398   -2.3187    0.0037 H   0  0  0  0  0  0  0  0  0  0  0  0
   -1.7901   -0.9660    1.0787 H   0  0  0  0  0  0  0  0  0  0  0  0
    1.2210    1.4891   -0.5099 H   0  0  0  0  0  0  0  0  0  0  0  0
    1.7920    0.1064   -1.5305 H   0  0  0  0  0  0  0  0  0  0  0  0
    2.7056    0.4017    0.1872 H   0  0  0  0  0  0  0  0  0  0  0  0
   -3.7435    0.4736    0.3620 H   0  0  0  0  0  0  0  0  0  0  0  0
   -4.4930    0.1963   -1.2553 H   0  0  0  0  0  0  0  0  0  0  0  0
   -2.8605    0.9535   -1.1458 H   0  0  0  0  0  0  0  0  0  0  0  0
    3.2648    1.5703   -0.0343 H   0  0  0  0  0  0  0  0  0  0  0  0
    4.8864    0.8398    0.3105 H   0  0  0  0  0  0  0  0  0  0  0  0
  1  5  1  0
  1  4  1  0
  2  9  2  0
  3  6  1  0
  3  4  1  0
  3 10  1  0
  3 11  1  0
  4 14  1  0
  4 15  1  0
  5  7  1  0
  5 12  1  0
  5 13  1  0
  6 19  1  0
  6 20  1  0
  6 21  1  0
  7 16  1  0
  7 17  1  0
  7 18  1  0
  8  9  2  0
  8 22  1  0
  8 23  1  0
M  RAD  1   2   2
M  END
>  <reaction>  (17) 
rmg_rxn_165

>  <mol_properties>  (17) 
{"0": {"label": "*1", "atom_type": "Cs"}, "1": {"label": "*0", "atom_type": "Ct"}, "3": {"label": "*2", "atom_type": "H0"}, "6": {"label": "*3", "atom_type": "Cs"}, "7": {"label": "*4", "atom_type": "Cs"}}

>  <type>  (17) 
unop_13

>  <geom_source>  (17) 
AutoTST

$$$$

     RDKit          3D

 23 21  0  0  0  0  0  0  0  0999 V2000
    2.2036    2.7195    0.1059 C   0  0  0  0  0  0  0  0  0  0  0  0
    2.2036    2.7195   -1.3488 C   0  0  0  0  0  0  0  0  0  0  0  0
    2.2036    2.7195   -2.4952 N   0  0  0  0  0  0  0  0  0  0  0  0
    1.2505    1.9437    0.5520 H   0  0  0  0  0  0  0  0  0  0  0  0
    3.1606    2.3550    0.4776 H   0  0  0  0  0  0  0  0  0  0  0  0
    2.0408    3.7306    0.4776 H   0  0  0  0  0  0  0  0  0  0  0  0
    0.2960    1.1667    0.9987 C   0  0  0  0  0  3  0  0  0  0  0  0
    0.0369    0.0418    0.0235 C   0  0  0  0  0  0  0  0  0  0  0  0
   -0.6614   -0.9828    0.6837 O   0  0  0  0  0  0  0  0  0  0  0  0
   -0.9524   -2.0806   -0.1441 C   0  0  0  0  0  0  0  0  0  0  0  0
   -1.7368   -3.1096    0.6441 C   0  0  0  0  0  0  0  0  0  0  0  0
   -3.0908   -2.5971    1.1166 C   0  0  0  0  0  0  0  0  0  0  0  0
   -0.6443    1.5636    1.3829 H   0  0  0  0  0  0  0  0  0  0  0  0
    0.8899    0.8122    1.8419 H   0  0  0  0  0  0  0  0  0  0  0  0
    0.9855   -0.3473   -0.3754 H   0  0  0  0  0  0  0  0  0  0  0  0
   -0.5502    0.4035   -0.8335 H   0  0  0  0  0  0  0  0  0  0  0  0
   -1.5363   -1.7476   -1.0168 H   0  0  0  0  0  0  0  0  0  0  0  0
   -0.0192   -2.5216   -0.5241 H   0  0  0  0  0  0  0  0  0  0  0  0
   -1.1347   -3.4237    1.5006 H   0  0  0  0  0  0  0  0  0  0  0  0
   -1.8685   -3.9903    0.0093 H   0  0  0  0  0  0  0  0  0  0  0  0
   -3.7132   -2.3016    0.2682 H   0  0  0  0  0  0  0  0  0  0  0  0
   -2.9703   -1.7275    1.7626 H   0  0  0  0  0  0  0  0  0  0  0  0
   -3.6284   -3.3650    1.6746 H   0  0  0  0  0  0  0  0  0  0  0  0
  1  2  1  0
  1  4  1  0
  1  5  1  0
  1  6  1  0
  2  3  3  0
  7  8  1  0
  7 13  1  0
  7 14  1  0
  8  9  1  0
  8 15  1  0
  8 16  1  0
  9 10  1  0
 10 11  1  0
 10 17  1  0
 10 18  1  0
 11 12  1  0
 11 19  1  0
 11 20  1  0
 12 21  1  0
 12 22  1  0
 12 23  1  0
M  RAD  1   7   2
M  END
>  <reaction>  (18) 
rmg_rxn_165

>  <mol_properties>  (18) 
{"0": {"label": "*1", "atom_type": "Cs"}, "1": {"label": "*0", "atom_type": "Ct"}, "3": {"label": "*2", "atom_type": "H0"}, "6": {"label": "*3", "atom_type": "Cs"}, "7": {"label": "*4", "atom_type": "Cs"}}

>  <type>  (18) 
unop_14

>  <geom_source>  (18) 
gaussian_log

$$$$
