
     RDKit          3D

 15 14  0  0  0  0  0  0  0  0999 V2000
   -1.2811   -0.4129    1.0228 C   0  0  0  0  0  0  0  0  0  0  0  0
   -1.0023   -0.5809   -0.4650 C   0  0  0  0  0  0  0  0  0  0  0  0
   -2.0576    0.0568   -1.3449 C   0  0  0  0  0  0  0  0  0  0  0  0
   -2.0663    1.4464   -1.1307 O   0  0  0  0  0  0  0  0  0  0  0  0
   -3.0424    2.1072   -1.8849 C   0  0  0  0  0  0  0  0  0  0  0  0
   -2.2382   -0.8657    1.2935 H   0  0  0  0  0  0  0  0  0  0  0  0
   -1.3219    0.6426    1.2914 H   0  0  0  0  0  0  0  0  0  0  0  0
   -0.5042   -0.8881    1.6236 H   0  0  0  0  0  0  0  0  0  0  0  0
   -0.0316   -0.1460   -0.7167 H   0  0  0  0  0  0  0  0  0  0  0  0
   -0.9494   -1.6429   -0.7203 H   0  0  0  0  0  0  0  0  0  0  0  0
   -1.8518   -0.1570   -2.4041 H   0  0  0  0  0  0  0  0  0  0  0  0
   -3.0491   -0.3636   -1.1124 H   0  0  0  0  0  0  0  0  0  0  0  0
   -4.0521    1.7545   -1.6343 H   0  0  0  0  0  0  0  0  0  0  0  0
   -2.8850    1.9634   -2.9626 H   0  0  0  0  0  0  0  0  0  0  0  0
   -2.9730    3.1700   -1.6570 H   0  0  0  0  0  0  0  0  0  0  0  0
  1  2  1  0
  1  6  1  0
  1  7  1  0
  1  8  1  0
  2  3  1  0
  2  9  1  0
  2 10  1  0
  3  4  1  0
  3 11  1  0
  3 12  1  0
  4  5  1  0
  5 13  1  0
  5 14  1  0
  5 15  1  0
M  END
>  <reaction>  (1) 
rmg_rxn_682

>  <mol_properties>  (1) 
{"4": {"label": "donator", "atom_type": "Cs"}, "12": {"label": "d_hydrogen", "atom_type": "H0"}}

>  <type>  (1) 
r1h

$$$$

     RDKit          3D

 11 10  0  0  0  0  0  0  0  0999 V2000
   -1.2230    0.3768   -0.0849 C   0  0  0  0  0  0  0  0  0  0  0  0
   -0.0734   -0.5533    0.2746 C   0  0  0  0  0  0  0  0  0  0  0  0
   -0.0853   -1.8426   -0.5372 C   0  0  0  0  0  0  0  0  0  0  0  0
    0.0319   -1.6944   -1.8815 O   0  0  0  0  0  1  0  0  0  0  0  0
   -2.1874   -0.0885    0.1341 H   0  0  0  0  0  0  0  0  0  0  0  0
   -1.1670    1.3099    0.4765 H   0  0  0  0  0  0  0  0  0  0  0  0
   -1.2014    0.6189   -1.1483 H   0  0  0  0  0  0  0  0  0  0  0  0
    0.8834   -0.0518    0.1071 H   0  0  0  0  0  0  0  0  0  0  0  0
   -0.1104   -0.8149    1.3362 H   0  0  0  0  0  0  0  0  0  0  0  0
    0.6767   -2.5604   -0.1861 H   0  0  0  0  0  0  0  0  0  0  0  0
   -1.0401   -2.3871   -0.3877 H   0  0  0  0  0  0  0  0  0  0  0  0
  1  2  1  0
  1  5  1  0
  1  6  1  0
  1  7  1  0
  2  3  1  0
  2  8  1  0
  2  9  1  0
  3  4  1  0
  3 10  1  0
  3 11  1  0
M  RAD  1   4   2
M  END
>  <reaction>  (2) 
rmg_rxn_682

>  <mol_properties>  (2) 
{"3": {"label": "acceptor", "atom_type": "O2s"}}

>  <type>  (2) 
r2

$$$$

     RDKit          3D

 12 11  0  0  0  0  0  0  0  0999 V2000
   -1.4643   -0.2505   -0.5284 C   0  0  0  0  0  0  0  0  0  0  0  0
   -0.3946    0.4302    0.3143 C   0  0  0  0  0  0  0  0  0  0  0  0
   -0.5959    0.2382    1.8102 C   0  0  0  0  0  0  0  0  0  0  0  0
   -0.5633   -1.1190    2.2092 O   0  0  0  0  0  0  0  0  0  0  0  0
   -2.4511    0.1644   -0.3109 H   0  0  0  0  0  0  0  0  0  0  0  0
   -1.5019   -1.3198   -0.3181 H   0  0  0  0  0  0  0  0  0  0  0  0
   -1.2720   -0.1182   -1.5941 H   0  0  0  0  0  0  0  0  0  0  0  0
    0.5965    0.0515    0.0385 H   0  0  0  0  0  0  0  0  0  0  0  0
   -0.3776    1.5047    0.1078 H   0  0  0  0  0  0  0  0  0  0  0  0
   -1.5821    0.6048    2.1034 H   0  0  0  0  0  0  0  0  0  0  0  0
    0.1495    0.8220    2.3649 H   0  0  0  0  0  0  0  0  0  0  0  0
    0.3017   -1.4750    1.9997 H   0  0  0  0  0  0  0  0  0  0  0  0
  1  2  1  0
  1  5  1  0
  1  6  1  0
  1  7  1  0
  2  3  1  0
  2  8  1  0
  2  9  1  0
  3  4  1  0
  3 10  1  0
  3 11  1  0
  4 12  1  0
M  END
>  <reaction>  (3) 
rmg_rxn_682

>  <mol_properties>  (3) 
{"3": {"label": "acceptor", "atom_type": "O2s"}, "11": {"label": "a_hydrogen", "atom_type": "H0"}}

>  <type>  (3) 
r2h

$$$$

     RDKit          3D

 26 24  0  0  0  0  0  0  0  0999 V2000
    2.1418    1.5729    1.0155 C   0  0  0  0  0  0  0  0  0  0  0  0
    0.7471    2.0529    1.3893 C   0  0  0  0  0  0  0  0  0  0  0  0
    0.0247    2.7343    0.2322 C   0  0  0  0  0  0  0  0  0  0  0  0
   -0.1235    1.9410   -0.8992 O   0  0  0  0  0  1  0  0  0  0  0  0
    2.7870    2.4153    0.7549 H   0  0  0  0  0  0  0  0  0  0  0  0
    2.6114    1.0330    1.8391 H   0  0  0  0  0  0  0  0  0  0  0  0
    2.1015    0.9109    0.1490 H   0  0  0  0  0  0  0  0  0  0  0  0
    0.1402    1.2082    1.7306 H   0  0  0  0  0  0  0  0  0  0  0  0
    0.7990    2.7549    2.2271 H   0  0  0  0  0  0  0  0  0  0  0  0
   -0.9439    3.1324    0.5684 H   0  0  0  0  0  0  0  0  0  0  0  0
    0.6082    3.6049   -0.1036 H   0  0  0  0  0  0  0  0  0  0  0  0
    0.5868   -2.8914   -1.4276 C   0  0  0  0  0  0  0  0  0  0  0  0
   -0.0293   -2.8154   -0.0370 C   0  0  0  0  0  0  0  0  0  0  0  0
   -0.4739   -1.4190    0.3387 C   0  0  0  0  0  0  0  0  0  0  0  0
   -1.5171   -1.0117   -0.5282 O   0  0  0  0  0  0  0  0  0  0  0  0
   -1.9592    0.2638   -0.3115 C   0  0  0  0  0  0  0  0  0  0  0  0
    1.4602   -2.2394   -1.5023 H   0  0  0  0  0  0  0  0  0  0  0  0
   -0.1290   -2.5782   -2.1875 H   0  0  0  0  0  0  0  0  0  0  0  0
    0.9054   -3.9087   -1.6586 H   0  0  0  0  0  0  0  0  0  0  0  0
   -0.8871   -3.4890    0.0353 H   0  0  0  0  0  0  0  0  0  0  0  0
    0.6946   -3.1441    0.7136 H   0  0  0  0  0  0  0  0  0  0  0  0
   -0.8333   -1.3879    1.3759 H   0  0  0  0  0  0  0  0  0  0  0  0
    0.3601   -0.7119    0.2479 H   0  0  0  0  0  0  0  0  0  0  0  0
   -1.0954    1.0633   -0.6441 H   0  0  0  0  0  0  0  0  0  0  0  0
   -2.1593    0.4904    0.7442 H   0  0  0  0  0  0  0  0  0  0  0  0
   -2.8146    0.4703   -0.9520 H   0  0  0  0  0  0  0  0  0  0  0  0
  1  2  1  0
  1  5  1  0
  1  6  1  0
  1  7  1  0
  2  3  1  0
  2  8  1  0
  2  9  1  0
  3  4  1  0
  3 10  1  0
  3 11  1  0
 12 13  1  0
 12 17  1  0
 12 18  1  0
 12 19  1  0
 13 14  1  0
 13 20  1  0
 13 21  1  0
 14 15  1  0
 14 22  1  0
 14 23  1  0
 15 16  1  0
 16 24  1  0
 16 25  1  0
 16 26  1  0
M  RAD  1   4   2
M  END
>  <reaction>  (4) 
rmg_rxn_682

>  <mol_properties>  (4) 
{"2": {"label": "*4", "atom_type": "Cs"}, "3": {"label": "*3", "atom_type": "O2s"}, "14": {"label": "*0", "atom_type": "O2s"}, "15": {"label": "*1", "atom_type": "Cs"}, "23": {"label": "*2", "atom_type": "H0"}}

>  <type>  (4) 
ts

$$$$

     RDKit          3D

 26 24  0  0  0  0  0  0  0  0999 V2000
   -1.0920    3.1136    0.9883 C   0  0  0  0  0  0  0  0  0  0  0  0
   -0.8745    2.7577   -0.4759 C   0  0  0  0  0  0  0  0  0  0  0  0
    0.5833    2.4879   -0.8185 C   0  0  0  0  0  0  0  0  0  0  0  0
    1.1364    1.4047   -0.0954 O   0  0  0  0  0  0  0  0  0  0  0  0
   -0.5566    4.0298    1.2479 H   0  0  0  0  0  0  0  0  0  0  0  0
   -2.1497    3.2703    1.2044 H   0  0  0  0  0  0  0  0  0  0  0  0
   -0.7239    2.3202    1.6394 H   0  0  0  0  0  0  0  0  0  0  0  0
   -1.4695    1.8755   -0.7391 H   0  0  0  0  0  0  0  0  0  0  0  0
   -1.2315    3.5679   -1.1189 H   0  0  0  0  0  0  0  0  0  0  0  0
    0.6888    2.3256   -1.8985 H   0  0  0  0  0  0  0  0  0  0  0  0
    1.1939    3.3551   -0.5572 H   0  0  0  0  0  0  0  0  0  0  0  0
    0.5308   -3.3390   -1.4575 C   0  0  0  0  0  0  0  0  0  0  0  0
    0.5308   -3.3390    0.0654 C   0  0  0  0  0  0  0  0  0  0  0  0
    0.5308   -1.9464    0.6614 C   0  0  0  0  0  0  0  0  0  0  0  0
   -0.6542   -1.2829    0.2973 O   0  0  0  0  0  0  0  0  0  0  0  0
   -0.7150    0.0282    0.7825 C   0  0  0  0  0  3  0  0  0  0  0  0
    1.4132   -2.8253   -1.8472 H   0  0  0  0  0  0  0  0  0  0  0  0
   -0.3516   -2.8291   -1.8439 H   0  0  0  0  0  0  0  0  0  0  0  0
    0.5357   -4.3569   -1.8498 H   0  0  0  0  0  0  0  0  0  0  0  0
   -0.3433   -3.8771    0.4410 H   0  0  0  0  0  0  0  0  0  0  0  0
    1.4126   -3.8651    0.4416 H   0  0  0  0  0  0  0  0  0  0  0  0
    0.6077   -2.0001    1.7575 H   0  0  0  0  0  0  0  0  0  0  0  0
    1.4032   -1.3793    0.2992 H   0  0  0  0  0  0  0  0  0  0  0  0
    0.2737    0.7633    0.3137 H   0  0  0  0  0  0  0  0  0  0  0  0
   -0.6730    0.0543    1.8799 H   0  0  0  0  0  0  0  0  0  0  0  0
   -1.6607    0.4583    0.4553 H   0  0  0  0  0  0  0  0  0  0  0  0
  1  2  1  0
  1  5  1  0
  1  6  1  0
  1  7  1  0
  2  3  1  0
  2  8  1  0
  2  9  1  0
  3  4  1  0
  3 10  1  0
  3 11  1  0
  4 24  1  0
 12 13  1  0
 12 17  1  0
 12 18  1  0
 12 19  1  0
 13 14  1  0
 13 20  1  0
 13 21  1  0
 14 15  1  0
 14 22  1  0
 14 23  1  0
 15 16  1  0
 16 25  1  0
 16 26  1  0
M  RAD  1  16   2
M  END
>  <reaction>  (5) 
rmg_rxn_682

>  <mol_properties>  (5) 
{"2": {"label": "*4", "atom_type": "Cs"}, "3": {"label": "*3", "atom_type": "O2s"}, "14": {"label": "*0", "atom_type": "O2s"}, "15": {"label": "*1", "atom_type": "Cs"}, "23": {"label": "*2", "atom_type": "H0"}}

>  <type>  (5) 
unop_1

>  <geom_source>  (5) 
Heuristics

$$$$

     RDKit          3D

 26 24  0  0  0  0  0  0  0  0999 V2000
   -0.9110    2.2937   -1.8650 C   0  0  0  0  0  0  0  0  0  0  0  0
    0.0114    1.1138   -1.5908 C   0  0  0  0  0  0  0  0  0  0  0  0
    1.2146    1.4785   -0.7338 C   0  0  0  0  0  0  0  0  0  0  0  0
    0.8619    1.9687    0.5458 O   0  0  0  0  0  0  0  0  0  0  0  0
   -0.3855    3.0762   -2.4172 H   0  0  0  0  0  0  0  0  0  0  0  0
   -1.7768    1.9901   -2.4551 H   0  0  0  0  0  0  0  0  0  0  0  0
   -1.2692    2.7312   -0.9326 H   0  0  0  0  0  0  0  0  0  0  0  0
   -0.5459    0.3102   -1.0957 H   0  0  0  0  0  0  0  0  0  0  0  0
    0.3781    0.6940   -2.5324 H   0  0  0  0  0  0  0  0  0  0  0  0
    1.8851    0.6144   -0.6453 H   0  0  0  0  0  0  0  0  0  0  0  0
    1.7800    2.2834   -1.2088 H   0  0  0  0  0  0  0  0  0  0  0  0
    0.2563   -2.7750   -0.8163 C   0  0  0  0  0  0  0  0  0  0  0  0
    0.2563   -2.7750    0.7066 C   0  0  0  0  0  0  0  0  0  0  0  0
    0.2563   -1.3824    1.3026 C   0  0  0  0  0  0  0  0  0  0  0  0
   -0.9288   -0.7190    0.9385 O   0  0  0  0  0  0  0  0  0  0  0  0
   -0.9895    0.5921    1.4237 C   0  0  0  0  0  3  0  0  0  0  0  0
    1.1387   -2.2613   -1.2060 H   0  0  0  0  0  0  0  0  0  0  0  0
   -0.6262   -2.2651   -1.2027 H   0  0  0  0  0  0  0  0  0  0  0  0
    0.2612   -3.7930   -1.2086 H   0  0  0  0  0  0  0  0  0  0  0  0
   -0.6178   -3.3131    1.0822 H   0  0  0  0  0  0  0  0  0  0  0  0
    1.1380   -3.3011    1.0828 H   0  0  0  0  0  0  0  0  0  0  0  0
    0.3331   -1.4361    2.3987 H   0  0  0  0  0  0  0  0  0  0  0  0
    1.1287   -0.8154    0.9404 H   0  0  0  0  0  0  0  0  0  0  0  0
   -0.0009    1.3272    0.9549 H   0  0  0  0  0  0  0  0  0  0  0  0
   -0.9475    0.6182    2.5211 H   0  0  0  0  0  0  0  0  0  0  0  0
   -1.9352    1.0223    1.0965 H   0  0  0  0  0  0  0  0  0  0  0  0
  1  2  1  0
  1  5  1  0
  1  6  1  0
  1  7  1  0
  2  3  1  0
  2  8  1  0
  2  9  1  0
  3  4  1  0
  3 10  1  0
  3 11  1  0
  4 24  1  0
 12 13  1  0
 12 17  1  0
 12 18  1  0
 12 19  1  0
 13 14  1  0
 13 20  1  0
 13 21  1  0
 14 15  1  0
 14 22  1  0
 14 23  1  0
 15 16  1  0
 16 25  1  0
 16 26  1  0
M  RAD  1  16   2
M  END
>  <reaction>  (6) 
rmg_rxn_682

>  <mol_properties>  (6) 
{"2": {"label": "*4", "atom_type": "Cs"}, "3": {"label": "*3", "atom_type": "O2s"}, "14": {"label": "*0", "atom_type": "O2s"}, "15": {"label": "*1", "atom_type": "Cs"}, "23": {"label": "*2", "atom_type": "H0"}}

>  <type>  (6) 
unop_2

>  <geom_source>  (6) 
Heuristics

$$$$

     RDKit          3D

 26 24  0  0  0  0  0  0  0  0999 V2000
   -0.0492    2.9054    1.9349 C   0  0  0  0  0  0  0  0  0  0  0  0
   -0.5572    3.0572    0.5077 C   0  0  0  0  0  0  0  0  0  0  0  0
    0.4843    2.6988   -0.5420 C   0  0  0  0  0  0  0  0  0  0  0  0
    0.9276    1.3578   -0.4550 O   0  0  0  0  0  0  0  0  0  0  0  0
    0.7938    3.5752    2.1194 H   0  0  0  0  0  0  0  0  0  0  0  0
   -0.8297    3.1408    2.6598 H   0  0  0  0  0  0  0  0  0  0  0  0
    0.2922    1.8863    2.1191 H   0  0  0  0  0  0  0  0  0  0  0  0
   -1.4431    2.4293    0.3569 H   0  0  0  0  0  0  0  0  0  0  0  0
   -0.8807    4.0871    0.3292 H   0  0  0  0  0  0  0  0  0  0  0  0
    0.0923    2.9119   -1.5444 H   0  0  0  0  0  0  0  0  0  0  0  0
    1.3783    3.3109   -0.4038 H   0  0  0  0  0  0  0  0  0  0  0  0
    0.3219   -3.3859   -1.8171 C   0  0  0  0  0  0  0  0  0  0  0  0
    0.3219   -3.3859   -0.2942 C   0  0  0  0  0  0  0  0  0  0  0  0
    0.3219   -1.9933    0.3019 C   0  0  0  0  0  0  0  0  0  0  0  0
   -0.8631   -1.3298   -0.0623 O   0  0  0  0  0  0  0  0  0  0  0  0
   -0.9239   -0.0188    0.4229 C   0  0  0  0  0  3  0  0  0  0  0  0
    1.2043   -2.8722   -2.2068 H   0  0  0  0  0  0  0  0  0  0  0  0
   -0.5605   -2.8760   -2.2035 H   0  0  0  0  0  0  0  0  0  0  0  0
    0.3269   -4.4039   -2.2094 H   0  0  0  0  0  0  0  0  0  0  0  0
   -0.5522   -3.9240    0.0814 H   0  0  0  0  0  0  0  0  0  0  0  0
    1.2037   -3.9120    0.0821 H   0  0  0  0  0  0  0  0  0  0  0  0
    0.3988   -2.0470    1.3979 H   0  0  0  0  0  0  0  0  0  0  0  0
    1.1943   -1.4263   -0.0603 H   0  0  0  0  0  0  0  0  0  0  0  0
    0.0648    0.7163   -0.0459 H   0  0  0  0  0  0  0  0  0  0  0  0
   -0.8819    0.0074    1.5204 H   0  0  0  0  0  0  0  0  0  0  0  0
   -1.8696    0.4114    0.0957 H   0  0  0  0  0  0  0  0  0  0  0  0
  1  2  1  0
  1  5  1  0
  1  6  1  0
  1  7  1  0
  2  3  1  0
  2  8  1  0
  2  9  1  0
  3  4  1  0
  3 10  1  0
  3 11  1  0
  4 24  1  0
 12 13  1  0
 12 17  1  0
 12 18  1  0
 12 19  1  0
 13 14  1  0
 13 20  1  0
 13 21  1  0
 14 15  1  0
 14 22  1  0
 14 23  1  0
 15 16  1  0
 16 25  1  0
 16 26  1  0
M  RAD  1  16   2
M  END
>  <reaction>  (7) 
rmg_rxn_682

>  <mol_properties>  (7) 
{"2": {"label": "*4", "atom_type": "Cs"}, "3": {"label": "*3", "atom_type": "O2s"}, "14": {"label": "*0", "atom_type": "O2s"}, "15": {"label": "*1", "atom_type": "Cs"}, "23": {"label": "*2", "atom_type": "H0"}}

>  <type>  (7) 
unop_3

>  <geom_source>  (7) 
Heuristics

$$$$

     RDKit          3D

 26 24  0  0  0  0  0  0  0  0999 V2000
    2.2064    1.4181   -1.7984 C   0  0  0  0  0  0  0  0  0  0  0  0
    1.8778    0.6830   -0.5063 C   0  0  0  0  0  0  0  0  0  0  0  0
    1.2597    1.5810    0.5552 C   0  0  0  0  0  0  0  0  0  0  0  0
    0.0370    2.1665    0.1495 O   0  0  0  0  0  0  0  0  0  0  0  0
    2.9406    2.2069   -1.6195 H   0  0  0  0  0  0  0  0  0  0  0  0
    2.6188    0.7390   -2.5460 H   0  0  0  0  0  0  0  0  0  0  0  0
    1.3145    1.8858   -2.2165 H   0  0  0  0  0  0  0  0  0  0  0  0
    1.1918   -0.1469   -0.7118 H   0  0  0  0  0  0  0  0  0  0  0  0
    2.7827    0.2327   -0.0870 H   0  0  0  0  0  0  0  0  0  0  0  0
    1.1282    1.0193    1.4885 H   0  0  0  0  0  0  0  0  0  0  0  0
    1.9272    2.4186    0.7693 H   0  0  0  0  0  0  0  0  0  0  0  0
   -0.5686   -2.5772   -1.2126 C   0  0  0  0  0  0  0  0  0  0  0  0
   -0.5686   -2.5772    0.3103 C   0  0  0  0  0  0  0  0  0  0  0  0
   -0.5686   -1.1846    0.9063 C   0  0  0  0  0  0  0  0  0  0  0  0
   -1.7536   -0.5212    0.5422 O   0  0  0  0  0  0  0  0  0  0  0  0
   -1.8144    0.7899    1.0274 C   0  0  0  0  0  3  0  0  0  0  0  0
    0.3138   -2.0635   -1.6023 H   0  0  0  0  0  0  0  0  0  0  0  0
   -1.4510   -2.0673   -1.5990 H   0  0  0  0  0  0  0  0  0  0  0  0
   -0.5637   -3.5952   -1.6049 H   0  0  0  0  0  0  0  0  0  0  0  0
   -1.4427   -3.1153    0.6859 H   0  0  0  0  0  0  0  0  0  0  0  0
    0.3132   -3.1033    0.6865 H   0  0  0  0  0  0  0  0  0  0  0  0
   -0.4917   -1.2383    2.0024 H   0  0  0  0  0  0  0  0  0  0  0  0
    0.3038   -0.6176    0.5441 H   0  0  0  0  0  0  0  0  0  0  0  0
   -0.8257    1.5250    0.5586 H   0  0  0  0  0  0  0  0  0  0  0  0
   -1.7724    0.8161    2.1248 H   0  0  0  0  0  0  0  0  0  0  0  0
   -2.7601    1.2201    0.7002 H   0  0  0  0  0  0  0  0  0  0  0  0
  1  2  1  0
  1  5  1  0
  1  6  1  0
  1  7  1  0
  2  3  1  0
  2  8  1  0
  2  9  1  0
  3  4  1  0
  3 10  1  0
  3 11  1  0
  4 24  1  0
 12 13  1  0
 12 17  1  0
 12 18  1  0
 12 19  1  0
 13 14  1  0
 13 20  1  0
 13 21  1  0
 14 15  1  0
 14 22  1  0
 14 23  1  0
 15 16  1  0
 16 25  1  0
 16 26  1  0
M  RAD  1  16   2
M  END
>  <reaction>  (8) 
rmg_rxn_682

>  <mol_properties>  (8) 
{"2": {"label": "*4", "atom_type": "Cs"}, "3": {"label": "*3", "atom_type": "O2s"}, "14": {"label": "*0", "atom_type": "O2s"}, "15": {"label": "*1", "atom_type": "Cs"}, "23": {"label": "*2", "atom_type": "H0"}}

>  <type>  (8) 
unop_4

>  <geom_source>  (8) 
Heuristics

$$$$

     RDKit          3D

 26 24  0  0  0  0  0  0  0  0999 V2000
    1.7917    2.3197    1.9166 C   0  0  0  0  0  0  0  0  0  0  0  0
    0.4578    2.8297    1.3887 C   0  0  0  0  0  0  0  0  0  0  0  0
    0.3553    2.7839   -0.1287 C   0  0  0  0  0  0  0  0  0  0  0  0
    0.4801    1.4779   -0.6586 O   0  0  0  0  0  0  0  0  0  0  0  0
    2.6151    2.9366    1.5495 H   0  0  0  0  0  0  0  0  0  0  0  0
    1.8187    2.3382    3.0070 H   0  0  0  0  0  0  0  0  0  0  0  0
    1.9737    1.2962    1.5875 H   0  0  0  0  0  0  0  0  0  0  0  0
   -0.3633    2.2434    1.8172 H   0  0  0  0  0  0  0  0  0  0  0  0
    0.2940    3.8626    1.7105 H   0  0  0  0  0  0  0  0  0  0  0  0
   -0.5866    3.2441   -0.4530 H   0  0  0  0  0  0  0  0  0  0  0  0
    1.1701    3.3586   -0.5746 H   0  0  0  0  0  0  0  0  0  0  0  0
   -0.1255   -3.2658   -2.0207 C   0  0  0  0  0  0  0  0  0  0  0  0
   -0.1255   -3.2658   -0.4978 C   0  0  0  0  0  0  0  0  0  0  0  0
   -0.1255   -1.8732    0.0982 C   0  0  0  0  0  0  0  0  0  0  0  0
   -1.3105   -1.2098   -0.2659 O   0  0  0  0  0  0  0  0  0  0  0  0
   -1.3713    0.1013    0.2192 C   0  0  0  0  0  3  0  0  0  0  0  0
    0.7569   -2.7522   -2.4105 H   0  0  0  0  0  0  0  0  0  0  0  0
   -1.0079   -2.7559   -2.4072 H   0  0  0  0  0  0  0  0  0  0  0  0
   -0.1206   -4.2838   -2.4130 H   0  0  0  0  0  0  0  0  0  0  0  0
   -0.9996   -3.8040   -0.1222 H   0  0  0  0  0  0  0  0  0  0  0  0
    0.7562   -3.7919   -0.1216 H   0  0  0  0  0  0  0  0  0  0  0  0
   -0.0487   -1.9269    1.1943 H   0  0  0  0  0  0  0  0  0  0  0  0
    0.7469   -1.3062   -0.2640 H   0  0  0  0  0  0  0  0  0  0  0  0
   -0.3827    0.8364   -0.2495 H   0  0  0  0  0  0  0  0  0  0  0  0
   -1.3293    0.1274    1.3167 H   0  0  0  0  0  0  0  0  0  0  0  0
   -2.3170    0.5315   -0.1079 H   0  0  0  0  0  0  0  0  0  0  0  0
  1  2  1  0
  1  5  1  0
  1  6  1  0
  1  7  1  0
  2  3  1  0
  2  8  1  0
  2  9  1  0
  3  4  1  0
  3 10  1  0
  3 11  1  0
  4 24  1  0
 12 13  1  0
 12 17  1  0
 12 18  1  0
 12 19  1  0
 13 14  1  0
 13 20  1  0
 13 21  1  0
 14 15  1  0
 14 22  1  0
 14 23  1  0
 15 16  1  0
 16 25  1  0
 16 26  1  0
M  RAD  1  16   2
M  END
>  <reaction>  (9) 
rmg_rxn_682

>  <mol_properties>  (9) 
{"2": {"label": "*4", "atom_type": "Cs"}, "3": {"label": "*3", "atom_type": "O2s"}, "14": {"label": "*0", "atom_type": "O2s"}, "15": {"label": "*1", "atom_type": "Cs"}, "23": {"label": "*2", "atom_type": "H0"}}

>  <type>  (9) 
unop_5

>  <geom_source>  (9) 
Heuristics

$$$$

     RDKit          3D

 26 24  0  0  0  0  0  0  0  0999 V2000
    2.7538    1.5188   -1.0631 C   0  0  0  0  0  0  0  0  0  0  0  0
    2.1476    1.0325    0.2461 C   0  0  0  0  0  0  0  0  0  0  0  0
    1.0349    1.9320    0.7636 C   0  0  0  0  0  0  0  0  0  0  0  0
   -0.0598    2.0362   -0.1269 O   0  0  0  0  0  0  0  0  0  0  0  0
    3.2094    2.5036   -0.9369 H   0  0  0  0  0  0  0  0  0  0  0  0
    3.5257    0.8352   -1.4196 H   0  0  0  0  0  0  0  0  0  0  0  0
    1.9898    1.6049   -1.8363 H   0  0  0  0  0  0  0  0  0  0  0  0
    1.7536    0.0171    0.1218 H   0  0  0  0  0  0  0  0  0  0  0  0
    2.9197    0.9664    1.0187 H   0  0  0  0  0  0  0  0  0  0  0  0
    0.7001    1.5823    1.7483 H   0  0  0  0  0  0  0  0  0  0  0  0
    1.4074    2.9512    0.8882 H   0  0  0  0  0  0  0  0  0  0  0  0
   -0.6654   -2.7075   -1.4890 C   0  0  0  0  0  0  0  0  0  0  0  0
   -0.6654   -2.7075    0.0339 C   0  0  0  0  0  0  0  0  0  0  0  0
   -0.6654   -1.3149    0.6299 C   0  0  0  0  0  0  0  0  0  0  0  0
   -1.8505   -0.6514    0.2658 O   0  0  0  0  0  0  0  0  0  0  0  0
   -1.9112    0.6596    0.7509 C   0  0  0  0  0  3  0  0  0  0  0  0
    0.2170   -2.1938   -1.8788 H   0  0  0  0  0  0  0  0  0  0  0  0
   -1.5479   -2.1976   -1.8755 H   0  0  0  0  0  0  0  0  0  0  0  0
   -0.6605   -3.7255   -1.8813 H   0  0  0  0  0  0  0  0  0  0  0  0
   -1.5395   -3.2456    0.4095 H   0  0  0  0  0  0  0  0  0  0  0  0
    0.2163   -3.2336    0.4101 H   0  0  0  0  0  0  0  0  0  0  0  0
   -0.5886   -1.3686    1.7260 H   0  0  0  0  0  0  0  0  0  0  0  0
    0.2070   -0.7479    0.2677 H   0  0  0  0  0  0  0  0  0  0  0  0
   -0.9226    1.3947    0.2822 H   0  0  0  0  0  0  0  0  0  0  0  0
   -1.8692    0.6858    1.8484 H   0  0  0  0  0  0  0  0  0  0  0  0
   -2.8569    1.0898    0.4238 H   0  0  0  0  0  0  0  0  0  0  0  0
  1  2  1  0
  1  5  1  0
  1  6  1  0
  1  7  1  0
  2  3  1  0
  2  8  1  0
  2  9  1  0
  3  4  1  0
  3 10  1  0
  3 11  1  0
  4 24  1  0
 12 13  1  0
 12 17  1  0
 12 18  1  0
 12 19  1  0
 13 14  1  0
 13 20  1  0
 13 21  1  0
 14 15  1  0
 14 22  1  0
 14 23  1  0
 15 16  1  0
 16 25  1  0
 16 26  1  0
M  RAD  1  16   2
M  END
>  <reaction>  (10) 
rmg_rxn_682

>  <mol_properties>  (10) 
{"2": {"label": "*4", "atom_type": "Cs"}, "3": {"label": "*3", "atom_type": "O2s"}, "14": {"label": "*0", "atom_type": "O2s"}, "15": {"label": "*1", "atom_type": "Cs"}, "23": {"label": "*2", "atom_type": "H0"}}

>  <type>  (10) 
unop_6

>  <geom_source>  (10) 
Heuristics

$$$$

     RDKit          3D

 26 24  0  0  0  0  0  0  0  0999 V2000
    2.9751    1.7252   -0.2968 C   0  0  0  0  0  0  0  0  0  0  0  0
    2.0549    1.5900    0.9085 C   0  0  0  0  0  0  0  0  0  0  0  0
    0.7313    2.3210    0.7388 C   0  0  0  0  0  0  0  0  0  0  0  0
   -0.0318    1.8492   -0.3554 O   0  0  0  0  0  0  0  0  0  0  0  0
    3.2391    2.7715   -0.4673 H   0  0  0  0  0  0  0  0  0  0  0  0
    3.9001    1.1649   -0.1532 H   0  0  0  0  0  0  0  0  0  0  0  0
    2.4885    1.3560   -1.2001 H   0  0  0  0  0  0  0  0  0  0  0  0
    1.8521    0.5313    1.1077 H   0  0  0  0  0  0  0  0  0  0  0  0
    2.5467    1.9792    1.8051 H   0  0  0  0  0  0  0  0  0  0  0  0
    0.1510    2.2626    1.6683 H   0  0  0  0  0  0  0  0  0  0  0  0
    0.9133    3.3781    0.5332 H   0  0  0  0  0  0  0  0  0  0  0  0
   -0.6375   -2.8945   -1.7176 C   0  0  0  0  0  0  0  0  0  0  0  0
   -0.6375   -2.8945   -0.1947 C   0  0  0  0  0  0  0  0  0  0  0  0
   -0.6375   -1.5019    0.4014 C   0  0  0  0  0  0  0  0  0  0  0  0
   -1.8225   -0.8384    0.0372 O   0  0  0  0  0  0  0  0  0  0  0  0
   -1.8833    0.4727    0.5224 C   0  0  0  0  0  3  0  0  0  0  0  0
    0.2449   -2.3808   -2.1073 H   0  0  0  0  0  0  0  0  0  0  0  0
   -1.5199   -2.3846   -2.1040 H   0  0  0  0  0  0  0  0  0  0  0  0
   -0.6325   -3.9125   -2.1099 H   0  0  0  0  0  0  0  0  0  0  0  0
   -1.5116   -3.4326    0.1809 H   0  0  0  0  0  0  0  0  0  0  0  0
    0.2443   -3.4206    0.1816 H   0  0  0  0  0  0  0  0  0  0  0  0
   -0.5606   -1.5556    1.4974 H   0  0  0  0  0  0  0  0  0  0  0  0
    0.2349   -0.9348    0.0392 H   0  0  0  0  0  0  0  0  0  0  0  0
   -0.8946    1.2077    0.0536 H   0  0  0  0  0  0  0  0  0  0  0  0
   -1.8413    0.4988    1.6199 H   0  0  0  0  0  0  0  0  0  0  0  0
   -2.8290    0.9028    0.1953 H   0  0  0  0  0  0  0  0  0  0  0  0
  1  2  1  0
  1  5  1  0
  1  6  1  0
  1  7  1  0
  2  3  1  0
  2  8  1  0
  2  9  1  0
  3  4  1  0
  3 10  1  0
  3 11  1  0
  4 24  1  0
 12 13  1  0
 12 17  1  0
 12 18  1  0
 12 19  1  0
 13 14  1  0
 13 20  1  0
 13 21  1  0
 14 15  1  0
 14 22  1  0
 14 23  1  0
 15 16  1  0
 16 25  1  0
 16 26  1  0
M  RAD  1  16   2
M  END
>  <reaction>  (11) 
rmg_rxn_682

>  <mol_properties>  (11) 
{"2": {"label": "*4", "atom_type": "Cs"}, "3": {"label": "*3", "atom_type": "O2s"}, "14": {"label": "*0", "atom_type": "O2s"}, "15": {"label": "*1", "atom_type": "Cs"}, "23": {"label": "*2", "atom_type": "H0"}}

>  <type>  (11) 
unop_7

>  <geom_source>  (11) 
Heuristics

$$$$

     RDKit          3D

 26 24  0  0  0  0  0  0  0  0999 V2000
   -1.4791    2.9875   -0.0523 C   0  0  0  0  0  0  0  0  0  0  0  0
   -0.7774    2.1994   -1.1497 C   0  0  0  0  0  0  0  0  0  0  0  0
    0.7358    2.1685   -0.9933 C   0  0  0  0  0  0  0  0  0  0  0  0
    1.1610    1.5666    0.2146 O   0  0  0  0  0  0  0  0  0  0  0  0
   -1.1630    4.0331   -0.0635 H   0  0  0  0  0  0  0  0  0  0  0  0
   -2.5624    2.9631   -0.1787 H   0  0  0  0  0  0  0  0  0  0  0  0
   -1.2404    2.5808    0.9309 H   0  0  0  0  0  0  0  0  0  0  0  0
   -1.1527    1.1697   -1.1696 H   0  0  0  0  0  0  0  0  0  0  0  0
   -1.0101    2.6267   -2.1298 H   0  0  0  0  0  0  0  0  0  0  0  0
    1.1898    1.6656   -1.8564 H   0  0  0  0  0  0  0  0  0  0  0  0
    1.1283    3.1875   -0.9653 H   0  0  0  0  0  0  0  0  0  0  0  0
    0.5554   -3.1770   -1.1475 C   0  0  0  0  0  0  0  0  0  0  0  0
    0.5554   -3.1770    0.3754 C   0  0  0  0  0  0  0  0  0  0  0  0
    0.5554   -1.7845    0.9714 C   0  0  0  0  0  0  0  0  0  0  0  0
   -0.6296   -1.1210    0.6073 O   0  0  0  0  0  0  0  0  0  0  0  0
   -0.6904    0.1901    1.0925 C   0  0  0  0  0  3  0  0  0  0  0  0
    1.4378   -2.6634   -1.5372 H   0  0  0  0  0  0  0  0  0  0  0  0
   -0.3270   -2.6671   -1.5339 H   0  0  0  0  0  0  0  0  0  0  0  0
    0.5603   -4.1950   -1.5398 H   0  0  0  0  0  0  0  0  0  0  0  0
   -0.3187   -3.7152    0.7510 H   0  0  0  0  0  0  0  0  0  0  0  0
    1.4372   -3.7032    0.7516 H   0  0  0  0  0  0  0  0  0  0  0  0
    0.6323   -1.8382    2.0675 H   0  0  0  0  0  0  0  0  0  0  0  0
    1.4278   -1.2174    0.6092 H   0  0  0  0  0  0  0  0  0  0  0  0
    0.2983    0.9252    0.6237 H   0  0  0  0  0  0  0  0  0  0  0  0
   -0.6484    0.2162    2.1899 H   0  0  0  0  0  0  0  0  0  0  0  0
   -1.6361    0.6202    0.7653 H   0  0  0  0  0  0  0  0  0  0  0  0
  1  2  1  0
  1  5  1  0
  1  6  1  0
  1  7  1  0
  2  3  1  0
  2  8  1  0
  2  9  1  0
  3  4  1  0
  3 10  1  0
  3 11  1  0
  4 24  1  0
 12 13  1  0
 12 17  1  0
 12 18  1  0
 12 19  1  0
 13 14  1  0
 13 20  1  0
 13 21  1  0
 14 15  1  0
 14 22  1  0
 14 23  1  0
 15 16  1  0
 16 25  1  0
 16 26  1  0
M  RAD  1  16   2
M  END
>  <reaction>  (12) 
rmg_rxn_682

>  <mol_properties>  (12) 
{"2": {"label": "*4", "atom_type": "Cs"}, "3": {"label": "*3", "atom_type": "O2s"}, "14": {"label": "*0", "atom_type": "O2s"}, "15": {"label": "*1", "atom_type": "Cs"}, "23": {"label": "*2", "atom_type": "H0"}}

>  <type>  (12) 
unop_8

>  <geom_source>  (12) 
Heuristics

$$$$

     RDKit          3D

 26 24  0  0  0  0  0  0  0  0999 V2000
    1.2621    1.5377   -2.3558 C   0  0  0  0  0  0  0  0  0  0  0  0
    1.3059    0.6102   -1.1493 C   0  0  0  0  0  0  0  0  0  0  0  0
    1.3785    1.3527    0.1768 C   0  0  0  0  0  0  0  0  0  0  0  0
    0.2658    2.1959    0.4073 O   0  0  0  0  0  0  0  0  0  0  0  0
    2.1682    2.1453   -2.4106 H   0  0  0  0  0  0  0  0  0  0  0  0
    1.1798    0.9733   -3.2858 H   0  0  0  0  0  0  0  0  0  0  0  0
    0.4119    2.2175   -2.2922 H   0  0  0  0  0  0  0  0  0  0  0  0
    0.4228   -0.0393   -1.1440 H   0  0  0  0  0  0  0  0  0  0  0  0
    2.1721   -0.0552   -1.2153 H   0  0  0  0  0  0  0  0  0  0  0  0
    1.4973    0.6363    0.9994 H   0  0  0  0  0  0  0  0  0  0  0  0
    2.2503    2.0106    0.1881 H   0  0  0  0  0  0  0  0  0  0  0  0
   -0.3398   -2.5478   -0.9549 C   0  0  0  0  0  0  0  0  0  0  0  0
   -0.3398   -2.5478    0.5680 C   0  0  0  0  0  0  0  0  0  0  0  0
   -0.3398   -1.1552    1.1641 C   0  0  0  0  0  0  0  0  0  0  0  0
   -1.5249   -0.4917    0.7999 O   0  0  0  0  0  0  0  0  0  0  0  0
   -1.5857    0.8194    1.2851 C   0  0  0  0  0  3  0  0  0  0  0  0
    0.5425   -2.0341   -1.3446 H   0  0  0  0  0  0  0  0  0  0  0  0
   -1.2223   -2.0379   -1.3413 H   0  0  0  0  0  0  0  0  0  0  0  0
   -0.3349   -3.5658   -1.3472 H   0  0  0  0  0  0  0  0  0  0  0  0
   -1.2140   -3.0859    0.9437 H   0  0  0  0  0  0  0  0  0  0  0  0
    0.5419   -3.0739    0.9443 H   0  0  0  0  0  0  0  0  0  0  0  0
   -0.2630   -1.2089    2.2601 H   0  0  0  0  0  0  0  0  0  0  0  0
    0.5325   -0.5882    0.8019 H   0  0  0  0  0  0  0  0  0  0  0  0
   -0.5970    1.5544    0.8163 H   0  0  0  0  0  0  0  0  0  0  0  0
   -1.5437    0.8455    2.3826 H   0  0  0  0  0  0  0  0  0  0  0  0
   -2.5314    1.2495    0.9580 H   0  0  0  0  0  0  0  0  0  0  0  0
  1  2  1  0
  1  5  1  0
  1  6  1  0
  1  7  1  0
  2  3  1  0
  2  8  1  0
  2  9  1  0
  3  4  1  0
  3 10  1  0
  3 11  1  0
  4 24  1  0
 12 13  1  0
 12 17  1  0
 12 18  1  0
 12 19  1  0
 13 14  1  0
 13 20  1  0
 13 21  1  0
 14 15  1  0
 14 22  1  0
 14 23  1  0
 15 16  1  0
 16 25  1  0
 16 26  1  0
M  RAD  1  16   2
M  END
>  <reaction>  (13) 
rmg_rxn_682

>  <mol_properties>  (13) 
{"2": {"label": "*4", "atom_type": "Cs"}, "3": {"label": "*3", "atom_type": "O2s"}, "14": {"label": "*0", "atom_type": "O2s"}, "15": {"label": "*1", "atom_type": "Cs"}, "23": {"label": "*2", "atom_type": "H0"}}

>  <type>  (13) 
unop_9

>  <geom_source>  (13) 
Heuristics

$$$$

     RDKit          3D

 26 24  0  0  0  0  0  0  0  0999 V2000
   -1.4165    2.6814   -1.0189 C   0  0  0  0  0  0  0  0  0  0  0  0
   -0.4520    1.6036   -1.4943 C   0  0  0  0  0  0  0  0  0  0  0  0
    0.9673    1.7991   -0.9821 C   0  0  0  0  0  0  0  0  0  0  0  0
    1.0609    1.7731    0.4296 O   0  0  0  0  0  0  0  0  0  0  0  0
   -1.1081    3.6646   -1.3814 H   0  0  0  0  0  0  0  0  0  0  0  0
   -2.4289    2.4932   -1.3792 H   0  0  0  0  0  0  0  0  0  0  0  0
   -1.4439    2.7247    0.0703 H   0  0  0  0  0  0  0  0  0  0  0  0
   -0.8095    0.6162   -1.1798 H   0  0  0  0  0  0  0  0  0  0  0  0
   -0.4197    1.5810   -2.5878 H   0  0  0  0  0  0  0  0  0  0  0  0
    1.6314    1.0476   -1.4273 H   0  0  0  0  0  0  0  0  0  0  0  0
    1.3391    2.7817   -1.2809 H   0  0  0  0  0  0  0  0  0  0  0  0
    0.4553   -2.9705   -0.9326 C   0  0  0  0  0  0  0  0  0  0  0  0
    0.4553   -2.9705    0.5903 C   0  0  0  0  0  0  0  0  0  0  0  0
    0.4553   -1.5779    1.1864 C   0  0  0  0  0  0  0  0  0  0  0  0
   -0.7297   -0.9145    0.8223 O   0  0  0  0  0  0  0  0  0  0  0  0
   -0.7905    0.3966    1.3074 C   0  0  0  0  0  3  0  0  0  0  0  0
    1.3377   -2.4569   -1.3223 H   0  0  0  0  0  0  0  0  0  0  0  0
   -0.4271   -2.4606   -1.3190 H   0  0  0  0  0  0  0  0  0  0  0  0
    0.4602   -3.9885   -1.3249 H   0  0  0  0  0  0  0  0  0  0  0  0
   -0.4188   -3.5087    0.9660 H   0  0  0  0  0  0  0  0  0  0  0  0
    1.3370   -3.4967    0.9666 H   0  0  0  0  0  0  0  0  0  0  0  0
    0.5321   -1.6316    2.2825 H   0  0  0  0  0  0  0  0  0  0  0  0
    1.3277   -1.0109    0.8242 H   0  0  0  0  0  0  0  0  0  0  0  0
    0.1982    1.1317    0.8387 H   0  0  0  0  0  0  0  0  0  0  0  0
   -0.7485    0.4227    2.4049 H   0  0  0  0  0  0  0  0  0  0  0  0
   -1.7362    0.8267    0.9803 H   0  0  0  0  0  0  0  0  0  0  0  0
  1  2  1  0
  1  5  1  0
  1  6  1  0
  1  7  1  0
  2  3  1  0
  2  8  1  0
  2  9  1  0
  3  4  1  0
  3 10  1  0
  3 11  1  0
  4 24  1  0
 12 13  1  0
 12 17  1  0
 12 18  1  0
 12 19  1  0
 13 14  1  0
 13 20  1  0
 13 21  1  0
 14 15  1  0
 14 22  1  0
 14 23  1  0
 15 16  1  0
 16 25  1  0
 16 26  1  0
M  RAD  1  16   2
M  END
>  <reaction>  (14) 
rmg_rxn_682

>  <mol_properties>  (14) 
{"2": {"label": "*4", "atom_type": "Cs"}, "3": {"label": "*3", "atom_type": "O2s"}, "14": {"label": "*0", "atom_type": "O2s"}, "15": {"label": "*1", "atom_type": "Cs"}, "23": {"label": "*2", "atom_type": "H0"}}

>  <type>  (14) 
unop_10

>  <geom_source>  (14) 
Heuristics

$$$$

     RDKit          3D

 26 24  0  0  0  0  0  0  0  0999 V2000
    2.8623    1.9370    0.6642 C   0  0  0  0  0  0  0  0  0  0  0  0
    1.5467    2.2279    1.3731 C   0  0  0  0  0  0  0  0  0  0  0  0
    0.4332    2.6472    0.4247 C   0  0  0  0  0  0  0  0  0  0  0  0
    0.1164    1.6593   -0.5375 O   0  0  0  0  0  0  0  0  0  0  0  0
    3.2333    2.8291    0.1545 H   0  0  0  0  0  0  0  0  0  0  0  0
    3.6279    1.6105    1.3694 H   0  0  0  0  0  0  0  0  0  0  0  0
    2.7343    1.1568   -0.0868 H   0  0  0  0  0  0  0  0  0  0  0  0
    1.2205    1.3445    1.9341 H   0  0  0  0  0  0  0  0  0  0  0  0
    1.6832    3.0236    2.1116 H   0  0  0  0  0  0  0  0  0  0  0  0
   -0.4591    2.9282    0.9982 H   0  0  0  0  0  0  0  0  0  0  0  0
    0.7426    3.5240   -0.1485 H   0  0  0  0  0  0  0  0  0  0  0  0
   -0.4892   -3.0844   -1.8997 C   0  0  0  0  0  0  0  0  0  0  0  0
   -0.4892   -3.0844   -0.3768 C   0  0  0  0  0  0  0  0  0  0  0  0
   -0.4892   -1.6918    0.2193 C   0  0  0  0  0  0  0  0  0  0  0  0
   -1.6742   -1.0284   -0.1449 O   0  0  0  0  0  0  0  0  0  0  0  0
   -1.7350    0.2827    0.3403 C   0  0  0  0  0  3  0  0  0  0  0  0
    0.3932   -2.5707   -2.2894 H   0  0  0  0  0  0  0  0  0  0  0  0
   -1.3716   -2.5745   -2.2861 H   0  0  0  0  0  0  0  0  0  0  0  0
   -0.4842   -4.1024   -2.2920 H   0  0  0  0  0  0  0  0  0  0  0  0
   -1.3633   -3.6225   -0.0011 H   0  0  0  0  0  0  0  0  0  0  0  0
    0.3926   -3.6105   -0.0005 H   0  0  0  0  0  0  0  0  0  0  0  0
   -0.4123   -1.7455    1.3153 H   0  0  0  0  0  0  0  0  0  0  0  0
    0.3832   -1.1248   -0.1429 H   0  0  0  0  0  0  0  0  0  0  0  0
   -0.7463    1.0178   -0.1285 H   0  0  0  0  0  0  0  0  0  0  0  0
   -1.6930    0.3089    1.4378 H   0  0  0  0  0  0  0  0  0  0  0  0
   -2.6807    0.7129    0.0132 H   0  0  0  0  0  0  0  0  0  0  0  0
  1  2  1  0
  1  5  1  0
  1  6  1  0
  1  7  1  0
  2  3  1  0
  2  8  1  0
  2  9  1  0
  3  4  1  0
  3 10  1  0
  3 11  1  0
  4 24  1  0
 12 13  1  0
 12 17  1  0
 12 18  1  0
 12 19  1  0
 13 14  1  0
 13 20  1  0
 13 21  1  0
 14 15  1  0
 14 22  1  0
 14 23  1  0
 15 16  1  0
 16 25  1  0
 16 26  1  0
M  RAD  1  16   2
M  END
>  <reaction>  (15) 
rmg_rxn_682

>  <mol_properties>  (15) 
{"2": {"label": "*4", "atom_type": "Cs"}, "3": {"label": "*3", "atom_type": "O2s"}, "14": {"label": "*0", "atom_type": "O2s"}, "15": {"label": "*1", "atom_type": "Cs"}, "23": {"label": "*2", "atom_type": "H0"}}

>  <type>  (15) 
unop_11

>  <geom_source>  (15) 
Heuristics

$$$$

     RDKit          3D

 26 24  0  0  0  0  0  0  0  0999 V2000
    0.0708    1.8769   -2.4070 C   0  0  0  0  0  0  0  0  0  0  0  0
    0.6122    0.7778   -1.5033 C   0  0  0  0  0  0  0  0  0  0  0  0
    1.3706    1.3111   -0.2968 C   0  0  0  0  0  0  0  0  0  0  0  0
    0.5764    2.1195    0.5504 O   0  0  0  0  0  0  0  0  0  0  0  0
    0.8858    2.4781   -2.8167 H   0  0  0  0  0  0  0  0  0  0  0  0
   -0.4920    1.4600   -3.2433 H   0  0  0  0  0  0  0  0  0  0  0  0
   -0.5870    2.5466   -1.8522 H   0  0  0  0  0  0  0  0  0  0  0  0
   -0.2096    0.1426   -1.1529 H   0  0  0  0  0  0  0  0  0  0  0  0
    1.2841    0.1226   -2.0659 H   0  0  0  0  0  0  0  0  0  0  0  0
    1.8107    0.4779    0.2653 H   0  0  0  0  0  0  0  0  0  0  0  0
    2.1912    1.9523   -0.6264 H   0  0  0  0  0  0  0  0  0  0  0  0
   -0.0293   -2.6242   -0.8117 C   0  0  0  0  0  0  0  0  0  0  0  0
   -0.0293   -2.6242    0.7112 C   0  0  0  0  0  0  0  0  0  0  0  0
   -0.0293   -1.2316    1.3073 C   0  0  0  0  0  0  0  0  0  0  0  0
   -1.2143   -0.5682    0.9431 O   0  0  0  0  0  0  0  0  0  0  0  0
   -1.2751    0.7429    1.4283 C   0  0  0  0  0  3  0  0  0  0  0  0
    0.8531   -2.1106   -1.2014 H   0  0  0  0  0  0  0  0  0  0  0  0
   -0.9117   -2.1143   -1.1981 H   0  0  0  0  0  0  0  0  0  0  0  0
   -0.0243   -3.6422   -1.2040 H   0  0  0  0  0  0  0  0  0  0  0  0
   -0.9034   -3.1624    1.0868 H   0  0  0  0  0  0  0  0  0  0  0  0
    0.8525   -3.1503    1.0875 H   0  0  0  0  0  0  0  0  0  0  0  0
    0.0476   -1.2853    2.4033 H   0  0  0  0  0  0  0  0  0  0  0  0
    0.8431   -0.6646    0.9451 H   0  0  0  0  0  0  0  0  0  0  0  0
   -0.2864    1.4780    0.9595 H   0  0  0  0  0  0  0  0  0  0  0  0
   -1.2331    0.7690    2.5258 H   0  0  0  0  0  0  0  0  0  0  0  0
   -2.2208    1.1731    1.1012 H   0  0  0  0  0  0  0  0  0  0  0  0
  1  2  1  0
  1  5  1  0
  1  6  1  0
  1  7  1  0
  2  3  1  0
  2  8  1  0
  2  9  1  0
  3  4  1  0
  3 10  1  0
  3 11  1  0
  4 24  1  0
 12 13  1  0
 12 17  1  0
 12 18  1  0
 12 19  1  0
 13 14  1  0
 13 20  1  0
 13 21  1  0
 14 15  1  0
 14 22  1  0
 14 23  1  0
 15 16  1  0
 16 25  1  0
 16 26  1  0
M  RAD  1  16   2
M  END
>  <reaction>  (16) 
rmg_rxn_682

>  <mol_properties>  (16) 
{"2": {"label": "*4", "atom_type": "Cs"}, "3": {"label": "*3", "atom_type": "O2s"}, "14": {"label": "*0", "atom_type": "O2s"}, "15": {"label": "*1", "atom_type": "Cs"}, "23": {"label": "*2", "atom_type": "H0"}}

>  <type>  (16) 
unop_12

>  <geom_source>  (16) 
Heuristics

$$$$

     RDKit          3D

 26 24  0  0  0  0  0  0  0  0999 V2000
   -1.4555   -0.3611    0.0377 O   0  0  0  0  0  0  0  0  0  0  0  0
    1.5267   -1.3642   -0.0267 O   0  0  0  0  0  0  0  0  0  0  0  0
    3.4241    0.0441    0.4001 C   0  0  0  0  0  0  0  0  0  0  0  0
   -3.8181   -0.2927   -0.4125 C   0  0  0  0  0  0  0  0  0  0  0  0
   -2.7251   -0.5539    0.6250 C   0  0  0  0  0  0  0  0  0  0  0  0
    2.5132   -0.5926   -0.6507 C   0  0  0  0  0  0  0  0  0  0  0  0
    4.5275    0.8714   -0.2527 C   0  0  0  0  0  0  0  0  0  0  0  0
   -3.8356    1.1655   -0.8666 C   0  0  0  0  0  0  0  0  0  0  0  0
   -0.4599   -0.5891    1.0079 C   0  0  0  0  0  3  0  0  0  0  0  0
    2.8225    0.7020    1.0641 H   0  0  0  0  0  0  0  0  0  0  0  0
    3.8864   -0.7537    1.0210 H   0  0  0  0  0  0  0  0  0  0  0  0
   -3.6594   -0.9517   -1.2936 H   0  0  0  0  0  0  0  0  0  0  0  0
   -4.8061   -0.5423    0.0315 H   0  0  0  0  0  0  0  0  0  0  0  0
    3.1118   -1.2529   -1.3140 H   0  0  0  0  0  0  0  0  0  0  0  0
    2.0371    0.1938   -1.2777 H   0  0  0  0  0  0  0  0  0  0  0  0
   -2.8771    0.1339    1.4892 H   0  0  0  0  0  0  0  0  0  0  0  0
   -2.8336   -1.6053    0.9774 H   0  0  0  0  0  0  0  0  0  0  0  0
    4.0872    1.6897   -0.8615 H   0  0  0  0  0  0  0  0  0  0  0  0
    5.1701    1.3202    0.5338 H   0  0  0  0  0  0  0  0  0  0  0  0
    5.1585    0.2286   -0.9029 H   0  0  0  0  0  0  0  0  0  0  0  0
   -4.0078    1.8381    0.0006 H   0  0  0  0  0  0  0  0  0  0  0  0
   -2.8739    1.4329   -1.3535 H   0  0  0  0  0  0  0  0  0  0  0  0
   -4.6560    1.3155   -1.5997 H   0  0  0  0  0  0  0  0  0  0  0  0
   -0.4689   -1.6392    1.3756 H   0  0  0  0  0  0  0  0  0  0  0  0
   -0.5107    0.1505    1.8375 H   0  0  0  0  0  0  0  0  0  0  0  0
    0.7226   -0.5871    0.4107 H   0  0  0  0  0  0  0  0  0  0  0  0
  1  9  1  0
  1  5  1  0
  2  6  1  0
  2 26  1  0
  3  7  1  0
  3  6  1  0
  3 10  1  0
  3 11  1  0
  4  8  1  0
  4  5  1  0
  4 12  1  0
  4 13  1  0
  5 16  1  0
  5 17  1  0
  6 14  1  0
  6 15  1  0
  7 18  1  0
  7 19  1  0
  7 20  1  0
  8 21  1  0
  8 22  1  0
  8 23  1  0
  9 24  1  0
  9 25  1  0
M  RAD  1   9   2
M  END
>  <reaction>  (17) 
rmg_rxn_682

>  <mol_properties>  (17) 
{"2": {"label": "*4", "atom_type": "Cs"}, "3": {"label": "*3", "atom_type": "O2s"}, "14": {"label": "*0", "atom_type": "O2s"}, "15": {"label": "*1", "atom_type": "Cs"}, "23": {"label": "*2", "atom_type": "H0"}}

>  <type>  (17) 
unop_13

>  <geom_source>  (17) 
AutoTST

$$$$

     RDKit          3D

 26 24  0  0  0  0  0  0  0  0999 V2000
   -0.9110    2.2937   -1.8650 C   0  0  0  0  0  0  0  0  0  0  0  0
    0.0114    1.1139   -1.5908 C   0  0  0  0  0  0  0  0  0  0  0  0
    1.2146    1.4785   -0.7338 C   0  0  0  0  0  0  0  0  0  0  0  0
    0.8619    1.9687    0.5458 O   0  0  0  0  0  0  0  0  0  0  0  0
   -0.3855    3.0762   -2.4172 H   0  0  0  0  0  0  0  0  0  0  0  0
   -1.7768    1.9901   -2.4551 H   0  0  0  0  0  0  0  0  0  0  0  0
   -1.2692    2.7312   -0.9326 H   0  0  0  0  0  0  0  0  0  0  0  0
   -0.5459    0.3102   -1.0957 H   0  0  0  0  0  0  0  0  0  0  0  0
    0.3781    0.6940   -2.5324 H   0  0  0  0  0  0  0  0  0  0  0  0
    1.8851    0.6144   -0.6453 H   0  0  0  0  0  0  0  0  0  0  0  0
    1.7800    2.2834   -1.2088 H   0  0  0  0  0  0  0  0  0  0  0  0
    0.2563   -2.7750   -0.8163 C   0  0  0  0  0  0  0  0  0  0  0  0
    0.2563   -2.7750    0.7066 C   0  0  0  0  0  0  0  0  0  0  0  0
    0.2563   -1.3824    1.3026 C   0  0  0  0  0  0  0  0  0  0  0  0
   -0.9287   -0.7190    0.9385 O   0  0  0  0  0  0  0  0  0  0  0  0
   -0.9896    0.5921    1.4237 C   0  0  0  0  0  3  0  0  0  0  0  0
    1.1387   -2.2613   -1.2060 H   0  0  0  0  0  0  0  0  0  0  0  0
   -0.6262   -2.2651   -1.2027 H   0  0  0  0  0  0  0  0  0  0  0  0
    0.2612   -3.7930   -1.2086 H   0  0  0  0  0  0  0  0  0  0  0  0
   -0.6178   -3.3131    1.0822 H   0  0  0  0  0  0  0  0  0  0  0  0
    1.1380   -3.3011    1.0828 H   0  0  0  0  0  0  0  0  0  0  0  0
    0.3331   -1.4361    2.3987 H   0  0  0  0  0  0  0  0  0  0  0  0
    1.1287   -0.8154    0.9405 H   0  0  0  0  0  0  0  0  0  0  0  0
   -0.0009    1.3272    0.9549 H   0  0  0  0  0  0  0  0  0  0  0  0
   -0.9476    0.6182    2.5211 H   0  0  0  0  0  0  0  0  0  0  0  0
   -1.9352    1.0223    1.0965 H   0  0  0  0  0  0  0  0  0  0  0  0
  1  2  1  0
  1  5  1  0
  1  6  1  0
  1  7  1  0
  2  3  1  0
  2  8  1  0
  2  9  1  0
  3  4  1  0
  3 10  1  0
  3 11  1  0
  4 24  1  0
 12 13  1  0
 12 17  1  0
 12 18  1  0
 12 19  1  0
 13 14  1  0
 13 20  1  0
 13 21  1  0
 14 15  1  0
 14 22  1  0
 14 23  1  0
 15 16  1  0
 16 25  1  0
 16 26  1  0
M  RAD  1  16   2
M  END
>  <reaction>  (18) 
rmg_rxn_682

>  <mol_properties>  (18) 
{"2": {"label": "*4", "atom_type": "Cs"}, "3": {"label": "*3", "atom_type": "O2s"}, "14": {"label": "*0", "atom_type": "O2s"}, "15": {"label": "*1", "atom_type": "Cs"}, "23": {"label": "*2", "atom_type": "H0"}}

>  <type>  (18) 
unop_14

>  <geom_source>  (18) 
gaussian_log

$$$$
