
     RDKit          3D

  9  8  0  0  0  0  0  0  0  0999 V2000
   -1.2461    0.5037    0.0950 C   0  0  0  0  0  0  0  0  0  0  0  0
   -0.0155   -0.3334    0.0640 C   0  0  0  0  0  0  0  0  0  0  0  0
    1.0697    0.1457   -0.3733 N   0  0  0  0  0  0  0  0  0  0  0  0
    2.1001   -0.7834   -0.3224 O   0  0  0  0  0  0  0  0  0  0  0  0
   -2.0357    0.0440   -0.5039 H   0  0  0  0  0  0  0  0  0  0  0  0
   -1.6237    0.5897    1.1166 H   0  0  0  0  0  0  0  0  0  0  0  0
   -1.0397    1.4998   -0.2929 H   0  0  0  0  0  0  0  0  0  0  0  0
   -0.0537   -1.3634    0.4205 H   0  0  0  0  0  0  0  0  0  0  0  0
    2.8478   -0.2985   -0.6758 H   0  0  0  0  0  0  0  0  0  0  0  0
  1  2  1  0
  1  5  1  0
  1  6  1  0
  1  7  1  0
  2  3  2  3
  2  8  1  0
  3  4  1  0
  4  9  1  0
M  END
>  <reaction>  (1) 
rmg_rxn_156

>  <mol_properties>  (1) 
{"3": {"label": "donator", "atom_type": "O2s"}, "8": {"label": "d_hydrogen", "atom_type": "H0"}}

>  <type>  (1) 
r1h

$$$$

     RDKit          3D

 17 16  0  0  0  0  0  0  0  0999 V2000
    3.2128    0.1260   -0.7228 C   0  0  0  0  0  3  0  0  0  0  0  0
    2.0005    0.6432   -0.0603 C   0  0  0  0  0  0  0  0  0  0  0  0
    0.8631    0.3123   -0.8102 O   0  0  0  0  0  0  0  0  0  0  0  0
   -0.3318    0.7959   -0.2483 C   0  0  0  0  0  0  0  0  0  0  0  0
   -1.5012    0.3530   -1.1031 C   0  0  0  0  0  0  0  0  0  0  0  0
   -1.6702   -1.1598   -1.1495 C   0  0  0  0  0  0  0  0  0  0  0  0
    4.1735    0.2150   -0.2365 H   0  0  0  0  0  0  0  0  0  0  0  0
    3.1498   -0.2830   -1.7203 H   0  0  0  0  0  0  0  0  0  0  0  0
    2.0642    1.7419    0.0626 H   0  0  0  0  0  0  0  0  0  0  0  0
    1.9152    0.2371    0.9639 H   0  0  0  0  0  0  0  0  0  0  0  0
   -0.4457    0.4112    0.7774 H   0  0  0  0  0  0  0  0  0  0  0  0
   -0.2986    1.8934   -0.1852 H   0  0  0  0  0  0  0  0  0  0  0  0
   -1.3614    0.7468   -2.1131 H   0  0  0  0  0  0  0  0  0  0  0  0
   -2.4051    0.8206   -0.7031 H   0  0  0  0  0  0  0  0  0  0  0  0
   -1.8374   -1.5641   -0.1481 H   0  0  0  0  0  0  0  0  0  0  0  0
   -0.7790   -1.6360   -1.5583 H   0  0  0  0  0  0  0  0  0  0  0  0
   -2.5223   -1.4403   -1.7702 H   0  0  0  0  0  0  0  0  0  0  0  0
  1  2  1  0
  1  7  1  0
  1  8  1  0
  2  3  1  0
  2  9  1  0
  2 10  1  0
  3  4  1  0
  4  5  1  0
  4 11  1  0
  4 12  1  0
  5  6  1  0
  5 13  1  0
  5 14  1  0
  6 15  1  0
  6 16  1  0
  6 17  1  0
M  RAD  1   1   2
M  END
>  <reaction>  (2) 
rmg_rxn_156

>  <mol_properties>  (2) 
{"0": {"label": "acceptor", "atom_type": "Cs"}}

>  <type>  (2) 
r2

$$$$

     RDKit          3D

 18 17  0  0  0  0  0  0  0  0999 V2000
    2.2026   -0.7213   -0.2612 C   0  0  0  0  0  0  0  0  0  0  0  0
    1.5384    0.2638    0.6915 C   0  0  0  0  0  0  0  0  0  0  0  0
    2.2584    1.5946    0.7694 C   0  0  0  0  0  0  0  0  0  0  0  0
    2.2212    2.2185   -0.4893 O   0  0  0  0  0  0  0  0  0  0  0  0
    2.8988    3.4488   -0.5204 C   0  0  0  0  0  0  0  0  0  0  0  0
    2.7981    4.0296   -1.9118 C   0  0  0  0  0  0  0  0  0  0  0  0
    3.2294   -0.9309    0.0486 H   0  0  0  0  0  0  0  0  0  0  0  0
    2.2338   -0.3181   -1.2734 H   0  0  0  0  0  0  0  0  0  0  0  0
    1.6610   -1.6680   -0.2875 H   0  0  0  0  0  0  0  0  0  0  0  0
    1.4990   -0.1566    1.7002 H   0  0  0  0  0  0  0  0  0  0  0  0
    0.5055    0.4455    0.3835 H   0  0  0  0  0  0  0  0  0  0  0  0
    3.3038    1.4410    1.0808 H   0  0  0  0  0  0  0  0  0  0  0  0
    1.7844    2.2410    1.5226 H   0  0  0  0  0  0  0  0  0  0  0  0
    2.4596    4.1376    0.2164 H   0  0  0  0  0  0  0  0  0  0  0  0
    3.9524    3.3035   -0.2397 H   0  0  0  0  0  0  0  0  0  0  0  0
    1.7543    4.1869   -2.1856 H   0  0  0  0  0  0  0  0  0  0  0  0
    3.2472    3.3545   -2.6411 H   0  0  0  0  0  0  0  0  0  0  0  0
    3.3178    4.9878   -1.9600 H   0  0  0  0  0  0  0  0  0  0  0  0
  1  2  1  0
  1  7  1  0
  1  8  1  0
  1  9  1  0
  2  3  1  0
  2 10  1  0
  2 11  1  0
  3  4  1  0
  3 12  1  0
  3 13  1  0
  4  5  1  0
  5  6  1  0
  5 14  1  0
  5 15  1  0
  6 16  1  0
  6 17  1  0
  6 18  1  0
M  END
>  <reaction>  (3) 
rmg_rxn_156

>  <mol_properties>  (3) 
{"0": {"label": "a_hydrogen", "atom_type": "H0"}, "1": {"label": "acceptor", "atom_type": "Cs"}}

>  <type>  (3) 
r2h

$$$$

     RDKit          3D

 26 24  0  0  0  0  0  0  0  0999 V2000
   -0.9550   -2.2303   -2.7266 C   0  0  0  0  0  0  0  0  0  0  0  0
    0.0291   -2.4954   -1.6401 C   0  0  0  0  0  0  0  0  0  0  0  0
    0.6832   -1.5400   -1.1231 N   0  0  0  0  0  0  0  0  0  0  0  0
    1.5382   -1.8819   -0.1577 O   0  0  0  0  0  0  0  0  0  0  0  0
   -0.6887   -2.7802   -3.6326 H   0  0  0  0  0  0  0  0  0  0  0  0
   -1.9538   -2.5605   -2.4308 H   0  0  0  0  0  0  0  0  0  0  0  0
   -0.9886   -1.1663   -2.9569 H   0  0  0  0  0  0  0  0  0  0  0  0
    0.1814   -3.5172   -1.2915 H   0  0  0  0  0  0  0  0  0  0  0  0
    2.0087   -0.8533    0.2176 H   0  0  0  0  0  0  0  0  0  0  0  0
    2.4337    0.3717    0.5056 C   0  0  0  0  0  3  0  0  0  0  0  0
    1.3339    1.2693    0.0569 C   0  0  0  0  0  0  0  0  0  0  0  0
    0.2510    1.1569    0.9368 O   0  0  0  0  0  0  0  0  0  0  0  0
   -0.9160    1.7846    0.4643 C   0  0  0  0  0  0  0  0  0  0  0  0
   -2.0198    1.6187    1.4878 C   0  0  0  0  0  0  0  0  0  0  0  0
   -1.7146    2.2983    2.8160 C   0  0  0  0  0  0  0  0  0  0  0  0
    3.3549    0.4585   -0.0655 H   0  0  0  0  0  0  0  0  0  0  0  0
    2.5824    0.3250    1.5822 H   0  0  0  0  0  0  0  0  0  0  0  0
    1.0283    0.9954   -0.9645 H   0  0  0  0  0  0  0  0  0  0  0  0
    1.6928    2.3137    0.0179 H   0  0  0  0  0  0  0  0  0  0  0  0
   -0.7221    2.8541    0.2861 H   0  0  0  0  0  0  0  0  0  0  0  0
   -1.2125    1.3365   -0.4943 H   0  0  0  0  0  0  0  0  0  0  0  0
   -2.1888    0.5500    1.6423 H   0  0  0  0  0  0  0  0  0  0  0  0
   -2.9391    2.0271    1.0588 H   0  0  0  0  0  0  0  0  0  0  0  0
   -1.5631    3.3720    2.6791 H   0  0  0  0  0  0  0  0  0  0  0  0
   -0.8095    1.8860    3.2619 H   0  0  0  0  0  0  0  0  0  0  0  0
   -2.5344    2.1637    3.5232 H   0  0  0  0  0  0  0  0  0  0  0  0
  1  2  1  0
  1  5  1  0
  1  6  1  0
  1  7  1  0
  2  3  2  3
  2  8  1  0
  3  4  1  0
  4  9  1  0
 10 11  1  0
 10 16  1  0
 10 17  1  0
 11 12  1  0
 11 18  1  0
 11 19  1  0
 12 13  1  0
 13 14  1  0
 13 20  1  0
 13 21  1  0
 14 15  1  0
 14 22  1  0
 14 23  1  0
 15 24  1  0
 15 25  1  0
 15 26  1  0
M  RAD  1  10   2
M  END
>  <reaction>  (4) 
rmg_rxn_156

>  <mol_properties>  (4) 
{"2": {"label": "*0", "atom_type": "N3d"}, "3": {"label": "*1", "atom_type": "O2s"}, "8": {"label": "*2", "atom_type": "H0"}, "9": {"label": "*3", "atom_type": "Cs"}, "10": {"label": "*4", "atom_type": "Cs"}}

>  <type>  (4) 
ts

$$$$

     RDKit          3D

 26 24  0  0  0  0  0  0  0  0999 V2000
    0.6459   -2.9107   -4.6904 C   0  0  0  0  0  0  0  0  0  0  0  0
    0.6459   -2.9107   -3.2018 C   0  0  0  0  0  0  0  0  0  0  0  0
    0.6459   -1.8186   -2.5650 N   0  0  0  0  0  0  0  0  0  0  0  0
    0.6459   -2.0233   -1.1918 O   0  0  0  0  0  0  0  0  0  0  0  0
    1.5253   -3.4345   -5.0722 H   0  0  0  0  0  0  0  0  0  0  0  0
   -0.2335   -3.4345   -5.0722 H   0  0  0  0  0  0  0  0  0  0  0  0
    0.6459   -1.8910   -5.0719 H   0  0  0  0  0  0  0  0  0  0  0  0
    0.6459   -3.8582   -2.6616 H   0  0  0  0  0  0  0  0  0  0  0  0
    0.6459   -0.9536   -0.7684 H   0  0  0  0  0  0  0  0  0  0  0  0
    0.6459    0.2639   -0.2866 C   0  0  0  0  0  3  0  0  0  0  0  0
   -0.5817    0.4899    0.5651 C   0  0  0  0  0  0  0  0  0  0  0  0
   -0.2226    1.2501    1.6907 O   0  0  0  0  0  0  0  0  0  0  0  0
   -1.3024    1.5162    2.5498 C   0  0  0  0  0  0  0  0  0  0  0  0
   -0.8249    2.3699    3.7068 C   0  0  0  0  0  0  0  0  0  0  0  0
   -0.3158    3.7375    3.2713 C   0  0  0  0  0  0  0  0  0  0  0  0
    1.0635    1.2162   -0.6154 H   0  0  0  0  0  0  0  0  0  0  0  0
    1.4104   -0.2700    0.2790 H   0  0  0  0  0  0  0  0  0  0  0  0
   -1.0112   -0.4716    0.8833 H   0  0  0  0  0  0  0  0  0  0  0  0
   -1.3574    1.0162   -0.0104 H   0  0  0  0  0  0  0  0  0  0  0  0
   -2.1001    2.0388    1.9985 H   0  0  0  0  0  0  0  0  0  0  0  0
   -1.7269    0.5723    2.9223 H   0  0  0  0  0  0  0  0  0  0  0  0
   -0.0374    1.8276    4.2365 H   0  0  0  0  0  0  0  0  0  0  0  0
   -1.6573    2.4835    4.4067 H   0  0  0  0  0  0  0  0  0  0  0  0
   -1.1009    4.3010    2.7608 H   0  0  0  0  0  0  0  0  0  0  0  0
    0.5243    3.6360    2.5844 H   0  0  0  0  0  0  0  0  0  0  0  0
    0.0138    4.3252    4.1294 H   0  0  0  0  0  0  0  0  0  0  0  0
  1  2  1  0
  1  5  1  0
  1  6  1  0
  1  7  1  0
  2  3  2  3
  2  8  1  0
  3  4  1  0
  4  9  1  0
 10 11  1  0
 10 16  1  0
 10 17  1  0
 11 12  1  0
 11 18  1  0
 11 19  1  0
 12 13  1  0
 13 14  1  0
 13 20  1  0
 13 21  1  0
 14 15  1  0
 14 22  1  0
 14 23  1  0
 15 24  1  0
 15 25  1  0
 15 26  1  0
M  RAD  1  10   2
M  END
>  <reaction>  (5) 
rmg_rxn_156

>  <mol_properties>  (5) 
{"2": {"label": "*0", "atom_type": "N3d"}, "3": {"label": "*1", "atom_type": "O2s"}, "8": {"label": "*2", "atom_type": "H0"}, "9": {"label": "*3", "atom_type": "Cs"}, "10": {"label": "*4", "atom_type": "Cs"}}

>  <type>  (5) 
unop_1

>  <geom_source>  (5) 
Heuristics

$$$$

     RDKit          3D

 26 24  0  0  0  0  0  0  0  0999 V2000
    0.6294   -3.6437   -3.1463 C   0  0  0  0  0  0  0  0  0  0  0  0
    0.6294   -3.6437   -1.6577 C   0  0  0  0  0  0  0  0  0  0  0  0
    0.6294   -2.5516   -1.0209 N   0  0  0  0  0  0  0  0  0  0  0  0
    0.6294   -2.7563    0.3523 O   0  0  0  0  0  0  0  0  0  0  0  0
    1.5088   -4.1675   -3.5281 H   0  0  0  0  0  0  0  0  0  0  0  0
   -0.2500   -4.1675   -3.5281 H   0  0  0  0  0  0  0  0  0  0  0  0
    0.6294   -2.6240   -3.5277 H   0  0  0  0  0  0  0  0  0  0  0  0
    0.6294   -4.5912   -1.1175 H   0  0  0  0  0  0  0  0  0  0  0  0
    0.6294   -1.6866    0.7757 H   0  0  0  0  0  0  0  0  0  0  0  0
    0.6294   -0.4691    1.2575 C   0  0  0  0  0  3  0  0  0  0  0  0
   -0.0794    0.4695    0.3088 C   0  0  0  0  0  0  0  0  0  0  0  0
   -0.4331    1.6386    1.0028 O   0  0  0  0  0  0  0  0  0  0  0  0
   -1.1007    2.5807    0.2017 C   0  0  0  0  0  0  0  0  0  0  0  0
   -1.4036    3.8155    1.0255 C   0  0  0  0  0  0  0  0  0  0  0  0
   -0.1513    4.5281    1.5186 C   0  0  0  0  0  0  0  0  0  0  0  0
    1.5309   -0.0016    1.6552 H   0  0  0  0  0  0  0  0  0  0  0  0
   -0.0205   -0.7299    2.0936 H   0  0  0  0  0  0  0  0  0  0  0  0
   -0.9800   -0.0088   -0.1039 H   0  0  0  0  0  0  0  0  0  0  0  0
    0.5718    0.7210   -0.5414 H   0  0  0  0  0  0  0  0  0  0  0  0
   -0.4739    2.8481   -0.6637 H   0  0  0  0  0  0  0  0  0  0  0  0
   -2.0319    2.1465   -0.1909 H   0  0  0  0  0  0  0  0  0  0  0  0
   -2.0273    3.5224    1.8740 H   0  0  0  0  0  0  0  0  0  0  0  0
   -2.0034    4.4916    0.4099 H   0  0  0  0  0  0  0  0  0  0  0  0
    0.4708    4.8484    0.6791 H   0  0  0  0  0  0  0  0  0  0  0  0
    0.4471    3.8675    2.1460 H   0  0  0  0  0  0  0  0  0  0  0  0
   -0.4074    5.4136    2.1023 H   0  0  0  0  0  0  0  0  0  0  0  0
  1  2  1  0
  1  5  1  0
  1  6  1  0
  1  7  1  0
  2  3  2  3
  2  8  1  0
  3  4  1  0
  4  9  1  0
 10 11  1  0
 10 16  1  0
 10 17  1  0
 11 12  1  0
 11 18  1  0
 11 19  1  0
 12 13  1  0
 13 14  1  0
 13 20  1  0
 13 21  1  0
 14 15  1  0
 14 22  1  0
 14 23  1  0
 15 24  1  0
 15 25  1  0
 15 26  1  0
M  RAD  1  10   2
M  END
>  <reaction>  (6) 
rmg_rxn_156

>  <mol_properties>  (6) 
{"2": {"label": "*0", "atom_type": "N3d"}, "3": {"label": "*1", "atom_type": "O2s"}, "8": {"label": "*2", "atom_type": "H0"}, "9": {"label": "*3", "atom_type": "Cs"}, "10": {"label": "*4", "atom_type": "Cs"}}

>  <type>  (6) 
unop_2

>  <geom_source>  (6) 
Heuristics

$$$$

     RDKit          3D

 26 24  0  0  0  0  0  0  0  0999 V2000
    0.2217   -2.9447   -4.8034 C   0  0  0  0  0  0  0  0  0  0  0  0
    0.2217   -2.9447   -3.3147 C   0  0  0  0  0  0  0  0  0  0  0  0
    0.2217   -1.8526   -2.6779 N   0  0  0  0  0  0  0  0  0  0  0  0
    0.2217   -2.0573   -1.3047 O   0  0  0  0  0  0  0  0  0  0  0  0
    1.1011   -3.4685   -5.1852 H   0  0  0  0  0  0  0  0  0  0  0  0
   -0.6577   -3.4685   -5.1852 H   0  0  0  0  0  0  0  0  0  0  0  0
    0.2217   -1.9250   -5.1848 H   0  0  0  0  0  0  0  0  0  0  0  0
    0.2217   -3.8922   -2.7746 H   0  0  0  0  0  0  0  0  0  0  0  0
    0.2217   -0.9876   -0.8814 H   0  0  0  0  0  0  0  0  0  0  0  0
    0.2217    0.2298   -0.3995 C   0  0  0  0  0  3  0  0  0  0  0  0
   -0.4871    0.2649    0.9347 C   0  0  0  0  0  0  0  0  0  0  0  0
    0.0478    1.3085    1.7082 O   0  0  0  0  0  0  0  0  0  0  0  0
   -0.5498    1.4248    2.9749 C   0  0  0  0  0  0  0  0  0  0  0  0
    0.0640    2.5962    3.7140 C   0  0  0  0  0  0  0  0  0  0  0  0
   -0.1876    3.9336    3.0305 C   0  0  0  0  0  0  0  0  0  0  0  0
    0.0870    1.1738   -0.9287 H   0  0  0  0  0  0  0  0  0  0  0  0
    1.2904    0.0630   -0.2602 H   0  0  0  0  0  0  0  0  0  0  0  0
   -0.3638   -0.6933    1.4608 H   0  0  0  0  0  0  0  0  0  0  0  0
   -1.5669    0.4194    0.7925 H   0  0  0  0  0  0  0  0  0  0  0  0
   -1.6356    1.5745    2.8647 H   0  0  0  0  0  0  0  0  0  0  0  0
   -0.4042    0.4956    3.5451 H   0  0  0  0  0  0  0  0  0  0  0  0
    1.1386    2.4207    3.8112 H   0  0  0  0  0  0  0  0  0  0  0  0
   -0.3480    2.6078    4.7268 H   0  0  0  0  0  0  0  0  0  0  0  0
   -1.2589    4.1335    2.9480 H   0  0  0  0  0  0  0  0  0  0  0  0
    0.2324    3.9382    2.0247 H   0  0  0  0  0  0  0  0  0  0  0  0
    0.2633    4.7528    3.5924 H   0  0  0  0  0  0  0  0  0  0  0  0
  1  2  1  0
  1  5  1  0
  1  6  1  0
  1  7  1  0
  2  3  2  3
  2  8  1  0
  3  4  1  0
  4  9  1  0
 10 11  1  0
 10 16  1  0
 10 17  1  0
 11 12  1  0
 11 18  1  0
 11 19  1  0
 12 13  1  0
 13 14  1  0
 13 20  1  0
 13 21  1  0
 14 15  1  0
 14 22  1  0
 14 23  1  0
 15 24  1  0
 15 25  1  0
 15 26  1  0
M  RAD  1  10   2
M  END
>  <reaction>  (7) 
rmg_rxn_156

>  <mol_properties>  (7) 
{"2": {"label": "*0", "atom_type": "N3d"}, "3": {"label": "*1", "atom_type": "O2s"}, "8": {"label": "*2", "atom_type": "H0"}, "9": {"label": "*3", "atom_type": "Cs"}, "10": {"label": "*4", "atom_type": "Cs"}}

>  <type>  (7) 
unop_3

>  <geom_source>  (7) 
Heuristics

$$$$

     RDKit          3D

 26 24  0  0  0  0  0  0  0  0999 V2000
   -1.2184   -3.1782   -3.7911 C   0  0  0  0  0  0  0  0  0  0  0  0
   -1.2184   -3.1782   -2.3024 C   0  0  0  0  0  0  0  0  0  0  0  0
   -1.2184   -2.0861   -1.6656 N   0  0  0  0  0  0  0  0  0  0  0  0
   -1.2184   -2.2908   -0.2924 O   0  0  0  0  0  0  0  0  0  0  0  0
   -0.3390   -3.7020   -4.1729 H   0  0  0  0  0  0  0  0  0  0  0  0
   -2.0978   -3.7020   -4.1729 H   0  0  0  0  0  0  0  0  0  0  0  0
   -1.2184   -2.1585   -4.1725 H   0  0  0  0  0  0  0  0  0  0  0  0
   -1.2184   -4.1257   -1.7623 H   0  0  0  0  0  0  0  0  0  0  0  0
   -1.2184   -1.2211    0.1310 H   0  0  0  0  0  0  0  0  0  0  0  0
   -1.2184   -0.0036    0.6128 C   0  0  0  0  0  3  0  0  0  0  0  0
    0.0092    0.7441    0.1465 C   0  0  0  0  0  0  0  0  0  0  0  0
    0.3895    1.6616    1.1400 O   0  0  0  0  0  0  0  0  0  0  0  0
    1.5292    2.4099    0.7992 C   0  0  0  0  0  0  0  0  0  0  0  0
    1.8812    3.3379    1.9439 C   0  0  0  0  0  0  0  0  0  0  0  0
    2.2576    2.5977    3.2205 C   0  0  0  0  0  0  0  0  0  0  0  0
   -1.0092   -0.5427    1.5375 H   0  0  0  0  0  0  0  0  0  0  0  0
   -2.0407    0.6887    0.7966 H   0  0  0  0  0  0  0  0  0  0  0  0
   -0.1983    1.2747   -0.7946 H   0  0  0  0  0  0  0  0  0  0  0  0
    0.8338    0.0436   -0.0520 H   0  0  0  0  0  0  0  0  0  0  0  0
    2.3725    1.7334    0.5882 H   0  0  0  0  0  0  0  0  0  0  0  0
    1.3378    2.9891   -0.1160 H   0  0  0  0  0  0  0  0  0  0  0  0
    1.0300    3.9980    2.1300 H   0  0  0  0  0  0  0  0  0  0  0  0
    2.7098    3.9732    1.6190 H   0  0  0  0  0  0  0  0  0  0  0  0
    3.1232    1.9513    3.0552 H   0  0  0  0  0  0  0  0  0  0  0  0
    1.4327    1.9723    3.5617 H   0  0  0  0  0  0  0  0  0  0  0  0
    2.5095    3.2963    4.0197 H   0  0  0  0  0  0  0  0  0  0  0  0
  1  2  1  0
  1  5  1  0
  1  6  1  0
  1  7  1  0
  2  3  2  3
  2  8  1  0
  3  4  1  0
  4  9  1  0
 10 11  1  0
 10 16  1  0
 10 17  1  0
 11 12  1  0
 11 18  1  0
 11 19  1  0
 12 13  1  0
 13 14  1  0
 13 20  1  0
 13 21  1  0
 14 15  1  0
 14 22  1  0
 14 23  1  0
 15 24  1  0
 15 25  1  0
 15 26  1  0
M  RAD  1  10   2
M  END
>  <reaction>  (8) 
rmg_rxn_156

>  <mol_properties>  (8) 
{"2": {"label": "*0", "atom_type": "N3d"}, "3": {"label": "*1", "atom_type": "O2s"}, "8": {"label": "*2", "atom_type": "H0"}, "9": {"label": "*3", "atom_type": "Cs"}, "10": {"label": "*4", "atom_type": "Cs"}}

>  <type>  (8) 
unop_4

>  <geom_source>  (8) 
Heuristics

$$$$

     RDKit          3D

 26 24  0  0  0  0  0  0  0  0999 V2000
    0.1380   -3.0005   -4.7798 C   0  0  0  0  0  0  0  0  0  0  0  0
    0.1380   -3.0005   -3.2911 C   0  0  0  0  0  0  0  0  0  0  0  0
    0.1380   -1.9084   -2.6543 N   0  0  0  0  0  0  0  0  0  0  0  0
    0.1380   -2.1131   -1.2811 O   0  0  0  0  0  0  0  0  0  0  0  0
    1.0175   -3.5243   -5.1616 H   0  0  0  0  0  0  0  0  0  0  0  0
   -0.7414   -3.5243   -5.1616 H   0  0  0  0  0  0  0  0  0  0  0  0
    0.1380   -1.9808   -5.1612 H   0  0  0  0  0  0  0  0  0  0  0  0
    0.1380   -3.9480   -2.7510 H   0  0  0  0  0  0  0  0  0  0  0  0
    0.1380   -1.0434   -0.8578 H   0  0  0  0  0  0  0  0  0  0  0  0
    0.1380    0.1740   -0.3759 C   0  0  0  0  0  3  0  0  0  0  0  0
    0.1380    0.1393    1.1348 C   0  0  0  0  0  0  0  0  0  0  0  0
    0.1388    1.4570    1.6217 O   0  0  0  0  0  0  0  0  0  0  0  0
    0.1379    1.5317    3.0250 C   0  0  0  0  0  0  0  0  0  0  0  0
    0.0992    2.9852    3.4504 C   0  0  0  0  0  0  0  0  0  0  0  0
   -1.1703    3.7035    3.0125 C   0  0  0  0  0  0  0  0  0  0  0  0
   -0.7465    0.6936   -0.7462 H   0  0  0  0  0  0  0  0  0  0  0  0
    1.0225    0.6937   -0.7462 H   0  0  0  0  0  0  0  0  0  0  0  0
    1.0226   -0.3987    1.5070 H   0  0  0  0  0  0  0  0  0  0  0  0
   -0.7472   -0.3972    1.5071 H   0  0  0  0  0  0  0  0  0  0  0  0
   -0.7363    0.9964    3.4282 H   0  0  0  0  0  0  0  0  0  0  0  0
    1.0361    1.0405    3.4273 H   0  0  0  0  0  0  0  0  0  0  0  0
    0.9771    3.4906    3.0397 H   0  0  0  0  0  0  0  0  0  0  0  0
    0.1944    3.0195    4.5393 H   0  0  0  0  0  0  0  0  0  0  0  0
   -2.0557    3.2227    3.4358 H   0  0  0  0  0  0  0  0  0  0  0  0
   -1.2676    3.6883    1.9270 H   0  0  0  0  0  0  0  0  0  0  0  0
   -1.1656    4.7441    3.3402 H   0  0  0  0  0  0  0  0  0  0  0  0
  1  2  1  0
  1  5  1  0
  1  6  1  0
  1  7  1  0
  2  3  2  3
  2  8  1  0
  3  4  1  0
  4  9  1  0
 10 11  1  0
 10 16  1  0
 10 17  1  0
 11 12  1  0
 11 18  1  0
 11 19  1  0
 12 13  1  0
 13 14  1  0
 13 20  1  0
 13 21  1  0
 14 15  1  0
 14 22  1  0
 14 23  1  0
 15 24  1  0
 15 25  1  0
 15 26  1  0
M  RAD  1  10   2
M  END
>  <reaction>  (9) 
rmg_rxn_156

>  <mol_properties>  (9) 
{"2": {"label": "*0", "atom_type": "N3d"}, "3": {"label": "*1", "atom_type": "O2s"}, "8": {"label": "*2", "atom_type": "H0"}, "9": {"label": "*3", "atom_type": "Cs"}, "10": {"label": "*4", "atom_type": "Cs"}}

>  <type>  (9) 
unop_5

>  <geom_source>  (9) 
Heuristics

$$$$

     RDKit          3D

 26 24  0  0  0  0  0  0  0  0999 V2000
   -1.0855   -2.8475   -4.4105 C   0  0  0  0  0  0  0  0  0  0  0  0
   -1.0855   -2.8475   -2.9218 C   0  0  0  0  0  0  0  0  0  0  0  0
   -1.0855   -1.7555   -2.2850 N   0  0  0  0  0  0  0  0  0  0  0  0
   -1.0855   -1.9601   -0.9118 O   0  0  0  0  0  0  0  0  0  0  0  0
   -0.2061   -3.3714   -4.7923 H   0  0  0  0  0  0  0  0  0  0  0  0
   -1.9649   -3.3714   -4.7923 H   0  0  0  0  0  0  0  0  0  0  0  0
   -1.0855   -1.8279   -4.7919 H   0  0  0  0  0  0  0  0  0  0  0  0
   -1.0855   -3.7951   -2.3817 H   0  0  0  0  0  0  0  0  0  0  0  0
   -1.0855   -0.8905   -0.4885 H   0  0  0  0  0  0  0  0  0  0  0  0
   -1.0855    0.3270   -0.0066 C   0  0  0  0  0  3  0  0  0  0  0  0
    0.3320    0.8139    0.1861 C   0  0  0  0  0  0  0  0  0  0  0  0
    0.4029    1.5515    1.3796 O   0  0  0  0  0  0  0  0  0  0  0  0
    1.6888    2.0497    1.6501 C   0  0  0  0  0  0  0  0  0  0  0  0
    1.6718    2.7932    2.9700 C   0  0  0  0  0  0  0  0  0  0  0  0
    1.3331    1.8998    4.1559 C   0  0  0  0  0  0  0  0  0  0  0  0
   -1.3877   -0.3088    0.8263 H   0  0  0  0  0  0  0  0  0  0  0  0
   -1.7747    1.1702   -0.0635 H   0  0  0  0  0  0  0  0  0  0  0  0
    0.6413    1.4423   -0.6623 H   0  0  0  0  0  0  0  0  0  0  0  0
    1.0282   -0.0367    0.2294 H   0  0  0  0  0  0  0  0  0  0  0  0
    2.4111    1.2191    1.6935 H   0  0  0  0  0  0  0  0  0  0  0  0
    2.0097    2.7199    0.8391 H   0  0  0  0  0  0  0  0  0  0  0  0
    0.9504    3.6113    2.8984 H   0  0  0  0  0  0  0  0  0  0  0  0
    2.6554    3.2496    3.1115 H   0  0  0  0  0  0  0  0  0  0  0  0
    2.0607    1.0903    4.2543 H   0  0  0  0  0  0  0  0  0  0  0  0
    0.3475    1.4511    4.0322 H   0  0  0  0  0  0  0  0  0  0  0  0
    1.3354    2.4668    5.0880 H   0  0  0  0  0  0  0  0  0  0  0  0
  1  2  1  0
  1  5  1  0
  1  6  1  0
  1  7  1  0
  2  3  2  3
  2  8  1  0
  3  4  1  0
  4  9  1  0
 10 11  1  0
 10 16  1  0
 10 17  1  0
 11 12  1  0
 11 18  1  0
 11 19  1  0
 12 13  1  0
 13 14  1  0
 13 20  1  0
 13 21  1  0
 14 15  1  0
 14 22  1  0
 14 23  1  0
 15 24  1  0
 15 25  1  0
 15 26  1  0
M  RAD  1  10   2
M  END
>  <reaction>  (10) 
rmg_rxn_156

>  <mol_properties>  (10) 
{"2": {"label": "*0", "atom_type": "N3d"}, "3": {"label": "*1", "atom_type": "O2s"}, "8": {"label": "*2", "atom_type": "H0"}, "9": {"label": "*3", "atom_type": "Cs"}, "10": {"label": "*4", "atom_type": "Cs"}}

>  <type>  (10) 
unop_6

>  <geom_source>  (10) 
Heuristics

$$$$

     RDKit          3D

 26 24  0  0  0  0  0  0  0  0999 V2000
   -0.5918   -2.6787   -4.8300 C   0  0  0  0  0  0  0  0  0  0  0  0
   -0.5918   -2.6787   -3.3414 C   0  0  0  0  0  0  0  0  0  0  0  0
   -0.5918   -1.5866   -2.7046 N   0  0  0  0  0  0  0  0  0  0  0  0
   -0.5918   -1.7913   -1.3314 O   0  0  0  0  0  0  0  0  0  0  0  0
    0.2876   -3.2025   -5.2118 H   0  0  0  0  0  0  0  0  0  0  0  0
   -1.4712   -3.2025   -5.2118 H   0  0  0  0  0  0  0  0  0  0  0  0
   -0.5918   -1.6590   -5.2115 H   0  0  0  0  0  0  0  0  0  0  0  0
   -0.5918   -3.6262   -2.8012 H   0  0  0  0  0  0  0  0  0  0  0  0
   -0.5918   -0.7216   -0.9080 H   0  0  0  0  0  0  0  0  0  0  0  0
   -0.5918    0.4959   -0.4262 C   0  0  0  0  0  3  0  0  0  0  0  0
    0.6358    0.7219    0.4255 C   0  0  0  0  0  0  0  0  0  0  0  0
    0.2770    1.4834    1.5503 O   0  0  0  0  0  0  0  0  0  0  0  0
    1.3565    1.7479    2.4104 C   0  0  0  0  0  0  0  0  0  0  0  0
    0.8638    2.5365    3.6065 C   0  0  0  0  0  0  0  0  0  0  0  0
   -0.1430    1.7710    4.4547 C   0  0  0  0  0  0  0  0  0  0  0  0
   -1.3562   -0.0382    0.1394 H   0  0  0  0  0  0  0  0  0  0  0  0
   -1.0094    1.4481   -0.7549 H   0  0  0  0  0  0  0  0  0  0  0  0
    1.4122    1.2468   -0.1507 H   0  0  0  0  0  0  0  0  0  0  0  0
    1.0644   -0.2394    0.7451 H   0  0  0  0  0  0  0  0  0  0  0  0
    1.8113    0.8015    2.7431 H   0  0  0  0  0  0  0  0  0  0  0  0
    2.1331    2.3133    1.8746 H   0  0  0  0  0  0  0  0  0  0  0  0
    0.4206    3.4694    3.2485 H   0  0  0  0  0  0  0  0  0  0  0  0
    1.7335    2.8101    4.2102 H   0  0  0  0  0  0  0  0  0  0  0  0
    0.2948    0.8465    4.8395 H   0  0  0  0  0  0  0  0  0  0  0  0
   -1.0214    1.5060    3.8662 H   0  0  0  0  0  0  0  0  0  0  0  0
   -0.4709    2.3665    5.3080 H   0  0  0  0  0  0  0  0  0  0  0  0
  1  2  1  0
  1  5  1  0
  1  6  1  0
  1  7  1  0
  2  3  2  3
  2  8  1  0
  3  4  1  0
  4  9  1  0
 10 11  1  0
 10 16  1  0
 10 17  1  0
 11 12  1  0
 11 18  1  0
 11 19  1  0
 12 13  1  0
 13 14  1  0
 13 20  1  0
 13 21  1  0
 14 15  1  0
 14 22  1  0
 14 23  1  0
 15 24  1  0
 15 25  1  0
 15 26  1  0
M  RAD  1  10   2
M  END
>  <reaction>  (11) 
rmg_rxn_156

>  <mol_properties>  (11) 
{"2": {"label": "*0", "atom_type": "N3d"}, "3": {"label": "*1", "atom_type": "O2s"}, "8": {"label": "*2", "atom_type": "H0"}, "9": {"label": "*3", "atom_type": "Cs"}, "10": {"label": "*4", "atom_type": "Cs"}}

>  <type>  (11) 
unop_7

>  <geom_source>  (11) 
Heuristics

$$$$

     RDKit          3D

 26 24  0  0  0  0  0  0  0  0999 V2000
    1.0251   -3.0784   -4.2716 C   0  0  0  0  0  0  0  0  0  0  0  0
    1.0251   -3.0784   -2.7829 C   0  0  0  0  0  0  0  0  0  0  0  0
    1.0251   -1.9863   -2.1461 N   0  0  0  0  0  0  0  0  0  0  0  0
    1.0251   -2.1910   -0.7729 O   0  0  0  0  0  0  0  0  0  0  0  0
    1.9045   -3.6022   -4.6534 H   0  0  0  0  0  0  0  0  0  0  0  0
    0.1457   -3.6022   -4.6534 H   0  0  0  0  0  0  0  0  0  0  0  0
    1.0251   -2.0587   -4.6530 H   0  0  0  0  0  0  0  0  0  0  0  0
    1.0251   -4.0259   -2.2428 H   0  0  0  0  0  0  0  0  0  0  0  0
    1.0251   -1.1213   -0.3496 H   0  0  0  0  0  0  0  0  0  0  0  0
    1.0251    0.0961    0.1323 C   0  0  0  0  0  3  0  0  0  0  0  0
   -0.3924    0.5830    0.3250 C   0  0  0  0  0  0  0  0  0  0  0  0
   -0.4637    1.3194    1.5192 O   0  0  0  0  0  0  0  0  0  0  0  0
   -1.7492    1.8191    1.7889 C   0  0  0  0  0  0  0  0  0  0  0  0
   -1.7152    2.6273    3.0698 C   0  0  0  0  0  0  0  0  0  0  0  0
   -0.8210    3.8567    2.9784 C   0  0  0  0  0  0  0  0  0  0  0  0
    1.7143    0.9394    0.0752 H   0  0  0  0  0  0  0  0  0  0  0  0
    1.3274   -0.5395    0.9653 H   0  0  0  0  0  0  0  0  0  0  0  0
   -1.0888   -0.2677    0.3666 H   0  0  0  0  0  0  0  0  0  0  0  0
   -0.7012    1.2127   -0.5225 H   0  0  0  0  0  0  0  0  0  0  0  0
   -2.0889    2.4504    0.9525 H   0  0  0  0  0  0  0  0  0  0  0  0
   -2.4631    0.9875    1.8816 H   0  0  0  0  0  0  0  0  0  0  0  0
   -1.3779    1.9775    3.8815 H   0  0  0  0  0  0  0  0  0  0  0  0
   -2.7404    2.9246    3.3071 H   0  0  0  0  0  0  0  0  0  0  0  0
   -1.1612    4.5278    2.1858 H   0  0  0  0  0  0  0  0  0  0  0  0
    0.2071    3.5706    2.7568 H   0  0  0  0  0  0  0  0  0  0  0  0
   -0.8253    4.4159    3.9151 H   0  0  0  0  0  0  0  0  0  0  0  0
  1  2  1  0
  1  5  1  0
  1  6  1  0
  1  7  1  0
  2  3  2  3
  2  8  1  0
  3  4  1  0
  4  9  1  0
 10 11  1  0
 10 16  1  0
 10 17  1  0
 11 12  1  0
 11 18  1  0
 11 19  1  0
 12 13  1  0
 13 14  1  0
 13 20  1  0
 13 21  1  0
 14 15  1  0
 14 22  1  0
 14 23  1  0
 15 24  1  0
 15 25  1  0
 15 26  1  0
M  RAD  1  10   2
M  END
>  <reaction>  (12) 
rmg_rxn_156

>  <mol_properties>  (12) 
{"2": {"label": "*0", "atom_type": "N3d"}, "3": {"label": "*1", "atom_type": "O2s"}, "8": {"label": "*2", "atom_type": "H0"}, "9": {"label": "*3", "atom_type": "Cs"}, "10": {"label": "*4", "atom_type": "Cs"}}

>  <type>  (12) 
unop_8

>  <geom_source>  (12) 
Heuristics

$$$$

     RDKit          3D

 26 24  0  0  0  0  0  0  0  0999 V2000
   -0.8715   -3.5300   -3.2147 C   0  0  0  0  0  0  0  0  0  0  0  0
   -0.8715   -3.5300   -1.7261 C   0  0  0  0  0  0  0  0  0  0  0  0
   -0.8715   -2.4379   -1.0893 N   0  0  0  0  0  0  0  0  0  0  0  0
   -0.8715   -2.6426    0.2839 O   0  0  0  0  0  0  0  0  0  0  0  0
    0.0079   -4.0538   -3.5965 H   0  0  0  0  0  0  0  0  0  0  0  0
   -1.7509   -4.0538   -3.5965 H   0  0  0  0  0  0  0  0  0  0  0  0
   -0.8715   -2.5103   -3.5962 H   0  0  0  0  0  0  0  0  0  0  0  0
   -0.8715   -4.4775   -1.1859 H   0  0  0  0  0  0  0  0  0  0  0  0
   -0.8715   -1.5729    0.7073 H   0  0  0  0  0  0  0  0  0  0  0  0
   -0.8715   -0.3555    1.1891 C   0  0  0  0  0  3  0  0  0  0  0  0
   -0.1627    0.5832    0.2404 C   0  0  0  0  0  0  0  0  0  0  0  0
    0.1896    1.7529    0.9340 O   0  0  0  0  0  0  0  0  0  0  0  0
    0.8588    2.6943    0.1333 C   0  0  0  0  0  0  0  0  0  0  0  0
    1.2296    3.8972    0.9763 C   0  0  0  0  0  0  0  0  0  0  0  0
    2.2039    3.5644    2.0985 C   0  0  0  0  0  0  0  0  0  0  0  0
   -0.2216   -0.6164    2.0251 H   0  0  0  0  0  0  0  0  0  0  0  0
   -1.7729    0.1121    1.5869 H   0  0  0  0  0  0  0  0  0  0  0  0
   -0.8135    0.8333   -0.6107 H   0  0  0  0  0  0  0  0  0  0  0  0
    0.7387    0.1056   -0.1711 H   0  0  0  0  0  0  0  0  0  0  0  0
    1.7654    2.2417   -0.2989 H   0  0  0  0  0  0  0  0  0  0  0  0
    0.2147    2.9997   -0.7043 H   0  0  0  0  0  0  0  0  0  0  0  0
    0.3136    4.3270    1.3898 H   0  0  0  0  0  0  0  0  0  0  0  0
    1.6625    4.6516    0.3136 H   0  0  0  0  0  0  0  0  0  0  0  0
    3.1348    3.1555    1.6978 H   0  0  0  0  0  0  0  0  0  0  0  0
    1.7761    2.8237    2.7741 H   0  0  0  0  0  0  0  0  0  0  0  0
    2.4518    4.4537    2.6799 H   0  0  0  0  0  0  0  0  0  0  0  0
  1  2  1  0
  1  5  1  0
  1  6  1  0
  1  7  1  0
  2  3  2  3
  2  8  1  0
  3  4  1  0
  4  9  1  0
 10 11  1  0
 10 16  1  0
 10 17  1  0
 11 12  1  0
 11 18  1  0
 11 19  1  0
 12 13  1  0
 13 14  1  0
 13 20  1  0
 13 21  1  0
 14 15  1  0
 14 22  1  0
 14 23  1  0
 15 24  1  0
 15 25  1  0
 15 26  1  0
M  RAD  1  10   2
M  END
>  <reaction>  (13) 
rmg_rxn_156

>  <mol_properties>  (13) 
{"2": {"label": "*0", "atom_type": "N3d"}, "3": {"label": "*1", "atom_type": "O2s"}, "8": {"label": "*2", "atom_type": "H0"}, "9": {"label": "*3", "atom_type": "Cs"}, "10": {"label": "*4", "atom_type": "Cs"}}

>  <type>  (13) 
unop_9

>  <geom_source>  (13) 
Heuristics

$$$$

     RDKit          3D

 26 24  0  0  0  0  0  0  0  0999 V2000
    1.0574   -3.3704   -3.6754 C   0  0  0  0  0  0  0  0  0  0  0  0
    1.0574   -3.3704   -2.1868 C   0  0  0  0  0  0  0  0  0  0  0  0
    1.0574   -2.2783   -1.5500 N   0  0  0  0  0  0  0  0  0  0  0  0
    1.0574   -2.4830   -0.1768 O   0  0  0  0  0  0  0  0  0  0  0  0
    1.9368   -3.8942   -4.0572 H   0  0  0  0  0  0  0  0  0  0  0  0
    0.1780   -3.8942   -4.0572 H   0  0  0  0  0  0  0  0  0  0  0  0
    1.0574   -2.3507   -4.0568 H   0  0  0  0  0  0  0  0  0  0  0  0
    1.0574   -4.3179   -1.6466 H   0  0  0  0  0  0  0  0  0  0  0  0
    1.0574   -1.4133    0.2466 H   0  0  0  0  0  0  0  0  0  0  0  0
    1.0574   -0.1958    0.7284 C   0  0  0  0  0  3  0  0  0  0  0  0
   -0.1702    0.5519    0.2621 C   0  0  0  0  0  0  0  0  0  0  0  0
   -0.5514    1.4683    1.2563 O   0  0  0  0  0  0  0  0  0  0  0  0
   -1.6900    2.2179    0.9148 C   0  0  0  0  0  0  0  0  0  0  0  0
   -1.9968    3.1998    2.0270 C   0  0  0  0  0  0  0  0  0  0  0  0
   -0.8929    4.2270    2.2401 C   0  0  0  0  0  0  0  0  0  0  0  0
    1.8797    0.4966    0.9122 H   0  0  0  0  0  0  0  0  0  0  0  0
    0.8483   -0.7347    1.6532 H   0  0  0  0  0  0  0  0  0  0  0  0
   -0.9943   -0.1490    0.0620 H   0  0  0  0  0  0  0  0  0  0  0  0
    0.0376    1.0838   -0.6780 H   0  0  0  0  0  0  0  0  0  0  0  0
   -1.5138    2.7585   -0.0287 H   0  0  0  0  0  0  0  0  0  0  0  0
   -2.5461    1.5467    0.7519 H   0  0  0  0  0  0  0  0  0  0  0  0
   -2.1694    2.6377    2.9485 H   0  0  0  0  0  0  0  0  0  0  0  0
   -2.9364    3.7026    1.7819 H   0  0  0  0  0  0  0  0  0  0  0  0
   -0.7258    4.8133    1.3331 H   0  0  0  0  0  0  0  0  0  0  0  0
    0.0455    3.7370    2.4998 H   0  0  0  0  0  0  0  0  0  0  0  0
   -1.1502    4.9191    3.0432 H   0  0  0  0  0  0  0  0  0  0  0  0
  1  2  1  0
  1  5  1  0
  1  6  1  0
  1  7  1  0
  2  3  2  3
  2  8  1  0
  3  4  1  0
  4  9  1  0
 10 11  1  0
 10 16  1  0
 10 17  1  0
 11 12  1  0
 11 18  1  0
 11 19  1  0
 12 13  1  0
 13 14  1  0
 13 20  1  0
 13 21  1  0
 14 15  1  0
 14 22  1  0
 14 23  1  0
 15 24  1  0
 15 25  1  0
 15 26  1  0
M  RAD  1  10   2
M  END
>  <reaction>  (14) 
rmg_rxn_156

>  <mol_properties>  (14) 
{"2": {"label": "*0", "atom_type": "N3d"}, "3": {"label": "*1", "atom_type": "O2s"}, "8": {"label": "*2", "atom_type": "H0"}, "9": {"label": "*3", "atom_type": "Cs"}, "10": {"label": "*4", "atom_type": "Cs"}}

>  <type>  (14) 
unop_10

>  <geom_source>  (14) 
Heuristics

$$$$

     RDKit          3D

 26 24  0  0  0  0  0  0  0  0999 V2000
   -0.0339   -2.7713   -4.9077 C   0  0  0  0  0  0  0  0  0  0  0  0
   -0.0339   -2.7713   -3.4190 C   0  0  0  0  0  0  0  0  0  0  0  0
   -0.0339   -1.6792   -2.7822 N   0  0  0  0  0  0  0  0  0  0  0  0
   -0.0339   -1.8839   -1.4090 O   0  0  0  0  0  0  0  0  0  0  0  0
    0.8455   -3.2951   -5.2895 H   0  0  0  0  0  0  0  0  0  0  0  0
   -0.9133   -3.2951   -5.2895 H   0  0  0  0  0  0  0  0  0  0  0  0
   -0.0339   -1.7516   -5.2891 H   0  0  0  0  0  0  0  0  0  0  0  0
   -0.0339   -3.7188   -2.8789 H   0  0  0  0  0  0  0  0  0  0  0  0
   -0.0339   -0.8142   -0.9857 H   0  0  0  0  0  0  0  0  0  0  0  0
   -0.0339    0.4032   -0.5038 C   0  0  0  0  0  3  0  0  0  0  0  0
    0.6749    0.4383    0.8303 C   0  0  0  0  0  0  0  0  0  0  0  0
    0.1411    1.4829    1.6033 O   0  0  0  0  0  0  0  0  0  0  0  0
    0.7375    1.5981    2.8706 C   0  0  0  0  0  0  0  0  0  0  0  0
    0.0709    2.7208    3.6390 C   0  0  0  0  0  0  0  0  0  0  0  0
   -1.4045    2.4637    3.9150 C   0  0  0  0  0  0  0  0  0  0  0  0
   -1.1025    0.2362   -0.3645 H   0  0  0  0  0  0  0  0  0  0  0  0
    0.1007    1.3472   -1.0330 H   0  0  0  0  0  0  0  0  0  0  0  0
    1.7550    0.5911    0.6879 H   0  0  0  0  0  0  0  0  0  0  0  0
    0.5503   -0.5192    1.3572 H   0  0  0  0  0  0  0  0  0  0  0  0
    0.6338    0.6496    3.4212 H   0  0  0  0  0  0  0  0  0  0  0  0
    1.8138    1.7970    2.7620 H   0  0  0  0  0  0  0  0  0  0  0  0
    0.1908    3.6480    3.0727 H   0  0  0  0  0  0  0  0  0  0  0  0
    0.6124    2.8519    4.5799 H   0  0  0  0  0  0  0  0  0  0  0  0
   -1.5380    1.5513    4.5017 H   0  0  0  0  0  0  0  0  0  0  0  0
   -1.9569    2.3461    2.9827 H   0  0  0  0  0  0  0  0  0  0  0  0
   -1.8492    3.2887    4.4734 H   0  0  0  0  0  0  0  0  0  0  0  0
  1  2  1  0
  1  5  1  0
  1  6  1  0
  1  7  1  0
  2  3  2  3
  2  8  1  0
  3  4  1  0
  4  9  1  0
 10 11  1  0
 10 16  1  0
 10 17  1  0
 11 12  1  0
 11 18  1  0
 11 19  1  0
 12 13  1  0
 13 14  1  0
 13 20  1  0
 13 21  1  0
 14 15  1  0
 14 22  1  0
 14 23  1  0
 15 24  1  0
 15 25  1  0
 15 26  1  0
M  RAD  1  10   2
M  END
>  <reaction>  (15) 
rmg_rxn_156

>  <mol_properties>  (15) 
{"2": {"label": "*0", "atom_type": "N3d"}, "3": {"label": "*1", "atom_type": "O2s"}, "8": {"label": "*2", "atom_type": "H0"}, "9": {"label": "*3", "atom_type": "Cs"}, "10": {"label": "*4", "atom_type": "Cs"}}

>  <type>  (15) 
unop_11

>  <geom_source>  (15) 
Heuristics

$$$$

     RDKit          3D

 26 24  0  0  0  0  0  0  0  0999 V2000
   -0.1381   -3.7238   -2.9522 C   0  0  0  0  0  0  0  0  0  0  0  0
   -0.1381   -3.7238   -1.4635 C   0  0  0  0  0  0  0  0  0  0  0  0
   -0.1381   -2.6318   -0.8267 N   0  0  0  0  0  0  0  0  0  0  0  0
   -0.1381   -2.8364    0.5465 O   0  0  0  0  0  0  0  0  0  0  0  0
    0.7414   -4.2477   -3.3340 H   0  0  0  0  0  0  0  0  0  0  0  0
   -1.0175   -4.2477   -3.3340 H   0  0  0  0  0  0  0  0  0  0  0  0
   -0.1381   -2.7041   -3.3336 H   0  0  0  0  0  0  0  0  0  0  0  0
   -0.1381   -4.6713   -0.9234 H   0  0  0  0  0  0  0  0  0  0  0  0
   -0.1380   -1.7668    0.9698 H   0  0  0  0  0  0  0  0  0  0  0  0
   -0.1380   -0.5493    1.4517 C   0  0  0  0  0  3  0  0  0  0  0  0
   -0.1380    0.4592    0.3263 C   0  0  0  0  0  0  0  0  0  0  0  0
   -0.1388    1.7533    0.8732 O   0  0  0  0  0  0  0  0  0  0  0  0
   -0.1379    2.7681   -0.0989 C   0  0  0  0  0  0  0  0  0  0  0  0
   -0.0992    4.1191    0.5856 C   0  0  0  0  0  0  0  0  0  0  0  0
    1.1703    4.3431    1.3965 C   0  0  0  0  0  0  0  0  0  0  0  0
    0.7465   -0.4239    2.0772 H   0  0  0  0  0  0  0  0  0  0  0  0
   -1.0225   -0.4238    2.0773 H   0  0  0  0  0  0  0  0  0  0  0  0
   -1.0226    0.3217   -0.3132 H   0  0  0  0  0  0  0  0  0  0  0  0
    0.7472    0.3229   -0.3122 H   0  0  0  0  0  0  0  0  0  0  0  0
    0.7364    2.6538   -0.7592 H   0  0  0  0  0  0  0  0  0  0  0  0
   -1.0361    2.6853   -0.7285 H   0  0  0  0  0  0  0  0  0  0  0  0
   -0.9770    4.2065    1.2310 H   0  0  0  0  0  0  0  0  0  0  0  0
   -0.1944    4.8892   -0.1849 H   0  0  0  0  0  0  0  0  0  0  0  0
    2.0557    4.2822    0.7588 H   0  0  0  0  0  0  0  0  0  0  0  0
    1.2676    3.5891    2.1776 H   0  0  0  0  0  0  0  0  0  0  0  0
    1.1656    5.3261    1.8697 H   0  0  0  0  0  0  0  0  0  0  0  0
  1  2  1  0
  1  5  1  0
  1  6  1  0
  1  7  1  0
  2  3  2  3
  2  8  1  0
  3  4  1  0
  4  9  1  0
 10 11  1  0
 10 16  1  0
 10 17  1  0
 11 12  1  0
 11 18  1  0
 11 19  1  0
 12 13  1  0
 13 14  1  0
 13 20  1  0
 13 21  1  0
 14 15  1  0
 14 22  1  0
 14 23  1  0
 15 24  1  0
 15 25  1  0
 15 26  1  0
M  RAD  1  10   2
M  END
>  <reaction>  (16) 
rmg_rxn_156

>  <mol_properties>  (16) 
{"2": {"label": "*0", "atom_type": "N3d"}, "3": {"label": "*1", "atom_type": "O2s"}, "8": {"label": "*2", "atom_type": "H0"}, "9": {"label": "*3", "atom_type": "Cs"}, "10": {"label": "*4", "atom_type": "Cs"}}

>  <type>  (16) 
unop_12

>  <geom_source>  (16) 
Heuristics

$$$$

     RDKit          3D

 26 24  0  0  0  0  0  0  0  0999 V2000
   -0.7927   -0.0545   -0.2421 O   0  0  0  0  0  0  0  0  0  0  0  0
    2.1826   -0.5206    1.5904 O   0  0  0  0  0  1  0  0  0  0  0  0
    3.2992    0.2598    1.4031 N   0  0  0  0  0  2  0  0  0  0  0  0
   -2.8926    0.6807   -1.1859 C   0  0  0  0  0  0  0  0  0  0  0  0
   -2.0891    0.4159    0.0889 C   0  0  0  0  0  0  0  0  0  0  0  0
   -0.5625   -1.3556    0.2631 C   0  0  0  0  0  0  0  0  0  0  0  0
   -3.2068   -0.6097   -1.9390 C   0  0  0  0  0  0  0  0  0  0  0  0
   -0.1061   -1.3001    1.7179 C   0  0  0  0  0  0  0  0  0  0  0  0
    4.6967    1.7303    0.0957 C   0  0  0  0  0  0  0  0  0  0  0  0
    3.4825    0.8872    0.2875 C   0  0  0  0  0  3  0  0  0  0  0  0
   -2.3227    1.3661   -1.8501 H   0  0  0  0  0  0  0  0  0  0  0  0
   -3.8482    1.1793   -0.9141 H   0  0  0  0  0  0  0  0  0  0  0  0
    0.2539   -1.8131   -0.3342 H   0  0  0  0  0  0  0  0  0  0  0  0
   -1.4458   -2.0259    0.1494 H   0  0  0  0  0  0  0  0  0  0  0  0
   -1.9728    1.3797    0.6284 H   0  0  0  0  0  0  0  0  0  0  0  0
   -2.6747   -0.2507    0.7663 H   0  0  0  0  0  0  0  0  0  0  0  0
    0.1486   -2.3223    2.0689 H   0  0  0  0  0  0  0  0  0  0  0  0
   -0.9118   -0.8928    2.3637 H   0  0  0  0  0  0  0  0  0  0  0  0
    0.8668   -0.6016    1.8137 H   0  0  0  0  0  0  0  0  0  0  0  0
   -3.8242   -0.3768   -2.8320 H   0  0  0  0  0  0  0  0  0  0  0  0
   -2.2694   -1.0999   -2.2772 H   0  0  0  0  0  0  0  0  0  0  0  0
   -3.7736   -1.3088   -1.2880 H   0  0  0  0  0  0  0  0  0  0  0  0
    4.7173    2.5385    0.8567 H   0  0  0  0  0  0  0  0  0  0  0  0
    5.6085    1.1050    0.1969 H   0  0  0  0  0  0  0  0  0  0  0  0
    4.6816    2.1867   -0.9161 H   0  0  0  0  0  0  0  0  0  0  0  0
    2.7556    0.8031   -0.5117 H   0  0  0  0  0  0  0  0  0  0  0  0
  1  5  1  0
  1  6  1  0
  2  3  1  0
  3 10  1  0
  4  5  1  0
  4 12  1  0
  4 11  1  0
  4  7  1  0
  5 16  1  0
  5 15  1  0
  6 13  1  0
  6 14  1  0
  6  8  1  0
  7 22  1  0
  7 21  1  0
  7 20  1  0
  8 19  1  0
  8 17  1  0
  8 18  1  0
  9 25  1  0
  9 23  1  0
  9 24  1  0
  9 10  1  0
 10 26  1  0
M  RAD  3   2   2   3   2  10   2
M  END
>  <reaction>  (17) 
rmg_rxn_156

>  <mol_properties>  (17) 
{"2": {"label": "*0", "atom_type": "N3d"}, "3": {"label": "*1", "atom_type": "O2s"}, "8": {"label": "*2", "atom_type": "H0"}, "9": {"label": "*3", "atom_type": "Cs"}, "10": {"label": "*4", "atom_type": "Cs"}}

>  <type>  (17) 
unop_13

>  <geom_source>  (17) 
AutoTST

$$$$

     RDKit          3D

 26 24  0  0  0  0  0  0  0  0999 V2000
    0.6294   -3.6437   -3.1463 C   0  0  0  0  0  0  0  0  0  0  0  0
    0.6294   -3.6437   -1.6577 C   0  0  0  0  0  0  0  0  0  0  0  0
    0.6294   -2.5516   -1.0209 N   0  0  0  0  0  0  0  0  0  0  0  0
    0.6294   -2.7563    0.3523 O   0  0  0  0  0  0  0  0  0  0  0  0
    1.5088   -4.1675   -3.5281 H   0  0  0  0  0  0  0  0  0  0  0  0
   -0.2500   -4.1675   -3.5281 H   0  0  0  0  0  0  0  0  0  0  0  0
    0.6294   -2.6240   -3.5278 H   0  0  0  0  0  0  0  0  0  0  0  0
    0.6294   -4.5912   -1.1175 H   0  0  0  0  0  0  0  0  0  0  0  0
    0.6294   -1.6866    0.7757 H   0  0  0  0  0  0  0  0  0  0  0  0
    0.6294   -0.4691    1.2575 C   0  0  0  0  0  3  0  0  0  0  0  0
   -0.0794    0.4695    0.3088 C   0  0  0  0  0  0  0  0  0  0  0  0
   -0.4331    1.6386    1.0028 O   0  0  0  0  0  0  0  0  0  0  0  0
   -1.1007    2.5807    0.2017 C   0  0  0  0  0  0  0  0  0  0  0  0
   -1.4036    3.8155    1.0255 C   0  0  0  0  0  0  0  0  0  0  0  0
   -0.1513    4.5281    1.5186 C   0  0  0  0  0  0  0  0  0  0  0  0
    1.5309   -0.0016    1.6553 H   0  0  0  0  0  0  0  0  0  0  0  0
   -0.0204   -0.7299    2.0936 H   0  0  0  0  0  0  0  0  0  0  0  0
   -0.9800   -0.0088   -0.1039 H   0  0  0  0  0  0  0  0  0  0  0  0
    0.5718    0.7210   -0.5413 H   0  0  0  0  0  0  0  0  0  0  0  0
   -0.4739    2.8481   -0.6637 H   0  0  0  0  0  0  0  0  0  0  0  0
   -2.0319    2.1465   -0.1909 H   0  0  0  0  0  0  0  0  0  0  0  0
   -2.0273    3.5224    1.8740 H   0  0  0  0  0  0  0  0  0  0  0  0
   -2.0034    4.4916    0.4099 H   0  0  0  0  0  0  0  0  0  0  0  0
    0.4708    4.8484    0.6791 H   0  0  0  0  0  0  0  0  0  0  0  0
    0.4471    3.8675    2.1460 H   0  0  0  0  0  0  0  0  0  0  0  0
   -0.4074    5.4135    2.1023 H   0  0  0  0  0  0  0  0  0  0  0  0
  1  2  1  0
  1  5  1  0
  1  6  1  0
  1  7  1  0
  2  3  2  3
  2  8  1  0
  3  4  1  0
  4  9  1  0
 10 11  1  0
 10 16  1  0
 10 17  1  0
 11 12  1  0
 11 18  1  0
 11 19  1  0
 12 13  1  0
 13 14  1  0
 13 20  1  0
 13 21  1  0
 14 15  1  0
 14 22  1  0
 14 23  1  0
 15 24  1  0
 15 25  1  0
 15 26  1  0
M  RAD  1  10   2
M  END
>  <reaction>  (18) 
rmg_rxn_156

>  <mol_properties>  (18) 
{"2": {"label": "*0", "atom_type": "N3d"}, "3": {"label": "*1", "atom_type": "O2s"}, "8": {"label": "*2", "atom_type": "H0"}, "9": {"label": "*3", "atom_type": "Cs"}, "10": {"label": "*4", "atom_type": "Cs"}}

>  <type>  (18) 
unop_14

>  <geom_source>  (18) 
gaussian_log

$$$$
