
     RDKit          3D

 15 14  0  0  0  0  0  0  0  0999 V2000
   -1.2811   -0.4129    1.0228 C   0  0  0  0  0  0  0  0  0  0  0  0
   -1.0023   -0.5809   -0.4650 C   0  0  0  0  0  0  0  0  0  0  0  0
   -2.0576    0.0568   -1.3449 C   0  0  0  0  0  0  0  0  0  0  0  0
   -2.0663    1.4464   -1.1307 O   0  0  0  0  0  0  0  0  0  0  0  0
   -3.0424    2.1072   -1.8849 C   0  0  0  0  0  0  0  0  0  0  0  0
   -2.2382   -0.8657    1.2935 H   0  0  0  0  0  0  0  0  0  0  0  0
   -1.3219    0.6426    1.2914 H   0  0  0  0  0  0  0  0  0  0  0  0
   -0.5042   -0.8881    1.6236 H   0  0  0  0  0  0  0  0  0  0  0  0
   -0.0316   -0.1460   -0.7167 H   0  0  0  0  0  0  0  0  0  0  0  0
   -0.9494   -1.6429   -0.7203 H   0  0  0  0  0  0  0  0  0  0  0  0
   -1.8518   -0.1570   -2.4041 H   0  0  0  0  0  0  0  0  0  0  0  0
   -3.0491   -0.3636   -1.1124 H   0  0  0  0  0  0  0  0  0  0  0  0
   -4.0521    1.7545   -1.6343 H   0  0  0  0  0  0  0  0  0  0  0  0
   -2.8850    1.9634   -2.9626 H   0  0  0  0  0  0  0  0  0  0  0  0
   -2.9730    3.1700   -1.6570 H   0  0  0  0  0  0  0  0  0  0  0  0
  1  2  1  0
  1  6  1  0
  1  7  1  0
  1  8  1  0
  2  3  1  0
  2  9  1  0
  2 10  1  0
  3  4  1  0
  3 11  1  0
  3 12  1  0
  4  5  1  0
  5 13  1  0
  5 14  1  0
  5 15  1  0
M  END
>  <reaction>  (1) 
rmg_rxn_666

>  <mol_properties>  (1) 
{"4": {"label": "donator", "atom_type": "Cs"}, "12": {"label": "d_hydrogen", "atom_type": "H0"}}

>  <type>  (1) 
r1h

$$$$

     RDKit          3D

 13 13  0  0  0  0  0  0  0  0999 V2000
    0.5794    1.5990    0.2108 C   0  0  0  0  0  3  0  0  0  0  0  0
    1.4528    0.6621   -0.2496 O   0  0  0  0  0  0  0  0  0  0  0  0
    1.0751   -0.6763    0.0423 C   0  0  0  0  0  0  0  0  0  0  0  0
   -0.3579   -0.9282   -0.3924 C   0  0  0  0  0  0  0  0  0  0  0  0
   -1.2426    0.1393    0.2269 C   0  0  0  0  0  0  0  0  0  0  0  0
   -0.7410    1.4341   -0.0749 O   0  0  0  0  0  0  0  0  0  0  0  0
    0.9183    2.6078    0.0084 H   0  0  0  0  0  0  0  0  0  0  0  0
    1.1839   -0.8508    1.1199 H   0  0  0  0  0  0  0  0  0  0  0  0
    1.7816   -1.3130   -0.4874 H   0  0  0  0  0  0  0  0  0  0  0  0
   -0.6818   -1.9210   -0.0736 H   0  0  0  0  0  0  0  0  0  0  0  0
   -0.4271   -0.8785   -1.4810 H   0  0  0  0  0  0  0  0  0  0  0  0
   -1.2832    0.0173    1.3164 H   0  0  0  0  0  0  0  0  0  0  0  0
   -2.2575    0.1083   -0.1657 H   0  0  0  0  0  0  0  0  0  0  0  0
  1  2  1  0
  1  6  1  0
  1  7  1  0
  2  3  1  0
  3  4  1  0
  3  8  1  0
  3  9  1  0
  4  5  1  0
  4 10  1  0
  4 11  1  0
  5  6  1  0
  5 12  1  0
  5 13  1  0
M  RAD  1   1   2
M  END
>  <reaction>  (2) 
rmg_rxn_666

>  <mol_properties>  (2) 
{"0": {"label": "acceptor", "atom_type": "Cs"}}

>  <type>  (2) 
r2

$$$$

     RDKit          3D

 14 14  0  0  0  0  0  0  0  0999 V2000
   -1.1778    0.2241    0.1818 C   0  0  0  0  0  0  0  0  0  0  0  0
   -0.5633   -1.1636    0.0678 C   0  0  0  0  0  0  0  0  0  0  0  0
    0.6943   -1.1996    0.7146 O   0  0  0  0  0  0  0  0  0  0  0  0
    1.5547   -0.2288    0.2011 C   0  0  0  0  0  0  0  0  0  0  0  0
    1.0729    1.0696    0.3698 O   0  0  0  0  0  0  0  0  0  0  0  0
   -0.1607    1.2493   -0.2989 C   0  0  0  0  0  0  0  0  0  0  0  0
   -2.0927    0.2866   -0.4117 H   0  0  0  0  0  0  0  0  0  0  0  0
   -1.4303    0.4248    1.2248 H   0  0  0  0  0  0  0  0  0  0  0  0
   -1.1822   -1.9235    0.5431 H   0  0  0  0  0  0  0  0  0  0  0  0
   -0.4389   -1.4347   -0.9919 H   0  0  0  0  0  0  0  0  0  0  0  0
    1.7250   -0.4207   -0.8742 H   0  0  0  0  0  0  0  0  0  0  0  0
    2.4896   -0.3010    0.7524 H   0  0  0  0  0  0  0  0  0  0  0  0
   -0.0080    1.1481   -1.3844 H   0  0  0  0  0  0  0  0  0  0  0  0
   -0.4826    2.2695   -0.0942 H   0  0  0  0  0  0  0  0  0  0  0  0
  1  2  1  0
  1  6  1  0
  1  7  1  0
  1  8  1  0
  2  3  1  0
  2  9  1  0
  2 10  1  0
  3  4  1  0
  4  5  1  0
  4 11  1  0
  4 12  1  0
  5  6  1  0
  6 13  1  0
  6 14  1  0
M  END
>  <reaction>  (3) 
rmg_rxn_666

>  <mol_properties>  (3) 
{"0": {"label": "acceptor", "atom_type": "Cs"}, "13": {"label": "a_hydrogen", "atom_type": "H0"}}

>  <type>  (3) 
r2h

$$$$

     RDKit          3D

 28 27  0  0  0  0  0  0  0  0999 V2000
    0.2896    1.3469    0.8336 C   0  0  0  0  0  3  0  0  0  0  0  0
    1.3652    0.6156    0.3701 O   0  0  0  0  0  0  0  0  0  0  0  0
    2.0205    1.2459   -0.7229 C   0  0  0  0  0  0  0  0  0  0  0  0
    1.0248    1.5472   -1.8315 C   0  0  0  0  0  0  0  0  0  0  0  0
   -0.1503    2.3074   -1.2384 C   0  0  0  0  0  0  0  0  0  0  0  0
   -0.6707    1.6060   -0.1177 O   0  0  0  0  0  0  0  0  0  0  0  0
    0.6054    2.2554    1.3723 H   0  0  0  0  0  0  0  0  0  0  0  0
    2.4951    2.1745   -0.3742 H   0  0  0  0  0  0  0  0  0  0  0  0
    2.8031    0.5625   -1.0507 H   0  0  0  0  0  0  0  0  0  0  0  0
    1.5007    2.1352   -2.6195 H   0  0  0  0  0  0  0  0  0  0  0  0
    0.6686    0.6119   -2.2671 H   0  0  0  0  0  0  0  0  0  0  0  0
   -0.9702    2.4105   -1.9478 H   0  0  0  0  0  0  0  0  0  0  0  0
    0.1657    3.3129   -0.9240 H   0  0  0  0  0  0  0  0  0  0  0  0
   -0.4296   -2.1408   -1.2908 C   0  0  0  0  0  0  0  0  0  0  0  0
   -0.4738   -3.0507   -0.0698 C   0  0  0  0  0  0  0  0  0  0  0  0
   -0.2395   -2.2974    1.2226 C   0  0  0  0  0  0  0  0  0  0  0  0
   -1.3439   -1.4413    1.4588 O   0  0  0  0  0  0  0  0  0  0  0  0
   -1.0885   -0.4196    2.3380 C   0  0  0  0  0  0  0  0  0  0  0  0
    0.5590   -1.6874   -1.3920 H   0  0  0  0  0  0  0  0  0  0  0  0
   -1.1543   -1.3316   -1.1941 H   0  0  0  0  0  0  0  0  0  0  0  0
   -0.6473   -2.6948   -2.2054 H   0  0  0  0  0  0  0  0  0  0  0  0
   -1.4400   -3.5582   -0.0077 H   0  0  0  0  0  0  0  0  0  0  0  0
    0.2889   -3.8301   -0.1521 H   0  0  0  0  0  0  0  0  0  0  0  0
   -0.1360   -2.9901    2.0682 H   0  0  0  0  0  0  0  0  0  0  0  0
    0.6773   -1.7019    1.1491 H   0  0  0  0  0  0  0  0  0  0  0  0
   -0.3704    0.4898    1.7296 H   0  0  0  0  0  0  0  0  0  0  0  0
   -0.5051   -0.7172    3.2170 H   0  0  0  0  0  0  0  0  0  0  0  0
   -2.0174    0.0844    2.5980 H   0  0  0  0  0  0  0  0  0  0  0  0
  1  2  1  0
  1  6  1  0
  1  7  1  0
  2  3  1  0
  3  4  1  0
  3  8  1  0
  3  9  1  0
  4  5  1  0
  4 10  1  0
  4 11  1  0
  5  6  1  0
  5 12  1  0
  5 13  1  0
 14 15  1  0
 14 19  1  0
 14 20  1  0
 14 21  1  0
 15 16  1  0
 15 22  1  0
 15 23  1  0
 16 17  1  0
 16 24  1  0
 16 25  1  0
 17 18  1  0
 18 26  1  0
 18 27  1  0
 18 28  1  0
M  RAD  1   1   2
M  END
>  <reaction>  (4) 
rmg_rxn_666

>  <mol_properties>  (4) 
{"0": {"label": "*3", "atom_type": "Cs"}, "1": {"label": "*4", "atom_type": "O2s"}, "16": {"label": "*0", "atom_type": "O2s"}, "17": {"label": "*1", "atom_type": "Cs"}, "25": {"label": "*2", "atom_type": "H0"}}

>  <type>  (4) 
ts

$$$$

     RDKit          3D

 28 27  0  0  0  0  0  0  0  0999 V2000
    0.5072    0.9037   -0.3649 C   0  0  0  0  0  0  0  0  0  0  0  0
   -0.0624    1.9627   -1.0722 O   0  0  0  0  0  0  0  0  0  0  0  0
    0.6487    3.1661   -0.8542 C   0  0  0  0  0  0  0  0  0  0  0  0
    0.7165    3.4789    0.6338 C   0  0  0  0  0  0  0  0  0  0  0  0
    1.2514    2.2562    1.3657 C   0  0  0  0  0  0  0  0  0  0  0  0
    0.5043    1.1071    1.0154 O   0  0  0  0  0  0  0  0  0  0  0  0
    1.5455    0.7472   -0.7109 H   0  0  0  0  0  0  0  0  0  0  0  0
    1.6653    3.0715   -1.2659 H   0  0  0  0  0  0  0  0  0  0  0  0
    0.1271    3.9437   -1.4105 H   0  0  0  0  0  0  0  0  0  0  0  0
    1.3598    4.3432    0.8134 H   0  0  0  0  0  0  0  0  0  0  0  0
   -0.2844    3.7130    1.0015 H   0  0  0  0  0  0  0  0  0  0  0  0
    1.1744    2.3627    2.4469 H   0  0  0  0  0  0  0  0  0  0  0  0
    2.3103    2.0976    1.1101 H   0  0  0  0  0  0  0  0  0  0  0  0
   -0.2146   -3.9264   -1.6719 C   0  0  0  0  0  0  0  0  0  0  0  0
   -0.2146   -3.9264   -0.1490 C   0  0  0  0  0  0  0  0  0  0  0  0
   -0.2146   -2.5338    0.4471 C   0  0  0  0  0  0  0  0  0  0  0  0
   -1.3996   -1.8703    0.0829 O   0  0  0  0  0  0  0  0  0  0  0  0
   -1.4604   -0.5592    0.5681 C   0  0  0  0  0  3  0  0  0  0  0  0
    0.6678   -3.4127   -2.0616 H   0  0  0  0  0  0  0  0  0  0  0  0
   -1.0970   -3.4165   -2.0583 H   0  0  0  0  0  0  0  0  0  0  0  0
   -0.2097   -4.9444   -2.0642 H   0  0  0  0  0  0  0  0  0  0  0  0
   -1.0887   -4.4645    0.2266 H   0  0  0  0  0  0  0  0  0  0  0  0
    0.6671   -4.4525    0.2273 H   0  0  0  0  0  0  0  0  0  0  0  0
   -0.1378   -2.5875    1.5431 H   0  0  0  0  0  0  0  0  0  0  0  0
    0.6578   -1.9668    0.0849 H   0  0  0  0  0  0  0  0  0  0  0  0
   -0.4718    0.1758    0.0993 H   0  0  0  0  0  0  0  0  0  0  0  0
   -1.4184   -0.5331    1.6656 H   0  0  0  0  0  0  0  0  0  0  0  0
   -2.4061   -0.1291    0.2409 H   0  0  0  0  0  0  0  0  0  0  0  0
  1  2  1  0
  1  6  1  0
  1  7  1  0
  1 26  1  0
  2  3  1  0
  3  4  1  0
  3  8  1  0
  3  9  1  0
  4  5  1  0
  4 10  1  0
  4 11  1  0
  5  6  1  0
  5 12  1  0
  5 13  1  0
 14 15  1  0
 14 19  1  0
 14 20  1  0
 14 21  1  0
 15 16  1  0
 15 22  1  0
 15 23  1  0
 16 17  1  0
 16 24  1  0
 16 25  1  0
 17 18  1  0
 18 27  1  0
 18 28  1  0
M  RAD  1  18   2
M  END
>  <reaction>  (5) 
rmg_rxn_666

>  <mol_properties>  (5) 
{"0": {"label": "*3", "atom_type": "Cs"}, "1": {"label": "*4", "atom_type": "O2s"}, "16": {"label": "*0", "atom_type": "O2s"}, "17": {"label": "*1", "atom_type": "Cs"}, "25": {"label": "*2", "atom_type": "H0"}}

>  <type>  (5) 
unop_1

>  <geom_source>  (5) 
Heuristics

$$$$

     RDKit          3D

 28 27  0  0  0  0  0  0  0  0999 V2000
    0.4968    1.1225    0.4578 C   0  0  0  0  0  0  0  0  0  0  0  0
    0.8258    0.6207   -0.8017 O   0  0  0  0  0  0  0  0  0  0  0  0
    1.5428    1.5743   -1.5620 C   0  0  0  0  0  0  0  0  0  0  0  0
    0.7448    2.8648   -1.6812 C   0  0  0  0  0  0  0  0  0  0  0  0
    0.3291    3.3122   -0.2871 C   0  0  0  0  0  0  0  0  0  0  0  0
   -0.3155    2.2551    0.3973 O   0  0  0  0  0  0  0  0  0  0  0  0
    1.4233    1.3642    1.0104 H   0  0  0  0  0  0  0  0  0  0  0  0
    2.5123    1.7740   -1.0802 H   0  0  0  0  0  0  0  0  0  0  0  0
    1.7327    1.1214   -2.5341 H   0  0  0  0  0  0  0  0  0  0  0  0
    1.3414    3.6391   -2.1688 H   0  0  0  0  0  0  0  0  0  0  0  0
   -0.1465    2.6859   -2.2858 H   0  0  0  0  0  0  0  0  0  0  0  0
   -0.3763    4.1415   -0.3188 H   0  0  0  0  0  0  0  0  0  0  0  0
    1.2132    3.6343    0.2844 H   0  0  0  0  0  0  0  0  0  0  0  0
   -0.2250   -3.7075   -0.8492 C   0  0  0  0  0  0  0  0  0  0  0  0
   -0.2250   -3.7075    0.6737 C   0  0  0  0  0  0  0  0  0  0  0  0
   -0.2250   -2.3150    1.2698 C   0  0  0  0  0  0  0  0  0  0  0  0
   -1.4101   -1.6515    0.9056 O   0  0  0  0  0  0  0  0  0  0  0  0
   -1.4709   -0.3404    1.3908 C   0  0  0  0  0  3  0  0  0  0  0  0
    0.6574   -3.1939   -1.2389 H   0  0  0  0  0  0  0  0  0  0  0  0
   -1.1075   -3.1976   -1.2356 H   0  0  0  0  0  0  0  0  0  0  0  0
   -0.2201   -4.7255   -1.2415 H   0  0  0  0  0  0  0  0  0  0  0  0
   -1.0991   -4.2457    1.0493 H   0  0  0  0  0  0  0  0  0  0  0  0
    0.6567   -4.2337    1.0500 H   0  0  0  0  0  0  0  0  0  0  0  0
   -0.1482   -2.3687    2.3658 H   0  0  0  0  0  0  0  0  0  0  0  0
    0.6474   -1.7479    0.9076 H   0  0  0  0  0  0  0  0  0  0  0  0
   -0.4822    0.3947    0.9220 H   0  0  0  0  0  0  0  0  0  0  0  0
   -1.4289   -0.3143    2.4883 H   0  0  0  0  0  0  0  0  0  0  0  0
   -2.4165    0.0897    1.0637 H   0  0  0  0  0  0  0  0  0  0  0  0
  1  2  1  0
  1  6  1  0
  1  7  1  0
  1 26  1  0
  2  3  1  0
  3  4  1  0
  3  8  1  0
  3  9  1  0
  4  5  1  0
  4 10  1  0
  4 11  1  0
  5  6  1  0
  5 12  1  0
  5 13  1  0
 14 15  1  0
 14 19  1  0
 14 20  1  0
 14 21  1  0
 15 16  1  0
 15 22  1  0
 15 23  1  0
 16 17  1  0
 16 24  1  0
 16 25  1  0
 17 18  1  0
 18 27  1  0
 18 28  1  0
M  RAD  1  18   2
M  END
>  <reaction>  (6) 
rmg_rxn_666

>  <mol_properties>  (6) 
{"0": {"label": "*3", "atom_type": "Cs"}, "1": {"label": "*4", "atom_type": "O2s"}, "16": {"label": "*0", "atom_type": "O2s"}, "17": {"label": "*1", "atom_type": "Cs"}, "25": {"label": "*2", "atom_type": "H0"}}

>  <type>  (6) 
unop_2

>  <geom_source>  (6) 
Heuristics

$$$$

     RDKit          3D

 28 27  0  0  0  0  0  0  0  0999 V2000
    0.2072    1.0542   -0.4600 C   0  0  0  0  0  0  0  0  0  0  0  0
   -0.2534    2.3689   -0.5364 O   0  0  0  0  0  0  0  0  0  0  0  0
    0.8098    3.2928   -0.4045 C   0  0  0  0  0  0  0  0  0  0  0  0
    1.5607    3.0535    0.8976 C   0  0  0  0  0  0  0  0  0  0  0  0
    1.9521    1.5846    0.9724 C   0  0  0  0  0  0  0  0  0  0  0  0
    0.8209    0.7624    0.7585 O   0  0  0  0  0  0  0  0  0  0  0  0
    0.9194    0.8660   -1.2843 H   0  0  0  0  0  0  0  0  0  0  0  0
    1.4952    3.1881   -1.2594 H   0  0  0  0  0  0  0  0  0  0  0  0
    0.3673    4.2873   -0.4427 H   0  0  0  0  0  0  0  0  0  0  0  0
    2.4482    3.6883    0.9488 H   0  0  0  0  0  0  0  0  0  0  0  0
    0.9128    3.3000    1.7409 H   0  0  0  0  0  0  0  0  0  0  0  0
    2.3524    1.3190    1.9499 H   0  0  0  0  0  0  0  0  0  0  0  0
    2.7180    1.3597    0.2143 H   0  0  0  0  0  0  0  0  0  0  0  0
   -0.5146   -3.7759   -1.7670 C   0  0  0  0  0  0  0  0  0  0  0  0
   -0.5146   -3.7759   -0.2441 C   0  0  0  0  0  0  0  0  0  0  0  0
   -0.5146   -2.3833    0.3519 C   0  0  0  0  0  0  0  0  0  0  0  0
   -1.6997   -1.7199   -0.0122 O   0  0  0  0  0  0  0  0  0  0  0  0
   -1.7605   -0.4088    0.4730 C   0  0  0  0  0  3  0  0  0  0  0  0
    0.3678   -3.2623   -2.1567 H   0  0  0  0  0  0  0  0  0  0  0  0
   -1.3971   -3.2660   -2.1534 H   0  0  0  0  0  0  0  0  0  0  0  0
   -0.5097   -4.7939   -2.1593 H   0  0  0  0  0  0  0  0  0  0  0  0
   -1.3887   -4.3141    0.1315 H   0  0  0  0  0  0  0  0  0  0  0  0
    0.3671   -4.3021    0.1321 H   0  0  0  0  0  0  0  0  0  0  0  0
   -0.4378   -2.4370    1.4480 H   0  0  0  0  0  0  0  0  0  0  0  0
    0.3578   -1.8163   -0.0103 H   0  0  0  0  0  0  0  0  0  0  0  0
   -0.7718    0.3263    0.0042 H   0  0  0  0  0  0  0  0  0  0  0  0
   -1.7185   -0.3827    1.5704 H   0  0  0  0  0  0  0  0  0  0  0  0
   -2.7061    0.0213    0.1458 H   0  0  0  0  0  0  0  0  0  0  0  0
  1  2  1  0
  1  6  1  0
  1  7  1  0
  1 26  1  0
  2  3  1  0
  3  4  1  0
  3  8  1  0
  3  9  1  0
  4  5  1  0
  4 10  1  0
  4 11  1  0
  5  6  1  0
  5 12  1  0
  5 13  1  0
 14 15  1  0
 14 19  1  0
 14 20  1  0
 14 21  1  0
 15 16  1  0
 15 22  1  0
 15 23  1  0
 16 17  1  0
 16 24  1  0
 16 25  1  0
 17 18  1  0
 18 27  1  0
 18 28  1  0
M  RAD  1  18   2
M  END
>  <reaction>  (7) 
rmg_rxn_666

>  <mol_properties>  (7) 
{"0": {"label": "*3", "atom_type": "Cs"}, "1": {"label": "*4", "atom_type": "O2s"}, "16": {"label": "*0", "atom_type": "O2s"}, "17": {"label": "*1", "atom_type": "Cs"}, "25": {"label": "*2", "atom_type": "H0"}}

>  <type>  (7) 
unop_3

>  <geom_source>  (7) 
Heuristics

$$$$

     RDKit          3D

 28 27  0  0  0  0  0  0  0  0999 V2000
   -0.0734    1.2716    0.0747 C   0  0  0  0  0  0  0  0  0  0  0  0
    1.1185    0.6753    0.4870 O   0  0  0  0  0  0  0  0  0  0  0  0
    2.1356    1.6402    0.6767 C   0  0  0  0  0  0  0  0  0  0  0  0
    2.3426    2.4484   -0.5964 C   0  0  0  0  0  0  0  0  0  0  0  0
    0.9966    2.9919   -1.0539 C   0  0  0  0  0  0  0  0  0  0  0  0
    0.0474    1.9464   -1.1404 O   0  0  0  0  0  0  0  0  0  0  0  0
   -0.4202    1.9760    0.8530 H   0  0  0  0  0  0  0  0  0  0  0  0
    1.8574    2.3085    1.5060 H   0  0  0  0  0  0  0  0  0  0  0  0
    3.0341    1.0962    0.9645 H   0  0  0  0  0  0  0  0  0  0  0  0
    3.0446    3.2664   -0.4195 H   0  0  0  0  0  0  0  0  0  0  0  0
    2.7563    1.8024   -1.3732 H   0  0  0  0  0  0  0  0  0  0  0  0
    1.0550    3.4449   -2.0426 H   0  0  0  0  0  0  0  0  0  0  0  0
    0.6383    3.7552   -0.3463 H   0  0  0  0  0  0  0  0  0  0  0  0
   -0.7953   -3.5585   -1.2323 C   0  0  0  0  0  0  0  0  0  0  0  0
   -0.7953   -3.5585    0.2906 C   0  0  0  0  0  0  0  0  0  0  0  0
   -0.7953   -2.1659    0.8866 C   0  0  0  0  0  0  0  0  0  0  0  0
   -1.9803   -1.5024    0.5225 O   0  0  0  0  0  0  0  0  0  0  0  0
   -2.0411   -0.1913    1.0076 C   0  0  0  0  0  3  0  0  0  0  0  0
    0.0871   -3.0448   -1.6221 H   0  0  0  0  0  0  0  0  0  0  0  0
   -1.6777   -3.0486   -1.6188 H   0  0  0  0  0  0  0  0  0  0  0  0
   -0.7904   -4.5765   -1.6246 H   0  0  0  0  0  0  0  0  0  0  0  0
   -1.6694   -4.0966    0.6662 H   0  0  0  0  0  0  0  0  0  0  0  0
    0.0865   -4.0846    0.6668 H   0  0  0  0  0  0  0  0  0  0  0  0
   -0.7184   -2.2196    1.9827 H   0  0  0  0  0  0  0  0  0  0  0  0
    0.0771   -1.5988    0.5244 H   0  0  0  0  0  0  0  0  0  0  0  0
   -1.0524    0.5437    0.5389 H   0  0  0  0  0  0  0  0  0  0  0  0
   -1.9991   -0.1652    2.1051 H   0  0  0  0  0  0  0  0  0  0  0  0
   -2.9868    0.2388    0.6805 H   0  0  0  0  0  0  0  0  0  0  0  0
  1  2  1  0
  1  6  1  0
  1  7  1  0
  1 26  1  0
  2  3  1  0
  3  4  1  0
  3  8  1  0
  3  9  1  0
  4  5  1  0
  4 10  1  0
  4 11  1  0
  5  6  1  0
  5 12  1  0
  5 13  1  0
 14 15  1  0
 14 19  1  0
 14 20  1  0
 14 21  1  0
 15 16  1  0
 15 22  1  0
 15 23  1  0
 16 17  1  0
 16 24  1  0
 16 25  1  0
 17 18  1  0
 18 27  1  0
 18 28  1  0
M  RAD  1  18   2
M  END
>  <reaction>  (8) 
rmg_rxn_666

>  <mol_properties>  (8) 
{"0": {"label": "*3", "atom_type": "Cs"}, "1": {"label": "*4", "atom_type": "O2s"}, "16": {"label": "*0", "atom_type": "O2s"}, "17": {"label": "*1", "atom_type": "Cs"}, "25": {"label": "*2", "atom_type": "H0"}}

>  <type>  (8) 
unop_4

>  <geom_source>  (8) 
Heuristics

$$$$

     RDKit          3D

 28 27  0  0  0  0  0  0  0  0999 V2000
   -0.0294    1.1728   -0.2256 C   0  0  0  0  0  0  0  0  0  0  0  0
   -0.1741    2.4529    0.3099 O   0  0  0  0  0  0  0  0  0  0  0  0
    0.8641    3.3103   -0.1240 C   0  0  0  0  0  0  0  0  0  0  0  0
    2.2213    2.7209    0.2326 C   0  0  0  0  0  0  0  0  0  0  0  0
    2.2856    1.2927   -0.2896 C   0  0  0  0  0  0  0  0  0  0  0  0
    1.1627    0.5555    0.1542 O   0  0  0  0  0  0  0  0  0  0  0  0
   -0.0791    1.2283   -1.3286 H   0  0  0  0  0  0  0  0  0  0  0  0
    0.7902    3.4544   -1.2128 H   0  0  0  0  0  0  0  0  0  0  0  0
    0.6983    4.2725    0.3587 H   0  0  0  0  0  0  0  0  0  0  0  0
    3.0243    3.3222   -0.1999 H   0  0  0  0  0  0  0  0  0  0  0  0
    2.3414    2.7165    1.3176 H   0  0  0  0  0  0  0  0  0  0  0  0
    3.1685    0.7666    0.0709 H   0  0  0  0  0  0  0  0  0  0  0  0
    2.3118    1.2948   -1.3901 H   0  0  0  0  0  0  0  0  0  0  0  0
   -0.7512   -3.6573   -1.5326 C   0  0  0  0  0  0  0  0  0  0  0  0
   -0.7512   -3.6573   -0.0097 C   0  0  0  0  0  0  0  0  0  0  0  0
   -0.7512   -2.2647    0.5863 C   0  0  0  0  0  0  0  0  0  0  0  0
   -1.9363   -1.6013    0.2222 O   0  0  0  0  0  0  0  0  0  0  0  0
   -1.9971   -0.2902    0.7073 C   0  0  0  0  0  3  0  0  0  0  0  0
    0.1311   -3.1437   -1.9224 H   0  0  0  0  0  0  0  0  0  0  0  0
   -1.6337   -3.1474   -1.9191 H   0  0  0  0  0  0  0  0  0  0  0  0
   -0.7463   -4.6753   -1.9249 H   0  0  0  0  0  0  0  0  0  0  0  0
   -1.6254   -4.1955    0.3659 H   0  0  0  0  0  0  0  0  0  0  0  0
    0.1305   -4.1835    0.3665 H   0  0  0  0  0  0  0  0  0  0  0  0
   -0.6744   -2.3184    1.6824 H   0  0  0  0  0  0  0  0  0  0  0  0
    0.1211   -1.6977    0.2241 H   0  0  0  0  0  0  0  0  0  0  0  0
   -1.0084    0.4449    0.2386 H   0  0  0  0  0  0  0  0  0  0  0  0
   -1.9551   -0.2641    1.8048 H   0  0  0  0  0  0  0  0  0  0  0  0
   -2.9428    0.1400    0.3802 H   0  0  0  0  0  0  0  0  0  0  0  0
  1  2  1  0
  1  6  1  0
  1  7  1  0
  1 26  1  0
  2  3  1  0
  3  4  1  0
  3  8  1  0
  3  9  1  0
  4  5  1  0
  4 10  1  0
  4 11  1  0
  5  6  1  0
  5 12  1  0
  5 13  1  0
 14 15  1  0
 14 19  1  0
 14 20  1  0
 14 21  1  0
 15 16  1  0
 15 22  1  0
 15 23  1  0
 16 17  1  0
 16 24  1  0
 16 25  1  0
 17 18  1  0
 18 27  1  0
 18 28  1  0
M  RAD  1  18   2
M  END
>  <reaction>  (9) 
rmg_rxn_666

>  <mol_properties>  (9) 
{"0": {"label": "*3", "atom_type": "Cs"}, "1": {"label": "*4", "atom_type": "O2s"}, "16": {"label": "*0", "atom_type": "O2s"}, "17": {"label": "*1", "atom_type": "Cs"}, "25": {"label": "*2", "atom_type": "H0"}}

>  <type>  (9) 
unop_5

>  <geom_source>  (9) 
Heuristics

$$$$

     RDKit          3D

 28 27  0  0  0  0  0  0  0  0999 V2000
   -0.0258    1.1578   -0.0193 C   0  0  0  0  0  0  0  0  0  0  0  0
    1.0393    1.0389    0.8740 O   0  0  0  0  0  0  0  0  0  0  0  0
    1.7255    2.2674    1.0197 C   0  0  0  0  0  0  0  0  0  0  0  0
    2.2041    2.7704   -0.3348 C   0  0  0  0  0  0  0  0  0  0  0  0
    1.0232    2.7859   -1.2948 C   0  0  0  0  0  0  0  0  0  0  0  0
    0.3788    1.5265   -1.3026 O   0  0  0  0  0  0  0  0  0  0  0  0
   -0.7473    1.9014    0.3662 H   0  0  0  0  0  0  0  0  0  0  0  0
    1.0562    3.0092    1.4819 H   0  0  0  0  0  0  0  0  0  0  0  0
    2.5542    2.0846    1.7023 H   0  0  0  0  0  0  0  0  0  0  0  0
    2.6331    3.7706   -0.2409 H   0  0  0  0  0  0  0  0  0  0  0  0
    2.9755    2.1002   -0.7190 H   0  0  0  0  0  0  0  0  0  0  0  0
    1.3338    2.9854   -2.3195 H   0  0  0  0  0  0  0  0  0  0  0  0
    0.3045    3.5641   -0.9954 H   0  0  0  0  0  0  0  0  0  0  0  0
   -0.7476   -3.6723   -1.3264 C   0  0  0  0  0  0  0  0  0  0  0  0
   -0.7476   -3.6723    0.1965 C   0  0  0  0  0  0  0  0  0  0  0  0
   -0.7476   -2.2797    0.7926 C   0  0  0  0  0  0  0  0  0  0  0  0
   -1.9327   -1.6163    0.4284 O   0  0  0  0  0  0  0  0  0  0  0  0
   -1.9935   -0.3052    0.9136 C   0  0  0  0  0  3  0  0  0  0  0  0
    0.1348   -3.1586   -1.7161 H   0  0  0  0  0  0  0  0  0  0  0  0
   -1.6301   -3.1624   -1.7128 H   0  0  0  0  0  0  0  0  0  0  0  0
   -0.7427   -4.6903   -1.7187 H   0  0  0  0  0  0  0  0  0  0  0  0
   -1.6217   -4.2104    0.5722 H   0  0  0  0  0  0  0  0  0  0  0  0
    0.1341   -4.1984    0.5728 H   0  0  0  0  0  0  0  0  0  0  0  0
   -0.6708   -2.3334    1.8886 H   0  0  0  0  0  0  0  0  0  0  0  0
    0.1248   -1.7127    0.4304 H   0  0  0  0  0  0  0  0  0  0  0  0
   -1.0048    0.4299    0.4448 H   0  0  0  0  0  0  0  0  0  0  0  0
   -1.9515   -0.2791    2.0111 H   0  0  0  0  0  0  0  0  0  0  0  0
   -2.9391    0.1250    0.5865 H   0  0  0  0  0  0  0  0  0  0  0  0
  1  2  1  0
  1  6  1  0
  1  7  1  0
  1 26  1  0
  2  3  1  0
  3  4  1  0
  3  8  1  0
  3  9  1  0
  4  5  1  0
  4 10  1  0
  4 11  1  0
  5  6  1  0
  5 12  1  0
  5 13  1  0
 14 15  1  0
 14 19  1  0
 14 20  1  0
 14 21  1  0
 15 16  1  0
 15 22  1  0
 15 23  1  0
 16 17  1  0
 16 24  1  0
 16 25  1  0
 17 18  1  0
 18 27  1  0
 18 28  1  0
M  RAD  1  18   2
M  END
>  <reaction>  (10) 
rmg_rxn_666

>  <mol_properties>  (10) 
{"0": {"label": "*3", "atom_type": "Cs"}, "1": {"label": "*4", "atom_type": "O2s"}, "16": {"label": "*0", "atom_type": "O2s"}, "17": {"label": "*1", "atom_type": "Cs"}, "25": {"label": "*2", "atom_type": "H0"}}

>  <type>  (10) 
unop_6

>  <geom_source>  (10) 
Heuristics

$$$$

     RDKit          3D

 28 27  0  0  0  0  0  0  0  0999 V2000
    0.0299    1.0927   -0.0021 C   0  0  0  0  0  0  0  0  0  0  0  0
    0.7660    1.5451    1.0933 O   0  0  0  0  0  0  0  0  0  0  0  0
    1.2257    2.8677    0.8909 C   0  0  0  0  0  0  0  0  0  0  0  0
    2.0450    2.9534   -0.3889 C   0  0  0  0  0  0  0  0  0  0  0  0
    1.2326    2.3570   -1.5295 C   0  0  0  0  0  0  0  0  0  0  0  0
    0.7725    1.0649   -1.1829 O   0  0  0  0  0  0  0  0  0  0  0  0
   -0.8566    1.7384   -0.1409 H   0  0  0  0  0  0  0  0  0  0  0  0
    0.3644    3.5508    0.8332 H   0  0  0  0  0  0  0  0  0  0  0  0
    1.8127    3.1333    1.7690 H   0  0  0  0  0  0  0  0  0  0  0  0
    2.3048    3.9917   -0.6072 H   0  0  0  0  0  0  0  0  0  0  0  0
    2.9698    2.3861   -0.2666 H   0  0  0  0  0  0  0  0  0  0  0  0
    1.8248    2.2460   -2.4368 H   0  0  0  0  0  0  0  0  0  0  0  0
    0.3718    3.0042   -1.7574 H   0  0  0  0  0  0  0  0  0  0  0  0
   -0.6919   -3.7374   -1.3091 C   0  0  0  0  0  0  0  0  0  0  0  0
   -0.6919   -3.7374    0.2138 C   0  0  0  0  0  0  0  0  0  0  0  0
   -0.6919   -2.3448    0.8098 C   0  0  0  0  0  0  0  0  0  0  0  0
   -1.8769   -1.6814    0.4457 O   0  0  0  0  0  0  0  0  0  0  0  0
   -1.9377   -0.3703    0.9308 C   0  0  0  0  0  3  0  0  0  0  0  0
    0.1905   -3.2238   -1.6989 H   0  0  0  0  0  0  0  0  0  0  0  0
   -1.5744   -3.2275   -1.6956 H   0  0  0  0  0  0  0  0  0  0  0  0
   -0.6870   -4.7554   -1.7014 H   0  0  0  0  0  0  0  0  0  0  0  0
   -1.5660   -4.2756    0.5894 H   0  0  0  0  0  0  0  0  0  0  0  0
    0.1898   -4.2636    0.5900 H   0  0  0  0  0  0  0  0  0  0  0  0
   -0.6151   -2.3985    1.9059 H   0  0  0  0  0  0  0  0  0  0  0  0
    0.1805   -1.7778    0.4476 H   0  0  0  0  0  0  0  0  0  0  0  0
   -0.9491    0.3648    0.4621 H   0  0  0  0  0  0  0  0  0  0  0  0
   -1.8957   -0.3442    2.0283 H   0  0  0  0  0  0  0  0  0  0  0  0
   -2.8834    0.0598    0.6037 H   0  0  0  0  0  0  0  0  0  0  0  0
  1  2  1  0
  1  6  1  0
  1  7  1  0
  1 26  1  0
  2  3  1  0
  3  4  1  0
  3  8  1  0
  3  9  1  0
  4  5  1  0
  4 10  1  0
  4 11  1  0
  5  6  1  0
  5 12  1  0
  5 13  1  0
 14 15  1  0
 14 19  1  0
 14 20  1  0
 14 21  1  0
 15 16  1  0
 15 22  1  0
 15 23  1  0
 16 17  1  0
 16 24  1  0
 16 25  1  0
 17 18  1  0
 18 27  1  0
 18 28  1  0
M  RAD  1  18   2
M  END
>  <reaction>  (11) 
rmg_rxn_666

>  <mol_properties>  (11) 
{"0": {"label": "*3", "atom_type": "Cs"}, "1": {"label": "*4", "atom_type": "O2s"}, "16": {"label": "*0", "atom_type": "O2s"}, "17": {"label": "*1", "atom_type": "Cs"}, "25": {"label": "*2", "atom_type": "H0"}}

>  <type>  (11) 
unop_7

>  <geom_source>  (11) 
Heuristics

$$$$

     RDKit          3D

 28 27  0  0  0  0  0  0  0  0999 V2000
    0.6796    0.8632   -0.0778 C   0  0  0  0  0  0  0  0  0  0  0  0
    0.2369    1.4448   -1.2661 O   0  0  0  0  0  0  0  0  0  0  0  0
    0.6823    2.7828   -1.3790 C   0  0  0  0  0  0  0  0  0  0  0  0
    0.2302    3.5948   -0.1736 C   0  0  0  0  0  0  0  0  0  0  0  0
    0.6531    2.8648    1.0932 C   0  0  0  0  0  0  0  0  0  0  0  0
    0.2094    1.5219    1.0587 O   0  0  0  0  0  0  0  0  0  0  0  0
    1.7850    0.8511   -0.0643 H   0  0  0  0  0  0  0  0  0  0  0  0
    1.7805    2.7990   -1.4536 H   0  0  0  0  0  0  0  0  0  0  0  0
    0.2721    3.1723   -2.3097 H   0  0  0  0  0  0  0  0  0  0  0  0
    0.6671    4.5955   -0.2017 H   0  0  0  0  0  0  0  0  0  0  0  0
   -0.8569    3.6938   -0.1897 H   0  0  0  0  0  0  0  0  0  0  0  0
    0.2214    3.3148    1.9861 H   0  0  0  0  0  0  0  0  0  0  0  0
    1.7493    2.8867    1.1924 H   0  0  0  0  0  0  0  0  0  0  0  0
   -0.0422   -3.9669   -1.3848 C   0  0  0  0  0  0  0  0  0  0  0  0
   -0.0422   -3.9669    0.1381 C   0  0  0  0  0  0  0  0  0  0  0  0
   -0.0422   -2.5743    0.7342 C   0  0  0  0  0  0  0  0  0  0  0  0
   -1.2273   -1.9108    0.3700 O   0  0  0  0  0  0  0  0  0  0  0  0
   -1.2880   -0.5997    0.8552 C   0  0  0  0  0  3  0  0  0  0  0  0
    0.8402   -3.4532   -1.7745 H   0  0  0  0  0  0  0  0  0  0  0  0
   -0.9247   -3.4570   -1.7712 H   0  0  0  0  0  0  0  0  0  0  0  0
   -0.0373   -4.9849   -1.7771 H   0  0  0  0  0  0  0  0  0  0  0  0
   -0.9163   -4.5050    0.5137 H   0  0  0  0  0  0  0  0  0  0  0  0
    0.8395   -4.4930    0.5144 H   0  0  0  0  0  0  0  0  0  0  0  0
    0.0346   -2.6280    1.8302 H   0  0  0  0  0  0  0  0  0  0  0  0
    0.8302   -2.0072    0.3720 H   0  0  0  0  0  0  0  0  0  0  0  0
   -0.2994    0.1353    0.3864 H   0  0  0  0  0  0  0  0  0  0  0  0
   -1.2461   -0.5736    1.9527 H   0  0  0  0  0  0  0  0  0  0  0  0
   -2.2337   -0.1696    0.5281 H   0  0  0  0  0  0  0  0  0  0  0  0
  1  2  1  0
  1  6  1  0
  1  7  1  0
  1 26  1  0
  2  3  1  0
  3  4  1  0
  3  8  1  0
  3  9  1  0
  4  5  1  0
  4 10  1  0
  4 11  1  0
  5  6  1  0
  5 12  1  0
  5 13  1  0
 14 15  1  0
 14 19  1  0
 14 20  1  0
 14 21  1  0
 15 16  1  0
 15 22  1  0
 15 23  1  0
 16 17  1  0
 16 24  1  0
 16 25  1  0
 17 18  1  0
 18 27  1  0
 18 28  1  0
M  RAD  1  18   2
M  END
>  <reaction>  (12) 
rmg_rxn_666

>  <mol_properties>  (12) 
{"0": {"label": "*3", "atom_type": "Cs"}, "1": {"label": "*4", "atom_type": "O2s"}, "16": {"label": "*0", "atom_type": "O2s"}, "17": {"label": "*1", "atom_type": "Cs"}, "25": {"label": "*2", "atom_type": "H0"}}

>  <type>  (12) 
unop_8

>  <geom_source>  (12) 
Heuristics

$$$$

     RDKit          3D

 28 27  0  0  0  0  0  0  0  0999 V2000
   -0.0099    1.3412    0.2787 C   0  0  0  0  0  0  0  0  0  0  0  0
    1.0730    0.4892    0.0600 O   0  0  0  0  0  0  0  0  0  0  0  0
    2.2808    1.2159   -0.0599 C   0  0  0  0  0  0  0  0  0  0  0  0
    2.1684    2.2501   -1.1709 C   0  0  0  0  0  0  0  0  0  0  0  0
    0.9181    3.0855   -0.9354 C   0  0  0  0  0  0  0  0  0  0  0  0
   -0.2086    2.2474   -0.7634 O   0  0  0  0  0  0  0  0  0  0  0  0
    0.1434    1.8952    1.2230 H   0  0  0  0  0  0  0  0  0  0  0  0
    2.5066    1.7130    0.8960 H   0  0  0  0  0  0  0  0  0  0  0  0
    3.0662    0.4880   -0.2589 H   0  0  0  0  0  0  0  0  0  0  0  0
    3.0554    2.8874   -1.1906 H   0  0  0  0  0  0  0  0  0  0  0  0
    2.0891    1.7415   -2.1337 H   0  0  0  0  0  0  0  0  0  0  0  0
    0.6983    3.7368   -1.7803 H   0  0  0  0  0  0  0  0  0  0  0  0
    1.0480    3.7141   -0.0411 H   0  0  0  0  0  0  0  0  0  0  0  0
   -0.7318   -3.4888   -1.0284 C   0  0  0  0  0  0  0  0  0  0  0  0
   -0.7318   -3.4888    0.4945 C   0  0  0  0  0  0  0  0  0  0  0  0
   -0.7318   -2.0963    1.0906 C   0  0  0  0  0  0  0  0  0  0  0  0
   -1.9168   -1.4328    0.7264 O   0  0  0  0  0  0  0  0  0  0  0  0
   -1.9776   -0.1217    1.2116 C   0  0  0  0  0  3  0  0  0  0  0  0
    0.1506   -2.9752   -1.4181 H   0  0  0  0  0  0  0  0  0  0  0  0
   -1.6142   -2.9789   -1.4148 H   0  0  0  0  0  0  0  0  0  0  0  0
   -0.7268   -4.5068   -1.4207 H   0  0  0  0  0  0  0  0  0  0  0  0
   -1.6059   -4.0270    0.8702 H   0  0  0  0  0  0  0  0  0  0  0  0
    0.1500   -4.0150    0.8708 H   0  0  0  0  0  0  0  0  0  0  0  0
   -0.6549   -2.1500    2.1866 H   0  0  0  0  0  0  0  0  0  0  0  0
    0.1406   -1.5292    0.7284 H   0  0  0  0  0  0  0  0  0  0  0  0
   -0.9889    0.6134    0.7428 H   0  0  0  0  0  0  0  0  0  0  0  0
   -1.9356   -0.0956    2.3091 H   0  0  0  0  0  0  0  0  0  0  0  0
   -2.9233    0.3084    0.8845 H   0  0  0  0  0  0  0  0  0  0  0  0
  1  2  1  0
  1  6  1  0
  1  7  1  0
  1 26  1  0
  2  3  1  0
  3  4  1  0
  3  8  1  0
  3  9  1  0
  4  5  1  0
  4 10  1  0
  4 11  1  0
  5  6  1  0
  5 12  1  0
  5 13  1  0
 14 15  1  0
 14 19  1  0
 14 20  1  0
 14 21  1  0
 15 16  1  0
 15 22  1  0
 15 23  1  0
 16 17  1  0
 16 24  1  0
 16 25  1  0
 17 18  1  0
 18 27  1  0
 18 28  1  0
M  RAD  1  18   2
M  END
>  <reaction>  (13) 
rmg_rxn_666

>  <mol_properties>  (13) 
{"0": {"label": "*3", "atom_type": "Cs"}, "1": {"label": "*4", "atom_type": "O2s"}, "16": {"label": "*0", "atom_type": "O2s"}, "17": {"label": "*1", "atom_type": "Cs"}, "25": {"label": "*2", "atom_type": "H0"}}

>  <type>  (13) 
unop_9

>  <geom_source>  (13) 
Heuristics

$$$$

     RDKit          3D

 28 27  0  0  0  0  0  0  0  0999 V2000
    0.6774    0.9507    0.2413 C   0  0  0  0  0  0  0  0  0  0  0  0
    0.5636    0.9610   -1.1491 O   0  0  0  0  0  0  0  0  0  0  0  0
    1.0060    2.1909   -1.6905 C   0  0  0  0  0  0  0  0  0  0  0  0
    0.2359    3.3490   -1.0723 C   0  0  0  0  0  0  0  0  0  0  0  0
    0.3114    3.2318    0.4433 C   0  0  0  0  0  0  0  0  0  0  0  0
   -0.0896    1.9399    0.8575 O   0  0  0  0  0  0  0  0  0  0  0  0
    1.7384    1.0794    0.5240 H   0  0  0  0  0  0  0  0  0  0  0  0
    2.0835    2.3099   -1.4987 H   0  0  0  0  0  0  0  0  0  0  0  0
    0.8566    2.1311   -2.7677 H   0  0  0  0  0  0  0  0  0  0  0  0
    0.6515    4.3036   -1.4027 H   0  0  0  0  0  0  0  0  0  0  0  0
   -0.8079    3.3007   -1.3886 H   0  0  0  0  0  0  0  0  0  0  0  0
   -0.3505    3.9398    0.9401 H   0  0  0  0  0  0  0  0  0  0  0  0
    1.3400    3.4241    0.7852 H   0  0  0  0  0  0  0  0  0  0  0  0
   -0.0444   -3.8794   -1.0657 C   0  0  0  0  0  0  0  0  0  0  0  0
   -0.0444   -3.8794    0.4572 C   0  0  0  0  0  0  0  0  0  0  0  0
   -0.0444   -2.4868    1.0533 C   0  0  0  0  0  0  0  0  0  0  0  0
   -1.2294   -1.8233    0.6891 O   0  0  0  0  0  0  0  0  0  0  0  0
   -1.2902   -0.5122    1.1743 C   0  0  0  0  0  3  0  0  0  0  0  0
    0.8380   -3.3657   -1.4554 H   0  0  0  0  0  0  0  0  0  0  0  0
   -0.9268   -3.3695   -1.4521 H   0  0  0  0  0  0  0  0  0  0  0  0
   -0.0395   -4.8974   -1.4580 H   0  0  0  0  0  0  0  0  0  0  0  0
   -0.9185   -4.4175    0.8328 H   0  0  0  0  0  0  0  0  0  0  0  0
    0.8373   -4.4055    0.8335 H   0  0  0  0  0  0  0  0  0  0  0  0
    0.0324   -2.5405    2.1493 H   0  0  0  0  0  0  0  0  0  0  0  0
    0.8280   -1.9197    0.6911 H   0  0  0  0  0  0  0  0  0  0  0  0
   -0.3016    0.2228    0.7055 H   0  0  0  0  0  0  0  0  0  0  0  0
   -1.2482   -0.4861    2.2718 H   0  0  0  0  0  0  0  0  0  0  0  0
   -2.2359   -0.0821    0.8472 H   0  0  0  0  0  0  0  0  0  0  0  0
  1  2  1  0
  1  6  1  0
  1  7  1  0
  1 26  1  0
  2  3  1  0
  3  4  1  0
  3  8  1  0
  3  9  1  0
  4  5  1  0
  4 10  1  0
  4 11  1  0
  5  6  1  0
  5 12  1  0
  5 13  1  0
 14 15  1  0
 14 19  1  0
 14 20  1  0
 14 21  1  0
 15 16  1  0
 15 22  1  0
 15 23  1  0
 16 17  1  0
 16 24  1  0
 16 25  1  0
 17 18  1  0
 18 27  1  0
 18 28  1  0
M  RAD  1  18   2
M  END
>  <reaction>  (14) 
rmg_rxn_666

>  <mol_properties>  (14) 
{"0": {"label": "*3", "atom_type": "Cs"}, "1": {"label": "*4", "atom_type": "O2s"}, "16": {"label": "*0", "atom_type": "O2s"}, "17": {"label": "*1", "atom_type": "Cs"}, "25": {"label": "*2", "atom_type": "H0"}}

>  <type>  (14) 
unop_10

>  <geom_source>  (14) 
Heuristics

$$$$

     RDKit          3D

 28 27  0  0  0  0  0  0  0  0999 V2000
    0.0024    1.1254    0.0015 C   0  0  0  0  0  0  0  0  0  0  0  0
    0.2956    2.0899    0.9660 O   0  0  0  0  0  0  0  0  0  0  0  0
    0.8783    3.2388    0.3812 C   0  0  0  0  0  0  0  0  0  0  0  0
    2.1246    2.8584   -0.4053 C   0  0  0  0  0  0  0  0  0  0  0  0
    1.7690    1.7367   -1.3707 C   0  0  0  0  0  0  0  0  0  0  0  0
    1.1333    0.6773   -0.6816 O   0  0  0  0  0  0  0  0  0  0  0  0
   -0.7241    1.5386   -0.7221 H   0  0  0  0  0  0  0  0  0  0  0  0
    0.1468    3.7235   -0.2834 H   0  0  0  0  0  0  0  0  0  0  0  0
    1.1047    3.9249    1.1963 H   0  0  0  0  0  0  0  0  0  0  0  0
    2.5111    3.7228   -0.9499 H   0  0  0  0  0  0  0  0  0  0  0  0
    2.8974    2.5127    0.2840 H   0  0  0  0  0  0  0  0  0  0  0  0
    2.6524    1.3148   -1.8480 H   0  0  0  0  0  0  0  0  0  0  0  0
    1.1001    2.1157   -2.1586 H   0  0  0  0  0  0  0  0  0  0  0  0
   -0.7195   -3.7047   -1.3055 C   0  0  0  0  0  0  0  0  0  0  0  0
   -0.7195   -3.7047    0.2174 C   0  0  0  0  0  0  0  0  0  0  0  0
   -0.7195   -2.3121    0.8135 C   0  0  0  0  0  0  0  0  0  0  0  0
   -1.9045   -1.6486    0.4493 O   0  0  0  0  0  0  0  0  0  0  0  0
   -1.9653   -0.3375    0.9345 C   0  0  0  0  0  3  0  0  0  0  0  0
    0.1629   -3.1910   -1.6952 H   0  0  0  0  0  0  0  0  0  0  0  0
   -1.6019   -3.1948   -1.6919 H   0  0  0  0  0  0  0  0  0  0  0  0
   -0.7146   -4.7226   -1.6978 H   0  0  0  0  0  0  0  0  0  0  0  0
   -1.5936   -4.2428    0.5930 H   0  0  0  0  0  0  0  0  0  0  0  0
    0.1622   -4.2308    0.5937 H   0  0  0  0  0  0  0  0  0  0  0  0
   -0.6427   -2.3658    1.9095 H   0  0  0  0  0  0  0  0  0  0  0  0
    0.1529   -1.7450    0.4513 H   0  0  0  0  0  0  0  0  0  0  0  0
   -0.9766    0.3976    0.4657 H   0  0  0  0  0  0  0  0  0  0  0  0
   -1.9233   -0.3114    2.0320 H   0  0  0  0  0  0  0  0  0  0  0  0
   -2.9110    0.0926    0.6074 H   0  0  0  0  0  0  0  0  0  0  0  0
  1  2  1  0
  1  6  1  0
  1  7  1  0
  1 26  1  0
  2  3  1  0
  3  4  1  0
  3  8  1  0
  3  9  1  0
  4  5  1  0
  4 10  1  0
  4 11  1  0
  5  6  1  0
  5 12  1  0
  5 13  1  0
 14 15  1  0
 14 19  1  0
 14 20  1  0
 14 21  1  0
 15 16  1  0
 15 22  1  0
 15 23  1  0
 16 17  1  0
 16 24  1  0
 16 25  1  0
 17 18  1  0
 18 27  1  0
 18 28  1  0
M  RAD  1  18   2
M  END
>  <reaction>  (15) 
rmg_rxn_666

>  <mol_properties>  (15) 
{"0": {"label": "*3", "atom_type": "Cs"}, "1": {"label": "*4", "atom_type": "O2s"}, "16": {"label": "*0", "atom_type": "O2s"}, "17": {"label": "*1", "atom_type": "Cs"}, "25": {"label": "*2", "atom_type": "H0"}}

>  <type>  (15) 
unop_11

>  <geom_source>  (15) 
Heuristics

$$$$

     RDKit          3D

 28 27  0  0  0  0  0  0  0  0999 V2000
    0.2125    1.2867    0.4633 C   0  0  0  0  0  0  0  0  0  0  0  0
    0.9796    0.4692   -0.3673 O   0  0  0  0  0  0  0  0  0  0  0  0
    2.0582    1.1857   -0.9371 C   0  0  0  0  0  0  0  0  0  0  0  0
    1.5448    2.4024   -1.6937 C   0  0  0  0  0  0  0  0  0  0  0  0
    0.6367    3.2033   -0.7715 C   0  0  0  0  0  0  0  0  0  0  0  0
   -0.3573    2.3666   -0.2116 O   0  0  0  0  0  0  0  0  0  0  0  0
    0.8412    1.6616    1.2918 H   0  0  0  0  0  0  0  0  0  0  0  0
    2.7503    1.5013   -0.1414 H   0  0  0  0  0  0  0  0  0  0  0  0
    2.5849    0.4918   -1.5909 H   0  0  0  0  0  0  0  0  0  0  0  0
    2.3789    3.0183   -2.0375 H   0  0  0  0  0  0  0  0  0  0  0  0
    0.9772    2.0742   -2.5667 H   0  0  0  0  0  0  0  0  0  0  0  0
    0.1147    3.9977   -1.3031 H   0  0  0  0  0  0  0  0  0  0  0  0
    1.2288    3.6609    0.0359 H   0  0  0  0  0  0  0  0  0  0  0  0
   -0.5093   -3.5434   -0.8437 C   0  0  0  0  0  0  0  0  0  0  0  0
   -0.5093   -3.5434    0.6792 C   0  0  0  0  0  0  0  0  0  0  0  0
   -0.5093   -2.1508    1.2752 C   0  0  0  0  0  0  0  0  0  0  0  0
   -1.6943   -1.4874    0.9111 O   0  0  0  0  0  0  0  0  0  0  0  0
   -1.7551   -0.1763    1.3962 C   0  0  0  0  0  3  0  0  0  0  0  0
    0.3731   -3.0297   -1.2334 H   0  0  0  0  0  0  0  0  0  0  0  0
   -1.3917   -3.0335   -1.2301 H   0  0  0  0  0  0  0  0  0  0  0  0
   -0.5044   -4.5614   -1.2360 H   0  0  0  0  0  0  0  0  0  0  0  0
   -1.3834   -4.0816    1.0548 H   0  0  0  0  0  0  0  0  0  0  0  0
    0.3724   -4.0695    1.0554 H   0  0  0  0  0  0  0  0  0  0  0  0
   -0.4325   -2.2045    2.3713 H   0  0  0  0  0  0  0  0  0  0  0  0
    0.3631   -1.5838    0.9130 H   0  0  0  0  0  0  0  0  0  0  0  0
   -0.7664    0.5588    0.9275 H   0  0  0  0  0  0  0  0  0  0  0  0
   -1.7131   -0.1502    2.4937 H   0  0  0  0  0  0  0  0  0  0  0  0
   -2.7008    0.2539    1.0691 H   0  0  0  0  0  0  0  0  0  0  0  0
  1  2  1  0
  1  6  1  0
  1  7  1  0
  1 26  1  0
  2  3  1  0
  3  4  1  0
  3  8  1  0
  3  9  1  0
  4  5  1  0
  4 10  1  0
  4 11  1  0
  5  6  1  0
  5 12  1  0
  5 13  1  0
 14 15  1  0
 14 19  1  0
 14 20  1  0
 14 21  1  0
 15 16  1  0
 15 22  1  0
 15 23  1  0
 16 17  1  0
 16 24  1  0
 16 25  1  0
 17 18  1  0
 18 27  1  0
 18 28  1  0
M  RAD  1  18   2
M  END
>  <reaction>  (16) 
rmg_rxn_666

>  <mol_properties>  (16) 
{"0": {"label": "*3", "atom_type": "Cs"}, "1": {"label": "*4", "atom_type": "O2s"}, "16": {"label": "*0", "atom_type": "O2s"}, "17": {"label": "*1", "atom_type": "Cs"}, "25": {"label": "*2", "atom_type": "H0"}}

>  <type>  (16) 
unop_12

>  <geom_source>  (16) 
Heuristics

$$$$

     RDKit          3D

 28 27  0  0  0  0  0  0  0  0999 V2000
   -2.1025    0.1933   -1.2243 O   0  0  0  0  0  0  0  0  0  0  0  0
   -2.7177   -1.1247    0.6825 O   0  0  0  0  0  0  0  0  0  0  0  0
    1.6756    0.1741    0.6636 O   0  0  0  0  0  0  0  0  0  0  0  0
   -4.0596    0.7716    0.0497 C   0  0  0  0  0  0  0  0  0  0  0  0
    3.9317   -0.2094   -0.1594 C   0  0  0  0  0  0  0  0  0  0  0  0
   -2.6981    1.2296   -0.4763 C   0  0  0  0  0  0  0  0  0  0  0  0
   -4.0157   -0.7391    0.2865 C   0  0  0  0  0  0  0  0  0  0  0  0
    2.8667   -0.5583    0.8875 C   0  0  0  0  0  0  0  0  0  0  0  0
    4.3053    1.2710   -0.1226 C   0  0  0  0  0  0  0  0  0  0  0  0
   -1.7867   -0.9045   -0.3739 C   0  0  0  0  0  3  0  0  0  0  0  0
    0.7688   -0.5904   -0.0986 C   0  0  0  0  0  0  0  0  0  0  0  0
   -4.8571    1.0063   -0.6885 H   0  0  0  0  0  0  0  0  0  0  0  0
   -4.2874    1.3038    0.9988 H   0  0  0  0  0  0  0  0  0  0  0  0
    3.5658   -0.4713   -1.1749 H   0  0  0  0  0  0  0  0  0  0  0  0
    4.8430   -0.8136    0.0402 H   0  0  0  0  0  0  0  0  0  0  0  0
   -2.8346    2.1166   -1.1305 H   0  0  0  0  0  0  0  0  0  0  0  0
   -2.0350    1.5375    0.3654 H   0  0  0  0  0  0  0  0  0  0  0  0
   -4.7347   -1.0076    1.0891 H   0  0  0  0  0  0  0  0  0  0  0  0
   -4.3232   -1.2893   -0.6328 H   0  0  0  0  0  0  0  0  0  0  0  0
    2.7109   -1.6636    0.9092 H   0  0  0  0  0  0  0  0  0  0  0  0
    3.2542   -0.2878    1.8930 H   0  0  0  0  0  0  0  0  0  0  0  0
    5.1019    1.4709   -0.8699 H   0  0  0  0  0  0  0  0  0  0  0  0
    4.6853    1.5488    0.8836 H   0  0  0  0  0  0  0  0  0  0  0  0
    3.4243    1.9004   -0.3697 H   0  0  0  0  0  0  0  0  0  0  0  0
   -1.7207   -1.8247   -0.9920 H   0  0  0  0  0  0  0  0  0  0  0  0
   -0.5409   -0.6918    0.1776 H   0  0  0  0  0  0  0  0  0  0  0  0
    0.3914   -1.4665    0.4732 H   0  0  0  0  0  0  0  0  0  0  0  0
    1.1890   -0.8811   -1.0862 H   0  0  0  0  0  0  0  0  0  0  0  0
  1  6  1  0
  1 10  1  0
  2  7  1  0
  2 10  1  0
  3 11  1  0
  3  8  1  0
  4  6  1  0
  4  7  1  0
  4 12  1  0
  4 13  1  0
  5  9  1  0
  5  8  1  0
  5 14  1  0
  5 15  1  0
  6 16  1  0
  6 17  1  0
  7 18  1  0
  7 19  1  0
  8 20  1  0
  8 21  1  0
  9 22  1  0
  9 23  1  0
  9 24  1  0
 10 25  1  0
 11 26  1  0
 11 27  1  0
 11 28  1  0
M  RAD  1  10   2
M  END
>  <reaction>  (17) 
rmg_rxn_666

>  <mol_properties>  (17) 
{"0": {"label": "*3", "atom_type": "Cs"}, "1": {"label": "*4", "atom_type": "O2s"}, "16": {"label": "*0", "atom_type": "O2s"}, "17": {"label": "*1", "atom_type": "Cs"}, "25": {"label": "*2", "atom_type": "H0"}}

>  <type>  (17) 
unop_13

>  <geom_source>  (17) 
AutoTST

$$$$

     RDKit          3D

 28 27  0  0  0  0  0  0  0  0999 V2000
    0.4968    1.1225    0.4578 C   0  0  0  0  0  0  0  0  0  0  0  0
    0.8258    0.6207   -0.8017 O   0  0  0  0  0  0  0  0  0  0  0  0
    1.5428    1.5743   -1.5620 C   0  0  0  0  0  0  0  0  0  0  0  0
    0.7448    2.8648   -1.6812 C   0  0  0  0  0  0  0  0  0  0  0  0
    0.3291    3.3123   -0.2871 C   0  0  0  0  0  0  0  0  0  0  0  0
   -0.3155    2.2551    0.3973 O   0  0  0  0  0  0  0  0  0  0  0  0
    1.4233    1.3642    1.0105 H   0  0  0  0  0  0  0  0  0  0  0  0
    2.5123    1.7740   -1.0802 H   0  0  0  0  0  0  0  0  0  0  0  0
    1.7327    1.1214   -2.5341 H   0  0  0  0  0  0  0  0  0  0  0  0
    1.3414    3.6391   -2.1688 H   0  0  0  0  0  0  0  0  0  0  0  0
   -0.1465    2.6859   -2.2858 H   0  0  0  0  0  0  0  0  0  0  0  0
   -0.3763    4.1415   -0.3188 H   0  0  0  0  0  0  0  0  0  0  0  0
    1.2132    3.6343    0.2844 H   0  0  0  0  0  0  0  0  0  0  0  0
   -0.2250   -3.7075   -0.8492 C   0  0  0  0  0  0  0  0  0  0  0  0
   -0.2250   -3.7075    0.6737 C   0  0  0  0  0  0  0  0  0  0  0  0
   -0.2250   -2.3150    1.2698 C   0  0  0  0  0  0  0  0  0  0  0  0
   -1.4101   -1.6515    0.9056 O   0  0  0  0  0  0  0  0  0  0  0  0
   -1.4708   -0.3404    1.3908 C   0  0  0  0  0  3  0  0  0  0  0  0
    0.6574   -3.1939   -1.2389 H   0  0  0  0  0  0  0  0  0  0  0  0
   -1.1075   -3.1976   -1.2356 H   0  0  0  0  0  0  0  0  0  0  0  0
   -0.2201   -4.7255   -1.2415 H   0  0  0  0  0  0  0  0  0  0  0  0
   -1.0991   -4.2457    1.0494 H   0  0  0  0  0  0  0  0  0  0  0  0
    0.6567   -4.2337    1.0500 H   0  0  0  0  0  0  0  0  0  0  0  0
   -0.1482   -2.3687    2.3658 H   0  0  0  0  0  0  0  0  0  0  0  0
    0.6473   -1.7479    0.9076 H   0  0  0  0  0  0  0  0  0  0  0  0
   -0.4822    0.3947    0.9220 H   0  0  0  0  0  0  0  0  0  0  0  0
   -1.4289   -0.3143    2.4883 H   0  0  0  0  0  0  0  0  0  0  0  0
   -2.4165    0.0897    1.0637 H   0  0  0  0  0  0  0  0  0  0  0  0
  1  2  1  0
  1  6  1  0
  1  7  1  0
  1 26  1  0
  2  3  1  0
  3  4  1  0
  3  8  1  0
  3  9  1  0
  4  5  1  0
  4 10  1  0
  4 11  1  0
  5  6  1  0
  5 12  1  0
  5 13  1  0
 14 15  1  0
 14 19  1  0
 14 20  1  0
 14 21  1  0
 15 16  1  0
 15 22  1  0
 15 23  1  0
 16 17  1  0
 16 24  1  0
 16 25  1  0
 17 18  1  0
 18 27  1  0
 18 28  1  0
M  RAD  1  18   2
M  END
>  <reaction>  (18) 
rmg_rxn_666

>  <mol_properties>  (18) 
{"0": {"label": "*3", "atom_type": "Cs"}, "1": {"label": "*4", "atom_type": "O2s"}, "16": {"label": "*0", "atom_type": "O2s"}, "17": {"label": "*1", "atom_type": "Cs"}, "25": {"label": "*2", "atom_type": "H0"}}

>  <type>  (18) 
unop_14

>  <geom_source>  (18) 
gaussian_log

$$$$
