
     RDKit          3D

  9  8  0  0  0  0  0  0  0  0999 V2000
   -1.2461    0.5037    0.0950 C   0  0  0  0  0  0  0  0  0  0  0  0
   -0.0155   -0.3334    0.0640 C   0  0  0  0  0  0  0  0  0  0  0  0
    1.0697    0.1457   -0.3733 N   0  0  0  0  0  0  0  0  0  0  0  0
    2.1001   -0.7834   -0.3224 O   0  0  0  0  0  0  0  0  0  0  0  0
   -2.0357    0.0440   -0.5039 H   0  0  0  0  0  0  0  0  0  0  0  0
   -1.6237    0.5897    1.1166 H   0  0  0  0  0  0  0  0  0  0  0  0
   -1.0397    1.4998   -0.2929 H   0  0  0  0  0  0  0  0  0  0  0  0
   -0.0537   -1.3634    0.4205 H   0  0  0  0  0  0  0  0  0  0  0  0
    2.8478   -0.2985   -0.6758 H   0  0  0  0  0  0  0  0  0  0  0  0
  1  2  1  0
  1  5  1  0
  1  6  1  0
  1  7  1  0
  2  3  2  3
  2  8  1  0
  3  4  1  0
  4  9  1  0
M  END
>  <reaction>  (1) 
rmg_rxn_54

>  <mol_properties>  (1) 
{"3": {"label": "donator", "atom_type": "O2s"}, "8": {"label": "d_hydrogen", "atom_type": "H0"}}

>  <type>  (1) 
r1h

$$$$

     RDKit          3D

  8  7  0  0  0  0  0  0  0  0999 V2000
    0.8135   -0.0283    0.0400 C   0  0  0  0  0  0  0  0  0  0  0  0
   -0.7038   -0.1008   -0.0090 C   0  0  0  0  0  0  0  0  0  0  0  0
   -1.5421    1.4429   -0.3606 S   0  0  0  0  0  1  0  0  0  0  0  0
    1.1442    0.6666    0.8124 H   0  0  0  0  0  0  0  0  0  0  0  0
    1.2169    0.3129   -0.9137 H   0  0  0  0  0  0  0  0  0  0  0  0
    1.2356   -1.0119    0.2594 H   0  0  0  0  0  0  0  0  0  0  0  0
   -1.1179   -0.4664    0.9365 H   0  0  0  0  0  0  0  0  0  0  0  0
   -1.0463   -0.8150   -0.7650 H   0  0  0  0  0  0  0  0  0  0  0  0
  1  2  1  0
  1  4  1  0
  1  5  1  0
  1  6  1  0
  2  3  1  0
  2  7  1  0
  2  8  1  0
M  RAD  1   3   2
M  END
>  <reaction>  (2) 
rmg_rxn_54

>  <mol_properties>  (2) 
{"2": {"label": "acceptor", "atom_type": "S2s"}}

>  <type>  (2) 
r2

$$$$

     RDKit          3D

  9  8  0  0  0  0  0  0  0  0999 V2000
   -0.8818   -0.3578    0.1297 C   0  0  0  0  0  0  0  0  0  0  0  0
    0.6153   -0.3021   -0.1188 C   0  0  0  0  0  0  0  0  0  0  0  0
    1.5354   -1.7170    0.5545 S   0  0  0  0  0  0  0  0  0  0  0  0
   -1.1018   -0.3317    1.1984 H   0  0  0  0  0  0  0  0  0  0  0  0
   -1.3114   -1.2723   -0.2799 H   0  0  0  0  0  0  0  0  0  0  0  0
   -1.3767    0.4976   -0.3363 H   0  0  0  0  0  0  0  0  0  0  0  0
    1.0467    0.6194    0.2718 H   0  0  0  0  0  0  0  0  0  0  0  0
    0.8295   -0.3275   -1.1882 H   0  0  0  0  0  0  0  0  0  0  0  0
    1.2306   -1.5077    1.8423 H   0  0  0  0  0  0  0  0  0  0  0  0
  1  2  1  0
  1  4  1  0
  1  5  1  0
  1  6  1  0
  2  3  1  0
  2  7  1  0
  2  8  1  0
  3  9  1  0
M  END
>  <reaction>  (3) 
rmg_rxn_54

>  <mol_properties>  (3) 
{"2": {"label": "acceptor", "atom_type": "S2s"}, "8": {"label": "a_hydrogen", "atom_type": "H0"}}

>  <type>  (3) 
r2h

$$$$

     RDKit          3D

 17 15  0  0  0  0  0  0  0  0999 V2000
    1.6813    0.0157    1.8756 C   0  0  0  0  0  0  0  0  0  0  0  0
    0.8142    1.1115    1.2792 C   0  0  0  0  0  0  0  0  0  0  0  0
   -0.8582    1.1908    1.9322 S   0  0  0  0  0  1  0  0  0  0  0  0
    1.2356   -0.9638    1.6973 H   0  0  0  0  0  0  0  0  0  0  0  0
    1.7933    0.1446    2.9526 H   0  0  0  0  0  0  0  0  0  0  0  0
    2.6755    0.0273    1.4220 H   0  0  0  0  0  0  0  0  0  0  0  0
    0.7024    0.9584    0.1968 H   0  0  0  0  0  0  0  0  0  0  0  0
    1.2587    2.0997    1.4122 H   0  0  0  0  0  0  0  0  0  0  0  0
    0.4070   -1.4936   -2.7345 C   0  0  0  0  0  0  0  0  0  0  0  0
   -0.6993   -1.5080   -1.7391 C   0  0  0  0  0  0  0  0  0  0  0  0
   -0.6820   -0.7203   -0.7452 N   0  0  0  0  0  0  0  0  0  0  0  0
   -1.6505   -0.7308    0.1179 O   0  0  0  0  0  0  0  0  0  0  0  0
    0.8852   -2.4741   -2.7897 H   0  0  0  0  0  0  0  0  0  0  0  0
    0.0219   -1.2647   -3.7308 H   0  0  0  0  0  0  0  0  0  0  0  0
    1.1550   -0.7496   -2.4652 H   0  0  0  0  0  0  0  0  0  0  0  0
   -1.5303   -2.2015   -1.8624 H   0  0  0  0  0  0  0  0  0  0  0  0
   -1.3653    0.0345    1.0562 H   0  0  0  0  0  0  0  0  0  0  0  0
  1  2  1  0
  1  4  1  0
  1  5  1  0
  1  6  1  0
  2  3  1  0
  2  7  1  0
  2  8  1  0
  9 10  1  0
  9 13  1  0
  9 14  1  0
  9 15  1  0
 10 11  2  3
 10 16  1  0
 11 12  1  0
 12 17  1  0
M  RAD  1   3   2
M  END
>  <reaction>  (4) 
rmg_rxn_54

>  <mol_properties>  (4) 
{"1": {"label": "*4", "atom_type": "Cs"}, "2": {"label": "*3", "atom_type": "S2s"}, "10": {"label": "*0", "atom_type": "N3d"}, "11": {"label": "*1", "atom_type": "O2s"}, "16": {"label": "*2", "atom_type": "H0"}}

>  <type>  (4) 
ts

$$$$

     RDKit          3D

 17 15  0  0  0  0  0  0  0  0999 V2000
   -2.2478    1.7211    1.3167 C   0  0  0  0  0  0  0  0  0  0  0  0
   -1.0237    1.2917    2.1063 C   0  0  0  0  0  0  0  0  0  0  0  0
    0.5387    1.4220    1.1877 S   0  0  0  0  0  1  0  0  0  0  0  0
   -2.3977    1.0779    0.4477 H   0  0  0  0  0  0  0  0  0  0  0  0
   -2.1432    2.7467    0.9620 H   0  0  0  0  0  0  0  0  0  0  0  0
   -3.1433    1.6585    1.9396 H   0  0  0  0  0  0  0  0  0  0  0  0
   -1.1314    0.2735    2.4796 H   0  0  0  0  0  0  0  0  0  0  0  0
   -0.8792    1.9370    2.9740 H   0  0  0  0  0  0  0  0  0  0  0  0
    0.5387   -2.0300   -3.3259 C   0  0  0  0  0  0  0  0  0  0  0  0
    0.5387   -2.0300   -1.8373 C   0  0  0  0  0  0  0  0  0  0  0  0
    0.5387   -0.9379   -1.2005 N   0  0  0  0  0  0  0  0  0  0  0  0
    0.5387   -1.1426    0.1727 O   0  0  0  0  0  0  0  0  0  0  0  0
    1.4181   -2.5538   -3.7077 H   0  0  0  0  0  0  0  0  0  0  0  0
   -0.3407   -2.5538   -3.7077 H   0  0  0  0  0  0  0  0  0  0  0  0
    0.5387   -1.0103   -3.7074 H   0  0  0  0  0  0  0  0  0  0  0  0
    0.5387   -2.9775   -1.2971 H   0  0  0  0  0  0  0  0  0  0  0  0
    0.5387   -0.0730    0.5961 H   0  0  0  0  0  0  0  0  0  0  0  0
  1  2  1  0
  1  4  1  0
  1  5  1  0
  1  6  1  0
  2  3  1  0
  2  7  1  0
  2  8  1  0
  9 10  1  0
  9 13  1  0
  9 14  1  0
  9 15  1  0
 10 11  2  3
 10 16  1  0
 11 12  1  0
 12 17  1  0
M  RAD  1   3   2
M  END
>  <reaction>  (5) 
rmg_rxn_54

>  <mol_properties>  (5) 
{"1": {"label": "*4", "atom_type": "Cs"}, "2": {"label": "*3", "atom_type": "S2s"}, "10": {"label": "*0", "atom_type": "N3d"}, "11": {"label": "*1", "atom_type": "O2s"}, "16": {"label": "*2", "atom_type": "H0"}}

>  <type>  (5) 
unop_1

>  <geom_source>  (5) 
Heuristics

$$$$

     RDKit          3D

 17 15  0  0  0  0  0  0  0  0999 V2000
    0.0644    2.2641   -0.7936 C   0  0  0  0  0  0  0  0  0  0  0  0
   -0.7851    1.9944    0.4360 C   0  0  0  0  0  0  0  0  0  0  0  0
    0.1169    1.2177    1.8090 S   0  0  0  0  0  1  0  0  0  0  0  0
    0.4426    1.3329   -1.2191 H   0  0  0  0  0  0  0  0  0  0  0  0
    0.9200    2.8929   -0.5464 H   0  0  0  0  0  0  0  0  0  0  0  0
   -0.5272    2.7684   -1.5613 H   0  0  0  0  0  0  0  0  0  0  0  0
   -1.6525    1.3820    0.1905 H   0  0  0  0  0  0  0  0  0  0  0  0
   -1.1613    2.9281    0.8566 H   0  0  0  0  0  0  0  0  0  0  0  0
    0.1169   -2.2343   -2.7047 C   0  0  0  0  0  0  0  0  0  0  0  0
    0.1169   -2.2343   -1.2161 C   0  0  0  0  0  0  0  0  0  0  0  0
    0.1169   -1.1422   -0.5793 N   0  0  0  0  0  0  0  0  0  0  0  0
    0.1169   -1.3469    0.7939 O   0  0  0  0  0  0  0  0  0  0  0  0
    0.9964   -2.7581   -3.0865 H   0  0  0  0  0  0  0  0  0  0  0  0
   -0.7625   -2.7581   -3.0865 H   0  0  0  0  0  0  0  0  0  0  0  0
    0.1169   -1.2146   -3.0861 H   0  0  0  0  0  0  0  0  0  0  0  0
    0.1169   -3.1818   -0.6759 H   0  0  0  0  0  0  0  0  0  0  0  0
    0.1169   -0.2772    1.2173 H   0  0  0  0  0  0  0  0  0  0  0  0
  1  2  1  0
  1  4  1  0
  1  5  1  0
  1  6  1  0
  2  3  1  0
  2  7  1  0
  2  8  1  0
  9 10  1  0
  9 13  1  0
  9 14  1  0
  9 15  1  0
 10 11  2  3
 10 16  1  0
 11 12  1  0
 12 17  1  0
M  RAD  1   3   2
M  END
>  <reaction>  (6) 
rmg_rxn_54

>  <mol_properties>  (6) 
{"1": {"label": "*4", "atom_type": "Cs"}, "2": {"label": "*3", "atom_type": "S2s"}, "10": {"label": "*0", "atom_type": "N3d"}, "11": {"label": "*1", "atom_type": "O2s"}, "16": {"label": "*2", "atom_type": "H0"}}

>  <type>  (6) 
unop_2

>  <geom_source>  (6) 
Heuristics

$$$$

     RDKit          3D

 17 15  0  0  0  0  0  0  0  0999 V2000
   -1.9973    1.0789    2.3202 C   0  0  0  0  0  0  0  0  0  0  0  0
   -0.4913    1.1741    2.4916 C   0  0  0  0  0  0  0  0  0  0  0  0
    0.4107    1.5474    0.9590 S   0  0  0  0  0  1  0  0  0  0  0  0
   -2.2633    0.2590    1.6506 H   0  0  0  0  0  0  0  0  0  0  0  0
   -2.4012    2.0005    1.9005 H   0  0  0  0  0  0  0  0  0  0  0  0
   -2.4788    0.8955    3.2837 H   0  0  0  0  0  0  0  0  0  0  0  0
   -0.0849    0.2623    2.9288 H   0  0  0  0  0  0  0  0  0  0  0  0
   -0.2311    1.9943    3.1623 H   0  0  0  0  0  0  0  0  0  0  0  0
    0.4107   -1.9046   -3.5547 C   0  0  0  0  0  0  0  0  0  0  0  0
    0.4107   -1.9046   -2.0660 C   0  0  0  0  0  0  0  0  0  0  0  0
    0.4107   -0.8125   -1.4292 N   0  0  0  0  0  0  0  0  0  0  0  0
    0.4107   -1.0172   -0.0560 O   0  0  0  0  0  0  0  0  0  0  0  0
    1.2901   -2.4284   -3.9365 H   0  0  0  0  0  0  0  0  0  0  0  0
   -0.4687   -2.4284   -3.9365 H   0  0  0  0  0  0  0  0  0  0  0  0
    0.4107   -0.8849   -3.9361 H   0  0  0  0  0  0  0  0  0  0  0  0
    0.4107   -2.8521   -1.5259 H   0  0  0  0  0  0  0  0  0  0  0  0
    0.4107    0.0525    0.3673 H   0  0  0  0  0  0  0  0  0  0  0  0
  1  2  1  0
  1  4  1  0
  1  5  1  0
  1  6  1  0
  2  3  1  0
  2  7  1  0
  2  8  1  0
  9 10  1  0
  9 13  1  0
  9 14  1  0
  9 15  1  0
 10 11  2  3
 10 16  1  0
 11 12  1  0
 12 17  1  0
M  RAD  1   3   2
M  END
>  <reaction>  (7) 
rmg_rxn_54

>  <mol_properties>  (7) 
{"1": {"label": "*4", "atom_type": "Cs"}, "2": {"label": "*3", "atom_type": "S2s"}, "10": {"label": "*0", "atom_type": "N3d"}, "11": {"label": "*1", "atom_type": "O2s"}, "16": {"label": "*2", "atom_type": "H0"}}

>  <type>  (7) 
unop_3

>  <geom_source>  (7) 
Heuristics

$$$$

     RDKit          3D

 17 15  0  0  0  0  0  0  0  0999 V2000
    2.0907    0.8856    0.6480 C   0  0  0  0  0  0  0  0  0  0  0  0
    1.0458    1.9821    0.7585 C   0  0  0  0  0  0  0  0  0  0  0  0
   -0.5166    1.4484    1.5174 S   0  0  0  0  0  1  0  0  0  0  0  0
    1.7438    0.0791   -0.0005 H   0  0  0  0  0  0  0  0  0  0  0  0
    2.3131    0.4586    1.6262 H   0  0  0  0  0  0  0  0  0  0  0  0
    3.0159    1.2833    0.2240 H   0  0  0  0  0  0  0  0  0  0  0  0
    0.8340    2.4255   -0.2142 H   0  0  0  0  0  0  0  0  0  0  0  0
    1.3980    2.7858    1.4067 H   0  0  0  0  0  0  0  0  0  0  0  0
   -0.5166   -2.0036   -2.9963 C   0  0  0  0  0  0  0  0  0  0  0  0
   -0.5166   -2.0036   -1.5076 C   0  0  0  0  0  0  0  0  0  0  0  0
   -0.5166   -0.9115   -0.8708 N   0  0  0  0  0  0  0  0  0  0  0  0
   -0.5166   -1.1162    0.5024 O   0  0  0  0  0  0  0  0  0  0  0  0
    0.3628   -2.5274   -3.3781 H   0  0  0  0  0  0  0  0  0  0  0  0
   -1.3960   -2.5274   -3.3781 H   0  0  0  0  0  0  0  0  0  0  0  0
   -0.5166   -0.9839   -3.3777 H   0  0  0  0  0  0  0  0  0  0  0  0
   -0.5166   -2.9511   -0.9675 H   0  0  0  0  0  0  0  0  0  0  0  0
   -0.5166   -0.0465    0.9258 H   0  0  0  0  0  0  0  0  0  0  0  0
  1  2  1  0
  1  4  1  0
  1  5  1  0
  1  6  1  0
  2  3  1  0
  2  7  1  0
  2  8  1  0
  9 10  1  0
  9 13  1  0
  9 14  1  0
  9 15  1  0
 10 11  2  3
 10 16  1  0
 11 12  1  0
 12 17  1  0
M  RAD  1   3   2
M  END
>  <reaction>  (8) 
rmg_rxn_54

>  <mol_properties>  (8) 
{"1": {"label": "*4", "atom_type": "Cs"}, "2": {"label": "*3", "atom_type": "S2s"}, "10": {"label": "*0", "atom_type": "N3d"}, "11": {"label": "*1", "atom_type": "O2s"}, "16": {"label": "*2", "atom_type": "H0"}}

>  <type>  (8) 
unop_4

>  <geom_source>  (8) 
Heuristics

$$$$

     RDKit          3D

 17 15  0  0  0  0  0  0  0  0999 V2000
   -1.0706    0.4067    3.0218 C   0  0  0  0  0  0  0  0  0  0  0  0
    0.1527    1.1934    2.5849 C   0  0  0  0  0  0  0  0  0  0  0  0
    0.1527    1.6557    0.8276 S   0  0  0  0  0  1  0  0  0  0  0  0
   -1.1286   -0.5487    2.4972 H   0  0  0  0  0  0  0  0  0  0  0  0
   -1.9859    0.9611    2.8131 H   0  0  0  0  0  0  0  0  0  0  0  0
   -1.0266    0.1994    4.0936 H   0  0  0  0  0  0  0  0  0  0  0  0
    1.0715    0.6518    2.8089 H   0  0  0  0  0  0  0  0  0  0  0  0
    0.2064    2.1467    3.1128 H   0  0  0  0  0  0  0  0  0  0  0  0
    0.1527   -1.7963   -3.6861 C   0  0  0  0  0  0  0  0  0  0  0  0
    0.1527   -1.7963   -2.1974 C   0  0  0  0  0  0  0  0  0  0  0  0
    0.1527   -0.7042   -1.5606 N   0  0  0  0  0  0  0  0  0  0  0  0
    0.1527   -0.9089   -0.1874 O   0  0  0  0  0  0  0  0  0  0  0  0
    1.0321   -2.3201   -4.0679 H   0  0  0  0  0  0  0  0  0  0  0  0
   -0.7267   -2.3201   -4.0679 H   0  0  0  0  0  0  0  0  0  0  0  0
    0.1527   -0.7766   -4.0675 H   0  0  0  0  0  0  0  0  0  0  0  0
    0.1527   -2.7438   -1.6573 H   0  0  0  0  0  0  0  0  0  0  0  0
    0.1527    0.1607    0.2359 H   0  0  0  0  0  0  0  0  0  0  0  0
  1  2  1  0
  1  4  1  0
  1  5  1  0
  1  6  1  0
  2  3  1  0
  2  7  1  0
  2  8  1  0
  9 10  1  0
  9 13  1  0
  9 14  1  0
  9 15  1  0
 10 11  2  3
 10 16  1  0
 11 12  1  0
 12 17  1  0
M  RAD  1   3   2
M  END
>  <reaction>  (9) 
rmg_rxn_54

>  <mol_properties>  (9) 
{"1": {"label": "*4", "atom_type": "Cs"}, "2": {"label": "*3", "atom_type": "S2s"}, "10": {"label": "*0", "atom_type": "N3d"}, "11": {"label": "*1", "atom_type": "O2s"}, "16": {"label": "*2", "atom_type": "H0"}}

>  <type>  (9) 
unop_5

>  <geom_source>  (9) 
Heuristics

$$$$

     RDKit          3D

 17 15  0  0  0  0  0  0  0  0999 V2000
    2.0247    0.4634    1.5793 C   0  0  0  0  0  0  0  0  0  0  0  0
    1.2633    1.7568    1.3472 C   0  0  0  0  0  0  0  0  0  0  0  0
   -0.5408    1.5551    1.2674 S   0  0  0  0  0  1  0  0  0  0  0  0
    1.8730   -0.2331    0.7528 H   0  0  0  0  0  0  0  0  0  0  0  0
    1.6935   -0.0251    2.4959 H   0  0  0  0  0  0  0  0  0  0  0  0
    3.0962    0.6620    1.6589 H   0  0  0  0  0  0  0  0  0  0  0  0
    1.6041    2.2589    0.4420 H   0  0  0  0  0  0  0  0  0  0  0  0
    1.4192    2.4494    2.1755 H   0  0  0  0  0  0  0  0  0  0  0  0
   -0.5408   -1.8969   -3.2463 C   0  0  0  0  0  0  0  0  0  0  0  0
   -0.5408   -1.8969   -1.7577 C   0  0  0  0  0  0  0  0  0  0  0  0
   -0.5408   -0.8048   -1.1209 N   0  0  0  0  0  0  0  0  0  0  0  0
   -0.5408   -1.0095    0.2523 O   0  0  0  0  0  0  0  0  0  0  0  0
    0.3386   -2.4207   -3.6281 H   0  0  0  0  0  0  0  0  0  0  0  0
   -1.4202   -2.4207   -3.6281 H   0  0  0  0  0  0  0  0  0  0  0  0
   -0.5408   -0.8772   -3.6277 H   0  0  0  0  0  0  0  0  0  0  0  0
   -0.5408   -2.8444   -1.2175 H   0  0  0  0  0  0  0  0  0  0  0  0
   -0.5408    0.0601    0.6757 H   0  0  0  0  0  0  0  0  0  0  0  0
  1  2  1  0
  1  4  1  0
  1  5  1  0
  1  6  1  0
  2  3  1  0
  2  7  1  0
  2  8  1  0
  9 10  1  0
  9 13  1  0
  9 14  1  0
  9 15  1  0
 10 11  2  3
 10 16  1  0
 11 12  1  0
 12 17  1  0
M  RAD  1   3   2
M  END
>  <reaction>  (10) 
rmg_rxn_54

>  <mol_properties>  (10) 
{"1": {"label": "*4", "atom_type": "Cs"}, "2": {"label": "*3", "atom_type": "S2s"}, "10": {"label": "*0", "atom_type": "N3d"}, "11": {"label": "*1", "atom_type": "O2s"}, "16": {"label": "*2", "atom_type": "H0"}}

>  <type>  (10) 
unop_6

>  <geom_source>  (10) 
Heuristics

$$$$

     RDKit          3D

 17 15  0  0  0  0  0  0  0  0999 V2000
    1.4238    0.1330    2.4930 C   0  0  0  0  0  0  0  0  0  0  0  0
    1.1412    1.5183    1.9385 C   0  0  0  0  0  0  0  0  0  0  0  0
   -0.4212    1.6485    1.0199 S   0  0  0  0  0  1  0  0  0  0  0  0
    1.5291   -0.5963    1.6878 H   0  0  0  0  0  0  0  0  0  0  0  0
    0.6147   -0.1992    3.1439 H   0  0  0  0  0  0  0  0  0  0  0  0
    2.3532    0.1356    3.0675 H   0  0  0  0  0  0  0  0  0  0  0  0
    1.9561    1.8630    1.3023 H   0  0  0  0  0  0  0  0  0  0  0  0
    1.0380    2.2432    2.7473 H   0  0  0  0  0  0  0  0  0  0  0  0
   -0.4212   -1.8035   -3.4937 C   0  0  0  0  0  0  0  0  0  0  0  0
   -0.4212   -1.8035   -2.0051 C   0  0  0  0  0  0  0  0  0  0  0  0
   -0.4212   -0.7114   -1.3683 N   0  0  0  0  0  0  0  0  0  0  0  0
   -0.4212   -0.9161    0.0049 O   0  0  0  0  0  0  0  0  0  0  0  0
    0.4582   -2.3273   -3.8755 H   0  0  0  0  0  0  0  0  0  0  0  0
   -1.3006   -2.3273   -3.8756 H   0  0  0  0  0  0  0  0  0  0  0  0
   -0.4212   -0.7838   -3.8752 H   0  0  0  0  0  0  0  0  0  0  0  0
   -0.4212   -2.7510   -1.4649 H   0  0  0  0  0  0  0  0  0  0  0  0
   -0.4212    0.1536    0.4283 H   0  0  0  0  0  0  0  0  0  0  0  0
  1  2  1  0
  1  4  1  0
  1  5  1  0
  1  6  1  0
  2  3  1  0
  2  7  1  0
  2  8  1  0
  9 10  1  0
  9 13  1  0
  9 14  1  0
  9 15  1  0
 10 11  2  3
 10 16  1  0
 11 12  1  0
 12 17  1  0
M  RAD  1   3   2
M  END
>  <reaction>  (11) 
rmg_rxn_54

>  <mol_properties>  (11) 
{"1": {"label": "*4", "atom_type": "Cs"}, "2": {"label": "*3", "atom_type": "S2s"}, "10": {"label": "*0", "atom_type": "N3d"}, "11": {"label": "*1", "atom_type": "O2s"}, "16": {"label": "*2", "atom_type": "H0"}}

>  <type>  (11) 
unop_7

>  <geom_source>  (11) 
Heuristics

$$$$

     RDKit          3D

 17 15  0  0  0  0  0  0  0  0999 V2000
   -1.8890    2.1806    0.3074 C   0  0  0  0  0  0  0  0  0  0  0  0
   -1.2827    1.5118    1.5286 C   0  0  0  0  0  0  0  0  0  0  0  0
    0.5214    1.3101    1.4488 S   0  0  0  0  0  1  0  0  0  0  0  0
   -1.7299    1.5771   -0.5880 H   0  0  0  0  0  0  0  0  0  0  0  0
   -1.4418    3.1601    0.1367 H   0  0  0  0  0  0  0  0  0  0  0  0
   -2.9661    2.3086    0.4394 H   0  0  0  0  0  0  0  0  0  0  0  0
   -1.7399    0.5403    1.7150 H   0  0  0  0  0  0  0  0  0  0  0  0
   -1.4454    2.1185    2.4206 H   0  0  0  0  0  0  0  0  0  0  0  0
    0.5214   -2.1419   -3.0649 C   0  0  0  0  0  0  0  0  0  0  0  0
    0.5214   -2.1419   -1.5762 C   0  0  0  0  0  0  0  0  0  0  0  0
    0.5214   -1.0498   -0.9394 N   0  0  0  0  0  0  0  0  0  0  0  0
    0.5214   -1.2545    0.4338 O   0  0  0  0  0  0  0  0  0  0  0  0
    1.4009   -2.6657   -3.4467 H   0  0  0  0  0  0  0  0  0  0  0  0
   -0.3580   -2.6657   -3.4467 H   0  0  0  0  0  0  0  0  0  0  0  0
    0.5214   -1.1222   -3.4463 H   0  0  0  0  0  0  0  0  0  0  0  0
    0.5214   -3.0894   -1.0361 H   0  0  0  0  0  0  0  0  0  0  0  0
    0.5214   -0.1848    0.8571 H   0  0  0  0  0  0  0  0  0  0  0  0
  1  2  1  0
  1  4  1  0
  1  5  1  0
  1  6  1  0
  2  3  1  0
  2  7  1  0
  2  8  1  0
  9 10  1  0
  9 13  1  0
  9 14  1  0
  9 15  1  0
 10 11  2  3
 10 16  1  0
 11 12  1  0
 12 17  1  0
M  RAD  1   3   2
M  END
>  <reaction>  (12) 
rmg_rxn_54

>  <mol_properties>  (12) 
{"1": {"label": "*4", "atom_type": "Cs"}, "2": {"label": "*3", "atom_type": "S2s"}, "10": {"label": "*0", "atom_type": "N3d"}, "11": {"label": "*1", "atom_type": "O2s"}, "16": {"label": "*2", "atom_type": "H0"}}

>  <type>  (12) 
unop_8

>  <geom_source>  (12) 
Heuristics

$$$$

     RDKit          3D

 17 15  0  0  0  0  0  0  0  0999 V2000
    1.7506    1.3512   -0.1175 C   0  0  0  0  0  0  0  0  0  0  0  0
    0.5262    2.1246    0.3396 C   0  0  0  0  0  0  0  0  0  0  0  0
   -0.3759    1.3480    1.7125 S   0  0  0  0  0  1  0  0  0  0  0  0
    1.4707    0.3706   -0.5064 H   0  0  0  0  0  0  0  0  0  0  0  0
    2.4468    1.1996    0.7078 H   0  0  0  0  0  0  0  0  0  0  0  0
    2.2676    1.8931   -0.9130 H   0  0  0  0  0  0  0  0  0  0  0  0
   -0.1641    2.2956   -0.4862 H   0  0  0  0  0  0  0  0  0  0  0  0
    0.8115    3.1041    0.7263 H   0  0  0  0  0  0  0  0  0  0  0  0
   -0.3759   -2.1040   -2.8012 C   0  0  0  0  0  0  0  0  0  0  0  0
   -0.3759   -2.1040   -1.3125 C   0  0  0  0  0  0  0  0  0  0  0  0
   -0.3759   -1.0120   -0.6757 N   0  0  0  0  0  0  0  0  0  0  0  0
   -0.3759   -1.2166    0.6975 O   0  0  0  0  0  0  0  0  0  0  0  0
    0.5035   -2.6279   -3.1830 H   0  0  0  0  0  0  0  0  0  0  0  0
   -1.2553   -2.6279   -3.1830 H   0  0  0  0  0  0  0  0  0  0  0  0
   -0.3759   -1.0843   -3.1826 H   0  0  0  0  0  0  0  0  0  0  0  0
   -0.3759   -3.0515   -0.7724 H   0  0  0  0  0  0  0  0  0  0  0  0
   -0.3759   -0.1470    1.1208 H   0  0  0  0  0  0  0  0  0  0  0  0
  1  2  1  0
  1  4  1  0
  1  5  1  0
  1  6  1  0
  2  3  1  0
  2  7  1  0
  2  8  1  0
  9 10  1  0
  9 13  1  0
  9 14  1  0
  9 15  1  0
 10 11  2  3
 10 16  1  0
 11 12  1  0
 12 17  1  0
M  RAD  1   3   2
M  END
>  <reaction>  (13) 
rmg_rxn_54

>  <mol_properties>  (13) 
{"1": {"label": "*4", "atom_type": "Cs"}, "2": {"label": "*3", "atom_type": "S2s"}, "10": {"label": "*0", "atom_type": "N3d"}, "11": {"label": "*1", "atom_type": "O2s"}, "16": {"label": "*2", "atom_type": "H0"}}

>  <type>  (13) 
unop_9

>  <geom_source>  (13) 
Heuristics

$$$$

     RDKit          3D

 17 15  0  0  0  0  0  0  0  0999 V2000
   -1.0395    2.3846   -0.4622 C   0  0  0  0  0  0  0  0  0  0  0  0
   -1.1958    1.7682    0.9169 C   0  0  0  0  0  0  0  0  0  0  0  0
    0.3666    1.2346    1.6758 S   0  0  0  0  0  1  0  0  0  0  0  0
   -0.6356    1.6593   -1.1709 H   0  0  0  0  0  0  0  0  0  0  0  0
   -0.3630    3.2391   -0.4333 H   0  0  0  0  0  0  0  0  0  0  0  0
   -2.0078    2.7207   -0.8406 H   0  0  0  0  0  0  0  0  0  0  0  0
   -1.8862    0.9252    0.8970 H   0  0  0  0  0  0  0  0  0  0  0  0
   -1.6006    2.4969    1.6208 H   0  0  0  0  0  0  0  0  0  0  0  0
    0.3666   -2.2174   -2.8379 C   0  0  0  0  0  0  0  0  0  0  0  0
    0.3666   -2.2174   -1.3492 C   0  0  0  0  0  0  0  0  0  0  0  0
    0.3666   -1.1253   -0.7124 N   0  0  0  0  0  0  0  0  0  0  0  0
    0.3666   -1.3300    0.6608 O   0  0  0  0  0  0  0  0  0  0  0  0
    1.2460   -2.7412   -3.2197 H   0  0  0  0  0  0  0  0  0  0  0  0
   -0.5128   -2.7412   -3.2197 H   0  0  0  0  0  0  0  0  0  0  0  0
    0.3666   -1.1977   -3.2193 H   0  0  0  0  0  0  0  0  0  0  0  0
    0.3666   -3.1649   -0.8091 H   0  0  0  0  0  0  0  0  0  0  0  0
    0.3666   -0.2603    1.0841 H   0  0  0  0  0  0  0  0  0  0  0  0
  1  2  1  0
  1  4  1  0
  1  5  1  0
  1  6  1  0
  2  3  1  0
  2  7  1  0
  2  8  1  0
  9 10  1  0
  9 13  1  0
  9 14  1  0
  9 15  1  0
 10 11  2  3
 10 16  1  0
 11 12  1  0
 12 17  1  0
M  RAD  1   3   2
M  END
>  <reaction>  (14) 
rmg_rxn_54

>  <mol_properties>  (14) 
{"1": {"label": "*4", "atom_type": "Cs"}, "2": {"label": "*3", "atom_type": "S2s"}, "10": {"label": "*0", "atom_type": "N3d"}, "11": {"label": "*1", "atom_type": "O2s"}, "16": {"label": "*2", "atom_type": "H0"}}

>  <type>  (14) 
unop_10

>  <geom_source>  (14) 
Heuristics

$$$$

     RDKit          3D

 17 15  0  0  0  0  0  0  0  0999 V2000
    0.2795    0.0517    3.0810 C   0  0  0  0  0  0  0  0  0  0  0  0
    0.7364    1.3207    2.3830 C   0  0  0  0  0  0  0  0  0  0  0  0
   -0.1657    1.6940    0.8504 S   0  0  0  0  0  1  0  0  0  0  0  0
    0.4524   -0.8239    2.4526 H   0  0  0  0  0  0  0  0  0  0  0  0
   -0.7851    0.0950    3.3118 H   0  0  0  0  0  0  0  0  0  0  0  0
    0.8317   -0.0895    4.0132 H   0  0  0  0  0  0  0  0  0  0  0  0
    1.8042    1.2905    2.1673 H   0  0  0  0  0  0  0  0  0  0  0  0
    0.5622    2.1923    3.0157 H   0  0  0  0  0  0  0  0  0  0  0  0
   -0.1657   -1.7580   -3.6632 C   0  0  0  0  0  0  0  0  0  0  0  0
   -0.1657   -1.7580   -2.1746 C   0  0  0  0  0  0  0  0  0  0  0  0
   -0.1657   -0.6659   -1.5378 N   0  0  0  0  0  0  0  0  0  0  0  0
   -0.1657   -0.8706   -0.1646 O   0  0  0  0  0  0  0  0  0  0  0  0
    0.7137   -2.2819   -4.0450 H   0  0  0  0  0  0  0  0  0  0  0  0
   -1.0451   -2.2818   -4.0450 H   0  0  0  0  0  0  0  0  0  0  0  0
   -0.1657   -0.7383   -4.0447 H   0  0  0  0  0  0  0  0  0  0  0  0
   -0.1657   -2.7055   -1.6344 H   0  0  0  0  0  0  0  0  0  0  0  0
   -0.1657    0.1990    0.2588 H   0  0  0  0  0  0  0  0  0  0  0  0
  1  2  1  0
  1  4  1  0
  1  5  1  0
  1  6  1  0
  2  3  1  0
  2  7  1  0
  2  8  1  0
  9 10  1  0
  9 13  1  0
  9 14  1  0
  9 15  1  0
 10 11  2  3
 10 16  1  0
 11 12  1  0
 12 17  1  0
M  RAD  1   3   2
M  END
>  <reaction>  (15) 
rmg_rxn_54

>  <mol_properties>  (15) 
{"1": {"label": "*4", "atom_type": "Cs"}, "2": {"label": "*3", "atom_type": "S2s"}, "10": {"label": "*0", "atom_type": "N3d"}, "11": {"label": "*1", "atom_type": "O2s"}, "16": {"label": "*2", "atom_type": "H0"}}

>  <type>  (15) 
unop_11

>  <geom_source>  (15) 
Heuristics

$$$$

     RDKit          3D

 17 15  0  0  0  0  0  0  0  0999 V2000
    1.0706    1.8546   -0.6366 C   0  0  0  0  0  0  0  0  0  0  0  0
   -0.1527    2.1293    0.2204 C   0  0  0  0  0  0  0  0  0  0  0  0
   -0.1527    1.2637    1.8180 S   0  0  0  0  0  1  0  0  0  0  0  0
    1.1286    0.7990   -0.9079 H   0  0  0  0  0  0  0  0  0  0  0  0
    1.9859    2.1160   -0.1051 H   0  0  0  0  0  0  0  0  0  0  0  0
    1.0266    2.4370   -1.5600 H   0  0  0  0  0  0  0  0  0  0  0  0
   -1.0715    1.8876   -0.3136 H   0  0  0  0  0  0  0  0  0  0  0  0
   -0.2064    3.1856    0.4878 H   0  0  0  0  0  0  0  0  0  0  0  0
   -0.1527   -2.1883   -2.6957 C   0  0  0  0  0  0  0  0  0  0  0  0
   -0.1527   -2.1883   -1.2070 C   0  0  0  0  0  0  0  0  0  0  0  0
   -0.1527   -1.0962   -0.5702 N   0  0  0  0  0  0  0  0  0  0  0  0
   -0.1527   -1.3009    0.8030 O   0  0  0  0  0  0  0  0  0  0  0  0
    0.7267   -2.7121   -3.0775 H   0  0  0  0  0  0  0  0  0  0  0  0
   -1.0321   -2.7121   -3.0775 H   0  0  0  0  0  0  0  0  0  0  0  0
   -0.1527   -1.1686   -3.0771 H   0  0  0  0  0  0  0  0  0  0  0  0
   -0.1527   -3.1358   -0.6669 H   0  0  0  0  0  0  0  0  0  0  0  0
   -0.1527   -0.2312    1.2264 H   0  0  0  0  0  0  0  0  0  0  0  0
  1  2  1  0
  1  4  1  0
  1  5  1  0
  1  6  1  0
  2  3  1  0
  2  7  1  0
  2  8  1  0
  9 10  1  0
  9 13  1  0
  9 14  1  0
  9 15  1  0
 10 11  2  3
 10 16  1  0
 11 12  1  0
 12 17  1  0
M  RAD  1   3   2
M  END
>  <reaction>  (16) 
rmg_rxn_54

>  <mol_properties>  (16) 
{"1": {"label": "*4", "atom_type": "Cs"}, "2": {"label": "*3", "atom_type": "S2s"}, "10": {"label": "*0", "atom_type": "N3d"}, "11": {"label": "*1", "atom_type": "O2s"}, "16": {"label": "*2", "atom_type": "H0"}}

>  <type>  (16) 
unop_12

>  <geom_source>  (16) 
Heuristics

$$$$

     RDKit          3D

 17 15  0  0  0  0  0  0  0  0999 V2000
    0.0644    2.2641   -0.7936 C   0  0  0  0  0  0  0  0  0  0  0  0
   -0.7851    1.9944    0.4360 C   0  0  0  0  0  0  0  0  0  0  0  0
    0.1169    1.2178    1.8090 S   0  0  0  0  0  1  0  0  0  0  0  0
    0.4426    1.3329   -1.2191 H   0  0  0  0  0  0  0  0  0  0  0  0
    0.9200    2.8929   -0.5464 H   0  0  0  0  0  0  0  0  0  0  0  0
   -0.5272    2.7684   -1.5613 H   0  0  0  0  0  0  0  0  0  0  0  0
   -1.6525    1.3820    0.1905 H   0  0  0  0  0  0  0  0  0  0  0  0
   -1.1613    2.9281    0.8566 H   0  0  0  0  0  0  0  0  0  0  0  0
    0.1169   -2.2343   -2.7047 C   0  0  0  0  0  0  0  0  0  0  0  0
    0.1169   -2.2343   -1.2161 C   0  0  0  0  0  0  0  0  0  0  0  0
    0.1169   -1.1422   -0.5793 N   0  0  0  0  0  0  0  0  0  0  0  0
    0.1169   -1.3469    0.7939 O   0  0  0  0  0  0  0  0  0  0  0  0
    0.9963   -2.7581   -3.0865 H   0  0  0  0  0  0  0  0  0  0  0  0
   -0.7625   -2.7581   -3.0865 H   0  0  0  0  0  0  0  0  0  0  0  0
    0.1169   -1.2146   -3.0861 H   0  0  0  0  0  0  0  0  0  0  0  0
    0.1169   -3.1818   -0.6759 H   0  0  0  0  0  0  0  0  0  0  0  0
    0.1169   -0.2772    1.2173 H   0  0  0  0  0  0  0  0  0  0  0  0
  1  2  1  0
  1  4  1  0
  1  5  1  0
  1  6  1  0
  2  3  1  0
  2  7  1  0
  2  8  1  0
  9 10  1  0
  9 13  1  0
  9 14  1  0
  9 15  1  0
 10 11  2  3
 10 16  1  0
 11 12  1  0
 12 17  1  0
M  RAD  1   3   2
M  END
>  <reaction>  (17) 
rmg_rxn_54

>  <mol_properties>  (17) 
{"1": {"label": "*4", "atom_type": "Cs"}, "2": {"label": "*3", "atom_type": "S2s"}, "10": {"label": "*0", "atom_type": "N3d"}, "11": {"label": "*1", "atom_type": "O2s"}, "16": {"label": "*2", "atom_type": "H0"}}

>  <type>  (17) 
unop_13

>  <geom_source>  (17) 
gaussian_log

$$$$
