
     RDKit          3D

  5  4  0  0  0  0  0  0  0  0999 V2000
   -0.4583    0.0384    0.1517 N   0  0  0  0  0  0  0  0  0  0  0  0
    0.7454   -0.3487    0.5322 N   0  0  0  0  0  0  0  0  0  0  0  0
    0.7566   -1.0388    1.5193 O   0  0  0  0  0  0  0  0  0  0  0  0
   -1.2688   -0.2521    0.6850 H   0  0  0  0  0  0  0  0  0  0  0  0
   -0.5137    0.6154   -0.6670 H   0  0  0  0  0  0  0  0  0  0  0  0
  1  2  1  0
  1  4  1  0
  1  5  1  0
  2  3  2  0
M  END
>  <reaction>  (1) 
rmg_rxn_1483

>  <mol_properties>  (1) 
{"0": {"label": "donator", "atom_type": "N3s"}, "3": {"label": "d_hydrogen", "atom_type": "H0"}}

>  <type>  (1) 
r1h

$$$$

     RDKit          3D

  2  1  0  0  0  0  0  0  0  0999 V2000
    0.0000    0.0000    0.6715 S   0  0  0  0  0  1  0  0  0  0  0  0
    0.0000    0.0000   -0.6715 H   0  0  0  0  0  0  0  0  0  0  0  0
  1  2  1  0
M  RAD  1   1   2
M  END
>  <reaction>  (2) 
rmg_rxn_1483

>  <mol_properties>  (2) 
{"0": {"label": "acceptor", "atom_type": "S2s"}}

>  <type>  (2) 
r2

$$$$

     RDKit          3D

  3  2  0  0  0  0  0  0  0  0999 V2000
   -0.0007    0.6157    0.0000 S   0  0  0  0  0  0  0  0  0  0  0  0
   -0.9686   -0.3090    0.0000 H   0  0  0  0  0  0  0  0  0  0  0  0
    0.9693   -0.3067    0.0000 H   0  0  0  0  0  0  0  0  0  0  0  0
  1  2  1  0
  1  3  1  0
M  END
>  <reaction>  (3) 
rmg_rxn_1483

>  <mol_properties>  (3) 
{"0": {"label": "acceptor", "atom_type": "S2s"}, "2": {"label": "a_hydrogen", "atom_type": "H0"}}

>  <type>  (3) 
r2h

$$$$

     RDKit          3D

  7  5  0  0  0  0  0  0  0  0999 V2000
    0.4638    1.4112   -0.8021 S   0  0  0  0  0  1  0  0  0  0  0  0
   -0.6336    1.0494   -1.4792 H   0  0  0  0  0  0  0  0  0  0  0  0
   -0.0735   -0.4754    1.2460 N   0  0  0  0  0  0  0  0  0  0  0  0
    0.0939   -1.5127    0.5567 N   0  0  0  0  0  0  0  0  0  0  0  0
    0.3663   -1.4384   -0.6139 O   0  0  0  0  0  0  0  0  0  0  0  0
    0.0799    0.5885    0.5123 H   0  0  0  0  0  0  0  0  0  0  0  0
   -0.2968   -0.6674    2.2154 H   0  0  0  0  0  0  0  0  0  0  0  0
  1  2  1  0
  3  4  1  0
  3  6  1  0
  3  7  1  0
  4  5  2  0
M  RAD  1   1   2
M  END
>  <reaction>  (4) 
rmg_rxn_1483

>  <mol_properties>  (4) 
{"0": {"label": "*3", "atom_type": "S2s"}, "1": {"label": "*4", "atom_type": "H0"}, "2": {"label": "*1", "atom_type": "N3s"}, "3": {"label": "*0", "atom_type": "N3d"}, "5": {"label": "*2", "atom_type": "H0"}}

>  <type>  (4) 
ts

$$$$

     RDKit          3D

  7  5  0  0  0  0  0  0  0  0999 V2000
   -1.9387   -0.1193    0.0000 S   0  0  0  0  0  1  0  0  0  0  0  0
   -1.4793   -1.3646   -0.0004 H   0  0  0  0  0  0  0  0  0  0  0  0
    0.6774    0.9434   -0.0000 N   0  0  0  0  0  0  0  0  0  0  0  0
    1.7398    0.2891   -0.0000 N   0  0  0  0  0  0  0  0  0  0  0  0
    1.8421   -0.9072    0.0000 O   0  0  0  0  0  0  0  0  0  0  0  0
   -0.4479    0.4810    0.0003 H   0  0  0  0  0  0  0  0  0  0  0  0
    0.7685    1.9521   -0.0002 H   0  0  0  0  0  0  0  0  0  0  0  0
  1  2  1  0
  3  4  1  0
  3  6  1  0
  3  7  1  0
  4  5  2  0
M  RAD  1   1   2
M  END
>  <reaction>  (5) 
rmg_rxn_1483

>  <mol_properties>  (5) 
{"0": {"label": "*3", "atom_type": "S2s"}, "1": {"label": "*4", "atom_type": "H0"}, "2": {"label": "*1", "atom_type": "N3s"}, "3": {"label": "*0", "atom_type": "N3d"}, "5": {"label": "*2", "atom_type": "H0"}}

>  <type>  (5) 
unop_1

>  <geom_source>  (5) 
crest_best.xyz

$$$$

     RDKit          3D

  7  5  0  0  0  0  0  0  0  0999 V2000
    0.0148    1.7669   -0.5266 S   0  0  0  0  0  1  0  0  0  0  0  0
   -1.1432    2.2122   -0.0239 H   0  0  0  0  0  0  0  0  0  0  0  0
    0.0148   -0.5145    1.1339 N   0  0  0  0  0  0  0  0  0  0  0  0
    0.0148   -1.7173    0.5892 N   0  0  0  0  0  0  0  0  0  0  0  0
    0.0148   -1.7173   -0.6153 O   0  0  0  0  0  0  0  0  0  0  0  0
    0.0148    0.4681    0.4187 H   0  0  0  0  0  0  0  0  0  0  0  0
    0.0148   -0.4682    2.1360 H   0  0  0  0  0  0  0  0  0  0  0  0
  1  2  1  0
  3  4  1  0
  3  6  1  0
  3  7  1  0
  4  5  2  0
M  RAD  1   1   2
M  END
>  <reaction>  (6) 
rmg_rxn_1483

>  <mol_properties>  (6) 
{"0": {"label": "*3", "atom_type": "S2s"}, "1": {"label": "*4", "atom_type": "H0"}, "2": {"label": "*1", "atom_type": "N3s"}, "3": {"label": "*0", "atom_type": "N3d"}, "5": {"label": "*2", "atom_type": "H0"}}

>  <type>  (6) 
unop_2

>  <geom_source>  (6) 
Heuristics

$$$$

     RDKit          3D

  7  5  0  0  0  0  0  0  0  0999 V2000
    0.0085    1.7806   -0.5078 S   0  0  0  0  0  1  0  0  0  0  0  0
   -0.6600    1.1511   -1.4818 H   0  0  0  0  0  0  0  0  0  0  0  0
    0.0085   -0.5008    1.1527 N   0  0  0  0  0  0  0  0  0  0  0  0
    0.0085   -1.7036    0.6080 N   0  0  0  0  0  0  0  0  0  0  0  0
    0.0085   -1.7036   -0.5965 O   0  0  0  0  0  0  0  0  0  0  0  0
    0.0085    0.4818    0.4375 H   0  0  0  0  0  0  0  0  0  0  0  0
    0.0085   -0.4544    2.1548 H   0  0  0  0  0  0  0  0  0  0  0  0
  1  2  1  0
  3  4  1  0
  3  6  1  0
  3  7  1  0
  4  5  2  0
M  RAD  1   1   2
M  END
>  <reaction>  (7) 
rmg_rxn_1483

>  <mol_properties>  (7) 
{"0": {"label": "*3", "atom_type": "S2s"}, "1": {"label": "*4", "atom_type": "H0"}, "2": {"label": "*1", "atom_type": "N3s"}, "3": {"label": "*0", "atom_type": "N3d"}, "5": {"label": "*2", "atom_type": "H0"}}

>  <type>  (7) 
unop_3

>  <geom_source>  (7) 
Heuristics

$$$$

     RDKit          3D

  7  5  0  0  0  0  0  0  0  0999 V2000
    0.0085    1.7632   -0.5317 S   0  0  0  0  0  1  0  0  0  0  0  0
   -0.6600    2.4966    0.3668 H   0  0  0  0  0  0  0  0  0  0  0  0
    0.0085   -0.5182    1.1289 N   0  0  0  0  0  0  0  0  0  0  0  0
    0.0085   -1.7210    0.5841 N   0  0  0  0  0  0  0  0  0  0  0  0
    0.0085   -1.7210   -0.6204 O   0  0  0  0  0  0  0  0  0  0  0  0
    0.0085    0.4645    0.4136 H   0  0  0  0  0  0  0  0  0  0  0  0
    0.0085   -0.4718    2.1310 H   0  0  0  0  0  0  0  0  0  0  0  0
  1  2  1  0
  3  4  1  0
  3  6  1  0
  3  7  1  0
  4  5  2  0
M  RAD  1   1   2
M  END
>  <reaction>  (8) 
rmg_rxn_1483

>  <mol_properties>  (8) 
{"0": {"label": "*3", "atom_type": "S2s"}, "1": {"label": "*4", "atom_type": "H0"}, "2": {"label": "*1", "atom_type": "N3s"}, "3": {"label": "*0", "atom_type": "N3d"}, "5": {"label": "*2", "atom_type": "H0"}}

>  <type>  (8) 
unop_4

>  <geom_source>  (8) 
Heuristics

$$$$

     RDKit          3D

  7  5  0  0  0  0  0  0  0  0999 V2000
   -0.0148    1.7769   -0.5128 S   0  0  0  0  0  1  0  0  0  0  0  0
    1.1432    1.4354   -1.0911 H   0  0  0  0  0  0  0  0  0  0  0  0
   -0.0148   -0.5045    1.1477 N   0  0  0  0  0  0  0  0  0  0  0  0
   -0.0148   -1.7073    0.6030 N   0  0  0  0  0  0  0  0  0  0  0  0
   -0.0148   -1.7073   -0.6015 O   0  0  0  0  0  0  0  0  0  0  0  0
   -0.0148    0.4782    0.4325 H   0  0  0  0  0  0  0  0  0  0  0  0
   -0.0148   -0.4581    2.1498 H   0  0  0  0  0  0  0  0  0  0  0  0
  1  2  1  0
  3  4  1  0
  3  6  1  0
  3  7  1  0
  4  5  2  0
M  RAD  1   1   2
M  END
>  <reaction>  (9) 
rmg_rxn_1483

>  <mol_properties>  (9) 
{"0": {"label": "*3", "atom_type": "S2s"}, "1": {"label": "*4", "atom_type": "H0"}, "2": {"label": "*1", "atom_type": "N3s"}, "3": {"label": "*0", "atom_type": "N3d"}, "5": {"label": "*2", "atom_type": "H0"}}

>  <type>  (9) 
unop_5

>  <geom_source>  (9) 
Heuristics

$$$$

     RDKit          3D

  7  5  0  0  0  0  0  0  0  0999 V2000
   -0.0000    1.7619   -0.5335 S   0  0  0  0  0  1  0  0  0  0  0  0
   -0.0000    2.6006    0.5097 H   0  0  0  0  0  0  0  0  0  0  0  0
    0.0000   -0.5195    1.1270 N   0  0  0  0  0  0  0  0  0  0  0  0
    0.0000   -1.7223    0.5823 N   0  0  0  0  0  0  0  0  0  0  0  0
    0.0000   -1.7223   -0.6222 O   0  0  0  0  0  0  0  0  0  0  0  0
   -0.0000    0.4631    0.4118 H   0  0  0  0  0  0  0  0  0  0  0  0
    0.0000   -0.4732    2.1291 H   0  0  0  0  0  0  0  0  0  0  0  0
  1  2  1  0
  3  4  1  0
  3  6  1  0
  3  7  1  0
  4  5  2  0
M  RAD  1   1   2
M  END
>  <reaction>  (10) 
rmg_rxn_1483

>  <mol_properties>  (10) 
{"0": {"label": "*3", "atom_type": "S2s"}, "1": {"label": "*4", "atom_type": "H0"}, "2": {"label": "*1", "atom_type": "N3s"}, "3": {"label": "*0", "atom_type": "N3d"}, "5": {"label": "*2", "atom_type": "H0"}}

>  <type>  (10) 
unop_6

>  <geom_source>  (10) 
Heuristics

$$$$

     RDKit          3D

  7  5  0  0  0  0  0  0  0  0999 V2000
   -0.0171    1.7719   -0.5197 S   0  0  0  0  0  1  0  0  0  0  0  0
    1.3200    1.8238   -0.5575 H   0  0  0  0  0  0  0  0  0  0  0  0
   -0.0171   -0.5095    1.1408 N   0  0  0  0  0  0  0  0  0  0  0  0
   -0.0171   -1.7123    0.5961 N   0  0  0  0  0  0  0  0  0  0  0  0
   -0.0171   -1.7123   -0.6084 O   0  0  0  0  0  0  0  0  0  0  0  0
   -0.0171    0.4732    0.4256 H   0  0  0  0  0  0  0  0  0  0  0  0
   -0.0171   -0.4631    2.1429 H   0  0  0  0  0  0  0  0  0  0  0  0
  1  2  1  0
  3  4  1  0
  3  6  1  0
  3  7  1  0
  4  5  2  0
M  RAD  1   1   2
M  END
>  <reaction>  (11) 
rmg_rxn_1483

>  <mol_properties>  (11) 
{"0": {"label": "*3", "atom_type": "S2s"}, "1": {"label": "*4", "atom_type": "H0"}, "2": {"label": "*1", "atom_type": "N3s"}, "3": {"label": "*0", "atom_type": "N3d"}, "5": {"label": "*2", "atom_type": "H0"}}

>  <type>  (11) 
unop_7

>  <geom_source>  (11) 
Heuristics

$$$$

     RDKit          3D

  7  5  0  0  0  0  0  0  0  0999 V2000
   -1.9386   -0.1193    0.0001 S   0  0  0  0  0  1  0  0  0  0  0  0
   -1.4794   -1.3648   -0.0011 H   0  0  0  0  0  0  0  0  0  0  0  0
    0.6774    0.9436   -0.0002 N   0  0  0  0  0  0  0  0  0  0  0  0
    1.7398    0.2890    0.0002 N   0  0  0  0  0  0  0  0  0  0  0  0
    1.8419   -0.9074   -0.0001 O   0  0  0  0  0  0  0  0  0  0  0  0
   -0.4478    0.4813   -0.0011 H   0  0  0  0  0  0  0  0  0  0  0  0
    0.7687    1.9522   -0.0002 H   0  0  0  0  0  0  0  0  0  0  0  0
  1  2  1  0
  3  4  1  0
  3  6  1  0
  3  7  1  0
  4  5  2  0
M  RAD  1   1   2
M  END
>  <reaction>  (12) 
rmg_rxn_1483

>  <mol_properties>  (12) 
{"0": {"label": "*3", "atom_type": "S2s"}, "1": {"label": "*4", "atom_type": "H0"}, "2": {"label": "*1", "atom_type": "N3s"}, "3": {"label": "*0", "atom_type": "N3d"}, "5": {"label": "*2", "atom_type": "H0"}}

>  <type>  (12) 
unop_8

>  <geom_source>  (12) 
Heuristics

$$$$

     RDKit          3D

  7  5  0  0  0  0  0  0  0  0999 V2000
   -0.0148    1.7669   -0.5266 S   0  0  0  0  0  1  0  0  0  0  0  0
    1.1432    2.2122   -0.0239 H   0  0  0  0  0  0  0  0  0  0  0  0
   -0.0148   -0.5145    1.1339 N   0  0  0  0  0  0  0  0  0  0  0  0
   -0.0148   -1.7173    0.5892 N   0  0  0  0  0  0  0  0  0  0  0  0
   -0.0148   -1.7173   -0.6153 O   0  0  0  0  0  0  0  0  0  0  0  0
   -0.0148    0.4681    0.4187 H   0  0  0  0  0  0  0  0  0  0  0  0
   -0.0148   -0.4682    2.1360 H   0  0  0  0  0  0  0  0  0  0  0  0
  1  2  1  0
  3  4  1  0
  3  6  1  0
  3  7  1  0
  4  5  2  0
M  RAD  1   1   2
M  END
>  <reaction>  (13) 
rmg_rxn_1483

>  <mol_properties>  (13) 
{"0": {"label": "*3", "atom_type": "S2s"}, "1": {"label": "*4", "atom_type": "H0"}, "2": {"label": "*1", "atom_type": "N3s"}, "3": {"label": "*0", "atom_type": "N3d"}, "5": {"label": "*2", "atom_type": "H0"}}

>  <type>  (13) 
unop_9

>  <geom_source>  (13) 
Heuristics

$$$$

     RDKit          3D

  7  5  0  0  0  0  0  0  0  0999 V2000
    0.0171    1.7719   -0.5197 S   0  0  0  0  0  1  0  0  0  0  0  0
   -1.3200    1.8238   -0.5575 H   0  0  0  0  0  0  0  0  0  0  0  0
    0.0171   -0.5095    1.1408 N   0  0  0  0  0  0  0  0  0  0  0  0
    0.0171   -1.7123    0.5961 N   0  0  0  0  0  0  0  0  0  0  0  0
    0.0171   -1.7123   -0.6084 O   0  0  0  0  0  0  0  0  0  0  0  0
    0.0171    0.4732    0.4256 H   0  0  0  0  0  0  0  0  0  0  0  0
    0.0171   -0.4631    2.1429 H   0  0  0  0  0  0  0  0  0  0  0  0
  1  2  1  0
  3  4  1  0
  3  6  1  0
  3  7  1  0
  4  5  2  0
M  RAD  1   1   2
M  END
>  <reaction>  (14) 
rmg_rxn_1483

>  <mol_properties>  (14) 
{"0": {"label": "*3", "atom_type": "S2s"}, "1": {"label": "*4", "atom_type": "H0"}, "2": {"label": "*1", "atom_type": "N3s"}, "3": {"label": "*0", "atom_type": "N3d"}, "5": {"label": "*2", "atom_type": "H0"}}

>  <type>  (14) 
unop_10

>  <geom_source>  (14) 
Heuristics

$$$$

     RDKit          3D

  7  5  0  0  0  0  0  0  0  0999 V2000
   -1.9387   -0.1193    0.0000 S   0  0  0  0  0  1  0  0  0  0  0  0
   -1.4793   -1.3646   -0.0004 H   0  0  0  0  0  0  0  0  0  0  0  0
    0.6774    0.9434   -0.0000 N   0  0  0  0  0  0  0  0  0  0  0  0
    1.7398    0.2891   -0.0000 N   0  0  0  0  0  0  0  0  0  0  0  0
    1.8421   -0.9072    0.0000 O   0  0  0  0  0  0  0  0  0  0  0  0
   -0.4479    0.4810    0.0003 H   0  0  0  0  0  0  0  0  0  0  0  0
    0.7685    1.9521   -0.0002 H   0  0  0  0  0  0  0  0  0  0  0  0
  1  2  1  0
  3  4  1  0
  3  6  1  0
  3  7  1  0
  4  5  2  0
M  RAD  1   1   2
M  END
>  <reaction>  (15) 
rmg_rxn_1483

>  <mol_properties>  (15) 
{"0": {"label": "*3", "atom_type": "S2s"}, "1": {"label": "*4", "atom_type": "H0"}, "2": {"label": "*1", "atom_type": "N3s"}, "3": {"label": "*0", "atom_type": "N3d"}, "5": {"label": "*2", "atom_type": "H0"}}

>  <type>  (15) 
unop_11

>  <geom_source>  (15) 
Heuristics

$$$$

     RDKit          3D

  7  5  0  0  0  0  0  0  0  0999 V2000
   -0.0085    1.7806   -0.5078 S   0  0  0  0  0  1  0  0  0  0  0  0
    0.6600    1.1511   -1.4818 H   0  0  0  0  0  0  0  0  0  0  0  0
   -0.0085   -0.5008    1.1527 N   0  0  0  0  0  0  0  0  0  0  0  0
   -0.0085   -1.7036    0.6080 N   0  0  0  0  0  0  0  0  0  0  0  0
   -0.0085   -1.7036   -0.5965 O   0  0  0  0  0  0  0  0  0  0  0  0
   -0.0085    0.4818    0.4375 H   0  0  0  0  0  0  0  0  0  0  0  0
   -0.0085   -0.4544    2.1548 H   0  0  0  0  0  0  0  0  0  0  0  0
  1  2  1  0
  3  4  1  0
  3  6  1  0
  3  7  1  0
  4  5  2  0
M  RAD  1   1   2
M  END
>  <reaction>  (16) 
rmg_rxn_1483

>  <mol_properties>  (16) 
{"0": {"label": "*3", "atom_type": "S2s"}, "1": {"label": "*4", "atom_type": "H0"}, "2": {"label": "*1", "atom_type": "N3s"}, "3": {"label": "*0", "atom_type": "N3d"}, "5": {"label": "*2", "atom_type": "H0"}}

>  <type>  (16) 
unop_12

>  <geom_source>  (16) 
Heuristics

$$$$

     RDKit          3D

  7  5  0  0  0  0  0  0  0  0999 V2000
    0.0148    1.7769   -0.5128 S   0  0  0  0  0  1  0  0  0  0  0  0
   -1.1432    1.4354   -1.0911 H   0  0  0  0  0  0  0  0  0  0  0  0
    0.0148   -0.5045    1.1477 N   0  0  0  0  0  0  0  0  0  0  0  0
    0.0148   -1.7073    0.6030 N   0  0  0  0  0  0  0  0  0  0  0  0
    0.0148   -1.7073   -0.6015 O   0  0  0  0  0  0  0  0  0  0  0  0
    0.0148    0.4782    0.4325 H   0  0  0  0  0  0  0  0  0  0  0  0
    0.0148   -0.4581    2.1498 H   0  0  0  0  0  0  0  0  0  0  0  0
  1  2  1  0
  3  4  1  0
  3  6  1  0
  3  7  1  0
  4  5  2  0
M  RAD  1   1   2
M  END
>  <reaction>  (17) 
rmg_rxn_1483

>  <mol_properties>  (17) 
{"0": {"label": "*3", "atom_type": "S2s"}, "1": {"label": "*4", "atom_type": "H0"}, "2": {"label": "*1", "atom_type": "N3s"}, "3": {"label": "*0", "atom_type": "N3d"}, "5": {"label": "*2", "atom_type": "H0"}}

>  <type>  (17) 
unop_13

>  <geom_source>  (17) 
Heuristics

$$$$

     RDKit          3D

  7  5  0  0  0  0  0  0  0  0999 V2000
   -0.0085    1.7632   -0.5317 S   0  0  0  0  0  1  0  0  0  0  0  0
    0.6600    2.4966    0.3668 H   0  0  0  0  0  0  0  0  0  0  0  0
   -0.0085   -0.5182    1.1289 N   0  0  0  0  0  0  0  0  0  0  0  0
   -0.0085   -1.7210    0.5841 N   0  0  0  0  0  0  0  0  0  0  0  0
   -0.0085   -1.7210   -0.6204 O   0  0  0  0  0  0  0  0  0  0  0  0
   -0.0085    0.4645    0.4136 H   0  0  0  0  0  0  0  0  0  0  0  0
   -0.0085   -0.4718    2.1310 H   0  0  0  0  0  0  0  0  0  0  0  0
  1  2  1  0
  3  4  1  0
  3  6  1  0
  3  7  1  0
  4  5  2  0
M  RAD  1   1   2
M  END
>  <reaction>  (18) 
rmg_rxn_1483

>  <mol_properties>  (18) 
{"0": {"label": "*3", "atom_type": "S2s"}, "1": {"label": "*4", "atom_type": "H0"}, "2": {"label": "*1", "atom_type": "N3s"}, "3": {"label": "*0", "atom_type": "N3d"}, "5": {"label": "*2", "atom_type": "H0"}}

>  <type>  (18) 
unop_14

>  <geom_source>  (18) 
Heuristics

$$$$

     RDKit          3D

  7  5  0  0  0  0  0  0  0  0999 V2000
   -0.0000    1.7819   -0.5059 S   0  0  0  0  0  1  0  0  0  0  0  0
   -0.0000    1.0470   -1.6248 H   0  0  0  0  0  0  0  0  0  0  0  0
    0.0000   -0.4994    1.1546 N   0  0  0  0  0  0  0  0  0  0  0  0
    0.0000   -1.7023    0.6098 N   0  0  0  0  0  0  0  0  0  0  0  0
    0.0000   -1.7023   -0.5947 O   0  0  0  0  0  0  0  0  0  0  0  0
   -0.0000    0.4832    0.4394 H   0  0  0  0  0  0  0  0  0  0  0  0
    0.0000   -0.4531    2.1567 H   0  0  0  0  0  0  0  0  0  0  0  0
  1  2  1  0
  3  4  1  0
  3  6  1  0
  3  7  1  0
  4  5  2  0
M  RAD  1   1   2
M  END
>  <reaction>  (19) 
rmg_rxn_1483

>  <mol_properties>  (19) 
{"0": {"label": "*3", "atom_type": "S2s"}, "1": {"label": "*4", "atom_type": "H0"}, "2": {"label": "*1", "atom_type": "N3s"}, "3": {"label": "*0", "atom_type": "N3d"}, "5": {"label": "*2", "atom_type": "H0"}}

>  <type>  (19) 
unop_15

>  <geom_source>  (19) 
Heuristics

$$$$

     RDKit          3D

  7  5  0  0  0  0  0  0  0  0999 V2000
    0.0148    1.7769   -0.5128 S   0  0  0  0  0  1  0  0  0  0  0  0
   -1.1432    1.4354   -1.0911 H   0  0  0  0  0  0  0  0  0  0  0  0
    0.0148   -0.5045    1.1477 N   0  0  0  0  0  0  0  0  0  0  0  0
    0.0148   -1.7073    0.6029 N   0  0  0  0  0  0  0  0  0  0  0  0
    0.0148   -1.7073   -0.6016 O   0  0  0  0  0  0  0  0  0  0  0  0
    0.0148    0.4782    0.4325 H   0  0  0  0  0  0  0  0  0  0  0  0
    0.0148   -0.4581    2.1498 H   0  0  0  0  0  0  0  0  0  0  0  0
  1  2  1  0
  3  4  1  0
  3  6  1  0
  3  7  1  0
  4  5  2  0
M  RAD  1   1   2
M  END
>  <reaction>  (20) 
rmg_rxn_1483

>  <mol_properties>  (20) 
{"0": {"label": "*3", "atom_type": "S2s"}, "1": {"label": "*4", "atom_type": "H0"}, "2": {"label": "*1", "atom_type": "N3s"}, "3": {"label": "*0", "atom_type": "N3d"}, "5": {"label": "*2", "atom_type": "H0"}}

>  <type>  (20) 
unop_16

>  <geom_source>  (20) 
gaussian_log

$$$$
