
     RDKit          3D

 13 12  0  0  0  0  0  0  0  0999 V2000
   -2.5787    0.3845    0.5363 N   0  0  0  0  0  1  0  0  0  0  0  0
   -2.0448   -0.2878   -0.3016 N   0  0  0  0  0  0  0  0  0  0  0  0
   -0.5705   -0.4119   -0.5708 C   0  0  0  0  0  0  0  0  0  0  0  0
    0.2772    0.2247    0.5075 C   0  0  0  0  0  0  0  0  0  0  0  0
    0.2957   -0.5646    1.8104 C   0  0  0  0  0  0  0  0  0  0  0  0
   -2.5889   -0.8713   -0.9748 H   0  0  0  0  0  0  0  0  0  0  0  0
   -0.3659   -1.4815   -0.6747 H   0  0  0  0  0  0  0  0  0  0  0  0
   -0.4043    0.0541   -1.5457 H   0  0  0  0  0  0  0  0  0  0  0  0
    1.2919    0.3223    0.1145 H   0  0  0  0  0  0  0  0  0  0  0  0
   -0.0978    1.2330    0.6915 H   0  0  0  0  0  0  0  0  0  0  0  0
    0.6693   -1.5792    1.6503 H   0  0  0  0  0  0  0  0  0  0  0  0
   -0.7042   -0.6287    2.2395 H   0  0  0  0  0  0  0  0  0  0  0  0
    0.9431   -0.0833    2.5443 H   0  0  0  0  0  0  0  0  0  0  0  0
  1  2  1  0
  2  3  1  0
  2  6  1  0
  3  4  1  0
  3  7  1  0
  3  8  1  0
  4  5  1  0
  4  9  1  0
  4 10  1  0
  5 11  1  0
  5 12  1  0
  5 13  1  0
M  RAD  1   1   3
M  END
>  <reaction>  (1) 
rmg_rxn_16705

>  <mol_properties>  (1) 
{"2": {"label": "donator", "atom_type": "Cs"}, "6": {"label": "d_hydrogen", "atom_type": "H0"}}

>  <type>  (1) 
r1h

$$$$

     RDKit          3D

  7  6  0  0  0  0  0  0  0  0999 V2000
   -0.6441   -0.1356    0.0624 C   0  0  0  0  0  0  0  0  0  0  0  0
    0.8523    0.0148   -0.0333 C   0  0  0  0  0  0  0  0  0  0  0  0
    1.6700   -0.6077    0.6603 N   0  0  0  0  0  2  0  0  0  0  0  0
   -1.0940    0.8275    0.3091 H   0  0  0  0  0  0  0  0  0  0  0  0
   -0.9104   -0.8656    0.8237 H   0  0  0  0  0  0  0  0  0  0  0  0
   -1.0427   -0.4545   -0.9022 H   0  0  0  0  0  0  0  0  0  0  0  0
    1.2362    0.7308   -0.7748 H   0  0  0  0  0  0  0  0  0  0  0  0
  1  2  1  0
  1  4  1  0
  1  5  1  0
  1  6  1  0
  2  3  2  0
  2  7  1  0
M  RAD  1   3   2
M  END
>  <reaction>  (2) 
rmg_rxn_16705

>  <mol_properties>  (2) 
{"2": {"label": "acceptor", "atom_type": "N3d"}}

>  <type>  (2) 
r2

$$$$

     RDKit          3D

  8  7  0  0  0  0  0  0  0  0999 V2000
    0.9548    0.1194   -0.0790 C   0  0  0  0  0  0  0  0  0  0  0  0
   -0.4838   -0.2649    0.0193 C   0  0  0  0  0  0  0  0  0  0  0  0
   -0.8933   -1.1081    0.8664 N   0  0  0  0  0  0  0  0  0  0  0  0
    1.3360   -0.0983   -1.0800 H   0  0  0  0  0  0  0  0  0  0  0  0
    1.0698    1.1948    0.0786 H   0  0  0  0  0  0  0  0  0  0  0  0
    1.5426   -0.4219    0.6602 H   0  0  0  0  0  0  0  0  0  0  0  0
   -1.1575    0.2324   -0.6905 H   0  0  0  0  0  0  0  0  0  0  0  0
   -1.8989   -1.2455    0.7886 H   0  0  0  0  0  0  0  0  0  0  0  0
  1  2  1  0
  1  4  1  0
  1  5  1  0
  1  6  1  0
  2  3  2  3
  2  7  1  0
  3  8  1  0
M  END
>  <reaction>  (3) 
rmg_rxn_16705

>  <mol_properties>  (3) 
{"2": {"label": "acceptor", "atom_type": "N3d"}, "7": {"label": "a_hydrogen", "atom_type": "H0"}}

>  <type>  (3) 
r2h

$$$$

     RDKit          3D

 20 18  0  0  0  0  0  0  0  0999 V2000
    3.5931    0.5913   -0.2377 C   0  0  0  0  0  0  0  0  0  0  0  0
    2.1331    0.3410    0.0195 C   0  0  0  0  0  0  0  0  0  0  0  0
    1.6022   -0.7880   -0.0100 N   0  0  0  0  0  2  0  0  0  0  0  0
    4.1126   -0.3428   -0.4421 H   0  0  0  0  0  0  0  0  0  0  0  0
    4.0459    1.0777    0.6293 H   0  0  0  0  0  0  0  0  0  0  0  0
    3.7079    1.2655   -1.0892 H   0  0  0  0  0  0  0  0  0  0  0  0
    1.5330    1.2451    0.2391 H   0  0  0  0  0  0  0  0  0  0  0  0
   -1.2722    1.6187   -1.2082 N   0  0  0  0  0  1  0  0  0  0  0  0
   -1.0719    1.2199    0.0108 N   0  0  0  0  0  0  0  0  0  0  0  0
   -0.9439   -0.1292    0.4122 C   0  0  0  0  0  0  0  0  0  0  0  0
   -1.7395   -1.1062   -0.4288 C   0  0  0  0  0  0  0  0  0  0  0  0
   -1.5774   -2.5296    0.0852 C   0  0  0  0  0  0  0  0  0  0  0  0
   -0.8471    1.9457    0.6823 H   0  0  0  0  0  0  0  0  0  0  0  0
    0.2227   -0.4923    0.2743 H   0  0  0  0  0  0  0  0  0  0  0  0
   -1.1503   -0.2025    1.4809 H   0  0  0  0  0  0  0  0  0  0  0  0
   -2.7938   -0.8128   -0.4330 H   0  0  0  0  0  0  0  0  0  0  0  0
   -1.3918   -1.0422   -1.4627 H   0  0  0  0  0  0  0  0  0  0  0  0
   -0.5273   -2.8253    0.0789 H   0  0  0  0  0  0  0  0  0  0  0  0
   -2.1327   -3.2310   -0.5380 H   0  0  0  0  0  0  0  0  0  0  0  0
   -1.9504   -2.6244    1.1078 H   0  0  0  0  0  0  0  0  0  0  0  0
  1  2  1  0
  1  4  1  0
  1  5  1  0
  1  6  1  0
  2  3  2  0
  2  7  1  0
  8  9  1  0
  9 10  1  0
  9 13  1  0
 10 11  1  0
 10 14  1  0
 10 15  1  0
 11 12  1  0
 11 16  1  0
 11 17  1  0
 12 18  1  0
 12 19  1  0
 12 20  1  0
M  RAD  2   3   2   8   3
M  END
>  <reaction>  (4) 
rmg_rxn_16705

>  <mol_properties>  (4) 
{"1": {"label": "*4", "atom_type": "Cd"}, "2": {"label": "*3", "atom_type": "N3d"}, "8": {"label": "*0", "atom_type": "N3s"}, "9": {"label": "*1", "atom_type": "Cs"}, "13": {"label": "*2", "atom_type": "H0"}}

>  <type>  (4) 
ts

$$$$

     RDKit          3D

 20 18  0  0  0  0  0  0  0  0999 V2000
    3.4774    0.1723   -0.3214 C   0  0  0  0  0  0  0  0  0  0  0  0
    1.9874    0.2199   -0.2022 C   0  0  0  0  0  0  0  0  0  0  0  0
    1.3820   -0.2599    0.7726 N   0  0  0  0  0  0  0  0  0  0  0  0
    3.9101   -0.3248    0.5422 H   0  0  0  0  0  0  0  0  0  0  0  0
    3.8668    1.1864   -0.3965 H   0  0  0  0  0  0  0  0  0  0  0  0
    3.7506   -0.3626   -1.2296 H   0  0  0  0  0  0  0  0  0  0  0  0
    1.4894    0.7149   -1.0494 H   0  0  0  0  0  0  0  0  0  0  0  0
   -1.6189    1.8874   -0.6715 N   0  0  0  0  0  1  0  0  0  0  0  0
   -1.4034    1.3468    0.4068 N   0  0  0  0  0  0  0  0  0  0  0  0
   -1.1572    0.0065    0.6502 C   0  0  0  0  0  3  0  0  0  0  0  0
   -1.5742   -0.9296   -0.4586 C   0  0  0  0  0  0  0  0  0  0  0  0
   -1.1208   -2.3582   -0.1919 C   0  0  0  0  0  0  0  0  0  0  0  0
   -1.3438    1.9334    1.2682 H   0  0  0  0  0  0  0  0  0  0  0  0
    0.1910   -0.1476    0.7383 H   0  0  0  0  0  0  0  0  0  0  0  0
   -1.4427   -0.3010    1.6541 H   0  0  0  0  0  0  0  0  0  0  0  0
   -2.6642   -0.9025   -0.5705 H   0  0  0  0  0  0  0  0  0  0  0  0
   -1.1517   -0.5586   -1.3966 H   0  0  0  0  0  0  0  0  0  0  0  0
   -0.0393   -2.4013   -0.0887 H   0  0  0  0  0  0  0  0  0  0  0  0
   -1.4193   -3.0072   -1.0109 H   0  0  0  0  0  0  0  0  0  0  0  0
   -1.5667   -2.7354    0.7258 H   0  0  0  0  0  0  0  0  0  0  0  0
  1  2  1  0
  1  4  1  0
  1  5  1  0
  1  6  1  0
  2  3  2  3
  2  7  1  0
  3 14  1  0
  8  9  1  0
  9 10  1  0
  9 13  1  0
 10 11  1  0
 10 15  1  0
 11 12  1  0
 11 16  1  0
 11 17  1  0
 12 18  1  0
 12 19  1  0
 12 20  1  0
M  CHG  2   8  -1  10   1
M  RAD  1   8   2
M  END
>  <reaction>  (5) 
rmg_rxn_16705

>  <mol_properties>  (5) 
{"1": {"label": "*4", "atom_type": "Cd"}, "2": {"label": "*3", "atom_type": "N3d"}, "8": {"label": "*0", "atom_type": "N3s"}, "9": {"label": "*1", "atom_type": "Cs"}, "13": {"label": "*2", "atom_type": "H0"}}

>  <type>  (5) 
unop_1

>  <geom_source>  (5) 
crest_best.xyz

$$$$

     RDKit          3D

 20 18  0  0  0  0  0  0  0  0999 V2000
   -1.0557    0.2195    3.6038 C   0  0  0  0  0  0  0  0  0  0  0  0
   -0.3849   -0.4284    2.4387 C   0  0  0  0  0  0  0  0  0  0  0  0
   -0.8957   -0.4173    1.2832 N   0  0  0  0  0  0  0  0  0  0  0  0
   -1.2426   -0.5172    4.3893 H   0  0  0  0  0  0  0  0  0  0  0  0
   -1.9975    0.6703    3.2958 H   0  0  0  0  0  0  0  0  0  0  0  0
   -0.4068    0.9864    4.0343 H   0  0  0  0  0  0  0  0  0  0  0  0
    0.5766   -0.9123    2.6534 H   0  0  0  0  0  0  0  0  0  0  0  0
    0.8622   -1.1560   -2.5977 N   0  0  0  0  0  1  0  0  0  0  0  0
    0.8622   -1.1560   -1.3981 N   0  0  0  0  0  0  0  0  0  0  0  0
    0.8622    0.0385   -0.4843 C   0  0  0  0  0  3  0  0  0  0  0  0
    0.6056    1.3361   -1.2170 C   0  0  0  0  0  0  0  0  0  0  0  0
   -0.8378    1.4988   -1.6765 C   0  0  0  0  0  0  0  0  0  0  0  0
    0.8816   -2.0399   -0.8431 H   0  0  0  0  0  0  0  0  0  0  0  0
   -0.0484   -0.1976    0.4313 H   0  0  0  0  0  0  0  0  0  0  0  0
    1.8376    0.0372    0.0094 H   0  0  0  0  0  0  0  0  0  0  0  0
    0.8791    2.1535   -0.5456 H   0  0  0  0  0  0  0  0  0  0  0  0
    1.2751    1.3853   -2.0775 H   0  0  0  0  0  0  0  0  0  0  0  0
   -1.5275    1.4537   -0.8298 H   0  0  0  0  0  0  0  0  0  0  0  0
   -1.1098    0.7168   -2.3853 H   0  0  0  0  0  0  0  0  0  0  0  0
   -0.9797    2.4605   -2.1706 H   0  0  0  0  0  0  0  0  0  0  0  0
  1  2  1  0
  1  4  1  0
  1  5  1  0
  1  6  1  0
  2  3  2  3
  2  7  1  0
  3 14  1  0
  8  9  1  0
  9 10  1  0
  9 13  1  0
 10 11  1  0
 10 15  1  0
 11 12  1  0
 11 16  1  0
 11 17  1  0
 12 18  1  0
 12 19  1  0
 12 20  1  0
M  CHG  2   8  -1  10   1
M  RAD  1   8   2
M  END
>  <reaction>  (6) 
rmg_rxn_16705

>  <mol_properties>  (6) 
{"1": {"label": "*4", "atom_type": "Cd"}, "2": {"label": "*3", "atom_type": "N3d"}, "8": {"label": "*0", "atom_type": "N3s"}, "9": {"label": "*1", "atom_type": "Cs"}, "13": {"label": "*2", "atom_type": "H0"}}

>  <type>  (6) 
unop_2

>  <geom_source>  (6) 
Heuristics

$$$$

     RDKit          3D

 20 18  0  0  0  0  0  0  0  0999 V2000
   -1.4877   -1.7175    2.9731 C   0  0  0  0  0  0  0  0  0  0  0  0
   -0.8566   -1.1897    1.7280 C   0  0  0  0  0  0  0  0  0  0  0  0
   -0.7420    0.0498    1.5112 N   0  0  0  0  0  0  0  0  0  0  0  0
   -2.3483   -2.3435    2.7239 H   0  0  0  0  0  0  0  0  0  0  0  0
   -1.8074   -0.8967    3.6128 H   0  0  0  0  0  0  0  0  0  0  0  0
   -0.7804   -2.3499    3.5158 H   0  0  0  0  0  0  0  0  0  0  0  0
   -0.5011   -1.9475    1.0180 H   0  0  0  0  0  0  0  0  0  0  0  0
    1.0159   -0.6889   -2.3697 N   0  0  0  0  0  1  0  0  0  0  0  0
    1.0159   -0.6889   -1.1701 N   0  0  0  0  0  0  0  0  0  0  0  0
    1.0159    0.5056   -0.2563 C   0  0  0  0  0  3  0  0  0  0  0  0
    0.7593    1.8032   -0.9889 C   0  0  0  0  0  0  0  0  0  0  0  0
   -0.6841    1.9659   -1.4484 C   0  0  0  0  0  0  0  0  0  0  0  0
    1.0353   -1.5728   -0.6150 H   0  0  0  0  0  0  0  0  0  0  0  0
    0.1053    0.2694    0.6593 H   0  0  0  0  0  0  0  0  0  0  0  0
    1.9913    0.5043    0.2374 H   0  0  0  0  0  0  0  0  0  0  0  0
    1.0328    2.6206   -0.3175 H   0  0  0  0  0  0  0  0  0  0  0  0
    1.4288    1.8524   -1.8495 H   0  0  0  0  0  0  0  0  0  0  0  0
   -1.3738    1.9208   -0.6018 H   0  0  0  0  0  0  0  0  0  0  0  0
   -0.9561    1.1839   -2.1573 H   0  0  0  0  0  0  0  0  0  0  0  0
   -0.8260    2.9276   -1.9426 H   0  0  0  0  0  0  0  0  0  0  0  0
  1  2  1  0
  1  4  1  0
  1  5  1  0
  1  6  1  0
  2  3  2  3
  2  7  1  0
  3 14  1  0
  8  9  1  0
  9 10  1  0
  9 13  1  0
 10 11  1  0
 10 15  1  0
 11 12  1  0
 11 16  1  0
 11 17  1  0
 12 18  1  0
 12 19  1  0
 12 20  1  0
M  CHG  2   8  -1  10   1
M  RAD  1   8   2
M  END
>  <reaction>  (7) 
rmg_rxn_16705

>  <mol_properties>  (7) 
{"1": {"label": "*4", "atom_type": "Cd"}, "2": {"label": "*3", "atom_type": "N3d"}, "8": {"label": "*0", "atom_type": "N3s"}, "9": {"label": "*1", "atom_type": "Cs"}, "13": {"label": "*2", "atom_type": "H0"}}

>  <type>  (7) 
unop_3

>  <geom_source>  (7) 
Heuristics

$$$$

     RDKit          3D

 20 18  0  0  0  0  0  0  0  0999 V2000
   -1.5362    0.5087    3.3677 C   0  0  0  0  0  0  0  0  0  0  0  0
   -0.4929    0.0169    2.4208 C   0  0  0  0  0  0  0  0  0  0  0  0
   -0.7931   -0.5415    1.3279 N   0  0  0  0  0  0  0  0  0  0  0  0
   -1.4259    0.0187    4.3385 H   0  0  0  0  0  0  0  0  0  0  0  0
   -2.5306    0.3116    2.9712 H   0  0  0  0  0  0  0  0  0  0  0  0
   -1.4163    1.5818    3.5373 H   0  0  0  0  0  0  0  0  0  0  0  0
    0.5465    0.1726    2.7370 H   0  0  0  0  0  0  0  0  0  0  0  0
    0.9648   -1.2801   -2.5531 N   0  0  0  0  0  1  0  0  0  0  0  0
    0.9648   -1.2801   -1.3535 N   0  0  0  0  0  0  0  0  0  0  0  0
    0.9648   -0.0857   -0.4397 C   0  0  0  0  0  3  0  0  0  0  0  0
    0.7082    1.2120   -1.1723 C   0  0  0  0  0  0  0  0  0  0  0  0
   -0.7352    1.3746   -1.6318 C   0  0  0  0  0  0  0  0  0  0  0  0
    0.9842   -2.1640   -0.7984 H   0  0  0  0  0  0  0  0  0  0  0  0
    0.0542   -0.3218    0.4759 H   0  0  0  0  0  0  0  0  0  0  0  0
    1.9402   -0.0870    0.0541 H   0  0  0  0  0  0  0  0  0  0  0  0
    0.9817    2.0293   -0.5009 H   0  0  0  0  0  0  0  0  0  0  0  0
    1.3777    1.2611   -2.0328 H   0  0  0  0  0  0  0  0  0  0  0  0
   -1.4249    1.3296   -0.7852 H   0  0  0  0  0  0  0  0  0  0  0  0
   -1.0072    0.5926   -2.3407 H   0  0  0  0  0  0  0  0  0  0  0  0
   -0.8771    2.3364   -2.1260 H   0  0  0  0  0  0  0  0  0  0  0  0
  1  2  1  0
  1  4  1  0
  1  5  1  0
  1  6  1  0
  2  3  2  3
  2  7  1  0
  3 14  1  0
  8  9  1  0
  9 10  1  0
  9 13  1  0
 10 11  1  0
 10 15  1  0
 11 12  1  0
 11 16  1  0
 11 17  1  0
 12 18  1  0
 12 19  1  0
 12 20  1  0
M  CHG  2   8  -1  10   1
M  RAD  1   8   2
M  END
>  <reaction>  (8) 
rmg_rxn_16705

>  <mol_properties>  (8) 
{"1": {"label": "*4", "atom_type": "Cd"}, "2": {"label": "*3", "atom_type": "N3d"}, "8": {"label": "*0", "atom_type": "N3s"}, "9": {"label": "*1", "atom_type": "Cs"}, "13": {"label": "*2", "atom_type": "H0"}}

>  <type>  (8) 
unop_4

>  <geom_source>  (8) 
Heuristics

$$$$

     RDKit          3D

 20 18  0  0  0  0  0  0  0  0999 V2000
   -2.7892   -0.0726    1.9417 C   0  0  0  0  0  0  0  0  0  0  0  0
   -1.5401   -0.5052    1.2492 C   0  0  0  0  0  0  0  0  0  0  0  0
   -0.4000   -0.3531    1.7720 N   0  0  0  0  0  0  0  0  0  0  0  0
   -3.3260    0.6575    1.3306 H   0  0  0  0  0  0  0  0  0  0  0  0
   -2.5531    0.3660    2.9096 H   0  0  0  0  0  0  0  0  0  0  0  0
   -3.4587   -0.9255    2.0802 H   0  0  0  0  0  0  0  0  0  0  0  0
   -1.6791   -0.9616    0.2607 H   0  0  0  0  0  0  0  0  0  0  0  0
    1.3580   -1.0918   -2.1089 N   0  0  0  0  0  1  0  0  0  0  0  0
    1.3580   -1.0918   -0.9093 N   0  0  0  0  0  0  0  0  0  0  0  0
    1.3580    0.1027    0.0045 C   0  0  0  0  0  3  0  0  0  0  0  0
    1.1014    1.4003   -0.7281 C   0  0  0  0  0  0  0  0  0  0  0  0
   -0.3420    1.5630   -1.1877 C   0  0  0  0  0  0  0  0  0  0  0  0
    1.3774   -1.9757   -0.3543 H   0  0  0  0  0  0  0  0  0  0  0  0
    0.4474   -0.1335    0.9201 H   0  0  0  0  0  0  0  0  0  0  0  0
    2.3334    0.1014    0.4982 H   0  0  0  0  0  0  0  0  0  0  0  0
    1.3749    2.2177   -0.0568 H   0  0  0  0  0  0  0  0  0  0  0  0
    1.7709    1.4495   -1.5887 H   0  0  0  0  0  0  0  0  0  0  0  0
   -1.0317    1.5179   -0.3410 H   0  0  0  0  0  0  0  0  0  0  0  0
   -0.6141    0.7810   -1.8965 H   0  0  0  0  0  0  0  0  0  0  0  0
   -0.4839    2.5247   -1.6818 H   0  0  0  0  0  0  0  0  0  0  0  0
  1  2  1  0
  1  4  1  0
  1  5  1  0
  1  6  1  0
  2  3  2  3
  2  7  1  0
  3 14  1  0
  8  9  1  0
  9 10  1  0
  9 13  1  0
 10 11  1  0
 10 15  1  0
 11 12  1  0
 11 16  1  0
 11 17  1  0
 12 18  1  0
 12 19  1  0
 12 20  1  0
M  CHG  2   8  -1  10   1
M  RAD  1   8   2
M  END
>  <reaction>  (9) 
rmg_rxn_16705

>  <mol_properties>  (9) 
{"1": {"label": "*4", "atom_type": "Cd"}, "2": {"label": "*3", "atom_type": "N3d"}, "8": {"label": "*0", "atom_type": "N3s"}, "9": {"label": "*1", "atom_type": "Cs"}, "13": {"label": "*2", "atom_type": "H0"}}

>  <type>  (9) 
unop_5

>  <geom_source>  (9) 
Heuristics

$$$$

     RDKit          3D

 20 18  0  0  0  0  0  0  0  0999 V2000
   -1.7435    0.3646    3.3359 C   0  0  0  0  0  0  0  0  0  0  0  0
   -0.7840    0.3807    2.1930 C   0  0  0  0  0  0  0  0  0  0  0  0
   -0.7088   -0.5757    1.3709 N   0  0  0  0  0  0  0  0  0  0  0  0
   -1.2043    0.4509    4.2827 H   0  0  0  0  0  0  0  0  0  0  0  0
   -2.3239   -0.5563    3.3300 H   0  0  0  0  0  0  0  0  0  0  0  0
   -2.4181    1.2224    3.2743 H   0  0  0  0  0  0  0  0  0  0  0  0
   -0.1520    1.2749    2.1164 H   0  0  0  0  0  0  0  0  0  0  0  0
    1.0492   -1.3144   -2.5101 N   0  0  0  0  0  1  0  0  0  0  0  0
    1.0492   -1.3144   -1.3105 N   0  0  0  0  0  0  0  0  0  0  0  0
    1.0492   -0.1199   -0.3967 C   0  0  0  0  0  3  0  0  0  0  0  0
    0.7925    1.1778   -1.1293 C   0  0  0  0  0  0  0  0  0  0  0  0
   -0.6508    1.3404   -1.5888 C   0  0  0  0  0  0  0  0  0  0  0  0
    1.0685   -2.1982   -0.7554 H   0  0  0  0  0  0  0  0  0  0  0  0
    0.1386   -0.3560    0.5189 H   0  0  0  0  0  0  0  0  0  0  0  0
    2.0246   -0.1212    0.0970 H   0  0  0  0  0  0  0  0  0  0  0  0
    1.0660    1.9951   -0.4579 H   0  0  0  0  0  0  0  0  0  0  0  0
    1.4621    1.2269   -1.9898 H   0  0  0  0  0  0  0  0  0  0  0  0
   -1.3405    1.2953   -0.7422 H   0  0  0  0  0  0  0  0  0  0  0  0
   -0.9229    0.5584   -2.2977 H   0  0  0  0  0  0  0  0  0  0  0  0
   -0.7927    2.3022   -2.0830 H   0  0  0  0  0  0  0  0  0  0  0  0
  1  2  1  0
  1  4  1  0
  1  5  1  0
  1  6  1  0
  2  3  2  3
  2  7  1  0
  3 14  1  0
  8  9  1  0
  9 10  1  0
  9 13  1  0
 10 11  1  0
 10 15  1  0
 11 12  1  0
 11 16  1  0
 11 17  1  0
 12 18  1  0
 12 19  1  0
 12 20  1  0
M  CHG  2   8  -1  10   1
M  RAD  1   8   2
M  END
>  <reaction>  (10) 
rmg_rxn_16705

>  <mol_properties>  (10) 
{"1": {"label": "*4", "atom_type": "Cd"}, "2": {"label": "*3", "atom_type": "N3d"}, "8": {"label": "*0", "atom_type": "N3s"}, "9": {"label": "*1", "atom_type": "Cs"}, "13": {"label": "*2", "atom_type": "H0"}}

>  <type>  (10) 
unop_6

>  <geom_source>  (10) 
Heuristics

$$$$

     RDKit          3D

 20 18  0  0  0  0  0  0  0  0999 V2000
   -2.4919    0.5964    2.2859 C   0  0  0  0  0  0  0  0  0  0  0  0
   -1.5761   -0.1013    1.3363 C   0  0  0  0  0  0  0  0  0  0  0  0
   -0.4466   -0.5376    1.6969 N   0  0  0  0  0  0  0  0  0  0  0  0
   -2.7138    1.6039    1.9248 H   0  0  0  0  0  0  0  0  0  0  0  0
   -2.0393    0.6552    3.2742 H   0  0  0  0  0  0  0  0  0  0  0  0
   -3.4445    0.0645    2.3511 H   0  0  0  0  0  0  0  0  0  0  0  0
   -1.9491   -0.2086    0.3096 H   0  0  0  0  0  0  0  0  0  0  0  0
    1.3114   -1.2762   -2.1840 N   0  0  0  0  0  1  0  0  0  0  0  0
    1.3114   -1.2762   -0.9844 N   0  0  0  0  0  0  0  0  0  0  0  0
    1.3114   -0.0818   -0.0706 C   0  0  0  0  0  3  0  0  0  0  0  0
    1.0547    1.2159   -0.8033 C   0  0  0  0  0  0  0  0  0  0  0  0
   -0.3886    1.3785   -1.2628 C   0  0  0  0  0  0  0  0  0  0  0  0
    1.3307   -2.1601   -0.4294 H   0  0  0  0  0  0  0  0  0  0  0  0
    0.4007   -0.3179    0.8450 H   0  0  0  0  0  0  0  0  0  0  0  0
    2.2868   -0.0831    0.4231 H   0  0  0  0  0  0  0  0  0  0  0  0
    1.3282    2.0332   -0.1319 H   0  0  0  0  0  0  0  0  0  0  0  0
    1.7243    1.2650   -1.6638 H   0  0  0  0  0  0  0  0  0  0  0  0
   -1.0783    1.3335   -0.4161 H   0  0  0  0  0  0  0  0  0  0  0  0
   -0.6607    0.5965   -1.9716 H   0  0  0  0  0  0  0  0  0  0  0  0
   -0.5305    2.3403   -1.7569 H   0  0  0  0  0  0  0  0  0  0  0  0
  1  2  1  0
  1  4  1  0
  1  5  1  0
  1  6  1  0
  2  3  2  3
  2  7  1  0
  3 14  1  0
  8  9  1  0
  9 10  1  0
  9 13  1  0
 10 11  1  0
 10 15  1  0
 11 12  1  0
 11 16  1  0
 11 17  1  0
 12 18  1  0
 12 19  1  0
 12 20  1  0
M  CHG  2   8  -1  10   1
M  RAD  1   8   2
M  END
>  <reaction>  (11) 
rmg_rxn_16705

>  <mol_properties>  (11) 
{"1": {"label": "*4", "atom_type": "Cd"}, "2": {"label": "*3", "atom_type": "N3d"}, "8": {"label": "*0", "atom_type": "N3s"}, "9": {"label": "*1", "atom_type": "Cs"}, "13": {"label": "*2", "atom_type": "H0"}}

>  <type>  (11) 
unop_7

>  <geom_source>  (11) 
Heuristics

$$$$

     RDKit          3D

 20 18  0  0  0  0  0  0  0  0999 V2000
   -2.0133    0.8281    2.8083 C   0  0  0  0  0  0  0  0  0  0  0  0
   -1.4521    0.2498    1.5522 C   0  0  0  0  0  0  0  0  0  0  0  0
   -0.5515   -0.6361    1.5692 N   0  0  0  0  0  0  0  0  0  0  0  0
   -1.8603    1.9101    2.8269 H   0  0  0  0  0  0  0  0  0  0  0  0
   -1.5376    0.3780    3.6778 H   0  0  0  0  0  0  0  0  0  0  0  0
   -3.0921    0.6583    2.8529 H   0  0  0  0  0  0  0  0  0  0  0  0
   -1.8730    0.6446    0.6185 H   0  0  0  0  0  0  0  0  0  0  0  0
    1.2065   -1.3748   -2.3117 N   0  0  0  0  0  1  0  0  0  0  0  0
    1.2065   -1.3748   -1.1122 N   0  0  0  0  0  0  0  0  0  0  0  0
    1.2065   -0.1803   -0.1984 C   0  0  0  0  0  3  0  0  0  0  0  0
    0.9498    1.1173   -0.9310 C   0  0  0  0  0  0  0  0  0  0  0  0
   -0.4935    1.2800   -1.3905 C   0  0  0  0  0  0  0  0  0  0  0  0
    1.2258   -2.2586   -0.5571 H   0  0  0  0  0  0  0  0  0  0  0  0
    0.2958   -0.4164    0.7173 H   0  0  0  0  0  0  0  0  0  0  0  0
    2.1819   -0.1816    0.2954 H   0  0  0  0  0  0  0  0  0  0  0  0
    1.2233    1.9347   -0.2596 H   0  0  0  0  0  0  0  0  0  0  0  0
    1.6194    1.1665   -1.7915 H   0  0  0  0  0  0  0  0  0  0  0  0
   -1.1832    1.2349   -0.5438 H   0  0  0  0  0  0  0  0  0  0  0  0
   -0.7656    0.4980   -2.0993 H   0  0  0  0  0  0  0  0  0  0  0  0
   -0.6354    2.2417   -1.8846 H   0  0  0  0  0  0  0  0  0  0  0  0
  1  2  1  0
  1  4  1  0
  1  5  1  0
  1  6  1  0
  2  3  2  3
  2  7  1  0
  3 14  1  0
  8  9  1  0
  9 10  1  0
  9 13  1  0
 10 11  1  0
 10 15  1  0
 11 12  1  0
 11 16  1  0
 11 17  1  0
 12 18  1  0
 12 19  1  0
 12 20  1  0
M  CHG  2   8  -1  10   1
M  RAD  1   8   2
M  END
>  <reaction>  (12) 
rmg_rxn_16705

>  <mol_properties>  (12) 
{"1": {"label": "*4", "atom_type": "Cd"}, "2": {"label": "*3", "atom_type": "N3d"}, "8": {"label": "*0", "atom_type": "N3s"}, "9": {"label": "*1", "atom_type": "Cs"}, "13": {"label": "*2", "atom_type": "H0"}}

>  <type>  (12) 
unop_8

>  <geom_source>  (12) 
Heuristics

$$$$

     RDKit          3D

 20 18  0  0  0  0  0  0  0  0999 V2000
   -0.8033   -0.4767    3.6886 C   0  0  0  0  0  0  0  0  0  0  0  0
   -0.4323   -0.8282    2.2865 C   0  0  0  0  0  0  0  0  0  0  0  0
   -0.9326   -0.2287    1.2932 N   0  0  0  0  0  0  0  0  0  0  0  0
   -1.2207   -1.3488    4.1985 H   0  0  0  0  0  0  0  0  0  0  0  0
   -1.5314    0.3325    3.6960 H   0  0  0  0  0  0  0  0  0  0  0  0
    0.0848   -0.1747    4.2496 H   0  0  0  0  0  0  0  0  0  0  0  0
    0.3005   -1.6382    2.1783 H   0  0  0  0  0  0  0  0  0  0  0  0
    0.8254   -0.9674   -2.5877 N   0  0  0  0  0  1  0  0  0  0  0  0
    0.8254   -0.9674   -1.3881 N   0  0  0  0  0  0  0  0  0  0  0  0
    0.8254    0.2270   -0.4744 C   0  0  0  0  0  3  0  0  0  0  0  0
    0.5687    1.5247   -1.2070 C   0  0  0  0  0  0  0  0  0  0  0  0
   -0.8746    1.6874   -1.6665 C   0  0  0  0  0  0  0  0  0  0  0  0
    0.8447   -1.8513   -0.8331 H   0  0  0  0  0  0  0  0  0  0  0  0
   -0.0852   -0.0091    0.4413 H   0  0  0  0  0  0  0  0  0  0  0  0
    1.8008    0.2258    0.0194 H   0  0  0  0  0  0  0  0  0  0  0  0
    0.8423    2.3421   -0.5356 H   0  0  0  0  0  0  0  0  0  0  0  0
    1.2383    1.5739   -2.0675 H   0  0  0  0  0  0  0  0  0  0  0  0
   -1.5643    1.6423   -0.8198 H   0  0  0  0  0  0  0  0  0  0  0  0
   -1.1467    0.9054   -2.3753 H   0  0  0  0  0  0  0  0  0  0  0  0
   -1.0165    2.6491   -2.1606 H   0  0  0  0  0  0  0  0  0  0  0  0
  1  2  1  0
  1  4  1  0
  1  5  1  0
  1  6  1  0
  2  3  2  3
  2  7  1  0
  3 14  1  0
  8  9  1  0
  9 10  1  0
  9 13  1  0
 10 11  1  0
 10 15  1  0
 11 12  1  0
 11 16  1  0
 11 17  1  0
 12 18  1  0
 12 19  1  0
 12 20  1  0
M  CHG  2   8  -1  10   1
M  RAD  1   8   2
M  END
>  <reaction>  (13) 
rmg_rxn_16705

>  <mol_properties>  (13) 
{"1": {"label": "*4", "atom_type": "Cd"}, "2": {"label": "*3", "atom_type": "N3d"}, "8": {"label": "*0", "atom_type": "N3s"}, "9": {"label": "*1", "atom_type": "Cs"}, "13": {"label": "*2", "atom_type": "H0"}}

>  <type>  (13) 
unop_9

>  <geom_source>  (13) 
Heuristics

$$$$

     RDKit          3D

 20 18  0  0  0  0  0  0  0  0999 V2000
    3.4774    0.1723   -0.3214 C   0  0  0  0  0  0  0  0  0  0  0  0
    1.9874    0.2199   -0.2022 C   0  0  0  0  0  0  0  0  0  0  0  0
    1.3820   -0.2599    0.7726 N   0  0  0  0  0  0  0  0  0  0  0  0
    3.9101   -0.3248    0.5422 H   0  0  0  0  0  0  0  0  0  0  0  0
    3.8668    1.1864   -0.3965 H   0  0  0  0  0  0  0  0  0  0  0  0
    3.7506   -0.3626   -1.2296 H   0  0  0  0  0  0  0  0  0  0  0  0
    1.4894    0.7149   -1.0494 H   0  0  0  0  0  0  0  0  0  0  0  0
   -1.6189    1.8874   -0.6715 N   0  0  0  0  0  1  0  0  0  0  0  0
   -1.4034    1.3468    0.4068 N   0  0  0  0  0  0  0  0  0  0  0  0
   -1.1572    0.0065    0.6502 C   0  0  0  0  0  3  0  0  0  0  0  0
   -1.5742   -0.9296   -0.4586 C   0  0  0  0  0  0  0  0  0  0  0  0
   -1.1208   -2.3582   -0.1919 C   0  0  0  0  0  0  0  0  0  0  0  0
   -1.3438    1.9334    1.2682 H   0  0  0  0  0  0  0  0  0  0  0  0
    0.1910   -0.1476    0.7383 H   0  0  0  0  0  0  0  0  0  0  0  0
   -1.4427   -0.3010    1.6541 H   0  0  0  0  0  0  0  0  0  0  0  0
   -2.6642   -0.9025   -0.5705 H   0  0  0  0  0  0  0  0  0  0  0  0
   -1.1517   -0.5586   -1.3966 H   0  0  0  0  0  0  0  0  0  0  0  0
   -0.0393   -2.4013   -0.0887 H   0  0  0  0  0  0  0  0  0  0  0  0
   -1.4193   -3.0072   -1.0109 H   0  0  0  0  0  0  0  0  0  0  0  0
   -1.5667   -2.7354    0.7258 H   0  0  0  0  0  0  0  0  0  0  0  0
  1  2  1  0
  1  4  1  0
  1  5  1  0
  1  6  1  0
  2  3  2  3
  2  7  1  0
  3 14  1  0
  8  9  1  0
  9 10  1  0
  9 13  1  0
 10 11  1  0
 10 15  1  0
 11 12  1  0
 11 16  1  0
 11 17  1  0
 12 18  1  0
 12 19  1  0
 12 20  1  0
M  CHG  2   8  -1  10   1
M  RAD  1   8   2
M  END
>  <reaction>  (14) 
rmg_rxn_16705

>  <mol_properties>  (14) 
{"1": {"label": "*4", "atom_type": "Cd"}, "2": {"label": "*3", "atom_type": "N3d"}, "8": {"label": "*0", "atom_type": "N3s"}, "9": {"label": "*1", "atom_type": "Cs"}, "13": {"label": "*2", "atom_type": "H0"}}

>  <type>  (14) 
unop_10

>  <geom_source>  (14) 
Heuristics

$$$$

     RDKit          3D

 20 18  0  0  0  0  0  0  0  0999 V2000
   -2.7081   -0.9419    1.9594 C   0  0  0  0  0  0  0  0  0  0  0  0
   -1.3715   -0.8625    1.3003 C   0  0  0  0  0  0  0  0  0  0  0  0
   -0.4420   -0.1409    1.7605 N   0  0  0  0  0  0  0  0  0  0  0  0
   -3.4908   -0.6274    1.2643 H   0  0  0  0  0  0  0  0  0  0  0  0
   -2.7317   -0.3093    2.8449 H   0  0  0  0  0  0  0  0  0  0  0  0
   -2.9289   -1.9745    2.2416 H   0  0  0  0  0  0  0  0  0  0  0  0
   -1.2522   -1.4702    0.3941 H   0  0  0  0  0  0  0  0  0  0  0  0
    1.3160   -0.8796   -2.1204 N   0  0  0  0  0  1  0  0  0  0  0  0
    1.3160   -0.8796   -0.9208 N   0  0  0  0  0  0  0  0  0  0  0  0
    1.3160    0.3148   -0.0070 C   0  0  0  0  0  3  0  0  0  0  0  0
    1.0593    1.6125   -0.7397 C   0  0  0  0  0  0  0  0  0  0  0  0
   -0.3840    1.7752   -1.1992 C   0  0  0  0  0  0  0  0  0  0  0  0
    1.3353   -1.7635   -0.3658 H   0  0  0  0  0  0  0  0  0  0  0  0
    0.4054    0.0787    0.9086 H   0  0  0  0  0  0  0  0  0  0  0  0
    2.2914    0.3136    0.4867 H   0  0  0  0  0  0  0  0  0  0  0  0
    1.3328    2.4299   -0.0683 H   0  0  0  0  0  0  0  0  0  0  0  0
    1.7289    1.6617   -1.6002 H   0  0  0  0  0  0  0  0  0  0  0  0
   -1.0737    1.7301   -0.3525 H   0  0  0  0  0  0  0  0  0  0  0  0
   -0.6561    0.9932   -1.9080 H   0  0  0  0  0  0  0  0  0  0  0  0
   -0.5259    2.7369   -1.6933 H   0  0  0  0  0  0  0  0  0  0  0  0
  1  2  1  0
  1  4  1  0
  1  5  1  0
  1  6  1  0
  2  3  2  3
  2  7  1  0
  3 14  1  0
  8  9  1  0
  9 10  1  0
  9 13  1  0
 10 11  1  0
 10 15  1  0
 11 12  1  0
 11 16  1  0
 11 17  1  0
 12 18  1  0
 12 19  1  0
 12 20  1  0
M  CHG  2   8  -1  10   1
M  RAD  1   8   2
M  END
>  <reaction>  (15) 
rmg_rxn_16705

>  <mol_properties>  (15) 
{"1": {"label": "*4", "atom_type": "Cd"}, "2": {"label": "*3", "atom_type": "N3d"}, "8": {"label": "*0", "atom_type": "N3s"}, "9": {"label": "*1", "atom_type": "Cs"}, "13": {"label": "*2", "atom_type": "H0"}}

>  <type>  (15) 
unop_11

>  <geom_source>  (15) 
Heuristics

$$$$

     RDKit          3D

 20 18  0  0  0  0  0  0  0  0999 V2000
   -0.9497   -1.2417    3.4699 C   0  0  0  0  0  0  0  0  0  0  0  0
   -0.6067   -1.0983    2.0245 C   0  0  0  0  0  0  0  0  0  0  0  0
   -0.8781   -0.0493    1.3748 N   0  0  0  0  0  0  0  0  0  0  0  0
   -1.6073   -2.1021    3.6182 H   0  0  0  0  0  0  0  0  0  0  0  0
   -1.4408   -0.3409    3.8336 H   0  0  0  0  0  0  0  0  0  0  0  0
   -0.0457   -1.4272    4.0556 H   0  0  0  0  0  0  0  0  0  0  0  0
   -0.1058   -1.9615    1.5677 H   0  0  0  0  0  0  0  0  0  0  0  0
    0.8799   -0.7879   -2.5061 N   0  0  0  0  0  1  0  0  0  0  0  0
    0.8799   -0.7879   -1.3065 N   0  0  0  0  0  0  0  0  0  0  0  0
    0.8799    0.4065   -0.3927 C   0  0  0  0  0  3  0  0  0  0  0  0
    0.6232    1.7042   -1.1253 C   0  0  0  0  0  0  0  0  0  0  0  0
   -0.8202    1.8668   -1.5849 C   0  0  0  0  0  0  0  0  0  0  0  0
    0.8992   -1.6718   -0.7514 H   0  0  0  0  0  0  0  0  0  0  0  0
   -0.0308    0.1704    0.5229 H   0  0  0  0  0  0  0  0  0  0  0  0
    1.8552    0.4052    0.1010 H   0  0  0  0  0  0  0  0  0  0  0  0
    0.8967    2.5215   -0.4540 H   0  0  0  0  0  0  0  0  0  0  0  0
    1.2928    1.7533   -1.9859 H   0  0  0  0  0  0  0  0  0  0  0  0
   -1.5099    1.8218   -0.7382 H   0  0  0  0  0  0  0  0  0  0  0  0
   -1.0922    1.0848   -2.2937 H   0  0  0  0  0  0  0  0  0  0  0  0
   -0.9620    2.8286   -2.0790 H   0  0  0  0  0  0  0  0  0  0  0  0
  1  2  1  0
  1  4  1  0
  1  5  1  0
  1  6  1  0
  2  3  2  3
  2  7  1  0
  3 14  1  0
  8  9  1  0
  9 10  1  0
  9 13  1  0
 10 11  1  0
 10 15  1  0
 11 12  1  0
 11 16  1  0
 11 17  1  0
 12 18  1  0
 12 19  1  0
 12 20  1  0
M  CHG  2   8  -1  10   1
M  RAD  1   8   2
M  END
>  <reaction>  (16) 
rmg_rxn_16705

>  <mol_properties>  (16) 
{"1": {"label": "*4", "atom_type": "Cd"}, "2": {"label": "*3", "atom_type": "N3d"}, "8": {"label": "*0", "atom_type": "N3s"}, "9": {"label": "*1", "atom_type": "Cs"}, "13": {"label": "*2", "atom_type": "H0"}}

>  <type>  (16) 
unop_12

>  <geom_source>  (16) 
Heuristics

$$$$

     RDKit          3D

 20 18  0  0  0  0  0  0  0  0999 V2000
   -1.6720    0.5950    3.2549 C   0  0  0  0  0  0  0  0  0  0  0  0
   -1.1724    0.4487    1.8563 C   0  0  0  0  0  0  0  0  0  0  0  0
   -0.6577   -0.6276    1.4404 N   0  0  0  0  0  0  0  0  0  0  0  0
   -1.1498    1.4124    3.7587 H   0  0  0  0  0  0  0  0  0  0  0  0
   -1.5217   -0.3296    3.8093 H   0  0  0  0  0  0  0  0  0  0  0  0
   -2.7347    0.8505    3.2512 H   0  0  0  0  0  0  0  0  0  0  0  0
   -1.2822    1.3348    1.2179 H   0  0  0  0  0  0  0  0  0  0  0  0
    1.1003   -1.3662   -2.4405 N   0  0  0  0  0  1  0  0  0  0  0  0
    1.1003   -1.3662   -1.2410 N   0  0  0  0  0  0  0  0  0  0  0  0
    1.1003   -0.1718   -0.3272 C   0  0  0  0  0  3  0  0  0  0  0  0
    0.8436    1.1259   -1.0598 C   0  0  0  0  0  0  0  0  0  0  0  0
   -0.5997    1.2885   -1.5193 C   0  0  0  0  0  0  0  0  0  0  0  0
    1.1196   -2.2501   -0.6859 H   0  0  0  0  0  0  0  0  0  0  0  0
    0.1897   -0.4079    0.5885 H   0  0  0  0  0  0  0  0  0  0  0  0
    2.0757   -0.1731    0.1666 H   0  0  0  0  0  0  0  0  0  0  0  0
    1.1171    1.9432   -0.3884 H   0  0  0  0  0  0  0  0  0  0  0  0
    1.5132    1.1750   -1.9203 H   0  0  0  0  0  0  0  0  0  0  0  0
   -1.2894    1.2435   -0.6726 H   0  0  0  0  0  0  0  0  0  0  0  0
   -0.8718    0.5065   -2.2281 H   0  0  0  0  0  0  0  0  0  0  0  0
   -0.7416    2.2503   -2.0134 H   0  0  0  0  0  0  0  0  0  0  0  0
  1  2  1  0
  1  4  1  0
  1  5  1  0
  1  6  1  0
  2  3  2  3
  2  7  1  0
  3 14  1  0
  8  9  1  0
  9 10  1  0
  9 13  1  0
 10 11  1  0
 10 15  1  0
 11 12  1  0
 11 16  1  0
 11 17  1  0
 12 18  1  0
 12 19  1  0
 12 20  1  0
M  CHG  2   8  -1  10   1
M  RAD  1   8   2
M  END
>  <reaction>  (17) 
rmg_rxn_16705

>  <mol_properties>  (17) 
{"1": {"label": "*4", "atom_type": "Cd"}, "2": {"label": "*3", "atom_type": "N3d"}, "8": {"label": "*0", "atom_type": "N3s"}, "9": {"label": "*1", "atom_type": "Cs"}, "13": {"label": "*2", "atom_type": "H0"}}

>  <type>  (17) 
unop_13

>  <geom_source>  (17) 
Heuristics

$$$$

     RDKit          3D

 20 18  0  0  0  0  0  0  0  0999 V2000
   -2.1999   -1.6136    2.3719 C   0  0  0  0  0  0  0  0  0  0  0  0
   -1.1261   -1.1024    1.4703 C   0  0  0  0  0  0  0  0  0  0  0  0
   -0.5720    0.0171    1.6597 N   0  0  0  0  0  0  0  0  0  0  0  0
   -3.1148   -1.7973    1.8028 H   0  0  0  0  0  0  0  0  0  0  0  0
   -2.4022   -0.8955    3.1647 H   0  0  0  0  0  0  0  0  0  0  0  0
   -1.9009   -2.5687    2.8111 H   0  0  0  0  0  0  0  0  0  0  0  0
   -0.8526   -1.7619    0.6365 H   0  0  0  0  0  0  0  0  0  0  0  0
    1.1860   -0.7215   -2.2212 N   0  0  0  0  0  1  0  0  0  0  0  0
    1.1860   -0.7215   -1.0216 N   0  0  0  0  0  0  0  0  0  0  0  0
    1.1860    0.4729   -0.1078 C   0  0  0  0  0  3  0  0  0  0  0  0
    0.9293    1.7706   -0.8404 C   0  0  0  0  0  0  0  0  0  0  0  0
   -0.5141    1.9332   -1.2999 C   0  0  0  0  0  0  0  0  0  0  0  0
    1.2053   -1.6054   -0.4665 H   0  0  0  0  0  0  0  0  0  0  0  0
    0.2753    0.2368    0.8078 H   0  0  0  0  0  0  0  0  0  0  0  0
    2.1613    0.4716    0.3859 H   0  0  0  0  0  0  0  0  0  0  0  0
    1.2028    2.5879   -0.1690 H   0  0  0  0  0  0  0  0  0  0  0  0
    1.5989    1.8197   -1.7010 H   0  0  0  0  0  0  0  0  0  0  0  0
   -1.2038    1.8881   -0.4533 H   0  0  0  0  0  0  0  0  0  0  0  0
   -0.7861    1.1512   -2.0088 H   0  0  0  0  0  0  0  0  0  0  0  0
   -0.6559    2.8950   -1.7941 H   0  0  0  0  0  0  0  0  0  0  0  0
  1  2  1  0
  1  4  1  0
  1  5  1  0
  1  6  1  0
  2  3  2  3
  2  7  1  0
  3 14  1  0
  8  9  1  0
  9 10  1  0
  9 13  1  0
 10 11  1  0
 10 15  1  0
 11 12  1  0
 11 16  1  0
 11 17  1  0
 12 18  1  0
 12 19  1  0
 12 20  1  0
M  CHG  2   8  -1  10   1
M  RAD  1   8   2
M  END
>  <reaction>  (18) 
rmg_rxn_16705

>  <mol_properties>  (18) 
{"1": {"label": "*4", "atom_type": "Cd"}, "2": {"label": "*3", "atom_type": "N3d"}, "8": {"label": "*0", "atom_type": "N3s"}, "9": {"label": "*1", "atom_type": "Cs"}, "13": {"label": "*2", "atom_type": "H0"}}

>  <type>  (18) 
unop_14

>  <geom_source>  (18) 
Heuristics

$$$$

     RDKit          3D

 20 18  0  0  0  0  0  0  0  0999 V2000
   -1.4877   -1.7175    2.9731 C   0  0  0  0  0  0  0  0  0  0  0  0
   -0.8566   -1.1897    1.7280 C   0  0  0  0  0  0  0  0  0  0  0  0
   -0.7420    0.0498    1.5112 N   0  0  0  0  0  0  0  0  0  0  0  0
   -2.3483   -2.3435    2.7239 H   0  0  0  0  0  0  0  0  0  0  0  0
   -1.8074   -0.8967    3.6128 H   0  0  0  0  0  0  0  0  0  0  0  0
   -0.7804   -2.3499    3.5158 H   0  0  0  0  0  0  0  0  0  0  0  0
   -0.5011   -1.9475    1.0180 H   0  0  0  0  0  0  0  0  0  0  0  0
    1.0159   -0.6889   -2.3697 N   0  0  0  0  0  1  0  0  0  0  0  0
    1.0159   -0.6889   -1.1701 N   0  0  0  0  0  0  0  0  0  0  0  0
    1.0159    0.5056   -0.2563 C   0  0  0  0  0  3  0  0  0  0  0  0
    0.7593    1.8032   -0.9889 C   0  0  0  0  0  0  0  0  0  0  0  0
   -0.6841    1.9659   -1.4484 C   0  0  0  0  0  0  0  0  0  0  0  0
    1.0353   -1.5728   -0.6150 H   0  0  0  0  0  0  0  0  0  0  0  0
    0.1053    0.2695    0.6593 H   0  0  0  0  0  0  0  0  0  0  0  0
    1.9913    0.5043    0.2374 H   0  0  0  0  0  0  0  0  0  0  0  0
    1.0328    2.6206   -0.3175 H   0  0  0  0  0  0  0  0  0  0  0  0
    1.4288    1.8524   -1.8495 H   0  0  0  0  0  0  0  0  0  0  0  0
   -1.3738    1.9208   -0.6018 H   0  0  0  0  0  0  0  0  0  0  0  0
   -0.9561    1.1839   -2.1573 H   0  0  0  0  0  0  0  0  0  0  0  0
   -0.8260    2.9276   -1.9426 H   0  0  0  0  0  0  0  0  0  0  0  0
  1  2  1  0
  1  4  1  0
  1  5  1  0
  1  6  1  0
  2  3  2  3
  2  7  1  0
  3 14  1  0
  8  9  1  0
  9 10  1  0
  9 13  1  0
 10 11  1  0
 10 15  1  0
 11 12  1  0
 11 16  1  0
 11 17  1  0
 12 18  1  0
 12 19  1  0
 12 20  1  0
M  CHG  2   8  -1  10   1
M  RAD  1   8   2
M  END
>  <reaction>  (19) 
rmg_rxn_16705

>  <mol_properties>  (19) 
{"1": {"label": "*4", "atom_type": "Cd"}, "2": {"label": "*3", "atom_type": "N3d"}, "8": {"label": "*0", "atom_type": "N3s"}, "9": {"label": "*1", "atom_type": "Cs"}, "13": {"label": "*2", "atom_type": "H0"}}

>  <type>  (19) 
unop_15

>  <geom_source>  (19) 
gaussian_log

$$$$
