
     RDKit          3D

  9  8  0  0  0  0  0  0  0  0999 V2000
   -1.0434   -0.0834    0.0221 C   0  0  0  0  0  0  0  0  0  0  0  0
    0.4680   -0.2131    0.0785 C   0  0  0  0  0  0  0  0  0  0  0  0
    0.9450   -1.3136   -0.7058 N   0  0  0  0  0  2  0  0  0  0  0  0
   -1.5170   -0.9919    0.3960 H   0  0  0  0  0  0  0  0  0  0  0  0
   -1.3864    0.7592    0.6249 H   0  0  0  0  0  0  0  0  0  0  0  0
   -1.3736    0.0696   -1.0061 H   0  0  0  0  0  0  0  0  0  0  0  0
    0.8045   -0.3309    1.1214 H   0  0  0  0  0  0  0  0  0  0  0  0
    0.9463    0.7186   -0.2648 H   0  0  0  0  0  0  0  0  0  0  0  0
    1.9638   -1.3321   -0.6157 H   0  0  0  0  0  0  0  0  0  0  0  0
  1  2  1  0
  1  4  1  0
  1  5  1  0
  1  6  1  0
  2  3  1  0
  2  7  1  0
  2  8  1  0
  3  9  1  0
M  RAD  1   3   2
M  END
>  <reaction>  (1) 
rmg_rxn_229

>  <mol_properties>  (1) 
{"2": {"label": "donator", "atom_type": "N3s"}, "8": {"label": "d_hydrogen", "atom_type": "H0"}}

>  <type>  (1) 
r1h

$$$$

     RDKit          3D

 17 16  0  0  0  0  0  0  0  0999 V2000
    2.3128   -0.1525    1.1777 C   0  0  0  0  0  3  0  0  0  0  0  0
    1.7469    0.7266    0.1254 C   0  0  0  0  0  0  0  0  0  0  0  0
    1.6374    2.1830    0.5408 C   0  0  0  0  0  0  0  0  0  0  0  0
    2.9245    2.6874    0.7877 O   0  0  0  0  0  0  0  0  0  0  0  0
    2.9227    4.0197    1.2361 C   0  0  0  0  0  0  0  0  0  0  0  0
    4.3491    4.4603    1.4693 C   0  0  0  0  0  0  0  0  0  0  0  0
    2.1393   -1.2196    1.1557 H   0  0  0  0  0  0  0  0  0  0  0  0
    3.0313    0.2400    1.8838 H   0  0  0  0  0  0  0  0  0  0  0  0
    0.7555    0.3746   -0.1764 H   0  0  0  0  0  0  0  0  0  0  0  0
    2.3678    0.6841   -0.7826 H   0  0  0  0  0  0  0  0  0  0  0  0
    1.0170    2.2718    1.4449 H   0  0  0  0  0  0  0  0  0  0  0  0
    1.1499    2.7653   -0.2546 H   0  0  0  0  0  0  0  0  0  0  0  0
    2.4379    4.6655    0.4891 H   0  0  0  0  0  0  0  0  0  0  0  0
    2.3377    4.1015    2.1638 H   0  0  0  0  0  0  0  0  0  0  0  0
    4.9261    4.3920    0.5465 H   0  0  0  0  0  0  0  0  0  0  0  0
    4.3728    5.4939    1.8180 H   0  0  0  0  0  0  0  0  0  0  0  0
    4.8260    3.8299    2.2206 H   0  0  0  0  0  0  0  0  0  0  0  0
  1  2  1  0
  1  7  1  0
  1  8  1  0
  2  3  1  0
  2  9  1  0
  2 10  1  0
  3  4  1  0
  3 11  1  0
  3 12  1  0
  4  5  1  0
  5  6  1  0
  5 13  1  0
  5 14  1  0
  6 15  1  0
  6 16  1  0
  6 17  1  0
M  RAD  1   1   2
M  END
>  <reaction>  (2) 
rmg_rxn_229

>  <mol_properties>  (2) 
{"0": {"label": "acceptor", "atom_type": "Cs"}}

>  <type>  (2) 
r2

$$$$

     RDKit          3D

 18 17  0  0  0  0  0  0  0  0999 V2000
    2.2026   -0.7213   -0.2612 C   0  0  0  0  0  0  0  0  0  0  0  0
    1.5384    0.2638    0.6915 C   0  0  0  0  0  0  0  0  0  0  0  0
    2.2584    1.5946    0.7694 C   0  0  0  0  0  0  0  0  0  0  0  0
    2.2212    2.2185   -0.4893 O   0  0  0  0  0  0  0  0  0  0  0  0
    2.8988    3.4488   -0.5204 C   0  0  0  0  0  0  0  0  0  0  0  0
    2.7981    4.0296   -1.9118 C   0  0  0  0  0  0  0  0  0  0  0  0
    3.2294   -0.9309    0.0486 H   0  0  0  0  0  0  0  0  0  0  0  0
    2.2338   -0.3181   -1.2734 H   0  0  0  0  0  0  0  0  0  0  0  0
    1.6610   -1.6680   -0.2875 H   0  0  0  0  0  0  0  0  0  0  0  0
    1.4990   -0.1566    1.7002 H   0  0  0  0  0  0  0  0  0  0  0  0
    0.5055    0.4455    0.3835 H   0  0  0  0  0  0  0  0  0  0  0  0
    3.3038    1.4410    1.0808 H   0  0  0  0  0  0  0  0  0  0  0  0
    1.7844    2.2410    1.5226 H   0  0  0  0  0  0  0  0  0  0  0  0
    2.4596    4.1376    0.2164 H   0  0  0  0  0  0  0  0  0  0  0  0
    3.9524    3.3035   -0.2397 H   0  0  0  0  0  0  0  0  0  0  0  0
    1.7543    4.1869   -2.1856 H   0  0  0  0  0  0  0  0  0  0  0  0
    3.2472    3.3545   -2.6411 H   0  0  0  0  0  0  0  0  0  0  0  0
    3.3178    4.9878   -1.9600 H   0  0  0  0  0  0  0  0  0  0  0  0
  1  2  1  0
  1  7  1  0
  1  8  1  0
  1  9  1  0
  2  3  1  0
  2 10  1  0
  2 11  1  0
  3  4  1  0
  3 12  1  0
  3 13  1  0
  4  5  1  0
  5  6  1  0
  5 14  1  0
  5 15  1  0
  6 16  1  0
  6 17  1  0
  6 18  1  0
M  END
>  <reaction>  (3) 
rmg_rxn_229

>  <mol_properties>  (3) 
{"0": {"label": "a_hydrogen", "atom_type": "H0"}, "1": {"label": "acceptor", "atom_type": "Cs"}}

>  <type>  (3) 
r2h

$$$$

     RDKit          3D

 26 24  0  0  0  0  0  0  0  0999 V2000
    0.0983   -1.2627   -2.9810 C   0  0  0  0  0  0  0  0  0  0  0  0
    0.6093   -1.3693   -1.5516 C   0  0  0  0  0  0  0  0  0  0  0  0
    1.8227   -0.6385   -1.3605 N   0  0  0  0  0  2  0  0  0  0  0  0
    0.8445   -1.6301   -3.6863 H   0  0  0  0  0  0  0  0  0  0  0  0
   -0.8158   -1.8457   -3.1079 H   0  0  0  0  0  0  0  0  0  0  0  0
   -0.1197   -0.2235   -3.2314 H   0  0  0  0  0  0  0  0  0  0  0  0
    0.7951   -2.4241   -1.2905 H   0  0  0  0  0  0  0  0  0  0  0  0
   -0.1533   -1.0308   -0.8342 H   0  0  0  0  0  0  0  0  0  0  0  0
    2.0034   -0.6463   -0.1804 H   0  0  0  0  0  0  0  0  0  0  0  0
    1.9482   -0.6579    1.2424 C   0  0  0  0  0  3  0  0  0  0  0  0
    1.6307    0.7556    1.6447 C   0  0  0  0  0  0  0  0  0  0  0  0
    0.4454    1.3461    0.9020 C   0  0  0  0  0  0  0  0  0  0  0  0
   -0.6824    0.5280    1.0937 O   0  0  0  0  0  0  0  0  0  0  0  0
   -1.8099    0.9657    0.3757 C   0  0  0  0  0  0  0  0  0  0  0  0
   -2.9376   -0.0165    0.5897 C   0  0  0  0  0  0  0  0  0  0  0  0
    2.9355   -1.0191    1.5185 H   0  0  0  0  0  0  0  0  0  0  0  0
    1.1574   -1.3799    1.4280 H   0  0  0  0  0  0  0  0  0  0  0  0
    2.4927    1.4031    1.4672 H   0  0  0  0  0  0  0  0  0  0  0  0
    1.4243    0.7933    2.7217 H   0  0  0  0  0  0  0  0  0  0  0  0
    0.6769    1.4174   -0.1709 H   0  0  0  0  0  0  0  0  0  0  0  0
    0.2410    2.3633    1.2645 H   0  0  0  0  0  0  0  0  0  0  0  0
   -2.1018    1.9709    0.7119 H   0  0  0  0  0  0  0  0  0  0  0  0
   -1.5635    1.0411   -0.6940 H   0  0  0  0  0  0  0  0  0  0  0  0
   -3.1842   -0.0915    1.6492 H   0  0  0  0  0  0  0  0  0  0  0  0
   -3.8277    0.3057    0.0475 H   0  0  0  0  0  0  0  0  0  0  0  0
   -2.6547   -1.0077    0.2319 H   0  0  0  0  0  0  0  0  0  0  0  0
  1  2  1  0
  1  4  1  0
  1  5  1  0
  1  6  1  0
  2  3  1  0
  2  7  1  0
  2  8  1  0
  3  9  1  0
 10 11  1  0
 10 16  1  0
 10 17  1  0
 11 12  1  0
 11 18  1  0
 11 19  1  0
 12 13  1  0
 12 20  1  0
 12 21  1  0
 13 14  1  0
 14 15  1  0
 14 22  1  0
 14 23  1  0
 15 24  1  0
 15 25  1  0
 15 26  1  0
M  RAD  2   3   2  10   2
M  END
>  <reaction>  (4) 
rmg_rxn_229

>  <mol_properties>  (4) 
{"1": {"label": "*0", "atom_type": "Cs"}, "2": {"label": "*1", "atom_type": "N3s"}, "8": {"label": "*2", "atom_type": "H0"}, "9": {"label": "*3", "atom_type": "Cs"}, "10": {"label": "*4", "atom_type": "Cs"}}

>  <type>  (4) 
ts

$$$$

     RDKit          3D

 26 24  0  0  0  0  0  0  0  0999 V2000
   -0.6668   -2.4085   -3.0697 C   0  0  0  0  0  0  0  0  0  0  0  0
   -0.6668   -2.4085   -1.5517 C   0  0  0  0  0  0  0  0  0  0  0  0
   -0.6668   -1.0809   -1.0119 N   0  0  0  0  0  2  0  0  0  0  0  0
    0.2154   -1.8920   -3.4497 H   0  0  0  0  0  0  0  0  0  0  0  0
   -0.6668   -3.4274   -3.4608 H   0  0  0  0  0  0  0  0  0  0  0  0
   -1.5491   -1.8920   -3.4497 H   0  0  0  0  0  0  0  0  0  0  0  0
    0.2054   -2.9622   -1.1678 H   0  0  0  0  0  0  0  0  0  0  0  0
   -1.5391   -2.9622   -1.1678 H   0  0  0  0  0  0  0  0  0  0  0  0
   -0.6668   -1.1844    0.2113 H   0  0  0  0  0  0  0  0  0  0  0  0
   -0.6668   -1.2950    1.5181 C   0  0  0  0  0  3  0  0  0  0  0  0
    0.5654   -0.6320    2.1191 C   0  0  0  0  0  0  0  0  0  0  0  0
    1.2109    0.3769    1.1914 C   0  0  0  0  0  0  0  0  0  0  0  0
    0.3104    1.4278    0.9469 O   0  0  0  0  0  0  0  0  0  0  0  0
    0.8136    2.3974    0.0638 C   0  0  0  0  0  0  0  0  0  0  0  0
   -0.2289    3.4742   -0.1290 C   0  0  0  0  0  0  0  0  0  0  0  0
   -1.1010   -2.0177    2.2105 H   0  0  0  0  0  0  0  0  0  0  0  0
   -1.4276   -0.5518    1.2794 H   0  0  0  0  0  0  0  0  0  0  0  0
    1.3155   -1.3876    2.3683 H   0  0  0  0  0  0  0  0  0  0  0  0
    0.3024   -0.1270    3.0521 H   0  0  0  0  0  0  0  0  0  0  0  0
    1.4891   -0.1068    0.2416 H   0  0  0  0  0  0  0  0  0  0  0  0
    2.1345    0.7712    1.6402 H   0  0  0  0  0  0  0  0  0  0  0  0
    1.7412    2.8285    0.4689 H   0  0  0  0  0  0  0  0  0  0  0  0
    1.0675    1.9311   -0.8996 H   0  0  0  0  0  0  0  0  0  0  0  0
   -0.4711    3.9465    0.8236 H   0  0  0  0  0  0  0  0  0  0  0  0
    0.1407    4.2404   -0.8123 H   0  0  0  0  0  0  0  0  0  0  0  0
   -1.1435    3.0504   -0.5452 H   0  0  0  0  0  0  0  0  0  0  0  0
  1  2  1  0
  1  4  1  0
  1  5  1  0
  1  6  1  0
  2  3  1  0
  2  7  1  0
  2  8  1  0
  3  9  1  0
 10 11  1  0
 10 16  1  0
 10 17  1  0
 11 12  1  0
 11 18  1  0
 11 19  1  0
 12 13  1  0
 12 20  1  0
 12 21  1  0
 13 14  1  0
 14 15  1  0
 14 22  1  0
 14 23  1  0
 15 24  1  0
 15 25  1  0
 15 26  1  0
M  RAD  2   3   2  10   2
M  END
>  <reaction>  (5) 
rmg_rxn_229

>  <mol_properties>  (5) 
{"1": {"label": "*0", "atom_type": "Cs"}, "2": {"label": "*1", "atom_type": "N3s"}, "8": {"label": "*2", "atom_type": "H0"}, "9": {"label": "*3", "atom_type": "Cs"}, "10": {"label": "*4", "atom_type": "Cs"}}

>  <type>  (5) 
unop_1

>  <geom_source>  (5) 
Heuristics

$$$$

     RDKit          3D

 26 24  0  0  0  0  0  0  0  0999 V2000
   -1.6575   -0.4959   -3.2989 C   0  0  0  0  0  0  0  0  0  0  0  0
   -1.6575   -0.4959   -1.7809 C   0  0  0  0  0  0  0  0  0  0  0  0
   -1.6575    0.8316   -1.2411 N   0  0  0  0  0  2  0  0  0  0  0  0
   -0.7753    0.0206   -3.6789 H   0  0  0  0  0  0  0  0  0  0  0  0
   -1.6575   -1.5148   -3.6899 H   0  0  0  0  0  0  0  0  0  0  0  0
   -2.5397    0.0206   -3.6789 H   0  0  0  0  0  0  0  0  0  0  0  0
   -0.7853   -1.0496   -1.3970 H   0  0  0  0  0  0  0  0  0  0  0  0
   -2.5297   -1.0496   -1.3970 H   0  0  0  0  0  0  0  0  0  0  0  0
   -1.6575    0.7281   -0.0179 H   0  0  0  0  0  0  0  0  0  0  0  0
   -1.6575    0.6175    1.2889 C   0  0  0  0  0  3  0  0  0  0  0  0
   -0.9461   -0.6561    1.7259 C   0  0  0  0  0  0  0  0  0  0  0  0
    0.3201   -0.9305    0.9406 C   0  0  0  0  0  0  0  0  0  0  0  0
    1.2436    0.1037    1.1699 O   0  0  0  0  0  0  0  0  0  0  0  0
    2.4404   -0.0498    0.4504 C   0  0  0  0  0  0  0  0  0  0  0  0
    3.3561    1.1097    0.7677 C   0  0  0  0  0  0  0  0  0  0  0  0
   -2.5657    0.7796    1.8712 H   0  0  0  0  0  0  0  0  0  0  0  0
   -1.0103    1.4850    1.4179 H   0  0  0  0  0  0  0  0  0  0  0  0
   -1.6091   -1.5174    1.6064 H   0  0  0  0  0  0  0  0  0  0  0  0
   -0.6906   -0.5980    2.7871 H   0  0  0  0  0  0  0  0  0  0  0  0
    0.0909   -0.9966   -0.1349 H   0  0  0  0  0  0  0  0  0  0  0  0
    0.7544   -1.8949    1.2422 H   0  0  0  0  0  0  0  0  0  0  0  0
    2.9199   -1.0029    0.7186 H   0  0  0  0  0  0  0  0  0  0  0  0
    2.2270   -0.0872   -0.6281 H   0  0  0  0  0  0  0  0  0  0  0  0
    3.5794    1.1394    1.8347 H   0  0  0  0  0  0  0  0  0  0  0  0
    4.2944    1.0115    0.2194 H   0  0  0  0  0  0  0  0  0  0  0  0
    2.8880    2.0540    0.4877 H   0  0  0  0  0  0  0  0  0  0  0  0
  1  2  1  0
  1  4  1  0
  1  5  1  0
  1  6  1  0
  2  3  1  0
  2  7  1  0
  2  8  1  0
  3  9  1  0
 10 11  1  0
 10 16  1  0
 10 17  1  0
 11 12  1  0
 11 18  1  0
 11 19  1  0
 12 13  1  0
 12 20  1  0
 12 21  1  0
 13 14  1  0
 14 15  1  0
 14 22  1  0
 14 23  1  0
 15 24  1  0
 15 25  1  0
 15 26  1  0
M  RAD  2   3   2  10   2
M  END
>  <reaction>  (6) 
rmg_rxn_229

>  <mol_properties>  (6) 
{"1": {"label": "*0", "atom_type": "Cs"}, "2": {"label": "*1", "atom_type": "N3s"}, "8": {"label": "*2", "atom_type": "H0"}, "9": {"label": "*3", "atom_type": "Cs"}, "10": {"label": "*4", "atom_type": "Cs"}}

>  <type>  (6) 
unop_2

>  <geom_source>  (6) 
Heuristics

$$$$

     RDKit          3D

 26 24  0  0  0  0  0  0  0  0999 V2000
    0.3434   -2.5460   -3.2683 C   0  0  0  0  0  0  0  0  0  0  0  0
    0.3434   -2.5460   -1.7503 C   0  0  0  0  0  0  0  0  0  0  0  0
    0.3434   -1.2184   -1.2105 N   0  0  0  0  0  2  0  0  0  0  0  0
    1.2256   -2.0295   -3.6484 H   0  0  0  0  0  0  0  0  0  0  0  0
    0.3434   -3.5649   -3.6594 H   0  0  0  0  0  0  0  0  0  0  0  0
   -0.5389   -2.0295   -3.6484 H   0  0  0  0  0  0  0  0  0  0  0  0
    1.2156   -3.0997   -1.3664 H   0  0  0  0  0  0  0  0  0  0  0  0
   -0.5289   -3.0997   -1.3664 H   0  0  0  0  0  0  0  0  0  0  0  0
    0.3434   -1.3220    0.0127 H   0  0  0  0  0  0  0  0  0  0  0  0
    0.3434   -1.4326    1.3194 C   0  0  0  0  0  3  0  0  0  0  0  0
    1.0548   -0.2505    1.9644 C   0  0  0  0  0  0  0  0  0  0  0  0
    0.9216    1.0314    1.1680 C   0  0  0  0  0  0  0  0  0  0  0  0
   -0.4320    1.4046    1.1091 O   0  0  0  0  0  0  0  0  0  0  0  0
   -0.6554    2.5694    0.3562 C   0  0  0  0  0  0  0  0  0  0  0  0
   -2.1347    2.8783    0.3573 C   0  0  0  0  0  0  0  0  0  0  0  0
    0.4651   -2.3375    1.9166 H   0  0  0  0  0  0  0  0  0  0  0  0
   -0.7232   -1.2323    1.2172 H   0  0  0  0  0  0  0  0  0  0  0  0
    2.1207   -0.4680    2.0757 H   0  0  0  0  0  0  0  0  0  0  0  0
    0.6602   -0.0777    2.9690 H   0  0  0  0  0  0  0  0  0  0  0  0
    1.3150    0.8861    0.1494 H   0  0  0  0  0  0  0  0  0  0  0  0
    1.5119    1.8334    1.6350 H   0  0  0  0  0  0  0  0  0  0  0  0
   -0.0873    3.4081    0.7852 H   0  0  0  0  0  0  0  0  0  0  0  0
   -0.2933    2.4259   -0.6725 H   0  0  0  0  0  0  0  0  0  0  0  0
   -2.4917    3.0344    1.3758 H   0  0  0  0  0  0  0  0  0  0  0  0
   -2.3327    3.7814   -0.2222 H   0  0  0  0  0  0  0  0  0  0  0  0
   -2.6975    2.0539   -0.0821 H   0  0  0  0  0  0  0  0  0  0  0  0
  1  2  1  0
  1  4  1  0
  1  5  1  0
  1  6  1  0
  2  3  1  0
  2  7  1  0
  2  8  1  0
  3  9  1  0
 10 11  1  0
 10 16  1  0
 10 17  1  0
 11 12  1  0
 11 18  1  0
 11 19  1  0
 12 13  1  0
 12 20  1  0
 12 21  1  0
 13 14  1  0
 14 15  1  0
 14 22  1  0
 14 23  1  0
 15 24  1  0
 15 25  1  0
 15 26  1  0
M  RAD  2   3   2  10   2
M  END
>  <reaction>  (7) 
rmg_rxn_229

>  <mol_properties>  (7) 
{"1": {"label": "*0", "atom_type": "Cs"}, "2": {"label": "*1", "atom_type": "N3s"}, "8": {"label": "*2", "atom_type": "H0"}, "9": {"label": "*3", "atom_type": "Cs"}, "10": {"label": "*4", "atom_type": "Cs"}}

>  <type>  (7) 
unop_3

>  <geom_source>  (7) 
Heuristics

$$$$

     RDKit          3D

 26 24  0  0  0  0  0  0  0  0999 V2000
    0.0653    0.6188   -4.2647 C   0  0  0  0  0  0  0  0  0  0  0  0
    0.0653    0.6188   -2.7467 C   0  0  0  0  0  0  0  0  0  0  0  0
    0.0653    1.9464   -2.2069 N   0  0  0  0  0  2  0  0  0  0  0  0
    0.9475    1.1353   -4.6447 H   0  0  0  0  0  0  0  0  0  0  0  0
    0.0653   -0.4000   -4.6557 H   0  0  0  0  0  0  0  0  0  0  0  0
   -0.8169    1.1353   -4.6447 H   0  0  0  0  0  0  0  0  0  0  0  0
    0.9375    0.0651   -2.3628 H   0  0  0  0  0  0  0  0  0  0  0  0
   -0.8069    0.0651   -2.3628 H   0  0  0  0  0  0  0  0  0  0  0  0
    0.0653    1.8429   -0.9837 H   0  0  0  0  0  0  0  0  0  0  0  0
    0.0653    1.7323    0.3231 C   0  0  0  0  0  3  0  0  0  0  0  0
   -1.1669    0.9776    0.8041 C   0  0  0  0  0  0  0  0  0  0  0  0
   -0.9417   -0.5158    0.9233 C   0  0  0  0  0  0  0  0  0  0  0  0
    0.0429   -0.7622    1.8954 O   0  0  0  0  0  0  0  0  0  0  0  0
    0.3437   -2.1258    2.0491 C   0  0  0  0  0  0  0  0  0  0  0  0
    1.4081   -2.2770    3.1111 C   0  0  0  0  0  0  0  0  0  0  0  0
   -0.1352    2.8018    0.2442 H   0  0  0  0  0  0  0  0  0  0  0  0
    0.8978    1.5913    1.0124 H   0  0  0  0  0  0  0  0  0  0  0  0
   -1.9997    1.1379    0.1137 H   0  0  0  0  0  0  0  0  0  0  0  0
   -1.4846    1.3596    1.7777 H   0  0  0  0  0  0  0  0  0  0  0  0
   -0.6222   -0.9285   -0.0467 H   0  0  0  0  0  0  0  0  0  0  0  0
   -1.8781   -1.0216    1.2013 H   0  0  0  0  0  0  0  0  0  0  0  0
   -0.5632   -2.6805    2.3321 H   0  0  0  0  0  0  0  0  0  0  0  0
    0.6928   -2.5426    1.0928 H   0  0  0  0  0  0  0  0  0  0  0  0
    1.0577   -1.8764    4.0630 H   0  0  0  0  0  0  0  0  0  0  0  0
    1.6581   -3.3301    3.2486 H   0  0  0  0  0  0  0  0  0  0  0  0
    2.3131   -1.7403    2.8243 H   0  0  0  0  0  0  0  0  0  0  0  0
  1  2  1  0
  1  4  1  0
  1  5  1  0
  1  6  1  0
  2  3  1  0
  2  7  1  0
  2  8  1  0
  3  9  1  0
 10 11  1  0
 10 16  1  0
 10 17  1  0
 11 12  1  0
 11 18  1  0
 11 19  1  0
 12 13  1  0
 12 20  1  0
 12 21  1  0
 13 14  1  0
 14 15  1  0
 14 22  1  0
 14 23  1  0
 15 24  1  0
 15 25  1  0
 15 26  1  0
M  RAD  2   3   2  10   2
M  END
>  <reaction>  (8) 
rmg_rxn_229

>  <mol_properties>  (8) 
{"1": {"label": "*0", "atom_type": "Cs"}, "2": {"label": "*1", "atom_type": "N3s"}, "8": {"label": "*2", "atom_type": "H0"}, "9": {"label": "*3", "atom_type": "Cs"}, "10": {"label": "*4", "atom_type": "Cs"}}

>  <type>  (8) 
unop_4

>  <geom_source>  (8) 
Heuristics

$$$$

     RDKit          3D

 26 24  0  0  0  0  0  0  0  0999 V2000
    1.3397   -1.8835   -3.8001 C   0  0  0  0  0  0  0  0  0  0  0  0
    1.3397   -1.8835   -2.2821 C   0  0  0  0  0  0  0  0  0  0  0  0
    1.3397   -0.5560   -1.7423 N   0  0  0  0  0  2  0  0  0  0  0  0
    2.2220   -1.3671   -4.1801 H   0  0  0  0  0  0  0  0  0  0  0  0
    1.3397   -2.9024   -4.1911 H   0  0  0  0  0  0  0  0  0  0  0  0
    0.4575   -1.3671   -4.1801 H   0  0  0  0  0  0  0  0  0  0  0  0
    2.2120   -2.4372   -1.8982 H   0  0  0  0  0  0  0  0  0  0  0  0
    0.4675   -2.4372   -1.8982 H   0  0  0  0  0  0  0  0  0  0  0  0
    1.3397   -0.6595   -0.5191 H   0  0  0  0  0  0  0  0  0  0  0  0
    1.3397   -0.7701    0.7877 C   0  0  0  0  0  3  0  0  0  0  0  0
    1.3397    0.6019    1.4487 C   0  0  0  0  0  0  0  0  0  0  0  0
    0.1363    1.4429    1.0750 C   0  0  0  0  0  0  0  0  0  0  0  0
   -1.0328    0.8133    1.5350 O   0  0  0  0  0  0  0  0  0  0  0  0
   -2.2071    1.5082    1.2006 C   0  0  0  0  0  0  0  0  0  0  0  0
   -3.3973    0.7484    1.7389 C   0  0  0  0  0  0  0  0  0  0  0  0
    2.2218   -1.3443    1.0749 H   0  0  0  0  0  0  0  0  0  0  0  0
    0.4548   -1.3375    1.0758 H   0  0  0  0  0  0  0  0  0  0  0  0
    2.2386    1.1563    1.1649 H   0  0  0  0  0  0  0  0  0  0  0  0
    1.3640    0.4945    2.5362 H   0  0  0  0  0  0  0  0  0  0  0  0
    0.0885    1.5696   -0.0182 H   0  0  0  0  0  0  0  0  0  0  0  0
    0.2206    2.4466    1.5170 H   0  0  0  0  0  0  0  0  0  0  0  0
   -2.1757    2.5233    1.6236 H   0  0  0  0  0  0  0  0  0  0  0  0
   -2.2811    1.6150    0.1083 H   0  0  0  0  0  0  0  0  0  0  0  0
   -3.3317    0.6540    2.8234 H   0  0  0  0  0  0  0  0  0  0  0  0
   -4.3227    1.2707    1.4913 H   0  0  0  0  0  0  0  0  0  0  0  0
   -3.4382   -0.2527    1.3083 H   0  0  0  0  0  0  0  0  0  0  0  0
  1  2  1  0
  1  4  1  0
  1  5  1  0
  1  6  1  0
  2  3  1  0
  2  7  1  0
  2  8  1  0
  3  9  1  0
 10 11  1  0
 10 16  1  0
 10 17  1  0
 11 12  1  0
 11 18  1  0
 11 19  1  0
 12 13  1  0
 12 20  1  0
 12 21  1  0
 13 14  1  0
 14 15  1  0
 14 22  1  0
 14 23  1  0
 15 24  1  0
 15 25  1  0
 15 26  1  0
M  RAD  2   3   2  10   2
M  END
>  <reaction>  (9) 
rmg_rxn_229

>  <mol_properties>  (9) 
{"1": {"label": "*0", "atom_type": "Cs"}, "2": {"label": "*1", "atom_type": "N3s"}, "8": {"label": "*2", "atom_type": "H0"}, "9": {"label": "*3", "atom_type": "Cs"}, "10": {"label": "*4", "atom_type": "Cs"}}

>  <type>  (9) 
unop_5

>  <geom_source>  (9) 
Heuristics

$$$$

     RDKit          3D

 26 24  0  0  0  0  0  0  0  0999 V2000
    0.7156    0.3188   -4.4333 C   0  0  0  0  0  0  0  0  0  0  0  0
    0.7156    0.3188   -2.9153 C   0  0  0  0  0  0  0  0  0  0  0  0
    0.7156    1.6464   -2.3755 N   0  0  0  0  0  2  0  0  0  0  0  0
    1.5978    0.8353   -4.8133 H   0  0  0  0  0  0  0  0  0  0  0  0
    0.7156   -0.7001   -4.8243 H   0  0  0  0  0  0  0  0  0  0  0  0
   -0.1666    0.8353   -4.8133 H   0  0  0  0  0  0  0  0  0  0  0  0
    1.5878   -0.2349   -2.5314 H   0  0  0  0  0  0  0  0  0  0  0  0
   -0.1566   -0.2349   -2.5314 H   0  0  0  0  0  0  0  0  0  0  0  0
    0.7156    1.5428   -1.1523 H   0  0  0  0  0  0  0  0  0  0  0  0
    0.7156    1.4322    0.1545 C   0  0  0  0  0  3  0  0  0  0  0  0
   -0.7072    1.3864    0.6955 C   0  0  0  0  0  0  0  0  0  0  0  0
   -1.1862   -0.0197    0.9932 C   0  0  0  0  0  0  0  0  0  0  0  0
   -0.3892   -0.5782    2.0071 O   0  0  0  0  0  0  0  0  0  0  0  0
   -0.7403   -1.9006    2.3255 C   0  0  0  0  0  0  0  0  0  0  0  0
    0.1742   -2.4016    3.4192 C   0  0  0  0  0  0  0  0  0  0  0  0
    1.0239    2.4579   -0.0531 H   0  0  0  0  0  0  0  0  0  0  0  0
    1.4155    1.0044    0.8722 H   0  0  0  0  0  0  0  0  0  0  0  0
   -1.3985    1.8314   -0.0257 H   0  0  0  0  0  0  0  0  0  0  0  0
   -0.7798    1.9791    1.6110 H   0  0  0  0  0  0  0  0  0  0  0  0
   -1.1259   -0.6398    0.0848 H   0  0  0  0  0  0  0  0  0  0  0  0
   -2.2395   -0.0047    1.3095 H   0  0  0  0  0  0  0  0  0  0  0  0
   -1.7898   -1.9417    2.6530 H   0  0  0  0  0  0  0  0  0  0  0  0
   -0.6552   -2.5364    1.4319 H   0  0  0  0  0  0  0  0  0  0  0  0
    0.0802   -1.7801    4.3104 H   0  0  0  0  0  0  0  0  0  0  0  0
   -0.0806   -3.4290    3.6841 H   0  0  0  0  0  0  0  0  0  0  0  0
    1.2135   -2.3760    3.0899 H   0  0  0  0  0  0  0  0  0  0  0  0
  1  2  1  0
  1  4  1  0
  1  5  1  0
  1  6  1  0
  2  3  1  0
  2  7  1  0
  2  8  1  0
  3  9  1  0
 10 11  1  0
 10 16  1  0
 10 17  1  0
 11 12  1  0
 11 18  1  0
 11 19  1  0
 12 13  1  0
 12 20  1  0
 12 21  1  0
 13 14  1  0
 14 15  1  0
 14 22  1  0
 14 23  1  0
 15 24  1  0
 15 25  1  0
 15 26  1  0
M  RAD  2   3   2  10   2
M  END
>  <reaction>  (10) 
rmg_rxn_229

>  <mol_properties>  (10) 
{"1": {"label": "*0", "atom_type": "Cs"}, "2": {"label": "*1", "atom_type": "N3s"}, "8": {"label": "*2", "atom_type": "H0"}, "9": {"label": "*3", "atom_type": "Cs"}, "10": {"label": "*4", "atom_type": "Cs"}}

>  <type>  (10) 
unop_6

>  <geom_source>  (10) 
Heuristics

$$$$

     RDKit          3D

 26 24  0  0  0  0  0  0  0  0999 V2000
    1.1719   -0.1888   -4.4831 C   0  0  0  0  0  0  0  0  0  0  0  0
    1.1719   -0.1888   -2.9651 C   0  0  0  0  0  0  0  0  0  0  0  0
    1.1719    1.1387   -2.4253 N   0  0  0  0  0  2  0  0  0  0  0  0
    2.0541    0.3276   -4.8631 H   0  0  0  0  0  0  0  0  0  0  0  0
    1.1719   -1.2077   -4.8741 H   0  0  0  0  0  0  0  0  0  0  0  0
    0.2897    0.3276   -4.8631 H   0  0  0  0  0  0  0  0  0  0  0  0
    2.0441   -0.7425   -2.5812 H   0  0  0  0  0  0  0  0  0  0  0  0
    0.2997   -0.7425   -2.5812 H   0  0  0  0  0  0  0  0  0  0  0  0
    1.1719    1.0352   -1.2021 H   0  0  0  0  0  0  0  0  0  0  0  0
    1.1719    0.9246    0.1047 C   0  0  0  0  0  3  0  0  0  0  0  0
   -0.0603    1.5877    0.7057 C   0  0  0  0  0  0  0  0  0  0  0  0
   -1.1596    0.6028    1.0475 C   0  0  0  0  0  0  0  0  0  0  0  0
   -0.6998   -0.2834    2.0366 O   0  0  0  0  0  0  0  0  0  0  0  0
   -1.6457   -1.2592    2.3922 C   0  0  0  0  0  0  0  0  0  0  0  0
   -1.0519   -2.1543    3.4551 C   0  0  0  0  0  0  0  0  0  0  0  0
    1.9386    1.6633   -0.1334 H   0  0  0  0  0  0  0  0  0  0  0  0
    1.5990    0.2017    0.7996 H   0  0  0  0  0  0  0  0  0  0  0  0
   -0.4716    2.3212    0.0066 H   0  0  0  0  0  0  0  0  0  0  0  0
    0.2119    2.1329    1.6131 H   0  0  0  0  0  0  0  0  0  0  0  0
   -1.4557    0.0398    0.1482 H   0  0  0  0  0  0  0  0  0  0  0  0
   -2.0513    1.1366    1.4075 H   0  0  0  0  0  0  0  0  0  0  0  0
   -2.5614   -0.7761    2.7642 H   0  0  0  0  0  0  0  0  0  0  0  0
   -1.9275   -1.8482    1.5069 H   0  0  0  0  0  0  0  0  0  0  0  0
   -0.7850   -1.5734    4.3385 H   0  0  0  0  0  0  0  0  0  0  0  0
   -1.7704   -2.9214    3.7481 H   0  0  0  0  0  0  0  0  0  0  0  0
   -0.1527   -2.6459    3.0820 H   0  0  0  0  0  0  0  0  0  0  0  0
  1  2  1  0
  1  4  1  0
  1  5  1  0
  1  6  1  0
  2  3  1  0
  2  7  1  0
  2  8  1  0
  3  9  1  0
 10 11  1  0
 10 16  1  0
 10 17  1  0
 11 12  1  0
 11 18  1  0
 11 19  1  0
 12 13  1  0
 12 20  1  0
 12 21  1  0
 13 14  1  0
 14 15  1  0
 14 22  1  0
 14 23  1  0
 15 24  1  0
 15 25  1  0
 15 26  1  0
M  RAD  2   3   2  10   2
M  END
>  <reaction>  (11) 
rmg_rxn_229

>  <mol_properties>  (11) 
{"1": {"label": "*0", "atom_type": "Cs"}, "2": {"label": "*1", "atom_type": "N3s"}, "8": {"label": "*2", "atom_type": "H0"}, "9": {"label": "*3", "atom_type": "Cs"}, "10": {"label": "*4", "atom_type": "Cs"}}

>  <type>  (11) 
unop_7

>  <geom_source>  (11) 
Heuristics

$$$$

     RDKit          3D

 26 24  0  0  0  0  0  0  0  0999 V2000
   -1.3196   -1.8832   -3.0311 C   0  0  0  0  0  0  0  0  0  0  0  0
   -1.3196   -1.8832   -1.5131 C   0  0  0  0  0  0  0  0  0  0  0  0
   -1.3196   -0.5556   -0.9734 N   0  0  0  0  0  2  0  0  0  0  0  0
   -0.4374   -1.3667   -3.4112 H   0  0  0  0  0  0  0  0  0  0  0  0
   -1.3196   -2.9021   -3.4222 H   0  0  0  0  0  0  0  0  0  0  0  0
   -2.2018   -1.3667   -3.4112 H   0  0  0  0  0  0  0  0  0  0  0  0
   -0.4474   -2.4369   -1.1292 H   0  0  0  0  0  0  0  0  0  0  0  0
   -2.1918   -2.4369   -1.1292 H   0  0  0  0  0  0  0  0  0  0  0  0
   -1.3196   -0.6591    0.2498 H   0  0  0  0  0  0  0  0  0  0  0  0
   -1.3196   -0.7697    1.5566 C   0  0  0  0  0  3  0  0  0  0  0  0
    0.1032   -0.8155    2.0976 C   0  0  0  0  0  0  0  0  0  0  0  0
    1.1247   -0.2437    1.1359 C   0  0  0  0  0  0  0  0  0  0  0  0
    0.8549    1.1194    0.9262 O   0  0  0  0  0  0  0  0  0  0  0  0
    1.7354    1.7269    0.0156 C   0  0  0  0  0  0  0  0  0  0  0  0
    1.3574    3.1821   -0.1364 C   0  0  0  0  0  0  0  0  0  0  0  0
   -2.0256   -1.1938    2.2722 H   0  0  0  0  0  0  0  0  0  0  0  0
   -1.6205    0.2569    1.3482 H   0  0  0  0  0  0  0  0  0  0  0  0
    0.3893   -1.8479    2.3172 H   0  0  0  0  0  0  0  0  0  0  0  0
    0.1649   -0.2628    3.0386 H   0  0  0  0  0  0  0  0  0  0  0  0
    1.0860   -0.7853    0.1774 H   0  0  0  0  0  0  0  0  0  0  0  0
    2.1401   -0.3672    1.5403 H   0  0  0  0  0  0  0  0  0  0  0  0
    2.7707    1.6342    0.3760 H   0  0  0  0  0  0  0  0  0  0  0  0
    1.6836    1.2128   -0.9555 H   0  0  0  0  0  0  0  0  0  0  0  0
    1.4218    3.6959    0.8234 H   0  0  0  0  0  0  0  0  0  0  0  0
    2.0295    3.6758   -0.8401 H   0  0  0  0  0  0  0  0  0  0  0  0
    0.3365    3.2750   -0.5085 H   0  0  0  0  0  0  0  0  0  0  0  0
  1  2  1  0
  1  4  1  0
  1  5  1  0
  1  6  1  0
  2  3  1  0
  2  7  1  0
  2  8  1  0
  3  9  1  0
 10 11  1  0
 10 16  1  0
 10 17  1  0
 11 12  1  0
 11 18  1  0
 11 19  1  0
 12 13  1  0
 12 20  1  0
 12 21  1  0
 13 14  1  0
 14 15  1  0
 14 22  1  0
 14 23  1  0
 15 24  1  0
 15 25  1  0
 15 26  1  0
M  RAD  2   3   2  10   2
M  END
>  <reaction>  (12) 
rmg_rxn_229

>  <mol_properties>  (12) 
{"1": {"label": "*0", "atom_type": "Cs"}, "2": {"label": "*1", "atom_type": "N3s"}, "8": {"label": "*2", "atom_type": "H0"}, "9": {"label": "*3", "atom_type": "Cs"}, "10": {"label": "*4", "atom_type": "Cs"}}

>  <type>  (12) 
unop_8

>  <geom_source>  (12) 
Heuristics

$$$$

     RDKit          3D

 26 24  0  0  0  0  0  0  0  0999 V2000
   -0.6968    0.5833   -3.9861 C   0  0  0  0  0  0  0  0  0  0  0  0
   -0.6968    0.5833   -2.4681 C   0  0  0  0  0  0  0  0  0  0  0  0
   -0.6968    1.9109   -1.9283 N   0  0  0  0  0  2  0  0  0  0  0  0
    0.1854    1.0998   -4.3662 H   0  0  0  0  0  0  0  0  0  0  0  0
   -0.6968   -0.4356   -4.3772 H   0  0  0  0  0  0  0  0  0  0  0  0
   -1.5790    1.0998   -4.3662 H   0  0  0  0  0  0  0  0  0  0  0  0
    0.1755    0.0296   -2.0842 H   0  0  0  0  0  0  0  0  0  0  0  0
   -1.5690    0.0296   -2.0842 H   0  0  0  0  0  0  0  0  0  0  0  0
   -0.6968    1.8073   -0.7051 H   0  0  0  0  0  0  0  0  0  0  0  0
   -0.6968    1.6967    0.6017 C   0  0  0  0  0  3  0  0  0  0  0  0
   -1.4082    0.4231    1.0387 C   0  0  0  0  0  0  0  0  0  0  0  0
   -0.5596   -0.8207    0.8706 C   0  0  0  0  0  0  0  0  0  0  0  0
    0.5713   -0.7283    1.6997 O   0  0  0  0  0  0  0  0  0  0  0  0
    1.4381   -1.8277    1.5825 C   0  0  0  0  0  0  0  0  0  0  0  0
    2.6138   -1.6270    2.5103 C   0  0  0  0  0  0  0  0  0  0  0  0
   -1.3386    2.5693    0.7316 H   0  0  0  0  0  0  0  0  0  0  0  0
    0.2111    1.8513    1.1847 H   0  0  0  0  0  0  0  0  0  0  0  0
   -2.3246    0.2858    0.4581 H   0  0  0  0  0  0  0  0  0  0  0  0
   -1.7063    0.5008    2.0875 H   0  0  0  0  0  0  0  0  0  0  0  0
   -0.2464   -0.9253   -0.1803 H   0  0  0  0  0  0  0  0  0  0  0  0
   -1.1420   -1.7173    1.1290 H   0  0  0  0  0  0  0  0  0  0  0  0
    0.9034   -2.7555    1.8346 H   0  0  0  0  0  0  0  0  0  0  0  0
    1.7815   -1.9248    0.5420 H   0  0  0  0  0  0  0  0  0  0  0  0
    2.2754   -1.5445    3.5437 H   0  0  0  0  0  0  0  0  0  0  0  0
    3.3018   -2.4707    2.4367 H   0  0  0  0  0  0  0  0  0  0  0  0
    3.1538   -0.7155    2.2513 H   0  0  0  0  0  0  0  0  0  0  0  0
  1  2  1  0
  1  4  1  0
  1  5  1  0
  1  6  1  0
  2  3  1  0
  2  7  1  0
  2  8  1  0
  3  9  1  0
 10 11  1  0
 10 16  1  0
 10 17  1  0
 11 12  1  0
 11 18  1  0
 11 19  1  0
 12 13  1  0
 12 20  1  0
 12 21  1  0
 13 14  1  0
 14 15  1  0
 14 22  1  0
 14 23  1  0
 15 24  1  0
 15 25  1  0
 15 26  1  0
M  RAD  2   3   2  10   2
M  END
>  <reaction>  (13) 
rmg_rxn_229

>  <mol_properties>  (13) 
{"1": {"label": "*0", "atom_type": "Cs"}, "2": {"label": "*1", "atom_type": "N3s"}, "8": {"label": "*2", "atom_type": "H0"}, "9": {"label": "*3", "atom_type": "Cs"}, "10": {"label": "*4", "atom_type": "Cs"}}

>  <type>  (13) 
unop_9

>  <geom_source>  (13) 
Heuristics

$$$$

     RDKit          3D

 26 24  0  0  0  0  0  0  0  0999 V2000
   -1.6399   -1.2099   -3.1002 C   0  0  0  0  0  0  0  0  0  0  0  0
   -1.6399   -1.2099   -1.5822 C   0  0  0  0  0  0  0  0  0  0  0  0
   -1.6399    0.1177   -1.0424 N   0  0  0  0  0  2  0  0  0  0  0  0
   -0.7576   -0.6934   -3.4802 H   0  0  0  0  0  0  0  0  0  0  0  0
   -1.6399   -2.2288   -3.4912 H   0  0  0  0  0  0  0  0  0  0  0  0
   -2.5221   -0.6934   -3.4802 H   0  0  0  0  0  0  0  0  0  0  0  0
   -0.7676   -1.7636   -1.1983 H   0  0  0  0  0  0  0  0  0  0  0  0
   -2.5121   -1.7636   -1.1983 H   0  0  0  0  0  0  0  0  0  0  0  0
   -1.6399    0.0141    0.1808 H   0  0  0  0  0  0  0  0  0  0  0  0
   -1.6399   -0.0965    1.4876 C   0  0  0  0  0  3  0  0  0  0  0  0
   -0.4077   -0.8511    1.9686 C   0  0  0  0  0  0  0  0  0  0  0  0
    0.7815   -0.7019    1.0418 C   0  0  0  0  0  0  0  0  0  0  0  0
    1.1710    0.6477    0.9976 O   0  0  0  0  0  0  0  0  0  0  0  0
    2.2503    0.8869    0.1307 C   0  0  0  0  0  0  0  0  0  0  0  0
    2.5847    2.3603    0.1582 C   0  0  0  0  0  0  0  0  0  0  0  0
   -2.4760   -0.2310    2.1753 H   0  0  0  0  0  0  0  0  0  0  0  0
   -1.4323    0.9706    1.4076 H   0  0  0  0  0  0  0  0  0  0  0  0
   -0.6313   -1.9177    2.0594 H   0  0  0  0  0  0  0  0  0  0  0  0
   -0.1185   -0.5023    2.9633 H   0  0  0  0  0  0  0  0  0  0  0  0
    0.5182   -1.0493    0.0302 H   0  0  0  0  0  0  0  0  0  0  0  0
    1.6188   -1.3227    1.3930 H   0  0  0  0  0  0  0  0  0  0  0  0
    3.1203    0.2893    0.4410 H   0  0  0  0  0  0  0  0  0  0  0  0
    1.9882    0.5711   -0.8899 H   0  0  0  0  0  0  0  0  0  0  0  0
    2.8581    2.6713    1.1671 H   0  0  0  0  0  0  0  0  0  0  0  0
    3.4224    2.5704   -0.5087 H   0  0  0  0  0  0  0  0  0  0  0  0
    1.7277    2.9528   -0.1642 H   0  0  0  0  0  0  0  0  0  0  0  0
  1  2  1  0
  1  4  1  0
  1  5  1  0
  1  6  1  0
  2  3  1  0
  2  7  1  0
  2  8  1  0
  3  9  1  0
 10 11  1  0
 10 16  1  0
 10 17  1  0
 11 12  1  0
 11 18  1  0
 11 19  1  0
 12 13  1  0
 12 20  1  0
 12 21  1  0
 13 14  1  0
 14 15  1  0
 14 22  1  0
 14 23  1  0
 15 24  1  0
 15 25  1  0
 15 26  1  0
M  RAD  2   3   2  10   2
M  END
>  <reaction>  (14) 
rmg_rxn_229

>  <mol_properties>  (14) 
{"1": {"label": "*0", "atom_type": "Cs"}, "2": {"label": "*1", "atom_type": "N3s"}, "8": {"label": "*2", "atom_type": "H0"}, "9": {"label": "*3", "atom_type": "Cs"}, "10": {"label": "*4", "atom_type": "Cs"}}

>  <type>  (14) 
unop_10

>  <geom_source>  (14) 
Heuristics

$$$$

     RDKit          3D

 26 24  0  0  0  0  0  0  0  0999 V2000
    1.4650   -0.8782   -4.3303 C   0  0  0  0  0  0  0  0  0  0  0  0
    1.4650   -0.8782   -2.8123 C   0  0  0  0  0  0  0  0  0  0  0  0
    1.4650    0.4494   -2.2726 N   0  0  0  0  0  2  0  0  0  0  0  0
    2.3472   -0.3617   -4.7104 H   0  0  0  0  0  0  0  0  0  0  0  0
    1.4650   -1.8971   -4.7214 H   0  0  0  0  0  0  0  0  0  0  0  0
    0.5827   -0.3617   -4.7104 H   0  0  0  0  0  0  0  0  0  0  0  0
    2.3372   -1.4319   -2.4284 H   0  0  0  0  0  0  0  0  0  0  0  0
    0.5927   -1.4319   -2.4284 H   0  0  0  0  0  0  0  0  0  0  0  0
    1.4650    0.3458   -1.0493 H   0  0  0  0  0  0  0  0  0  0  0  0
    1.4650    0.2352    0.2574 C   0  0  0  0  0  3  0  0  0  0  0  0
    0.7535    1.4173    0.9024 C   0  0  0  0  0  0  0  0  0  0  0  0
   -0.7377    1.2011    1.0599 C   0  0  0  0  0  0  0  0  0  0  0  0
   -0.9622    0.1188    1.9278 O   0  0  0  0  0  0  0  0  0  0  0  0
   -2.3237   -0.1782    2.1058 C   0  0  0  0  0  0  0  0  0  0  0  0
   -2.4509   -1.3509    3.0503 C   0  0  0  0  0  0  0  0  0  0  0  0
    2.5339    0.4284    0.1553 H   0  0  0  0  0  0  0  0  0  0  0  0
    1.3370   -0.6662    0.8567 H   0  0  0  0  0  0  0  0  0  0  0  0
    0.9009    2.3187    0.3011 H   0  0  0  0  0  0  0  0  0  0  0  0
    1.1809    1.6204    1.8877 H   0  0  0  0  0  0  0  0  0  0  0  0
   -1.1956    0.9962    0.0792 H   0  0  0  0  0  0  0  0  0  0  0  0
   -1.2142    2.1080    1.4602 H   0  0  0  0  0  0  0  0  0  0  0  0
   -2.8494    0.6997    2.5099 H   0  0  0  0  0  0  0  0  0  0  0  0
   -2.7857   -0.4138    1.1358 H   0  0  0  0  0  0  0  0  0  0  0  0
   -2.0053   -1.1132    4.0169 H   0  0  0  0  0  0  0  0  0  0  0  0
   -3.5020   -1.5999    3.2045 H   0  0  0  0  0  0  0  0  0  0  0  0
   -1.9433   -2.2262    2.6433 H   0  0  0  0  0  0  0  0  0  0  0  0
  1  2  1  0
  1  4  1  0
  1  5  1  0
  1  6  1  0
  2  3  1  0
  2  7  1  0
  2  8  1  0
  3  9  1  0
 10 11  1  0
 10 16  1  0
 10 17  1  0
 11 12  1  0
 11 18  1  0
 11 19  1  0
 12 13  1  0
 12 20  1  0
 12 21  1  0
 13 14  1  0
 14 15  1  0
 14 22  1  0
 14 23  1  0
 15 24  1  0
 15 25  1  0
 15 26  1  0
M  RAD  2   3   2  10   2
M  END
>  <reaction>  (15) 
rmg_rxn_229

>  <mol_properties>  (15) 
{"1": {"label": "*0", "atom_type": "Cs"}, "2": {"label": "*1", "atom_type": "N3s"}, "8": {"label": "*2", "atom_type": "H0"}, "9": {"label": "*3", "atom_type": "Cs"}, "10": {"label": "*4", "atom_type": "Cs"}}

>  <type>  (15) 
unop_11

>  <geom_source>  (15) 
Heuristics

$$$$

     RDKit          3D

 26 24  0  0  0  0  0  0  0  0999 V2000
   -1.3397    0.1636   -3.6268 C   0  0  0  0  0  0  0  0  0  0  0  0
   -1.3397    0.1636   -2.1088 C   0  0  0  0  0  0  0  0  0  0  0  0
   -1.3397    1.4912   -1.5690 N   0  0  0  0  0  2  0  0  0  0  0  0
   -0.4575    0.6801   -4.0068 H   0  0  0  0  0  0  0  0  0  0  0  0
   -1.3397   -0.8552   -4.0179 H   0  0  0  0  0  0  0  0  0  0  0  0
   -2.2220    0.6801   -4.0068 H   0  0  0  0  0  0  0  0  0  0  0  0
   -0.4675   -0.3901   -1.7249 H   0  0  0  0  0  0  0  0  0  0  0  0
   -2.2120   -0.3901   -1.7249 H   0  0  0  0  0  0  0  0  0  0  0  0
   -1.3397    1.3877   -0.3458 H   0  0  0  0  0  0  0  0  0  0  0  0
   -1.3397    1.2771    0.9610 C   0  0  0  0  0  3  0  0  0  0  0  0
   -1.3397   -0.1865    1.3819 C   0  0  0  0  0  0  0  0  0  0  0  0
   -0.1363   -0.9528    0.8722 C   0  0  0  0  0  0  0  0  0  0  0  0
    1.0328   -0.4094    1.4315 O   0  0  0  0  0  0  0  0  0  0  0  0
    2.2071   -1.0382    0.9851 C   0  0  0  0  0  0  0  0  0  0  0  0
    3.3973   -0.3797    1.6434 C   0  0  0  0  0  0  0  0  0  0  0  0
   -2.2218    1.7949    1.3406 H   0  0  0  0  0  0  0  0  0  0  0  0
   -0.4548    1.7879    1.3403 H   0  0  0  0  0  0  0  0  0  0  0  0
   -2.2386   -0.6853    1.0090 H   0  0  0  0  0  0  0  0  0  0  0  0
   -1.3640   -0.2634    2.4720 H   0  0  0  0  0  0  0  0  0  0  0  0
   -0.0885   -0.8939   -0.2267 H   0  0  0  0  0  0  0  0  0  0  0  0
   -0.2206   -2.0165    1.1392 H   0  0  0  0  0  0  0  0  0  0  0  0
    2.1757   -2.1100    1.2314 H   0  0  0  0  0  0  0  0  0  0  0  0
    2.2811   -0.9599   -0.1097 H   0  0  0  0  0  0  0  0  0  0  0  0
    3.3317   -0.4690    2.7283 H   0  0  0  0  0  0  0  0  0  0  0  0
    4.3227   -0.8530    1.3115 H   0  0  0  0  0  0  0  0  0  0  0  0
    3.4382    0.6795    1.3872 H   0  0  0  0  0  0  0  0  0  0  0  0
  1  2  1  0
  1  4  1  0
  1  5  1  0
  1  6  1  0
  2  3  1  0
  2  7  1  0
  2  8  1  0
  3  9  1  0
 10 11  1  0
 10 16  1  0
 10 17  1  0
 11 12  1  0
 11 18  1  0
 11 19  1  0
 12 13  1  0
 12 20  1  0
 12 21  1  0
 13 14  1  0
 14 15  1  0
 14 22  1  0
 14 23  1  0
 15 24  1  0
 15 25  1  0
 15 26  1  0
M  RAD  2   3   2  10   2
M  END
>  <reaction>  (16) 
rmg_rxn_229

>  <mol_properties>  (16) 
{"1": {"label": "*0", "atom_type": "Cs"}, "2": {"label": "*1", "atom_type": "N3s"}, "8": {"label": "*2", "atom_type": "H0"}, "9": {"label": "*3", "atom_type": "Cs"}, "10": {"label": "*4", "atom_type": "Cs"}}

>  <type>  (16) 
unop_12

>  <geom_source>  (16) 
Heuristics

$$$$

     RDKit          3D

 26 24  0  0  0  0  0  0  0  0999 V2000
   -1.6575   -0.4959   -3.2989 C   0  0  0  0  0  0  0  0  0  0  0  0
   -1.6575   -0.4959   -1.7809 C   0  0  0  0  0  0  0  0  0  0  0  0
   -1.6575    0.8316   -1.2411 N   0  0  0  0  0  2  0  0  0  0  0  0
   -0.7753    0.0206   -3.6789 H   0  0  0  0  0  0  0  0  0  0  0  0
   -1.6575   -1.5148   -3.6899 H   0  0  0  0  0  0  0  0  0  0  0  0
   -2.5397    0.0206   -3.6789 H   0  0  0  0  0  0  0  0  0  0  0  0
   -0.7853   -1.0496   -1.3970 H   0  0  0  0  0  0  0  0  0  0  0  0
   -2.5297   -1.0496   -1.3970 H   0  0  0  0  0  0  0  0  0  0  0  0
   -1.6575    0.7281   -0.0179 H   0  0  0  0  0  0  0  0  0  0  0  0
   -1.6575    0.6175    1.2889 C   0  0  0  0  0  3  0  0  0  0  0  0
   -0.9461   -0.6561    1.7259 C   0  0  0  0  0  0  0  0  0  0  0  0
    0.3201   -0.9305    0.9406 C   0  0  0  0  0  0  0  0  0  0  0  0
    1.2436    0.1037    1.1699 O   0  0  0  0  0  0  0  0  0  0  0  0
    2.4404   -0.0498    0.4504 C   0  0  0  0  0  0  0  0  0  0  0  0
    3.3561    1.1097    0.7677 C   0  0  0  0  0  0  0  0  0  0  0  0
   -2.5657    0.7796    1.8712 H   0  0  0  0  0  0  0  0  0  0  0  0
   -1.0103    1.4850    1.4179 H   0  0  0  0  0  0  0  0  0  0  0  0
   -1.6091   -1.5174    1.6064 H   0  0  0  0  0  0  0  0  0  0  0  0
   -0.6906   -0.5980    2.7871 H   0  0  0  0  0  0  0  0  0  0  0  0
    0.0909   -0.9966   -0.1349 H   0  0  0  0  0  0  0  0  0  0  0  0
    0.7544   -1.8949    1.2422 H   0  0  0  0  0  0  0  0  0  0  0  0
    2.9199   -1.0029    0.7186 H   0  0  0  0  0  0  0  0  0  0  0  0
    2.2270   -0.0872   -0.6281 H   0  0  0  0  0  0  0  0  0  0  0  0
    3.5793    1.1394    1.8347 H   0  0  0  0  0  0  0  0  0  0  0  0
    4.2944    1.0115    0.2194 H   0  0  0  0  0  0  0  0  0  0  0  0
    2.8880    2.0541    0.4877 H   0  0  0  0  0  0  0  0  0  0  0  0
  1  2  1  0
  1  4  1  0
  1  5  1  0
  1  6  1  0
  2  3  1  0
  2  7  1  0
  2  8  1  0
  3  9  1  0
 10 11  1  0
 10 16  1  0
 10 17  1  0
 11 12  1  0
 11 18  1  0
 11 19  1  0
 12 13  1  0
 12 20  1  0
 12 21  1  0
 13 14  1  0
 14 15  1  0
 14 22  1  0
 14 23  1  0
 15 24  1  0
 15 25  1  0
 15 26  1  0
M  RAD  2   3   2  10   2
M  END
>  <reaction>  (17) 
rmg_rxn_229

>  <mol_properties>  (17) 
{"1": {"label": "*0", "atom_type": "Cs"}, "2": {"label": "*1", "atom_type": "N3s"}, "8": {"label": "*2", "atom_type": "H0"}, "9": {"label": "*3", "atom_type": "Cs"}, "10": {"label": "*4", "atom_type": "Cs"}}

>  <type>  (17) 
unop_13

>  <geom_source>  (17) 
gaussian_log

$$$$
