
     RDKit          3D

 15 14  0  0  0  0  0  0  0  0999 V2000
   -1.2811   -0.4129    1.0228 C   0  0  0  0  0  0  0  0  0  0  0  0
   -1.0023   -0.5809   -0.4650 C   0  0  0  0  0  0  0  0  0  0  0  0
   -2.0576    0.0568   -1.3449 C   0  0  0  0  0  0  0  0  0  0  0  0
   -2.0663    1.4464   -1.1307 O   0  0  0  0  0  0  0  0  0  0  0  0
   -3.0424    2.1072   -1.8849 C   0  0  0  0  0  0  0  0  0  0  0  0
   -2.2382   -0.8657    1.2935 H   0  0  0  0  0  0  0  0  0  0  0  0
   -1.3219    0.6426    1.2914 H   0  0  0  0  0  0  0  0  0  0  0  0
   -0.5042   -0.8881    1.6236 H   0  0  0  0  0  0  0  0  0  0  0  0
   -0.0316   -0.1460   -0.7167 H   0  0  0  0  0  0  0  0  0  0  0  0
   -0.9494   -1.6429   -0.7203 H   0  0  0  0  0  0  0  0  0  0  0  0
   -1.8518   -0.1570   -2.4041 H   0  0  0  0  0  0  0  0  0  0  0  0
   -3.0491   -0.3636   -1.1124 H   0  0  0  0  0  0  0  0  0  0  0  0
   -4.0521    1.7545   -1.6343 H   0  0  0  0  0  0  0  0  0  0  0  0
   -2.8850    1.9634   -2.9626 H   0  0  0  0  0  0  0  0  0  0  0  0
   -2.9730    3.1700   -1.6570 H   0  0  0  0  0  0  0  0  0  0  0  0
  1  2  1  0
  1  6  1  0
  1  7  1  0
  1  8  1  0
  2  3  1  0
  2  9  1  0
  2 10  1  0
  3  4  1  0
  3 11  1  0
  3 12  1  0
  4  5  1  0
  5 13  1  0
  5 14  1  0
  5 15  1  0
M  END
>  <reaction>  (1) 
rmg_rxn_15407

>  <mol_properties>  (1) 
{"4": {"label": "donator", "atom_type": "Cs"}, "12": {"label": "d_hydrogen", "atom_type": "H0"}}

>  <type>  (1) 
r1h

$$$$

     RDKit          3D

  5  4  0  0  0  0  0  0  0  0999 V2000
    0.8934    0.3742    0.4948 O   0  0  0  0  0  0  0  0  0  0  0  0
    0.1582   -0.1610   -0.5904 N   0  0  0  0  0  0  0  0  0  0  0  0
   -1.0297   -0.3739   -0.4689 C   0  0  0  0  0  3  0  0  0  0  0  0
    1.7804    0.4382    0.1306 H   0  0  0  0  0  0  0  0  0  0  0  0
   -1.8023   -0.2775    0.2859 H   0  0  0  0  0  0  0  0  0  0  0  0
  1  2  1  0
  1  4  1  0
  2  3  2  3
  3  5  1  0
M  RAD  1   3   2
M  END
>  <reaction>  (2) 
rmg_rxn_15407

>  <mol_properties>  (2) 
{"2": {"label": "acceptor", "atom_type": "Cd"}}

>  <type>  (2) 
r2

$$$$

     RDKit          3D

  6  5  0  0  0  0  0  0  0  0999 V2000
    1.2314    0.0428    0.5088 O   0  0  0  0  0  0  0  0  0  0  0  0
    0.2987    0.2341   -0.4915 N   0  0  0  0  0  0  0  0  0  0  0  0
   -0.8599   -0.1122   -0.1290 C   0  0  0  0  0  0  0  0  0  0  0  0
    2.0507    0.3401    0.1082 H   0  0  0  0  0  0  0  0  0  0  0  0
   -1.0700   -0.5112    0.8610 H   0  0  0  0  0  0  0  0  0  0  0  0
   -1.6509    0.0064   -0.8574 H   0  0  0  0  0  0  0  0  0  0  0  0
  1  2  1  0
  1  4  1  0
  2  3  2  3
  3  5  1  0
  3  6  1  0
M  END
>  <reaction>  (3) 
rmg_rxn_15407

>  <mol_properties>  (3) 
{"2": {"label": "acceptor", "atom_type": "Cd"}, "5": {"label": "a_hydrogen", "atom_type": "H0"}}

>  <type>  (3) 
r2h

$$$$

     RDKit          3D

 20 18  0  0  0  0  0  0  0  0999 V2000
    3.4045    0.2747   -0.1242 O   0  0  0  0  0  0  0  0  0  0  0  0
    2.1112   -0.1967   -0.4078 N   0  0  0  0  0  0  0  0  0  0  0  0
    1.5495   -0.7561    0.5488 C   0  0  0  0  0  3  0  0  0  0  0  0
    3.6743    0.6649   -0.9587 H   0  0  0  0  0  0  0  0  0  0  0  0
    1.9426   -0.9191    1.5526 H   0  0  0  0  0  0  0  0  0  0  0  0
   -0.9191    1.8065    0.8308 C   0  0  0  0  0  0  0  0  0  0  0  0
   -1.1952    1.2378   -0.5533 C   0  0  0  0  0  0  0  0  0  0  0  0
   -2.2603    0.1527   -0.5521 C   0  0  0  0  0  0  0  0  0  0  0  0
   -1.9646   -0.9427    0.2979 O   0  0  0  0  0  0  0  0  0  0  0  0
   -0.9173   -1.7332   -0.1037 C   0  0  0  0  0  0  0  0  0  0  0  0
   -1.8191    2.2524    1.2610 H   0  0  0  0  0  0  0  0  0  0  0  0
   -0.1456    2.5741    0.7899 H   0  0  0  0  0  0  0  0  0  0  0  0
   -0.5791    1.0248    1.5114 H   0  0  0  0  0  0  0  0  0  0  0  0
   -1.5413    2.0287   -1.2251 H   0  0  0  0  0  0  0  0  0  0  0  0
   -0.2709    0.8477   -0.9865 H   0  0  0  0  0  0  0  0  0  0  0  0
   -3.2064    0.5499   -0.1797 H   0  0  0  0  0  0  0  0  0  0  0  0
   -2.4231   -0.2180   -1.5725 H   0  0  0  0  0  0  0  0  0  0  0  0
    0.1878   -1.2554    0.2195 H   0  0  0  0  0  0  0  0  0  0  0  0
   -0.8476   -1.8608   -1.1904 H   0  0  0  0  0  0  0  0  0  0  0  0
   -0.9615   -2.6867    0.4213 H   0  0  0  0  0  0  0  0  0  0  0  0
  1  2  1  0
  1  4  1  0
  2  3  2  3
  3  5  1  0
  6  7  1  0
  6 11  1  0
  6 12  1  0
  6 13  1  0
  7  8  1  0
  7 14  1  0
  7 15  1  0
  8  9  1  0
  8 16  1  0
  8 17  1  0
  9 10  1  0
 10 18  1  0
 10 19  1  0
 10 20  1  0
M  RAD  1   3   2
M  END
>  <reaction>  (4) 
rmg_rxn_15407

>  <mol_properties>  (4) 
{"1": {"label": "*4", "atom_type": "N3d"}, "2": {"label": "*3", "atom_type": "Cd"}, "8": {"label": "*0", "atom_type": "O2s"}, "9": {"label": "*1", "atom_type": "Cs"}, "17": {"label": "*2", "atom_type": "H0"}}

>  <type>  (4) 
ts

$$$$

     RDKit          3D

 20 18  0  0  0  0  0  0  0  0999 V2000
    3.2774    0.3794   -0.1331 O   0  0  0  0  0  0  0  0  0  0  0  0
    1.9572   -0.0964   -0.2979 N   0  0  0  0  0  0  0  0  0  0  0  0
    1.5220   -0.9643    0.4735 C   0  0  0  0  0  0  0  0  0  0  0  0
    3.3845    1.0381   -0.8325 H   0  0  0  0  0  0  0  0  0  0  0  0
    2.0280   -1.4445    1.3028 H   0  0  0  0  0  0  0  0  0  0  0  0
   -0.9193    1.8944    0.7945 C   0  0  0  0  0  0  0  0  0  0  0  0
   -1.1077    1.2499   -0.5726 C   0  0  0  0  0  0  0  0  0  0  0  0
   -2.1877    0.1646   -0.5361 C   0  0  0  0  0  0  0  0  0  0  0  0
   -1.8967   -0.8947    0.3482 O   0  0  0  0  0  0  0  0  0  0  0  0
   -0.9342   -1.7891   -0.0620 C   0  0  0  0  0  3  0  0  0  0  0  0
   -1.8332    2.3893    1.1161 H   0  0  0  0  0  0  0  0  0  0  0  0
   -0.1193    2.6292    0.7603 H   0  0  0  0  0  0  0  0  0  0  0  0
   -0.6611    1.1373    1.5306 H   0  0  0  0  0  0  0  0  0  0  0  0
   -1.4117    2.0012   -1.3037 H   0  0  0  0  0  0  0  0  0  0  0  0
   -0.1639    0.8108   -0.9000 H   0  0  0  0  0  0  0  0  0  0  0  0
   -3.1266    0.5867   -0.1669 H   0  0  0  0  0  0  0  0  0  0  0  0
   -2.3482   -0.2309   -1.5499 H   0  0  0  0  0  0  0  0  0  0  0  0
    0.3101   -1.3469    0.2208 H   0  0  0  0  0  0  0  0  0  0  0  0
   -0.9215   -1.9703   -1.1378 H   0  0  0  0  0  0  0  0  0  0  0  0
   -1.0289   -2.6981    0.5251 H   0  0  0  0  0  0  0  0  0  0  0  0
  1  2  1  0
  1  4  1  0
  2  3  2  3
  3  5  1  0
  3 18  1  0
  6  7  1  0
  6 11  1  0
  6 12  1  0
  6 13  1  0
  7  8  1  0
  7 14  1  0
  7 15  1  0
  8  9  1  0
  8 16  1  0
  8 17  1  0
  9 10  1  0
 10 19  1  0
 10 20  1  0
M  RAD  1  10   2
M  END
>  <reaction>  (5) 
rmg_rxn_15407

>  <mol_properties>  (5) 
{"1": {"label": "*4", "atom_type": "N3d"}, "2": {"label": "*3", "atom_type": "Cd"}, "8": {"label": "*0", "atom_type": "O2s"}, "9": {"label": "*1", "atom_type": "Cs"}, "17": {"label": "*2", "atom_type": "H0"}}

>  <type>  (5) 
unop_1

>  <geom_source>  (5) 
crest_best.xyz

$$$$

     RDKit          3D

 20 18  0  0  0  0  0  0  0  0999 V2000
    1.1733    3.8363   -0.3581 O   0  0  0  0  0  0  0  0  0  0  0  0
    0.4076    2.7346   -0.6854 N   0  0  0  0  0  0  0  0  0  0  0  0
    0.7302    1.7181   -0.0100 C   0  0  0  0  0  0  0  0  0  0  0  0
    0.8306    4.5235   -0.9329 H   0  0  0  0  0  0  0  0  0  0  0  0
    1.5222    1.7364    0.7356 H   0  0  0  0  0  0  0  0  0  0  0  0
    0.0136   -3.1080   -1.3195 C   0  0  0  0  0  0  0  0  0  0  0  0
    0.0136   -3.1080    0.2034 C   0  0  0  0  0  0  0  0  0  0  0  0
    0.0136   -1.7154    0.7994 C   0  0  0  0  0  0  0  0  0  0  0  0
   -1.1714   -1.0520    0.4353 O   0  0  0  0  0  0  0  0  0  0  0  0
   -1.2322    0.2591    0.9204 C   0  0  0  0  0  3  0  0  0  0  0  0
    0.8960   -2.5944   -1.7093 H   0  0  0  0  0  0  0  0  0  0  0  0
   -0.8688   -2.5981   -1.7060 H   0  0  0  0  0  0  0  0  0  0  0  0
    0.0185   -4.1260   -1.7118 H   0  0  0  0  0  0  0  0  0  0  0  0
   -0.8605   -3.6462    0.5790 H   0  0  0  0  0  0  0  0  0  0  0  0
    0.8954   -3.6342    0.5796 H   0  0  0  0  0  0  0  0  0  0  0  0
    0.0905   -1.7691    1.8955 H   0  0  0  0  0  0  0  0  0  0  0  0
    0.8860   -1.1484    0.4372 H   0  0  0  0  0  0  0  0  0  0  0  0
   -0.2435    0.9942    0.4517 H   0  0  0  0  0  0  0  0  0  0  0  0
   -1.1902    0.2852    2.0179 H   0  0  0  0  0  0  0  0  0  0  0  0
   -2.1779    0.6892    0.5933 H   0  0  0  0  0  0  0  0  0  0  0  0
  1  2  1  0
  1  4  1  0
  2  3  2  3
  3  5  1  0
  3 18  1  0
  6  7  1  0
  6 11  1  0
  6 12  1  0
  6 13  1  0
  7  8  1  0
  7 14  1  0
  7 15  1  0
  8  9  1  0
  8 16  1  0
  8 17  1  0
  9 10  1  0
 10 19  1  0
 10 20  1  0
M  RAD  1  10   2
M  END
>  <reaction>  (6) 
rmg_rxn_15407

>  <mol_properties>  (6) 
{"1": {"label": "*4", "atom_type": "N3d"}, "2": {"label": "*3", "atom_type": "Cd"}, "8": {"label": "*0", "atom_type": "O2s"}, "9": {"label": "*1", "atom_type": "Cs"}, "17": {"label": "*2", "atom_type": "H0"}}

>  <type>  (6) 
unop_2

>  <geom_source>  (6) 
Heuristics

$$$$

     RDKit          3D

 20 18  0  0  0  0  0  0  0  0999 V2000
    3.2754    0.3805    0.1312 O   0  0  0  0  0  0  0  0  0  0  0  0
    1.9559   -0.0965    0.2978 N   0  0  0  0  0  0  0  0  0  0  0  0
    1.5224   -0.9686   -0.4698 C   0  0  0  0  0  0  0  0  0  0  0  0
    3.3812    1.0429    0.8274 H   0  0  0  0  0  0  0  0  0  0  0  0
    2.0297   -1.4519   -1.2966 H   0  0  0  0  0  0  0  0  0  0  0  0
   -0.9172    1.8966   -0.7929 C   0  0  0  0  0  0  0  0  0  0  0  0
   -1.1068    1.2499    0.5729 C   0  0  0  0  0  0  0  0  0  0  0  0
   -2.1873    0.1653    0.5341 C   0  0  0  0  0  0  0  0  0  0  0  0
   -1.8955   -0.8940   -0.3498 O   0  0  0  0  0  0  0  0  0  0  0  0
   -0.9356   -1.7902    0.0625 C   0  0  0  0  0  3  0  0  0  0  0  0
   -1.8309    2.3918   -1.1145 H   0  0  0  0  0  0  0  0  0  0  0  0
   -0.1174    2.6315   -0.7567 H   0  0  0  0  0  0  0  0  0  0  0  0
   -0.6581    1.1408   -1.5299 H   0  0  0  0  0  0  0  0  0  0  0  0
   -0.1633    0.8098    0.9002 H   0  0  0  0  0  0  0  0  0  0  0  0
   -1.4108    2.0002    1.3051 H   0  0  0  0  0  0  0  0  0  0  0  0
   -2.3498   -0.2304    1.5476 H   0  0  0  0  0  0  0  0  0  0  0  0
   -3.1254    0.5881    0.1635 H   0  0  0  0  0  0  0  0  0  0  0  0
    0.3101   -1.3502   -0.2179 H   0  0  0  0  0  0  0  0  0  0  0  0
   -1.0307   -2.6990   -0.5248 H   0  0  0  0  0  0  0  0  0  0  0  0
   -0.9256   -1.9713    1.1383 H   0  0  0  0  0  0  0  0  0  0  0  0
  1  2  1  0
  1  4  1  0
  2  3  2  3
  3  5  1  0
  3 18  1  0
  6  7  1  0
  6 11  1  0
  6 12  1  0
  6 13  1  0
  7  8  1  0
  7 14  1  0
  7 15  1  0
  8  9  1  0
  8 16  1  0
  8 17  1  0
  9 10  1  0
 10 19  1  0
 10 20  1  0
M  RAD  1  10   2
M  END
>  <reaction>  (7) 
rmg_rxn_15407

>  <mol_properties>  (7) 
{"1": {"label": "*4", "atom_type": "N3d"}, "2": {"label": "*3", "atom_type": "Cd"}, "8": {"label": "*0", "atom_type": "O2s"}, "9": {"label": "*1", "atom_type": "Cs"}, "17": {"label": "*2", "atom_type": "H0"}}

>  <type>  (7) 
unop_3

>  <geom_source>  (7) 
Heuristics

$$$$

     RDKit          3D

 20 18  0  0  0  0  0  0  0  0999 V2000
    1.7038    2.7981   -1.4623 O   0  0  0  0  0  0  0  0  0  0  0  0
    0.9743    1.7708   -0.8972 N   0  0  0  0  0  0  0  0  0  0  0  0
    0.5354    2.0769    0.2461 C   0  0  0  0  0  0  0  0  0  0  0  0
    1.9722    2.4394   -2.3105 H   0  0  0  0  0  0  0  0  0  0  0  0
    0.7247    3.0437    0.7076 H   0  0  0  0  0  0  0  0  0  0  0  0
   -0.1812   -2.7492   -1.0634 C   0  0  0  0  0  0  0  0  0  0  0  0
   -0.1812   -2.7492    0.4595 C   0  0  0  0  0  0  0  0  0  0  0  0
   -0.1812   -1.3566    1.0555 C   0  0  0  0  0  0  0  0  0  0  0  0
   -1.3662   -0.6932    0.6914 O   0  0  0  0  0  0  0  0  0  0  0  0
   -1.4270    0.6179    1.1766 C   0  0  0  0  0  3  0  0  0  0  0  0
    0.7012   -2.2355   -1.4531 H   0  0  0  0  0  0  0  0  0  0  0  0
   -1.0636   -2.2393   -1.4498 H   0  0  0  0  0  0  0  0  0  0  0  0
   -0.1763   -3.7672   -1.4557 H   0  0  0  0  0  0  0  0  0  0  0  0
   -1.0553   -3.2874    0.8351 H   0  0  0  0  0  0  0  0  0  0  0  0
    0.7005   -3.2753    0.8357 H   0  0  0  0  0  0  0  0  0  0  0  0
   -0.1044   -1.4103    2.1516 H   0  0  0  0  0  0  0  0  0  0  0  0
    0.6912   -0.7896    0.6933 H   0  0  0  0  0  0  0  0  0  0  0  0
   -0.4383    1.3530    0.7078 H   0  0  0  0  0  0  0  0  0  0  0  0
   -1.3850    0.6440    2.2740 H   0  0  0  0  0  0  0  0  0  0  0  0
   -2.3727    1.0481    0.8494 H   0  0  0  0  0  0  0  0  0  0  0  0
  1  2  1  0
  1  4  1  0
  2  3  2  3
  3  5  1  0
  3 18  1  0
  6  7  1  0
  6 11  1  0
  6 12  1  0
  6 13  1  0
  7  8  1  0
  7 14  1  0
  7 15  1  0
  8  9  1  0
  8 16  1  0
  8 17  1  0
  9 10  1  0
 10 19  1  0
 10 20  1  0
M  RAD  1  10   2
M  END
>  <reaction>  (8) 
rmg_rxn_15407

>  <mol_properties>  (8) 
{"1": {"label": "*4", "atom_type": "N3d"}, "2": {"label": "*3", "atom_type": "Cd"}, "8": {"label": "*0", "atom_type": "O2s"}, "9": {"label": "*1", "atom_type": "Cs"}, "17": {"label": "*2", "atom_type": "H0"}}

>  <type>  (8) 
unop_4

>  <geom_source>  (8) 
Heuristics

$$$$

     RDKit          3D

 20 18  0  0  0  0  0  0  0  0999 V2000
    3.2766    0.3803    0.1324 O   0  0  0  0  0  0  0  0  0  0  0  0
    1.9570   -0.0968    0.2981 N   0  0  0  0  0  0  0  0  0  0  0  0
    1.5224   -0.9657   -0.4725 C   0  0  0  0  0  0  0  0  0  0  0  0
    3.3832    1.0397    0.8313 H   0  0  0  0  0  0  0  0  0  0  0  0
    2.0286   -1.4461   -1.3017 H   0  0  0  0  0  0  0  0  0  0  0  0
   -0.9190    1.8957   -0.7936 C   0  0  0  0  0  0  0  0  0  0  0  0
   -1.1080    1.2497    0.5728 C   0  0  0  0  0  0  0  0  0  0  0  0
   -2.1878    0.1644    0.5349 C   0  0  0  0  0  0  0  0  0  0  0  0
   -1.8959   -0.8949   -0.3489 O   0  0  0  0  0  0  0  0  0  0  0  0
   -0.9342   -1.7896    0.0625 C   0  0  0  0  0  3  0  0  0  0  0  0
   -1.8337    2.3885   -1.1162 H   0  0  0  0  0  0  0  0  0  0  0  0
   -0.6577    1.1398   -1.5297 H   0  0  0  0  0  0  0  0  0  0  0  0
   -0.1210    2.6325   -0.7574 H   0  0  0  0  0  0  0  0  0  0  0  0
   -0.1642    0.8105    0.9002 H   0  0  0  0  0  0  0  0  0  0  0  0
   -1.4124    2.0003    1.3045 H   0  0  0  0  0  0  0  0  0  0  0  0
   -2.3496   -0.2311    1.5485 H   0  0  0  0  0  0  0  0  0  0  0  0
   -3.1264    0.5866    0.1647 H   0  0  0  0  0  0  0  0  0  0  0  0
    0.3105   -1.3481   -0.2200 H   0  0  0  0  0  0  0  0  0  0  0  0
   -1.0290   -2.6989   -0.5241 H   0  0  0  0  0  0  0  0  0  0  0  0
   -0.9224   -1.9700    1.1384 H   0  0  0  0  0  0  0  0  0  0  0  0
  1  2  1  0
  1  4  1  0
  2  3  2  3
  3  5  1  0
  3 18  1  0
  6  7  1  0
  6 11  1  0
  6 12  1  0
  6 13  1  0
  7  8  1  0
  7 14  1  0
  7 15  1  0
  8  9  1  0
  8 16  1  0
  8 17  1  0
  9 10  1  0
 10 19  1  0
 10 20  1  0
M  RAD  1  10   2
M  END
>  <reaction>  (9) 
rmg_rxn_15407

>  <mol_properties>  (9) 
{"1": {"label": "*4", "atom_type": "N3d"}, "2": {"label": "*3", "atom_type": "Cd"}, "8": {"label": "*0", "atom_type": "O2s"}, "9": {"label": "*1", "atom_type": "Cs"}, "17": {"label": "*2", "atom_type": "H0"}}

>  <type>  (9) 
unop_5

>  <geom_source>  (9) 
Heuristics

$$$$

     RDKit          3D

 20 18  0  0  0  0  0  0  0  0999 V2000
    1.5497    3.7092   -0.0521 O   0  0  0  0  0  0  0  0  0  0  0  0
    0.4217    2.9446   -0.2758 N   0  0  0  0  0  0  0  0  0  0  0  0
    0.6518    1.7114   -0.1351 C   0  0  0  0  0  0  0  0  0  0  0  0
    1.2403    4.6067   -0.1892 H   0  0  0  0  0  0  0  0  0  0  0  0
    1.6331    1.3245    0.1314 H   0  0  0  0  0  0  0  0  0  0  0  0
   -0.0647   -3.1147   -1.4447 C   0  0  0  0  0  0  0  0  0  0  0  0
   -0.0647   -3.1147    0.0782 C   0  0  0  0  0  0  0  0  0  0  0  0
   -0.0647   -1.7221    0.6743 C   0  0  0  0  0  0  0  0  0  0  0  0
   -1.2497   -1.0587    0.3101 O   0  0  0  0  0  0  0  0  0  0  0  0
   -1.3105    0.2524    0.7953 C   0  0  0  0  0  3  0  0  0  0  0  0
    0.8177   -2.6011   -1.8344 H   0  0  0  0  0  0  0  0  0  0  0  0
   -0.9471   -2.6048   -1.8311 H   0  0  0  0  0  0  0  0  0  0  0  0
   -0.0598   -4.1327   -1.8370 H   0  0  0  0  0  0  0  0  0  0  0  0
   -0.9388   -3.6529    0.4538 H   0  0  0  0  0  0  0  0  0  0  0  0
    0.8170   -3.6409    0.4545 H   0  0  0  0  0  0  0  0  0  0  0  0
    0.0121   -1.7758    1.7703 H   0  0  0  0  0  0  0  0  0  0  0  0
    0.8077   -1.1551    0.3121 H   0  0  0  0  0  0  0  0  0  0  0  0
   -0.3219    0.9875    0.3265 H   0  0  0  0  0  0  0  0  0  0  0  0
   -1.2685    0.2785    1.8928 H   0  0  0  0  0  0  0  0  0  0  0  0
   -2.2562    0.6826    0.4682 H   0  0  0  0  0  0  0  0  0  0  0  0
  1  2  1  0
  1  4  1  0
  2  3  2  3
  3  5  1  0
  3 18  1  0
  6  7  1  0
  6 11  1  0
  6 12  1  0
  6 13  1  0
  7  8  1  0
  7 14  1  0
  7 15  1  0
  8  9  1  0
  8 16  1  0
  8 17  1  0
  9 10  1  0
 10 19  1  0
 10 20  1  0
M  RAD  1  10   2
M  END
>  <reaction>  (10) 
rmg_rxn_15407

>  <mol_properties>  (10) 
{"1": {"label": "*4", "atom_type": "N3d"}, "2": {"label": "*3", "atom_type": "Cd"}, "8": {"label": "*0", "atom_type": "O2s"}, "9": {"label": "*1", "atom_type": "Cs"}, "17": {"label": "*2", "atom_type": "H0"}}

>  <type>  (10) 
unop_6

>  <geom_source>  (10) 
Heuristics

$$$$

     RDKit          3D

 20 18  0  0  0  0  0  0  0  0999 V2000
    2.3679    2.7663    0.1727 O   0  0  0  0  0  0  0  0  0  0  0  0
    1.4914    1.7070    0.0436 N   0  0  0  0  0  0  0  0  0  0  0  0
    0.3212    2.0932   -0.2299 C   0  0  0  0  0  0  0  0  0  0  0  0
    3.2027    2.3401    0.3763 H   0  0  0  0  0  0  0  0  0  0  0  0
    0.0619    3.1436   -0.3446 H   0  0  0  0  0  0  0  0  0  0  0  0
   -0.3954   -2.7329   -1.5395 C   0  0  0  0  0  0  0  0  0  0  0  0
   -0.3954   -2.7329   -0.0166 C   0  0  0  0  0  0  0  0  0  0  0  0
   -0.3954   -1.3403    0.5795 C   0  0  0  0  0  0  0  0  0  0  0  0
   -1.5804   -0.6769    0.2153 O   0  0  0  0  0  0  0  0  0  0  0  0
   -1.6412    0.6342    0.7005 C   0  0  0  0  0  3  0  0  0  0  0  0
    0.4870   -2.2193   -1.9292 H   0  0  0  0  0  0  0  0  0  0  0  0
   -1.2778   -2.2230   -1.9259 H   0  0  0  0  0  0  0  0  0  0  0  0
   -0.3905   -3.7509   -1.9318 H   0  0  0  0  0  0  0  0  0  0  0  0
   -1.2695   -3.2711    0.3591 H   0  0  0  0  0  0  0  0  0  0  0  0
    0.4864   -3.2590    0.3597 H   0  0  0  0  0  0  0  0  0  0  0  0
   -0.3185   -1.3940    1.6755 H   0  0  0  0  0  0  0  0  0  0  0  0
    0.4770   -0.7733    0.2173 H   0  0  0  0  0  0  0  0  0  0  0  0
   -0.6525    1.3693    0.2318 H   0  0  0  0  0  0  0  0  0  0  0  0
   -1.5992    0.6603    1.7980 H   0  0  0  0  0  0  0  0  0  0  0  0
   -2.5869    1.0644    0.3734 H   0  0  0  0  0  0  0  0  0  0  0  0
  1  2  1  0
  1  4  1  0
  2  3  2  3
  3  5  1  0
  3 18  1  0
  6  7  1  0
  6 11  1  0
  6 12  1  0
  6 13  1  0
  7  8  1  0
  7 14  1  0
  7 15  1  0
  8  9  1  0
  8 16  1  0
  8 17  1  0
  9 10  1  0
 10 19  1  0
 10 20  1  0
M  RAD  1  10   2
M  END
>  <reaction>  (11) 
rmg_rxn_15407

>  <mol_properties>  (11) 
{"1": {"label": "*4", "atom_type": "N3d"}, "2": {"label": "*3", "atom_type": "Cd"}, "8": {"label": "*0", "atom_type": "O2s"}, "9": {"label": "*1", "atom_type": "Cs"}, "17": {"label": "*2", "atom_type": "H0"}}

>  <type>  (11) 
unop_7

>  <geom_source>  (11) 
Heuristics

$$$$

     RDKit          3D

 20 18  0  0  0  0  0  0  0  0999 V2000
    3.2788   -0.3802    0.1325 O   0  0  0  0  0  0  0  0  0  0  0  0
    1.9583    0.0948    0.2976 N   0  0  0  0  0  0  0  0  0  0  0  0
    1.5233    0.9639   -0.4728 C   0  0  0  0  0  0  0  0  0  0  0  0
    3.3860   -1.0400    0.8308 H   0  0  0  0  0  0  0  0  0  0  0  0
    2.0299    1.4457   -1.3008 H   0  0  0  0  0  0  0  0  0  0  0  0
   -0.9218   -1.8959   -0.7929 C   0  0  0  0  0  0  0  0  0  0  0  0
   -1.1105   -1.2491    0.5730 C   0  0  0  0  0  0  0  0  0  0  0  0
   -2.1893   -0.1628    0.5343 C   0  0  0  0  0  0  0  0  0  0  0  0
   -1.8956    0.8963   -0.3492 O   0  0  0  0  0  0  0  0  0  0  0  0
   -0.9326    1.7894    0.0629 C   0  0  0  0  0  3  0  0  0  0  0  0
   -0.6607   -1.1404   -1.5295 H   0  0  0  0  0  0  0  0  0  0  0  0
   -1.8364   -2.3890   -1.1151 H   0  0  0  0  0  0  0  0  0  0  0  0
   -0.1236   -2.6326   -0.7566 H   0  0  0  0  0  0  0  0  0  0  0  0
   -1.4158   -1.9991    1.3050 H   0  0  0  0  0  0  0  0  0  0  0  0
   -0.1664   -0.8107    0.9006 H   0  0  0  0  0  0  0  0  0  0  0  0
   -3.1280   -0.5840    0.1633 H   0  0  0  0  0  0  0  0  0  0  0  0
   -2.3516    0.2328    1.5478 H   0  0  0  0  0  0  0  0  0  0  0  0
    0.3116    1.3466   -0.2199 H   0  0  0  0  0  0  0  0  0  0  0  0
   -0.9205    1.9690    1.1390 H   0  0  0  0  0  0  0  0  0  0  0  0
   -1.0261    2.6993   -0.5229 H   0  0  0  0  0  0  0  0  0  0  0  0
  1  2  1  0
  1  4  1  0
  2  3  2  3
  3  5  1  0
  3 18  1  0
  6  7  1  0
  6 11  1  0
  6 12  1  0
  6 13  1  0
  7  8  1  0
  7 14  1  0
  7 15  1  0
  8  9  1  0
  8 16  1  0
  8 17  1  0
  9 10  1  0
 10 19  1  0
 10 20  1  0
M  RAD  1  10   2
M  END
>  <reaction>  (12) 
rmg_rxn_15407

>  <mol_properties>  (12) 
{"1": {"label": "*4", "atom_type": "N3d"}, "2": {"label": "*3", "atom_type": "Cd"}, "8": {"label": "*0", "atom_type": "O2s"}, "9": {"label": "*1", "atom_type": "Cs"}, "17": {"label": "*2", "atom_type": "H0"}}

>  <type>  (12) 
unop_8

>  <geom_source>  (12) 
Heuristics

$$$$

     RDKit          3D

 20 18  0  0  0  0  0  0  0  0999 V2000
    1.6981    3.6153   -0.3254 O   0  0  0  0  0  0  0  0  0  0  0  0
    0.6275    2.9357    0.2213 N   0  0  0  0  0  0  0  0  0  0  0  0
    0.5900    1.7318   -0.1566 C   0  0  0  0  0  0  0  0  0  0  0  0
    1.6085    4.4990    0.0368 H   0  0  0  0  0  0  0  0  0  0  0  0
    1.3275    1.3063   -0.8339 H   0  0  0  0  0  0  0  0  0  0  0  0
   -0.1265   -3.0944   -1.4661 C   0  0  0  0  0  0  0  0  0  0  0  0
   -0.1265   -3.0944    0.0568 C   0  0  0  0  0  0  0  0  0  0  0  0
   -0.1265   -1.7018    0.6528 C   0  0  0  0  0  0  0  0  0  0  0  0
   -1.3116   -1.0383    0.2887 O   0  0  0  0  0  0  0  0  0  0  0  0
   -1.3723    0.2728    0.7739 C   0  0  0  0  0  3  0  0  0  0  0  0
    0.7559   -2.5807   -1.8558 H   0  0  0  0  0  0  0  0  0  0  0  0
   -1.0090   -2.5845   -1.8525 H   0  0  0  0  0  0  0  0  0  0  0  0
   -0.1216   -4.1123   -1.8584 H   0  0  0  0  0  0  0  0  0  0  0  0
   -1.0006   -3.6325    0.4324 H   0  0  0  0  0  0  0  0  0  0  0  0
    0.7552   -3.6205    0.4330 H   0  0  0  0  0  0  0  0  0  0  0  0
   -0.0497   -1.7555    1.7489 H   0  0  0  0  0  0  0  0  0  0  0  0
    0.7459   -1.1347    0.2907 H   0  0  0  0  0  0  0  0  0  0  0  0
   -0.3837    1.0079    0.3051 H   0  0  0  0  0  0  0  0  0  0  0  0
   -1.3303    0.2989    1.8713 H   0  0  0  0  0  0  0  0  0  0  0  0
   -2.3180    0.7029    0.4467 H   0  0  0  0  0  0  0  0  0  0  0  0
  1  2  1  0
  1  4  1  0
  2  3  2  3
  3  5  1  0
  3 18  1  0
  6  7  1  0
  6 11  1  0
  6 12  1  0
  6 13  1  0
  7  8  1  0
  7 14  1  0
  7 15  1  0
  8  9  1  0
  8 16  1  0
  8 17  1  0
  9 10  1  0
 10 19  1  0
 10 20  1  0
M  RAD  1  10   2
M  END
>  <reaction>  (13) 
rmg_rxn_15407

>  <mol_properties>  (13) 
{"1": {"label": "*4", "atom_type": "N3d"}, "2": {"label": "*3", "atom_type": "Cd"}, "8": {"label": "*0", "atom_type": "O2s"}, "9": {"label": "*1", "atom_type": "Cs"}, "17": {"label": "*2", "atom_type": "H0"}}

>  <type>  (13) 
unop_9

>  <geom_source>  (13) 
Heuristics

$$$$

     RDKit          3D

 20 18  0  0  0  0  0  0  0  0999 V2000
    3.2778    0.3810   -0.1318 O   0  0  0  0  0  0  0  0  0  0  0  0
    1.9572   -0.0936   -0.2964 N   0  0  0  0  0  0  0  0  0  0  0  0
    1.5243   -0.9672    0.4699 C   0  0  0  0  0  0  0  0  0  0  0  0
    3.3828    1.0452   -0.8264 H   0  0  0  0  0  0  0  0  0  0  0  0
    2.0329   -1.4535    1.2941 H   0  0  0  0  0  0  0  0  0  0  0  0
   -0.9217    1.8970    0.7924 C   0  0  0  0  0  0  0  0  0  0  0  0
   -1.1098    1.2490   -0.5731 C   0  0  0  0  0  0  0  0  0  0  0  0
   -2.1888    0.1629   -0.5339 C   0  0  0  0  0  0  0  0  0  0  0  0
   -1.8950   -0.8960    0.3498 O   0  0  0  0  0  0  0  0  0  0  0  0
   -0.9331   -1.7900   -0.0627 C   0  0  0  0  0  3  0  0  0  0  0  0
   -1.8358    2.3924    1.1126 H   0  0  0  0  0  0  0  0  0  0  0  0
   -0.1219    2.6320    0.7564 H   0  0  0  0  0  0  0  0  0  0  0  0
   -0.6633    1.1418    1.5303 H   0  0  0  0  0  0  0  0  0  0  0  0
   -1.4145    1.9983   -1.3060 H   0  0  0  0  0  0  0  0  0  0  0  0
   -0.1656    0.8099   -0.8996 H   0  0  0  0  0  0  0  0  0  0  0  0
   -3.1272    0.5845   -0.1626 H   0  0  0  0  0  0  0  0  0  0  0  0
   -2.3515   -0.2329   -1.5472 H   0  0  0  0  0  0  0  0  0  0  0  0
    0.3117   -1.3482    0.2185 H   0  0  0  0  0  0  0  0  0  0  0  0
   -0.9223   -1.9702   -1.1387 H   0  0  0  0  0  0  0  0  0  0  0  0
   -1.0268   -2.6995    0.5237 H   0  0  0  0  0  0  0  0  0  0  0  0
  1  2  1  0
  1  4  1  0
  2  3  2  3
  3  5  1  0
  3 18  1  0
  6  7  1  0
  6 11  1  0
  6 12  1  0
  6 13  1  0
  7  8  1  0
  7 14  1  0
  7 15  1  0
  8  9  1  0
  8 16  1  0
  8 17  1  0
  9 10  1  0
 10 19  1  0
 10 20  1  0
M  RAD  1  10   2
M  END
>  <reaction>  (14) 
rmg_rxn_15407

>  <mol_properties>  (14) 
{"1": {"label": "*4", "atom_type": "N3d"}, "2": {"label": "*3", "atom_type": "Cd"}, "8": {"label": "*0", "atom_type": "O2s"}, "9": {"label": "*1", "atom_type": "Cs"}, "17": {"label": "*2", "atom_type": "H0"}}

>  <type>  (14) 
unop_10

>  <geom_source>  (14) 
Heuristics

$$$$

     RDKit          3D

 20 18  0  0  0  0  0  0  0  0999 V2000
    2.0139    3.2385    0.4137 O   0  0  0  0  0  0  0  0  0  0  0  0
    1.4603    1.9747    0.3544 N   0  0  0  0  0  0  0  0  0  0  0  0
    0.3976    1.9564   -0.3266 C   0  0  0  0  0  0  0  0  0  0  0  0
    2.7991    3.1120    0.9499 H   0  0  0  0  0  0  0  0  0  0  0  0
   -0.0112    2.8465   -0.8001 H   0  0  0  0  0  0  0  0  0  0  0  0
   -0.3189   -2.8698   -1.6362 C   0  0  0  0  0  0  0  0  0  0  0  0
   -0.3189   -2.8698   -0.1133 C   0  0  0  0  0  0  0  0  0  0  0  0
   -0.3189   -1.4772    0.4828 C   0  0  0  0  0  0  0  0  0  0  0  0
   -1.5040   -0.8137    0.1186 O   0  0  0  0  0  0  0  0  0  0  0  0
   -1.5648    0.4974    0.6038 C   0  0  0  0  0  3  0  0  0  0  0  0
    0.5634   -2.3561   -2.0259 H   0  0  0  0  0  0  0  0  0  0  0  0
   -1.2014   -2.3599   -2.0226 H   0  0  0  0  0  0  0  0  0  0  0  0
   -0.3140   -3.8878   -2.0285 H   0  0  0  0  0  0  0  0  0  0  0  0
   -1.1931   -3.4079    0.2623 H   0  0  0  0  0  0  0  0  0  0  0  0
    0.5628   -3.3959    0.2630 H   0  0  0  0  0  0  0  0  0  0  0  0
   -0.2421   -1.5309    1.5788 H   0  0  0  0  0  0  0  0  0  0  0  0
    0.5534   -0.9102    0.1206 H   0  0  0  0  0  0  0  0  0  0  0  0
   -0.5761    1.2324    0.1350 H   0  0  0  0  0  0  0  0  0  0  0  0
   -1.5228    0.5235    1.7013 H   0  0  0  0  0  0  0  0  0  0  0  0
   -2.5105    0.9275    0.2767 H   0  0  0  0  0  0  0  0  0  0  0  0
  1  2  1  0
  1  4  1  0
  2  3  2  3
  3  5  1  0
  3 18  1  0
  6  7  1  0
  6 11  1  0
  6 12  1  0
  6 13  1  0
  7  8  1  0
  7 14  1  0
  7 15  1  0
  8  9  1  0
  8 16  1  0
  8 17  1  0
  9 10  1  0
 10 19  1  0
 10 20  1  0
M  RAD  1  10   2
M  END
>  <reaction>  (15) 
rmg_rxn_15407

>  <mol_properties>  (15) 
{"1": {"label": "*4", "atom_type": "N3d"}, "2": {"label": "*3", "atom_type": "Cd"}, "8": {"label": "*0", "atom_type": "O2s"}, "9": {"label": "*1", "atom_type": "Cs"}, "17": {"label": "*2", "atom_type": "H0"}}

>  <type>  (15) 
unop_11

>  <geom_source>  (15) 
Heuristics

$$$$

     RDKit          3D

 20 18  0  0  0  0  0  0  0  0999 V2000
    3.2763    0.3795   -0.1322 O   0  0  0  0  0  0  0  0  0  0  0  0
    1.9565   -0.0967   -0.2983 N   0  0  0  0  0  0  0  0  0  0  0  0
    1.5217   -0.9660    0.4719 C   0  0  0  0  0  0  0  0  0  0  0  0
    3.3834    1.0394   -0.8306 H   0  0  0  0  0  0  0  0  0  0  0  0
    2.0284   -1.4470    1.3005 H   0  0  0  0  0  0  0  0  0  0  0  0
   -0.9178    1.8945    0.7945 C   0  0  0  0  0  0  0  0  0  0  0  0
   -1.1068    1.2502   -0.5727 C   0  0  0  0  0  0  0  0  0  0  0  0
   -2.1871    0.1653   -0.5358 C   0  0  0  0  0  0  0  0  0  0  0  0
   -1.8965   -0.8938    0.3487 O   0  0  0  0  0  0  0  0  0  0  0  0
   -0.9353   -1.7894   -0.0618 C   0  0  0  0  0  3  0  0  0  0  0  0
   -0.1181    2.6296    0.7599 H   0  0  0  0  0  0  0  0  0  0  0  0
   -0.6588    1.1374    1.5303 H   0  0  0  0  0  0  0  0  0  0  0  0
   -1.8316    2.3890    1.1167 H   0  0  0  0  0  0  0  0  0  0  0  0
   -1.4109    2.0016   -1.3037 H   0  0  0  0  0  0  0  0  0  0  0  0
   -0.1632    0.8109   -0.9005 H   0  0  0  0  0  0  0  0  0  0  0  0
   -3.1260    0.5879   -0.1669 H   0  0  0  0  0  0  0  0  0  0  0  0
   -2.3477   -0.2304   -1.5496 H   0  0  0  0  0  0  0  0  0  0  0  0
    0.3098   -1.3483    0.2196 H   0  0  0  0  0  0  0  0  0  0  0  0
   -0.9238   -1.9713   -1.1375 H   0  0  0  0  0  0  0  0  0  0  0  0
   -1.0304   -2.6979    0.5260 H   0  0  0  0  0  0  0  0  0  0  0  0
  1  2  1  0
  1  4  1  0
  2  3  2  3
  3  5  1  0
  3 18  1  0
  6  7  1  0
  6 11  1  0
  6 12  1  0
  6 13  1  0
  7  8  1  0
  7 14  1  0
  7 15  1  0
  8  9  1  0
  8 16  1  0
  8 17  1  0
  9 10  1  0
 10 19  1  0
 10 20  1  0
M  RAD  1  10   2
M  END
>  <reaction>  (16) 
rmg_rxn_15407

>  <mol_properties>  (16) 
{"1": {"label": "*4", "atom_type": "N3d"}, "2": {"label": "*3", "atom_type": "Cd"}, "8": {"label": "*0", "atom_type": "O2s"}, "9": {"label": "*1", "atom_type": "Cs"}, "17": {"label": "*2", "atom_type": "H0"}}

>  <type>  (16) 
unop_12

>  <geom_source>  (16) 
Heuristics

$$$$

     RDKit          3D

 20 18  0  0  0  0  0  0  0  0999 V2000
    1.6042    3.6361    0.2368 O   0  0  0  0  0  0  0  0  0  0  0  0
    1.2906    2.3244    0.5338 N   0  0  0  0  0  0  0  0  0  0  0  0
    0.5067    1.8219   -0.3186 C   0  0  0  0  0  0  0  0  0  0  0  0
    2.1940    3.8901    0.9493 H   0  0  0  0  0  0  0  0  0  0  0  0
    0.1373    2.3797   -1.1765 H   0  0  0  0  0  0  0  0  0  0  0  0
   -0.2099   -3.0042   -1.6281 C   0  0  0  0  0  0  0  0  0  0  0  0
   -0.2099   -3.0042   -0.1052 C   0  0  0  0  0  0  0  0  0  0  0  0
   -0.2099   -1.6116    0.4909 C   0  0  0  0  0  0  0  0  0  0  0  0
   -1.3949   -0.9482    0.1267 O   0  0  0  0  0  0  0  0  0  0  0  0
   -1.4557    0.3629    0.6119 C   0  0  0  0  0  3  0  0  0  0  0  0
    0.6725   -2.4906   -2.0178 H   0  0  0  0  0  0  0  0  0  0  0  0
   -1.0923   -2.4943   -2.0145 H   0  0  0  0  0  0  0  0  0  0  0  0
   -0.2049   -4.0222   -2.0204 H   0  0  0  0  0  0  0  0  0  0  0  0
   -1.0840   -3.5424    0.2704 H   0  0  0  0  0  0  0  0  0  0  0  0
    0.6719   -3.5303    0.2711 H   0  0  0  0  0  0  0  0  0  0  0  0
   -0.1330   -1.6653    1.5869 H   0  0  0  0  0  0  0  0  0  0  0  0
    0.6625   -1.0446    0.1287 H   0  0  0  0  0  0  0  0  0  0  0  0
   -0.4670    1.0980    0.1431 H   0  0  0  0  0  0  0  0  0  0  0  0
   -1.4137    0.3890    1.7094 H   0  0  0  0  0  0  0  0  0  0  0  0
   -2.4014    0.7931    0.2847 H   0  0  0  0  0  0  0  0  0  0  0  0
  1  2  1  0
  1  4  1  0
  2  3  2  3
  3  5  1  0
  3 18  1  0
  6  7  1  0
  6 11  1  0
  6 12  1  0
  6 13  1  0
  7  8  1  0
  7 14  1  0
  7 15  1  0
  8  9  1  0
  8 16  1  0
  8 17  1  0
  9 10  1  0
 10 19  1  0
 10 20  1  0
M  RAD  1  10   2
M  END
>  <reaction>  (17) 
rmg_rxn_15407

>  <mol_properties>  (17) 
{"1": {"label": "*4", "atom_type": "N3d"}, "2": {"label": "*3", "atom_type": "Cd"}, "8": {"label": "*0", "atom_type": "O2s"}, "9": {"label": "*1", "atom_type": "Cs"}, "17": {"label": "*2", "atom_type": "H0"}}

>  <type>  (17) 
unop_13

>  <geom_source>  (17) 
Heuristics

$$$$

     RDKit          3D

 20 18  0  0  0  0  0  0  0  0999 V2000
    1.0458    3.6882   -0.9230 O   0  0  0  0  0  0  0  0  0  0  0  0
    0.5231    2.4101   -0.9395 N   0  0  0  0  0  0  0  0  0  0  0  0
    0.7381    1.7982    0.1435 C   0  0  0  0  0  0  0  0  0  0  0  0
    0.8160    4.0332   -1.7880 H   0  0  0  0  0  0  0  0  0  0  0  0
    1.2749    2.2491    0.9755 H   0  0  0  0  0  0  0  0  0  0  0  0
    0.0216   -3.0280   -1.1660 C   0  0  0  0  0  0  0  0  0  0  0  0
    0.0216   -3.0280    0.3569 C   0  0  0  0  0  0  0  0  0  0  0  0
    0.0216   -1.6354    0.9529 C   0  0  0  0  0  0  0  0  0  0  0  0
   -1.1634   -0.9719    0.5888 O   0  0  0  0  0  0  0  0  0  0  0  0
   -1.2242    0.3392    1.0739 C   0  0  0  0  0  3  0  0  0  0  0  0
    0.9040   -2.5143   -1.5557 H   0  0  0  0  0  0  0  0  0  0  0  0
   -0.8608   -2.5181   -1.5524 H   0  0  0  0  0  0  0  0  0  0  0  0
    0.0265   -4.0460   -1.5583 H   0  0  0  0  0  0  0  0  0  0  0  0
   -0.8525   -3.5661    0.7325 H   0  0  0  0  0  0  0  0  0  0  0  0
    0.9033   -3.5541    0.7331 H   0  0  0  0  0  0  0  0  0  0  0  0
    0.0984   -1.6891    2.0490 H   0  0  0  0  0  0  0  0  0  0  0  0
    0.8940   -1.0684    0.5907 H   0  0  0  0  0  0  0  0  0  0  0  0
   -0.2356    1.0742    0.6052 H   0  0  0  0  0  0  0  0  0  0  0  0
   -1.1822    0.3653    2.1714 H   0  0  0  0  0  0  0  0  0  0  0  0
   -2.1699    0.7693    0.7468 H   0  0  0  0  0  0  0  0  0  0  0  0
  1  2  1  0
  1  4  1  0
  2  3  2  3
  3  5  1  0
  3 18  1  0
  6  7  1  0
  6 11  1  0
  6 12  1  0
  6 13  1  0
  7  8  1  0
  7 14  1  0
  7 15  1  0
  8  9  1  0
  8 16  1  0
  8 17  1  0
  9 10  1  0
 10 19  1  0
 10 20  1  0
M  RAD  1  10   2
M  END
>  <reaction>  (18) 
rmg_rxn_15407

>  <mol_properties>  (18) 
{"1": {"label": "*4", "atom_type": "N3d"}, "2": {"label": "*3", "atom_type": "Cd"}, "8": {"label": "*0", "atom_type": "O2s"}, "9": {"label": "*1", "atom_type": "Cs"}, "17": {"label": "*2", "atom_type": "H0"}}

>  <type>  (18) 
unop_14

>  <geom_source>  (18) 
Heuristics

$$$$

     RDKit          3D

 20 18  0  0  0  0  0  0  0  0999 V2000
    3.2774    0.3794   -0.1331 O   0  0  0  0  0  0  0  0  0  0  0  0
    1.9572   -0.0964   -0.2979 N   0  0  0  0  0  0  0  0  0  0  0  0
    1.5220   -0.9643    0.4735 C   0  0  0  0  0  0  0  0  0  0  0  0
    3.3845    1.0381   -0.8325 H   0  0  0  0  0  0  0  0  0  0  0  0
    2.0280   -1.4445    1.3028 H   0  0  0  0  0  0  0  0  0  0  0  0
   -0.9193    1.8944    0.7945 C   0  0  0  0  0  0  0  0  0  0  0  0
   -1.1077    1.2499   -0.5726 C   0  0  0  0  0  0  0  0  0  0  0  0
   -2.1877    0.1646   -0.5361 C   0  0  0  0  0  0  0  0  0  0  0  0
   -1.8967   -0.8947    0.3482 O   0  0  0  0  0  0  0  0  0  0  0  0
   -0.9342   -1.7891   -0.0620 C   0  0  0  0  0  3  0  0  0  0  0  0
   -1.8332    2.3893    1.1161 H   0  0  0  0  0  0  0  0  0  0  0  0
   -0.1193    2.6292    0.7603 H   0  0  0  0  0  0  0  0  0  0  0  0
   -0.6611    1.1373    1.5306 H   0  0  0  0  0  0  0  0  0  0  0  0
   -1.4117    2.0012   -1.3037 H   0  0  0  0  0  0  0  0  0  0  0  0
   -0.1639    0.8108   -0.9000 H   0  0  0  0  0  0  0  0  0  0  0  0
   -3.1266    0.5867   -0.1669 H   0  0  0  0  0  0  0  0  0  0  0  0
   -2.3482   -0.2309   -1.5499 H   0  0  0  0  0  0  0  0  0  0  0  0
    0.3101   -1.3469    0.2208 H   0  0  0  0  0  0  0  0  0  0  0  0
   -0.9215   -1.9703   -1.1378 H   0  0  0  0  0  0  0  0  0  0  0  0
   -1.0289   -2.6981    0.5251 H   0  0  0  0  0  0  0  0  0  0  0  0
  1  2  1  0
  1  4  1  0
  2  3  2  3
  3  5  1  0
  3 18  1  0
  6  7  1  0
  6 11  1  0
  6 12  1  0
  6 13  1  0
  7  8  1  0
  7 14  1  0
  7 15  1  0
  8  9  1  0
  8 16  1  0
  8 17  1  0
  9 10  1  0
 10 19  1  0
 10 20  1  0
M  RAD  1  10   2
M  END
>  <reaction>  (19) 
rmg_rxn_15407

>  <mol_properties>  (19) 
{"1": {"label": "*4", "atom_type": "N3d"}, "2": {"label": "*3", "atom_type": "Cd"}, "8": {"label": "*0", "atom_type": "O2s"}, "9": {"label": "*1", "atom_type": "Cs"}, "17": {"label": "*2", "atom_type": "H0"}}

>  <type>  (19) 
unop_15

>  <geom_source>  (19) 
Heuristics

$$$$

     RDKit          3D

 20 18  0  0  0  0  0  0  0  0999 V2000
    2.4625    2.4457   -0.4148 O   0  0  0  0  0  0  0  0  0  0  0  0
    1.3948    1.5754   -0.3167 N   0  0  0  0  0  0  0  0  0  0  0  0
    0.3169    2.1784   -0.0554 C   0  0  0  0  0  0  0  0  0  0  0  0
    3.2024    1.8679   -0.6120 H   0  0  0  0  0  0  0  0  0  0  0  0
    0.2645    3.2575    0.0722 H   0  0  0  0  0  0  0  0  0  0  0  0
   -0.3996   -2.6477   -1.3650 C   0  0  0  0  0  0  0  0  0  0  0  0
   -0.3996   -2.6477    0.1579 C   0  0  0  0  0  0  0  0  0  0  0  0
   -0.3996   -1.2552    0.7540 C   0  0  0  0  0  0  0  0  0  0  0  0
   -1.5846   -0.5917    0.3898 O   0  0  0  0  0  0  0  0  0  0  0  0
   -1.6454    0.7194    0.8750 C   0  0  0  0  0  3  0  0  0  0  0  0
    0.4828   -2.1341   -1.7547 H   0  0  0  0  0  0  0  0  0  0  0  0
   -1.2820   -2.1378   -1.7514 H   0  0  0  0  0  0  0  0  0  0  0  0
   -0.3947   -3.6657   -1.7573 H   0  0  0  0  0  0  0  0  0  0  0  0
   -1.2737   -3.1859    0.5335 H   0  0  0  0  0  0  0  0  0  0  0  0
    0.4821   -3.1739    0.5342 H   0  0  0  0  0  0  0  0  0  0  0  0
   -0.3228   -1.3089    1.8500 H   0  0  0  0  0  0  0  0  0  0  0  0
    0.4728   -0.6881    0.3918 H   0  0  0  0  0  0  0  0  0  0  0  0
   -0.6568    1.4545    0.4062 H   0  0  0  0  0  0  0  0  0  0  0  0
   -1.6034    0.7455    1.9725 H   0  0  0  0  0  0  0  0  0  0  0  0
   -2.5911    1.1495    0.5479 H   0  0  0  0  0  0  0  0  0  0  0  0
  1  2  1  0
  1  4  1  0
  2  3  2  3
  3  5  1  0
  3 18  1  0
  6  7  1  0
  6 11  1  0
  6 12  1  0
  6 13  1  0
  7  8  1  0
  7 14  1  0
  7 15  1  0
  8  9  1  0
  8 16  1  0
  8 17  1  0
  9 10  1  0
 10 19  1  0
 10 20  1  0
M  RAD  1  10   2
M  END
>  <reaction>  (20) 
rmg_rxn_15407

>  <mol_properties>  (20) 
{"1": {"label": "*4", "atom_type": "N3d"}, "2": {"label": "*3", "atom_type": "Cd"}, "8": {"label": "*0", "atom_type": "O2s"}, "9": {"label": "*1", "atom_type": "Cs"}, "17": {"label": "*2", "atom_type": "H0"}}

>  <type>  (20) 
unop_16

>  <geom_source>  (20) 
Heuristics

$$$$

     RDKit          3D

 20 18  0  0  0  0  0  0  0  0999 V2000
    1.2455    3.2877   -1.3768 O   0  0  0  0  0  0  0  0  0  0  0  0
    0.7296    2.0609   -1.0083 N   0  0  0  0  0  0  0  0  0  0  0  0
    0.6659    1.9331    0.2459 C   0  0  0  0  0  0  0  0  0  0  0  0
    1.2387    3.2525   -2.3353 H   0  0  0  0  0  0  0  0  0  0  0  0
    0.9867    2.7139    0.9322 H   0  0  0  0  0  0  0  0  0  0  0  0
   -0.0507   -2.8930   -1.0636 C   0  0  0  0  0  0  0  0  0  0  0  0
   -0.0507   -2.8930    0.4593 C   0  0  0  0  0  0  0  0  0  0  0  0
   -0.0507   -1.5004    1.0554 C   0  0  0  0  0  0  0  0  0  0  0  0
   -1.2357   -0.8370    0.6912 O   0  0  0  0  0  0  0  0  0  0  0  0
   -1.2965    0.4741    1.1764 C   0  0  0  0  0  3  0  0  0  0  0  0
    0.8317   -2.3794   -1.4533 H   0  0  0  0  0  0  0  0  0  0  0  0
   -0.9331   -2.3831   -1.4500 H   0  0  0  0  0  0  0  0  0  0  0  0
   -0.0458   -3.9110   -1.4559 H   0  0  0  0  0  0  0  0  0  0  0  0
   -0.9248   -3.4312    0.8349 H   0  0  0  0  0  0  0  0  0  0  0  0
    0.8310   -3.4192    0.8356 H   0  0  0  0  0  0  0  0  0  0  0  0
    0.0261   -1.5541    2.1514 H   0  0  0  0  0  0  0  0  0  0  0  0
    0.8217   -0.9334    0.6932 H   0  0  0  0  0  0  0  0  0  0  0  0
   -0.3078    1.2092    0.7076 H   0  0  0  0  0  0  0  0  0  0  0  0
   -1.2545    0.5002    2.2739 H   0  0  0  0  0  0  0  0  0  0  0  0
   -2.2422    0.9042    0.8492 H   0  0  0  0  0  0  0  0  0  0  0  0
  1  2  1  0
  1  4  1  0
  2  3  2  3
  3  5  1  0
  3 18  1  0
  6  7  1  0
  6 11  1  0
  6 12  1  0
  6 13  1  0
  7  8  1  0
  7 14  1  0
  7 15  1  0
  8  9  1  0
  8 16  1  0
  8 17  1  0
  9 10  1  0
 10 19  1  0
 10 20  1  0
M  RAD  1  10   2
M  END
>  <reaction>  (21) 
rmg_rxn_15407

>  <mol_properties>  (21) 
{"1": {"label": "*4", "atom_type": "N3d"}, "2": {"label": "*3", "atom_type": "Cd"}, "8": {"label": "*0", "atom_type": "O2s"}, "9": {"label": "*1", "atom_type": "Cs"}, "17": {"label": "*2", "atom_type": "H0"}}

>  <type>  (21) 
unop_17

>  <geom_source>  (21) 
Heuristics

$$$$

     RDKit          3D

 20 18  0  0  0  0  0  0  0  0999 V2000
    1.4310    3.7643   -0.2160 O   0  0  0  0  0  0  0  0  0  0  0  0
    0.9959    2.6778    0.5170 N   0  0  0  0  0  0  0  0  0  0  0  0
    0.5872    1.7414   -0.2243 C   0  0  0  0  0  0  0  0  0  0  0  0
    1.7081    4.3894    0.4567 H   0  0  0  0  0  0  0  0  0  0  0  0
    0.5889    1.8095   -1.3101 H   0  0  0  0  0  0  0  0  0  0  0  0
   -0.1293   -3.0847   -1.5339 C   0  0  0  0  0  0  0  0  0  0  0  0
   -0.1293   -3.0847   -0.0110 C   0  0  0  0  0  0  0  0  0  0  0  0
   -0.1293   -1.6921    0.5851 C   0  0  0  0  0  0  0  0  0  0  0  0
   -1.3144   -1.0287    0.2209 O   0  0  0  0  0  0  0  0  0  0  0  0
   -1.3752    0.2824    0.7061 C   0  0  0  0  0  3  0  0  0  0  0  0
    0.7531   -2.5710   -1.9236 H   0  0  0  0  0  0  0  0  0  0  0  0
   -1.0118   -2.5748   -1.9203 H   0  0  0  0  0  0  0  0  0  0  0  0
   -0.1244   -4.1027   -1.9262 H   0  0  0  0  0  0  0  0  0  0  0  0
   -1.0034   -3.6229    0.3646 H   0  0  0  0  0  0  0  0  0  0  0  0
    0.7524   -3.6108    0.3653 H   0  0  0  0  0  0  0  0  0  0  0  0
   -0.0525   -1.7458    1.6811 H   0  0  0  0  0  0  0  0  0  0  0  0
    0.7431   -1.1251    0.2229 H   0  0  0  0  0  0  0  0  0  0  0  0
   -0.3865    1.0175    0.2373 H   0  0  0  0  0  0  0  0  0  0  0  0
   -1.3332    0.3085    1.8036 H   0  0  0  0  0  0  0  0  0  0  0  0
   -2.3208    0.7126    0.3790 H   0  0  0  0  0  0  0  0  0  0  0  0
  1  2  1  0
  1  4  1  0
  2  3  2  3
  3  5  1  0
  3 18  1  0
  6  7  1  0
  6 11  1  0
  6 12  1  0
  6 13  1  0
  7  8  1  0
  7 14  1  0
  7 15  1  0
  8  9  1  0
  8 16  1  0
  8 17  1  0
  9 10  1  0
 10 19  1  0
 10 20  1  0
M  RAD  1  10   2
M  END
>  <reaction>  (22) 
rmg_rxn_15407

>  <mol_properties>  (22) 
{"1": {"label": "*4", "atom_type": "N3d"}, "2": {"label": "*3", "atom_type": "Cd"}, "8": {"label": "*0", "atom_type": "O2s"}, "9": {"label": "*1", "atom_type": "Cs"}, "17": {"label": "*2", "atom_type": "H0"}}

>  <type>  (22) 
unop_18

>  <geom_source>  (22) 
Heuristics

$$$$

     RDKit          3D

 20 18  0  0  0  0  0  0  0  0999 V2000
    2.2026    2.4547   -1.0813 O   0  0  0  0  0  0  0  0  0  0  0  0
    1.2084    1.5993   -0.6491 N   0  0  0  0  0  0  0  0  0  0  0  0
    0.3983    2.1729    0.1307 C   0  0  0  0  0  0  0  0  0  0  0  0
    2.7373    1.9020   -1.6546 H   0  0  0  0  0  0  0  0  0  0  0  0
    0.4959    3.2193    0.4121 H   0  0  0  0  0  0  0  0  0  0  0  0
   -0.3183   -2.6532   -1.1788 C   0  0  0  0  0  0  0  0  0  0  0  0
   -0.3183   -2.6532    0.3441 C   0  0  0  0  0  0  0  0  0  0  0  0
   -0.3183   -1.2607    0.9401 C   0  0  0  0  0  0  0  0  0  0  0  0
   -1.5033   -0.5972    0.5760 O   0  0  0  0  0  0  0  0  0  0  0  0
   -1.5641    0.7139    1.0612 C   0  0  0  0  0  3  0  0  0  0  0  0
    0.5641   -2.1396   -1.5685 H   0  0  0  0  0  0  0  0  0  0  0  0
   -1.2007   -2.1433   -1.5652 H   0  0  0  0  0  0  0  0  0  0  0  0
   -0.3133   -3.6712   -1.5711 H   0  0  0  0  0  0  0  0  0  0  0  0
   -1.1924   -3.1914    0.7197 H   0  0  0  0  0  0  0  0  0  0  0  0
    0.5635   -3.1794    0.7203 H   0  0  0  0  0  0  0  0  0  0  0  0
   -0.2414   -1.3144    2.0362 H   0  0  0  0  0  0  0  0  0  0  0  0
    0.5541   -0.6936    0.5779 H   0  0  0  0  0  0  0  0  0  0  0  0
   -0.5754    1.4490    0.5924 H   0  0  0  0  0  0  0  0  0  0  0  0
   -1.5221    0.7400    2.1586 H   0  0  0  0  0  0  0  0  0  0  0  0
   -2.5098    1.1440    0.7340 H   0  0  0  0  0  0  0  0  0  0  0  0
  1  2  1  0
  1  4  1  0
  2  3  2  3
  3  5  1  0
  3 18  1  0
  6  7  1  0
  6 11  1  0
  6 12  1  0
  6 13  1  0
  7  8  1  0
  7 14  1  0
  7 15  1  0
  8  9  1  0
  8 16  1  0
  8 17  1  0
  9 10  1  0
 10 19  1  0
 10 20  1  0
M  RAD  1  10   2
M  END
>  <reaction>  (23) 
rmg_rxn_15407

>  <mol_properties>  (23) 
{"1": {"label": "*4", "atom_type": "N3d"}, "2": {"label": "*3", "atom_type": "Cd"}, "8": {"label": "*0", "atom_type": "O2s"}, "9": {"label": "*1", "atom_type": "Cs"}, "17": {"label": "*2", "atom_type": "H0"}}

>  <type>  (23) 
unop_19

>  <geom_source>  (23) 
Heuristics

$$$$

     RDKit          3D

 20 18  0  0  0  0  0  0  0  0999 V2000
   -0.4462   -0.7093    0.1088 O   0  0  0  0  0  0  0  0  0  0  0  0
    4.7656    0.7447    0.6062 O   0  0  0  0  0  0  0  0  0  0  0  0
    3.7358    0.0379    0.0308 N   0  0  0  0  0  0  0  0  0  0  0  0
   -2.7369   -0.0069   -0.1119 C   0  0  0  0  0  0  0  0  0  0  0  0
   -1.4413   -0.3761   -0.8361 C   0  0  0  0  0  0  0  0  0  0  0  0
   -2.5798    1.2606    0.7257 C   0  0  0  0  0  0  0  0  0  0  0  0
    0.7449   -1.0314   -0.5709 C   0  0  0  0  0  3  0  0  0  0  0  0
    2.8693   -0.5754    0.7672 C   0  0  0  0  0  0  0  0  0  0  0  0
   -3.0479   -0.8476    0.5456 H   0  0  0  0  0  0  0  0  0  0  0  0
   -3.5384    0.1573   -0.8645 H   0  0  0  0  0  0  0  0  0  0  0  0
   -1.6562   -1.2475   -1.4965 H   0  0  0  0  0  0  0  0  0  0  0  0
   -1.1236    0.4858   -1.4679 H   0  0  0  0  0  0  0  0  0  0  0  0
   -1.8131    1.1125    1.5155 H   0  0  0  0  0  0  0  0  0  0  0  0
   -3.5468    1.5044    1.2140 H   0  0  0  0  0  0  0  0  0  0  0  0
   -2.2828    2.1153    0.0812 H   0  0  0  0  0  0  0  0  0  0  0  0
    2.9410   -0.5419    1.8471 H   0  0  0  0  0  0  0  0  0  0  0  0
    1.9358   -1.2158    0.2291 H   0  0  0  0  0  0  0  0  0  0  0  0
    1.1544   -0.1597   -1.1279 H   0  0  0  0  0  0  0  0  0  0  0  0
    0.6261   -1.9292   -1.2175 H   0  0  0  0  0  0  0  0  0  0  0  0
    5.4401    1.2222    0.0219 H   0  0  0  0  0  0  0  0  0  0  0  0
  1  7  1  0
  1  5  1  0
  2  3  1  0
  2 20  1  0
  3  8  2  3
  4  6  1  0
  4  5  1  0
  4  9  1  0
  4 10  1  0
  5 11  1  0
  5 12  1  0
  6 13  1  0
  6 14  1  0
  6 15  1  0
  7 18  1  0
  7 19  1  0
  8 16  1  0
  8 17  1  0
M  RAD  1   7   2
M  END
>  <reaction>  (24) 
rmg_rxn_15407

>  <mol_properties>  (24) 
{"1": {"label": "*4", "atom_type": "N3d"}, "2": {"label": "*3", "atom_type": "Cd"}, "8": {"label": "*0", "atom_type": "O2s"}, "9": {"label": "*1", "atom_type": "Cs"}, "17": {"label": "*2", "atom_type": "H0"}}

>  <type>  (24) 
unop_20

>  <geom_source>  (24) 
AutoTST

$$$$

     RDKit          3D

 20 18  0  0  0  0  0  0  0  0999 V2000
    1.7038    2.7981   -1.4623 O   0  0  0  0  0  0  0  0  0  0  0  0
    0.9743    1.7708   -0.8972 N   0  0  0  0  0  0  0  0  0  0  0  0
    0.5354    2.0769    0.2461 C   0  0  0  0  0  0  0  0  0  0  0  0
    1.9722    2.4394   -2.3104 H   0  0  0  0  0  0  0  0  0  0  0  0
    0.7248    3.0437    0.7076 H   0  0  0  0  0  0  0  0  0  0  0  0
   -0.1812   -2.7492   -1.0634 C   0  0  0  0  0  0  0  0  0  0  0  0
   -0.1812   -2.7492    0.4595 C   0  0  0  0  0  0  0  0  0  0  0  0
   -0.1812   -1.3566    1.0555 C   0  0  0  0  0  0  0  0  0  0  0  0
   -1.3662   -0.6932    0.6914 O   0  0  0  0  0  0  0  0  0  0  0  0
   -1.4270    0.6179    1.1765 C   0  0  0  0  0  3  0  0  0  0  0  0
    0.7012   -2.2355   -1.4531 H   0  0  0  0  0  0  0  0  0  0  0  0
   -1.0636   -2.2393   -1.4499 H   0  0  0  0  0  0  0  0  0  0  0  0
   -0.1763   -3.7672   -1.4557 H   0  0  0  0  0  0  0  0  0  0  0  0
   -1.0553   -3.2874    0.8351 H   0  0  0  0  0  0  0  0  0  0  0  0
    0.7005   -3.2753    0.8357 H   0  0  0  0  0  0  0  0  0  0  0  0
   -0.1044   -1.4103    2.1516 H   0  0  0  0  0  0  0  0  0  0  0  0
    0.6912   -0.7896    0.6933 H   0  0  0  0  0  0  0  0  0  0  0  0
   -0.4383    1.3530    0.7078 H   0  0  0  0  0  0  0  0  0  0  0  0
   -1.3850    0.6440    2.2740 H   0  0  0  0  0  0  0  0  0  0  0  0
   -2.3727    1.0481    0.8494 H   0  0  0  0  0  0  0  0  0  0  0  0
  1  2  1  0
  1  4  1  0
  2  3  2  3
  3  5  1  0
  3 18  1  0
  6  7  1  0
  6 11  1  0
  6 12  1  0
  6 13  1  0
  7  8  1  0
  7 14  1  0
  7 15  1  0
  8  9  1  0
  8 16  1  0
  8 17  1  0
  9 10  1  0
 10 19  1  0
 10 20  1  0
M  RAD  1  10   2
M  END
>  <reaction>  (25) 
rmg_rxn_15407

>  <mol_properties>  (25) 
{"1": {"label": "*4", "atom_type": "N3d"}, "2": {"label": "*3", "atom_type": "Cd"}, "8": {"label": "*0", "atom_type": "O2s"}, "9": {"label": "*1", "atom_type": "Cs"}, "17": {"label": "*2", "atom_type": "H0"}}

>  <type>  (25) 
unop_21

>  <geom_source>  (25) 
gaussian_log

$$$$
