
     RDKit          3D

  6  5  0  0  0  0  0  0  0  0999 V2000
    1.2314    0.0428    0.5088 O   0  0  0  0  0  0  0  0  0  0  0  0
    0.2987    0.2341   -0.4915 N   0  0  0  0  0  0  0  0  0  0  0  0
   -0.8599   -0.1122   -0.1290 C   0  0  0  0  0  0  0  0  0  0  0  0
    2.0507    0.3401    0.1082 H   0  0  0  0  0  0  0  0  0  0  0  0
   -1.0700   -0.5112    0.8610 H   0  0  0  0  0  0  0  0  0  0  0  0
   -1.6509    0.0064   -0.8574 H   0  0  0  0  0  0  0  0  0  0  0  0
  1  2  1  0
  1  4  1  0
  2  3  2  3
  3  5  1  0
  3  6  1  0
M  END
>  <reaction>  (1) 
rmg_rxn_15580

>  <mol_properties>  (1) 
{"0": {"label": "donator", "atom_type": "O2s"}, "3": {"label": "d_hydrogen", "atom_type": "H0"}}

>  <type>  (1) 
r1h

$$$$

     RDKit          3D

  8  7  0  0  0  0  0  0  0  0999 V2000
    1.7077   -0.1964   -0.0607 C   0  0  0  0  0  3  0  0  0  0  0  0
    0.4209   -0.4565    0.2808 O   0  0  0  0  0  0  0  0  0  0  0  0
   -0.4607    0.4385   -0.2968 N   0  0  0  0  0  0  0  0  0  0  0  0
   -1.6584    0.1416   -0.0244 C   0  0  0  0  0  0  0  0  0  0  0  0
    2.4163   -0.7685    0.5170 H   0  0  0  0  0  0  0  0  0  0  0  0
    1.9214    0.7645   -0.5045 H   0  0  0  0  0  0  0  0  0  0  0  0
   -2.4185    0.7953   -0.4307 H   0  0  0  0  0  0  0  0  0  0  0  0
   -1.9286   -0.7185    0.5831 H   0  0  0  0  0  0  0  0  0  0  0  0
  1  2  1  0
  1  5  1  0
  1  6  1  0
  2  3  1  0
  3  4  2  3
  4  7  1  0
  4  8  1  0
M  RAD  1   1   2
M  END
>  <reaction>  (2) 
rmg_rxn_15580

>  <mol_properties>  (2) 
{"0": {"label": "acceptor", "atom_type": "Cs"}}

>  <type>  (2) 
r2

$$$$

     RDKit          3D

  9  8  0  0  0  0  0  0  0  0999 V2000
   -1.5470   -0.0755   -0.1976 C   0  0  0  0  0  0  0  0  0  0  0  0
   -0.2885    0.4507    0.1749 O   0  0  0  0  0  0  0  0  0  0  0  0
   -0.1502    1.7216   -0.3294 N   0  0  0  0  0  0  0  0  0  0  0  0
    0.9626    2.2353   -0.0219 C   0  0  0  0  0  0  0  0  0  0  0  0
   -1.6392   -0.1356   -1.2844 H   0  0  0  0  0  0  0  0  0  0  0  0
   -2.3597    0.5337    0.2044 H   0  0  0  0  0  0  0  0  0  0  0  0
   -1.5879   -1.0750    0.2318 H   0  0  0  0  0  0  0  0  0  0  0  0
    1.1497    3.2381   -0.3820 H   0  0  0  0  0  0  0  0  0  0  0  0
    1.7060    1.7101    0.5739 H   0  0  0  0  0  0  0  0  0  0  0  0
  1  2  1  0
  1  5  1  0
  1  6  1  0
  1  7  1  0
  2  3  1  0
  3  4  2  3
  4  8  1  0
  4  9  1  0
M  END
>  <reaction>  (3) 
rmg_rxn_15580

>  <mol_properties>  (3) 
{"0": {"label": "a_hydrogen", "atom_type": "H0"}, "1": {"label": "acceptor", "atom_type": "Cs"}}

>  <type>  (3) 
r2h

$$$$

     RDKit          3D

 14 12  0  0  0  0  0  0  0  0999 V2000
    0.5103    1.0100   -1.5033 O   0  0  0  0  0  0  0  0  0  0  0  0
   -0.4523    0.1071   -1.5529 N   0  0  0  0  0  0  0  0  0  0  0  0
   -0.7632   -0.3192   -2.7063 C   0  0  0  0  0  0  0  0  0  0  0  0
    0.6307    1.2617   -0.3056 H   0  0  0  0  0  0  0  0  0  0  0  0
   -0.2733    0.0308   -3.6122 H   0  0  0  0  0  0  0  0  0  0  0  0
   -1.5503   -1.0591   -2.7572 H   0  0  0  0  0  0  0  0  0  0  0  0
    0.6330    1.3972    0.9908 C   0  0  0  0  0  3  0  0  0  0  0  0
   -0.1032    0.3745    1.5205 O   0  0  0  0  0  0  0  0  0  0  0  0
    0.6649   -0.7747    1.6599 N   0  0  0  0  0  0  0  0  0  0  0  0
   -0.0635   -1.7753    1.9066 C   0  0  0  0  0  0  0  0  0  0  0  0
    0.1206    2.3384    1.1738 H   0  0  0  0  0  0  0  0  0  0  0  0
    1.6873    1.3650    1.2632 H   0  0  0  0  0  0  0  0  0  0  0  0
    0.4495   -2.7163    2.0549 H   0  0  0  0  0  0  0  0  0  0  0  0
   -1.1469   -1.7134    1.9655 H   0  0  0  0  0  0  0  0  0  0  0  0
  1  2  1  0
  1  4  1  0
  2  3  2  3
  3  5  1  0
  3  6  1  0
  7  8  1  0
  7 11  1  0
  7 12  1  0
  8  9  1  0
  9 10  2  3
 10 13  1  0
 10 14  1  0
M  RAD  1   7   2
M  END
>  <reaction>  (4) 
rmg_rxn_15580

>  <mol_properties>  (4) 
{"0": {"label": "*1", "atom_type": "O2s"}, "1": {"label": "*0", "atom_type": "N3d"}, "3": {"label": "*2", "atom_type": "H0"}, "6": {"label": "*3", "atom_type": "Cs"}, "7": {"label": "*4", "atom_type": "O2s"}}

>  <type>  (4) 
ts

$$$$

     RDKit          3D

 14 12  0  0  0  0  0  0  0  0999 V2000
   -1.9476    0.7406   -0.2410 O   0  0  0  0  0  0  0  0  0  0  0  0
   -2.2272   -0.4935   -0.1246 N   0  0  0  0  0  0  0  0  0  0  0  0
   -1.4839   -1.4420    0.2231 C   0  0  0  0  0  0  0  0  0  0  0  0
   -0.8095    1.1342    0.0345 H   0  0  0  0  0  0  0  0  0  0  0  0
   -0.4292   -1.3176    0.4807 H   0  0  0  0  0  0  0  0  0  0  0  0
   -1.9187   -2.4249    0.2574 H   0  0  0  0  0  0  0  0  0  0  0  0
    0.3424    1.5699    0.3731 C   0  0  0  0  0  3  0  0  0  0  0  0
    1.3466    0.8500   -0.2689 O   0  0  0  0  0  0  0  0  0  0  0  0
    1.5245   -0.4056    0.2672 N   0  0  0  0  0  0  0  0  0  0  0  0
    2.4764   -1.0865   -0.2060 C   0  0  0  0  0  0  0  0  0  0  0  0
    0.3922    1.4942    1.4585 H   0  0  0  0  0  0  0  0  0  0  0  0
    0.4024    2.5905    0.0120 H   0  0  0  0  0  0  0  0  0  0  0  0
    2.6101   -2.0741    0.1987 H   0  0  0  0  0  0  0  0  0  0  0  0
    3.1512   -0.7340   -0.9791 H   0  0  0  0  0  0  0  0  0  0  0  0
  1  2  1  0
  1  4  1  0
  2  3  2  3
  3  5  1  0
  3  6  1  0
  7  8  1  0
  7 11  1  0
  7 12  1  0
  8  9  1  0
  9 10  2  3
 10 13  1  0
 10 14  1  0
M  RAD  1   7   2
M  END
>  <reaction>  (5) 
rmg_rxn_15580

>  <mol_properties>  (5) 
{"0": {"label": "*1", "atom_type": "O2s"}, "1": {"label": "*0", "atom_type": "N3d"}, "3": {"label": "*2", "atom_type": "H0"}, "6": {"label": "*3", "atom_type": "Cs"}, "7": {"label": "*4", "atom_type": "O2s"}}

>  <type>  (5) 
unop_1

>  <geom_source>  (5) 
crest_best.xyz

$$$$

     RDKit          3D

 14 12  0  0  0  0  0  0  0  0999 V2000
   -0.5724    0.0507   -1.6658 O   0  0  0  0  0  0  0  0  0  0  0  0
   -0.5724   -1.2301   -2.1822 N   0  0  0  0  0  0  0  0  0  0  0  0
   -0.5724   -1.2301   -3.4445 C   0  0  0  0  0  0  0  0  0  0  0  0
   -0.5724   -0.1209   -0.5277 H   0  0  0  0  0  0  0  0  0  0  0  0
   -0.5724   -0.3139   -4.0312 H   0  0  0  0  0  0  0  0  0  0  0  0
   -0.5724   -2.1975   -3.9288 H   0  0  0  0  0  0  0  0  0  0  0  0
   -0.5724   -0.3156    0.7641 C   0  0  0  0  0  3  0  0  0  0  0  0
    0.6064    0.3002    1.2446 O   0  0  0  0  0  0  0  0  0  0  0  0
    0.3566    0.8946    2.4583 N   0  0  0  0  0  0  0  0  0  0  0  0
    1.3837    1.4602    2.9296 C   0  0  0  0  0  0  0  0  0  0  0  0
   -0.9160   -1.0917    1.4517 H   0  0  0  0  0  0  0  0  0  0  0  0
   -1.3662    0.4204    0.6184 H   0  0  0  0  0  0  0  0  0  0  0  0
    1.2699    1.9532    3.8857 H   0  0  0  0  0  0  0  0  0  0  0  0
    2.3413    1.4609    2.4134 H   0  0  0  0  0  0  0  0  0  0  0  0
  1  2  1  0
  1  4  1  0
  2  3  2  3
  3  5  1  0
  3  6  1  0
  7  8  1  0
  7 11  1  0
  7 12  1  0
  8  9  1  0
  9 10  2  3
 10 13  1  0
 10 14  1  0
M  RAD  1   7   2
M  END
>  <reaction>  (6) 
rmg_rxn_15580

>  <mol_properties>  (6) 
{"0": {"label": "*1", "atom_type": "O2s"}, "1": {"label": "*0", "atom_type": "N3d"}, "3": {"label": "*2", "atom_type": "H0"}, "6": {"label": "*3", "atom_type": "Cs"}, "7": {"label": "*4", "atom_type": "O2s"}}

>  <type>  (6) 
unop_2

>  <geom_source>  (6) 
Heuristics

$$$$

     RDKit          3D

 14 12  0  0  0  0  0  0  0  0999 V2000
   -0.4894    1.2497   -1.5414 O   0  0  0  0  0  0  0  0  0  0  0  0
   -0.4894   -0.0311   -2.0577 N   0  0  0  0  0  0  0  0  0  0  0  0
   -0.4894   -0.0311   -3.3201 C   0  0  0  0  0  0  0  0  0  0  0  0
   -0.4894    1.0781   -0.4032 H   0  0  0  0  0  0  0  0  0  0  0  0
   -0.4894    0.8851   -3.9067 H   0  0  0  0  0  0  0  0  0  0  0  0
   -0.4894   -0.9985   -3.8043 H   0  0  0  0  0  0  0  0  0  0  0  0
   -0.4894    0.8833    0.8885 C   0  0  0  0  0  3  0  0  0  0  0  0
    0.1911   -0.3394    1.0919 O   0  0  0  0  0  0  0  0  0  0  0  0
    0.6037   -0.4279    2.3998 N   0  0  0  0  0  0  0  0  0  0  0  0
    1.2189   -1.5071    2.6310 C   0  0  0  0  0  0  0  0  0  0  0  0
   -1.3760    0.9473    1.5235 H   0  0  0  0  0  0  0  0  0  0  0  0
    0.1661    1.7335    1.0902 H   0  0  0  0  0  0  0  0  0  0  0  0
    1.5776   -1.6539    3.6410 H   0  0  0  0  0  0  0  0  0  0  0  0
    1.3882   -2.2610    1.8652 H   0  0  0  0  0  0  0  0  0  0  0  0
  1  2  1  0
  1  4  1  0
  2  3  2  3
  3  5  1  0
  3  6  1  0
  7  8  1  0
  7 11  1  0
  7 12  1  0
  8  9  1  0
  9 10  2  3
 10 13  1  0
 10 14  1  0
M  RAD  1   7   2
M  END
>  <reaction>  (7) 
rmg_rxn_15580

>  <mol_properties>  (7) 
{"0": {"label": "*1", "atom_type": "O2s"}, "1": {"label": "*0", "atom_type": "N3d"}, "3": {"label": "*2", "atom_type": "H0"}, "6": {"label": "*3", "atom_type": "Cs"}, "7": {"label": "*4", "atom_type": "O2s"}}

>  <type>  (7) 
unop_3

>  <geom_source>  (7) 
Heuristics

$$$$

     RDKit          3D

 14 12  0  0  0  0  0  0  0  0999 V2000
   -0.2497   -0.1077   -1.7281 O   0  0  0  0  0  0  0  0  0  0  0  0
   -0.2497   -1.3885   -2.2445 N   0  0  0  0  0  0  0  0  0  0  0  0
   -0.2497   -1.3885   -3.5068 C   0  0  0  0  0  0  0  0  0  0  0  0
   -0.2497   -0.2793   -0.5900 H   0  0  0  0  0  0  0  0  0  0  0  0
   -0.2497   -0.4723   -4.0934 H   0  0  0  0  0  0  0  0  0  0  0  0
   -0.2497   -2.3559   -3.9911 H   0  0  0  0  0  0  0  0  0  0  0  0
   -0.2497   -0.4741    0.7018 C   0  0  0  0  0  3  0  0  0  0  0  0
    0.4308    0.6343    1.2566 O   0  0  0  0  0  0  0  0  0  0  0  0
    0.0039    0.8417    2.5464 N   0  0  0  0  0  0  0  0  0  0  0  0
    0.5856    1.8251    3.0861 C   0  0  0  0  0  0  0  0  0  0  0  0
   -0.0452   -1.3833    1.2716 H   0  0  0  0  0  0  0  0  0  0  0  0
   -1.3271   -0.2964    0.6725 H   0  0  0  0  0  0  0  0  0  0  0  0
    0.3045    2.0551    4.1051 H   0  0  0  0  0  0  0  0  0  0  0  0
    1.3333    2.4209    2.5670 H   0  0  0  0  0  0  0  0  0  0  0  0
  1  2  1  0
  1  4  1  0
  2  3  2  3
  3  5  1  0
  3  6  1  0
  7  8  1  0
  7 11  1  0
  7 12  1  0
  8  9  1  0
  9 10  2  3
 10 13  1  0
 10 14  1  0
M  RAD  1   7   2
M  END
>  <reaction>  (8) 
rmg_rxn_15580

>  <mol_properties>  (8) 
{"0": {"label": "*1", "atom_type": "O2s"}, "1": {"label": "*0", "atom_type": "N3d"}, "3": {"label": "*2", "atom_type": "H0"}, "6": {"label": "*3", "atom_type": "Cs"}, "7": {"label": "*4", "atom_type": "O2s"}}

>  <type>  (8) 
unop_4

>  <geom_source>  (8) 
Heuristics

$$$$

     RDKit          3D

 14 12  0  0  0  0  0  0  0  0999 V2000
    0.7778    0.8596   -1.5646 O   0  0  0  0  0  0  0  0  0  0  0  0
    0.7778   -0.4212   -2.0810 N   0  0  0  0  0  0  0  0  0  0  0  0
    0.7778   -0.4212   -3.3433 C   0  0  0  0  0  0  0  0  0  0  0  0
    0.7778    0.6880   -0.4265 H   0  0  0  0  0  0  0  0  0  0  0  0
    0.7778    0.4950   -3.9299 H   0  0  0  0  0  0  0  0  0  0  0  0
    0.7778   -1.3886   -3.8276 H   0  0  0  0  0  0  0  0  0  0  0  0
    0.7778    0.4932    0.8653 C   0  0  0  0  0  3  0  0  0  0  0  0
   -0.4010   -0.2369    1.1429 O   0  0  0  0  0  0  0  0  0  0  0  0
   -0.8706    0.0987    2.3902 N   0  0  0  0  0  0  0  0  0  0  0  0
   -1.9264   -0.5302    2.6843 C   0  0  0  0  0  0  0  0  0  0  0  0
    0.5821    1.5679    0.8706 H   0  0  0  0  0  0  0  0  0  0  0  0
    1.5609    0.2613    1.5906 H   0  0  0  0  0  0  0  0  0  0  0  0
   -2.3609   -0.3219    3.6529 H   0  0  0  0  0  0  0  0  0  0  0  0
   -2.3883   -1.2480    2.0098 H   0  0  0  0  0  0  0  0  0  0  0  0
  1  2  1  0
  1  4  1  0
  2  3  2  3
  3  5  1  0
  3  6  1  0
  7  8  1  0
  7 11  1  0
  7 12  1  0
  8  9  1  0
  9 10  2  3
 10 13  1  0
 10 14  1  0
M  RAD  1   7   2
M  END
>  <reaction>  (9) 
rmg_rxn_15580

>  <mol_properties>  (9) 
{"0": {"label": "*1", "atom_type": "O2s"}, "1": {"label": "*0", "atom_type": "N3d"}, "3": {"label": "*2", "atom_type": "H0"}, "6": {"label": "*3", "atom_type": "Cs"}, "7": {"label": "*4", "atom_type": "O2s"}}

>  <type>  (9) 
unop_5

>  <geom_source>  (9) 
Heuristics

$$$$

     RDKit          3D

 14 12  0  0  0  0  0  0  0  0999 V2000
   -0.0000   -0.1155   -1.7658 O   0  0  0  0  0  0  0  0  0  0  0  0
   -0.0000   -1.3963   -2.2822 N   0  0  0  0  0  0  0  0  0  0  0  0
   -0.0000   -1.3963   -3.5445 C   0  0  0  0  0  0  0  0  0  0  0  0
   -0.0000   -0.2871   -0.6277 H   0  0  0  0  0  0  0  0  0  0  0  0
   -0.0000   -0.4801   -4.1312 H   0  0  0  0  0  0  0  0  0  0  0  0
   -0.0000   -2.3637   -4.0288 H   0  0  0  0  0  0  0  0  0  0  0  0
   -0.0000   -0.4818    0.6641 C   0  0  0  0  0  3  0  0  0  0  0  0
   -0.0000    0.8069    1.2461 O   0  0  0  0  0  0  0  0  0  0  0  0
    0.0000    0.6964    2.6160 N   0  0  0  0  0  0  0  0  0  0  0  0
    0.0000    1.8258    3.1828 C   0  0  0  0  0  0  0  0  0  0  0  0
    0.8921   -1.0415    0.9540 H   0  0  0  0  0  0  0  0  0  0  0  0
   -0.8921   -1.0415    0.9540 H   0  0  0  0  0  0  0  0  0  0  0  0
    0.0000    1.8253    4.2646 H   0  0  0  0  0  0  0  0  0  0  0  0
   -0.0000    2.7608    2.6266 H   0  0  0  0  0  0  0  0  0  0  0  0
  1  2  1  0
  1  4  1  0
  2  3  2  3
  3  5  1  0
  3  6  1  0
  7  8  1  0
  7 11  1  0
  7 12  1  0
  8  9  1  0
  9 10  2  3
 10 13  1  0
 10 14  1  0
M  RAD  1   7   2
M  END
>  <reaction>  (10) 
rmg_rxn_15580

>  <mol_properties>  (10) 
{"0": {"label": "*1", "atom_type": "O2s"}, "1": {"label": "*0", "atom_type": "N3d"}, "3": {"label": "*2", "atom_type": "H0"}, "6": {"label": "*3", "atom_type": "Cs"}, "7": {"label": "*4", "atom_type": "O2s"}}

>  <type>  (10) 
unop_6

>  <geom_source>  (10) 
Heuristics

$$$$

     RDKit          3D

 14 12  0  0  0  0  0  0  0  0999 V2000
   -1.3683   -0.9874   -0.3242 O   0  0  0  0  0  0  0  0  0  0  0  0
   -1.7634    0.1621    0.1497 N   0  0  0  0  0  0  0  0  0  0  0  0
   -2.9171    0.6387   -0.0122 C   0  0  0  0  0  0  0  0  0  0  0  0
   -0.2036   -1.1363    0.0196 H   0  0  0  0  0  0  0  0  0  0  0  0
   -3.7092    0.1413   -0.5639 H   0  0  0  0  0  0  0  0  0  0  0  0
   -3.1123    1.5993    0.4322 H   0  0  0  0  0  0  0  0  0  0  0  0
    0.9788   -1.2253    0.5240 C   0  0  0  0  0  3  0  0  0  0  0  0
    1.9224   -0.5873   -0.2705 O   0  0  0  0  0  0  0  0  0  0  0  0
    2.0512    0.7484   -0.2509 N   0  0  0  0  0  0  0  0  0  0  0  0
    1.1470    1.5139    0.1778 C   0  0  0  0  0  0  0  0  0  0  0  0
    1.2300   -2.2808    0.5280 H   0  0  0  0  0  0  0  0  0  0  0  0
    0.8977   -0.8016    1.5267 H   0  0  0  0  0  0  0  0  0  0  0  0
    1.3731    2.5658    0.1603 H   0  0  0  0  0  0  0  0  0  0  0  0
    0.1591    1.2060    0.5247 H   0  0  0  0  0  0  0  0  0  0  0  0
  1  2  1  0
  1  4  1  0
  2  3  2  3
  3  5  1  0
  3  6  1  0
  7  8  1  0
  7 11  1  0
  7 12  1  0
  8  9  1  0
  9 10  2  3
 10 13  1  0
 10 14  1  0
M  RAD  1   7   2
M  END
>  <reaction>  (11) 
rmg_rxn_15580

>  <mol_properties>  (11) 
{"0": {"label": "*1", "atom_type": "O2s"}, "1": {"label": "*0", "atom_type": "N3d"}, "3": {"label": "*2", "atom_type": "H0"}, "6": {"label": "*3", "atom_type": "Cs"}, "7": {"label": "*4", "atom_type": "O2s"}}

>  <type>  (11) 
unop_7

>  <geom_source>  (11) 
Heuristics

$$$$

     RDKit          3D

 14 12  0  0  0  0  0  0  0  0999 V2000
    0.7921    0.4074   -1.6089 O   0  0  0  0  0  0  0  0  0  0  0  0
    0.7921   -0.8734   -2.1252 N   0  0  0  0  0  0  0  0  0  0  0  0
    0.7921   -0.8734   -3.3875 C   0  0  0  0  0  0  0  0  0  0  0  0
    0.7921    0.2358   -0.4707 H   0  0  0  0  0  0  0  0  0  0  0  0
    0.7921    0.0428   -3.9742 H   0  0  0  0  0  0  0  0  0  0  0  0
    0.7921   -1.8408   -3.8718 H   0  0  0  0  0  0  0  0  0  0  0  0
    0.7921    0.0410    0.8211 C   0  0  0  0  0  3  0  0  0  0  0  0
   -0.5690   -0.0161    1.2002 O   0  0  0  0  0  0  0  0  0  0  0  0
   -0.7402    0.6162    2.4083 N   0  0  0  0  0  0  0  0  0  0  0  0
   -1.9445    0.5912    2.7901 C   0  0  0  0  0  0  0  0  0  0  0  0
    1.1226    1.0758    0.7062 H   0  0  0  0  0  0  0  0  0  0  0  0
    1.4237   -0.4645    1.5551 H   0  0  0  0  0  0  0  0  0  0  0  0
   -2.1634    1.0695    3.7354 H   0  0  0  0  0  0  0  0  0  0  0  0
   -2.7335    0.1173    2.2102 H   0  0  0  0  0  0  0  0  0  0  0  0
  1  2  1  0
  1  4  1  0
  2  3  2  3
  3  5  1  0
  3  6  1  0
  7  8  1  0
  7 11  1  0
  7 12  1  0
  8  9  1  0
  9 10  2  3
 10 13  1  0
 10 14  1  0
M  RAD  1   7   2
M  END
>  <reaction>  (12) 
rmg_rxn_15580

>  <mol_properties>  (12) 
{"0": {"label": "*1", "atom_type": "O2s"}, "1": {"label": "*0", "atom_type": "N3d"}, "3": {"label": "*2", "atom_type": "H0"}, "6": {"label": "*3", "atom_type": "Cs"}, "7": {"label": "*4", "atom_type": "O2s"}}

>  <type>  (12) 
unop_8

>  <geom_source>  (12) 
Heuristics

$$$$

     RDKit          3D

 14 12  0  0  0  0  0  0  0  0999 V2000
   -1.9481   -0.7403   -0.2402 O   0  0  0  0  0  0  0  0  0  0  0  0
   -2.2272    0.4939   -0.1245 N   0  0  0  0  0  0  0  0  0  0  0  0
   -1.4831    1.4423    0.2224 C   0  0  0  0  0  0  0  0  0  0  0  0
   -0.8101   -1.1339    0.0349 H   0  0  0  0  0  0  0  0  0  0  0  0
   -0.4283    1.3174    0.4795 H   0  0  0  0  0  0  0  0  0  0  0  0
   -1.9173    2.4254    0.2561 H   0  0  0  0  0  0  0  0  0  0  0  0
    0.3420   -1.5700    0.3726 C   0  0  0  0  0  3  0  0  0  0  0  0
    1.3459   -0.8498   -0.2695 O   0  0  0  0  0  0  0  0  0  0  0  0
    1.5252    0.4049    0.2682 N   0  0  0  0  0  0  0  0  0  0  0  0
    2.4765    1.0861   -0.2059 C   0  0  0  0  0  0  0  0  0  0  0  0
    0.4018   -2.5905    0.0108 H   0  0  0  0  0  0  0  0  0  0  0  0
    0.3923   -1.4948    1.4579 H   0  0  0  0  0  0  0  0  0  0  0  0
    2.6116    2.0729    0.2002 H   0  0  0  0  0  0  0  0  0  0  0  0
    3.1498    0.7345   -0.9808 H   0  0  0  0  0  0  0  0  0  0  0  0
  1  2  1  0
  1  4  1  0
  2  3  2  3
  3  5  1  0
  3  6  1  0
  7  8  1  0
  7 11  1  0
  7 12  1  0
  8  9  1  0
  9 10  2  3
 10 13  1  0
 10 14  1  0
M  RAD  1   7   2
M  END
>  <reaction>  (13) 
rmg_rxn_15580

>  <mol_properties>  (13) 
{"0": {"label": "*1", "atom_type": "O2s"}, "1": {"label": "*0", "atom_type": "N3d"}, "3": {"label": "*2", "atom_type": "H0"}, "6": {"label": "*3", "atom_type": "Cs"}, "7": {"label": "*4", "atom_type": "O2s"}}

>  <type>  (13) 
unop_9

>  <geom_source>  (13) 
Heuristics

$$$$

     RDKit          3D

 14 12  0  0  0  0  0  0  0  0999 V2000
    0.5724    0.0507   -1.6658 O   0  0  0  0  0  0  0  0  0  0  0  0
    0.5724   -1.2301   -2.1822 N   0  0  0  0  0  0  0  0  0  0  0  0
    0.5724   -1.2301   -3.4445 C   0  0  0  0  0  0  0  0  0  0  0  0
    0.5724   -0.1209   -0.5277 H   0  0  0  0  0  0  0  0  0  0  0  0
    0.5724   -0.3139   -4.0312 H   0  0  0  0  0  0  0  0  0  0  0  0
    0.5724   -2.1975   -3.9288 H   0  0  0  0  0  0  0  0  0  0  0  0
    0.5724   -0.3156    0.7641 C   0  0  0  0  0  3  0  0  0  0  0  0
   -0.6064    0.3002    1.2446 O   0  0  0  0  0  0  0  0  0  0  0  0
   -0.3566    0.8947    2.4583 N   0  0  0  0  0  0  0  0  0  0  0  0
   -1.3837    1.4602    2.9296 C   0  0  0  0  0  0  0  0  0  0  0  0
    1.3662    0.4204    0.6184 H   0  0  0  0  0  0  0  0  0  0  0  0
    0.9160   -1.0917    1.4517 H   0  0  0  0  0  0  0  0  0  0  0  0
   -1.2699    1.9533    3.8857 H   0  0  0  0  0  0  0  0  0  0  0  0
   -2.3413    1.4608    2.4135 H   0  0  0  0  0  0  0  0  0  0  0  0
  1  2  1  0
  1  4  1  0
  2  3  2  3
  3  5  1  0
  3  6  1  0
  7  8  1  0
  7 11  1  0
  7 12  1  0
  8  9  1  0
  9 10  2  3
 10 13  1  0
 10 14  1  0
M  RAD  1   7   2
M  END
>  <reaction>  (14) 
rmg_rxn_15580

>  <mol_properties>  (14) 
{"0": {"label": "*1", "atom_type": "O2s"}, "1": {"label": "*0", "atom_type": "N3d"}, "3": {"label": "*2", "atom_type": "H0"}, "6": {"label": "*3", "atom_type": "Cs"}, "7": {"label": "*4", "atom_type": "O2s"}}

>  <type>  (14) 
unop_10

>  <geom_source>  (14) 
Heuristics

$$$$

     RDKit          3D

 14 12  0  0  0  0  0  0  0  0999 V2000
   -0.7921    0.4074   -1.6089 O   0  0  0  0  0  0  0  0  0  0  0  0
   -0.7921   -0.8734   -2.1252 N   0  0  0  0  0  0  0  0  0  0  0  0
   -0.7921   -0.8734   -3.3875 C   0  0  0  0  0  0  0  0  0  0  0  0
   -0.7921    0.2358   -0.4707 H   0  0  0  0  0  0  0  0  0  0  0  0
   -0.7921    0.0428   -3.9742 H   0  0  0  0  0  0  0  0  0  0  0  0
   -0.7921   -1.8408   -3.8718 H   0  0  0  0  0  0  0  0  0  0  0  0
   -0.7921    0.0410    0.8211 C   0  0  0  0  0  3  0  0  0  0  0  0
    0.5690   -0.0161    1.2002 O   0  0  0  0  0  0  0  0  0  0  0  0
    0.7402    0.6162    2.4083 N   0  0  0  0  0  0  0  0  0  0  0  0
    1.9445    0.5912    2.7901 C   0  0  0  0  0  0  0  0  0  0  0  0
   -1.4237   -0.4645    1.5551 H   0  0  0  0  0  0  0  0  0  0  0  0
   -1.1226    1.0758    0.7062 H   0  0  0  0  0  0  0  0  0  0  0  0
    2.1634    1.0694    3.7355 H   0  0  0  0  0  0  0  0  0  0  0  0
    2.7336    0.1174    2.2101 H   0  0  0  0  0  0  0  0  0  0  0  0
  1  2  1  0
  1  4  1  0
  2  3  2  3
  3  5  1  0
  3  6  1  0
  7  8  1  0
  7 11  1  0
  7 12  1  0
  8  9  1  0
  9 10  2  3
 10 13  1  0
 10 14  1  0
M  RAD  1   7   2
M  END
>  <reaction>  (15) 
rmg_rxn_15580

>  <mol_properties>  (15) 
{"0": {"label": "*1", "atom_type": "O2s"}, "1": {"label": "*0", "atom_type": "N3d"}, "3": {"label": "*2", "atom_type": "H0"}, "6": {"label": "*3", "atom_type": "Cs"}, "7": {"label": "*4", "atom_type": "O2s"}}

>  <type>  (15) 
unop_11

>  <geom_source>  (15) 
Heuristics

$$$$

     RDKit          3D

 14 12  0  0  0  0  0  0  0  0999 V2000
   -1.9476    0.7406   -0.2410 O   0  0  0  0  0  0  0  0  0  0  0  0
   -2.2272   -0.4935   -0.1246 N   0  0  0  0  0  0  0  0  0  0  0  0
   -1.4839   -1.4420    0.2231 C   0  0  0  0  0  0  0  0  0  0  0  0
   -0.8095    1.1342    0.0345 H   0  0  0  0  0  0  0  0  0  0  0  0
   -0.4292   -1.3176    0.4807 H   0  0  0  0  0  0  0  0  0  0  0  0
   -1.9187   -2.4249    0.2574 H   0  0  0  0  0  0  0  0  0  0  0  0
    0.3424    1.5699    0.3731 C   0  0  0  0  0  3  0  0  0  0  0  0
    1.3466    0.8500   -0.2689 O   0  0  0  0  0  0  0  0  0  0  0  0
    1.5245   -0.4056    0.2672 N   0  0  0  0  0  0  0  0  0  0  0  0
    2.4764   -1.0865   -0.2060 C   0  0  0  0  0  0  0  0  0  0  0  0
    0.3922    1.4942    1.4585 H   0  0  0  0  0  0  0  0  0  0  0  0
    0.4024    2.5905    0.0120 H   0  0  0  0  0  0  0  0  0  0  0  0
    2.6101   -2.0741    0.1987 H   0  0  0  0  0  0  0  0  0  0  0  0
    3.1512   -0.7340   -0.9791 H   0  0  0  0  0  0  0  0  0  0  0  0
  1  2  1  0
  1  4  1  0
  2  3  2  3
  3  5  1  0
  3  6  1  0
  7  8  1  0
  7 11  1  0
  7 12  1  0
  8  9  1  0
  9 10  2  3
 10 13  1  0
 10 14  1  0
M  RAD  1   7   2
M  END
>  <reaction>  (16) 
rmg_rxn_15580

>  <mol_properties>  (16) 
{"0": {"label": "*1", "atom_type": "O2s"}, "1": {"label": "*0", "atom_type": "N3d"}, "3": {"label": "*2", "atom_type": "H0"}, "6": {"label": "*3", "atom_type": "Cs"}, "7": {"label": "*4", "atom_type": "O2s"}}

>  <type>  (16) 
unop_12

>  <geom_source>  (16) 
Heuristics

$$$$

     RDKit          3D

 14 12  0  0  0  0  0  0  0  0999 V2000
    0.4894    1.2496   -1.5414 O   0  0  0  0  0  0  0  0  0  0  0  0
    0.4894   -0.0312   -2.0577 N   0  0  0  0  0  0  0  0  0  0  0  0
    0.4894   -0.0312   -3.3201 C   0  0  0  0  0  0  0  0  0  0  0  0
    0.4894    1.0781   -0.4032 H   0  0  0  0  0  0  0  0  0  0  0  0
    0.4894    0.8851   -3.9067 H   0  0  0  0  0  0  0  0  0  0  0  0
    0.4894   -0.9985   -3.8043 H   0  0  0  0  0  0  0  0  0  0  0  0
    0.4894    0.8833    0.8885 C   0  0  0  0  0  3  0  0  0  0  0  0
   -0.1911   -0.3394    1.0919 O   0  0  0  0  0  0  0  0  0  0  0  0
   -0.6037   -0.4279    2.3998 N   0  0  0  0  0  0  0  0  0  0  0  0
   -1.2189   -1.5071    2.6310 C   0  0  0  0  0  0  0  0  0  0  0  0
   -0.1661    1.7335    1.0902 H   0  0  0  0  0  0  0  0  0  0  0  0
    1.3760    0.9473    1.5235 H   0  0  0  0  0  0  0  0  0  0  0  0
   -1.5776   -1.6539    3.6410 H   0  0  0  0  0  0  0  0  0  0  0  0
   -1.3881   -2.2610    1.8652 H   0  0  0  0  0  0  0  0  0  0  0  0
  1  2  1  0
  1  4  1  0
  2  3  2  3
  3  5  1  0
  3  6  1  0
  7  8  1  0
  7 11  1  0
  7 12  1  0
  8  9  1  0
  9 10  2  3
 10 13  1  0
 10 14  1  0
M  RAD  1   7   2
M  END
>  <reaction>  (17) 
rmg_rxn_15580

>  <mol_properties>  (17) 
{"0": {"label": "*1", "atom_type": "O2s"}, "1": {"label": "*0", "atom_type": "N3d"}, "3": {"label": "*2", "atom_type": "H0"}, "6": {"label": "*3", "atom_type": "Cs"}, "7": {"label": "*4", "atom_type": "O2s"}}

>  <type>  (17) 
unop_13

>  <geom_source>  (17) 
Heuristics

$$$$

     RDKit          3D

 14 12  0  0  0  0  0  0  0  0999 V2000
   -0.7778    0.8596   -1.5646 O   0  0  0  0  0  0  0  0  0  0  0  0
   -0.7778   -0.4212   -2.0810 N   0  0  0  0  0  0  0  0  0  0  0  0
   -0.7778   -0.4212   -3.3433 C   0  0  0  0  0  0  0  0  0  0  0  0
   -0.7778    0.6880   -0.4265 H   0  0  0  0  0  0  0  0  0  0  0  0
   -0.7778    0.4950   -3.9299 H   0  0  0  0  0  0  0  0  0  0  0  0
   -0.7778   -1.3886   -3.8276 H   0  0  0  0  0  0  0  0  0  0  0  0
   -0.7778    0.4932    0.8653 C   0  0  0  0  0  3  0  0  0  0  0  0
    0.4010   -0.2369    1.1429 O   0  0  0  0  0  0  0  0  0  0  0  0
    0.8706    0.0986    2.3902 N   0  0  0  0  0  0  0  0  0  0  0  0
    1.9264   -0.5302    2.6843 C   0  0  0  0  0  0  0  0  0  0  0  0
   -1.5609    0.2613    1.5906 H   0  0  0  0  0  0  0  0  0  0  0  0
   -0.5821    1.5679    0.8706 H   0  0  0  0  0  0  0  0  0  0  0  0
    2.3609   -0.3220    3.6529 H   0  0  0  0  0  0  0  0  0  0  0  0
    2.3883   -1.2480    2.0098 H   0  0  0  0  0  0  0  0  0  0  0  0
  1  2  1  0
  1  4  1  0
  2  3  2  3
  3  5  1  0
  3  6  1  0
  7  8  1  0
  7 11  1  0
  7 12  1  0
  8  9  1  0
  9 10  2  3
 10 13  1  0
 10 14  1  0
M  RAD  1   7   2
M  END
>  <reaction>  (18) 
rmg_rxn_15580

>  <mol_properties>  (18) 
{"0": {"label": "*1", "atom_type": "O2s"}, "1": {"label": "*0", "atom_type": "N3d"}, "3": {"label": "*2", "atom_type": "H0"}, "6": {"label": "*3", "atom_type": "Cs"}, "7": {"label": "*4", "atom_type": "O2s"}}

>  <type>  (18) 
unop_14

>  <geom_source>  (18) 
Heuristics

$$$$

     RDKit          3D

 14 12  0  0  0  0  0  0  0  0999 V2000
    0.2497   -0.1078   -1.7281 O   0  0  0  0  0  0  0  0  0  0  0  0
    0.2497   -1.3886   -2.2445 N   0  0  0  0  0  0  0  0  0  0  0  0
    0.2497   -1.3886   -3.5068 C   0  0  0  0  0  0  0  0  0  0  0  0
    0.2497   -0.2794   -0.5900 H   0  0  0  0  0  0  0  0  0  0  0  0
    0.2497   -0.4723   -4.0934 H   0  0  0  0  0  0  0  0  0  0  0  0
    0.2497   -2.3559   -3.9911 H   0  0  0  0  0  0  0  0  0  0  0  0
    0.2497   -0.4741    0.7018 C   0  0  0  0  0  3  0  0  0  0  0  0
   -0.4308    0.6343    1.2566 O   0  0  0  0  0  0  0  0  0  0  0  0
   -0.0039    0.8417    2.5464 N   0  0  0  0  0  0  0  0  0  0  0  0
   -0.5856    1.8251    3.0861 C   0  0  0  0  0  0  0  0  0  0  0  0
    1.3271   -0.2964    0.6725 H   0  0  0  0  0  0  0  0  0  0  0  0
    0.0452   -1.3833    1.2716 H   0  0  0  0  0  0  0  0  0  0  0  0
   -0.3044    2.0551    4.1051 H   0  0  0  0  0  0  0  0  0  0  0  0
   -1.3333    2.4209    2.5670 H   0  0  0  0  0  0  0  0  0  0  0  0
  1  2  1  0
  1  4  1  0
  2  3  2  3
  3  5  1  0
  3  6  1  0
  7  8  1  0
  7 11  1  0
  7 12  1  0
  8  9  1  0
  9 10  2  3
 10 13  1  0
 10 14  1  0
M  RAD  1   7   2
M  END
>  <reaction>  (19) 
rmg_rxn_15580

>  <mol_properties>  (19) 
{"0": {"label": "*1", "atom_type": "O2s"}, "1": {"label": "*0", "atom_type": "N3d"}, "3": {"label": "*2", "atom_type": "H0"}, "6": {"label": "*3", "atom_type": "Cs"}, "7": {"label": "*4", "atom_type": "O2s"}}

>  <type>  (19) 
unop_15

>  <geom_source>  (19) 
Heuristics

$$$$

     RDKit          3D

 14 12  0  0  0  0  0  0  0  0999 V2000
    0.0000    1.4080   -1.5362 O   0  0  0  0  0  0  0  0  0  0  0  0
    0.0000    0.1272   -2.0525 N   0  0  0  0  0  0  0  0  0  0  0  0
    0.0000    0.1272   -3.3148 C   0  0  0  0  0  0  0  0  0  0  0  0
    0.0000    1.2364   -0.3980 H   0  0  0  0  0  0  0  0  0  0  0  0
    0.0000    1.0435   -3.9015 H   0  0  0  0  0  0  0  0  0  0  0  0
    0.0000   -0.8402   -3.7991 H   0  0  0  0  0  0  0  0  0  0  0  0
    0.0000    1.0417    0.8938 C   0  0  0  0  0  3  0  0  0  0  0  0
    0.0000   -0.3614    1.0699 O   0  0  0  0  0  0  0  0  0  0  0  0
   -0.0000   -0.6597    2.4115 N   0  0  0  0  0  0  0  0  0  0  0  0
   -0.0000   -1.9060    2.6201 C   0  0  0  0  0  0  0  0  0  0  0  0
   -0.8921    1.4910    1.3358 H   0  0  0  0  0  0  0  0  0  0  0  0
    0.8921    1.4910    1.3358 H   0  0  0  0  0  0  0  0  0  0  0  0
   -0.0000   -2.2244    3.6540 H   0  0  0  0  0  0  0  0  0  0  0  0
    0.0000   -2.6354    1.8130 H   0  0  0  0  0  0  0  0  0  0  0  0
  1  2  1  0
  1  4  1  0
  2  3  2  3
  3  5  1  0
  3  6  1  0
  7  8  1  0
  7 11  1  0
  7 12  1  0
  8  9  1  0
  9 10  2  3
 10 13  1  0
 10 14  1  0
M  RAD  1   7   2
M  END
>  <reaction>  (20) 
rmg_rxn_15580

>  <mol_properties>  (20) 
{"0": {"label": "*1", "atom_type": "O2s"}, "1": {"label": "*0", "atom_type": "N3d"}, "3": {"label": "*2", "atom_type": "H0"}, "6": {"label": "*3", "atom_type": "Cs"}, "7": {"label": "*4", "atom_type": "O2s"}}

>  <type>  (20) 
unop_16

>  <geom_source>  (20) 
Heuristics

$$$$

     RDKit          3D

 14 12  0  0  0  0  0  0  0  0999 V2000
    1.4422   -0.8056   -0.2360 O   0  0  0  0  0  0  0  0  0  0  0  0
   -1.9670   -1.0186   -0.2782 O   0  0  0  0  0  1  0  0  0  0  0  0
    1.7633    0.5323   -0.2128 N   0  0  0  0  0  0  0  0  0  0  0  0
   -2.6282   -0.3847    0.7475 N   0  0  0  0  0  0  0  0  0  0  0  0
    0.3063   -1.2561   -0.9541 C   0  0  0  0  0  0  0  0  0  0  0  0
    2.7977    0.9475    0.4404 C   0  0  0  0  0  0  0  0  0  0  0  0
   -2.6798    0.9053    0.7966 C   0  0  0  0  0  0  0  0  0  0  0  0
    0.4199   -1.0097   -2.0306 H   0  0  0  0  0  0  0  0  0  0  0  0
    0.2119   -2.3555   -0.8397 H   0  0  0  0  0  0  0  0  0  0  0  0
   -0.7261   -0.7038   -0.5031 H   0  0  0  0  0  0  0  0  0  0  0  0
    3.4265    0.2495    0.9787 H   0  0  0  0  0  0  0  0  0  0  0  0
    3.0397    2.0014    0.4511 H   0  0  0  0  0  0  0  0  0  0  0  0
   -3.2028    1.3921    1.6083 H   0  0  0  0  0  0  0  0  0  0  0  0
   -2.2036    1.5059    0.0317 H   0  0  0  0  0  0  0  0  0  0  0  0
  1  5  1  0
  1  3  1  0
  2  4  1  0
  3  6  2  3
  4  7  2  3
  5  8  1  0
  5  9  1  0
  5 10  1  0
  6 11  1  0
  6 12  1  0
  7 13  1  0
  7 14  1  0
M  RAD  1   2   2
M  END
>  <reaction>  (21) 
rmg_rxn_15580

>  <mol_properties>  (21) 
{"0": {"label": "*1", "atom_type": "O2s"}, "1": {"label": "*0", "atom_type": "N3d"}, "3": {"label": "*2", "atom_type": "H0"}, "6": {"label": "*3", "atom_type": "Cs"}, "7": {"label": "*4", "atom_type": "O2s"}}

>  <type>  (21) 
unop_17

>  <geom_source>  (21) 
AutoTST

$$$$

     RDKit          3D

 14 12  0  0  0  0  0  0  0  0999 V2000
   -0.4894    1.2496   -1.5414 O   0  0  0  0  0  0  0  0  0  0  0  0
   -0.4894   -0.0312   -2.0577 N   0  0  0  0  0  0  0  0  0  0  0  0
   -0.4894   -0.0312   -3.3201 C   0  0  0  0  0  0  0  0  0  0  0  0
   -0.4894    1.0780   -0.4032 H   0  0  0  0  0  0  0  0  0  0  0  0
   -0.4894    0.8851   -3.9067 H   0  0  0  0  0  0  0  0  0  0  0  0
   -0.4894   -0.9985   -3.8043 H   0  0  0  0  0  0  0  0  0  0  0  0
   -0.4894    0.8833    0.8885 C   0  0  0  0  0  3  0  0  0  0  0  0
    0.1911   -0.3394    1.0919 O   0  0  0  0  0  0  0  0  0  0  0  0
    0.6037   -0.4279    2.3998 N   0  0  0  0  0  0  0  0  0  0  0  0
    1.2189   -1.5071    2.6310 C   0  0  0  0  0  0  0  0  0  0  0  0
   -1.3760    0.9473    1.5235 H   0  0  0  0  0  0  0  0  0  0  0  0
    0.1661    1.7335    1.0902 H   0  0  0  0  0  0  0  0  0  0  0  0
    1.5776   -1.6539    3.6410 H   0  0  0  0  0  0  0  0  0  0  0  0
    1.3882   -2.2610    1.8652 H   0  0  0  0  0  0  0  0  0  0  0  0
  1  2  1  0
  1  4  1  0
  2  3  2  3
  3  5  1  0
  3  6  1  0
  7  8  1  0
  7 11  1  0
  7 12  1  0
  8  9  1  0
  9 10  2  3
 10 13  1  0
 10 14  1  0
M  RAD  1   7   2
M  END
>  <reaction>  (22) 
rmg_rxn_15580

>  <mol_properties>  (22) 
{"0": {"label": "*1", "atom_type": "O2s"}, "1": {"label": "*0", "atom_type": "N3d"}, "3": {"label": "*2", "atom_type": "H0"}, "6": {"label": "*3", "atom_type": "Cs"}, "7": {"label": "*4", "atom_type": "O2s"}}

>  <type>  (22) 
unop_18

>  <geom_source>  (22) 
gaussian_log

$$$$
