
     RDKit          3D

  8  7  0  0  0  0  0  0  0  0999 V2000
    0.9548    0.1194   -0.0790 C   0  0  0  0  0  0  0  0  0  0  0  0
   -0.4838   -0.2649    0.0193 C   0  0  0  0  0  0  0  0  0  0  0  0
   -0.8933   -1.1081    0.8664 N   0  0  0  0  0  0  0  0  0  0  0  0
    1.3360   -0.0983   -1.0800 H   0  0  0  0  0  0  0  0  0  0  0  0
    1.0698    1.1948    0.0786 H   0  0  0  0  0  0  0  0  0  0  0  0
    1.5426   -0.4219    0.6602 H   0  0  0  0  0  0  0  0  0  0  0  0
   -1.1575    0.2324   -0.6905 H   0  0  0  0  0  0  0  0  0  0  0  0
   -1.8989   -1.2455    0.7886 H   0  0  0  0  0  0  0  0  0  0  0  0
  1  2  1  0
  1  4  1  0
  1  5  1  0
  1  6  1  0
  2  3  2  3
  2  7  1  0
  3  8  1  0
M  END
>  <reaction>  (1) 
rmg_rxn_16647

>  <mol_properties>  (1) 
{"2": {"label": "donator", "atom_type": "N3d"}, "7": {"label": "d_hydrogen", "atom_type": "H0"}}

>  <type>  (1) 
r1h

$$$$

     RDKit          3D

 13 12  0  0  0  0  0  0  0  0999 V2000
   -1.5401    1.0768   -0.0810 C   0  0  0  0  0  3  0  0  0  0  0  0
   -0.9872   -0.2180    0.3862 C   0  0  0  0  0  0  0  0  0  0  0  0
    0.4181   -0.1223    0.9560 C   0  0  0  0  0  0  0  0  0  0  0  0
    1.3493    0.4014   -0.0058 O   0  0  0  0  0  0  0  0  0  0  0  0
    1.8614   -0.4592   -0.8810 C   0  0  0  0  0  0  0  0  0  0  0  0
    1.6307   -1.6314   -0.9398 O   0  0  0  0  0  0  0  0  0  0  0  0
   -0.8853    1.8880   -0.3685 H   0  0  0  0  0  0  0  0  0  0  0  0
   -2.5992    1.1812   -0.2705 H   0  0  0  0  0  0  0  0  0  0  0  0
   -0.9798   -0.9570   -0.4274 H   0  0  0  0  0  0  0  0  0  0  0  0
   -1.6301   -0.6513    1.1606 H   0  0  0  0  0  0  0  0  0  0  0  0
    0.7650   -1.0992    1.2919 H   0  0  0  0  0  0  0  0  0  0  0  0
    0.4564    0.5843    1.7836 H   0  0  0  0  0  0  0  0  0  0  0  0
    2.5468    0.0745   -1.5530 H   0  0  0  0  0  0  0  0  0  0  0  0
  1  2  1  0
  1  7  1  0
  1  8  1  0
  2  3  1  0
  2  9  1  0
  2 10  1  0
  3  4  1  0
  3 11  1  0
  3 12  1  0
  4  5  1  0
  5  6  2  0
  5 13  1  0
M  RAD  1   1   2
M  END
>  <reaction>  (2) 
rmg_rxn_16647

>  <mol_properties>  (2) 
{"0": {"label": "acceptor", "atom_type": "Cs"}}

>  <type>  (2) 
r2

$$$$

     RDKit          3D

 14 13  0  0  0  0  0  0  0  0999 V2000
    2.1277    0.0527   -0.0768 C   0  0  0  0  0  0  0  0  0  0  0  0
    0.8550    0.0849    0.7591 C   0  0  0  0  0  0  0  0  0  0  0  0
    0.7150    1.3361    1.5963 C   0  0  0  0  0  0  0  0  0  0  0  0
    0.5975    2.4604    0.7083 O   0  0  0  0  0  0  0  0  0  0  0  0
    0.5113    3.6572    1.2782 C   0  0  0  0  0  0  0  0  0  0  0  0
    0.5224    3.8788    2.4534 O   0  0  0  0  0  0  0  0  0  0  0  0
    3.0138    0.1211    0.5584 H   0  0  0  0  0  0  0  0  0  0  0  0
    2.1544    0.8845   -0.7813 H   0  0  0  0  0  0  0  0  0  0  0  0
    2.1955   -0.8742   -0.6473 H   0  0  0  0  0  0  0  0  0  0  0  0
    0.8361   -0.7663    1.4449 H   0  0  0  0  0  0  0  0  0  0  0  0
   -0.0232   -0.0114    0.1158 H   0  0  0  0  0  0  0  0  0  0  0  0
   -0.1715    1.3001    2.2317 H   0  0  0  0  0  0  0  0  0  0  0  0
    1.5840    1.4884    2.2407 H   0  0  0  0  0  0  0  0  0  0  0  0
    0.4263    4.4265    0.4986 H   0  0  0  0  0  0  0  0  0  0  0  0
  1  2  1  0
  1  7  1  0
  1  8  1  0
  1  9  1  0
  2  3  1  0
  2 10  1  0
  2 11  1  0
  3  4  1  0
  3 12  1  0
  3 13  1  0
  4  5  1  0
  5  6  2  0
  5 14  1  0
M  END
>  <reaction>  (3) 
rmg_rxn_16647

>  <mol_properties>  (3) 
{"0": {"label": "a_hydrogen", "atom_type": "H0"}, "1": {"label": "acceptor", "atom_type": "Cs"}}

>  <type>  (3) 
r2h

$$$$

     RDKit          3D

 21 19  0  0  0  0  0  0  0  0999 V2000
    0.7716   -1.0542   -3.5572 C   0  0  0  0  0  0  0  0  0  0  0  0
    0.8555   -1.1437   -2.0648 C   0  0  0  0  0  0  0  0  0  0  0  0
    1.9220   -0.9021   -1.4420 N   0  0  0  0  0  0  0  0  0  0  0  0
    0.4728   -2.0206   -3.9700 H   0  0  0  0  0  0  0  0  0  0  0  0
    0.0020   -0.3320   -3.8392 H   0  0  0  0  0  0  0  0  0  0  0  0
    1.7281   -0.7566   -3.9831 H   0  0  0  0  0  0  0  0  0  0  0  0
   -0.0695   -1.4161   -1.5457 H   0  0  0  0  0  0  0  0  0  0  0  0
    1.7171   -1.0473   -0.2644 H   0  0  0  0  0  0  0  0  0  0  0  0
    1.3609   -1.1371    1.0814 C   0  0  0  0  0  3  0  0  0  0  0  0
    1.3343    0.2848    1.5681 C   0  0  0  0  0  0  0  0  0  0  0  0
    0.1695    1.0971    1.0373 C   0  0  0  0  0  0  0  0  0  0  0  0
   -1.0633    0.6559    1.6401 O   0  0  0  0  0  0  0  0  0  0  0  0
   -1.9447    0.0028    0.8957 C   0  0  0  0  0  0  0  0  0  0  0  0
   -1.8396   -0.2836   -0.2626 O   0  0  0  0  0  0  0  0  0  0  0  0
    0.4085   -1.6635    1.0839 H   0  0  0  0  0  0  0  0  0  0  0  0
    2.1728   -1.7434    1.4752 H   0  0  0  0  0  0  0  0  0  0  0  0
    2.2547    0.7932    1.2647 H   0  0  0  0  0  0  0  0  0  0  0  0
    1.3119    0.3193    2.6640 H   0  0  0  0  0  0  0  0  0  0  0  0
    0.0903    1.0197   -0.0462 H   0  0  0  0  0  0  0  0  0  0  0  0
    0.2666    2.1443    1.3207 H   0  0  0  0  0  0  0  0  0  0  0  0
   -2.8184   -0.2458    1.5130 H   0  0  0  0  0  0  0  0  0  0  0  0
  1  2  1  0
  1  4  1  0
  1  5  1  0
  1  6  1  0
  2  3  2  3
  2  7  1  0
  3  8  1  0
  9 10  1  0
  9 15  1  0
  9 16  1  0
 10 11  1  0
 10 17  1  0
 10 18  1  0
 11 12  1  0
 11 19  1  0
 11 20  1  0
 12 13  1  0
 13 14  2  0
 13 21  1  0
M  RAD  1   9   2
M  END
>  <reaction>  (4) 
rmg_rxn_16647

>  <mol_properties>  (4) 
{"1": {"label": "*0", "atom_type": "Cd"}, "2": {"label": "*1", "atom_type": "N3d"}, "7": {"label": "*2", "atom_type": "H0"}, "8": {"label": "*3", "atom_type": "Cs"}, "9": {"label": "*4", "atom_type": "Cs"}}

>  <type>  (4) 
ts

$$$$

     RDKit          3D

 21 19  0  0  0  0  0  0  0  0999 V2000
   -3.1201    1.4246   -0.1090 C   0  0  0  0  0  0  0  0  0  0  0  0
   -2.1293    0.3327    0.1594 C   0  0  0  0  0  0  0  0  0  0  0  0
   -2.2094   -0.7872   -0.3651 N   0  0  0  0  0  0  0  0  0  0  0  0
   -2.5895    2.2919   -0.4976 H   0  0  0  0  0  0  0  0  0  0  0  0
   -3.8700    1.0944   -0.8224 H   0  0  0  0  0  0  0  0  0  0  0  0
   -3.5999    1.7100    0.8257 H   0  0  0  0  0  0  0  0  0  0  0  0
   -1.3321    0.6361    0.8504 H   0  0  0  0  0  0  0  0  0  0  0  0
   -1.2974   -1.6010   -0.0616 H   0  0  0  0  0  0  0  0  0  0  0  0
   -0.3081   -2.3540    0.2826 C   0  0  0  0  0  3  0  0  0  0  0  0
    0.8788   -1.4723    0.5713 C   0  0  0  0  0  0  0  0  0  0  0  0
    1.3056   -0.6976   -0.6745 C   0  0  0  0  0  0  0  0  0  0  0  0
    2.3730    0.2161   -0.3881 O   0  0  0  0  0  0  0  0  0  0  0  0
    2.0421    1.3810    0.1278 C   0  0  0  0  0  0  0  0  0  0  0  0
    0.9399    1.7745    0.3792 O   0  0  0  0  0  0  0  0  0  0  0  0
   -0.6497   -2.8981    1.1550 H   0  0  0  0  0  0  0  0  0  0  0  0
   -0.1564   -3.0140   -0.5635 H   0  0  0  0  0  0  0  0  0  0  0  0
    1.7289   -2.0680    0.9251 H   0  0  0  0  0  0  0  0  0  0  0  0
    0.6301   -0.7605    1.3632 H   0  0  0  0  0  0  0  0  0  0  0  0
    0.4548   -0.1373   -1.0753 H   0  0  0  0  0  0  0  0  0  0  0  0
    1.6971   -1.3704   -1.4392 H   0  0  0  0  0  0  0  0  0  0  0  0
    2.9608    1.9694    0.2952 H   0  0  0  0  0  0  0  0  0  0  0  0
  1  2  1  0
  1  4  1  0
  1  5  1  0
  1  6  1  0
  2  3  2  3
  2  7  1  0
  3  8  1  0
  9 10  1  0
  9 15  1  0
  9 16  1  0
 10 11  1  0
 10 17  1  0
 10 18  1  0
 11 12  1  0
 11 19  1  0
 11 20  1  0
 12 13  1  0
 13 14  2  0
 13 21  1  0
M  RAD  1   9   2
M  END
>  <reaction>  (5) 
rmg_rxn_16647

>  <mol_properties>  (5) 
{"1": {"label": "*0", "atom_type": "Cd"}, "2": {"label": "*1", "atom_type": "N3d"}, "7": {"label": "*2", "atom_type": "H0"}, "8": {"label": "*3", "atom_type": "Cs"}, "9": {"label": "*4", "atom_type": "Cs"}}

>  <type>  (5) 
unop_1

>  <geom_source>  (5) 
crest_best.xyz

$$$$

     RDKit          3D

 21 19  0  0  0  0  0  0  0  0999 V2000
   -0.8907   -1.9650   -3.2530 C   0  0  0  0  0  0  0  0  0  0  0  0
   -0.8907   -1.9650   -1.7606 C   0  0  0  0  0  0  0  0  0  0  0  0
   -0.8907   -0.8924   -1.0930 N   0  0  0  0  0  0  0  0  0  0  0  0
   -0.0124   -2.4950   -3.6304 H   0  0  0  0  0  0  0  0  0  0  0  0
   -1.7689   -2.4950   -3.6304 H   0  0  0  0  0  0  0  0  0  0  0  0
   -0.8907   -0.9444   -3.6316 H   0  0  0  0  0  0  0  0  0  0  0  0
   -0.8907   -2.9547   -1.2860 H   0  0  0  0  0  0  0  0  0  0  0  0
   -0.8907   -1.1225    0.1066 H   0  0  0  0  0  0  0  0  0  0  0  0
   -0.8907   -1.3696    1.3941 C   0  0  0  0  0  3  0  0  0  0  0  0
    0.3412   -0.7736    2.0625 C   0  0  0  0  0  0  0  0  0  0  0  0
    1.0039    0.3131    1.2465 C   0  0  0  0  0  0  0  0  0  0  0  0
    0.0840    1.4116    1.1296 O   0  0  0  0  0  0  0  0  0  0  0  0
    0.4875    2.4451    0.3992 C   0  0  0  0  0  0  0  0  0  0  0  0
    1.5385    2.5407   -0.1637 O   0  0  0  0  0  0  0  0  0  0  0  0
   -1.6565   -0.6097    1.2362 H   0  0  0  0  0  0  0  0  0  0  0  0
   -1.3225   -2.1607    2.0080 H   0  0  0  0  0  0  0  0  0  0  0  0
    1.0894   -1.5527    2.2309 H   0  0  0  0  0  0  0  0  0  0  0  0
    0.0816   -0.3711    3.0448 H   0  0  0  0  0  0  0  0  0  0  0  0
    1.2606   -0.0366    0.2438 H   0  0  0  0  0  0  0  0  0  0  0  0
    1.9184    0.6736    1.7204 H   0  0  0  0  0  0  0  0  0  0  0  0
   -0.2986    3.2123    0.3880 H   0  0  0  0  0  0  0  0  0  0  0  0
  1  2  1  0
  1  4  1  0
  1  5  1  0
  1  6  1  0
  2  3  2  3
  2  7  1  0
  3  8  1  0
  9 10  1  0
  9 15  1  0
  9 16  1  0
 10 11  1  0
 10 17  1  0
 10 18  1  0
 11 12  1  0
 11 19  1  0
 11 20  1  0
 12 13  1  0
 13 14  2  0
 13 21  1  0
M  RAD  1   9   2
M  END
>  <reaction>  (6) 
rmg_rxn_16647

>  <mol_properties>  (6) 
{"1": {"label": "*0", "atom_type": "Cd"}, "2": {"label": "*1", "atom_type": "N3d"}, "7": {"label": "*2", "atom_type": "H0"}, "8": {"label": "*3", "atom_type": "Cs"}, "9": {"label": "*4", "atom_type": "Cs"}}

>  <type>  (6) 
unop_2

>  <geom_source>  (6) 
Heuristics

$$$$

     RDKit          3D

 21 19  0  0  0  0  0  0  0  0999 V2000
   -1.5938    0.0609   -3.1934 C   0  0  0  0  0  0  0  0  0  0  0  0
   -1.5938    0.0609   -1.7011 C   0  0  0  0  0  0  0  0  0  0  0  0
   -1.5938    1.1335   -1.0334 N   0  0  0  0  0  0  0  0  0  0  0  0
   -0.7155   -0.4691   -3.5708 H   0  0  0  0  0  0  0  0  0  0  0  0
   -2.4720   -0.4691   -3.5708 H   0  0  0  0  0  0  0  0  0  0  0  0
   -1.5938    1.0815   -3.5720 H   0  0  0  0  0  0  0  0  0  0  0  0
   -1.5938   -0.9288   -1.2264 H   0  0  0  0  0  0  0  0  0  0  0  0
   -1.5938    0.9034    0.1662 H   0  0  0  0  0  0  0  0  0  0  0  0
   -1.5938    0.6563    1.4537 C   0  0  0  0  0  3  0  0  0  0  0  0
   -0.8825   -0.6560    1.7560 C   0  0  0  0  0  0  0  0  0  0  0  0
    0.3730   -0.8635    0.9395 C   0  0  0  0  0  0  0  0  0  0  0  0
    1.3187    0.1567    1.3021 O   0  0  0  0  0  0  0  0  0  0  0  0
    2.4723    0.1541    0.6436 C   0  0  0  0  0  0  0  0  0  0  0  0
    2.7898   -0.6150   -0.2155 O   0  0  0  0  0  0  0  0  0  0  0  0
   -0.9522    1.5095    1.6758 H   0  0  0  0  0  0  0  0  0  0  0  0
   -2.5018    0.7535    2.0497 H   0  0  0  0  0  0  0  0  0  0  0  0
   -1.5469   -1.4986    1.5465 H   0  0  0  0  0  0  0  0  0  0  0  0
   -0.6288   -0.7135    2.8174 H   0  0  0  0  0  0  0  0  0  0  0  0
    0.1728   -0.7903   -0.1320 H   0  0  0  0  0  0  0  0  0  0  0  0
    0.8228   -1.8392    1.1309 H   0  0  0  0  0  0  0  0  0  0  0  0
    3.1028    0.9756    1.0103 H   0  0  0  0  0  0  0  0  0  0  0  0
  1  2  1  0
  1  4  1  0
  1  5  1  0
  1  6  1  0
  2  3  2  3
  2  7  1  0
  3  8  1  0
  9 10  1  0
  9 15  1  0
  9 16  1  0
 10 11  1  0
 10 17  1  0
 10 18  1  0
 11 12  1  0
 11 19  1  0
 11 20  1  0
 12 13  1  0
 13 14  2  0
 13 21  1  0
M  RAD  1   9   2
M  END
>  <reaction>  (7) 
rmg_rxn_16647

>  <mol_properties>  (7) 
{"1": {"label": "*0", "atom_type": "Cd"}, "2": {"label": "*1", "atom_type": "N3d"}, "7": {"label": "*2", "atom_type": "H0"}, "8": {"label": "*3", "atom_type": "Cs"}, "9": {"label": "*4", "atom_type": "Cs"}}

>  <type>  (7) 
unop_3

>  <geom_source>  (7) 
Heuristics

$$$$

     RDKit          3D

 21 19  0  0  0  0  0  0  0  0999 V2000
    0.1018   -2.2320   -3.4573 C   0  0  0  0  0  0  0  0  0  0  0  0
    0.1018   -2.2320   -1.9649 C   0  0  0  0  0  0  0  0  0  0  0  0
    0.1018   -1.1594   -1.2972 N   0  0  0  0  0  0  0  0  0  0  0  0
    0.9800   -2.7620   -3.8347 H   0  0  0  0  0  0  0  0  0  0  0  0
   -0.7765   -2.7620   -3.8347 H   0  0  0  0  0  0  0  0  0  0  0  0
    0.1018   -1.2114   -3.8358 H   0  0  0  0  0  0  0  0  0  0  0  0
    0.1018   -3.2217   -1.4903 H   0  0  0  0  0  0  0  0  0  0  0  0
    0.1018   -1.3896   -0.0976 H   0  0  0  0  0  0  0  0  0  0  0  0
    0.1018   -1.6366    1.1898 C   0  0  0  0  0  3  0  0  0  0  0  0
    0.8130   -0.5293    1.9564 C   0  0  0  0  0  0  0  0  0  0  0  0
    0.7019    0.8272    1.2981 C   0  0  0  0  0  0  0  0  0  0  0  0
   -0.6826    1.2144    1.2972 O   0  0  0  0  0  0  0  0  0  0  0  0
   -0.9725    2.3706    0.7111 C   0  0  0  0  0  0  0  0  0  0  0  0
   -0.1905    3.1102    0.1897 O   0  0  0  0  0  0  0  0  0  0  0  0
   -0.9665   -1.4334    1.1097 H   0  0  0  0  0  0  0  0  0  0  0  0
    0.2253   -2.5978    1.6899 H   0  0  0  0  0  0  0  0  0  0  0  0
    1.8781   -0.7595    2.0441 H   0  0  0  0  0  0  0  0  0  0  0  0
    0.4221   -0.4624    2.9748 H   0  0  0  0  0  0  0  0  0  0  0  0
    1.0595    0.8041    0.2660 H   0  0  0  0  0  0  0  0  0  0  0  0
    1.2750    1.5850    1.8349 H   0  0  0  0  0  0  0  0  0  0  0  0
   -2.0541    2.5513    0.7770 H   0  0  0  0  0  0  0  0  0  0  0  0
  1  2  1  0
  1  4  1  0
  1  5  1  0
  1  6  1  0
  2  3  2  3
  2  7  1  0
  3  8  1  0
  9 10  1  0
  9 15  1  0
  9 16  1  0
 10 11  1  0
 10 17  1  0
 10 18  1  0
 11 12  1  0
 11 19  1  0
 11 20  1  0
 12 13  1  0
 13 14  2  0
 13 21  1  0
M  RAD  1   9   2
M  END
>  <reaction>  (8) 
rmg_rxn_16647

>  <mol_properties>  (8) 
{"1": {"label": "*0", "atom_type": "Cd"}, "2": {"label": "*1", "atom_type": "N3d"}, "7": {"label": "*2", "atom_type": "H0"}, "8": {"label": "*3", "atom_type": "Cs"}, "9": {"label": "*4", "atom_type": "Cs"}}

>  <type>  (8) 
unop_4

>  <geom_source>  (8) 
Heuristics

$$$$

     RDKit          3D

 21 19  0  0  0  0  0  0  0  0999 V2000
    0.2313    1.1274   -3.9894 C   0  0  0  0  0  0  0  0  0  0  0  0
    0.2313    1.1274   -2.4971 C   0  0  0  0  0  0  0  0  0  0  0  0
    0.2313    2.2000   -1.8294 N   0  0  0  0  0  0  0  0  0  0  0  0
    1.1095    0.5974   -4.3668 H   0  0  0  0  0  0  0  0  0  0  0  0
   -0.6470    0.5974   -4.3668 H   0  0  0  0  0  0  0  0  0  0  0  0
    0.2313    2.1480   -4.3680 H   0  0  0  0  0  0  0  0  0  0  0  0
    0.2313    0.1377   -2.0224 H   0  0  0  0  0  0  0  0  0  0  0  0
    0.2313    1.9699   -0.6298 H   0  0  0  0  0  0  0  0  0  0  0  0
    0.2313    1.7228    0.6577 C   0  0  0  0  0  3  0  0  0  0  0  0
   -1.0006    0.9218    1.0581 C   0  0  0  0  0  0  0  0  0  0  0  0
   -0.7900   -0.5745    1.0060 C   0  0  0  0  0  0  0  0  0  0  0  0
    0.2056   -0.9226    1.9827 O   0  0  0  0  0  0  0  0  0  0  0  0
    0.5513   -2.2037    2.0435 C   0  0  0  0  0  0  0  0  0  0  0  0
    0.1109   -3.0839    1.3640 O   0  0  0  0  0  0  0  0  0  0  0  0
    1.0663    1.5182    1.3283 H   0  0  0  0  0  0  0  0  0  0  0  0
    0.0273    2.7936    0.6908 H   0  0  0  0  0  0  0  0  0  0  0  0
   -1.8324    1.1544    0.3879 H   0  0  0  0  0  0  0  0  0  0  0  0
   -1.3223    1.1998    2.0648 H   0  0  0  0  0  0  0  0  0  0  0  0
   -0.4431   -0.8980    0.0219 H   0  0  0  0  0  0  0  0  0  0  0  0
   -1.7074   -1.1198    1.2343 H   0  0  0  0  0  0  0  0  0  0  0  0
    1.3135   -2.3387    2.8231 H   0  0  0  0  0  0  0  0  0  0  0  0
  1  2  1  0
  1  4  1  0
  1  5  1  0
  1  6  1  0
  2  3  2  3
  2  7  1  0
  3  8  1  0
  9 10  1  0
  9 15  1  0
  9 16  1  0
 10 11  1  0
 10 17  1  0
 10 18  1  0
 11 12  1  0
 11 19  1  0
 11 20  1  0
 12 13  1  0
 13 14  2  0
 13 21  1  0
M  RAD  1   9   2
M  END
>  <reaction>  (9) 
rmg_rxn_16647

>  <mol_properties>  (9) 
{"1": {"label": "*0", "atom_type": "Cd"}, "2": {"label": "*1", "atom_type": "N3d"}, "7": {"label": "*2", "atom_type": "H0"}, "8": {"label": "*3", "atom_type": "Cs"}, "9": {"label": "*4", "atom_type": "Cs"}}

>  <type>  (9) 
unop_5

>  <geom_source>  (9) 
Heuristics

$$$$

     RDKit          3D

 21 19  0  0  0  0  0  0  0  0999 V2000
    1.2234   -1.6718   -3.8722 C   0  0  0  0  0  0  0  0  0  0  0  0
    1.2234   -1.6718   -2.3798 C   0  0  0  0  0  0  0  0  0  0  0  0
    1.2234   -0.5991   -1.7122 N   0  0  0  0  0  0  0  0  0  0  0  0
    2.1017   -2.2018   -4.2496 H   0  0  0  0  0  0  0  0  0  0  0  0
    0.3451   -2.2018   -4.2496 H   0  0  0  0  0  0  0  0  0  0  0  0
    1.2234   -0.6511   -4.2508 H   0  0  0  0  0  0  0  0  0  0  0  0
    1.2234   -2.6615   -1.9052 H   0  0  0  0  0  0  0  0  0  0  0  0
    1.2234   -0.8293   -0.5126 H   0  0  0  0  0  0  0  0  0  0  0  0
    1.2234   -1.0763    0.7749 C   0  0  0  0  0  3  0  0  0  0  0  0
    1.2234    0.2181    1.5774 C   0  0  0  0  0  0  0  0  0  0  0  0
    0.0350    1.1069    1.2881 C   0  0  0  0  0  0  0  0  0  0  0  0
   -1.1547    0.4172    1.7070 O   0  0  0  0  0  0  0  0  0  0  0  0
   -2.3075    1.0383    1.4837 C   0  0  0  0  0  0  0  0  0  0  0  0
   -2.4407    2.1102    0.9702 O   0  0  0  0  0  0  0  0  0  0  0  0
    0.3424   -1.6774    1.0016 H   0  0  0  0  0  0  0  0  0  0  0  0
    2.1067   -1.6746    1.0009 H   0  0  0  0  0  0  0  0  0  0  0  0
    2.1226    0.7978    1.3525 H   0  0  0  0  0  0  0  0  0  0  0  0
    1.2508   -0.0000    2.6479 H   0  0  0  0  0  0  0  0  0  0  0  0
   -0.0484    1.3331    0.2225 H   0  0  0  0  0  0  0  0  0  0  0  0
    0.0973    2.0533    1.8280 H   0  0  0  0  0  0  0  0  0  0  0  0
   -3.1345    0.4128    1.8463 H   0  0  0  0  0  0  0  0  0  0  0  0
  1  2  1  0
  1  4  1  0
  1  5  1  0
  1  6  1  0
  2  3  2  3
  2  7  1  0
  3  8  1  0
  9 10  1  0
  9 15  1  0
  9 16  1  0
 10 11  1  0
 10 17  1  0
 10 18  1  0
 11 12  1  0
 11 19  1  0
 11 20  1  0
 12 13  1  0
 13 14  2  0
 13 21  1  0
M  RAD  1   9   2
M  END
>  <reaction>  (10) 
rmg_rxn_16647

>  <mol_properties>  (10) 
{"1": {"label": "*0", "atom_type": "Cd"}, "2": {"label": "*1", "atom_type": "N3d"}, "7": {"label": "*2", "atom_type": "H0"}, "8": {"label": "*3", "atom_type": "Cs"}, "9": {"label": "*4", "atom_type": "Cs"}}

>  <type>  (10) 
unop_6

>  <geom_source>  (10) 
Heuristics

$$$$

     RDKit          3D

 21 19  0  0  0  0  0  0  0  0999 V2000
    0.9053    0.7813   -4.2028 C   0  0  0  0  0  0  0  0  0  0  0  0
    0.9053    0.7813   -2.7105 C   0  0  0  0  0  0  0  0  0  0  0  0
    0.9053    1.8539   -2.0428 N   0  0  0  0  0  0  0  0  0  0  0  0
    1.7836    0.2513   -4.5803 H   0  0  0  0  0  0  0  0  0  0  0  0
    0.0271    0.2513   -4.5803 H   0  0  0  0  0  0  0  0  0  0  0  0
    0.9053    1.8019   -4.5814 H   0  0  0  0  0  0  0  0  0  0  0  0
    0.9053   -0.2084   -2.2359 H   0  0  0  0  0  0  0  0  0  0  0  0
    0.9053    1.6237   -0.8432 H   0  0  0  0  0  0  0  0  0  0  0  0
    0.9053    1.3767    0.4442 C   0  0  0  0  0  3  0  0  0  0  0  0
   -0.5171    1.2742    0.9787 C   0  0  0  0  0  0  0  0  0  0  0  0
   -1.0094   -0.1490    1.1138 C   0  0  0  0  0  0  0  0  0  0  0  0
   -0.2000   -0.8129    2.0991 O   0  0  0  0  0  0  0  0  0  0  0  0
   -0.4657   -2.0964    2.3147 C   0  0  0  0  0  0  0  0  0  0  0  0
   -1.3109   -2.7413    1.7667 O   0  0  0  0  0  0  0  0  0  0  0  0
    1.6110    0.8819    1.1120 H   0  0  0  0  0  0  0  0  0  0  0  0
    1.2098    2.4191    0.3449 H   0  0  0  0  0  0  0  0  0  0  0  0
   -1.2073    1.7922    0.3075 H   0  0  0  0  0  0  0  0  0  0  0  0
   -0.5934    1.7695    1.9498 H   0  0  0  0  0  0  0  0  0  0  0  0
   -0.9293   -0.6938    0.1703 H   0  0  0  0  0  0  0  0  0  0  0  0
   -2.0514   -0.1873    1.4359 H   0  0  0  0  0  0  0  0  0  0  0  0
    0.2158   -2.4853    3.0835 H   0  0  0  0  0  0  0  0  0  0  0  0
  1  2  1  0
  1  4  1  0
  1  5  1  0
  1  6  1  0
  2  3  2  3
  2  7  1  0
  3  8  1  0
  9 10  1  0
  9 15  1  0
  9 16  1  0
 10 11  1  0
 10 17  1  0
 10 18  1  0
 11 12  1  0
 11 19  1  0
 11 20  1  0
 12 13  1  0
 13 14  2  0
 13 21  1  0
M  RAD  1   9   2
M  END
>  <reaction>  (11) 
rmg_rxn_16647

>  <mol_properties>  (11) 
{"1": {"label": "*0", "atom_type": "Cd"}, "2": {"label": "*1", "atom_type": "N3d"}, "7": {"label": "*2", "atom_type": "H0"}, "8": {"label": "*3", "atom_type": "Cs"}, "9": {"label": "*4", "atom_type": "Cs"}}

>  <type>  (11) 
unop_7

>  <geom_source>  (11) 
Heuristics

$$$$

     RDKit          3D

 21 19  0  0  0  0  0  0  0  0999 V2000
    1.3500    0.1863   -4.3244 C   0  0  0  0  0  0  0  0  0  0  0  0
    1.3500    0.1863   -2.8321 C   0  0  0  0  0  0  0  0  0  0  0  0
    1.3500    1.2589   -2.1644 N   0  0  0  0  0  0  0  0  0  0  0  0
    2.2282   -0.3437   -4.7018 H   0  0  0  0  0  0  0  0  0  0  0  0
    0.4717   -0.3437   -4.7018 H   0  0  0  0  0  0  0  0  0  0  0  0
    1.3500    1.2069   -4.7030 H   0  0  0  0  0  0  0  0  0  0  0  0
    1.3500   -0.8034   -2.3574 H   0  0  0  0  0  0  0  0  0  0  0  0
    1.3500    1.0287   -0.9648 H   0  0  0  0  0  0  0  0  0  0  0  0
    1.3500    0.7817    0.3227 C   0  0  0  0  0  3  0  0  0  0  0  0
    0.1181    1.3776    0.9911 C   0  0  0  0  0  0  0  0  0  0  0  0
   -0.9907    0.3746    1.2158 C   0  0  0  0  0  0  0  0  0  0  0  0
   -0.5175   -0.6189    2.1408 O   0  0  0  0  0  0  0  0  0  0  0  0
   -1.3539   -1.6124    2.4200 C   0  0  0  0  0  0  0  0  0  0  0  0
   -2.4549   -1.7511    1.9738 O   0  0  0  0  0  0  0  0  0  0  0  0
    1.7851   -0.0076    0.9363 H   0  0  0  0  0  0  0  0  0  0  0  0
    2.1135    1.5438    0.1630 H   0  0  0  0  0  0  0  0  0  0  0  0
   -0.2925    2.1797    0.3720 H   0  0  0  0  0  0  0  0  0  0  0  0
    0.3880    1.8285    1.9494 H   0  0  0  0  0  0  0  0  0  0  0  0
   -1.2788   -0.1217    0.2862 H   0  0  0  0  0  0  0  0  0  0  0  0
   -1.8819    0.8446    1.6353 H   0  0  0  0  0  0  0  0  0  0  0  0
   -0.8782   -2.2994    3.1331 H   0  0  0  0  0  0  0  0  0  0  0  0
  1  2  1  0
  1  4  1  0
  1  5  1  0
  1  6  1  0
  2  3  2  3
  2  7  1  0
  3  8  1  0
  9 10  1  0
  9 15  1  0
  9 16  1  0
 10 11  1  0
 10 17  1  0
 10 18  1  0
 11 12  1  0
 11 19  1  0
 11 20  1  0
 12 13  1  0
 13 14  2  0
 13 21  1  0
M  RAD  1   9   2
M  END
>  <reaction>  (12) 
rmg_rxn_16647

>  <mol_properties>  (12) 
{"1": {"label": "*0", "atom_type": "Cd"}, "2": {"label": "*1", "atom_type": "N3d"}, "7": {"label": "*2", "atom_type": "H0"}, "8": {"label": "*3", "atom_type": "Cs"}, "9": {"label": "*4", "atom_type": "Cs"}}

>  <type>  (12) 
unop_8

>  <geom_source>  (12) 
Heuristics

$$$$

     RDKit          3D

 21 19  0  0  0  0  0  0  0  0999 V2000
   -1.4584   -1.3522   -3.1403 C   0  0  0  0  0  0  0  0  0  0  0  0
   -1.4584   -1.3522   -1.6479 C   0  0  0  0  0  0  0  0  0  0  0  0
   -1.4584   -0.2796   -0.9803 N   0  0  0  0  0  0  0  0  0  0  0  0
   -0.5801   -1.8822   -3.5177 H   0  0  0  0  0  0  0  0  0  0  0  0
   -2.3366   -1.8822   -3.5177 H   0  0  0  0  0  0  0  0  0  0  0  0
   -1.4584   -0.3316   -3.5189 H   0  0  0  0  0  0  0  0  0  0  0  0
   -1.4584   -2.3419   -1.1733 H   0  0  0  0  0  0  0  0  0  0  0  0
   -1.4584   -0.5098    0.2193 H   0  0  0  0  0  0  0  0  0  0  0  0
   -1.4584   -0.7568    1.5068 C   0  0  0  0  0  3  0  0  0  0  0  0
   -0.0359   -0.8594    2.0412 C   0  0  0  0  0  0  0  0  0  0  0  0
    0.9935   -0.2101    1.1442 C   0  0  0  0  0  0  0  0  0  0  0  0
    0.7220    1.2008    1.0962 O   0  0  0  0  0  0  0  0  0  0  0  0
    1.5088    1.9276    0.3106 C   0  0  0  0  0  0  0  0  0  0  0  0
    2.4142    1.5152   -0.3532 O   0  0  0  0  0  0  0  0  0  0  0  0
   -1.7658    0.2848    1.4094 H   0  0  0  0  0  0  0  0  0  0  0  0
   -2.1621   -1.2548    2.1746 H   0  0  0  0  0  0  0  0  0  0  0  0
    0.2478   -1.9094    2.1511 H   0  0  0  0  0  0  0  0  0  0  0  0
    0.0280   -0.4119    3.0362 H   0  0  0  0  0  0  0  0  0  0  0  0
    0.9511   -0.6094    0.1283 H   0  0  0  0  0  0  0  0  0  0  0  0
    2.0074   -0.3569    1.5204 H   0  0  0  0  0  0  0  0  0  0  0  0
    1.2011    2.9810    0.3611 H   0  0  0  0  0  0  0  0  0  0  0  0
  1  2  1  0
  1  4  1  0
  1  5  1  0
  1  6  1  0
  2  3  2  3
  2  7  1  0
  3  8  1  0
  9 10  1  0
  9 15  1  0
  9 16  1  0
 10 11  1  0
 10 17  1  0
 10 18  1  0
 11 12  1  0
 11 19  1  0
 11 20  1  0
 12 13  1  0
 13 14  2  0
 13 21  1  0
M  RAD  1   9   2
M  END
>  <reaction>  (13) 
rmg_rxn_16647

>  <mol_properties>  (13) 
{"1": {"label": "*0", "atom_type": "Cd"}, "2": {"label": "*1", "atom_type": "N3d"}, "7": {"label": "*2", "atom_type": "H0"}, "8": {"label": "*3", "atom_type": "Cs"}, "9": {"label": "*4", "atom_type": "Cs"}}

>  <type>  (13) 
unop_9

>  <geom_source>  (13) 
Heuristics

$$$$

     RDKit          3D

 21 19  0  0  0  0  0  0  0  0999 V2000
   -3.1201    1.4246   -0.1090 C   0  0  0  0  0  0  0  0  0  0  0  0
   -2.1293    0.3327    0.1594 C   0  0  0  0  0  0  0  0  0  0  0  0
   -2.2094   -0.7872   -0.3651 N   0  0  0  0  0  0  0  0  0  0  0  0
   -2.5895    2.2919   -0.4976 H   0  0  0  0  0  0  0  0  0  0  0  0
   -3.8700    1.0944   -0.8224 H   0  0  0  0  0  0  0  0  0  0  0  0
   -3.5999    1.7100    0.8257 H   0  0  0  0  0  0  0  0  0  0  0  0
   -1.3321    0.6361    0.8504 H   0  0  0  0  0  0  0  0  0  0  0  0
   -1.2974   -1.6010   -0.0616 H   0  0  0  0  0  0  0  0  0  0  0  0
   -0.3081   -2.3540    0.2826 C   0  0  0  0  0  3  0  0  0  0  0  0
    0.8788   -1.4723    0.5713 C   0  0  0  0  0  0  0  0  0  0  0  0
    1.3056   -0.6976   -0.6745 C   0  0  0  0  0  0  0  0  0  0  0  0
    2.3730    0.2161   -0.3881 O   0  0  0  0  0  0  0  0  0  0  0  0
    2.0421    1.3810    0.1278 C   0  0  0  0  0  0  0  0  0  0  0  0
    0.9399    1.7745    0.3792 O   0  0  0  0  0  0  0  0  0  0  0  0
   -0.6497   -2.8981    1.1550 H   0  0  0  0  0  0  0  0  0  0  0  0
   -0.1564   -3.0140   -0.5635 H   0  0  0  0  0  0  0  0  0  0  0  0
    1.7289   -2.0680    0.9251 H   0  0  0  0  0  0  0  0  0  0  0  0
    0.6301   -0.7605    1.3632 H   0  0  0  0  0  0  0  0  0  0  0  0
    0.4548   -0.1373   -1.0753 H   0  0  0  0  0  0  0  0  0  0  0  0
    1.6971   -1.3704   -1.4392 H   0  0  0  0  0  0  0  0  0  0  0  0
    2.9608    1.9694    0.2952 H   0  0  0  0  0  0  0  0  0  0  0  0
  1  2  1  0
  1  4  1  0
  1  5  1  0
  1  6  1  0
  2  3  2  3
  2  7  1  0
  3  8  1  0
  9 10  1  0
  9 15  1  0
  9 16  1  0
 10 11  1  0
 10 17  1  0
 10 18  1  0
 11 12  1  0
 11 19  1  0
 11 20  1  0
 12 13  1  0
 13 14  2  0
 13 21  1  0
M  RAD  1   9   2
M  END
>  <reaction>  (14) 
rmg_rxn_16647

>  <mol_properties>  (14) 
{"1": {"label": "*0", "atom_type": "Cd"}, "2": {"label": "*1", "atom_type": "N3d"}, "7": {"label": "*2", "atom_type": "H0"}, "8": {"label": "*3", "atom_type": "Cs"}, "9": {"label": "*4", "atom_type": "Cs"}}

>  <type>  (14) 
unop_10

>  <geom_source>  (14) 
Heuristics

$$$$

     RDKit          3D

 21 19  0  0  0  0  0  0  0  0999 V2000
   -0.5564    1.1062   -3.7140 C   0  0  0  0  0  0  0  0  0  0  0  0
   -0.5564    1.1062   -2.2217 C   0  0  0  0  0  0  0  0  0  0  0  0
   -0.5564    2.1789   -1.5540 N   0  0  0  0  0  0  0  0  0  0  0  0
    0.3219    0.5762   -4.0914 H   0  0  0  0  0  0  0  0  0  0  0  0
   -1.4346    0.5762   -4.0914 H   0  0  0  0  0  0  0  0  0  0  0  0
   -0.5564    2.1268   -4.0926 H   0  0  0  0  0  0  0  0  0  0  0  0
   -0.5564    0.1165   -1.7470 H   0  0  0  0  0  0  0  0  0  0  0  0
   -0.5564    1.9487   -0.3544 H   0  0  0  0  0  0  0  0  0  0  0  0
   -0.5564    1.7017    0.9331 C   0  0  0  0  0  3  0  0  0  0  0  0
   -1.2676    0.3893    1.2354 C   0  0  0  0  0  0  0  0  0  0  0  0
   -0.4345   -0.8336    0.9246 C   0  0  0  0  0  0  0  0  0  0  0  0
    0.7107   -0.8299    1.7935 O   0  0  0  0  0  0  0  0  0  0  0  0
    1.5831   -1.8175    1.6255 C   0  0  0  0  0  0  0  0  0  0  0  0
    1.4998   -2.7004    0.8231 O   0  0  0  0  0  0  0  0  0  0  0  0
    0.3504    1.8020    1.5301 H   0  0  0  0  0  0  0  0  0  0  0  0
   -1.2007    2.5535    1.1532 H   0  0  0  0  0  0  0  0  0  0  0  0
   -2.1836    0.3151    0.6432 H   0  0  0  0  0  0  0  0  0  0  0  0
   -1.5696    0.3553    2.2851 H   0  0  0  0  0  0  0  0  0  0  0  0
   -0.0878   -0.8316   -0.1114 H   0  0  0  0  0  0  0  0  0  0  0  0
   -0.9938   -1.7561    1.0895 H   0  0  0  0  0  0  0  0  0  0  0  0
    2.4060   -1.7027    2.3442 H   0  0  0  0  0  0  0  0  0  0  0  0
  1  2  1  0
  1  4  1  0
  1  5  1  0
  1  6  1  0
  2  3  2  3
  2  7  1  0
  3  8  1  0
  9 10  1  0
  9 15  1  0
  9 16  1  0
 10 11  1  0
 10 17  1  0
 10 18  1  0
 11 12  1  0
 11 19  1  0
 11 20  1  0
 12 13  1  0
 13 14  2  0
 13 21  1  0
M  RAD  1   9   2
M  END
>  <reaction>  (15) 
rmg_rxn_16647

>  <mol_properties>  (15) 
{"1": {"label": "*0", "atom_type": "Cd"}, "2": {"label": "*1", "atom_type": "N3d"}, "7": {"label": "*2", "atom_type": "H0"}, "8": {"label": "*3", "atom_type": "Cs"}, "9": {"label": "*4", "atom_type": "Cs"}}

>  <type>  (15) 
unop_11

>  <geom_source>  (15) 
Heuristics

$$$$

     RDKit          3D

 21 19  0  0  0  0  0  0  0  0999 V2000
   -1.6700   -0.6441   -3.1071 C   0  0  0  0  0  0  0  0  0  0  0  0
   -1.6700   -0.6441   -1.6148 C   0  0  0  0  0  0  0  0  0  0  0  0
   -1.6700    0.4285   -0.9471 N   0  0  0  0  0  0  0  0  0  0  0  0
   -0.7918   -1.1741   -3.4845 H   0  0  0  0  0  0  0  0  0  0  0  0
   -2.5483   -1.1741   -3.4845 H   0  0  0  0  0  0  0  0  0  0  0  0
   -1.6700    0.3765   -3.4857 H   0  0  0  0  0  0  0  0  0  0  0  0
   -1.6700   -1.6338   -1.1401 H   0  0  0  0  0  0  0  0  0  0  0  0
   -1.6700    0.1983    0.2525 H   0  0  0  0  0  0  0  0  0  0  0  0
   -1.6700   -0.0487    1.5400 C   0  0  0  0  0  3  0  0  0  0  0  0
   -0.4382   -0.8497    1.9404 C   0  0  0  0  0  0  0  0  0  0  0  0
    0.7489   -0.6252    1.0312 C   0  0  0  0  0  0  0  0  0  0  0  0
    1.1523    0.7495    1.1500 O   0  0  0  0  0  0  0  0  0  0  0  0
    2.1623    1.1376    0.3794 C   0  0  0  0  0  0  0  0  0  0  0  0
    2.7594    0.4504   -0.3962 O   0  0  0  0  0  0  0  0  0  0  0  0
   -1.4690    1.0224    1.5752 H   0  0  0  0  0  0  0  0  0  0  0  0
   -2.5048   -0.2570    2.2101 H   0  0  0  0  0  0  0  0  0  0  0  0
   -0.6638   -1.9192    1.9186 H   0  0  0  0  0  0  0  0  0  0  0  0
   -0.1487   -0.6115    2.9669 H   0  0  0  0  0  0  0  0  0  0  0  0
    0.5000   -0.8279   -0.0130 H   0  0  0  0  0  0  0  0  0  0  0  0
    1.5930   -1.2607    1.3044 H   0  0  0  0  0  0  0  0  0  0  0  0
    2.3727    2.2002    0.5625 H   0  0  0  0  0  0  0  0  0  0  0  0
  1  2  1  0
  1  4  1  0
  1  5  1  0
  1  6  1  0
  2  3  2  3
  2  7  1  0
  3  8  1  0
  9 10  1  0
  9 15  1  0
  9 16  1  0
 10 11  1  0
 10 17  1  0
 10 18  1  0
 11 12  1  0
 11 19  1  0
 11 20  1  0
 12 13  1  0
 13 14  2  0
 13 21  1  0
M  RAD  1   9   2
M  END
>  <reaction>  (16) 
rmg_rxn_16647

>  <mol_properties>  (16) 
{"1": {"label": "*0", "atom_type": "Cd"}, "2": {"label": "*1", "atom_type": "N3d"}, "7": {"label": "*2", "atom_type": "H0"}, "8": {"label": "*3", "atom_type": "Cs"}, "9": {"label": "*4", "atom_type": "Cs"}}

>  <type>  (16) 
unop_12

>  <geom_source>  (16) 
Heuristics

$$$$

     RDKit          3D

 21 19  0  0  0  0  0  0  0  0999 V2000
    1.5481   -0.6146   -4.2628 C   0  0  0  0  0  0  0  0  0  0  0  0
    1.5481   -0.6146   -2.7704 C   0  0  0  0  0  0  0  0  0  0  0  0
    1.5481    0.4580   -2.1028 N   0  0  0  0  0  0  0  0  0  0  0  0
    2.4263   -1.1446   -4.6402 H   0  0  0  0  0  0  0  0  0  0  0  0
    0.6698   -1.1446   -4.6402 H   0  0  0  0  0  0  0  0  0  0  0  0
    1.5481    0.4060   -4.6414 H   0  0  0  0  0  0  0  0  0  0  0  0
    1.5481   -1.6043   -2.2958 H   0  0  0  0  0  0  0  0  0  0  0  0
    1.5481    0.2278   -0.9032 H   0  0  0  0  0  0  0  0  0  0  0  0
    1.5481   -0.0192    0.3843 C   0  0  0  0  0  3  0  0  0  0  0  0
    0.8368    1.0881    1.1509 C   0  0  0  0  0  0  0  0  0  0  0  0
   -0.6547    0.8735    1.2750 C   0  0  0  0  0  0  0  0  0  0  0  0
   -0.8746   -0.3122    2.0575 O   0  0  0  0  0  0  0  0  0  0  0  0
   -2.1393   -0.6800    2.2304 C   0  0  0  0  0  0  0  0  0  0  0  0
   -3.1010   -0.1165    1.7967 O   0  0  0  0  0  0  0  0  0  0  0  0
    1.4282   -0.9807    0.8843 H   0  0  0  0  0  0  0  0  0  0  0  0
    2.6157    0.1873    0.3028 H   0  0  0  0  0  0  0  0  0  0  0  0
    0.9843    2.0467    0.6465 H   0  0  0  0  0  0  0  0  0  0  0  0
    1.2647    1.1913    2.1512 H   0  0  0  0  0  0  0  0  0  0  0  0
   -1.1247    0.7402    0.2979 H   0  0  0  0  0  0  0  0  0  0  0  0
   -1.1439    1.7136    1.7708 H   0  0  0  0  0  0  0  0  0  0  0  0
   -2.1730   -1.5927    2.8408 H   0  0  0  0  0  0  0  0  0  0  0  0
  1  2  1  0
  1  4  1  0
  1  5  1  0
  1  6  1  0
  2  3  2  3
  2  7  1  0
  3  8  1  0
  9 10  1  0
  9 15  1  0
  9 16  1  0
 10 11  1  0
 10 17  1  0
 10 18  1  0
 11 12  1  0
 11 19  1  0
 11 20  1  0
 12 13  1  0
 13 14  2  0
 13 21  1  0
M  RAD  1   9   2
M  END
>  <reaction>  (17) 
rmg_rxn_16647

>  <mol_properties>  (17) 
{"1": {"label": "*0", "atom_type": "Cd"}, "2": {"label": "*1", "atom_type": "N3d"}, "7": {"label": "*2", "atom_type": "H0"}, "8": {"label": "*3", "atom_type": "Cs"}, "9": {"label": "*4", "atom_type": "Cs"}}

>  <type>  (17) 
unop_13

>  <geom_source>  (17) 
Heuristics

$$$$

     RDKit          3D

 21 19  0  0  0  0  0  0  0  0999 V2000
   -1.2234    0.6978   -3.4175 C   0  0  0  0  0  0  0  0  0  0  0  0
   -1.2234    0.6978   -1.9252 C   0  0  0  0  0  0  0  0  0  0  0  0
   -1.2234    1.7704   -1.2575 N   0  0  0  0  0  0  0  0  0  0  0  0
   -0.3451    0.1678   -3.7949 H   0  0  0  0  0  0  0  0  0  0  0  0
   -2.1017    0.1678   -3.7949 H   0  0  0  0  0  0  0  0  0  0  0  0
   -1.2234    1.7184   -3.7961 H   0  0  0  0  0  0  0  0  0  0  0  0
   -1.2234   -0.2919   -1.4505 H   0  0  0  0  0  0  0  0  0  0  0  0
   -1.2234    1.5403   -0.0579 H   0  0  0  0  0  0  0  0  0  0  0  0
   -1.2234    1.2932    1.2296 C   0  0  0  0  0  3  0  0  0  0  0  0
   -1.2234   -0.2062    1.4960 C   0  0  0  0  0  0  0  0  0  0  0  0
   -0.0350   -0.9249    0.8982 C   0  0  0  0  0  0  0  0  0  0  0  0
    1.1547   -0.4392    1.5426 O   0  0  0  0  0  0  0  0  0  0  0  0
    2.3075   -0.9336    1.1053 C   0  0  0  0  0  0  0  0  0  0  0  0
    2.4407   -1.7393    0.2315 O   0  0  0  0  0  0  0  0  0  0  0  0
   -0.3424    1.7678    1.6626 H   0  0  0  0  0  0  0  0  0  0  0  0
   -2.1067    1.7654    1.6609 H   0  0  0  0  0  0  0  0  0  0  0  0
   -2.1226   -0.6616    1.0725 H   0  0  0  0  0  0  0  0  0  0  0  0
   -1.2508   -0.3999    2.5712 H   0  0  0  0  0  0  0  0  0  0  0  0
    0.0484   -0.7406   -0.1753 H   0  0  0  0  0  0  0  0  0  0  0  0
   -0.0973   -2.0039    1.0496 H   0  0  0  0  0  0  0  0  0  0  0  0
    3.1345   -0.4867    1.6738 H   0  0  0  0  0  0  0  0  0  0  0  0
  1  2  1  0
  1  4  1  0
  1  5  1  0
  1  6  1  0
  2  3  2  3
  2  7  1  0
  3  8  1  0
  9 10  1  0
  9 15  1  0
  9 16  1  0
 10 11  1  0
 10 17  1  0
 10 18  1  0
 11 12  1  0
 11 19  1  0
 11 20  1  0
 12 13  1  0
 13 14  2  0
 13 21  1  0
M  RAD  1   9   2
M  END
>  <reaction>  (18) 
rmg_rxn_16647

>  <mol_properties>  (18) 
{"1": {"label": "*0", "atom_type": "Cd"}, "2": {"label": "*1", "atom_type": "N3d"}, "7": {"label": "*2", "atom_type": "H0"}, "8": {"label": "*3", "atom_type": "Cs"}, "9": {"label": "*4", "atom_type": "Cs"}}

>  <type>  (18) 
unop_14

>  <geom_source>  (18) 
Heuristics

$$$$

     RDKit          3D

 21 19  0  0  0  0  0  0  0  0999 V2000
   -1.5938    0.0609   -3.1934 C   0  0  0  0  0  0  0  0  0  0  0  0
   -1.5938    0.0609   -1.7011 C   0  0  0  0  0  0  0  0  0  0  0  0
   -1.5938    1.1335   -1.0334 N   0  0  0  0  0  0  0  0  0  0  0  0
   -0.7155   -0.4691   -3.5708 H   0  0  0  0  0  0  0  0  0  0  0  0
   -2.4720   -0.4691   -3.5708 H   0  0  0  0  0  0  0  0  0  0  0  0
   -1.5938    1.0815   -3.5720 H   0  0  0  0  0  0  0  0  0  0  0  0
   -1.5938   -0.9288   -1.2264 H   0  0  0  0  0  0  0  0  0  0  0  0
   -1.5938    0.9034    0.1662 H   0  0  0  0  0  0  0  0  0  0  0  0
   -1.5938    0.6563    1.4537 C   0  0  0  0  0  3  0  0  0  0  0  0
   -0.8825   -0.6560    1.7560 C   0  0  0  0  0  0  0  0  0  0  0  0
    0.3730   -0.8635    0.9395 C   0  0  0  0  0  0  0  0  0  0  0  0
    1.3187    0.1567    1.3021 O   0  0  0  0  0  0  0  0  0  0  0  0
    2.4723    0.1541    0.6436 C   0  0  0  0  0  0  0  0  0  0  0  0
    2.7898   -0.6150   -0.2155 O   0  0  0  0  0  0  0  0  0  0  0  0
   -0.9522    1.5095    1.6758 H   0  0  0  0  0  0  0  0  0  0  0  0
   -2.5018    0.7535    2.0497 H   0  0  0  0  0  0  0  0  0  0  0  0
   -1.5469   -1.4986    1.5465 H   0  0  0  0  0  0  0  0  0  0  0  0
   -0.6288   -0.7135    2.8174 H   0  0  0  0  0  0  0  0  0  0  0  0
    0.1728   -0.7903   -0.1320 H   0  0  0  0  0  0  0  0  0  0  0  0
    0.8228   -1.8392    1.1309 H   0  0  0  0  0  0  0  0  0  0  0  0
    3.1028    0.9756    1.0103 H   0  0  0  0  0  0  0  0  0  0  0  0
  1  2  1  0
  1  4  1  0
  1  5  1  0
  1  6  1  0
  2  3  2  3
  2  7  1  0
  3  8  1  0
  9 10  1  0
  9 15  1  0
  9 16  1  0
 10 11  1  0
 10 17  1  0
 10 18  1  0
 11 12  1  0
 11 19  1  0
 11 20  1  0
 12 13  1  0
 13 14  2  0
 13 21  1  0
M  RAD  1   9   2
M  END
>  <reaction>  (19) 
rmg_rxn_16647

>  <mol_properties>  (19) 
{"1": {"label": "*0", "atom_type": "Cd"}, "2": {"label": "*1", "atom_type": "N3d"}, "7": {"label": "*2", "atom_type": "H0"}, "8": {"label": "*3", "atom_type": "Cs"}, "9": {"label": "*4", "atom_type": "Cs"}}

>  <type>  (19) 
unop_15

>  <geom_source>  (19) 
gaussian_log

$$$$
