
     RDKit          3D

 15 14  0  0  0  0  0  0  0  0999 V2000
   -2.3835    0.3997    0.0000 C   0  0  0  0  0  0  0  0  0  0  0  0
   -1.1799   -0.5215   -0.0000 C   0  0  0  0  0  0  0  0  0  0  0  0
    0.0000    0.2785    0.0000 O   0  0  0  0  0  0  0  0  0  0  0  0
    1.1799   -0.5215    0.0000 C   0  0  0  0  0  0  0  0  0  0  0  0
    2.3835    0.3997   -0.0000 C   0  0  0  0  0  0  0  0  0  0  0  0
   -2.3702    1.0516   -0.8797 H   0  0  0  0  0  0  0  0  0  0  0  0
   -3.3143   -0.1744   -0.0000 H   0  0  0  0  0  0  0  0  0  0  0  0
   -2.3702    1.0516    0.8797 H   0  0  0  0  0  0  0  0  0  0  0  0
   -1.1967   -1.1561    0.8928 H   0  0  0  0  0  0  0  0  0  0  0  0
   -1.1967   -1.1561   -0.8928 H   0  0  0  0  0  0  0  0  0  0  0  0
    1.1967   -1.1561    0.8928 H   0  0  0  0  0  0  0  0  0  0  0  0
    1.1967   -1.1561   -0.8928 H   0  0  0  0  0  0  0  0  0  0  0  0
    2.3702    1.0516    0.8797 H   0  0  0  0  0  0  0  0  0  0  0  0
    3.3143   -0.1744   -0.0000 H   0  0  0  0  0  0  0  0  0  0  0  0
    2.3702    1.0516   -0.8797 H   0  0  0  0  0  0  0  0  0  0  0  0
  1  2  1  0
  1  6  1  0
  1  7  1  0
  1  8  1  0
  2  3  1  0
  2  9  1  0
  2 10  1  0
  3  4  1  0
  4  5  1  0
  4 11  1  0
  4 12  1  0
  5 13  1  0
  5 14  1  0
  5 15  1  0
M  END
>  <reaction>  (1) 
rmg_rxn_1160

>  <mol_properties>  (1) 
{"0": {"label": "donator", "atom_type": "Cs"}, "5": {"label": "d_hydrogen", "atom_type": "H0"}}

>  <type>  (1) 
r1h

$$$$

     RDKit          3D

  1  0  0  0  0  0  0  0  0  0999 V2000
    0.0000    0.0000    0.0000 O   0  0  0  0  0 15  0  0  0  0  0  0
M  END
>  <reaction>  (2) 
rmg_rxn_1160

>  <mol_properties>  (2) 
{"0": {"label": "acceptor", "atom_type": "O2s"}}

>  <type>  (2) 
r2

$$$$

     RDKit          3D

  2  1  0  0  0  0  0  0  0  0999 V2000
    0.0000    0.0000    0.1079 O   0  0  0  0  0  1  0  0  0  0  0  0
    0.0000    0.0000   -0.8631 H   0  0  0  0  0  0  0  0  0  0  0  0
  1  2  1  0
M  RAD  1   1   2
M  END
>  <reaction>  (3) 
rmg_rxn_1160

>  <mol_properties>  (3) 
{"0": {"label": "acceptor", "atom_type": "O2s"}, "1": {"label": "a_hydrogen", "atom_type": "H0"}}

>  <type>  (3) 
r2h

$$$$

     RDKit          3D

 16 14  0  0  0  0  0  0  0  0999 V2000
   -2.6197    1.5044   -0.2089 O   0  0  0  0  0  1  0  0  0  0  0  0
   -1.8433   -0.7767    0.3748 C   0  0  0  0  0  3  0  0  0  0  0  0
   -0.4935   -1.0584   -0.2546 C   0  0  0  0  0  0  0  0  0  0  0  0
    0.4363   -0.0874    0.2194 O   0  0  0  0  0  0  0  0  0  0  0  0
    1.7356   -0.2881   -0.3315 C   0  0  0  0  0  0  0  0  0  0  0  0
    2.6599    0.7794    0.2193 C   0  0  0  0  0  0  0  0  0  0  0  0
   -2.2548    0.4323    0.0654 H   0  0  0  0  0  0  0  0  0  0  0  0
   -2.5900   -1.5009    0.0374 H   0  0  0  0  0  0  0  0  0  0  0  0
   -1.7763   -0.8206    1.4669 H   0  0  0  0  0  0  0  0  0  0  0  0
   -0.1549   -2.0622    0.0244 H   0  0  0  0  0  0  0  0  0  0  0  0
   -0.5709   -0.9951   -1.3455 H   0  0  0  0  0  0  0  0  0  0  0  0
    2.1061   -1.2809   -0.0536 H   0  0  0  0  0  0  0  0  0  0  0  0
    1.6901   -0.2139   -1.4235 H   0  0  0  0  0  0  0  0  0  0  0  0
    2.7017    0.7268    1.3123 H   0  0  0  0  0  0  0  0  0  0  0  0
    3.6718    0.6628   -0.1787 H   0  0  0  0  0  0  0  0  0  0  0  0
    2.2918    1.7782   -0.0376 H   0  0  0  0  0  0  0  0  0  0  0  0
  1  7  1  0
  2  3  1  0
  2  8  1  0
  2  9  1  0
  3  4  1  0
  3 10  1  0
  3 11  1  0
  4  5  1  0
  5  6  1  0
  5 12  1  0
  5 13  1  0
  6 14  1  0
  6 15  1  0
  6 16  1  0
M  RAD  2   1   2   2   2
M  END
>  <reaction>  (4) 
rmg_rxn_1160

>  <mol_properties>  (4) 
{"0": {"label": "*1", "atom_type": "O2s"}, "1": {"label": "*3", "atom_type": "Cs"}, "2": {"label": "*4", "atom_type": "Cs"}, "6": {"label": "*2", "atom_type": "H0"}}

>  <type>  (4) 
ts

$$$$

     RDKit          3D

 16 14  0  0  0  0  0  0  0  0999 V2000
   -1.6361    2.3934    0.6054 O   0  0  0  0  0  1  0  0  0  0  0  0
    0.3557    1.2397    1.5265 C   0  0  0  0  0  3  0  0  0  0  0  0
    0.3557   -0.2234    1.1305 C   0  0  0  0  0  0  0  0  0  0  0  0
    0.3557   -0.3052   -0.2927 O   0  0  0  0  0  0  0  0  0  0  0  0
    0.3557   -1.6575   -0.7435 C   0  0  0  0  0  0  0  0  0  0  0  0
    0.3557   -1.6575   -2.2592 C   0  0  0  0  0  0  0  0  0  0  0  0
   -0.7000    1.8512    1.0383 H   0  0  0  0  0  0  0  0  0  0  0  0
    0.3557    1.3495    2.6146 H   0  0  0  0  0  0  0  0  0  0  0  0
    1.2354    1.7492    1.1197 H   0  0  0  0  0  0  0  0  0  0  0  0
    1.2485   -0.7172    1.5296 H   0  0  0  0  0  0  0  0  0  0  0  0
   -0.5371   -0.7171    1.5296 H   0  0  0  0  0  0  0  0  0  0  0  0
    1.2485   -2.1718   -0.3711 H   0  0  0  0  0  0  0  0  0  0  0  0
   -0.5371   -2.1718   -0.3711 H   0  0  0  0  0  0  0  0  0  0  0  0
    1.2354   -1.1317   -2.6447 H   0  0  0  0  0  0  0  0  0  0  0  0
    0.3557   -2.6791   -2.6494 H   0  0  0  0  0  0  0  0  0  0  0  0
   -0.5240   -1.1317   -2.6447 H   0  0  0  0  0  0  0  0  0  0  0  0
  1  7  1  0
  2  3  1  0
  2  8  1  0
  2  9  1  0
  3  4  1  0
  3 10  1  0
  3 11  1  0
  4  5  1  0
  5  6  1  0
  5 12  1  0
  5 13  1  0
  6 14  1  0
  6 15  1  0
  6 16  1  0
M  RAD  2   1   2   2   2
M  END
>  <reaction>  (5) 
rmg_rxn_1160

>  <mol_properties>  (5) 
{"0": {"label": "*1", "atom_type": "O2s"}, "1": {"label": "*3", "atom_type": "Cs"}, "2": {"label": "*4", "atom_type": "Cs"}, "6": {"label": "*2", "atom_type": "H0"}}

>  <type>  (5) 
unop_1

>  <geom_source>  (5) 
Heuristics

$$$$

     RDKit          3D

 16 14  0  0  0  0  0  0  0  0999 V2000
   -0.0717    0.2326   -0.7507 O   0  0  0  0  0  0  0  0  0  0  0  0
    2.7374    1.6721    0.4131 O   0  0  0  0  0 15  0  0  0  0  0  0
   -1.3375    0.6332   -0.2602 C   0  0  0  0  0  0  0  0  0  0  0  0
    0.8220    0.0011    0.3173 C   0  0  0  0  0  0  0  0  0  0  0  0
   -2.2801   -0.5631   -0.1912 C   0  0  0  0  0  0  0  0  0  0  0  0
    2.1210   -0.5550   -0.2383 C   0  0  0  0  0  0  0  0  0  0  0  0
   -1.2964    1.1437    0.7316 H   0  0  0  0  0  0  0  0  0  0  0  0
   -1.7645    1.3685   -0.9744 H   0  0  0  0  0  0  0  0  0  0  0  0
   -2.3549   -1.0460   -1.1886 H   0  0  0  0  0  0  0  0  0  0  0  0
   -3.2907   -0.2255    0.1213 H   0  0  0  0  0  0  0  0  0  0  0  0
   -1.9090   -1.3056    0.5457 H   0  0  0  0  0  0  0  0  0  0  0  0
    0.4061   -0.7354    1.0420 H   0  0  0  0  0  0  0  0  0  0  0  0
    1.0510    0.9555    0.8420 H   0  0  0  0  0  0  0  0  0  0  0  0
    2.8518   -0.7094    0.5835 H   0  0  0  0  0  0  0  0  0  0  0  0
    1.9356   -1.5224   -0.7515 H   0  0  0  0  0  0  0  0  0  0  0  0
    2.3797    0.6558   -0.2415 H   0  0  0  0  0  0  0  0  0  0  0  0
  1  3  1  0
  1  4  1  0
  3  5  1  0
  3  7  1  0
  3  8  1  0
  4  6  1  0
  4 12  1  0
  4 13  1  0
  5  9  1  0
  5 10  1  0
  5 11  1  0
  6 14  1  0
  6 15  1  0
  6 16  1  0
M  END
>  <reaction>  (6) 
rmg_rxn_1160

>  <mol_properties>  (6) 
{"0": {"label": "*1", "atom_type": "O2s"}, "1": {"label": "*3", "atom_type": "Cs"}, "2": {"label": "*4", "atom_type": "Cs"}, "6": {"label": "*2", "atom_type": "H0"}}

>  <type>  (6) 
unop_2

>  <geom_source>  (6) 
AutoTST

$$$$

     RDKit          3D

 16 14  0  0  0  0  0  0  0  0999 V2000
   -0.0676   -0.7579    0.4464 O   0  0  0  0  0  0  0  0  0  0  0  0
    3.5595    1.9842    0.0608 O   0  0  0  0  0  1  0  0  0  0  0  0
    0.6410    0.4396    0.2038 C   0  0  0  0  0  0  0  0  0  0  0  0
   -1.4379   -0.4860    0.6731 C   0  0  0  0  0  0  0  0  0  0  0  0
    2.0757    0.1048   -0.1703 C   0  0  0  0  0  3  0  0  0  0  0  0
   -2.2355   -0.6856   -0.6108 C   0  0  0  0  0  0  0  0  0  0  0  0
    0.6582    1.0720    1.1198 H   0  0  0  0  0  0  0  0  0  0  0  0
    0.1884    1.0137   -0.6360 H   0  0  0  0  0  0  0  0  0  0  0  0
   -1.6336    0.5311    1.0891 H   0  0  0  0  0  0  0  0  0  0  0  0
   -1.8106   -1.2108    1.4274 H   0  0  0  0  0  0  0  0  0  0  0  0
    2.7173    1.1714   -0.3829 H   0  0  0  0  0  0  0  0  0  0  0  0
    2.0934   -0.5170   -1.0905 H   0  0  0  0  0  0  0  0  0  0  0  0
    2.5649   -0.4524    0.6567 H   0  0  0  0  0  0  0  0  0  0  0  0
   -3.3175   -0.5449   -0.4047 H   0  0  0  0  0  0  0  0  0  0  0  0
   -1.9207    0.0503   -1.3797 H   0  0  0  0  0  0  0  0  0  0  0  0
   -2.0748   -1.7125   -1.0022 H   0  0  0  0  0  0  0  0  0  0  0  0
  1  3  1  0
  1  4  1  0
  2 11  1  0
  3  5  1  0
  3  7  1  0
  3  8  1  0
  4  6  1  0
  4  9  1  0
  4 10  1  0
  5 12  1  0
  5 13  1  0
  6 14  1  0
  6 15  1  0
  6 16  1  0
M  RAD  2   2   2   5   2
M  END
>  <reaction>  (7) 
rmg_rxn_1160

>  <mol_properties>  (7) 
{"0": {"label": "*1", "atom_type": "O2s"}, "1": {"label": "*3", "atom_type": "Cs"}, "2": {"label": "*4", "atom_type": "Cs"}, "6": {"label": "*2", "atom_type": "H0"}}

>  <type>  (7) 
unop_3

>  <geom_source>  (7) 
gaussian_log

$$$$
