
     RDKit          3D

 12 11  0  0  0  0  0  0  0  0999 V2000
    1.8075    0.1979    0.4695 C   0  0  0  0  0  0  0  0  0  0  0  0
    1.0072   -0.8859   -0.7259 S   0  0  0  0  0  0  0  0  0  0  0  0
   -0.7258   -0.6904   -0.2447 C   0  0  0  0  0  0  0  0  0  0  0  0
   -1.0856   -1.2776    1.1108 C   0  0  0  0  0  0  0  0  0  0  0  0
    1.7126   -0.1777    1.4878 H   0  0  0  0  0  0  0  0  0  0  0  0
    1.4024    1.2089    0.4095 H   0  0  0  0  0  0  0  0  0  0  0  0
    2.8647    0.2298    0.2095 H   0  0  0  0  0  0  0  0  0  0  0  0
   -1.2866   -1.1892   -1.0369 H   0  0  0  0  0  0  0  0  0  0  0  0
   -0.9814    0.3707   -0.2917 H   0  0  0  0  0  0  0  0  0  0  0  0
   -0.5492   -0.7768    1.9180 H   0  0  0  0  0  0  0  0  0  0  0  0
   -0.8418   -2.3397    1.1503 H   0  0  0  0  0  0  0  0  0  0  0  0
   -2.1545   -1.1604    1.3035 H   0  0  0  0  0  0  0  0  0  0  0  0
  1  2  1  0
  1  5  1  0
  1  6  1  0
  1  7  1  0
  2  3  1  0
  3  4  1  0
  3  8  1  0
  3  9  1  0
  4 10  1  0
  4 11  1  0
  4 12  1  0
M  END
>  <reaction>  (1) 
rmg_rxn_524

>  <mol_properties>  (1) 
{"0": {"label": "donator", "atom_type": "Cs"}, "4": {"label": "d_hydrogen", "atom_type": "H0"}}

>  <type>  (1) 
r1h

$$$$

     RDKit          3D

 17 16  0  0  0  0  0  0  0  0999 V2000
    2.3128   -0.1525    1.1777 C   0  0  0  0  0  3  0  0  0  0  0  0
    1.7469    0.7266    0.1254 C   0  0  0  0  0  0  0  0  0  0  0  0
    1.6374    2.1830    0.5408 C   0  0  0  0  0  0  0  0  0  0  0  0
    2.9245    2.6874    0.7877 O   0  0  0  0  0  0  0  0  0  0  0  0
    2.9227    4.0197    1.2361 C   0  0  0  0  0  0  0  0  0  0  0  0
    4.3491    4.4603    1.4693 C   0  0  0  0  0  0  0  0  0  0  0  0
    2.1393   -1.2196    1.1557 H   0  0  0  0  0  0  0  0  0  0  0  0
    3.0313    0.2400    1.8838 H   0  0  0  0  0  0  0  0  0  0  0  0
    0.7555    0.3746   -0.1764 H   0  0  0  0  0  0  0  0  0  0  0  0
    2.3678    0.6841   -0.7826 H   0  0  0  0  0  0  0  0  0  0  0  0
    1.0170    2.2718    1.4449 H   0  0  0  0  0  0  0  0  0  0  0  0
    1.1499    2.7653   -0.2546 H   0  0  0  0  0  0  0  0  0  0  0  0
    2.4379    4.6655    0.4891 H   0  0  0  0  0  0  0  0  0  0  0  0
    2.3377    4.1015    2.1638 H   0  0  0  0  0  0  0  0  0  0  0  0
    4.9261    4.3920    0.5465 H   0  0  0  0  0  0  0  0  0  0  0  0
    4.3728    5.4939    1.8180 H   0  0  0  0  0  0  0  0  0  0  0  0
    4.8260    3.8299    2.2206 H   0  0  0  0  0  0  0  0  0  0  0  0
  1  2  1  0
  1  7  1  0
  1  8  1  0
  2  3  1  0
  2  9  1  0
  2 10  1  0
  3  4  1  0
  3 11  1  0
  3 12  1  0
  4  5  1  0
  5  6  1  0
  5 13  1  0
  5 14  1  0
  6 15  1  0
  6 16  1  0
  6 17  1  0
M  RAD  1   1   2
M  END
>  <reaction>  (2) 
rmg_rxn_524

>  <mol_properties>  (2) 
{"0": {"label": "acceptor", "atom_type": "Cs"}}

>  <type>  (2) 
r2

$$$$

     RDKit          3D

 18 17  0  0  0  0  0  0  0  0999 V2000
    2.2026   -0.7213   -0.2612 C   0  0  0  0  0  0  0  0  0  0  0  0
    1.5384    0.2638    0.6915 C   0  0  0  0  0  0  0  0  0  0  0  0
    2.2584    1.5946    0.7694 C   0  0  0  0  0  0  0  0  0  0  0  0
    2.2212    2.2185   -0.4893 O   0  0  0  0  0  0  0  0  0  0  0  0
    2.8988    3.4488   -0.5204 C   0  0  0  0  0  0  0  0  0  0  0  0
    2.7981    4.0296   -1.9118 C   0  0  0  0  0  0  0  0  0  0  0  0
    3.2294   -0.9309    0.0486 H   0  0  0  0  0  0  0  0  0  0  0  0
    2.2338   -0.3181   -1.2734 H   0  0  0  0  0  0  0  0  0  0  0  0
    1.6610   -1.6680   -0.2875 H   0  0  0  0  0  0  0  0  0  0  0  0
    1.4990   -0.1566    1.7002 H   0  0  0  0  0  0  0  0  0  0  0  0
    0.5055    0.4455    0.3835 H   0  0  0  0  0  0  0  0  0  0  0  0
    3.3038    1.4410    1.0808 H   0  0  0  0  0  0  0  0  0  0  0  0
    1.7844    2.2410    1.5226 H   0  0  0  0  0  0  0  0  0  0  0  0
    2.4596    4.1376    0.2164 H   0  0  0  0  0  0  0  0  0  0  0  0
    3.9524    3.3035   -0.2397 H   0  0  0  0  0  0  0  0  0  0  0  0
    1.7543    4.1869   -2.1856 H   0  0  0  0  0  0  0  0  0  0  0  0
    3.2472    3.3545   -2.6411 H   0  0  0  0  0  0  0  0  0  0  0  0
    3.3178    4.9878   -1.9600 H   0  0  0  0  0  0  0  0  0  0  0  0
  1  2  1  0
  1  7  1  0
  1  8  1  0
  1  9  1  0
  2  3  1  0
  2 10  1  0
  2 11  1  0
  3  4  1  0
  3 12  1  0
  3 13  1  0
  4  5  1  0
  5  6  1  0
  5 14  1  0
  5 15  1  0
  6 16  1  0
  6 17  1  0
  6 18  1  0
M  END
>  <reaction>  (3) 
rmg_rxn_524

>  <mol_properties>  (3) 
{"0": {"label": "a_hydrogen", "atom_type": "H0"}, "1": {"label": "acceptor", "atom_type": "Cs"}}

>  <type>  (3) 
r2h

$$$$

     RDKit          3D

 29 27  0  0  0  0  0  0  0  0999 V2000
    0.4141   -0.0027    2.7405 C   0  0  0  0  0  0  0  0  0  0  0  0
   -1.1514   -0.7771    2.4863 S   0  0  0  0  0  0  0  0  0  0  0  0
   -0.6801   -2.2660    1.5714 C   0  0  0  0  0  0  0  0  0  0  0  0
   -0.0214   -2.0191    0.2245 C   0  0  0  0  0  0  0  0  0  0  0  0
    0.8257    0.6484    1.6742 H   0  0  0  0  0  0  0  0  0  0  0  0
    1.2125   -0.7032    2.9855 H   0  0  0  0  0  0  0  0  0  0  0  0
    0.3179    0.7732    3.4974 H   0  0  0  0  0  0  0  0  0  0  0  0
   -1.6182   -2.8100    1.4489 H   0  0  0  0  0  0  0  0  0  0  0  0
   -0.0377   -2.8717    2.2146 H   0  0  0  0  0  0  0  0  0  0  0  0
    0.9437   -1.5271    0.3422 H   0  0  0  0  0  0  0  0  0  0  0  0
   -0.6347   -1.3876   -0.4180 H   0  0  0  0  0  0  0  0  0  0  0  0
    0.1504   -2.9695   -0.2861 H   0  0  0  0  0  0  0  0  0  0  0  0
    1.1744    1.3527    0.5310 C   0  0  0  0  0  3  0  0  0  0  0  0
   -0.1310    1.7871   -0.0838 C   0  0  0  0  0  0  0  0  0  0  0  0
   -0.0754    1.9207   -1.5967 C   0  0  0  0  0  0  0  0  0  0  0  0
    0.1462    0.6481   -2.1520 O   0  0  0  0  0  0  0  0  0  0  0  0
    0.2669    0.6565   -3.5513 C   0  0  0  0  0  0  0  0  0  0  0  0
    0.4930   -0.7597   -4.0280 C   0  0  0  0  0  0  0  0  0  0  0  0
    1.7153    0.6069   -0.0467 H   0  0  0  0  0  0  0  0  0  0  0  0
    1.8225    2.1515    0.8858 H   0  0  0  0  0  0  0  0  0  0  0  0
   -0.4537    2.7415    0.3384 H   0  0  0  0  0  0  0  0  0  0  0  0
   -0.9165    1.0616    0.1543 H   0  0  0  0  0  0  0  0  0  0  0  0
    0.7307    2.6076   -1.8956 H   0  0  0  0  0  0  0  0  0  0  0  0
   -1.0216    2.3348   -1.9747 H   0  0  0  0  0  0  0  0  0  0  0  0
   -0.6439    1.0744   -4.0048 H   0  0  0  0  0  0  0  0  0  0  0  0
    1.1047    1.3026   -3.8517 H   0  0  0  0  0  0  0  0  0  0  0  0
   -0.3451   -1.3969   -3.7430 H   0  0  0  0  0  0  0  0  0  0  0  0
    0.5927   -0.7830   -5.1142 H   0  0  0  0  0  0  0  0  0  0  0  0
    1.4023   -1.1701   -3.5872 H   0  0  0  0  0  0  0  0  0  0  0  0
  1  2  1  0
  1  5  1  0
  1  6  1  0
  1  7  1  0
  2  3  1  0
  3  4  1  0
  3  8  1  0
  3  9  1  0
  4 10  1  0
  4 11  1  0
  4 12  1  0
 13 14  1  0
 13 19  1  0
 13 20  1  0
 14 15  1  0
 14 21  1  0
 14 22  1  0
 15 16  1  0
 15 23  1  0
 15 24  1  0
 16 17  1  0
 17 18  1  0
 17 25  1  0
 17 26  1  0
 18 27  1  0
 18 28  1  0
 18 29  1  0
M  RAD  1  13   2
M  END
>  <reaction>  (4) 
rmg_rxn_524

>  <mol_properties>  (4) 
{"0": {"label": "*1", "atom_type": "Cs"}, "1": {"label": "*0", "atom_type": "S2s"}, "4": {"label": "*2", "atom_type": "H0"}, "12": {"label": "*3", "atom_type": "Cs"}, "13": {"label": "*4", "atom_type": "Cs"}}

>  <type>  (4) 
ts

$$$$

     RDKit          3D

 29 27  0  0  0  0  0  0  0  0999 V2000
    0.0053   -0.1831    2.6769 C   0  0  0  0  0  0  0  0  0  0  0  0
   -1.6378   -0.7620    3.1347 S   0  0  0  0  0  0  0  0  0  0  0  0
   -1.6378   -2.4021    2.3711 C   0  0  0  0  0  0  0  0  0  0  0  0
   -1.6378   -2.4021    0.8507 C   0  0  0  0  0  0  0  0  0  0  0  0
    0.1201   -0.0075    1.3865 H   0  0  0  0  0  0  0  0  0  0  0  0
    0.7723   -0.8762    3.0250 H   0  0  0  0  0  0  0  0  0  0  0  0
    0.1518    0.7762    3.1713 H   0  0  0  0  0  0  0  0  0  0  0  0
   -2.5419   -2.8801    2.7520 H   0  0  0  0  0  0  0  0  0  0  0  0
   -0.7886   -2.9670    2.7623 H   0  0  0  0  0  0  0  0  0  0  0  0
   -0.7308   -1.9459    0.4514 H   0  0  0  0  0  0  0  0  0  0  0  0
   -2.4938   -1.8489    0.4630 H   0  0  0  0  0  0  0  0  0  0  0  0
   -1.6862   -3.4253    0.4712 H   0  0  0  0  0  0  0  0  0  0  0  0
    0.2351    0.1684    0.0943 C   0  0  0  0  0  3  0  0  0  0  0  0
    0.5814    1.6148   -0.2333 C   0  0  0  0  0  0  0  0  0  0  0  0
    1.5966    1.7458   -1.3502 C   0  0  0  0  0  0  0  0  0  0  0  0
    1.0552    1.2199   -2.5357 O   0  0  0  0  0  0  0  0  0  0  0  0
    1.9446    1.2672   -3.6221 C   0  0  0  0  0  0  0  0  0  0  0  0
    1.2661    0.6796   -4.8378 C   0  0  0  0  0  0  0  0  0  0  0  0
   -0.1850   -0.3347   -0.7765 H   0  0  0  0  0  0  0  0  0  0  0  0
    1.1252   -0.3846    0.4047 H   0  0  0  0  0  0  0  0  0  0  0  0
    0.9878    2.1139    0.6507 H   0  0  0  0  0  0  0  0  0  0  0  0
   -0.3212    2.1614   -0.5187 H   0  0  0  0  0  0  0  0  0  0  0  0
    2.5195    1.2050   -1.0874 H   0  0  0  0  0  0  0  0  0  0  0  0
    1.8671    2.8017   -1.4976 H   0  0  0  0  0  0  0  0  0  0  0  0
    2.2459    2.3075   -3.8153 H   0  0  0  0  0  0  0  0  0  0  0  0
    2.8590    0.7047   -3.3826 H   0  0  0  0  0  0  0  0  0  0  0  0
    0.3669    1.2451   -5.0843 H   0  0  0  0  0  0  0  0  0  0  0  0
    1.9392    0.7063   -5.6963 H   0  0  0  0  0  0  0  0  0  0  0  0
    0.9810   -0.3567   -4.6528 H   0  0  0  0  0  0  0  0  0  0  0  0
  1  2  1  0
  1  5  1  0
  1  6  1  0
  1  7  1  0
  2  3  1  0
  3  4  1  0
  3  8  1  0
  3  9  1  0
  4 10  1  0
  4 11  1  0
  4 12  1  0
 13 14  1  0
 13 19  1  0
 13 20  1  0
 14 15  1  0
 14 21  1  0
 14 22  1  0
 15 16  1  0
 15 23  1  0
 15 24  1  0
 16 17  1  0
 17 18  1  0
 17 25  1  0
 17 26  1  0
 18 27  1  0
 18 28  1  0
 18 29  1  0
M  RAD  1  13   2
M  END
>  <reaction>  (5) 
rmg_rxn_524

>  <mol_properties>  (5) 
{"0": {"label": "*1", "atom_type": "Cs"}, "1": {"label": "*0", "atom_type": "S2s"}, "4": {"label": "*2", "atom_type": "H0"}, "12": {"label": "*3", "atom_type": "Cs"}, "13": {"label": "*4", "atom_type": "Cs"}}

>  <type>  (5) 
unop_1

>  <geom_source>  (5) 
Heuristics

$$$$

     RDKit          3D

 29 27  0  0  0  0  0  0  0  0999 V2000
    0.7861    0.1748    2.8259 C   0  0  0  0  0  0  0  0  0  0  0  0
   -0.8570   -0.4041    3.2836 S   0  0  0  0  0  0  0  0  0  0  0  0
   -0.8570   -2.0442    2.5200 C   0  0  0  0  0  0  0  0  0  0  0  0
   -0.8570   -2.0442    0.9996 C   0  0  0  0  0  0  0  0  0  0  0  0
    0.9010    0.3504    1.5354 H   0  0  0  0  0  0  0  0  0  0  0  0
    1.5532   -0.5183    3.1740 H   0  0  0  0  0  0  0  0  0  0  0  0
    0.9326    1.1342    3.3202 H   0  0  0  0  0  0  0  0  0  0  0  0
   -1.7610   -2.5222    2.9009 H   0  0  0  0  0  0  0  0  0  0  0  0
   -0.0077   -2.6091    2.9112 H   0  0  0  0  0  0  0  0  0  0  0  0
    0.0500   -1.5880    0.6003 H   0  0  0  0  0  0  0  0  0  0  0  0
   -1.7129   -1.4910    0.6119 H   0  0  0  0  0  0  0  0  0  0  0  0
   -0.9054   -3.0674    0.6201 H   0  0  0  0  0  0  0  0  0  0  0  0
    1.0160    0.5263    0.2432 C   0  0  0  0  0  3  0  0  0  0  0  0
   -0.3195    0.9130   -0.3783 C   0  0  0  0  0  0  0  0  0  0  0  0
   -0.1779    1.5492   -1.7459 C   0  0  0  0  0  0  0  0  0  0  0  0
    0.3864    0.6195   -2.6359 O   0  0  0  0  0  0  0  0  0  0  0  0
    0.5883    1.1367   -3.9264 C   0  0  0  0  0  0  0  0  0  0  0  0
    1.1962    0.0613   -4.7967 C   0  0  0  0  0  0  0  0  0  0  0  0
    1.5420   -0.1907   -0.3870 H   0  0  0  0  0  0  0  0  0  0  0  0
    1.6581    1.4025    0.3631 H   0  0  0  0  0  0  0  0  0  0  0  0
   -0.8449    1.6206    0.2689 H   0  0  0  0  0  0  0  0  0  0  0  0
   -0.9598    0.0319   -0.4700 H   0  0  0  0  0  0  0  0  0  0  0  0
    0.4623    2.4434   -1.6823 H   0  0  0  0  0  0  0  0  0  0  0  0
   -1.1600    1.8762   -2.1178 H   0  0  0  0  0  0  0  0  0  0  0  0
   -0.3690    1.4772   -4.3482 H   0  0  0  0  0  0  0  0  0  0  0  0
    1.2511    2.0134   -3.8792 H   0  0  0  0  0  0  0  0  0  0  0  0
    0.5335   -0.8028   -4.8553 H   0  0  0  0  0  0  0  0  0  0  0  0
    1.3619    0.4408   -5.8063 H   0  0  0  0  0  0  0  0  0  0  0  0
    2.1528   -0.2658   -4.3879 H   0  0  0  0  0  0  0  0  0  0  0  0
  1  2  1  0
  1  5  1  0
  1  6  1  0
  1  7  1  0
  2  3  1  0
  3  4  1  0
  3  8  1  0
  3  9  1  0
  4 10  1  0
  4 11  1  0
  4 12  1  0
 13 14  1  0
 13 19  1  0
 13 20  1  0
 14 15  1  0
 14 21  1  0
 14 22  1  0
 15 16  1  0
 15 23  1  0
 15 24  1  0
 16 17  1  0
 17 18  1  0
 17 25  1  0
 17 26  1  0
 18 27  1  0
 18 28  1  0
 18 29  1  0
M  RAD  1  13   2
M  END
>  <reaction>  (6) 
rmg_rxn_524

>  <mol_properties>  (6) 
{"0": {"label": "*1", "atom_type": "Cs"}, "1": {"label": "*0", "atom_type": "S2s"}, "4": {"label": "*2", "atom_type": "H0"}, "12": {"label": "*3", "atom_type": "Cs"}, "13": {"label": "*4", "atom_type": "Cs"}}

>  <type>  (6) 
unop_2

>  <geom_source>  (6) 
Heuristics

$$$$

     RDKit          3D

 29 27  0  0  0  0  0  0  0  0999 V2000
    0.0405   -0.0861    2.7271 C   0  0  0  0  0  0  0  0  0  0  0  0
   -1.6026   -0.6650    3.1848 S   0  0  0  0  0  0  0  0  0  0  0  0
   -1.6026   -2.3051    2.4212 C   0  0  0  0  0  0  0  0  0  0  0  0
   -1.6026   -2.3051    0.9008 C   0  0  0  0  0  0  0  0  0  0  0  0
    0.1553    0.0895    1.4366 H   0  0  0  0  0  0  0  0  0  0  0  0
    0.8075   -0.7792    3.0752 H   0  0  0  0  0  0  0  0  0  0  0  0
    0.1870    0.8732    3.2214 H   0  0  0  0  0  0  0  0  0  0  0  0
   -2.5067   -2.7831    2.8021 H   0  0  0  0  0  0  0  0  0  0  0  0
   -0.7534   -2.8700    2.8125 H   0  0  0  0  0  0  0  0  0  0  0  0
   -0.6956   -1.8489    0.5015 H   0  0  0  0  0  0  0  0  0  0  0  0
   -2.4586   -1.7519    0.5131 H   0  0  0  0  0  0  0  0  0  0  0  0
   -1.6511   -3.3283    0.5213 H   0  0  0  0  0  0  0  0  0  0  0  0
    0.2703    0.2654    0.1444 C   0  0  0  0  0  3  0  0  0  0  0  0
    1.2684    1.3714   -0.1715 C   0  0  0  0  0  0  0  0  0  0  0  0
    1.9659    1.1817   -1.5030 C   0  0  0  0  0  0  0  0  0  0  0  0
    1.0167    1.2364   -2.5379 O   0  0  0  0  0  0  0  0  0  0  0  0
    1.5714    1.0339   -3.8126 C   0  0  0  0  0  0  0  0  0  0  0  0
    0.4707    1.1116   -4.8450 C   0  0  0  0  0  0  0  0  0  0  0  0
   -0.5080    0.2186   -0.6172 H   0  0  0  0  0  0  0  0  0  0  0  0
    0.7656   -0.7082    0.1788 H   0  0  0  0  0  0  0  0  0  0  0  0
    2.0358    1.4192    0.6062 H   0  0  0  0  0  0  0  0  0  0  0  0
    0.7641    2.3412   -0.1789 H   0  0  0  0  0  0  0  0  0  0  0  0
    2.4858    0.2107   -1.5223 H   0  0  0  0  0  0  0  0  0  0  0  0
    2.7264    1.9626   -1.6497 H   0  0  0  0  0  0  0  0  0  0  0  0
    2.3403    1.7949   -4.0124 H   0  0  0  0  0  0  0  0  0  0  0  0
    2.0684    0.0534   -3.8534 H   0  0  0  0  0  0  0  0  0  0  0  0
   -0.0135    2.0883   -4.8145 H   0  0  0  0  0  0  0  0  0  0  0  0
    0.8788    0.9575   -5.8451 H   0  0  0  0  0  0  0  0  0  0  0  0
   -0.2843    0.3473   -4.6569 H   0  0  0  0  0  0  0  0  0  0  0  0
  1  2  1  0
  1  5  1  0
  1  6  1  0
  1  7  1  0
  2  3  1  0
  3  4  1  0
  3  8  1  0
  3  9  1  0
  4 10  1  0
  4 11  1  0
  4 12  1  0
 13 14  1  0
 13 19  1  0
 13 20  1  0
 14 15  1  0
 14 21  1  0
 14 22  1  0
 15 16  1  0
 15 23  1  0
 15 24  1  0
 16 17  1  0
 17 18  1  0
 17 25  1  0
 17 26  1  0
 18 27  1  0
 18 28  1  0
 18 29  1  0
M  RAD  1  13   2
M  END
>  <reaction>  (7) 
rmg_rxn_524

>  <mol_properties>  (7) 
{"0": {"label": "*1", "atom_type": "Cs"}, "1": {"label": "*0", "atom_type": "S2s"}, "4": {"label": "*2", "atom_type": "H0"}, "12": {"label": "*3", "atom_type": "Cs"}, "13": {"label": "*4", "atom_type": "Cs"}}

>  <type>  (7) 
unop_3

>  <geom_source>  (7) 
Heuristics

$$$$

     RDKit          3D

 29 27  0  0  0  0  0  0  0  0999 V2000
   -0.3495    0.9587    2.3836 C   0  0  0  0  0  0  0  0  0  0  0  0
   -1.9926    0.3798    2.8413 S   0  0  0  0  0  0  0  0  0  0  0  0
   -1.9926   -1.2603    2.0777 C   0  0  0  0  0  0  0  0  0  0  0  0
   -1.9926   -1.2603    0.5573 C   0  0  0  0  0  0  0  0  0  0  0  0
   -0.2346    1.1344    1.0931 H   0  0  0  0  0  0  0  0  0  0  0  0
    0.4175    0.2656    2.7317 H   0  0  0  0  0  0  0  0  0  0  0  0
   -0.2030    1.9181    2.8779 H   0  0  0  0  0  0  0  0  0  0  0  0
   -2.8966   -1.7383    2.4586 H   0  0  0  0  0  0  0  0  0  0  0  0
   -1.1433   -1.8251    2.4690 H   0  0  0  0  0  0  0  0  0  0  0  0
   -1.0856   -0.8041    0.1580 H   0  0  0  0  0  0  0  0  0  0  0  0
   -2.8485   -0.7071    0.1696 H   0  0  0  0  0  0  0  0  0  0  0  0
   -2.0410   -2.2835    0.1778 H   0  0  0  0  0  0  0  0  0  0  0  0
   -0.1196    1.3103   -0.1991 C   0  0  0  0  0  3  0  0  0  0  0  0
   -0.3696    0.0112   -0.9535 C   0  0  0  0  0  0  0  0  0  0  0  0
    0.4268   -0.0942   -2.2380 C   0  0  0  0  0  0  0  0  0  0  0  0
    1.7992   -0.1029   -1.9356 O   0  0  0  0  0  0  0  0  0  0  0  0
    2.6193   -0.1629   -3.0747 C   0  0  0  0  0  0  0  0  0  0  0  0
    4.0661   -0.1662   -2.6384 C   0  0  0  0  0  0  0  0  0  0  0  0
    0.9321    1.4033    0.0716 H   0  0  0  0  0  0  0  0  0  0  0  0
   -0.3863    2.1745   -0.8125 H   0  0  0  0  0  0  0  0  0  0  0  0
   -1.4295   -0.0789   -1.2068 H   0  0  0  0  0  0  0  0  0  0  0  0
   -0.1215   -0.8444   -0.3200 H   0  0  0  0  0  0  0  0  0  0  0  0
    0.1938    0.7564   -2.8980 H   0  0  0  0  0  0  0  0  0  0  0  0
    0.1563   -1.0123   -2.7800 H   0  0  0  0  0  0  0  0  0  0  0  0
    2.3905   -1.0696   -3.6543 H   0  0  0  0  0  0  0  0  0  0  0  0
    2.4166    0.6985   -3.7281 H   0  0  0  0  0  0  0  0  0  0  0  0
    4.2713   -1.0275   -2.0018 H   0  0  0  0  0  0  0  0  0  0  0  0
    4.7232   -0.2131   -3.5082 H   0  0  0  0  0  0  0  0  0  0  0  0
    4.2979    0.7396   -2.0770 H   0  0  0  0  0  0  0  0  0  0  0  0
  1  2  1  0
  1  5  1  0
  1  6  1  0
  1  7  1  0
  2  3  1  0
  3  4  1  0
  3  8  1  0
  3  9  1  0
  4 10  1  0
  4 11  1  0
  4 12  1  0
 13 14  1  0
 13 19  1  0
 13 20  1  0
 14 15  1  0
 14 21  1  0
 14 22  1  0
 15 16  1  0
 15 23  1  0
 15 24  1  0
 16 17  1  0
 17 18  1  0
 17 25  1  0
 17 26  1  0
 18 27  1  0
 18 28  1  0
 18 29  1  0
M  RAD  1  13   2
M  END
>  <reaction>  (8) 
rmg_rxn_524

>  <mol_properties>  (8) 
{"0": {"label": "*1", "atom_type": "Cs"}, "1": {"label": "*0", "atom_type": "S2s"}, "4": {"label": "*2", "atom_type": "H0"}, "12": {"label": "*3", "atom_type": "Cs"}, "13": {"label": "*4", "atom_type": "Cs"}}

>  <type>  (8) 
unop_4

>  <geom_source>  (8) 
Heuristics

$$$$

     RDKit          3D

 29 27  0  0  0  0  0  0  0  0999 V2000
    0.1035   -0.3919    2.6027 C   0  0  0  0  0  0  0  0  0  0  0  0
   -1.5396   -0.9708    3.0605 S   0  0  0  0  0  0  0  0  0  0  0  0
   -1.5396   -2.6109    2.2968 C   0  0  0  0  0  0  0  0  0  0  0  0
   -1.5396   -2.6109    0.7765 C   0  0  0  0  0  0  0  0  0  0  0  0
    0.2183   -0.2163    1.3123 H   0  0  0  0  0  0  0  0  0  0  0  0
    0.8705   -1.0850    2.9508 H   0  0  0  0  0  0  0  0  0  0  0  0
    0.2500    0.5675    3.0970 H   0  0  0  0  0  0  0  0  0  0  0  0
   -2.4437   -3.0889    2.6778 H   0  0  0  0  0  0  0  0  0  0  0  0
   -0.6904   -3.1758    2.6881 H   0  0  0  0  0  0  0  0  0  0  0  0
   -0.6326   -2.1547    0.3772 H   0  0  0  0  0  0  0  0  0  0  0  0
   -2.3956   -2.0577    0.3887 H   0  0  0  0  0  0  0  0  0  0  0  0
   -1.5880   -3.6341    0.3969 H   0  0  0  0  0  0  0  0  0  0  0  0
    0.3333   -0.0404    0.0201 C   0  0  0  0  0  3  0  0  0  0  0  0
    1.7288    0.4486   -0.3445 C   0  0  0  0  0  0  0  0  0  0  0  0
    1.9155    0.6608   -1.8329 C   0  0  0  0  0  0  0  0  0  0  0  0
    1.0449    1.6730   -2.2718 O   0  0  0  0  0  0  0  0  0  0  0  0
    1.1242    1.9142   -3.6535 C   0  0  0  0  0  0  0  0  0  0  0  0
    0.1524    3.0129   -4.0166 C   0  0  0  0  0  0  0  0  0  0  0  0
   -0.4224    0.6792   -0.2947 H   0  0  0  0  0  0  0  0  0  0  0  0
    0.1142   -0.9930   -0.4687 H   0  0  0  0  0  0  0  0  0  0  0  0
    2.4795   -0.2732   -0.0111 H   0  0  0  0  0  0  0  0  0  0  0  0
    1.9432    1.3890    0.1698 H   0  0  0  0  0  0  0  0  0  0  0  0
    1.7077   -0.2742   -2.3770 H   0  0  0  0  0  0  0  0  0  0  0  0
    2.9566    0.9411   -2.0504 H   0  0  0  0  0  0  0  0  0  0  0  0
    2.1503    2.2031   -3.9256 H   0  0  0  0  0  0  0  0  0  0  0  0
    0.8892    0.9940   -4.2086 H   0  0  0  0  0  0  0  0  0  0  0  0
    0.3930    3.9296   -3.4771 H   0  0  0  0  0  0  0  0  0  0  0  0
    0.1968    3.2184   -5.0873 H   0  0  0  0  0  0  0  0  0  0  0  0
   -0.8670    2.7211   -3.7615 H   0  0  0  0  0  0  0  0  0  0  0  0
  1  2  1  0
  1  5  1  0
  1  6  1  0
  1  7  1  0
  2  3  1  0
  3  4  1  0
  3  8  1  0
  3  9  1  0
  4 10  1  0
  4 11  1  0
  4 12  1  0
 13 14  1  0
 13 19  1  0
 13 20  1  0
 14 15  1  0
 14 21  1  0
 14 22  1  0
 15 16  1  0
 15 23  1  0
 15 24  1  0
 16 17  1  0
 17 18  1  0
 17 25  1  0
 17 26  1  0
 18 27  1  0
 18 28  1  0
 18 29  1  0
M  RAD  1  13   2
M  END
>  <reaction>  (9) 
rmg_rxn_524

>  <mol_properties>  (9) 
{"0": {"label": "*1", "atom_type": "Cs"}, "1": {"label": "*0", "atom_type": "S2s"}, "4": {"label": "*2", "atom_type": "H0"}, "12": {"label": "*3", "atom_type": "Cs"}, "13": {"label": "*4", "atom_type": "Cs"}}

>  <type>  (9) 
unop_5

>  <geom_source>  (9) 
Heuristics

$$$$

     RDKit          3D

 29 27  0  0  0  0  0  0  0  0999 V2000
   -0.6929    0.5220    2.1758 C   0  0  0  0  0  0  0  0  0  0  0  0
   -2.3360   -0.0568    2.6336 S   0  0  0  0  0  0  0  0  0  0  0  0
   -2.3360   -1.6969    1.8700 C   0  0  0  0  0  0  0  0  0  0  0  0
   -2.3360   -1.6969    0.3496 C   0  0  0  0  0  0  0  0  0  0  0  0
   -0.5781    0.6977    0.8854 H   0  0  0  0  0  0  0  0  0  0  0  0
    0.0741   -0.1710    2.5239 H   0  0  0  0  0  0  0  0  0  0  0  0
   -0.5464    1.4814    2.6702 H   0  0  0  0  0  0  0  0  0  0  0  0
   -3.2401   -2.1749    2.2509 H   0  0  0  0  0  0  0  0  0  0  0  0
   -1.4868   -2.2618    2.2612 H   0  0  0  0  0  0  0  0  0  0  0  0
   -1.4290   -1.2408   -0.0497 H   0  0  0  0  0  0  0  0  0  0  0  0
   -3.1920   -1.1437   -0.0381 H   0  0  0  0  0  0  0  0  0  0  0  0
   -2.3844   -2.7202   -0.0299 H   0  0  0  0  0  0  0  0  0  0  0  0
   -0.4631    0.8736   -0.4068 C   0  0  0  0  0  3  0  0  0  0  0  0
    0.0187   -0.3981   -1.0924 C   0  0  0  0  0  0  0  0  0  0  0  0
    1.0082   -0.1344   -2.2089 C   0  0  0  0  0  0  0  0  0  0  0  0
    2.1661    0.4567   -1.6751 O   0  0  0  0  0  0  0  0  0  0  0  0
    3.1295    0.7705   -2.6482 C   0  0  0  0  0  0  0  0  0  0  0  0
    4.3254    1.3981   -1.9705 C   0  0  0  0  0  0  0  0  0  0  0  0
    0.3739    1.4160    0.0330 H   0  0  0  0  0  0  0  0  0  0  0  0
   -0.9561    1.5383   -1.1206 H   0  0  0  0  0  0  0  0  0  0  0  0
   -0.8300   -0.9415   -1.5167 H   0  0  0  0  0  0  0  0  0  0  0  0
    0.4878   -1.0631   -0.3627 H   0  0  0  0  0  0  0  0  0  0  0  0
    0.5596    0.5330   -2.9617 H   0  0  0  0  0  0  0  0  0  0  0  0
    1.2675   -1.0741   -2.7183 H   0  0  0  0  0  0  0  0  0  0  0  0
    3.4278   -0.1404   -3.1882 H   0  0  0  0  0  0  0  0  0  0  0  0
    2.7017    1.4609   -3.3901 H   0  0  0  0  0  0  0  0  0  0  0  0
    4.7586    0.7090   -1.2447 H   0  0  0  0  0  0  0  0  0  0  0  0
    5.0889    1.6503   -2.7082 H   0  0  0  0  0  0  0  0  0  0  0  0
    4.0337    2.3098   -1.4479 H   0  0  0  0  0  0  0  0  0  0  0  0
  1  2  1  0
  1  5  1  0
  1  6  1  0
  1  7  1  0
  2  3  1  0
  3  4  1  0
  3  8  1  0
  3  9  1  0
  4 10  1  0
  4 11  1  0
  4 12  1  0
 13 14  1  0
 13 19  1  0
 13 20  1  0
 14 15  1  0
 14 21  1  0
 14 22  1  0
 15 16  1  0
 15 23  1  0
 15 24  1  0
 16 17  1  0
 17 18  1  0
 17 25  1  0
 17 26  1  0
 18 27  1  0
 18 28  1  0
 18 29  1  0
M  RAD  1  13   2
M  END
>  <reaction>  (10) 
rmg_rxn_524

>  <mol_properties>  (10) 
{"0": {"label": "*1", "atom_type": "Cs"}, "1": {"label": "*0", "atom_type": "S2s"}, "4": {"label": "*2", "atom_type": "H0"}, "12": {"label": "*3", "atom_type": "Cs"}, "13": {"label": "*4", "atom_type": "Cs"}}

>  <type>  (10) 
unop_6

>  <geom_source>  (10) 
Heuristics

$$$$

     RDKit          3D

 29 27  0  0  0  0  0  0  0  0999 V2000
   -0.6913   -0.0695    2.0884 C   0  0  0  0  0  0  0  0  0  0  0  0
   -2.3344   -0.6483    2.5462 S   0  0  0  0  0  0  0  0  0  0  0  0
   -2.3344   -2.2884    1.7826 C   0  0  0  0  0  0  0  0  0  0  0  0
   -2.3344   -2.2884    0.2622 C   0  0  0  0  0  0  0  0  0  0  0  0
   -0.5764    0.1062    0.7980 H   0  0  0  0  0  0  0  0  0  0  0  0
    0.0757   -0.7625    2.4365 H   0  0  0  0  0  0  0  0  0  0  0  0
   -0.5448    0.8899    2.5827 H   0  0  0  0  0  0  0  0  0  0  0  0
   -3.2384   -2.7664    2.1635 H   0  0  0  0  0  0  0  0  0  0  0  0
   -1.4851   -2.8533    2.1738 H   0  0  0  0  0  0  0  0  0  0  0  0
   -1.4274   -1.8323   -0.1371 H   0  0  0  0  0  0  0  0  0  0  0  0
   -3.1904   -1.7352   -0.1255 H   0  0  0  0  0  0  0  0  0  0  0  0
   -2.3828   -3.3117   -0.1174 H   0  0  0  0  0  0  0  0  0  0  0  0
   -0.4614    0.2821   -0.4942 C   0  0  0  0  0  3  0  0  0  0  0  0
    0.6359   -0.6017   -1.0722 C   0  0  0  0  0  0  0  0  0  0  0  0
    1.4589    0.0915   -2.1387 C   0  0  0  0  0  0  0  0  0  0  0  0
    2.1306    1.1870   -1.5699 O   0  0  0  0  0  0  0  0  0  0  0  0
    2.8945    1.9140   -2.4981 C   0  0  0  0  0  0  0  0  0  0  0  0
    3.5695    3.0630   -1.7857 C   0  0  0  0  0  0  0  0  0  0  0  0
   -0.0366    1.1752   -0.0361 H   0  0  0  0  0  0  0  0  0  0  0  0
   -1.1552    0.6029   -1.2753 H   0  0  0  0  0  0  0  0  0  0  0  0
    0.2001   -1.5013   -1.5156 H   0  0  0  0  0  0  0  0  0  0  0  0
    1.3078   -0.9342   -0.2768 H   0  0  0  0  0  0  0  0  0  0  0  0
    0.8055    0.4357   -2.9560 H   0  0  0  0  0  0  0  0  0  0  0  0
    2.1860   -0.6092   -2.5746 H   0  0  0  0  0  0  0  0  0  0  0  0
    3.6440    1.2568   -2.9638 H   0  0  0  0  0  0  0  0  0  0  0  0
    2.2471    2.2887   -3.3046 H   0  0  0  0  0  0  0  0  0  0  0  0
    4.2223    2.6918   -0.9949 H   0  0  0  0  0  0  0  0  0  0  0  0
    4.1703    3.6428   -2.4881 H   0  0  0  0  0  0  0  0  0  0  0  0
    2.8268    3.7236   -1.3370 H   0  0  0  0  0  0  0  0  0  0  0  0
  1  2  1  0
  1  5  1  0
  1  6  1  0
  1  7  1  0
  2  3  1  0
  3  4  1  0
  3  8  1  0
  3  9  1  0
  4 10  1  0
  4 11  1  0
  4 12  1  0
 13 14  1  0
 13 19  1  0
 13 20  1  0
 14 15  1  0
 14 21  1  0
 14 22  1  0
 15 16  1  0
 15 23  1  0
 15 24  1  0
 16 17  1  0
 17 18  1  0
 17 25  1  0
 17 26  1  0
 18 27  1  0
 18 28  1  0
 18 29  1  0
M  RAD  1  13   2
M  END
>  <reaction>  (11) 
rmg_rxn_524

>  <mol_properties>  (11) 
{"0": {"label": "*1", "atom_type": "Cs"}, "1": {"label": "*0", "atom_type": "S2s"}, "4": {"label": "*2", "atom_type": "H0"}, "12": {"label": "*3", "atom_type": "Cs"}, "13": {"label": "*4", "atom_type": "Cs"}}

>  <type>  (11) 
unop_7

>  <geom_source>  (11) 
Heuristics

$$$$

     RDKit          3D

 29 27  0  0  0  0  0  0  0  0999 V2000
    0.2325   -0.3204    2.6805 C   0  0  0  0  0  0  0  0  0  0  0  0
   -1.4106   -0.8992    3.1383 S   0  0  0  0  0  0  0  0  0  0  0  0
   -1.4106   -2.5393    2.3747 C   0  0  0  0  0  0  0  0  0  0  0  0
   -1.4106   -2.5393    0.8543 C   0  0  0  0  0  0  0  0  0  0  0  0
    0.3474   -0.1447    1.3901 H   0  0  0  0  0  0  0  0  0  0  0  0
    0.9995   -1.0134    3.0286 H   0  0  0  0  0  0  0  0  0  0  0  0
    0.3790    0.6390    3.1749 H   0  0  0  0  0  0  0  0  0  0  0  0
   -2.3146   -3.0173    2.7556 H   0  0  0  0  0  0  0  0  0  0  0  0
   -0.5614   -3.1042    2.7659 H   0  0  0  0  0  0  0  0  0  0  0  0
   -0.5036   -2.0832    0.4550 H   0  0  0  0  0  0  0  0  0  0  0  0
   -2.2666   -1.9861    0.4666 H   0  0  0  0  0  0  0  0  0  0  0  0
   -1.4590   -3.5626    0.4748 H   0  0  0  0  0  0  0  0  0  0  0  0
    0.4624    0.0312    0.0979 C   0  0  0  0  0  3  0  0  0  0  0  0
    0.0768    1.4501   -0.2986 C   0  0  0  0  0  0  0  0  0  0  0  0
    0.9742    2.0335   -1.3708 C   0  0  0  0  0  0  0  0  0  0  0  0
    0.8471    1.2757   -2.5475 O   0  0  0  0  0  0  0  0  0  0  0  0
    1.6740    1.7250   -3.5905 C   0  0  0  0  0  0  0  0  0  0  0  0
    1.4603    0.8451   -4.8002 C   0  0  0  0  0  0  0  0  0  0  0  0
    0.4067   -0.6381   -0.7606 H   0  0  0  0  0  0  0  0  0  0  0  0
    1.4844   -0.0015    0.4836 H   0  0  0  0  0  0  0  0  0  0  0  0
    0.1216    2.1096    0.5726 H   0  0  0  0  0  0  0  0  0  0  0  0
   -0.9547    1.4718   -0.6596 H   0  0  0  0  0  0  0  0  0  0  0  0
    2.0222    2.0262   -1.0317 H   0  0  0  0  0  0  0  0  0  0  0  0
    0.7017    3.0807   -1.5679 H   0  0  0  0  0  0  0  0  0  0  0  0
    1.4391    2.7726   -3.8307 H   0  0  0  0  0  0  0  0  0  0  0  0
    2.7270    1.6941   -3.2736 H   0  0  0  0  0  0  0  0  0  0  0  0
    0.4196    0.8860   -5.1234 H   0  0  0  0  0  0  0  0  0  0  0  0
    2.0932    1.1762   -5.6251 H   0  0  0  0  0  0  0  0  0  0  0  0
    1.7079   -0.1912   -4.5675 H   0  0  0  0  0  0  0  0  0  0  0  0
  1  2  1  0
  1  5  1  0
  1  6  1  0
  1  7  1  0
  2  3  1  0
  3  4  1  0
  3  8  1  0
  3  9  1  0
  4 10  1  0
  4 11  1  0
  4 12  1  0
 13 14  1  0
 13 19  1  0
 13 20  1  0
 14 15  1  0
 14 21  1  0
 14 22  1  0
 15 16  1  0
 15 23  1  0
 15 24  1  0
 16 17  1  0
 17 18  1  0
 17 25  1  0
 17 26  1  0
 18 27  1  0
 18 28  1  0
 18 29  1  0
M  RAD  1  13   2
M  END
>  <reaction>  (12) 
rmg_rxn_524

>  <mol_properties>  (12) 
{"0": {"label": "*1", "atom_type": "Cs"}, "1": {"label": "*0", "atom_type": "S2s"}, "4": {"label": "*2", "atom_type": "H0"}, "12": {"label": "*3", "atom_type": "Cs"}, "13": {"label": "*4", "atom_type": "Cs"}}

>  <type>  (12) 
unop_8

>  <geom_source>  (12) 
Heuristics

$$$$

     RDKit          3D

 29 27  0  0  0  0  0  0  0  0999 V2000
    0.1867    1.0415    2.6277 C   0  0  0  0  0  0  0  0  0  0  0  0
   -1.4564    0.4626    3.0854 S   0  0  0  0  0  0  0  0  0  0  0  0
   -1.4564   -1.1775    2.3218 C   0  0  0  0  0  0  0  0  0  0  0  0
   -1.4564   -1.1775    0.8014 C   0  0  0  0  0  0  0  0  0  0  0  0
    0.3016    1.2171    1.3372 H   0  0  0  0  0  0  0  0  0  0  0  0
    0.9537    0.3484    2.9758 H   0  0  0  0  0  0  0  0  0  0  0  0
    0.3332    2.0008    3.1220 H   0  0  0  0  0  0  0  0  0  0  0  0
   -2.3604   -1.6555    2.7027 H   0  0  0  0  0  0  0  0  0  0  0  0
   -0.6071   -1.7424    2.7130 H   0  0  0  0  0  0  0  0  0  0  0  0
   -0.5494   -0.7213    0.4021 H   0  0  0  0  0  0  0  0  0  0  0  0
   -2.3123   -0.6243    0.4137 H   0  0  0  0  0  0  0  0  0  0  0  0
   -1.5048   -2.2007    0.4219 H   0  0  0  0  0  0  0  0  0  0  0  0
    0.4166    1.3930    0.0450 C   0  0  0  0  0  3  0  0  0  0  0  0
   -0.4852    0.4344   -0.7211 C   0  0  0  0  0  0  0  0  0  0  0  0
   -0.0962    0.2865   -2.1778 C   0  0  0  0  0  0  0  0  0  0  0  0
    1.1904   -0.2727   -2.2618 O   0  0  0  0  0  0  0  0  0  0  0  0
    1.6501   -0.4143   -3.5817 C   0  0  0  0  0  0  0  0  0  0  0  0
    3.0343   -1.0200   -3.5570 C   0  0  0  0  0  0  0  0  0  0  0  0
    1.4505    1.0485    0.0265 H   0  0  0  0  0  0  0  0  0  0  0  0
    0.3876    2.3922   -0.3967 H   0  0  0  0  0  0  0  0  0  0  0  0
   -1.5216    0.7814   -0.6834 H   0  0  0  0  0  0  0  0  0  0  0  0
   -0.4650   -0.5538   -0.2543 H   0  0  0  0  0  0  0  0  0  0  0  0
   -0.1107    1.2696   -2.6745 H   0  0  0  0  0  0  0  0  0  0  0  0
   -0.8192   -0.3555   -2.7022 H   0  0  0  0  0  0  0  0  0  0  0  0
    0.9607   -1.0540   -4.1525 H   0  0  0  0  0  0  0  0  0  0  0  0
    1.6684    0.5665   -4.0794 H   0  0  0  0  0  0  0  0  0  0  0  0
    3.0148   -1.9986   -3.0761 H   0  0  0  0  0  0  0  0  0  0  0  0
    3.4126   -1.1403   -4.5734 H   0  0  0  0  0  0  0  0  0  0  0  0
    3.7222   -0.3788   -3.0046 H   0  0  0  0  0  0  0  0  0  0  0  0
  1  2  1  0
  1  5  1  0
  1  6  1  0
  1  7  1  0
  2  3  1  0
  3  4  1  0
  3  8  1  0
  3  9  1  0
  4 10  1  0
  4 11  1  0
  4 12  1  0
 13 14  1  0
 13 19  1  0
 13 20  1  0
 14 15  1  0
 14 21  1  0
 14 22  1  0
 15 16  1  0
 15 23  1  0
 15 24  1  0
 16 17  1  0
 17 18  1  0
 17 25  1  0
 17 26  1  0
 18 27  1  0
 18 28  1  0
 18 29  1  0
M  RAD  1  13   2
M  END
>  <reaction>  (13) 
rmg_rxn_524

>  <mol_properties>  (13) 
{"0": {"label": "*1", "atom_type": "Cs"}, "1": {"label": "*0", "atom_type": "S2s"}, "4": {"label": "*2", "atom_type": "H0"}, "12": {"label": "*3", "atom_type": "Cs"}, "13": {"label": "*4", "atom_type": "Cs"}}

>  <type>  (13) 
unop_9

>  <geom_source>  (13) 
Heuristics

$$$$

     RDKit          3D

 29 27  0  0  0  0  0  0  0  0999 V2000
    0.5743   -0.2239    2.7504 C   0  0  0  0  0  0  0  0  0  0  0  0
   -1.0688   -0.8027    3.2082 S   0  0  0  0  0  0  0  0  0  0  0  0
   -1.0688   -2.4428    2.4446 C   0  0  0  0  0  0  0  0  0  0  0  0
   -1.0688   -2.4428    0.9242 C   0  0  0  0  0  0  0  0  0  0  0  0
    0.6892   -0.0482    1.4600 H   0  0  0  0  0  0  0  0  0  0  0  0
    1.3413   -0.9169    3.0985 H   0  0  0  0  0  0  0  0  0  0  0  0
    0.7208    0.7355    3.2448 H   0  0  0  0  0  0  0  0  0  0  0  0
   -1.9728   -2.9208    2.8255 H   0  0  0  0  0  0  0  0  0  0  0  0
   -0.2195   -3.0077    2.8358 H   0  0  0  0  0  0  0  0  0  0  0  0
   -0.1618   -1.9866    0.5249 H   0  0  0  0  0  0  0  0  0  0  0  0
   -1.9247   -1.8896    0.5365 H   0  0  0  0  0  0  0  0  0  0  0  0
   -1.1172   -3.4660    0.5447 H   0  0  0  0  0  0  0  0  0  0  0  0
    0.8042    0.1277    0.1678 C   0  0  0  0  0  3  0  0  0  0  0  0
   -0.1969    1.1588   -0.3362 C   0  0  0  0  0  0  0  0  0  0  0  0
    0.3162    1.9603   -1.5150 C   0  0  0  0  0  0  0  0  0  0  0  0
    0.5363    1.0989   -2.6034 O   0  0  0  0  0  0  0  0  0  0  0  0
    1.0491    1.7534   -3.7358 C   0  0  0  0  0  0  0  0  0  0  0  0
    1.2481    0.7410   -4.8399 C   0  0  0  0  0  0  0  0  0  0  0  0
    1.0513   -0.5865   -0.6176 H   0  0  0  0  0  0  0  0  0  0  0  0
    1.7316    0.6092    0.4879 H   0  0  0  0  0  0  0  0  0  0  0  0
   -0.4489    1.8608    0.4634 H   0  0  0  0  0  0  0  0  0  0  0  0
   -1.1273    0.6661   -0.6301 H   0  0  0  0  0  0  0  0  0  0  0  0
    1.2544    2.4707   -1.2453 H   0  0  0  0  0  0  0  0  0  0  0  0
   -0.4106    2.7376   -1.7929 H   0  0  0  0  0  0  0  0  0  0  0  0
    0.3548    2.5433   -4.0591 H   0  0  0  0  0  0  0  0  0  0  0  0
    2.0022    2.2426   -3.4863 H   0  0  0  0  0  0  0  0  0  0  0  0
    0.3011    0.2654   -5.0974 H   0  0  0  0  0  0  0  0  0  0  0  0
    1.6460    1.2275   -5.7318 H   0  0  0  0  0  0  0  0  0  0  0  0
    1.9482   -0.0340   -4.5260 H   0  0  0  0  0  0  0  0  0  0  0  0
  1  2  1  0
  1  5  1  0
  1  6  1  0
  1  7  1  0
  2  3  1  0
  3  4  1  0
  3  8  1  0
  3  9  1  0
  4 10  1  0
  4 11  1  0
  4 12  1  0
 13 14  1  0
 13 19  1  0
 13 20  1  0
 14 15  1  0
 14 21  1  0
 14 22  1  0
 15 16  1  0
 15 23  1  0
 15 24  1  0
 16 17  1  0
 17 18  1  0
 17 25  1  0
 17 26  1  0
 18 27  1  0
 18 28  1  0
 18 29  1  0
M  RAD  1  13   2
M  END
>  <reaction>  (14) 
rmg_rxn_524

>  <mol_properties>  (14) 
{"0": {"label": "*1", "atom_type": "Cs"}, "1": {"label": "*0", "atom_type": "S2s"}, "4": {"label": "*2", "atom_type": "H0"}, "12": {"label": "*3", "atom_type": "Cs"}, "13": {"label": "*4", "atom_type": "Cs"}}

>  <type>  (14) 
unop_10

>  <geom_source>  (14) 
Heuristics

$$$$

     RDKit          3D

 29 27  0  0  0  0  0  0  0  0999 V2000
   -0.3179   -0.5166    2.2283 C   0  0  0  0  0  0  0  0  0  0  0  0
   -1.9610   -1.0954    2.6861 S   0  0  0  0  0  0  0  0  0  0  0  0
   -1.9610   -2.7355    1.9224 C   0  0  0  0  0  0  0  0  0  0  0  0
   -1.9610   -2.7355    0.4020 C   0  0  0  0  0  0  0  0  0  0  0  0
   -0.2031   -0.3409    0.9379 H   0  0  0  0  0  0  0  0  0  0  0  0
    0.4491   -1.2096    2.5764 H   0  0  0  0  0  0  0  0  0  0  0  0
   -0.1714    0.4428    2.7226 H   0  0  0  0  0  0  0  0  0  0  0  0
   -2.8651   -3.2135    2.3033 H   0  0  0  0  0  0  0  0  0  0  0  0
   -1.1118   -3.3004    2.3137 H   0  0  0  0  0  0  0  0  0  0  0  0
   -1.0540   -2.2794    0.0027 H   0  0  0  0  0  0  0  0  0  0  0  0
   -2.8170   -2.1823    0.0143 H   0  0  0  0  0  0  0  0  0  0  0  0
   -2.0095   -3.7588    0.0225 H   0  0  0  0  0  0  0  0  0  0  0  0
   -0.0881   -0.1650   -0.3544 C   0  0  0  0  0  3  0  0  0  0  0  0
    1.3437   -0.4043   -0.8148 C   0  0  0  0  0  0  0  0  0  0  0  0
    1.7141    0.3946   -2.0476 C   0  0  0  0  0  0  0  0  0  0  0  0
    1.6480    1.7666   -1.7507 O   0  0  0  0  0  0  0  0  0  0  0  0
    1.9430    2.5886   -2.8511 C   0  0  0  0  0  0  0  0  0  0  0  0
    1.8424    4.0347   -2.4245 C   0  0  0  0  0  0  0  0  0  0  0  0
   -0.2445    0.8856   -0.1100 H   0  0  0  0  0  0  0  0  0  0  0  0
   -0.7999   -0.4372   -1.1376 H   0  0  0  0  0  0  0  0  0  0  0  0
    1.4936   -1.4633   -1.0429 H   0  0  0  0  0  0  0  0  0  0  0  0
    2.0429   -0.1508   -0.0138 H   0  0  0  0  0  0  0  0  0  0  0  0
    1.0253    0.1562   -2.8736 H   0  0  0  0  0  0  0  0  0  0  0  0
    2.7285    0.1316   -2.3818 H   0  0  0  0  0  0  0  0  0  0  0  0
    2.9539    2.3673   -3.2244 H   0  0  0  0  0  0  0  0  0  0  0  0
    1.2419    2.3804   -3.6729 H   0  0  0  0  0  0  0  0  0  0  0  0
    2.5468    4.2455   -1.6192 H   0  0  0  0  0  0  0  0  0  0  0  0
    2.0684    4.6934   -3.2646 H   0  0  0  0  0  0  0  0  0  0  0  0
    0.8361    4.2591   -2.0689 H   0  0  0  0  0  0  0  0  0  0  0  0
  1  2  1  0
  1  5  1  0
  1  6  1  0
  1  7  1  0
  2  3  1  0
  3  4  1  0
  3  8  1  0
  3  9  1  0
  4 10  1  0
  4 11  1  0
  4 12  1  0
 13 14  1  0
 13 19  1  0
 13 20  1  0
 14 15  1  0
 14 21  1  0
 14 22  1  0
 15 16  1  0
 15 23  1  0
 15 24  1  0
 16 17  1  0
 17 18  1  0
 17 25  1  0
 17 26  1  0
 18 27  1  0
 18 28  1  0
 18 29  1  0
M  RAD  1  13   2
M  END
>  <reaction>  (15) 
rmg_rxn_524

>  <mol_properties>  (15) 
{"0": {"label": "*1", "atom_type": "Cs"}, "1": {"label": "*0", "atom_type": "S2s"}, "4": {"label": "*2", "atom_type": "H0"}, "12": {"label": "*3", "atom_type": "Cs"}, "13": {"label": "*4", "atom_type": "Cs"}}

>  <type>  (15) 
unop_11

>  <geom_source>  (15) 
Heuristics

$$$$

     RDKit          3D

 29 27  0  0  0  0  0  0  0  0999 V2000
    0.6522    0.7108    2.8016 C   0  0  0  0  0  0  0  0  0  0  0  0
   -0.9909    0.1319    3.2594 S   0  0  0  0  0  0  0  0  0  0  0  0
   -0.9909   -1.5082    2.4958 C   0  0  0  0  0  0  0  0  0  0  0  0
   -0.9909   -1.5082    0.9754 C   0  0  0  0  0  0  0  0  0  0  0  0
    0.7671    0.8864    1.5112 H   0  0  0  0  0  0  0  0  0  0  0  0
    1.4192    0.0177    3.1497 H   0  0  0  0  0  0  0  0  0  0  0  0
    0.7987    1.6701    3.2960 H   0  0  0  0  0  0  0  0  0  0  0  0
   -1.8949   -1.9862    2.8767 H   0  0  0  0  0  0  0  0  0  0  0  0
   -0.1416   -2.0731    2.8870 H   0  0  0  0  0  0  0  0  0  0  0  0
   -0.0839   -1.0520    0.5761 H   0  0  0  0  0  0  0  0  0  0  0  0
   -1.8469   -0.9550    0.5877 H   0  0  0  0  0  0  0  0  0  0  0  0
   -1.0393   -2.5314    0.5959 H   0  0  0  0  0  0  0  0  0  0  0  0
    0.8821    1.0623    0.2190 C   0  0  0  0  0  3  0  0  0  0  0  0
   -0.4171    0.7206   -0.4984 C   0  0  0  0  0  0  0  0  0  0  0  0
   -0.3378    0.9153   -1.9988 C   0  0  0  0  0  0  0  0  0  0  0  0
    0.6193    0.0356   -2.5326 O   0  0  0  0  0  0  0  0  0  0  0  0
    0.7865    0.1714   -3.9208 C   0  0  0  0  0  0  0  0  0  0  0  0
    1.8323   -0.8142   -4.3881 C   0  0  0  0  0  0  0  0  0  0  0  0
    1.6977    0.4344   -0.1394 H   0  0  0  0  0  0  0  0  0  0  0  0
    1.1600    2.1050    0.0461 H   0  0  0  0  0  0  0  0  0  0  0  0
   -1.2311    1.3457   -0.1209 H   0  0  0  0  0  0  0  0  0  0  0  0
   -0.6952   -0.3171   -0.2973 H   0  0  0  0  0  0  0  0  0  0  0  0
   -0.0609    1.9560   -2.2308 H   0  0  0  0  0  0  0  0  0  0  0  0
   -1.3185    0.7274   -2.4600 H   0  0  0  0  0  0  0  0  0  0  0  0
   -0.1697   -0.0107   -4.4335 H   0  0  0  0  0  0  0  0  0  0  0  0
    1.0924    1.2000   -4.1625 H   0  0  0  0  0  0  0  0  0  0  0  0
    1.5235   -1.8353   -4.1613 H   0  0  0  0  0  0  0  0  0  0  0  0
    1.9790   -0.7273   -5.4658 H   0  0  0  0  0  0  0  0  0  0  0  0
    2.7848   -0.6247   -3.8920 H   0  0  0  0  0  0  0  0  0  0  0  0
  1  2  1  0
  1  5  1  0
  1  6  1  0
  1  7  1  0
  2  3  1  0
  3  4  1  0
  3  8  1  0
  3  9  1  0
  4 10  1  0
  4 11  1  0
  4 12  1  0
 13 14  1  0
 13 19  1  0
 13 20  1  0
 14 15  1  0
 14 21  1  0
 14 22  1  0
 15 16  1  0
 15 23  1  0
 15 24  1  0
 16 17  1  0
 17 18  1  0
 17 25  1  0
 17 26  1  0
 18 27  1  0
 18 28  1  0
 18 29  1  0
M  RAD  1  13   2
M  END
>  <reaction>  (16) 
rmg_rxn_524

>  <mol_properties>  (16) 
{"0": {"label": "*1", "atom_type": "Cs"}, "1": {"label": "*0", "atom_type": "S2s"}, "4": {"label": "*2", "atom_type": "H0"}, "12": {"label": "*3", "atom_type": "Cs"}, "13": {"label": "*4", "atom_type": "Cs"}}

>  <type>  (16) 
unop_12

>  <geom_source>  (16) 
Heuristics

$$$$

     RDKit          3D

 29 27  0  0  0  0  0  0  0  0999 V2000
    3.6211   -0.9898    0.1937 S   0  0  0  0  0  0  0  0  0  0  0  0
   -2.3505    0.1708   -0.1590 O   0  0  0  0  0  0  0  0  0  0  0  0
   -1.4092   -1.8501    0.7441 C   0  0  0  0  0  0  0  0  0  0  0  0
   -2.0480   -1.1737   -0.4690 C   0  0  0  0  0  0  0  0  0  0  0  0
   -2.9207    0.7975   -1.2879 C   0  0  0  0  0  0  0  0  0  0  0  0
    3.0312    0.7075    0.4995 C   0  0  0  0  0  0  0  0  0  0  0  0
   -0.0582   -1.2305    1.0912 C   0  0  0  0  0  0  0  0  0  0  0  0
   -3.2526    2.2408   -0.9422 C   0  0  0  0  0  0  0  0  0  0  0  0
    4.1495    1.5464    1.0990 C   0  0  0  0  0  0  0  0  0  0  0  0
    2.0172   -1.5606   -0.4430 C   0  0  0  0  0  3  0  0  0  0  0  0
   -1.2609   -2.9287    0.5211 H   0  0  0  0  0  0  0  0  0  0  0  0
   -2.0902   -1.7671    1.6189 H   0  0  0  0  0  0  0  0  0  0  0  0
   -2.9785   -1.7322   -0.7203 H   0  0  0  0  0  0  0  0  0  0  0  0
   -1.3437   -1.2395   -1.3304 H   0  0  0  0  0  0  0  0  0  0  0  0
   -3.8627    0.2865   -1.5919 H   0  0  0  0  0  0  0  0  0  0  0  0
   -2.2060    0.7999   -2.1424 H   0  0  0  0  0  0  0  0  0  0  0  0
    2.1732    0.6824    1.2051 H   0  0  0  0  0  0  0  0  0  0  0  0
    2.7020    1.1664   -0.4574 H   0  0  0  0  0  0  0  0  0  0  0  0
   -0.1788   -0.1604    1.3634 H   0  0  0  0  0  0  0  0  0  0  0  0
    0.3855   -1.7675    1.9558 H   0  0  0  0  0  0  0  0  0  0  0  0
    0.7559   -1.3293    0.0744 H   0  0  0  0  0  0  0  0  0  0  0  0
   -3.9773    2.2732   -0.1011 H   0  0  0  0  0  0  0  0  0  0  0  0
   -3.7016    2.7448   -1.8241 H   0  0  0  0  0  0  0  0  0  0  0  0
   -2.3289    2.7834   -0.6487 H   0  0  0  0  0  0  0  0  0  0  0  0
    4.4821    1.1074    2.0635 H   0  0  0  0  0  0  0  0  0  0  0  0
    5.0111    1.5913    0.3995 H   0  0  0  0  0  0  0  0  0  0  0  0
    3.7839    2.5786    1.2829 H   0  0  0  0  0  0  0  0  0  0  0  0
    2.0433   -2.6622   -0.5701 H   0  0  0  0  0  0  0  0  0  0  0  0
    1.8116   -1.0854   -1.4247 H   0  0  0  0  0  0  0  0  0  0  0  0
  1 10  1  0
  1  6  1  0
  2  5  1  0
  2  4  1  0
  3  7  1  0
  3  4  1  0
  3 11  1  0
  3 12  1  0
  4 13  1  0
  4 14  1  0
  5  8  1  0
  5 15  1  0
  5 16  1  0
  6  9  1  0
  6 17  1  0
  6 18  1  0
  7 19  1  0
  7 20  1  0
  7 21  1  0
  8 22  1  0
  8 23  1  0
  8 24  1  0
  9 25  1  0
  9 26  1  0
  9 27  1  0
 10 28  1  0
 10 29  1  0
M  RAD  1  10   2
M  END
>  <reaction>  (17) 
rmg_rxn_524

>  <mol_properties>  (17) 
{"0": {"label": "*1", "atom_type": "Cs"}, "1": {"label": "*0", "atom_type": "S2s"}, "4": {"label": "*2", "atom_type": "H0"}, "12": {"label": "*3", "atom_type": "Cs"}, "13": {"label": "*4", "atom_type": "Cs"}}

>  <type>  (17) 
unop_13

>  <geom_source>  (17) 
AutoTST

$$$$

     RDKit          3D

 29 27  0  0  0  0  0  0  0  0999 V2000
    0.7862    0.1748    2.8258 C   0  0  0  0  0  0  0  0  0  0  0  0
   -0.8570   -0.4041    3.2836 S   0  0  0  0  0  0  0  0  0  0  0  0
   -0.8570   -2.0442    2.5200 C   0  0  0  0  0  0  0  0  0  0  0  0
   -0.8570   -2.0442    0.9996 C   0  0  0  0  0  0  0  0  0  0  0  0
    0.9010    0.3504    1.5354 H   0  0  0  0  0  0  0  0  0  0  0  0
    1.5532   -0.5183    3.1740 H   0  0  0  0  0  0  0  0  0  0  0  0
    0.9326    1.1342    3.3202 H   0  0  0  0  0  0  0  0  0  0  0  0
   -1.7610   -2.5222    2.9009 H   0  0  0  0  0  0  0  0  0  0  0  0
   -0.0077   -2.6091    2.9112 H   0  0  0  0  0  0  0  0  0  0  0  0
    0.0500   -1.5880    0.6003 H   0  0  0  0  0  0  0  0  0  0  0  0
   -1.7129   -1.4910    0.6119 H   0  0  0  0  0  0  0  0  0  0  0  0
   -0.9054   -3.0674    0.6201 H   0  0  0  0  0  0  0  0  0  0  0  0
    1.0160    0.5263    0.2432 C   0  0  0  0  0  3  0  0  0  0  0  0
   -0.3195    0.9130   -0.3783 C   0  0  0  0  0  0  0  0  0  0  0  0
   -0.1779    1.5492   -1.7459 C   0  0  0  0  0  0  0  0  0  0  0  0
    0.3864    0.6195   -2.6359 O   0  0  0  0  0  0  0  0  0  0  0  0
    0.5883    1.1367   -3.9264 C   0  0  0  0  0  0  0  0  0  0  0  0
    1.1962    0.0613   -4.7968 C   0  0  0  0  0  0  0  0  0  0  0  0
    1.5420   -0.1907   -0.3870 H   0  0  0  0  0  0  0  0  0  0  0  0
    1.6581    1.4025    0.3631 H   0  0  0  0  0  0  0  0  0  0  0  0
   -0.8449    1.6206    0.2689 H   0  0  0  0  0  0  0  0  0  0  0  0
   -0.9598    0.0319   -0.4700 H   0  0  0  0  0  0  0  0  0  0  0  0
    0.4623    2.4434   -1.6823 H   0  0  0  0  0  0  0  0  0  0  0  0
   -1.1600    1.8762   -2.1178 H   0  0  0  0  0  0  0  0  0  0  0  0
   -0.3690    1.4772   -4.3482 H   0  0  0  0  0  0  0  0  0  0  0  0
    1.2511    2.0134   -3.8792 H   0  0  0  0  0  0  0  0  0  0  0  0
    0.5335   -0.8028   -4.8553 H   0  0  0  0  0  0  0  0  0  0  0  0
    1.3619    0.4408   -5.8063 H   0  0  0  0  0  0  0  0  0  0  0  0
    2.1528   -0.2658   -4.3879 H   0  0  0  0  0  0  0  0  0  0  0  0
  1  2  1  0
  1  5  1  0
  1  6  1  0
  1  7  1  0
  2  3  1  0
  3  4  1  0
  3  8  1  0
  3  9  1  0
  4 10  1  0
  4 11  1  0
  4 12  1  0
 13 14  1  0
 13 19  1  0
 13 20  1  0
 14 15  1  0
 14 21  1  0
 14 22  1  0
 15 16  1  0
 15 23  1  0
 15 24  1  0
 16 17  1  0
 17 18  1  0
 17 25  1  0
 17 26  1  0
 18 27  1  0
 18 28  1  0
 18 29  1  0
M  RAD  1  13   2
M  END
>  <reaction>  (18) 
rmg_rxn_524

>  <mol_properties>  (18) 
{"0": {"label": "*1", "atom_type": "Cs"}, "1": {"label": "*0", "atom_type": "S2s"}, "4": {"label": "*2", "atom_type": "H0"}, "12": {"label": "*3", "atom_type": "Cs"}, "13": {"label": "*4", "atom_type": "Cs"}}

>  <type>  (18) 
unop_14

>  <geom_source>  (18) 
gaussian_log

$$$$
