
     RDKit          3D

  9  9  0  0  0  0  0  0  0  0999 V2000
    1.4292   -0.6130    0.5042 O   0  0  0  0  0  0  0  0  0  0  0  0
    0.4683   -0.3219   -0.5063 N   0  0  0  0  0  0  0  0  0  0  0  0
   -0.2267    0.9155   -0.1805 C   0  0  0  0  0  0  0  0  0  0  0  0
   -0.8728   -0.3965    0.0559 C   0  0  0  0  0  0  0  0  0  0  0  0
    2.1248   -1.0453    0.0059 H   0  0  0  0  0  0  0  0  0  0  0  0
   -0.4980    1.5264   -1.0321 H   0  0  0  0  0  0  0  0  0  0  0  0
    0.1405    1.4456    0.6886 H   0  0  0  0  0  0  0  0  0  0  0  0
   -0.9339   -0.7359    1.0817 H   0  0  0  0  0  0  0  0  0  0  0  0
   -1.6314   -0.7750   -0.6174 H   0  0  0  0  0  0  0  0  0  0  0  0
  1  2  1  0
  1  5  1  0
  2  3  1  0
  2  4  1  0
  3  4  1  0
  3  6  1  0
  3  7  1  0
  4  8  1  0
  4  9  1  0
M  END
>  <reaction>  (1) 
rmg_rxn_15467

>  <mol_properties>  (1) 
{"0": {"label": "donator", "atom_type": "O2s"}, "4": {"label": "d_hydrogen", "atom_type": "H0"}}

>  <type>  (1) 
r1h

$$$$

     RDKit          3D

  5  4  0  0  0  0  0  0  0  0999 V2000
    0.8934    0.3742    0.4948 O   0  0  0  0  0  0  0  0  0  0  0  0
    0.1582   -0.1610   -0.5904 N   0  0  0  0  0  0  0  0  0  0  0  0
   -1.0297   -0.3739   -0.4689 C   0  0  0  0  0  3  0  0  0  0  0  0
    1.7805    0.4382    0.1306 H   0  0  0  0  0  0  0  0  0  0  0  0
   -1.8023   -0.2775    0.2859 H   0  0  0  0  0  0  0  0  0  0  0  0
  1  2  1  0
  1  4  1  0
  2  3  2  3
  3  5  1  0
M  RAD  1   3   2
M  END
>  <reaction>  (2) 
rmg_rxn_15467

>  <mol_properties>  (2) 
{"2": {"label": "acceptor", "atom_type": "Cd"}}

>  <type>  (2) 
r2

$$$$

     RDKit          3D

  6  5  0  0  0  0  0  0  0  0999 V2000
    1.2314    0.0428    0.5088 O   0  0  0  0  0  0  0  0  0  0  0  0
    0.2987    0.2341   -0.4915 N   0  0  0  0  0  0  0  0  0  0  0  0
   -0.8599   -0.1122   -0.1290 C   0  0  0  0  0  0  0  0  0  0  0  0
    2.0507    0.3401    0.1082 H   0  0  0  0  0  0  0  0  0  0  0  0
   -1.0700   -0.5112    0.8610 H   0  0  0  0  0  0  0  0  0  0  0  0
   -1.6509    0.0064   -0.8574 H   0  0  0  0  0  0  0  0  0  0  0  0
  1  2  1  0
  1  4  1  0
  2  3  2  3
  3  5  1  0
  3  6  1  0
M  END
>  <reaction>  (3) 
rmg_rxn_15467

>  <mol_properties>  (3) 
{"2": {"label": "acceptor", "atom_type": "Cd"}, "5": {"label": "a_hydrogen", "atom_type": "H0"}}

>  <type>  (3) 
r2h

$$$$

     RDKit          3D

 14 13  0  0  0  0  0  0  0  0999 V2000
    1.4173   -2.5602    1.5846 O   0  0  0  0  0  0  0  0  0  0  0  0
    0.8451   -1.4707    0.9298 N   0  0  0  0  0  0  0  0  0  0  0  0
    1.2875   -0.3533    1.1814 C   0  0  0  0  0  3  0  0  0  0  0  0
    0.9203   -3.3043    1.2355 H   0  0  0  0  0  0  0  0  0  0  0  0
    2.0831   -0.0326    1.8532 H   0  0  0  0  0  0  0  0  0  0  0  0
    0.0721    1.4243   -0.1395 O   0  0  0  0  0  0  0  0  0  0  0  0
   -0.8387    0.6949   -0.8617 N   0  0  0  0  0  0  0  0  0  0  0  0
   -1.1001    1.2470   -2.1757 C   0  0  0  0  0  0  0  0  0  0  0  0
   -2.0929    1.3907   -1.0688 C   0  0  0  0  0  0  0  0  0  0  0  0
    0.6279    0.6772    0.4560 H   0  0  0  0  0  0  0  0  0  0  0  0
   -1.2515    0.5225   -2.9659 H   0  0  0  0  0  0  0  0  0  0  0  0
   -0.5379    2.1337   -2.4407 H   0  0  0  0  0  0  0  0  0  0  0  0
   -2.1748    2.3707   -0.6155 H   0  0  0  0  0  0  0  0  0  0  0  0
   -2.9814    0.7729   -1.0369 H   0  0  0  0  0  0  0  0  0  0  0  0
  1  2  1  0
  1  4  1  0
  2  3  2  3
  3  5  1  0
  6  7  1  0
  6 10  1  0
  7  8  1  0
  7  9  1  0
  8  9  1  0
  8 11  1  0
  8 12  1  0
  9 13  1  0
  9 14  1  0
M  RAD  1   3   2
M  END
>  <reaction>  (4) 
rmg_rxn_15467

>  <mol_properties>  (4) 
{"1": {"label": "*4", "atom_type": "N3d"}, "2": {"label": "*3", "atom_type": "Cd"}, "5": {"label": "*1", "atom_type": "O2s"}, "6": {"label": "*0", "atom_type": "N3s"}, "9": {"label": "*2", "atom_type": "H0"}}

>  <type>  (4) 
ts

$$$$

     RDKit          3D

 14 13  0  0  0  0  0  0  0  0999 V2000
    2.9546   -0.6044    0.0002 O   0  0  0  0  0  0  0  0  0  0  0  0
    1.6402   -0.2152   -0.0007 N   0  0  0  0  0  0  0  0  0  0  0  0
    1.3021    0.9801   -0.0004 C   0  0  0  0  0  3  0  0  0  0  0  0
    3.5578    0.1629    0.0010 H   0  0  0  0  0  0  0  0  0  0  0  0
    1.9460    1.8586    0.0009 H   0  0  0  0  0  0  0  0  0  0  0  0
   -1.1611    1.3322    0.0003 O   0  0  0  0  0  0  0  0  0  0  0  0
   -1.8996    0.2597    0.0008 N   0  0  0  0  0  0  0  0  0  0  0  0
   -1.6567   -0.9370    0.7477 C   0  0  0  0  0  0  0  0  0  0  0  0
   -1.6589   -0.9362   -0.7480 C   0  0  0  0  0  0  0  0  0  0  0  0
    0.0658    1.1877   -0.0007 H   0  0  0  0  0  0  0  0  0  0  0  0
   -2.5100   -1.3356    1.2779 H   0  0  0  0  0  0  0  0  0  0  0  0
   -0.7067   -1.0340    1.2585 H   0  0  0  0  0  0  0  0  0  0  0  0
   -0.7105   -1.0327   -1.2618 H   0  0  0  0  0  0  0  0  0  0  0  0
   -2.5138   -1.3343   -1.2761 H   0  0  0  0  0  0  0  0  0  0  0  0
  1  2  1  0
  1  4  1  0
  2  3  2  3
  3  5  1  0
  6  7  1  0
  6 10  1  0
  7  8  1  0
  7  9  1  0
  8  9  1  0
  8 11  1  0
  8 12  1  0
  9 13  1  0
  9 14  1  0
M  RAD  1   3   2
M  END
>  <reaction>  (5) 
rmg_rxn_15467

>  <mol_properties>  (5) 
{"1": {"label": "*4", "atom_type": "N3d"}, "2": {"label": "*3", "atom_type": "Cd"}, "5": {"label": "*1", "atom_type": "O2s"}, "6": {"label": "*0", "atom_type": "N3s"}, "9": {"label": "*2", "atom_type": "H0"}}

>  <type>  (5) 
unop_1

>  <geom_source>  (5) 
crest_best.xyz

$$$$

     RDKit          3D

 14 13  0  0  0  0  0  0  0  0999 V2000
    1.7634   -2.0953    2.2988 O   0  0  0  0  0  0  0  0  0  0  0  0
    1.6224   -1.1364    1.3151 N   0  0  0  0  0  0  0  0  0  0  0  0
    0.5664   -1.3010    0.6433 C   0  0  0  0  0  3  0  0  0  0  0  0
    2.5893   -1.8570    2.7244 H   0  0  0  0  0  0  0  0  0  0  0  0
   -0.1325   -2.1117    0.8383 H   0  0  0  0  0  0  0  0  0  0  0  0
   -0.7261    0.7122    0.1220 O   0  0  0  0  0  0  0  0  0  0  0  0
   -0.7261    0.7122   -1.3025 N   0  0  0  0  0  0  0  0  0  0  0  0
   -0.7261    2.0833   -1.7931 C   0  0  0  0  0  0  0  0  0  0  0  0
   -1.9727    1.2829   -1.7931 C   0  0  0  0  0  0  0  0  0  0  0  0
   -0.1189   -0.2337    0.3669 H   0  0  0  0  0  0  0  0  0  0  0  0
   -0.1652    2.2435   -2.7050 H   0  0  0  0  0  0  0  0  0  0  0  0
   -0.6366    2.8526   -1.0371 H   0  0  0  0  0  0  0  0  0  0  0  0
   -2.7095    1.5217   -1.0371 H   0  0  0  0  0  0  0  0  0  0  0  0
   -2.3519    0.8395   -2.7050 H   0  0  0  0  0  0  0  0  0  0  0  0
  1  2  1  0
  1  4  1  0
  2  3  2  3
  3  5  1  0
  6  7  1  0
  6 10  1  0
  7  8  1  0
  7  9  1  0
  8  9  1  0
  8 11  1  0
  8 12  1  0
  9 13  1  0
  9 14  1  0
M  RAD  1   3   2
M  END
>  <reaction>  (6) 
rmg_rxn_15467

>  <mol_properties>  (6) 
{"1": {"label": "*4", "atom_type": "N3d"}, "2": {"label": "*3", "atom_type": "Cd"}, "5": {"label": "*1", "atom_type": "O2s"}, "6": {"label": "*0", "atom_type": "N3s"}, "9": {"label": "*2", "atom_type": "H0"}}

>  <type>  (6) 
unop_2

>  <geom_source>  (6) 
Heuristics

$$$$

     RDKit          3D

 14 13  0  0  0  0  0  0  0  0999 V2000
    2.9548    0.6045    0.0001 O   0  0  0  0  0  0  0  0  0  0  0  0
    1.6405    0.2154    0.0004 N   0  0  0  0  0  0  0  0  0  0  0  0
    1.3023   -0.9800   -0.0007 C   0  0  0  0  0  3  0  0  0  0  0  0
    3.5580   -0.1629   -0.0011 H   0  0  0  0  0  0  0  0  0  0  0  0
    1.9461   -1.8585   -0.0019 H   0  0  0  0  0  0  0  0  0  0  0  0
   -1.1609   -1.3322    0.0006 O   0  0  0  0  0  0  0  0  0  0  0  0
   -1.8996   -0.2598    0.0004 N   0  0  0  0  0  0  0  0  0  0  0  0
   -1.6579    0.9370    0.7475 C   0  0  0  0  0  0  0  0  0  0  0  0
   -1.6586    0.9361   -0.7483 C   0  0  0  0  0  0  0  0  0  0  0  0
    0.0660   -1.1876   -0.0001 H   0  0  0  0  0  0  0  0  0  0  0  0
   -0.7085    1.0344    1.2592 H   0  0  0  0  0  0  0  0  0  0  0  0
   -2.5119    1.3352    1.2768 H   0  0  0  0  0  0  0  0  0  0  0  0
   -2.5132    1.3337   -1.2772 H   0  0  0  0  0  0  0  0  0  0  0  0
   -0.7097    1.0329   -1.2611 H   0  0  0  0  0  0  0  0  0  0  0  0
  1  2  1  0
  1  4  1  0
  2  3  2  3
  3  5  1  0
  6  7  1  0
  6 10  1  0
  7  8  1  0
  7  9  1  0
  8  9  1  0
  8 11  1  0
  8 12  1  0
  9 13  1  0
  9 14  1  0
M  RAD  1   3   2
M  END
>  <reaction>  (7) 
rmg_rxn_15467

>  <mol_properties>  (7) 
{"1": {"label": "*4", "atom_type": "N3d"}, "2": {"label": "*3", "atom_type": "Cd"}, "5": {"label": "*1", "atom_type": "O2s"}, "6": {"label": "*0", "atom_type": "N3s"}, "9": {"label": "*2", "atom_type": "H0"}}

>  <type>  (7) 
unop_3

>  <geom_source>  (7) 
Heuristics

$$$$

     RDKit          3D

 14 13  0  0  0  0  0  0  0  0999 V2000
    2.9548    0.6044    0.0000 O   0  0  0  0  0  0  0  0  0  0  0  0
    1.6404    0.2153    0.0005 N   0  0  0  0  0  0  0  0  0  0  0  0
    1.3023   -0.9800   -0.0007 C   0  0  0  0  0  3  0  0  0  0  0  0
    3.5580   -0.1629   -0.0016 H   0  0  0  0  0  0  0  0  0  0  0  0
    1.9460   -1.8586   -0.0023 H   0  0  0  0  0  0  0  0  0  0  0  0
   -1.1609   -1.3322    0.0006 O   0  0  0  0  0  0  0  0  0  0  0  0
   -1.8996   -0.2598    0.0005 N   0  0  0  0  0  0  0  0  0  0  0  0
   -1.6588    0.9361   -0.7483 C   0  0  0  0  0  0  0  0  0  0  0  0
   -1.6576    0.9370    0.7475 C   0  0  0  0  0  0  0  0  0  0  0  0
    0.0660   -1.1876   -0.0000 H   0  0  0  0  0  0  0  0  0  0  0  0
   -2.5134    1.3338   -1.2770 H   0  0  0  0  0  0  0  0  0  0  0  0
   -0.7100    1.0328   -1.2614 H   0  0  0  0  0  0  0  0  0  0  0  0
   -0.7080    1.0344    1.2589 H   0  0  0  0  0  0  0  0  0  0  0  0
   -2.5114    1.3354    1.2770 H   0  0  0  0  0  0  0  0  0  0  0  0
  1  2  1  0
  1  4  1  0
  2  3  2  3
  3  5  1  0
  6  7  1  0
  6 10  1  0
  7  8  1  0
  7  9  1  0
  8  9  1  0
  8 11  1  0
  8 12  1  0
  9 13  1  0
  9 14  1  0
M  RAD  1   3   2
M  END
>  <reaction>  (8) 
rmg_rxn_15467

>  <mol_properties>  (8) 
{"1": {"label": "*4", "atom_type": "N3d"}, "2": {"label": "*3", "atom_type": "Cd"}, "5": {"label": "*1", "atom_type": "O2s"}, "6": {"label": "*0", "atom_type": "N3s"}, "9": {"label": "*2", "atom_type": "H0"}}

>  <type>  (8) 
unop_4

>  <geom_source>  (8) 
Heuristics

$$$$

     RDKit          3D

 14 13  0  0  0  0  0  0  0  0999 V2000
    2.2885   -2.3759    0.8819 O   0  0  0  0  0  0  0  0  0  0  0  0
    1.3706   -1.4995    0.3374 N   0  0  0  0  0  0  0  0  0  0  0  0
    0.4850   -1.1647    1.1723 C   0  0  0  0  0  3  0  0  0  0  0  0
    2.8919   -2.5449    0.1557 H   0  0  0  0  0  0  0  0  0  0  0  0
    0.4708   -1.5380    2.1940 H   0  0  0  0  0  0  0  0  0  0  0  0
   -0.8076    0.8486    0.6510 O   0  0  0  0  0  0  0  0  0  0  0  0
   -0.8076    0.8486   -0.7735 N   0  0  0  0  0  0  0  0  0  0  0  0
   -0.8076    2.2196   -1.2641 C   0  0  0  0  0  0  0  0  0  0  0  0
   -2.0542    1.4193   -1.2641 C   0  0  0  0  0  0  0  0  0  0  0  0
   -0.2003   -0.0973    0.8959 H   0  0  0  0  0  0  0  0  0  0  0  0
   -0.2466    2.3799   -2.1760 H   0  0  0  0  0  0  0  0  0  0  0  0
   -0.7181    2.9889   -0.5082 H   0  0  0  0  0  0  0  0  0  0  0  0
   -2.7909    1.6581   -0.5082 H   0  0  0  0  0  0  0  0  0  0  0  0
   -2.4334    0.9759   -2.1760 H   0  0  0  0  0  0  0  0  0  0  0  0
  1  2  1  0
  1  4  1  0
  2  3  2  3
  3  5  1  0
  6  7  1  0
  6 10  1  0
  7  8  1  0
  7  9  1  0
  8  9  1  0
  8 11  1  0
  8 12  1  0
  9 13  1  0
  9 14  1  0
M  RAD  1   3   2
M  END
>  <reaction>  (9) 
rmg_rxn_15467

>  <mol_properties>  (9) 
{"1": {"label": "*4", "atom_type": "N3d"}, "2": {"label": "*3", "atom_type": "Cd"}, "5": {"label": "*1", "atom_type": "O2s"}, "6": {"label": "*0", "atom_type": "N3s"}, "9": {"label": "*2", "atom_type": "H0"}}

>  <type>  (9) 
unop_5

>  <geom_source>  (9) 
Heuristics

$$$$

     RDKit          3D

 14 13  0  0  0  0  0  0  0  0999 V2000
    2.9546    0.6045    0.0000 O   0  0  0  0  0  0  0  0  0  0  0  0
    1.6404    0.2153    0.0015 N   0  0  0  0  0  0  0  0  0  0  0  0
    1.3023   -0.9801   -0.0015 C   0  0  0  0  0  3  0  0  0  0  0  0
    3.5579   -0.1627   -0.0037 H   0  0  0  0  0  0  0  0  0  0  0  0
    1.9463   -1.8583   -0.0053 H   0  0  0  0  0  0  0  0  0  0  0  0
   -1.1609   -1.3322    0.0013 O   0  0  0  0  0  0  0  0  0  0  0  0
   -1.8995   -0.2598    0.0007 N   0  0  0  0  0  0  0  0  0  0  0  0
   -1.6577    0.9374    0.7470 C   0  0  0  0  0  0  0  0  0  0  0  0
   -1.6586    0.9357   -0.7487 C   0  0  0  0  0  0  0  0  0  0  0  0
    0.0660   -1.1877    0.0002 H   0  0  0  0  0  0  0  0  0  0  0  0
   -0.7082    1.0351    1.2585 H   0  0  0  0  0  0  0  0  0  0  0  0
   -2.5116    1.3360    1.2762 H   0  0  0  0  0  0  0  0  0  0  0  0
   -2.5131    1.3331   -1.2779 H   0  0  0  0  0  0  0  0  0  0  0  0
   -0.7097    1.0322   -1.2616 H   0  0  0  0  0  0  0  0  0  0  0  0
  1  2  1  0
  1  4  1  0
  2  3  2  3
  3  5  1  0
  6  7  1  0
  6 10  1  0
  7  8  1  0
  7  9  1  0
  8  9  1  0
  8 11  1  0
  8 12  1  0
  9 13  1  0
  9 14  1  0
M  RAD  1   3   2
M  END
>  <reaction>  (10) 
rmg_rxn_15467

>  <mol_properties>  (10) 
{"1": {"label": "*4", "atom_type": "N3d"}, "2": {"label": "*3", "atom_type": "Cd"}, "5": {"label": "*1", "atom_type": "O2s"}, "6": {"label": "*0", "atom_type": "N3s"}, "9": {"label": "*2", "atom_type": "H0"}}

>  <type>  (10) 
unop_6

>  <geom_source>  (10) 
Heuristics

$$$$

     RDKit          3D

 14 13  0  0  0  0  0  0  0  0999 V2000
    1.4338   -2.4428    2.2437 O   0  0  0  0  0  0  0  0  0  0  0  0
    1.3573   -1.1905    1.6666 N   0  0  0  0  0  0  0  0  0  0  0  0
    0.6965   -1.2060    0.5912 C   0  0  0  0  0  3  0  0  0  0  0  0
    1.9519   -2.2907    3.0364 H   0  0  0  0  0  0  0  0  0  0  0  0
    0.2508   -2.1135    0.1895 H   0  0  0  0  0  0  0  0  0  0  0  0
   -0.5960    0.8073    0.0699 O   0  0  0  0  0  0  0  0  0  0  0  0
   -0.5960    0.8073   -1.3546 N   0  0  0  0  0  0  0  0  0  0  0  0
   -0.5960    2.1783   -1.8452 C   0  0  0  0  0  0  0  0  0  0  0  0
   -1.8427    1.3780   -1.8452 C   0  0  0  0  0  0  0  0  0  0  0  0
    0.0112   -0.1386    0.3148 H   0  0  0  0  0  0  0  0  0  0  0  0
   -0.0351    2.3386   -2.7571 H   0  0  0  0  0  0  0  0  0  0  0  0
   -0.5066    2.9476   -1.0892 H   0  0  0  0  0  0  0  0  0  0  0  0
   -2.5794    1.6168   -1.0892 H   0  0  0  0  0  0  0  0  0  0  0  0
   -2.2218    0.9346   -2.7571 H   0  0  0  0  0  0  0  0  0  0  0  0
  1  2  1  0
  1  4  1  0
  2  3  2  3
  3  5  1  0
  6  7  1  0
  6 10  1  0
  7  8  1  0
  7  9  1  0
  8  9  1  0
  8 11  1  0
  8 12  1  0
  9 13  1  0
  9 14  1  0
M  RAD  1   3   2
M  END
>  <reaction>  (11) 
rmg_rxn_15467

>  <mol_properties>  (11) 
{"1": {"label": "*4", "atom_type": "N3d"}, "2": {"label": "*3", "atom_type": "Cd"}, "5": {"label": "*1", "atom_type": "O2s"}, "6": {"label": "*0", "atom_type": "N3s"}, "9": {"label": "*2", "atom_type": "H0"}}

>  <type>  (11) 
unop_7

>  <geom_source>  (11) 
Heuristics

$$$$

     RDKit          3D

 14 13  0  0  0  0  0  0  0  0999 V2000
    0.8344   -3.0526    1.4111 O   0  0  0  0  0  0  0  0  0  0  0  0
    0.5368   -1.9997    0.5685 N   0  0  0  0  0  0  0  0  0  0  0  0
    0.9962   -0.9058    0.9997 C   0  0  0  0  0  3  0  0  0  0  0  0
    0.4350   -3.8069    0.9734 H   0  0  0  0  0  0  0  0  0  0  0  0
    1.5570   -0.8306    1.9289 H   0  0  0  0  0  0  0  0  0  0  0  0
   -0.2963    1.1074    0.4784 O   0  0  0  0  0  0  0  0  0  0  0  0
   -0.2963    1.1074   -0.9461 N   0  0  0  0  0  0  0  0  0  0  0  0
   -0.2963    2.4785   -1.4367 C   0  0  0  0  0  0  0  0  0  0  0  0
   -1.5430    1.6781   -1.4367 C   0  0  0  0  0  0  0  0  0  0  0  0
    0.3109    0.1616    0.7233 H   0  0  0  0  0  0  0  0  0  0  0  0
    0.2646    2.6387   -2.3486 H   0  0  0  0  0  0  0  0  0  0  0  0
   -0.2068    3.2478   -0.6807 H   0  0  0  0  0  0  0  0  0  0  0  0
   -2.2797    1.9169   -0.6807 H   0  0  0  0  0  0  0  0  0  0  0  0
   -1.9221    1.2348   -2.3486 H   0  0  0  0  0  0  0  0  0  0  0  0
  1  2  1  0
  1  4  1  0
  2  3  2  3
  3  5  1  0
  6  7  1  0
  6 10  1  0
  7  8  1  0
  7  9  1  0
  8  9  1  0
  8 11  1  0
  8 12  1  0
  9 13  1  0
  9 14  1  0
M  RAD  1   3   2
M  END
>  <reaction>  (12) 
rmg_rxn_15467

>  <mol_properties>  (12) 
{"1": {"label": "*4", "atom_type": "N3d"}, "2": {"label": "*3", "atom_type": "Cd"}, "5": {"label": "*1", "atom_type": "O2s"}, "6": {"label": "*0", "atom_type": "N3s"}, "9": {"label": "*2", "atom_type": "H0"}}

>  <type>  (12) 
unop_8

>  <geom_source>  (12) 
Heuristics

$$$$

     RDKit          3D

 14 13  0  0  0  0  0  0  0  0999 V2000
    2.9545   -0.6043    0.0001 O   0  0  0  0  0  0  0  0  0  0  0  0
    1.6401   -0.2153   -0.0010 N   0  0  0  0  0  0  0  0  0  0  0  0
    1.3021    0.9801    0.0010 C   0  0  0  0  0  3  0  0  0  0  0  0
    3.5577    0.1630    0.0030 H   0  0  0  0  0  0  0  0  0  0  0  0
    1.9461    1.8586    0.0036 H   0  0  0  0  0  0  0  0  0  0  0  0
   -1.1612    1.3322   -0.0008 O   0  0  0  0  0  0  0  0  0  0  0  0
   -1.8995    0.2596   -0.0007 N   0  0  0  0  0  0  0  0  0  0  0  0
   -1.6585   -0.9360    0.7485 C   0  0  0  0  0  0  0  0  0  0  0  0
   -1.6568   -0.9373   -0.7473 C   0  0  0  0  0  0  0  0  0  0  0  0
    0.0658    1.1879   -0.0005 H   0  0  0  0  0  0  0  0  0  0  0  0
   -2.5132   -1.3340    1.2770 H   0  0  0  0  0  0  0  0  0  0  0  0
   -0.7098   -1.0324    1.2620 H   0  0  0  0  0  0  0  0  0  0  0  0
   -0.7070   -1.0345   -1.2584 H   0  0  0  0  0  0  0  0  0  0  0  0
   -2.5103   -1.3362   -1.2770 H   0  0  0  0  0  0  0  0  0  0  0  0
  1  2  1  0
  1  4  1  0
  2  3  2  3
  3  5  1  0
  6  7  1  0
  6 10  1  0
  7  8  1  0
  7  9  1  0
  8  9  1  0
  8 11  1  0
  8 12  1  0
  9 13  1  0
  9 14  1  0
M  RAD  1   3   2
M  END
>  <reaction>  (13) 
rmg_rxn_15467

>  <mol_properties>  (13) 
{"1": {"label": "*4", "atom_type": "N3d"}, "2": {"label": "*3", "atom_type": "Cd"}, "5": {"label": "*1", "atom_type": "O2s"}, "6": {"label": "*0", "atom_type": "N3s"}, "9": {"label": "*2", "atom_type": "H0"}}

>  <type>  (13) 
unop_9

>  <geom_source>  (13) 
Heuristics

$$$$

     RDKit          3D

 14 13  0  0  0  0  0  0  0  0999 V2000
    1.6394   -2.5535    2.0210 O   0  0  0  0  0  0  0  0  0  0  0  0
    0.9000   -1.4018    1.8371 N   0  0  0  0  0  0  0  0  0  0  0  0
    0.7315   -1.1394    0.6138 C   0  0  0  0  0  3  0  0  0  0  0  0
    1.6911   -2.6341    2.9754 H   0  0  0  0  0  0  0  0  0  0  0  0
    1.1329   -1.7646   -0.1809 H   0  0  0  0  0  0  0  0  0  0  0  0
   -0.5610    0.8738    0.0925 O   0  0  0  0  0  0  0  0  0  0  0  0
   -0.5610    0.8738   -1.3319 N   0  0  0  0  0  0  0  0  0  0  0  0
   -0.5610    2.2449   -1.8225 C   0  0  0  0  0  0  0  0  0  0  0  0
   -1.8076    1.4445   -1.8225 C   0  0  0  0  0  0  0  0  0  0  0  0
    0.0463   -0.0720    0.3375 H   0  0  0  0  0  0  0  0  0  0  0  0
   -0.0001    2.4051   -2.7344 H   0  0  0  0  0  0  0  0  0  0  0  0
   -0.4715    3.0142   -1.0666 H   0  0  0  0  0  0  0  0  0  0  0  0
   -2.5444    1.6833   -1.0666 H   0  0  0  0  0  0  0  0  0  0  0  0
   -2.1868    1.0012   -2.7344 H   0  0  0  0  0  0  0  0  0  0  0  0
  1  2  1  0
  1  4  1  0
  2  3  2  3
  3  5  1  0
  6  7  1  0
  6 10  1  0
  7  8  1  0
  7  9  1  0
  8  9  1  0
  8 11  1  0
  8 12  1  0
  9 13  1  0
  9 14  1  0
M  RAD  1   3   2
M  END
>  <reaction>  (14) 
rmg_rxn_15467

>  <mol_properties>  (14) 
{"1": {"label": "*4", "atom_type": "N3d"}, "2": {"label": "*3", "atom_type": "Cd"}, "5": {"label": "*1", "atom_type": "O2s"}, "6": {"label": "*0", "atom_type": "N3s"}, "9": {"label": "*2", "atom_type": "H0"}}

>  <type>  (14) 
unop_10

>  <geom_source>  (14) 
Heuristics

$$$$

     RDKit          3D

 14 13  0  0  0  0  0  0  0  0999 V2000
    2.9544   -0.6044   -0.0001 O   0  0  0  0  0  0  0  0  0  0  0  0
    1.6401   -0.2152    0.0005 N   0  0  0  0  0  0  0  0  0  0  0  0
    1.3020    0.9802   -0.0003 C   0  0  0  0  0  3  0  0  0  0  0  0
    3.5577    0.1629   -0.0018 H   0  0  0  0  0  0  0  0  0  0  0  0
    1.9459    1.8586   -0.0018 H   0  0  0  0  0  0  0  0  0  0  0  0
   -1.1612    1.3322    0.0003 O   0  0  0  0  0  0  0  0  0  0  0  0
   -1.8995    0.2596    0.0003 N   0  0  0  0  0  0  0  0  0  0  0  0
   -1.6571   -0.9369    0.7476 C   0  0  0  0  0  0  0  0  0  0  0  0
   -1.6580   -0.9364   -0.7481 C   0  0  0  0  0  0  0  0  0  0  0  0
    0.0657    1.1879    0.0001 H   0  0  0  0  0  0  0  0  0  0  0  0
   -2.5108   -1.3356    1.2771 H   0  0  0  0  0  0  0  0  0  0  0  0
   -0.7075   -1.0336    1.2592 H   0  0  0  0  0  0  0  0  0  0  0  0
   -0.7090   -1.0328   -1.2610 H   0  0  0  0  0  0  0  0  0  0  0  0
   -2.5123   -1.3347   -1.2769 H   0  0  0  0  0  0  0  0  0  0  0  0
  1  2  1  0
  1  4  1  0
  2  3  2  3
  3  5  1  0
  6  7  1  0
  6 10  1  0
  7  8  1  0
  7  9  1  0
  8  9  1  0
  8 11  1  0
  8 12  1  0
  9 13  1  0
  9 14  1  0
M  RAD  1   3   2
M  END
>  <reaction>  (15) 
rmg_rxn_15467

>  <mol_properties>  (15) 
{"1": {"label": "*4", "atom_type": "N3d"}, "2": {"label": "*3", "atom_type": "Cd"}, "5": {"label": "*1", "atom_type": "O2s"}, "6": {"label": "*0", "atom_type": "N3s"}, "9": {"label": "*2", "atom_type": "H0"}}

>  <type>  (15) 
unop_11

>  <geom_source>  (15) 
Heuristics

$$$$

     RDKit          3D

 14 13  0  0  0  0  0  0  0  0999 V2000
    0.8355   -2.8032    1.9690 O   0  0  0  0  0  0  0  0  0  0  0  0
    0.3746   -2.0347    0.9183 N   0  0  0  0  0  0  0  0  0  0  0  0
    1.0262   -0.9603    0.7980 C   0  0  0  0  0  3  0  0  0  0  0  0
    0.2647   -3.5738    1.9476 H   0  0  0  0  0  0  0  0  0  0  0  0
    1.8494   -0.6963    1.4585 H   0  0  0  0  0  0  0  0  0  0  0  0
   -0.2664    1.0530    0.2767 O   0  0  0  0  0  0  0  0  0  0  0  0
   -0.2664    1.0530   -1.1478 N   0  0  0  0  0  0  0  0  0  0  0  0
   -0.2664    2.4240   -1.6384 C   0  0  0  0  0  0  0  0  0  0  0  0
   -1.5130    1.6237   -1.6384 C   0  0  0  0  0  0  0  0  0  0  0  0
    0.3409    0.1071    0.5216 H   0  0  0  0  0  0  0  0  0  0  0  0
    0.2946    2.5842   -2.5503 H   0  0  0  0  0  0  0  0  0  0  0  0
   -0.1769    3.1933   -0.8824 H   0  0  0  0  0  0  0  0  0  0  0  0
   -2.2497    1.8625   -0.8824 H   0  0  0  0  0  0  0  0  0  0  0  0
   -1.8922    1.1803   -2.5503 H   0  0  0  0  0  0  0  0  0  0  0  0
  1  2  1  0
  1  4  1  0
  2  3  2  3
  3  5  1  0
  6  7  1  0
  6 10  1  0
  7  8  1  0
  7  9  1  0
  8  9  1  0
  8 11  1  0
  8 12  1  0
  9 13  1  0
  9 14  1  0
M  RAD  1   3   2
M  END
>  <reaction>  (16) 
rmg_rxn_15467

>  <mol_properties>  (16) 
{"1": {"label": "*4", "atom_type": "N3d"}, "2": {"label": "*3", "atom_type": "Cd"}, "5": {"label": "*1", "atom_type": "O2s"}, "6": {"label": "*0", "atom_type": "N3s"}, "9": {"label": "*2", "atom_type": "H0"}}

>  <type>  (16) 
unop_12

>  <geom_source>  (16) 
Heuristics

$$$$

     RDKit          3D

 14 13  0  0  0  0  0  0  0  0999 V2000
    2.9547   -0.6044    0.0002 O   0  0  0  0  0  0  0  0  0  0  0  0
    1.6403   -0.2153    0.0010 N   0  0  0  0  0  0  0  0  0  0  0  0
    1.3022    0.9801   -0.0016 C   0  0  0  0  0  3  0  0  0  0  0  0
    3.5579    0.1629   -0.0024 H   0  0  0  0  0  0  0  0  0  0  0  0
    1.9460    1.8586   -0.0049 H   0  0  0  0  0  0  0  0  0  0  0  0
   -1.1610    1.3322    0.0015 O   0  0  0  0  0  0  0  0  0  0  0  0
   -1.8996    0.2597    0.0010 N   0  0  0  0  0  0  0  0  0  0  0  0
   -1.6590   -0.9356   -0.7488 C   0  0  0  0  0  0  0  0  0  0  0  0
   -1.6570   -0.9376    0.7470 C   0  0  0  0  0  0  0  0  0  0  0  0
    0.0659    1.1876   -0.0002 H   0  0  0  0  0  0  0  0  0  0  0  0
   -0.7104   -1.0318   -1.2624 H   0  0  0  0  0  0  0  0  0  0  0  0
   -2.5138   -1.3330   -1.2774 H   0  0  0  0  0  0  0  0  0  0  0  0
   -2.5106   -1.3365    1.2766 H   0  0  0  0  0  0  0  0  0  0  0  0
   -0.7072   -1.0352    1.2578 H   0  0  0  0  0  0  0  0  0  0  0  0
  1  2  1  0
  1  4  1  0
  2  3  2  3
  3  5  1  0
  6  7  1  0
  6 10  1  0
  7  8  1  0
  7  9  1  0
  8  9  1  0
  8 11  1  0
  8 12  1  0
  9 13  1  0
  9 14  1  0
M  RAD  1   3   2
M  END
>  <reaction>  (17) 
rmg_rxn_15467

>  <mol_properties>  (17) 
{"1": {"label": "*4", "atom_type": "N3d"}, "2": {"label": "*3", "atom_type": "Cd"}, "5": {"label": "*1", "atom_type": "O2s"}, "6": {"label": "*0", "atom_type": "N3s"}, "9": {"label": "*2", "atom_type": "H0"}}

>  <type>  (17) 
unop_13

>  <geom_source>  (17) 
Heuristics

$$$$

     RDKit          3D

 14 13  0  0  0  0  0  0  0  0999 V2000
    1.1712   -2.4755    2.2988 O   0  0  0  0  0  0  0  0  0  0  0  0
    0.3580   -1.9482    1.3151 N   0  0  0  0  0  0  0  0  0  0  0  0
    0.9472   -1.0566    0.6433 C   0  0  0  0  0  3  0  0  0  0  0  0
    0.6107   -3.1273    2.7244 H   0  0  0  0  0  0  0  0  0  0  0  0
    1.9752   -0.7585    0.8383 H   0  0  0  0  0  0  0  0  0  0  0  0
   -0.3453    0.9567    0.1220 O   0  0  0  0  0  0  0  0  0  0  0  0
   -0.3453    0.9567   -1.3025 N   0  0  0  0  0  0  0  0  0  0  0  0
   -0.3453    2.3277   -1.7931 C   0  0  0  0  0  0  0  0  0  0  0  0
   -1.5920    1.5274   -1.7931 C   0  0  0  0  0  0  0  0  0  0  0  0
    0.2619    0.0108    0.3669 H   0  0  0  0  0  0  0  0  0  0  0  0
    0.2156    2.4879   -2.7050 H   0  0  0  0  0  0  0  0  0  0  0  0
   -0.2559    3.0970   -1.0371 H   0  0  0  0  0  0  0  0  0  0  0  0
   -2.3287    1.7662   -1.0371 H   0  0  0  0  0  0  0  0  0  0  0  0
   -1.9711    1.0840   -2.7050 H   0  0  0  0  0  0  0  0  0  0  0  0
  1  2  1  0
  1  4  1  0
  2  3  2  3
  3  5  1  0
  6  7  1  0
  6 10  1  0
  7  8  1  0
  7  9  1  0
  8  9  1  0
  8 11  1  0
  8 12  1  0
  9 13  1  0
  9 14  1  0
M  RAD  1   3   2
M  END
>  <reaction>  (18) 
rmg_rxn_15467

>  <mol_properties>  (18) 
{"1": {"label": "*4", "atom_type": "N3d"}, "2": {"label": "*3", "atom_type": "Cd"}, "5": {"label": "*1", "atom_type": "O2s"}, "6": {"label": "*0", "atom_type": "N3s"}, "9": {"label": "*2", "atom_type": "H0"}}

>  <type>  (18) 
unop_14

>  <geom_source>  (18) 
Heuristics

$$$$

     RDKit          3D

 14 13  0  0  0  0  0  0  0  0999 V2000
    2.9544    0.6044   -0.0000 O   0  0  0  0  0  0  0  0  0  0  0  0
    1.6401    0.2152   -0.0006 N   0  0  0  0  0  0  0  0  0  0  0  0
    1.3021   -0.9802    0.0008 C   0  0  0  0  0  3  0  0  0  0  0  0
    3.5577   -0.1628    0.0015 H   0  0  0  0  0  0  0  0  0  0  0  0
    1.9461   -1.8586    0.0025 H   0  0  0  0  0  0  0  0  0  0  0  0
   -1.1611   -1.3322   -0.0007 O   0  0  0  0  0  0  0  0  0  0  0  0
   -1.8994   -0.2596   -0.0005 N   0  0  0  0  0  0  0  0  0  0  0  0
   -1.6573    0.9371   -0.7474 C   0  0  0  0  0  0  0  0  0  0  0  0
   -1.6582    0.9361    0.7483 C   0  0  0  0  0  0  0  0  0  0  0  0
    0.0658   -1.1879   -0.0000 H   0  0  0  0  0  0  0  0  0  0  0  0
   -2.5111    1.3357   -1.2768 H   0  0  0  0  0  0  0  0  0  0  0  0
   -0.7077    1.0343   -1.2590 H   0  0  0  0  0  0  0  0  0  0  0  0
   -0.7093    1.0326    1.2612 H   0  0  0  0  0  0  0  0  0  0  0  0
   -2.5126    1.3340    1.2772 H   0  0  0  0  0  0  0  0  0  0  0  0
  1  2  1  0
  1  4  1  0
  2  3  2  3
  3  5  1  0
  6  7  1  0
  6 10  1  0
  7  8  1  0
  7  9  1  0
  8  9  1  0
  8 11  1  0
  8 12  1  0
  9 13  1  0
  9 14  1  0
M  RAD  1   3   2
M  END
>  <reaction>  (19) 
rmg_rxn_15467

>  <mol_properties>  (19) 
{"1": {"label": "*4", "atom_type": "N3d"}, "2": {"label": "*3", "atom_type": "Cd"}, "5": {"label": "*1", "atom_type": "O2s"}, "6": {"label": "*0", "atom_type": "N3s"}, "9": {"label": "*2", "atom_type": "H0"}}

>  <type>  (19) 
unop_15

>  <geom_source>  (19) 
Heuristics

$$$$

     RDKit          3D

 14 13  0  0  0  0  0  0  0  0999 V2000
    2.2011   -1.9265    1.9690 O   0  0  0  0  0  0  0  0  0  0  0  0
    1.6942   -1.1875    0.9183 N   0  0  0  0  0  0  0  0  0  0  0  0
    0.4460   -1.3328    0.7980 C   0  0  0  0  0  3  0  0  0  0  0  0
    3.1393   -1.7282    1.9476 H   0  0  0  0  0  0  0  0  0  0  0  0
   -0.1366   -1.9714    1.4585 H   0  0  0  0  0  0  0  0  0  0  0  0
   -0.8466    0.6805    0.2767 O   0  0  0  0  0  0  0  0  0  0  0  0
   -0.8466    0.6805   -1.1478 N   0  0  0  0  0  0  0  0  0  0  0  0
   -0.8466    2.0515   -1.6384 C   0  0  0  0  0  0  0  0  0  0  0  0
   -2.0932    1.2512   -1.6384 C   0  0  0  0  0  0  0  0  0  0  0  0
   -0.2393   -0.2654    0.5216 H   0  0  0  0  0  0  0  0  0  0  0  0
   -0.2856    2.2117   -2.5503 H   0  0  0  0  0  0  0  0  0  0  0  0
   -0.7571    2.8208   -0.8824 H   0  0  0  0  0  0  0  0  0  0  0  0
   -2.8299    1.4900   -0.8824 H   0  0  0  0  0  0  0  0  0  0  0  0
   -2.4724    0.8078   -2.5503 H   0  0  0  0  0  0  0  0  0  0  0  0
  1  2  1  0
  1  4  1  0
  2  3  2  3
  3  5  1  0
  6  7  1  0
  6 10  1  0
  7  8  1  0
  7  9  1  0
  8  9  1  0
  8 11  1  0
  8 12  1  0
  9 13  1  0
  9 14  1  0
M  RAD  1   3   2
M  END
>  <reaction>  (20) 
rmg_rxn_15467

>  <mol_properties>  (20) 
{"1": {"label": "*4", "atom_type": "N3d"}, "2": {"label": "*3", "atom_type": "Cd"}, "5": {"label": "*1", "atom_type": "O2s"}, "6": {"label": "*0", "atom_type": "N3s"}, "9": {"label": "*2", "atom_type": "H0"}}

>  <type>  (20) 
unop_16

>  <geom_source>  (20) 
Heuristics

$$$$

     RDKit          3D

 14 13  0  0  0  0  0  0  0  0999 V2000
    2.9546   -0.6044    0.0002 O   0  0  0  0  0  0  0  0  0  0  0  0
    1.6402   -0.2152   -0.0007 N   0  0  0  0  0  0  0  0  0  0  0  0
    1.3021    0.9801   -0.0004 C   0  0  0  0  0  3  0  0  0  0  0  0
    3.5578    0.1629    0.0010 H   0  0  0  0  0  0  0  0  0  0  0  0
    1.9460    1.8586    0.0009 H   0  0  0  0  0  0  0  0  0  0  0  0
   -1.1611    1.3322    0.0003 O   0  0  0  0  0  0  0  0  0  0  0  0
   -1.8996    0.2597    0.0008 N   0  0  0  0  0  0  0  0  0  0  0  0
   -1.6567   -0.9370    0.7477 C   0  0  0  0  0  0  0  0  0  0  0  0
   -1.6589   -0.9362   -0.7480 C   0  0  0  0  0  0  0  0  0  0  0  0
    0.0658    1.1877   -0.0007 H   0  0  0  0  0  0  0  0  0  0  0  0
   -2.5100   -1.3356    1.2779 H   0  0  0  0  0  0  0  0  0  0  0  0
   -0.7067   -1.0340    1.2585 H   0  0  0  0  0  0  0  0  0  0  0  0
   -0.7105   -1.0327   -1.2618 H   0  0  0  0  0  0  0  0  0  0  0  0
   -2.5138   -1.3343   -1.2761 H   0  0  0  0  0  0  0  0  0  0  0  0
  1  2  1  0
  1  4  1  0
  2  3  2  3
  3  5  1  0
  6  7  1  0
  6 10  1  0
  7  8  1  0
  7  9  1  0
  8  9  1  0
  8 11  1  0
  8 12  1  0
  9 13  1  0
  9 14  1  0
M  RAD  1   3   2
M  END
>  <reaction>  (21) 
rmg_rxn_15467

>  <mol_properties>  (21) 
{"1": {"label": "*4", "atom_type": "N3d"}, "2": {"label": "*3", "atom_type": "Cd"}, "5": {"label": "*1", "atom_type": "O2s"}, "6": {"label": "*0", "atom_type": "N3s"}, "9": {"label": "*2", "atom_type": "H0"}}

>  <type>  (21) 
unop_17

>  <geom_source>  (21) 
Heuristics

$$$$

     RDKit          3D

 14 13  0  0  0  0  0  0  0  0999 V2000
    1.2077   -3.0698    0.8819 O   0  0  0  0  0  0  0  0  0  0  0  0
    0.7929   -1.8704    0.3374 N   0  0  0  0  0  0  0  0  0  0  0  0
    0.8571   -0.9257    1.1723 C   0  0  0  0  0  3  0  0  0  0  0  0
    1.1102   -3.6888    0.1557 H   0  0  0  0  0  0  0  0  0  0  0  0
    1.2025   -1.0683    2.1940 H   0  0  0  0  0  0  0  0  0  0  0  0
   -0.4354    1.0875    0.6510 O   0  0  0  0  0  0  0  0  0  0  0  0
   -0.4354    1.0875   -0.7735 N   0  0  0  0  0  0  0  0  0  0  0  0
   -0.4354    2.4586   -1.2641 C   0  0  0  0  0  0  0  0  0  0  0  0
   -1.6821    1.6582   -1.2641 C   0  0  0  0  0  0  0  0  0  0  0  0
    0.1718    0.1416    0.8959 H   0  0  0  0  0  0  0  0  0  0  0  0
    0.1255    2.6188   -2.1760 H   0  0  0  0  0  0  0  0  0  0  0  0
   -0.3460    3.2278   -0.5082 H   0  0  0  0  0  0  0  0  0  0  0  0
   -2.4188    1.8970   -0.5082 H   0  0  0  0  0  0  0  0  0  0  0  0
   -2.0612    1.2148   -2.1760 H   0  0  0  0  0  0  0  0  0  0  0  0
  1  2  1  0
  1  4  1  0
  2  3  2  3
  3  5  1  0
  6  7  1  0
  6 10  1  0
  7  8  1  0
  7  9  1  0
  8  9  1  0
  8 11  1  0
  8 12  1  0
  9 13  1  0
  9 14  1  0
M  RAD  1   3   2
M  END
>  <reaction>  (22) 
rmg_rxn_15467

>  <mol_properties>  (22) 
{"1": {"label": "*4", "atom_type": "N3d"}, "2": {"label": "*3", "atom_type": "Cd"}, "5": {"label": "*1", "atom_type": "O2s"}, "6": {"label": "*0", "atom_type": "N3s"}, "9": {"label": "*2", "atom_type": "H0"}}

>  <type>  (22) 
unop_18

>  <geom_source>  (22) 
Heuristics

$$$$

     RDKit          3D

 14 13  0  0  0  0  0  0  0  0999 V2000
    2.4283   -2.0292    1.4111 O   0  0  0  0  0  0  0  0  0  0  0  0
    1.5948   -1.3204    0.5685 N   0  0  0  0  0  0  0  0  0  0  0  0
    0.4090   -1.2829    0.9997 C   0  0  0  0  0  3  0  0  0  0  0  0
    3.2804   -1.9801    0.9734 H   0  0  0  0  0  0  0  0  0  0  0  0
    0.1072   -1.7614    1.9289 H   0  0  0  0  0  0  0  0  0  0  0  0
   -0.8836    0.7304    0.4784 O   0  0  0  0  0  0  0  0  0  0  0  0
   -0.8836    0.7304   -0.9461 N   0  0  0  0  0  0  0  0  0  0  0  0
   -0.8836    2.1014   -1.4367 C   0  0  0  0  0  0  0  0  0  0  0  0
   -2.1302    1.3011   -1.4367 C   0  0  0  0  0  0  0  0  0  0  0  0
   -0.2763   -0.2155    0.7233 H   0  0  0  0  0  0  0  0  0  0  0  0
   -0.3227    2.2617   -2.3486 H   0  0  0  0  0  0  0  0  0  0  0  0
   -0.7941    2.8707   -0.6807 H   0  0  0  0  0  0  0  0  0  0  0  0
   -2.8670    1.5399   -0.6807 H   0  0  0  0  0  0  0  0  0  0  0  0
   -2.5094    0.8577   -2.3486 H   0  0  0  0  0  0  0  0  0  0  0  0
  1  2  1  0
  1  4  1  0
  2  3  2  3
  3  5  1  0
  6  7  1  0
  6 10  1  0
  7  8  1  0
  7  9  1  0
  8  9  1  0
  8 11  1  0
  8 12  1  0
  9 13  1  0
  9 14  1  0
M  RAD  1   3   2
M  END
>  <reaction>  (23) 
rmg_rxn_15467

>  <mol_properties>  (23) 
{"1": {"label": "*4", "atom_type": "N3d"}, "2": {"label": "*3", "atom_type": "Cd"}, "5": {"label": "*1", "atom_type": "O2s"}, "6": {"label": "*0", "atom_type": "N3s"}, "9": {"label": "*2", "atom_type": "H0"}}

>  <type>  (23) 
unop_19

>  <geom_source>  (23) 
Heuristics

$$$$

     RDKit          3D

 14 13  0  0  0  0  0  0  0  0999 V2000
    1.6243   -2.3205    2.2437 O   0  0  0  0  0  0  0  0  0  0  0  0
    0.5175   -1.7297    1.6666 N   0  0  0  0  0  0  0  0  0  0  0  0
    0.8066   -1.1353    0.5912 C   0  0  0  0  0  3  0  0  0  0  0  0
    1.2703   -2.7283    3.0364 H   0  0  0  0  0  0  0  0  0  0  0  0
    1.8173   -1.1078    0.1895 H   0  0  0  0  0  0  0  0  0  0  0  0
   -0.4860    0.8780    0.0699 O   0  0  0  0  0  0  0  0  0  0  0  0
   -0.4860    0.8780   -1.3546 N   0  0  0  0  0  0  0  0  0  0  0  0
   -0.4860    2.2490   -1.8452 C   0  0  0  0  0  0  0  0  0  0  0  0
   -1.7326    1.4487   -1.8452 C   0  0  0  0  0  0  0  0  0  0  0  0
    0.1213   -0.0679    0.3148 H   0  0  0  0  0  0  0  0  0  0  0  0
    0.0750    2.4093   -2.7571 H   0  0  0  0  0  0  0  0  0  0  0  0
   -0.3965    3.0183   -1.0892 H   0  0  0  0  0  0  0  0  0  0  0  0
   -2.4693    1.6875   -1.0892 H   0  0  0  0  0  0  0  0  0  0  0  0
   -2.1117    1.0053   -2.7571 H   0  0  0  0  0  0  0  0  0  0  0  0
  1  2  1  0
  1  4  1  0
  2  3  2  3
  3  5  1  0
  6  7  1  0
  6 10  1  0
  7  8  1  0
  7  9  1  0
  8  9  1  0
  8 11  1  0
  8 12  1  0
  9 13  1  0
  9 14  1  0
M  RAD  1   3   2
M  END
>  <reaction>  (24) 
rmg_rxn_15467

>  <mol_properties>  (24) 
{"1": {"label": "*4", "atom_type": "N3d"}, "2": {"label": "*3", "atom_type": "Cd"}, "5": {"label": "*1", "atom_type": "O2s"}, "6": {"label": "*0", "atom_type": "N3s"}, "9": {"label": "*2", "atom_type": "H0"}}

>  <type>  (24) 
unop_20

>  <geom_source>  (24) 
Heuristics

$$$$

     RDKit          3D

 14 13  0  0  0  0  0  0  0  0999 V2000
    1.7996   -2.8030    0.6606 O   0  0  0  0  0  0  0  0  0  0  0  0
    1.0858   -1.6913    0.2585 N   0  0  0  0  0  0  0  0  0  0  0  0
    0.6577   -1.0244    1.2411 C   0  0  0  0  0  3  0  0  0  0  0  0
    2.0611   -3.2103   -0.1675 H   0  0  0  0  0  0  0  0  0  0  0  0
    0.8441   -1.3147    2.2729 H   0  0  0  0  0  0  0  0  0  0  0  0
   -0.6349    0.9888    0.7198 O   0  0  0  0  0  0  0  0  0  0  0  0
   -0.6349    0.9888   -0.7047 N   0  0  0  0  0  0  0  0  0  0  0  0
   -0.6349    2.3599   -1.1952 C   0  0  0  0  0  0  0  0  0  0  0  0
   -1.8815    1.5595   -1.1952 C   0  0  0  0  0  0  0  0  0  0  0  0
   -0.0276    0.0430    0.9647 H   0  0  0  0  0  0  0  0  0  0  0  0
   -0.0739    2.5201   -2.1072 H   0  0  0  0  0  0  0  0  0  0  0  0
   -0.5454    3.1292   -0.4393 H   0  0  0  0  0  0  0  0  0  0  0  0
   -2.6182    1.7983   -0.4393 H   0  0  0  0  0  0  0  0  0  0  0  0
   -2.2606    1.1162   -2.1072 H   0  0  0  0  0  0  0  0  0  0  0  0
  1  2  1  0
  1  4  1  0
  2  3  2  3
  3  5  1  0
  6  7  1  0
  6 10  1  0
  7  8  1  0
  7  9  1  0
  8  9  1  0
  8 11  1  0
  8 12  1  0
  9 13  1  0
  9 14  1  0
M  RAD  1   3   2
M  END
>  <reaction>  (25) 
rmg_rxn_15467

>  <mol_properties>  (25) 
{"1": {"label": "*4", "atom_type": "N3d"}, "2": {"label": "*3", "atom_type": "Cd"}, "5": {"label": "*1", "atom_type": "O2s"}, "6": {"label": "*0", "atom_type": "N3s"}, "9": {"label": "*2", "atom_type": "H0"}}

>  <type>  (25) 
unop_21

>  <geom_source>  (25) 
Heuristics

$$$$

     RDKit          3D

 14 13  0  0  0  0  0  0  0  0999 V2000
    2.9548   -0.6043   -0.0003 O   0  0  0  0  0  0  0  0  0  0  0  0
    1.6404   -0.2154    0.0001 N   0  0  0  0  0  0  0  0  0  0  0  0
    1.3021    0.9800    0.0013 C   0  0  0  0  0  3  0  0  0  0  0  0
    3.5578    0.1630    0.0002 H   0  0  0  0  0  0  0  0  0  0  0  0
    1.9459    1.8585    0.0021 H   0  0  0  0  0  0  0  0  0  0  0  0
   -1.1611    1.3322   -0.0011 O   0  0  0  0  0  0  0  0  0  0  0  0
   -1.8997    0.2597   -0.0011 N   0  0  0  0  0  0  0  0  0  0  0  0
   -1.6593   -0.9357    0.7485 C   0  0  0  0  0  0  0  0  0  0  0  0
   -1.6566   -0.9374   -0.7473 C   0  0  0  0  0  0  0  0  0  0  0  0
    0.0658    1.1876    0.0005 H   0  0  0  0  0  0  0  0  0  0  0  0
   -2.5145   -1.3333    1.2765 H   0  0  0  0  0  0  0  0  0  0  0  0
   -0.7112   -1.0321    1.2627 H   0  0  0  0  0  0  0  0  0  0  0  0
   -0.7064   -1.0347   -1.2577 H   0  0  0  0  0  0  0  0  0  0  0  0
   -2.5097   -1.3363   -1.2776 H   0  0  0  0  0  0  0  0  0  0  0  0
  1  2  1  0
  1  4  1  0
  2  3  2  3
  3  5  1  0
  6  7  1  0
  6 10  1  0
  7  8  1  0
  7  9  1  0
  8  9  1  0
  8 11  1  0
  8 12  1  0
  9 13  1  0
  9 14  1  0
M  RAD  1   3   2
M  END
>  <reaction>  (26) 
rmg_rxn_15467

>  <mol_properties>  (26) 
{"1": {"label": "*4", "atom_type": "N3d"}, "2": {"label": "*3", "atom_type": "Cd"}, "5": {"label": "*1", "atom_type": "O2s"}, "6": {"label": "*0", "atom_type": "N3s"}, "9": {"label": "*2", "atom_type": "H0"}}

>  <type>  (26) 
unop_22

>  <geom_source>  (26) 
Heuristics

$$$$

     RDKit          3D

 14 13  0  0  0  0  0  0  0  0999 V2000
    1.7841    0.7490   -0.4608 O   0  0  0  0  0  0  0  0  0  0  0  0
   -1.2176   -1.3489    0.7645 O   0  0  0  0  0  1  0  0  0  0  0  0
   -1.8311   -0.5577   -0.1515 N   0  0  0  0  0  0  0  0  0  0  0  0
    1.9998   -0.0027    0.6701 N   0  0  0  0  0  0  0  0  0  0  0  0
   -1.2708    0.8036   -0.0274 C   0  0  0  0  0  0  0  0  0  0  0  0
   -0.8041   -0.0708   -1.0953 C   0  0  0  0  0  0  0  0  0  0  0  0
    1.0862   -0.8042    1.1074 C   0  0  0  0  0  0  0  0  0  0  0  0
   -0.5688    0.9389    0.8260 H   0  0  0  0  0  0  0  0  0  0  0  0
   -1.9980    1.5825   -0.3388 H   0  0  0  0  0  0  0  0  0  0  0  0
   -1.2289    0.1412   -2.0988 H   0  0  0  0  0  0  0  0  0  0  0  0
    0.2065   -0.5140   -0.9482 H   0  0  0  0  0  0  0  0  0  0  0  0
    0.0721   -0.9009    0.5526 H   0  0  0  0  0  0  0  0  0  0  0  0
    1.2661   -1.3909    1.9978 H   0  0  0  0  0  0  0  0  0  0  0  0
    2.5046    1.3749   -0.7976 H   0  0  0  0  0  0  0  0  0  0  0  0
  1  4  1  0
  1 14  1  0
  2  3  1  0
  3  5  1  0
  3  6  1  0
  4  7  2  3
  5  6  1  0
  5  8  1  0
  5  9  1  0
  6 10  1  0
  6 11  1  0
  7 12  1  0
  7 13  1  0
M  RAD  1   2   2
M  END
>  <reaction>  (27) 
rmg_rxn_15467

>  <mol_properties>  (27) 
{"1": {"label": "*4", "atom_type": "N3d"}, "2": {"label": "*3", "atom_type": "Cd"}, "5": {"label": "*1", "atom_type": "O2s"}, "6": {"label": "*0", "atom_type": "N3s"}, "9": {"label": "*2", "atom_type": "H0"}}

>  <type>  (27) 
unop_23

>  <geom_source>  (27) 
AutoTST

$$$$

     RDKit          3D

 14 13  0  0  0  0  0  0  0  0999 V2000
    2.2885   -2.3759    0.8819 O   0  0  0  0  0  0  0  0  0  0  0  0
    1.3706   -1.4995    0.3374 N   0  0  0  0  0  0  0  0  0  0  0  0
    0.4850   -1.1647    1.1723 C   0  0  0  0  0  3  0  0  0  0  0  0
    2.8919   -2.5449    0.1557 H   0  0  0  0  0  0  0  0  0  0  0  0
    0.4708   -1.5380    2.1940 H   0  0  0  0  0  0  0  0  0  0  0  0
   -0.8076    0.8486    0.6510 O   0  0  0  0  0  0  0  0  0  0  0  0
   -0.8076    0.8486   -0.7735 N   0  0  0  0  0  0  0  0  0  0  0  0
   -0.8076    2.2196   -1.2641 C   0  0  0  0  0  0  0  0  0  0  0  0
   -2.0542    1.4193   -1.2641 C   0  0  0  0  0  0  0  0  0  0  0  0
   -0.2003   -0.0973    0.8959 H   0  0  0  0  0  0  0  0  0  0  0  0
   -0.2466    2.3799   -2.1760 H   0  0  0  0  0  0  0  0  0  0  0  0
   -0.7181    2.9889   -0.5081 H   0  0  0  0  0  0  0  0  0  0  0  0
   -2.7909    1.6581   -0.5082 H   0  0  0  0  0  0  0  0  0  0  0  0
   -2.4334    0.9759   -2.1760 H   0  0  0  0  0  0  0  0  0  0  0  0
  1  2  1  0
  1  4  1  0
  2  3  2  3
  3  5  1  0
  6  7  1  0
  6 10  1  0
  7  8  1  0
  7  9  1  0
  8  9  1  0
  8 11  1  0
  8 12  1  0
  9 13  1  0
  9 14  1  0
M  RAD  1   3   2
M  END
>  <reaction>  (28) 
rmg_rxn_15467

>  <mol_properties>  (28) 
{"1": {"label": "*4", "atom_type": "N3d"}, "2": {"label": "*3", "atom_type": "Cd"}, "5": {"label": "*1", "atom_type": "O2s"}, "6": {"label": "*0", "atom_type": "N3s"}, "9": {"label": "*2", "atom_type": "H0"}}

>  <type>  (28) 
unop_24

>  <geom_source>  (28) 
gaussian_log

$$$$
