
     RDKit          3D

  6  5  0  0  0  0  0  0  0  0999 V2000
   -0.4547   -0.0097   -0.0070 C   0  0  0  0  0  0  0  0  0  0  0  0
    0.8695   -0.1987   -0.6218 N   0  0  0  0  0  0  0  0  0  0  0  0
    1.0322   -1.2809   -1.0969 O   0  0  0  0  0  0  0  0  0  0  0  0
   -0.2820    0.2687    1.0347 H   0  0  0  0  0  0  0  0  0  0  0  0
   -1.0716   -0.9051   -0.0916 H   0  0  0  0  0  0  0  0  0  0  0  0
   -0.9130    0.8487   -0.5026 H   0  0  0  0  0  0  0  0  0  0  0  0
  1  2  1  0
  1  4  1  0
  1  5  1  0
  1  6  1  0
  2  3  2  0
M  END
>  <reaction>  (1) 
rmg_rxn_618

>  <mol_properties>  (1) 
{"0": {"label": "donator", "atom_type": "Cs"}, "3": {"label": "d_hydrogen", "atom_type": "H0"}}

>  <type>  (1) 
r1h

$$$$

     RDKit          3D

 11 10  0  0  0  0  0  0  0  0999 V2000
    2.2312    0.7411   -0.3115 C   0  0  0  0  0  3  0  0  0  0  0  0
    0.6426    1.1039   -0.7896 S   0  0  0  0  0  0  0  0  0  0  0  0
    0.9085    2.4168   -2.0061 C   0  0  0  0  0  0  0  0  0  0  0  0
    1.5570    1.9429   -3.2967 C   0  0  0  0  0  0  0  0  0  0  0  0
    2.3707   -0.0938    0.3575 H   0  0  0  0  0  0  0  0  0  0  0  0
    3.0432    1.4267   -0.5066 H   0  0  0  0  0  0  0  0  0  0  0  0
    1.4997    3.2005   -1.5289 H   0  0  0  0  0  0  0  0  0  0  0  0
   -0.0844    2.8269   -2.1951 H   0  0  0  0  0  0  0  0  0  0  0  0
    0.9451    1.1830   -3.7838 H   0  0  0  0  0  0  0  0  0  0  0  0
    1.6803    2.7812   -3.9857 H   0  0  0  0  0  0  0  0  0  0  0  0
    2.5399    1.5119   -3.1043 H   0  0  0  0  0  0  0  0  0  0  0  0
  1  2  1  0
  1  5  1  0
  1  6  1  0
  2  3  1  0
  3  4  1  0
  3  7  1  0
  3  8  1  0
  4  9  1  0
  4 10  1  0
  4 11  1  0
M  RAD  1   1   2
M  END
>  <reaction>  (2) 
rmg_rxn_618

>  <mol_properties>  (2) 
{"0": {"label": "acceptor", "atom_type": "Cs"}}

>  <type>  (2) 
r2

$$$$

     RDKit          3D

 12 11  0  0  0  0  0  0  0  0999 V2000
    1.8075    0.1979    0.4695 C   0  0  0  0  0  0  0  0  0  0  0  0
    1.0072   -0.8859   -0.7259 S   0  0  0  0  0  0  0  0  0  0  0  0
   -0.7258   -0.6904   -0.2447 C   0  0  0  0  0  0  0  0  0  0  0  0
   -1.0856   -1.2776    1.1108 C   0  0  0  0  0  0  0  0  0  0  0  0
    1.7126   -0.1777    1.4878 H   0  0  0  0  0  0  0  0  0  0  0  0
    1.4024    1.2089    0.4095 H   0  0  0  0  0  0  0  0  0  0  0  0
    2.8647    0.2298    0.2095 H   0  0  0  0  0  0  0  0  0  0  0  0
   -1.2866   -1.1892   -1.0369 H   0  0  0  0  0  0  0  0  0  0  0  0
   -0.9814    0.3707   -0.2917 H   0  0  0  0  0  0  0  0  0  0  0  0
   -0.5492   -0.7768    1.9180 H   0  0  0  0  0  0  0  0  0  0  0  0
   -0.8418   -2.3397    1.1503 H   0  0  0  0  0  0  0  0  0  0  0  0
   -2.1545   -1.1604    1.3035 H   0  0  0  0  0  0  0  0  0  0  0  0
  1  2  1  0
  1  5  1  0
  1  6  1  0
  1  7  1  0
  2  3  1  0
  3  4  1  0
  3  8  1  0
  3  9  1  0
  4 10  1  0
  4 11  1  0
  4 12  1  0
M  END
>  <reaction>  (3) 
rmg_rxn_618

>  <mol_properties>  (3) 
{"0": {"label": "a_hydrogen", "atom_type": "H0"}, "1": {"label": "acceptor", "atom_type": "Cs"}}

>  <type>  (3) 
r2h

$$$$

     RDKit          3D

 17 15  0  0  0  0  0  0  0  0999 V2000
    2.3176    0.9013    0.0107 C   0  0  0  0  0  0  0  0  0  0  0  0
    2.4155   -0.3877   -0.5297 N   0  0  0  0  0  0  0  0  0  0  0  0
    1.7563   -0.5794   -1.5387 O   0  0  0  0  0  0  0  0  0  0  0  0
    1.1759    0.9202    0.6252 H   0  0  0  0  0  0  0  0  0  0  0  0
    2.1894    1.6955   -0.7270 H   0  0  0  0  0  0  0  0  0  0  0  0
    3.0637    1.0863    0.7779 H   0  0  0  0  0  0  0  0  0  0  0  0
   -0.0979    1.0543    1.2097 C   0  0  0  0  0  3  0  0  0  0  0  0
   -0.8967   -0.4783    1.1701 S   0  0  0  0  0  0  0  0  0  0  0  0
   -1.4462   -0.5706   -0.5524 C   0  0  0  0  0  0  0  0  0  0  0  0
   -2.5896    0.3669   -0.9021 C   0  0  0  0  0  0  0  0  0  0  0  0
    0.1502    1.3606    2.2218 H   0  0  0  0  0  0  0  0  0  0  0  0
   -0.5321    1.8479    0.6078 H   0  0  0  0  0  0  0  0  0  0  0  0
   -1.7453   -1.6114   -0.6808 H   0  0  0  0  0  0  0  0  0  0  0  0
   -0.5730   -0.4036   -1.1857 H   0  0  0  0  0  0  0  0  0  0  0  0
   -2.3062    1.4129   -0.7776 H   0  0  0  0  0  0  0  0  0  0  0  0
   -2.8743    0.2271   -1.9468 H   0  0  0  0  0  0  0  0  0  0  0  0
   -3.4633    0.1756   -0.2785 H   0  0  0  0  0  0  0  0  0  0  0  0
  1  2  1  0
  1  4  1  0
  1  5  1  0
  1  6  1  0
  2  3  2  0
  7  8  1  0
  7 11  1  0
  7 12  1  0
  8  9  1  0
  9 10  1  0
  9 13  1  0
  9 14  1  0
 10 15  1  0
 10 16  1  0
 10 17  1  0
M  RAD  1   7   2
M  END
>  <reaction>  (4) 
rmg_rxn_618

>  <mol_properties>  (4) 
{"0": {"label": "*1", "atom_type": "Cs"}, "1": {"label": "*0", "atom_type": "N3d"}, "3": {"label": "*2", "atom_type": "H0"}, "6": {"label": "*3", "atom_type": "Cs"}, "7": {"label": "*4", "atom_type": "S2s"}}

>  <type>  (4) 
ts

$$$$

     RDKit          3D

 17 15  0  0  0  0  0  0  0  0999 V2000
    1.2557    0.5658   -1.7034 C   0  0  0  0  0  0  0  0  0  0  0  0
    1.2557   -0.7800   -2.3002 N   0  0  0  0  0  0  0  0  0  0  0  0
    1.2557   -0.7800   -3.4933 O   0  0  0  0  0  1  0  0  0  0  0  0
    0.1997    0.6372   -0.9308 H   0  0  0  0  0  0  0  0  0  0  0  0
    1.2557    1.3463   -2.4652 H   0  0  0  0  0  0  0  0  0  0  0  0
    2.1357    0.6253   -1.0596 H   0  0  0  0  0  0  0  0  0  0  0  0
   -0.8551    0.7085   -0.1591 C   0  0  0  0  0  0  0  0  0  0  0  0
   -0.3806    1.0358    1.5474 S   0  0  0  0  0  0  0  0  0  0  0  0
   -0.3715   -0.6443    2.2185 C   0  0  0  0  0  0  0  0  0  0  0  0
   -1.7380   -1.3034    2.3171 C   0  0  0  0  0  0  0  0  0  0  0  0
   -0.8014    1.6580   -0.6900 H   0  0  0  0  0  0  0  0  0  0  0  0
   -1.8731    0.3275   -0.2332 H   0  0  0  0  0  0  0  0  0  0  0  0
    0.0732   -0.5395    3.2095 H   0  0  0  0  0  0  0  0  0  0  0  0
    0.3140   -1.2519    1.6233 H   0  0  0  0  0  0  0  0  0  0  0  0
   -2.1897   -1.4352    1.3328 H   0  0  0  0  0  0  0  0  0  0  0  0
   -1.6506   -2.2917    2.7742 H   0  0  0  0  0  0  0  0  0  0  0  0
   -2.4161   -0.7013    2.9227 H   0  0  0  0  0  0  0  0  0  0  0  0
  1  2  2  3
  1  5  1  0
  1  6  1  0
  2  3  1  0
  4  7  1  0
  7  8  1  0
  7 11  1  0
  7 12  1  0
  8  9  1  0
  9 10  1  0
  9 13  1  0
  9 14  1  0
 10 15  1  0
 10 16  1  0
 10 17  1  0
M  RAD  1   3   2
M  END
>  <reaction>  (5) 
rmg_rxn_618

>  <mol_properties>  (5) 
{"0": {"label": "*1", "atom_type": "Cs"}, "1": {"label": "*0", "atom_type": "N3d"}, "3": {"label": "*2", "atom_type": "H0"}, "6": {"label": "*3", "atom_type": "Cs"}, "7": {"label": "*4", "atom_type": "S2s"}}

>  <type>  (5) 
unop_1

>  <geom_source>  (5) 
Heuristics

$$$$

     RDKit          3D

 17 15  0  0  0  0  0  0  0  0999 V2000
    1.8796    1.1755   -0.5887 C   0  0  0  0  0  0  0  0  0  0  0  0
    1.8796   -0.1702   -1.1855 N   0  0  0  0  0  0  0  0  0  0  0  0
    1.8796   -0.1702   -2.3786 O   0  0  0  0  0  1  0  0  0  0  0  0
    0.8236    1.2469    0.1839 H   0  0  0  0  0  0  0  0  0  0  0  0
    1.8796    1.9560   -1.3505 H   0  0  0  0  0  0  0  0  0  0  0  0
    2.7596    1.2350    0.0551 H   0  0  0  0  0  0  0  0  0  0  0  0
   -0.2312    1.3182    0.9556 C   0  0  0  0  0  0  0  0  0  0  0  0
   -0.6482   -0.3018    1.6234 S   0  0  0  0  0  0  0  0  0  0  0  0
   -1.3693   -1.0886    0.1626 C   0  0  0  0  0  0  0  0  0  0  0  0
   -2.6975   -0.5042   -0.2913 C   0  0  0  0  0  0  0  0  0  0  0  0
    0.3034    1.8549    1.7382 H   0  0  0  0  0  0  0  0  0  0  0  0
   -1.1193    1.8899    0.6883 H   0  0  0  0  0  0  0  0  0  0  0  0
   -1.4913   -2.1346    0.4486 H   0  0  0  0  0  0  0  0  0  0  0  0
   -0.6338   -1.0618   -0.6446 H   0  0  0  0  0  0  0  0  0  0  0  0
   -2.5909    0.5364   -0.6010 H   0  0  0  0  0  0  0  0  0  0  0  0
   -3.0862   -1.0637   -1.1453 H   0  0  0  0  0  0  0  0  0  0  0  0
   -3.4336   -0.5444    0.5121 H   0  0  0  0  0  0  0  0  0  0  0  0
  1  2  2  3
  1  5  1  0
  1  6  1  0
  2  3  1  0
  4  7  1  0
  7  8  1  0
  7 11  1  0
  7 12  1  0
  8  9  1  0
  9 10  1  0
  9 13  1  0
  9 14  1  0
 10 15  1  0
 10 16  1  0
 10 17  1  0
M  RAD  1   3   2
M  END
>  <reaction>  (6) 
rmg_rxn_618

>  <mol_properties>  (6) 
{"0": {"label": "*1", "atom_type": "Cs"}, "1": {"label": "*0", "atom_type": "N3d"}, "3": {"label": "*2", "atom_type": "H0"}, "6": {"label": "*3", "atom_type": "Cs"}, "7": {"label": "*4", "atom_type": "S2s"}}

>  <type>  (6) 
unop_2

>  <geom_source>  (6) 
Heuristics

$$$$

     RDKit          3D

 17 15  0  0  0  0  0  0  0  0999 V2000
    1.0946    0.0870   -1.7207 C   0  0  0  0  0  0  0  0  0  0  0  0
    1.0946   -1.2587   -2.3175 N   0  0  0  0  0  0  0  0  0  0  0  0
    1.0946   -1.2587   -3.5107 O   0  0  0  0  0  1  0  0  0  0  0  0
    0.0386    0.1584   -0.9481 H   0  0  0  0  0  0  0  0  0  0  0  0
    1.0946    0.8675   -2.4825 H   0  0  0  0  0  0  0  0  0  0  0  0
    1.9746    0.1465   -1.0769 H   0  0  0  0  0  0  0  0  0  0  0  0
   -1.0162    0.2297   -0.1764 C   0  0  0  0  0  0  0  0  0  0  0  0
   -0.7245    1.3453    1.2073 S   0  0  0  0  0  0  0  0  0  0  0  0
    0.0808    0.2231    2.3757 C   0  0  0  0  0  0  0  0  0  0  0  0
   -0.8160   -0.8669    2.9406 C   0  0  0  0  0  0  0  0  0  0  0  0
   -1.4217    0.8321   -0.9883 H   0  0  0  0  0  0  0  0  0  0  0  0
   -1.7381   -0.5476    0.0718 H   0  0  0  0  0  0  0  0  0  0  0  0
    0.4396    0.8736    3.1752 H   0  0  0  0  0  0  0  0  0  0  0  0
    0.9620   -0.2061    1.8933 H   0  0  0  0  0  0  0  0  0  0  0  0
   -1.1681   -1.5399    2.1575 H   0  0  0  0  0  0  0  0  0  0  0  0
   -0.2688   -1.4684    3.6702 H   0  0  0  0  0  0  0  0  0  0  0  0
   -1.6878   -0.4352    3.4331 H   0  0  0  0  0  0  0  0  0  0  0  0
  1  2  2  3
  1  5  1  0
  1  6  1  0
  2  3  1  0
  4  7  1  0
  7  8  1  0
  7 11  1  0
  7 12  1  0
  8  9  1  0
  9 10  1  0
  9 13  1  0
  9 14  1  0
 10 15  1  0
 10 16  1  0
 10 17  1  0
M  RAD  1   3   2
M  END
>  <reaction>  (7) 
rmg_rxn_618

>  <mol_properties>  (7) 
{"0": {"label": "*1", "atom_type": "Cs"}, "1": {"label": "*0", "atom_type": "N3d"}, "3": {"label": "*2", "atom_type": "H0"}, "6": {"label": "*3", "atom_type": "Cs"}, "7": {"label": "*4", "atom_type": "S2s"}}

>  <type>  (7) 
unop_3

>  <geom_source>  (7) 
Heuristics

$$$$

     RDKit          3D

 17 15  0  0  0  0  0  0  0  0999 V2000
    1.9124    0.0552    0.2375 C   0  0  0  0  0  0  0  0  0  0  0  0
    1.9124   -1.2906   -0.3593 N   0  0  0  0  0  0  0  0  0  0  0  0
    1.9124   -1.2906   -1.5525 O   0  0  0  0  0  1  0  0  0  0  0  0
    0.8564    0.1266    1.0100 H   0  0  0  0  0  0  0  0  0  0  0  0
    1.9124    0.8356   -0.5243 H   0  0  0  0  0  0  0  0  0  0  0  0
    2.7924    0.1147    0.8813 H   0  0  0  0  0  0  0  0  0  0  0  0
   -0.1984    0.1979    1.7818 C   0  0  0  0  0  0  0  0  0  0  0  0
   -1.7069   -0.0595    0.8317 S   0  0  0  0  0  0  0  0  0  0  0  0
   -1.1531    0.4440   -0.8154 C   0  0  0  0  0  0  0  0  0  0  0  0
   -0.8502    1.9263   -0.9653 C   0  0  0  0  0  0  0  0  0  0  0  0
   -0.3929   -0.1675    2.7892 H   0  0  0  0  0  0  0  0  0  0  0  0
    0.0708    1.2519    1.8416 H   0  0  0  0  0  0  0  0  0  0  0  0
   -1.9697    0.1531   -1.4782 H   0  0  0  0  0  0  0  0  0  0  0  0
   -0.2869   -0.1622   -1.0905 H   0  0  0  0  0  0  0  0  0  0  0  0
   -0.0217    2.2314   -0.3244 H   0  0  0  0  0  0  0  0  0  0  0  0
   -0.5699    2.1540   -1.9963 H   0  0  0  0  0  0  0  0  0  0  0  0
   -1.7206    2.5284   -0.7028 H   0  0  0  0  0  0  0  0  0  0  0  0
  1  2  2  3
  1  5  1  0
  1  6  1  0
  2  3  1  0
  4  7  1  0
  7  8  1  0
  7 11  1  0
  7 12  1  0
  8  9  1  0
  9 10  1  0
  9 13  1  0
  9 14  1  0
 10 15  1  0
 10 16  1  0
 10 17  1  0
M  RAD  1   3   2
M  END
>  <reaction>  (8) 
rmg_rxn_618

>  <mol_properties>  (8) 
{"0": {"label": "*1", "atom_type": "Cs"}, "1": {"label": "*0", "atom_type": "N3d"}, "3": {"label": "*2", "atom_type": "H0"}, "6": {"label": "*3", "atom_type": "Cs"}, "7": {"label": "*4", "atom_type": "S2s"}}

>  <type>  (8) 
unop_4

>  <geom_source>  (8) 
Heuristics

$$$$

     RDKit          3D

 17 15  0  0  0  0  0  0  0  0999 V2000
    0.9648   -0.4686   -1.4150 C   0  0  0  0  0  0  0  0  0  0  0  0
    0.9648   -1.8144   -2.0118 N   0  0  0  0  0  0  0  0  0  0  0  0
    0.9648   -1.8144   -3.2049 O   0  0  0  0  0  1  0  0  0  0  0  0
   -0.0912   -0.3972   -0.6424 H   0  0  0  0  0  0  0  0  0  0  0  0
    0.9648    0.3119   -2.1767 H   0  0  0  0  0  0  0  0  0  0  0  0
    1.8448   -0.4091   -0.7712 H   0  0  0  0  0  0  0  0  0  0  0  0
   -1.1460   -0.3259    0.1293 C   0  0  0  0  0  0  0  0  0  0  0  0
   -1.2538    1.2885    0.9209 S   0  0  0  0  0  0  0  0  0  0  0  0
    0.3508    1.3589    1.7536 C   0  0  0  0  0  0  0  0  0  0  0  0
    0.5219    0.3765    2.9012 C   0  0  0  0  0  0  0  0  0  0  0  0
   -2.0372   -0.4361   -0.4870 H   0  0  0  0  0  0  0  0  0  0  0  0
   -1.1261   -1.1363    0.8572 H   0  0  0  0  0  0  0  0  0  0  0  0
    0.4247    2.3854    2.1166 H   0  0  0  0  0  0  0  0  0  0  0  0
    1.1359    1.2273    1.0055 H   0  0  0  0  0  0  0  0  0  0  0  0
    0.4714   -0.6564    2.5536 H   0  0  0  0  0  0  0  0  0  0  0  0
    1.4946    0.5160    3.3784 H   0  0  0  0  0  0  0  0  0  0  0  0
   -0.2552    0.5190    3.6527 H   0  0  0  0  0  0  0  0  0  0  0  0
  1  2  2  3
  1  5  1  0
  1  6  1  0
  2  3  1  0
  4  7  1  0
  7  8  1  0
  7 11  1  0
  7 12  1  0
  8  9  1  0
  9 10  1  0
  9 13  1  0
  9 14  1  0
 10 15  1  0
 10 16  1  0
 10 17  1  0
M  RAD  1   3   2
M  END
>  <reaction>  (9) 
rmg_rxn_618

>  <mol_properties>  (9) 
{"0": {"label": "*1", "atom_type": "Cs"}, "1": {"label": "*0", "atom_type": "N3d"}, "3": {"label": "*2", "atom_type": "H0"}, "6": {"label": "*3", "atom_type": "Cs"}, "7": {"label": "*4", "atom_type": "S2s"}}

>  <type>  (9) 
unop_5

>  <geom_source>  (9) 
Heuristics

$$$$

     RDKit          3D

 17 15  0  0  0  0  0  0  0  0999 V2000
    1.7380   -0.4070    0.1135 C   0  0  0  0  0  0  0  0  0  0  0  0
    1.7380   -1.7527   -0.4834 N   0  0  0  0  0  0  0  0  0  0  0  0
    1.7380   -1.7527   -1.6765 O   0  0  0  0  0  1  0  0  0  0  0  0
    0.6820   -0.3356    0.8860 H   0  0  0  0  0  0  0  0  0  0  0  0
    1.7380    0.3735   -0.6483 H   0  0  0  0  0  0  0  0  0  0  0  0
    2.6180   -0.3475    0.7573 H   0  0  0  0  0  0  0  0  0  0  0  0
   -0.3728   -0.2642    1.6577 C   0  0  0  0  0  0  0  0  0  0  0  0
   -1.7985    0.3451    0.7409 S   0  0  0  0  0  0  0  0  0  0  0  0
   -0.9816    1.0721   -0.7004 C   0  0  0  0  0  0  0  0  0  0  0  0
   -0.1506    2.3117   -0.4096 C   0  0  0  0  0  0  0  0  0  0  0  0
   -0.7594   -0.8127    2.5157 H   0  0  0  0  0  0  0  0  0  0  0  0
    0.2559    0.5481    2.0207 H   0  0  0  0  0  0  0  0  0  0  0  0
   -1.7977    1.3123   -1.3839 H   0  0  0  0  0  0  0  0  0  0  0  0
   -0.3774    0.3004   -1.1828 H   0  0  0  0  0  0  0  0  0  0  0  0
    0.6832    2.0862    0.2568 H   0  0  0  0  0  0  0  0  0  0  0  0
    0.2673    2.7142   -1.3352 H   0  0  0  0  0  0  0  0  0  0  0  0
   -0.7593    3.0852    0.0597 H   0  0  0  0  0  0  0  0  0  0  0  0
  1  2  2  3
  1  5  1  0
  1  6  1  0
  2  3  1  0
  4  7  1  0
  7  8  1  0
  7 11  1  0
  7 12  1  0
  8  9  1  0
  9 10  1  0
  9 13  1  0
  9 14  1  0
 10 15  1  0
 10 16  1  0
 10 17  1  0
M  RAD  1   3   2
M  END
>  <reaction>  (10) 
rmg_rxn_618

>  <mol_properties>  (10) 
{"0": {"label": "*1", "atom_type": "Cs"}, "1": {"label": "*0", "atom_type": "N3d"}, "3": {"label": "*2", "atom_type": "H0"}, "6": {"label": "*3", "atom_type": "Cs"}, "7": {"label": "*4", "atom_type": "S2s"}}

>  <type>  (10) 
unop_6

>  <geom_source>  (10) 
Heuristics

$$$$

     RDKit          3D

 17 15  0  0  0  0  0  0  0  0999 V2000
    1.4612   -0.7540   -0.2295 C   0  0  0  0  0  0  0  0  0  0  0  0
    1.4612   -2.0997   -0.8263 N   0  0  0  0  0  0  0  0  0  0  0  0
    1.4612   -2.0997   -2.0194 O   0  0  0  0  0  1  0  0  0  0  0  0
    0.4052   -0.6826    0.5431 H   0  0  0  0  0  0  0  0  0  0  0  0
    1.4612    0.0265   -0.9912 H   0  0  0  0  0  0  0  0  0  0  0  0
    2.3413   -0.6945    0.4144 H   0  0  0  0  0  0  0  0  0  0  0  0
   -0.6496   -0.6112    1.3148 C   0  0  0  0  0  0  0  0  0  0  0  0
   -1.7489    0.7108    0.7781 S   0  0  0  0  0  0  0  0  0  0  0  0
   -0.6326    1.6632   -0.2801 C   0  0  0  0  0  0  0  0  0  0  0  0
    0.4961    2.3722    0.4514 C   0  0  0  0  0  0  0  0  0  0  0  0
   -1.2530   -1.3087    1.8943 H   0  0  0  0  0  0  0  0  0  0  0  0
    0.1551   -0.2402    1.9486 H   0  0  0  0  0  0  0  0  0  0  0  0
   -1.2798    2.3884   -0.7761 H   0  0  0  0  0  0  0  0  0  0  0  0
   -0.2409    1.0012   -1.0559 H   0  0  0  0  0  0  0  0  0  0  0  0
    1.1659    1.6611    0.9370 H   0  0  0  0  0  0  0  0  0  0  0  0
    1.0925    2.9602   -0.2499 H   0  0  0  0  0  0  0  0  0  0  0  0
    0.1018    3.0422    1.2161 H   0  0  0  0  0  0  0  0  0  0  0  0
  1  2  2  3
  1  5  1  0
  1  6  1  0
  2  3  1  0
  4  7  1  0
  7  8  1  0
  7 11  1  0
  7 12  1  0
  8  9  1  0
  9 10  1  0
  9 13  1  0
  9 14  1  0
 10 15  1  0
 10 16  1  0
 10 17  1  0
M  RAD  1   3   2
M  END
>  <reaction>  (11) 
rmg_rxn_618

>  <mol_properties>  (11) 
{"0": {"label": "*1", "atom_type": "Cs"}, "1": {"label": "*0", "atom_type": "N3d"}, "3": {"label": "*2", "atom_type": "H0"}, "6": {"label": "*3", "atom_type": "Cs"}, "7": {"label": "*4", "atom_type": "S2s"}}

>  <type>  (11) 
unop_7

>  <geom_source>  (11) 
Heuristics

$$$$

     RDKit          3D

 17 15  0  0  0  0  0  0  0  0999 V2000
    1.4448    0.9586   -1.4759 C   0  0  0  0  0  0  0  0  0  0  0  0
    1.4448   -0.3871   -2.0727 N   0  0  0  0  0  0  0  0  0  0  0  0
    1.4448   -0.3871   -3.2658 O   0  0  0  0  0  1  0  0  0  0  0  0
    0.3888    1.0300   -0.7033 H   0  0  0  0  0  0  0  0  0  0  0  0
    1.4448    1.7391   -2.2376 H   0  0  0  0  0  0  0  0  0  0  0  0
    2.3248    1.0181   -0.8320 H   0  0  0  0  0  0  0  0  0  0  0  0
   -0.6660    1.1013    0.0684 C   0  0  0  0  0  0  0  0  0  0  0  0
   -0.2743    0.5619    1.7418 S   0  0  0  0  0  0  0  0  0  0  0  0
   -0.8012   -1.1672    1.6662 C   0  0  0  0  0  0  0  0  0  0  0  0
   -2.3014   -1.3757    1.5342 C   0  0  0  0  0  0  0  0  0  0  0  0
   -0.2983    2.1219   -0.0291 H   0  0  0  0  0  0  0  0  0  0  0  0
   -1.7392    1.1005   -0.1194 H   0  0  0  0  0  0  0  0  0  0  0  0
   -0.4364   -1.6042    2.5972 H   0  0  0  0  0  0  0  0  0  0  0  0
   -0.2648   -1.6580    0.8509 H   0  0  0  0  0  0  0  0  0  0  0  0
   -2.6812   -0.9627    0.5985 H   0  0  0  0  0  0  0  0  0  0  0  0
   -2.5387   -2.4420    1.5437 H   0  0  0  0  0  0  0  0  0  0  0  0
   -2.8334   -0.8960    2.3564 H   0  0  0  0  0  0  0  0  0  0  0  0
  1  2  2  3
  1  5  1  0
  1  6  1  0
  2  3  1  0
  4  7  1  0
  7  8  1  0
  7 11  1  0
  7 12  1  0
  8  9  1  0
  9 10  1  0
  9 13  1  0
  9 14  1  0
 10 15  1  0
 10 16  1  0
 10 17  1  0
M  RAD  1   3   2
M  END
>  <reaction>  (12) 
rmg_rxn_618

>  <mol_properties>  (12) 
{"0": {"label": "*1", "atom_type": "Cs"}, "1": {"label": "*0", "atom_type": "N3d"}, "3": {"label": "*2", "atom_type": "H0"}, "6": {"label": "*3", "atom_type": "Cs"}, "7": {"label": "*4", "atom_type": "S2s"}}

>  <type>  (12) 
unop_8

>  <geom_source>  (12) 
Heuristics

$$$$

     RDKit          3D

 17 15  0  0  0  0  0  0  0  0999 V2000
    1.9944    0.5243    0.1493 C   0  0  0  0  0  0  0  0  0  0  0  0
    1.9944   -0.8215   -0.4475 N   0  0  0  0  0  0  0  0  0  0  0  0
    1.9944   -0.8215   -1.6406 O   0  0  0  0  0  1  0  0  0  0  0  0
    0.9384    0.5957    0.9219 H   0  0  0  0  0  0  0  0  0  0  0  0
    1.9944    1.3047   -0.6125 H   0  0  0  0  0  0  0  0  0  0  0  0
    2.8744    0.5838    0.7931 H   0  0  0  0  0  0  0  0  0  0  0  0
   -0.1164    0.6670    1.6936 C   0  0  0  0  0  0  0  0  0  0  0  0
   -1.4421   -0.3787    1.0663 S   0  0  0  0  0  0  0  0  0  0  0  0
   -1.2589   -0.1163   -0.7144 C   0  0  0  0  0  0  0  0  0  0  0  0
   -1.6092    1.2824   -1.1963 C   0  0  0  0  0  0  0  0  0  0  0  0
   -0.0737    0.5115    2.7707 H   0  0  0  0  0  0  0  0  0  0  0  0
   -0.3055    1.7229    1.5034 H   0  0  0  0  0  0  0  0  0  0  0  0
   -1.9237   -0.8532   -1.1682 H   0  0  0  0  0  0  0  0  0  0  0  0
   -0.2399   -0.3854   -1.0017 H   0  0  0  0  0  0  0  0  0  0  0  0
   -0.9411    2.0312   -0.7683 H   0  0  0  0  0  0  0  0  0  0  0  0
   -1.5185    1.3431   -2.2833 H   0  0  0  0  0  0  0  0  0  0  0  0
   -2.6312    1.5432   -0.9197 H   0  0  0  0  0  0  0  0  0  0  0  0
  1  2  2  3
  1  5  1  0
  1  6  1  0
  2  3  1  0
  4  7  1  0
  7  8  1  0
  7 11  1  0
  7 12  1  0
  8  9  1  0
  9 10  1  0
  9 13  1  0
  9 14  1  0
 10 15  1  0
 10 16  1  0
 10 17  1  0
M  RAD  1   3   2
M  END
>  <reaction>  (13) 
rmg_rxn_618

>  <mol_properties>  (13) 
{"0": {"label": "*1", "atom_type": "Cs"}, "1": {"label": "*0", "atom_type": "N3d"}, "3": {"label": "*2", "atom_type": "H0"}, "6": {"label": "*3", "atom_type": "Cs"}, "7": {"label": "*4", "atom_type": "S2s"}}

>  <type>  (13) 
unop_9

>  <geom_source>  (13) 
Heuristics

$$$$

     RDKit          3D

 17 15  0  0  0  0  0  0  0  0999 V2000
    1.6726    1.1871   -1.0775 C   0  0  0  0  0  0  0  0  0  0  0  0
    1.6726   -0.1586   -1.6743 N   0  0  0  0  0  0  0  0  0  0  0  0
    1.6726   -0.1586   -2.8674 O   0  0  0  0  0  1  0  0  0  0  0  0
    0.6165    1.2585   -0.3049 H   0  0  0  0  0  0  0  0  0  0  0  0
    1.6726    1.9676   -1.8393 H   0  0  0  0  0  0  0  0  0  0  0  0
    2.5526    1.2466   -0.4337 H   0  0  0  0  0  0  0  0  0  0  0  0
   -0.4383    1.3299    0.4668 C   0  0  0  0  0  0  0  0  0  0  0  0
   -0.3729    0.0777    1.7600 S   0  0  0  0  0  0  0  0  0  0  0  0
   -1.1666   -1.3128    0.9175 C   0  0  0  0  0  0  0  0  0  0  0  0
   -2.6486   -1.1289    0.6322 C   0  0  0  0  0  0  0  0  0  0  0  0
    0.1048    2.1975    0.8389 H   0  0  0  0  0  0  0  0  0  0  0  0
   -1.4609    1.6315    0.2427 H   0  0  0  0  0  0  0  0  0  0  0  0
   -1.0097   -2.1615    1.5852 H   0  0  0  0  0  0  0  0  0  0  0  0
   -0.6144   -1.5227   -0.0014 H   0  0  0  0  0  0  0  0  0  0  0  0
   -2.8235   -0.2965   -0.0509 H   0  0  0  0  0  0  0  0  0  0  0  0
   -3.0601   -2.0280    0.1676 H   0  0  0  0  0  0  0  0  0  0  0  0
   -3.1993   -0.9328    1.5527 H   0  0  0  0  0  0  0  0  0  0  0  0
  1  2  2  3
  1  5  1  0
  1  6  1  0
  2  3  1  0
  4  7  1  0
  7  8  1  0
  7 11  1  0
  7 12  1  0
  8  9  1  0
  9 10  1  0
  9 13  1  0
  9 14  1  0
 10 15  1  0
 10 16  1  0
 10 17  1  0
M  RAD  1   3   2
M  END
>  <reaction>  (14) 
rmg_rxn_618

>  <mol_properties>  (14) 
{"0": {"label": "*1", "atom_type": "Cs"}, "1": {"label": "*0", "atom_type": "N3d"}, "3": {"label": "*2", "atom_type": "H0"}, "6": {"label": "*3", "atom_type": "Cs"}, "7": {"label": "*4", "atom_type": "S2s"}}

>  <type>  (14) 
unop_10

>  <geom_source>  (14) 
Heuristics

$$$$

     RDKit          3D

 17 15  0  0  0  0  0  0  0  0999 V2000
    1.1302   -0.8299   -0.7822 C   0  0  0  0  0  0  0  0  0  0  0  0
    1.1302   -2.1757   -1.3790 N   0  0  0  0  0  0  0  0  0  0  0  0
    1.1302   -2.1757   -2.5721 O   0  0  0  0  0  1  0  0  0  0  0  0
    0.0742   -0.7585   -0.0096 H   0  0  0  0  0  0  0  0  0  0  0  0
    1.1302   -0.0495   -1.5439 H   0  0  0  0  0  0  0  0  0  0  0  0
    2.0102   -0.7704   -0.1384 H   0  0  0  0  0  0  0  0  0  0  0  0
   -0.9806   -0.6872    0.7621 C   0  0  0  0  0  0  0  0  0  0  0  0
   -1.5976    1.0027    0.8508 S   0  0  0  0  0  0  0  0  0  0  0  0
   -0.0715    1.9300    0.5600 C   0  0  0  0  0  0  0  0  0  0  0  0
    0.9588    1.8359    1.6740 C   0  0  0  0  0  0  0  0  0  0  0  0
   -1.8465   -1.3441    0.8327 H   0  0  0  0  0  0  0  0  0  0  0  0
   -0.3033   -0.9175    1.5838 H   0  0  0  0  0  0  0  0  0  0  0  0
   -0.4004    2.9626    0.4315 H   0  0  0  0  0  0  0  0  0  0  0  0
    0.3532    1.6089   -0.3939 H   0  0  0  0  0  0  0  0  0  0  0  0
    1.3147    0.8128    1.8034 H   0  0  0  0  0  0  0  0  0  0  0  0
    1.8256    2.4592    1.4429 H   0  0  0  0  0  0  0  0  0  0  0  0
    0.5361    2.1696    2.6222 H   0  0  0  0  0  0  0  0  0  0  0  0
  1  2  2  3
  1  5  1  0
  1  6  1  0
  2  3  1  0
  4  7  1  0
  7  8  1  0
  7 11  1  0
  7 12  1  0
  8  9  1  0
  9 10  1  0
  9 13  1  0
  9 14  1  0
 10 15  1  0
 10 16  1  0
 10 17  1  0
M  RAD  1   3   2
M  END
>  <reaction>  (15) 
rmg_rxn_618

>  <mol_properties>  (15) 
{"0": {"label": "*1", "atom_type": "Cs"}, "1": {"label": "*0", "atom_type": "N3d"}, "3": {"label": "*2", "atom_type": "H0"}, "6": {"label": "*3", "atom_type": "Cs"}, "7": {"label": "*4", "atom_type": "S2s"}}

>  <type>  (15) 
unop_11

>  <geom_source>  (15) 
Heuristics

$$$$

     RDKit          3D

 17 15  0  0  0  0  0  0  0  0999 V2000
    1.9915    0.9262   -0.1405 C   0  0  0  0  0  0  0  0  0  0  0  0
    1.9915   -0.4196   -0.7373 N   0  0  0  0  0  0  0  0  0  0  0  0
    1.9915   -0.4196   -1.9304 O   0  0  0  0  0  1  0  0  0  0  0  0
    0.9355    0.9976    0.6321 H   0  0  0  0  0  0  0  0  0  0  0  0
    1.9915    1.7066   -0.9023 H   0  0  0  0  0  0  0  0  0  0  0  0
    2.8715    0.9857    0.5033 H   0  0  0  0  0  0  0  0  0  0  0  0
   -0.1193    1.0689    1.4038 C   0  0  0  0  0  0  0  0  0  0  0  0
   -1.0455   -0.4756    1.3687 S   0  0  0  0  0  0  0  0  0  0  0  0
   -1.3634   -0.6330   -0.4054 C   0  0  0  0  0  0  0  0  0  0  0  0
   -2.3165    0.4023   -0.9809 C   0  0  0  0  0  0  0  0  0  0  0  0
    0.2097    1.2171    2.4314 H   0  0  0  0  0  0  0  0  0  0  0  0
   -0.7339    1.9195    1.1109 H   0  0  0  0  0  0  0  0  0  0  0  0
   -1.7764   -1.6365   -0.5203 H   0  0  0  0  0  0  0  0  0  0  0  0
   -0.4063   -0.6191   -0.9319 H   0  0  0  0  0  0  0  0  0  0  0  0
   -1.9106    1.4111   -0.8933 H   0  0  0  0  0  0  0  0  0  0  0  0
   -2.4915    0.2088   -2.0417 H   0  0  0  0  0  0  0  0  0  0  0  0
   -3.2754    0.3772   -0.4623 H   0  0  0  0  0  0  0  0  0  0  0  0
  1  2  2  3
  1  5  1  0
  1  6  1  0
  2  3  1  0
  4  7  1  0
  7  8  1  0
  7 11  1  0
  7 12  1  0
  8  9  1  0
  9 10  1  0
  9 13  1  0
  9 14  1  0
 10 15  1  0
 10 16  1  0
 10 17  1  0
M  RAD  1   3   2
M  END
>  <reaction>  (16) 
rmg_rxn_618

>  <mol_properties>  (16) 
{"0": {"label": "*1", "atom_type": "Cs"}, "1": {"label": "*0", "atom_type": "N3d"}, "3": {"label": "*2", "atom_type": "H0"}, "6": {"label": "*3", "atom_type": "Cs"}, "7": {"label": "*4", "atom_type": "S2s"}}

>  <type>  (16) 
unop_12

>  <geom_source>  (16) 
Heuristics

$$$$

     RDKit          3D

 17 15  0  0  0  0  0  0  0  0999 V2000
   -0.5932    1.0675    0.7911 S   0  0  0  0  0  0  0  0  0  0  0  0
    3.4050   -0.7983    1.3299 O   0  0  0  0  0  1  0  0  0  0  0  0
    3.8200   -0.0129    0.5335 N   0  0  0  0  0  0  0  0  0  0  0  0
   -2.2211    0.5738    0.1212 C   0  0  0  0  0  0  0  0  0  0  0  0
   -2.6620   -0.7631    0.7029 C   0  0  0  0  0  0  0  0  0  0  0  0
    0.4021    0.1786   -0.4501 C   0  0  0  0  0  0  0  0  0  0  0  0
    2.9906    0.4141   -0.5599 C   0  0  0  0  0  0  0  0  0  0  0  0
   -2.9620    1.3492    0.4086 H   0  0  0  0  0  0  0  0  0  0  0  0
   -2.1987    0.5192   -0.9880 H   0  0  0  0  0  0  0  0  0  0  0  0
   -3.6756   -1.0156    0.3265 H   0  0  0  0  0  0  0  0  0  0  0  0
   -2.6978   -0.7044    1.8114 H   0  0  0  0  0  0  0  0  0  0  0  0
   -1.9624   -1.5697    0.4017 H   0  0  0  0  0  0  0  0  0  0  0  0
    0.1854    0.5701   -1.4657 H   0  0  0  0  0  0  0  0  0  0  0  0
    0.1891   -0.9090   -0.4127 H   0  0  0  0  0  0  0  0  0  0  0  0
    1.6992    0.3706   -0.1845 H   0  0  0  0  0  0  0  0  0  0  0  0
    3.5284    1.1823   -1.1527 H   0  0  0  0  0  0  0  0  0  0  0  0
    2.7531   -0.4521   -1.2130 H   0  0  0  0  0  0  0  0  0  0  0  0
  1  6  1  0
  1  4  1  0
  2  3  1  0
  3  7  2  3
  4  5  1  0
  4  8  1  0
  4  9  1  0
  5 10  1  0
  5 11  1  0
  5 12  1  0
  6 13  1  0
  6 14  1  0
  6 15  1  0
  7 16  1  0
  7 17  1  0
M  RAD  1   2   2
M  END
>  <reaction>  (17) 
rmg_rxn_618

>  <mol_properties>  (17) 
{"0": {"label": "*1", "atom_type": "Cs"}, "1": {"label": "*0", "atom_type": "N3d"}, "3": {"label": "*2", "atom_type": "H0"}, "6": {"label": "*3", "atom_type": "Cs"}, "7": {"label": "*4", "atom_type": "S2s"}}

>  <type>  (17) 
unop_13

>  <geom_source>  (17) 
AutoTST

$$$$

     RDKit          3D

 17 15  0  0  0  0  0  0  0  0999 V2000
    1.8796    1.1755   -0.5887 C   0  0  0  0  0  0  0  0  0  0  0  0
    1.8796   -0.1702   -1.1855 N   0  0  0  0  0  0  0  0  0  0  0  0
    1.8796   -0.1702   -2.3786 O   0  0  0  0  0  1  0  0  0  0  0  0
    0.8236    1.2469    0.1839 H   0  0  0  0  0  0  0  0  0  0  0  0
    1.8796    1.9560   -1.3505 H   0  0  0  0  0  0  0  0  0  0  0  0
    2.7597    1.2350    0.0551 H   0  0  0  0  0  0  0  0  0  0  0  0
   -0.2312    1.3182    0.9556 C   0  0  0  0  0  0  0  0  0  0  0  0
   -0.6482   -0.3018    1.6234 S   0  0  0  0  0  0  0  0  0  0  0  0
   -1.3693   -1.0886    0.1626 C   0  0  0  0  0  0  0  0  0  0  0  0
   -2.6975   -0.5042   -0.2913 C   0  0  0  0  0  0  0  0  0  0  0  0
    0.3034    1.8549    1.7382 H   0  0  0  0  0  0  0  0  0  0  0  0
   -1.1193    1.8899    0.6883 H   0  0  0  0  0  0  0  0  0  0  0  0
   -1.4913   -2.1346    0.4486 H   0  0  0  0  0  0  0  0  0  0  0  0
   -0.6338   -1.0618   -0.6446 H   0  0  0  0  0  0  0  0  0  0  0  0
   -2.5909    0.5364   -0.6010 H   0  0  0  0  0  0  0  0  0  0  0  0
   -3.0862   -1.0637   -1.1453 H   0  0  0  0  0  0  0  0  0  0  0  0
   -3.4336   -0.5444    0.5121 H   0  0  0  0  0  0  0  0  0  0  0  0
  1  2  2  3
  1  5  1  0
  1  6  1  0
  2  3  1  0
  4  7  1  0
  7  8  1  0
  7 11  1  0
  7 12  1  0
  8  9  1  0
  9 10  1  0
  9 13  1  0
  9 14  1  0
 10 15  1  0
 10 16  1  0
 10 17  1  0
M  RAD  1   3   2
M  END
>  <reaction>  (18) 
rmg_rxn_618

>  <mol_properties>  (18) 
{"0": {"label": "*1", "atom_type": "Cs"}, "1": {"label": "*0", "atom_type": "N3d"}, "3": {"label": "*2", "atom_type": "H0"}, "6": {"label": "*3", "atom_type": "Cs"}, "7": {"label": "*4", "atom_type": "S2s"}}

>  <type>  (18) 
unop_14

>  <geom_source>  (18) 
gaussian_log

$$$$
