
     RDKit          3D

  5  4  0  0  0  0  0  0  0  0999 V2000
    0.7361   -0.2872    0.4035 N   0  0  0  0  0  2  0  0  0  0  0  0
   -0.3891   -0.1505   -0.3131 N   0  0  0  0  0  0  0  0  0  0  0  0
    1.4909    0.0686   -0.1831 H   0  0  0  0  0  0  0  0  0  0  0  0
   -1.1819   -0.6340    0.0744 H   0  0  0  0  0  0  0  0  0  0  0  0
   -0.3592   -0.1189   -1.3223 H   0  0  0  0  0  0  0  0  0  0  0  0
  1  2  1  0
  1  3  1  0
  2  4  1  0
  2  5  1  0
M  RAD  1   1   2
M  END
>  <reaction>  (1) 
rmg_rxn_29

>  <mol_properties>  (1) 
{"0": {"label": "donator", "atom_type": "N3s"}, "2": {"label": "d_hydrogen", "atom_type": "H0"}}

>  <type>  (1) 
r1h

$$$$

     RDKit          3D

 13 12  0  0  0  0  0  0  0  0999 V2000
    2.0654   -0.2739   -0.0844 C   0  0  0  0  0  3  0  0  0  0  0  0
    0.6326   -0.4110   -0.4406 C   0  0  0  0  0  0  0  0  0  0  0  0
   -0.3055    0.4151    0.4359 C   0  0  0  0  0  0  0  0  0  0  0  0
   -1.7714    0.2357    0.0671 C   0  0  0  0  0  0  0  0  0  0  0  0
    2.3610    0.0676    0.8995 H   0  0  0  0  0  0  0  0  0  0  0  0
    2.8408   -0.6127   -0.7582 H   0  0  0  0  0  0  0  0  0  0  0  0
    0.3313   -1.4695   -0.3768 H   0  0  0  0  0  0  0  0  0  0  0  0
    0.4826   -0.1432   -1.4940 H   0  0  0  0  0  0  0  0  0  0  0  0
   -0.1518    0.1351    1.4826 H   0  0  0  0  0  0  0  0  0  0  0  0
   -0.0303    1.4705    0.3565 H   0  0  0  0  0  0  0  0  0  0  0  0
   -2.0768   -0.8084    0.1692 H   0  0  0  0  0  0  0  0  0  0  0  0
   -1.9546    0.5339   -0.9679 H   0  0  0  0  0  0  0  0  0  0  0  0
   -2.4194    0.8370    0.7066 H   0  0  0  0  0  0  0  0  0  0  0  0
  1  2  1  0
  1  5  1  0
  1  6  1  0
  2  3  1  0
  2  7  1  0
  2  8  1  0
  3  4  1  0
  3  9  1  0
  3 10  1  0
  4 11  1  0
  4 12  1  0
  4 13  1  0
M  RAD  1   1   2
M  END
>  <reaction>  (2) 
rmg_rxn_29

>  <mol_properties>  (2) 
{"0": {"label": "acceptor", "atom_type": "Cs"}}

>  <type>  (2) 
r2

$$$$

     RDKit          3D

 14 13  0  0  0  0  0  0  0  0999 V2000
    1.8106   -0.5953    0.5577 C   0  0  0  0  0  0  0  0  0  0  0  0
    0.5197    0.2064    0.6554 C   0  0  0  0  0  0  0  0  0  0  0  0
   -0.5206   -0.2080   -0.3788 C   0  0  0  0  0  0  0  0  0  0  0  0
   -1.8114    0.5937   -0.2812 C   0  0  0  0  0  0  0  0  0  0  0  0
    2.2725   -0.4752   -0.4251 H   0  0  0  0  0  0  0  0  0  0  0  0
    1.6214   -1.6612    0.7052 H   0  0  0  0  0  0  0  0  0  0  0  0
    2.5364   -0.2784    1.3084 H   0  0  0  0  0  0  0  0  0  0  0  0
    0.0930    0.0950    1.6574 H   0  0  0  0  0  0  0  0  0  0  0  0
    0.7393    1.2723    0.5354 H   0  0  0  0  0  0  0  0  0  0  0  0
   -0.7402   -1.2739   -0.2588 H   0  0  0  0  0  0  0  0  0  0  0  0
   -0.0938   -0.0965   -1.3808 H   0  0  0  0  0  0  0  0  0  0  0  0
   -1.6222    1.6596   -0.4287 H   0  0  0  0  0  0  0  0  0  0  0  0
   -2.2734    0.4736    0.7017 H   0  0  0  0  0  0  0  0  0  0  0  0
   -2.5373    0.2768   -1.0318 H   0  0  0  0  0  0  0  0  0  0  0  0
  1  2  1  0
  1  5  1  0
  1  6  1  0
  1  7  1  0
  2  3  1  0
  2  8  1  0
  2  9  1  0
  3  4  1  0
  3 10  1  0
  3 11  1  0
  4 12  1  0
  4 13  1  0
  4 14  1  0
M  END
>  <reaction>  (3) 
rmg_rxn_29

>  <mol_properties>  (3) 
{"0": {"label": "a_hydrogen", "atom_type": "H0"}, "1": {"label": "acceptor", "atom_type": "Cs"}}

>  <type>  (3) 
r2h

$$$$

     RDKit          3D

 18 16  0  0  0  0  0  0  0  0999 V2000
    0.2481   -2.6364   -0.0284 N   0  0  0  0  0  2  0  0  0  0  0  0
    1.0172   -2.4199   -1.1051 N   0  0  0  0  0  0  0  0  0  0  0  0
    0.2460   -1.5905    0.5366 H   0  0  0  0  0  0  0  0  0  0  0  0
    1.3382   -3.2649   -1.5535 H   0  0  0  0  0  0  0  0  0  0  0  0
    1.7117   -1.6839   -1.0610 H   0  0  0  0  0  0  0  0  0  0  0  0
    0.3674   -0.2593    1.0069 C   0  0  0  0  0  3  0  0  0  0  0  0
   -0.4190    0.6024    0.0612 C   0  0  0  0  0  0  0  0  0  0  0  0
   -0.4236    2.0822    0.4580 C   0  0  0  0  0  0  0  0  0  0  0  0
   -1.2257    2.9443   -0.5079 C   0  0  0  0  0  0  0  0  0  0  0  0
   -0.0467   -0.3645    2.0080 H   0  0  0  0  0  0  0  0  0  0  0  0
    1.4435   -0.0860    1.0230 H   0  0  0  0  0  0  0  0  0  0  0  0
   -1.4511    0.2431    0.0117 H   0  0  0  0  0  0  0  0  0  0  0  0
   -0.0151    0.5087   -0.9523 H   0  0  0  0  0  0  0  0  0  0  0  0
   -0.8322    2.1800    1.4679 H   0  0  0  0  0  0  0  0  0  0  0  0
    0.6078    2.4441    0.5078 H   0  0  0  0  0  0  0  0  0  0  0  0
   -2.2670    2.6172   -0.5517 H   0  0  0  0  0  0  0  0  0  0  0  0
   -0.8173    2.8832   -1.5193 H   0  0  0  0  0  0  0  0  0  0  0  0
   -1.2168    3.9929   -0.2064 H   0  0  0  0  0  0  0  0  0  0  0  0
  1  2  1  0
  1  3  1  0
  2  4  1  0
  2  5  1  0
  6  7  1  0
  6 10  1  0
  6 11  1  0
  7  8  1  0
  7 12  1  0
  7 13  1  0
  8  9  1  0
  8 14  1  0
  8 15  1  0
  9 16  1  0
  9 17  1  0
  9 18  1  0
M  RAD  2   1   2   6   2
M  END
>  <reaction>  (4) 
rmg_rxn_29

>  <mol_properties>  (4) 
{"0": {"label": "*1", "atom_type": "N3s"}, "1": {"label": "*0", "atom_type": "N3s"}, "2": {"label": "*2", "atom_type": "H0"}, "5": {"label": "*3", "atom_type": "Cs"}, "6": {"label": "*4", "atom_type": "Cs"}}

>  <type>  (4) 
ts

$$$$

     RDKit          3D

 18 16  0  0  0  0  0  0  0  0999 V2000
    0.6972   -2.1276   -1.1500 N   0  0  0  0  0  2  0  0  0  0  0  0
    0.6972   -2.1276   -2.4910 N   0  0  0  0  0  0  0  0  0  0  0  0
    0.6972   -0.9519   -0.8098 H   0  0  0  0  0  0  0  0  0  0  0  0
    0.8851   -3.0276   -2.8999 H   0  0  0  0  0  0  0  0  0  0  0  0
    1.0592   -1.3392   -3.0085 H   0  0  0  0  0  0  0  0  0  0  0  0
    0.6972    0.3060   -0.4458 C   0  0  0  0  0  3  0  0  0  0  0  0
   -0.5295    0.6458    0.3898 C   0  0  0  0  0  0  0  0  0  0  0  0
   -0.2190    1.5782    1.5550 C   0  0  0  0  0  0  0  0  0  0  0  0
   -1.4458    1.9180    2.3906 C   0  0  0  0  0  0  0  0  0  0  0  0
    1.4605   -0.1860    0.1617 H   0  0  0  0  0  0  0  0  0  0  0  0
    1.1441    1.2083   -0.8698 H   0  0  0  0  0  0  0  0  0  0  0  0
   -0.9766   -0.2754    0.7774 H   0  0  0  0  0  0  0  0  0  0  0  0
   -1.2907    1.1087   -0.2465 H   0  0  0  0  0  0  0  0  0  0  0  0
    0.5421    1.1153    2.1913 H   0  0  0  0  0  0  0  0  0  0  0  0
    0.2280    2.4994    1.1674 H   0  0  0  0  0  0  0  0  0  0  0  0
   -1.8927    1.0157    2.8146 H   0  0  0  0  0  0  0  0  0  0  0  0
   -2.2091    2.4100    1.7831 H   0  0  0  0  0  0  0  0  0  0  0  0
   -1.1952    2.5858    3.2165 H   0  0  0  0  0  0  0  0  0  0  0  0
  1  2  1  0
  1  3  1  0
  2  4  1  0
  2  5  1  0
  6  7  1  0
  6 10  1  0
  6 11  1  0
  7  8  1  0
  7 12  1  0
  7 13  1  0
  8  9  1  0
  8 14  1  0
  8 15  1  0
  9 16  1  0
  9 17  1  0
  9 18  1  0
M  RAD  2   1   2   6   2
M  END
>  <reaction>  (5) 
rmg_rxn_29

>  <mol_properties>  (5) 
{"0": {"label": "*1", "atom_type": "N3s"}, "1": {"label": "*0", "atom_type": "N3s"}, "2": {"label": "*2", "atom_type": "H0"}, "5": {"label": "*3", "atom_type": "Cs"}, "6": {"label": "*4", "atom_type": "Cs"}}

>  <type>  (5) 
unop_1

>  <geom_source>  (5) 
Heuristics

$$$$

     RDKit          3D

 18 16  0  0  0  0  0  0  0  0999 V2000
    0.5987   -2.6258    0.2797 N   0  0  0  0  0  2  0  0  0  0  0  0
    0.5987   -2.6258   -1.0613 N   0  0  0  0  0  0  0  0  0  0  0  0
    0.5987   -1.4500    0.6199 H   0  0  0  0  0  0  0  0  0  0  0  0
    0.7866   -3.5258   -1.4702 H   0  0  0  0  0  0  0  0  0  0  0  0
    0.9607   -1.8374   -1.5788 H   0  0  0  0  0  0  0  0  0  0  0  0
    0.5987   -0.1922    0.9839 C   0  0  0  0  0  3  0  0  0  0  0  0
   -0.1096    0.6855   -0.0392 C   0  0  0  0  0  0  0  0  0  0  0  0
   -0.5187    2.0433    0.5198 C   0  0  0  0  0  0  0  0  0  0  0  0
   -1.2270    2.9209   -0.5033 C   0  0  0  0  0  0  0  0  0  0  0  0
   -0.0433   -0.3830    1.8471 H   0  0  0  0  0  0  0  0  0  0  0  0
    1.5086    0.2895    1.3496 H   0  0  0  0  0  0  0  0  0  0  0  0
   -0.9996    0.1689   -0.4129 H   0  0  0  0  0  0  0  0  0  0  0  0
    0.5410    0.8364   -0.9067 H   0  0  0  0  0  0  0  0  0  0  0  0
   -1.1693    1.8923    1.3873 H   0  0  0  0  0  0  0  0  0  0  0  0
    0.3713    2.5598    0.8935 H   0  0  0  0  0  0  0  0  0  0  0  0
   -2.1369    2.4393   -0.8691 H   0  0  0  0  0  0  0  0  0  0  0  0
   -0.5850    3.1117   -1.3666 H   0  0  0  0  0  0  0  0  0  0  0  0
   -1.5083    3.8853   -0.0772 H   0  0  0  0  0  0  0  0  0  0  0  0
  1  2  1  0
  1  3  1  0
  2  4  1  0
  2  5  1  0
  6  7  1  0
  6 10  1  0
  6 11  1  0
  7  8  1  0
  7 12  1  0
  7 13  1  0
  8  9  1  0
  8 14  1  0
  8 15  1  0
  9 16  1  0
  9 17  1  0
  9 18  1  0
M  RAD  2   1   2   6   2
M  END
>  <reaction>  (6) 
rmg_rxn_29

>  <mol_properties>  (6) 
{"0": {"label": "*1", "atom_type": "N3s"}, "1": {"label": "*0", "atom_type": "N3s"}, "2": {"label": "*2", "atom_type": "H0"}, "5": {"label": "*3", "atom_type": "Cs"}, "6": {"label": "*4", "atom_type": "Cs"}}

>  <type>  (6) 
unop_2

>  <geom_source>  (6) 
Heuristics

$$$$

     RDKit          3D

 18 16  0  0  0  0  0  0  0  0999 V2000
    0.2791   -2.1184   -1.3525 N   0  0  0  0  0  2  0  0  0  0  0  0
    0.2791   -2.1184   -2.6935 N   0  0  0  0  0  0  0  0  0  0  0  0
    0.2791   -0.9426   -1.0123 H   0  0  0  0  0  0  0  0  0  0  0  0
    0.4670   -3.0183   -3.1024 H   0  0  0  0  0  0  0  0  0  0  0  0
    0.6411   -1.3299   -3.2110 H   0  0  0  0  0  0  0  0  0  0  0  0
    0.2791    0.3153   -0.6483 C   0  0  0  0  0  3  0  0  0  0  0  0
   -0.4292    0.5110    0.6854 C   0  0  0  0  0  0  0  0  0  0  0  0
    0.1075    1.6970    1.4784 C   0  0  0  0  0  0  0  0  0  0  0  0
   -0.6007    1.8926    2.8121 C   0  0  0  0  0  0  0  0  0  0  0  0
    1.3482    0.1437   -0.5022 H   0  0  0  0  0  0  0  0  0  0  0  0
    0.1704    1.1984   -1.2824 H   0  0  0  0  0  0  0  0  0  0  0  0
   -0.3325   -0.3971    1.2893 H   0  0  0  0  0  0  0  0  0  0  0  0
   -1.5016    0.6498    0.5148 H   0  0  0  0  0  0  0  0  0  0  0  0
    1.1800    1.5581    1.6490 H   0  0  0  0  0  0  0  0  0  0  0  0
    0.0109    2.6050    0.8745 H   0  0  0  0  0  0  0  0  0  0  0  0
   -0.4920    1.0096    3.4462 H   0  0  0  0  0  0  0  0  0  0  0  0
   -1.6698    2.0642    2.6660 H   0  0  0  0  0  0  0  0  0  0  0  0
   -0.1973    2.7470    3.3581 H   0  0  0  0  0  0  0  0  0  0  0  0
  1  2  1  0
  1  3  1  0
  2  4  1  0
  2  5  1  0
  6  7  1  0
  6 10  1  0
  6 11  1  0
  7  8  1  0
  7 12  1  0
  7 13  1  0
  8  9  1  0
  8 14  1  0
  8 15  1  0
  9 16  1  0
  9 17  1  0
  9 18  1  0
M  RAD  2   1   2   6   2
M  END
>  <reaction>  (7) 
rmg_rxn_29

>  <mol_properties>  (7) 
{"0": {"label": "*1", "atom_type": "N3s"}, "1": {"label": "*0", "atom_type": "N3s"}, "2": {"label": "*2", "atom_type": "H0"}, "5": {"label": "*3", "atom_type": "Cs"}, "6": {"label": "*4", "atom_type": "Cs"}}

>  <type>  (7) 
unop_3

>  <geom_source>  (7) 
Heuristics

$$$$

     RDKit          3D

 18 16  0  0  0  0  0  0  0  0999 V2000
   -0.9738   -2.4490   -0.1725 N   0  0  0  0  0  2  0  0  0  0  0  0
   -0.9738   -2.4490   -1.5135 N   0  0  0  0  0  0  0  0  0  0  0  0
   -0.9738   -1.2732    0.1677 H   0  0  0  0  0  0  0  0  0  0  0  0
   -0.7858   -3.3490   -1.9224 H   0  0  0  0  0  0  0  0  0  0  0  0
   -0.6118   -1.6606   -2.0310 H   0  0  0  0  0  0  0  0  0  0  0  0
   -0.9738   -0.0154    0.5317 C   0  0  0  0  0  3  0  0  0  0  0  0
    0.2530    0.7182    0.0066 C   0  0  0  0  0  0  0  0  0  0  0  0
    0.7237    1.8337    0.9326 C   0  0  0  0  0  0  0  0  0  0  0  0
    1.9505    2.5673    0.4076 C   0  0  0  0  0  0  0  0  0  0  0  0
   -1.8151    0.6701    0.6586 H   0  0  0  0  0  0  0  0  0  0  0  0
   -0.7707   -0.4718    1.5034 H   0  0  0  0  0  0  0  0  0  0  0  0
    0.0346    1.1397   -0.9799 H   0  0  0  0  0  0  0  0  0  0  0  0
    1.0713    0.0061   -0.1414 H   0  0  0  0  0  0  0  0  0  0  0  0
   -0.0946    2.5458    1.0806 H   0  0  0  0  0  0  0  0  0  0  0  0
    0.9421    1.4123    1.9191 H   0  0  0  0  0  0  0  0  0  0  0  0
    1.7474    3.0237   -0.5641 H   0  0  0  0  0  0  0  0  0  0  0  0
    2.7918    1.8818    0.2806 H   0  0  0  0  0  0  0  0  0  0  0  0
    2.2654    3.3593    1.0889 H   0  0  0  0  0  0  0  0  0  0  0  0
  1  2  1  0
  1  3  1  0
  2  4  1  0
  2  5  1  0
  6  7  1  0
  6 10  1  0
  6 11  1  0
  7  8  1  0
  7 12  1  0
  7 13  1  0
  8  9  1  0
  8 14  1  0
  8 15  1  0
  9 16  1  0
  9 17  1  0
  9 18  1  0
M  RAD  2   1   2   6   2
M  END
>  <reaction>  (8) 
rmg_rxn_29

>  <mol_properties>  (8) 
{"0": {"label": "*1", "atom_type": "N3s"}, "1": {"label": "*0", "atom_type": "N3s"}, "2": {"label": "*2", "atom_type": "H0"}, "5": {"label": "*3", "atom_type": "Cs"}, "6": {"label": "*4", "atom_type": "Cs"}}

>  <type>  (8) 
unop_4

>  <geom_source>  (8) 
Heuristics

$$$$

     RDKit          3D

 18 16  0  0  0  0  0  0  0  0999 V2000
   -0.0063   -2.1736   -1.3611 N   0  0  0  0  0  2  0  0  0  0  0  0
   -0.0063   -2.1736   -2.7021 N   0  0  0  0  0  0  0  0  0  0  0  0
   -0.0063   -0.9978   -1.0209 H   0  0  0  0  0  0  0  0  0  0  0  0
    0.1817   -3.0735   -3.1110 H   0  0  0  0  0  0  0  0  0  0  0  0
    0.3557   -1.3852   -3.2196 H   0  0  0  0  0  0  0  0  0  0  0  0
   -0.0063    0.2601   -0.6569 C   0  0  0  0  0  3  0  0  0  0  0  0
   -0.0063    0.4030    0.8590 C   0  0  0  0  0  0  0  0  0  0  0  0
   -0.0063    1.8553    1.3221 C   0  0  0  0  0  0  0  0  0  0  0  0
   -0.0063    1.9982    2.8381 C   0  0  0  0  0  0  0  0  0  0  0  0
    0.8752    0.7344   -1.0948 H   0  0  0  0  0  0  0  0  0  0  0  0
   -0.8878    0.7344   -1.0948 H   0  0  0  0  0  0  0  0  0  0  0  0
    0.8687   -0.1060    1.2760 H   0  0  0  0  0  0  0  0  0  0  0  0
   -0.8813   -0.1060    1.2760 H   0  0  0  0  0  0  0  0  0  0  0  0
    0.8687    2.3643    0.9052 H   0  0  0  0  0  0  0  0  0  0  0  0
   -0.8813    2.3643    0.9052 H   0  0  0  0  0  0  0  0  0  0  0  0
    0.8752    1.5238    3.2759 H   0  0  0  0  0  0  0  0  0  0  0  0
   -0.8878    1.5238    3.2759 H   0  0  0  0  0  0  0  0  0  0  0  0
   -0.0063    3.0464    3.1414 H   0  0  0  0  0  0  0  0  0  0  0  0
  1  2  1  0
  1  3  1  0
  2  4  1  0
  2  5  1  0
  6  7  1  0
  6 10  1  0
  6 11  1  0
  7  8  1  0
  7 12  1  0
  7 13  1  0
  8  9  1  0
  8 14  1  0
  8 15  1  0
  9 16  1  0
  9 17  1  0
  9 18  1  0
M  RAD  2   1   2   6   2
M  END
>  <reaction>  (9) 
rmg_rxn_29

>  <mol_properties>  (9) 
{"0": {"label": "*1", "atom_type": "N3s"}, "1": {"label": "*0", "atom_type": "N3s"}, "2": {"label": "*2", "atom_type": "H0"}, "5": {"label": "*3", "atom_type": "Cs"}, "6": {"label": "*4", "atom_type": "Cs"}}

>  <type>  (9) 
unop_5

>  <geom_source>  (9) 
Heuristics

$$$$

     RDKit          3D

 18 16  0  0  0  0  0  0  0  0999 V2000
   -0.9931   -2.2572   -0.7121 N   0  0  0  0  0  2  0  0  0  0  0  0
   -0.9931   -2.2572   -2.0531 N   0  0  0  0  0  0  0  0  0  0  0  0
   -0.9931   -1.0814   -0.3719 H   0  0  0  0  0  0  0  0  0  0  0  0
   -0.8052   -3.1571   -2.4620 H   0  0  0  0  0  0  0  0  0  0  0  0
   -0.6312   -1.4688   -2.5706 H   0  0  0  0  0  0  0  0  0  0  0  0
   -0.9931    0.1765   -0.0079 C   0  0  0  0  0  3  0  0  0  0  0  0
    0.4234    0.7131    0.1474 C   0  0  0  0  0  0  0  0  0  0  0  0
    0.5814    1.6449    1.3434 C   0  0  0  0  0  0  0  0  0  0  0  0
    1.9979    2.1816    1.4987 C   0  0  0  0  0  0  0  0  0  0  0  0
   -1.7080    0.9918   -0.1422 H   0  0  0  0  0  0  0  0  0  0  0  0
   -1.2976   -0.3867    0.8775 H   0  0  0  0  0  0  0  0  0  0  0  0
    0.7161    1.2460   -0.7631 H   0  0  0  0  0  0  0  0  0  0  0  0
    1.1236   -0.1223    0.2492 H   0  0  0  0  0  0  0  0  0  0  0  0
   -0.1188    2.4804    1.2416 H   0  0  0  0  0  0  0  0  0  0  0  0
    0.2886    1.1121    2.2538 H   0  0  0  0  0  0  0  0  0  0  0  0
    2.3023    2.7447    0.6132 H   0  0  0  0  0  0  0  0  0  0  0  0
    2.7128    1.3663    1.6329 H   0  0  0  0  0  0  0  0  0  0  0  0
    2.0825    2.8448    2.3611 H   0  0  0  0  0  0  0  0  0  0  0  0
  1  2  1  0
  1  3  1  0
  2  4  1  0
  2  5  1  0
  6  7  1  0
  6 10  1  0
  6 11  1  0
  7  8  1  0
  7 12  1  0
  7 13  1  0
  8  9  1  0
  8 14  1  0
  8 15  1  0
  9 16  1  0
  9 17  1  0
  9 18  1  0
M  RAD  2   1   2   6   2
M  END
>  <reaction>  (10) 
rmg_rxn_29

>  <mol_properties>  (10) 
{"0": {"label": "*1", "atom_type": "N3s"}, "1": {"label": "*0", "atom_type": "N3s"}, "2": {"label": "*2", "atom_type": "H0"}, "5": {"label": "*3", "atom_type": "Cs"}, "6": {"label": "*4", "atom_type": "Cs"}}

>  <type>  (10) 
unop_6

>  <geom_source>  (10) 
Heuristics

$$$$

     RDKit          3D

 18 16  0  0  0  0  0  0  0  0999 V2000
   -0.7098   -2.1276   -1.1500 N   0  0  0  0  0  2  0  0  0  0  0  0
   -0.7098   -2.1276   -2.4910 N   0  0  0  0  0  0  0  0  0  0  0  0
   -0.7098   -0.9519   -0.8098 H   0  0  0  0  0  0  0  0  0  0  0  0
   -0.5218   -3.0276   -2.8999 H   0  0  0  0  0  0  0  0  0  0  0  0
   -0.3478   -1.3392   -3.0085 H   0  0  0  0  0  0  0  0  0  0  0  0
   -0.7098    0.3060   -0.4458 C   0  0  0  0  0  3  0  0  0  0  0  0
    0.5170    0.6458    0.3898 C   0  0  0  0  0  0  0  0  0  0  0  0
    0.2065    1.5782    1.5550 C   0  0  0  0  0  0  0  0  0  0  0  0
    1.4332    1.9180    2.3906 C   0  0  0  0  0  0  0  0  0  0  0  0
   -1.1567    1.2083   -0.8698 H   0  0  0  0  0  0  0  0  0  0  0  0
   -1.4731   -0.1860    0.1617 H   0  0  0  0  0  0  0  0  0  0  0  0
    1.2781    1.1087   -0.2465 H   0  0  0  0  0  0  0  0  0  0  0  0
    0.9640   -0.2754    0.7774 H   0  0  0  0  0  0  0  0  0  0  0  0
   -0.2406    2.4994    1.1674 H   0  0  0  0  0  0  0  0  0  0  0  0
   -0.5547    1.1153    2.1913 H   0  0  0  0  0  0  0  0  0  0  0  0
    2.1965    2.4100    1.7831 H   0  0  0  0  0  0  0  0  0  0  0  0
    1.8801    1.0157    2.8146 H   0  0  0  0  0  0  0  0  0  0  0  0
    1.1826    2.5858    3.2165 H   0  0  0  0  0  0  0  0  0  0  0  0
  1  2  1  0
  1  3  1  0
  2  4  1  0
  2  5  1  0
  6  7  1  0
  6 10  1  0
  6 11  1  0
  7  8  1  0
  7 12  1  0
  7 13  1  0
  8  9  1  0
  8 14  1  0
  8 15  1  0
  9 16  1  0
  9 17  1  0
  9 18  1  0
M  RAD  2   1   2   6   2
M  END
>  <reaction>  (11) 
rmg_rxn_29

>  <mol_properties>  (11) 
{"0": {"label": "*1", "atom_type": "N3s"}, "1": {"label": "*0", "atom_type": "N3s"}, "2": {"label": "*2", "atom_type": "H0"}, "5": {"label": "*3", "atom_type": "Cs"}, "6": {"label": "*4", "atom_type": "Cs"}}

>  <type>  (11) 
unop_7

>  <geom_source>  (11) 
Heuristics

$$$$

     RDKit          3D

 18 16  0  0  0  0  0  0  0  0999 V2000
    0.9806   -2.2572   -0.7121 N   0  0  0  0  0  2  0  0  0  0  0  0
    0.9806   -2.2572   -2.0531 N   0  0  0  0  0  0  0  0  0  0  0  0
    0.9806   -1.0814   -0.3719 H   0  0  0  0  0  0  0  0  0  0  0  0
    1.1685   -3.1571   -2.4620 H   0  0  0  0  0  0  0  0  0  0  0  0
    1.3425   -1.4688   -2.5706 H   0  0  0  0  0  0  0  0  0  0  0  0
    0.9806    0.1765   -0.0079 C   0  0  0  0  0  3  0  0  0  0  0  0
   -0.4359    0.7131    0.1474 C   0  0  0  0  0  0  0  0  0  0  0  0
   -0.5940    1.6449    1.3434 C   0  0  0  0  0  0  0  0  0  0  0  0
   -2.0105    2.1816    1.4987 C   0  0  0  0  0  0  0  0  0  0  0  0
    1.2850   -0.3867    0.8775 H   0  0  0  0  0  0  0  0  0  0  0  0
    1.6954    0.9918   -0.1422 H   0  0  0  0  0  0  0  0  0  0  0  0
   -1.1362   -0.1223    0.2492 H   0  0  0  0  0  0  0  0  0  0  0  0
   -0.7287    1.2460   -0.7631 H   0  0  0  0  0  0  0  0  0  0  0  0
   -0.3012    1.1121    2.2538 H   0  0  0  0  0  0  0  0  0  0  0  0
    0.1063    2.4804    1.2416 H   0  0  0  0  0  0  0  0  0  0  0  0
   -2.7253    1.3663    1.6329 H   0  0  0  0  0  0  0  0  0  0  0  0
   -2.3149    2.7447    0.6132 H   0  0  0  0  0  0  0  0  0  0  0  0
   -2.0950    2.8448    2.3611 H   0  0  0  0  0  0  0  0  0  0  0  0
  1  2  1  0
  1  3  1  0
  2  4  1  0
  2  5  1  0
  6  7  1  0
  6 10  1  0
  6 11  1  0
  7  8  1  0
  7 12  1  0
  7 13  1  0
  8  9  1  0
  8 14  1  0
  8 15  1  0
  9 16  1  0
  9 17  1  0
  9 18  1  0
M  RAD  2   1   2   6   2
M  END
>  <reaction>  (12) 
rmg_rxn_29

>  <mol_properties>  (12) 
{"0": {"label": "*1", "atom_type": "N3s"}, "1": {"label": "*0", "atom_type": "N3s"}, "2": {"label": "*2", "atom_type": "H0"}, "5": {"label": "*3", "atom_type": "Cs"}, "6": {"label": "*4", "atom_type": "Cs"}}

>  <type>  (12) 
unop_8

>  <geom_source>  (12) 
Heuristics

$$$$

     RDKit          3D

 18 16  0  0  0  0  0  0  0  0999 V2000
   -0.6113   -2.6258    0.2797 N   0  0  0  0  0  2  0  0  0  0  0  0
   -0.6113   -2.6258   -1.0613 N   0  0  0  0  0  0  0  0  0  0  0  0
   -0.6113   -1.4500    0.6199 H   0  0  0  0  0  0  0  0  0  0  0  0
   -0.4233   -3.5258   -1.4702 H   0  0  0  0  0  0  0  0  0  0  0  0
   -0.2493   -1.8374   -1.5788 H   0  0  0  0  0  0  0  0  0  0  0  0
   -0.6113   -0.1922    0.9839 C   0  0  0  0  0  3  0  0  0  0  0  0
    0.0970    0.6855   -0.0392 C   0  0  0  0  0  0  0  0  0  0  0  0
    0.5061    2.0433    0.5198 C   0  0  0  0  0  0  0  0  0  0  0  0
    1.2144    2.9209   -0.5033 C   0  0  0  0  0  0  0  0  0  0  0  0
   -1.5212    0.2895    1.3496 H   0  0  0  0  0  0  0  0  0  0  0  0
    0.0307   -0.3830    1.8471 H   0  0  0  0  0  0  0  0  0  0  0  0
   -0.5536    0.8364   -0.9067 H   0  0  0  0  0  0  0  0  0  0  0  0
    0.9870    0.1689   -0.4129 H   0  0  0  0  0  0  0  0  0  0  0  0
   -0.3839    2.5598    0.8935 H   0  0  0  0  0  0  0  0  0  0  0  0
    1.1567    1.8923    1.3873 H   0  0  0  0  0  0  0  0  0  0  0  0
    0.5724    3.1117   -1.3666 H   0  0  0  0  0  0  0  0  0  0  0  0
    2.1243    2.4393   -0.8691 H   0  0  0  0  0  0  0  0  0  0  0  0
    1.4957    3.8853   -0.0772 H   0  0  0  0  0  0  0  0  0  0  0  0
  1  2  1  0
  1  3  1  0
  2  4  1  0
  2  5  1  0
  6  7  1  0
  6 10  1  0
  6 11  1  0
  7  8  1  0
  7 12  1  0
  7 13  1  0
  8  9  1  0
  8 14  1  0
  8 15  1  0
  9 16  1  0
  9 17  1  0
  9 18  1  0
M  RAD  2   1   2   6   2
M  END
>  <reaction>  (13) 
rmg_rxn_29

>  <mol_properties>  (13) 
{"0": {"label": "*1", "atom_type": "N3s"}, "1": {"label": "*0", "atom_type": "N3s"}, "2": {"label": "*2", "atom_type": "H0"}, "5": {"label": "*3", "atom_type": "Cs"}, "6": {"label": "*4", "atom_type": "Cs"}}

>  <type>  (13) 
unop_9

>  <geom_source>  (13) 
Heuristics

$$$$

     RDKit          3D

 18 16  0  0  0  0  0  0  0  0999 V2000
    0.9612   -2.4490   -0.1725 N   0  0  0  0  0  2  0  0  0  0  0  0
    0.9612   -2.4490   -1.5135 N   0  0  0  0  0  0  0  0  0  0  0  0
    0.9612   -1.2732    0.1677 H   0  0  0  0  0  0  0  0  0  0  0  0
    1.1491   -3.3490   -1.9224 H   0  0  0  0  0  0  0  0  0  0  0  0
    1.3232   -1.6606   -2.0310 H   0  0  0  0  0  0  0  0  0  0  0  0
    0.9612   -0.0154    0.5317 C   0  0  0  0  0  3  0  0  0  0  0  0
   -0.2656    0.7182    0.0066 C   0  0  0  0  0  0  0  0  0  0  0  0
   -0.7363    1.8337    0.9326 C   0  0  0  0  0  0  0  0  0  0  0  0
   -1.9630    2.5673    0.4076 C   0  0  0  0  0  0  0  0  0  0  0  0
    0.7581   -0.4718    1.5034 H   0  0  0  0  0  0  0  0  0  0  0  0
    1.8025    0.6701    0.6586 H   0  0  0  0  0  0  0  0  0  0  0  0
   -1.0839    0.0061   -0.1414 H   0  0  0  0  0  0  0  0  0  0  0  0
   -0.0472    1.1396   -0.9799 H   0  0  0  0  0  0  0  0  0  0  0  0
   -0.9547    1.4123    1.9191 H   0  0  0  0  0  0  0  0  0  0  0  0
    0.0820    2.5458    1.0806 H   0  0  0  0  0  0  0  0  0  0  0  0
   -2.8044    1.8818    0.2806 H   0  0  0  0  0  0  0  0  0  0  0  0
   -1.7600    3.0237   -0.5641 H   0  0  0  0  0  0  0  0  0  0  0  0
   -2.2780    3.3593    1.0889 H   0  0  0  0  0  0  0  0  0  0  0  0
  1  2  1  0
  1  3  1  0
  2  4  1  0
  2  5  1  0
  6  7  1  0
  6 10  1  0
  6 11  1  0
  7  8  1  0
  7 12  1  0
  7 13  1  0
  8  9  1  0
  8 14  1  0
  8 15  1  0
  9 16  1  0
  9 17  1  0
  9 18  1  0
M  RAD  2   1   2   6   2
M  END
>  <reaction>  (14) 
rmg_rxn_29

>  <mol_properties>  (14) 
{"0": {"label": "*1", "atom_type": "N3s"}, "1": {"label": "*0", "atom_type": "N3s"}, "2": {"label": "*2", "atom_type": "H0"}, "5": {"label": "*3", "atom_type": "Cs"}, "6": {"label": "*4", "atom_type": "Cs"}}

>  <type>  (14) 
unop_10

>  <geom_source>  (14) 
Heuristics

$$$$

     RDKit          3D

 18 16  0  0  0  0  0  0  0  0999 V2000
   -0.2917   -2.1184   -1.3525 N   0  0  0  0  0  2  0  0  0  0  0  0
   -0.2917   -2.1184   -2.6935 N   0  0  0  0  0  0  0  0  0  0  0  0
   -0.2917   -0.9426   -1.0123 H   0  0  0  0  0  0  0  0  0  0  0  0
   -0.1037   -3.0183   -3.1024 H   0  0  0  0  0  0  0  0  0  0  0  0
    0.0703   -1.3299   -3.2110 H   0  0  0  0  0  0  0  0  0  0  0  0
   -0.2917    0.3153   -0.6483 C   0  0  0  0  0  3  0  0  0  0  0  0
    0.4166    0.5110    0.6854 C   0  0  0  0  0  0  0  0  0  0  0  0
   -0.1201    1.6970    1.4784 C   0  0  0  0  0  0  0  0  0  0  0  0
    0.5881    1.8926    2.8121 C   0  0  0  0  0  0  0  0  0  0  0  0
   -0.1830    1.1984   -1.2824 H   0  0  0  0  0  0  0  0  0  0  0  0
   -1.3608    0.1437   -0.5022 H   0  0  0  0  0  0  0  0  0  0  0  0
    1.4891    0.6498    0.5148 H   0  0  0  0  0  0  0  0  0  0  0  0
    0.3199   -0.3971    1.2893 H   0  0  0  0  0  0  0  0  0  0  0  0
   -0.0235    2.6050    0.8745 H   0  0  0  0  0  0  0  0  0  0  0  0
   -1.1926    1.5581    1.6490 H   0  0  0  0  0  0  0  0  0  0  0  0
    1.6573    2.0642    2.6660 H   0  0  0  0  0  0  0  0  0  0  0  0
    0.4794    1.0096    3.4462 H   0  0  0  0  0  0  0  0  0  0  0  0
    0.1848    2.7470    3.3581 H   0  0  0  0  0  0  0  0  0  0  0  0
  1  2  1  0
  1  3  1  0
  2  4  1  0
  2  5  1  0
  6  7  1  0
  6 10  1  0
  6 11  1  0
  7  8  1  0
  7 12  1  0
  7 13  1  0
  8  9  1  0
  8 14  1  0
  8 15  1  0
  9 16  1  0
  9 17  1  0
  9 18  1  0
M  RAD  2   1   2   6   2
M  END
>  <reaction>  (15) 
rmg_rxn_29

>  <mol_properties>  (15) 
{"0": {"label": "*1", "atom_type": "N3s"}, "1": {"label": "*0", "atom_type": "N3s"}, "2": {"label": "*2", "atom_type": "H0"}, "5": {"label": "*3", "atom_type": "Cs"}, "6": {"label": "*4", "atom_type": "Cs"}}

>  <type>  (15) 
unop_11

>  <geom_source>  (15) 
Heuristics

$$$$

     RDKit          3D

 18 16  0  0  0  0  0  0  0  0999 V2000
   -0.0063   -2.7002    0.4589 N   0  0  0  0  0  2  0  0  0  0  0  0
   -0.0063   -2.7002   -0.8820 N   0  0  0  0  0  0  0  0  0  0  0  0
   -0.0063   -1.5244    0.7992 H   0  0  0  0  0  0  0  0  0  0  0  0
    0.1817   -3.6002   -1.2909 H   0  0  0  0  0  0  0  0  0  0  0  0
    0.3557   -1.9118   -1.3995 H   0  0  0  0  0  0  0  0  0  0  0  0
   -0.0063   -0.2666    1.1631 C   0  0  0  0  0  3  0  0  0  0  0  0
   -0.0063    0.6638   -0.0422 C   0  0  0  0  0  0  0  0  0  0  0  0
   -0.0063    2.1389    0.3418 C   0  0  0  0  0  0  0  0  0  0  0  0
   -0.0063    3.0693   -0.8636 C   0  0  0  0  0  0  0  0  0  0  0  0
   -0.8878   -0.0994    1.7866 H   0  0  0  0  0  0  0  0  0  0  0  0
    0.8752   -0.0994    1.7866 H   0  0  0  0  0  0  0  0  0  0  0  0
   -0.8813    0.4561   -0.6666 H   0  0  0  0  0  0  0  0  0  0  0  0
    0.8687    0.4561   -0.6666 H   0  0  0  0  0  0  0  0  0  0  0  0
   -0.8813    2.3466    0.9661 H   0  0  0  0  0  0  0  0  0  0  0  0
    0.8687    2.3466    0.9661 H   0  0  0  0  0  0  0  0  0  0  0  0
   -0.8878    2.9021   -1.4871 H   0  0  0  0  0  0  0  0  0  0  0  0
    0.8752    2.9021   -1.4871 H   0  0  0  0  0  0  0  0  0  0  0  0
   -0.0063    4.1176   -0.5603 H   0  0  0  0  0  0  0  0  0  0  0  0
  1  2  1  0
  1  3  1  0
  2  4  1  0
  2  5  1  0
  6  7  1  0
  6 10  1  0
  6 11  1  0
  7  8  1  0
  7 12  1  0
  7 13  1  0
  8  9  1  0
  8 14  1  0
  8 15  1  0
  9 16  1  0
  9 17  1  0
  9 18  1  0
M  RAD  2   1   2   6   2
M  END
>  <reaction>  (16) 
rmg_rxn_29

>  <mol_properties>  (16) 
{"0": {"label": "*1", "atom_type": "N3s"}, "1": {"label": "*0", "atom_type": "N3s"}, "2": {"label": "*2", "atom_type": "H0"}, "5": {"label": "*3", "atom_type": "Cs"}, "6": {"label": "*4", "atom_type": "Cs"}}

>  <type>  (16) 
unop_12

>  <geom_source>  (16) 
Heuristics

$$$$

     RDKit          3D

 18 16  0  0  0  0  0  0  0  0999 V2000
    0.5987   -2.6258    0.2797 N   0  0  0  0  0  2  0  0  0  0  0  0
    0.5987   -2.6258   -1.0613 N   0  0  0  0  0  0  0  0  0  0  0  0
    0.5987   -1.4500    0.6199 H   0  0  0  0  0  0  0  0  0  0  0  0
    0.7866   -3.5258   -1.4702 H   0  0  0  0  0  0  0  0  0  0  0  0
    0.9607   -1.8374   -1.5788 H   0  0  0  0  0  0  0  0  0  0  0  0
    0.5987   -0.1922    0.9839 C   0  0  0  0  0  3  0  0  0  0  0  0
   -0.1095    0.6855   -0.0392 C   0  0  0  0  0  0  0  0  0  0  0  0
   -0.5187    2.0433    0.5198 C   0  0  0  0  0  0  0  0  0  0  0  0
   -1.2270    2.9209   -0.5033 C   0  0  0  0  0  0  0  0  0  0  0  0
   -0.0433   -0.3830    1.8471 H   0  0  0  0  0  0  0  0  0  0  0  0
    1.5087    0.2895    1.3497 H   0  0  0  0  0  0  0  0  0  0  0  0
   -0.9996    0.1689   -0.4129 H   0  0  0  0  0  0  0  0  0  0  0  0
    0.5410    0.8364   -0.9067 H   0  0  0  0  0  0  0  0  0  0  0  0
   -1.1693    1.8923    1.3873 H   0  0  0  0  0  0  0  0  0  0  0  0
    0.3713    2.5598    0.8935 H   0  0  0  0  0  0  0  0  0  0  0  0
   -2.1369    2.4392   -0.8691 H   0  0  0  0  0  0  0  0  0  0  0  0
   -0.5850    3.1117   -1.3666 H   0  0  0  0  0  0  0  0  0  0  0  0
   -1.5083    3.8853   -0.0772 H   0  0  0  0  0  0  0  0  0  0  0  0
  1  2  1  0
  1  3  1  0
  2  4  1  0
  2  5  1  0
  6  7  1  0
  6 10  1  0
  6 11  1  0
  7  8  1  0
  7 12  1  0
  7 13  1  0
  8  9  1  0
  8 14  1  0
  8 15  1  0
  9 16  1  0
  9 17  1  0
  9 18  1  0
M  RAD  2   1   2   6   2
M  END
>  <reaction>  (17) 
rmg_rxn_29

>  <mol_properties>  (17) 
{"0": {"label": "*1", "atom_type": "N3s"}, "1": {"label": "*0", "atom_type": "N3s"}, "2": {"label": "*2", "atom_type": "H0"}, "5": {"label": "*3", "atom_type": "Cs"}, "6": {"label": "*4", "atom_type": "Cs"}}

>  <type>  (17) 
unop_13

>  <geom_source>  (17) 
gaussian_log

$$$$
