
     RDKit          3D

  9  8  0  0  0  0  0  0  0  0999 V2000
   -1.0434   -0.0834    0.0221 C   0  0  0  0  0  0  0  0  0  0  0  0
    0.4680   -0.2131    0.0785 C   0  0  0  0  0  0  0  0  0  0  0  0
    0.9450   -1.3136   -0.7058 N   0  0  0  0  0  2  0  0  0  0  0  0
   -1.5170   -0.9919    0.3960 H   0  0  0  0  0  0  0  0  0  0  0  0
   -1.3864    0.7592    0.6249 H   0  0  0  0  0  0  0  0  0  0  0  0
   -1.3736    0.0696   -1.0061 H   0  0  0  0  0  0  0  0  0  0  0  0
    0.8045   -0.3309    1.1214 H   0  0  0  0  0  0  0  0  0  0  0  0
    0.9463    0.7186   -0.2648 H   0  0  0  0  0  0  0  0  0  0  0  0
    1.9638   -1.3321   -0.6157 H   0  0  0  0  0  0  0  0  0  0  0  0
  1  2  1  0
  1  4  1  0
  1  5  1  0
  1  6  1  0
  2  3  1  0
  2  7  1  0
  2  8  1  0
  3  9  1  0
M  RAD  1   3   2
M  END
>  <reaction>  (1) 
rmg_rxn_506

>  <mol_properties>  (1) 
{"2": {"label": "donator", "atom_type": "N3s"}, "8": {"label": "d_hydrogen", "atom_type": "H0"}}

>  <type>  (1) 
r1h

$$$$

     RDKit          3D

 10  9  0  0  0  0  0  0  0  0999 V2000
    1.4352    0.2660   -0.1351 C   0  0  0  0  0  3  0  0  0  0  0  0
    0.2236   -0.3243    0.4850 C   0  0  0  0  0  0  0  0  0  0  0  0
   -0.8893    0.6872    0.7364 C   0  0  0  0  0  0  0  0  0  0  0  0
    2.3577   -0.2958   -0.1940 H   0  0  0  0  0  0  0  0  0  0  0  0
    1.3935    1.2286   -0.6287 H   0  0  0  0  0  0  0  0  0  0  0  0
   -0.1633   -1.1318   -0.1556 H   0  0  0  0  0  0  0  0  0  0  0  0
    0.4945   -0.8215    1.4240 H   0  0  0  0  0  0  0  0  0  0  0  0
   -1.1991    1.1627   -0.1967 H   0  0  0  0  0  0  0  0  0  0  0  0
   -1.7660    0.2103    1.1768 H   0  0  0  0  0  0  0  0  0  0  0  0
   -0.5545    1.4732    1.4159 H   0  0  0  0  0  0  0  0  0  0  0  0
  1  2  1  0
  1  4  1  0
  1  5  1  0
  2  3  1  0
  2  6  1  0
  2  7  1  0
  3  8  1  0
  3  9  1  0
  3 10  1  0
M  RAD  1   1   2
M  END
>  <reaction>  (2) 
rmg_rxn_506

>  <mol_properties>  (2) 
{"0": {"label": "acceptor", "atom_type": "Cs"}}

>  <type>  (2) 
r2

$$$$

     RDKit          3D

 11 10  0  0  0  0  0  0  0  0999 V2000
   -1.2710    0.1907   -0.2084 C   0  0  0  0  0  0  0  0  0  0  0  0
    0.0202   -0.6130   -0.2928 C   0  0  0  0  0  0  0  0  0  0  0  0
    0.1086   -1.6953    0.7756 C   0  0  0  0  0  0  0  0  0  0  0  0
   -1.3607    0.6851    0.7620 H   0  0  0  0  0  0  0  0  0  0  0  0
   -2.1429   -0.4567   -0.3299 H   0  0  0  0  0  0  0  0  0  0  0  0
   -1.3158    0.9602   -0.9809 H   0  0  0  0  0  0  0  0  0  0  0  0
    0.8757    0.0616   -0.1992 H   0  0  0  0  0  0  0  0  0  0  0  0
    0.0997   -1.0712   -1.2825 H   0  0  0  0  0  0  0  0  0  0  0  0
   -0.7198   -2.4022    0.6850 H   0  0  0  0  0  0  0  0  0  0  0  0
    1.0395   -2.2596    0.6989 H   0  0  0  0  0  0  0  0  0  0  0  0
    0.0624   -1.2603    1.7770 H   0  0  0  0  0  0  0  0  0  0  0  0
  1  2  1  0
  1  4  1  0
  1  5  1  0
  1  6  1  0
  2  3  1  0
  2  7  1  0
  2  8  1  0
  3  9  1  0
  3 10  1  0
  3 11  1  0
M  END
>  <reaction>  (3) 
rmg_rxn_506

>  <mol_properties>  (3) 
{"0": {"label": "a_hydrogen", "atom_type": "H0"}, "1": {"label": "acceptor", "atom_type": "Cs"}}

>  <type>  (3) 
r2h

$$$$

     RDKit          3D

 19 17  0  0  0  0  0  0  0  0999 V2000
   -0.0079   -1.1504   -2.8364 C   0  0  0  0  0  0  0  0  0  0  0  0
   -0.0444   -1.0850   -1.3165 C   0  0  0  0  0  0  0  0  0  0  0  0
   -1.0249   -0.1596   -0.8435 N   0  0  0  0  0  2  0  0  0  0  0  0
    0.2324   -0.1726   -3.2551 H   0  0  0  0  0  0  0  0  0  0  0  0
    0.7442   -1.8656   -3.1745 H   0  0  0  0  0  0  0  0  0  0  0  0
   -0.9779   -1.4572   -3.2290 H   0  0  0  0  0  0  0  0  0  0  0  0
    0.9446   -0.8070   -0.9184 H   0  0  0  0  0  0  0  0  0  0  0  0
   -0.2512   -2.0811   -0.8936 H   0  0  0  0  0  0  0  0  0  0  0  0
   -0.9334   -0.1888    0.3467 H   0  0  0  0  0  0  0  0  0  0  0  0
   -0.6588   -0.2615    1.7377 C   0  0  0  0  0  3  0  0  0  0  0  0
   -0.1589    1.1055    2.1082 C   0  0  0  0  0  0  0  0  0  0  0  0
    1.1294    1.4857    1.3871 C   0  0  0  0  0  0  0  0  0  0  0  0
   -1.6304   -0.5431    2.1371 H   0  0  0  0  0  0  0  0  0  0  0  0
    0.0751   -1.0642    1.8030 H   0  0  0  0  0  0  0  0  0  0  0  0
   -0.9336    1.8469    1.8950 H   0  0  0  0  0  0  0  0  0  0  0  0
    0.0062    1.1465    3.1927 H   0  0  0  0  0  0  0  0  0  0  0  0
    0.9712    1.5255    0.3074 H   0  0  0  0  0  0  0  0  0  0  0  0
    1.4902    2.4635    1.7087 H   0  0  0  0  0  0  0  0  0  0  0  0
    1.9178    0.7554    1.5851 H   0  0  0  0  0  0  0  0  0  0  0  0
  1  2  1  0
  1  4  1  0
  1  5  1  0
  1  6  1  0
  2  3  1  0
  2  7  1  0
  2  8  1  0
  3  9  1  0
 10 11  1  0
 10 13  1  0
 10 14  1  0
 11 12  1  0
 11 15  1  0
 11 16  1  0
 12 17  1  0
 12 18  1  0
 12 19  1  0
M  RAD  2   3   2  10   2
M  END
>  <reaction>  (4) 
rmg_rxn_506

>  <mol_properties>  (4) 
{"1": {"label": "*0", "atom_type": "Cs"}, "2": {"label": "*1", "atom_type": "N3s"}, "8": {"label": "*2", "atom_type": "H0"}, "9": {"label": "*3", "atom_type": "Cs"}, "10": {"label": "*4", "atom_type": "Cs"}}

>  <type>  (4) 
ts

$$$$

     RDKit          3D

 19 17  0  0  0  0  0  0  0  0999 V2000
   -0.5971   -0.8196   -3.1464 C   0  0  0  0  0  0  0  0  0  0  0  0
   -0.5971   -0.8196   -1.6284 C   0  0  0  0  0  0  0  0  0  0  0  0
   -0.5971    0.5079   -1.0886 N   0  0  0  0  0  2  0  0  0  0  0  0
    0.2852   -0.3031   -3.5264 H   0  0  0  0  0  0  0  0  0  0  0  0
   -0.5971   -1.8385   -3.5374 H   0  0  0  0  0  0  0  0  0  0  0  0
   -1.4793   -0.3031   -3.5264 H   0  0  0  0  0  0  0  0  0  0  0  0
    0.2752   -1.3733   -1.2445 H   0  0  0  0  0  0  0  0  0  0  0  0
   -1.4693   -1.3733   -1.2445 H   0  0  0  0  0  0  0  0  0  0  0  0
   -0.5970    0.4044    0.1346 H   0  0  0  0  0  0  0  0  0  0  0  0
   -0.5970    0.2938    1.4412 C   0  0  0  0  0  3  0  0  0  0  0  0
    0.6350    0.9567    2.0438 C   0  0  0  0  0  0  0  0  0  0  0  0
    1.7323   -0.0437    2.3841 C   0  0  0  0  0  0  0  0  0  0  0  0
   -1.3711    1.0258    1.2044 H   0  0  0  0  0  0  0  0  0  0  0  0
   -1.0262   -0.4351    2.1329 H   0  0  0  0  0  0  0  0  0  0  0  0
    1.0257    1.7019    1.3454 H   0  0  0  0  0  0  0  0  0  0  0  0
    0.3491    1.5043    2.9461 H   0  0  0  0  0  0  0  0  0  0  0  0
    2.0585   -0.5841    1.4921 H   0  0  0  0  0  0  0  0  0  0  0  0
    2.6056    0.4495    2.8141 H   0  0  0  0  0  0  0  0  0  0  0  0
    1.3765   -0.7833    3.1055 H   0  0  0  0  0  0  0  0  0  0  0  0
  1  2  1  0
  1  4  1  0
  1  5  1  0
  1  6  1  0
  2  3  1  0
  2  7  1  0
  2  8  1  0
  3  9  1  0
 10 11  1  0
 10 13  1  0
 10 14  1  0
 11 12  1  0
 11 15  1  0
 11 16  1  0
 12 17  1  0
 12 18  1  0
 12 19  1  0
M  RAD  2   3   2  10   2
M  END
>  <reaction>  (5) 
rmg_rxn_506

>  <mol_properties>  (5) 
{"1": {"label": "*0", "atom_type": "Cs"}, "2": {"label": "*1", "atom_type": "N3s"}, "8": {"label": "*2", "atom_type": "H0"}, "9": {"label": "*3", "atom_type": "Cs"}, "10": {"label": "*4", "atom_type": "Cs"}}

>  <type>  (5) 
unop_1

>  <geom_source>  (5) 
Heuristics

$$$$

     RDKit          3D

 19 17  0  0  0  0  0  0  0  0999 V2000
   -0.0914   -0.1269   -3.0046 C   0  0  0  0  0  0  0  0  0  0  0  0
   -0.0914   -0.1269   -1.4866 C   0  0  0  0  0  0  0  0  0  0  0  0
   -0.0914    1.2007   -0.9469 N   0  0  0  0  0  2  0  0  0  0  0  0
    0.7908    0.3896   -3.3847 H   0  0  0  0  0  0  0  0  0  0  0  0
   -0.0914   -1.1458   -3.3957 H   0  0  0  0  0  0  0  0  0  0  0  0
   -0.9736    0.3896   -3.3847 H   0  0  0  0  0  0  0  0  0  0  0  0
    0.7809   -0.6806   -1.1027 H   0  0  0  0  0  0  0  0  0  0  0  0
   -0.9636   -0.6806   -1.1027 H   0  0  0  0  0  0  0  0  0  0  0  0
   -0.0914    1.0972    0.2763 H   0  0  0  0  0  0  0  0  0  0  0  0
   -0.0914    0.9866    1.5829 C   0  0  0  0  0  3  0  0  0  0  0  0
    0.6200   -0.2870    2.0217 C   0  0  0  0  0  0  0  0  0  0  0  0
   -0.2429   -1.5304    1.8483 C   0  0  0  0  0  0  0  0  0  0  0  0
    0.5420    1.8655    1.7146 H   0  0  0  0  0  0  0  0  0  0  0  0
   -1.0051    1.1428    2.1615 H   0  0  0  0  0  0  0  0  0  0  0  0
    1.5447   -0.4030    1.4496 H   0  0  0  0  0  0  0  0  0  0  0  0
    0.9188   -0.1946    3.0695 H   0  0  0  0  0  0  0  0  0  0  0  0
   -0.5305   -1.6636    0.8025 H   0  0  0  0  0  0  0  0  0  0  0  0
    0.2834   -2.4316    2.1675 H   0  0  0  0  0  0  0  0  0  0  0  0
   -1.1613   -1.4535    2.4352 H   0  0  0  0  0  0  0  0  0  0  0  0
  1  2  1  0
  1  4  1  0
  1  5  1  0
  1  6  1  0
  2  3  1  0
  2  7  1  0
  2  8  1  0
  3  9  1  0
 10 11  1  0
 10 13  1  0
 10 14  1  0
 11 12  1  0
 11 15  1  0
 11 16  1  0
 12 17  1  0
 12 18  1  0
 12 19  1  0
M  RAD  2   3   2  10   2
M  END
>  <reaction>  (6) 
rmg_rxn_506

>  <mol_properties>  (6) 
{"1": {"label": "*0", "atom_type": "Cs"}, "2": {"label": "*1", "atom_type": "N3s"}, "8": {"label": "*2", "atom_type": "H0"}, "9": {"label": "*3", "atom_type": "Cs"}, "10": {"label": "*4", "atom_type": "Cs"}}

>  <type>  (6) 
unop_2

>  <geom_source>  (6) 
Heuristics

$$$$

     RDKit          3D

 19 17  0  0  0  0  0  0  0  0999 V2000
   -0.4910   -1.1218   -3.1297 C   0  0  0  0  0  0  0  0  0  0  0  0
   -0.4910   -1.1218   -1.6117 C   0  0  0  0  0  0  0  0  0  0  0  0
   -0.4910    0.2058   -1.0720 N   0  0  0  0  0  2  0  0  0  0  0  0
    0.3912   -0.6053   -3.5098 H   0  0  0  0  0  0  0  0  0  0  0  0
   -0.4910   -2.1406   -3.5208 H   0  0  0  0  0  0  0  0  0  0  0  0
   -1.3732   -0.6053   -3.5098 H   0  0  0  0  0  0  0  0  0  0  0  0
    0.3812   -1.6755   -1.2278 H   0  0  0  0  0  0  0  0  0  0  0  0
   -1.3632   -1.6755   -1.2278 H   0  0  0  0  0  0  0  0  0  0  0  0
   -0.4910    0.1023    0.1512 H   0  0  0  0  0  0  0  0  0  0  0  0
   -0.4910   -0.0083    1.4578 C   0  0  0  0  0  3  0  0  0  0  0  0
    0.2204    1.1734    2.1044 C   0  0  0  0  0  0  0  0  0  0  0  0
    1.7184    0.9437    2.2585 C   0  0  0  0  0  0  0  0  0  0  0  0
   -1.5620    0.1749    1.3561 H   0  0  0  0  0  0  0  0  0  0  0  0
   -0.3617   -0.9154    2.0532 H   0  0  0  0  0  0  0  0  0  0  0  0
    0.0496    2.0727    1.5061 H   0  0  0  0  0  0  0  0  0  0  0  0
   -0.2204    1.3712    3.0854 H   0  0  0  0  0  0  0  0  0  0  0  0
    2.1894    0.7737    1.2873 H   0  0  0  0  0  0  0  0  0  0  0  0
    2.2099    1.8002    2.7230 H   0  0  0  0  0  0  0  0  0  0  0  0
    1.9172    0.0666    2.8791 H   0  0  0  0  0  0  0  0  0  0  0  0
  1  2  1  0
  1  4  1  0
  1  5  1  0
  1  6  1  0
  2  3  1  0
  2  7  1  0
  2  8  1  0
  3  9  1  0
 10 11  1  0
 10 13  1  0
 10 14  1  0
 11 12  1  0
 11 15  1  0
 11 16  1  0
 12 17  1  0
 12 18  1  0
 12 19  1  0
M  RAD  2   3   2  10   2
M  END
>  <reaction>  (7) 
rmg_rxn_506

>  <mol_properties>  (7) 
{"1": {"label": "*0", "atom_type": "Cs"}, "2": {"label": "*1", "atom_type": "N3s"}, "8": {"label": "*2", "atom_type": "H0"}, "9": {"label": "*3", "atom_type": "Cs"}, "10": {"label": "*4", "atom_type": "Cs"}}

>  <type>  (7) 
unop_3

>  <geom_source>  (7) 
Heuristics

$$$$

     RDKit          3D

 19 17  0  0  0  0  0  0  0  0999 V2000
    0.6195   -0.5449   -2.8863 C   0  0  0  0  0  0  0  0  0  0  0  0
    0.6195   -0.5449   -1.3683 C   0  0  0  0  0  0  0  0  0  0  0  0
    0.6195    0.7826   -0.8285 N   0  0  0  0  0  2  0  0  0  0  0  0
    1.5017   -0.0285   -3.2663 H   0  0  0  0  0  0  0  0  0  0  0  0
    0.6195   -1.5638   -3.2774 H   0  0  0  0  0  0  0  0  0  0  0  0
   -0.2627   -0.0285   -3.2663 H   0  0  0  0  0  0  0  0  0  0  0  0
    1.4917   -1.0986   -0.9844 H   0  0  0  0  0  0  0  0  0  0  0  0
   -0.2527   -1.0986   -0.9844 H   0  0  0  0  0  0  0  0  0  0  0  0
    0.6195    0.6791    0.3947 H   0  0  0  0  0  0  0  0  0  0  0  0
    0.6195    0.5685    1.7013 C   0  0  0  0  0  3  0  0  0  0  0  0
   -0.6126   -0.1862    2.1839 C   0  0  0  0  0  0  0  0  0  0  0  0
   -1.8018   -0.0295    1.2449 C   0  0  0  0  0  0  0  0  0  0  0  0
    1.4599    0.4442    2.3862 H   0  0  0  0  0  0  0  0  0  0  0  0
    0.4134    1.6381    1.6149 H   0  0  0  0  0  0  0  0  0  0  0  0
   -0.3707   -1.2473    2.2910 H   0  0  0  0  0  0  0  0  0  0  0  0
   -0.8877    0.1664    3.1818 H   0  0  0  0  0  0  0  0  0  0  0  0
   -1.5631   -0.4036    0.2464 H   0  0  0  0  0  0  0  0  0  0  0  0
   -2.6738   -0.5767    1.6072 H   0  0  0  0  0  0  0  0  0  0  0  0
   -2.0842    1.0213    1.1442 H   0  0  0  0  0  0  0  0  0  0  0  0
  1  2  1  0
  1  4  1  0
  1  5  1  0
  1  6  1  0
  2  3  1  0
  2  7  1  0
  2  8  1  0
  3  9  1  0
 10 11  1  0
 10 13  1  0
 10 14  1  0
 11 12  1  0
 11 15  1  0
 11 16  1  0
 12 17  1  0
 12 18  1  0
 12 19  1  0
M  RAD  2   3   2  10   2
M  END
>  <reaction>  (8) 
rmg_rxn_506

>  <mol_properties>  (8) 
{"1": {"label": "*0", "atom_type": "Cs"}, "2": {"label": "*1", "atom_type": "N3s"}, "8": {"label": "*2", "atom_type": "H0"}, "9": {"label": "*3", "atom_type": "Cs"}, "10": {"label": "*4", "atom_type": "Cs"}}

>  <type>  (8) 
unop_4

>  <geom_source>  (8) 
Heuristics

$$$$

     RDKit          3D

 19 17  0  0  0  0  0  0  0  0999 V2000
   -0.2096   -1.3657   -3.0435 C   0  0  0  0  0  0  0  0  0  0  0  0
   -0.2096   -1.3657   -1.5255 C   0  0  0  0  0  0  0  0  0  0  0  0
   -0.2096   -0.0381   -0.9857 N   0  0  0  0  0  2  0  0  0  0  0  0
    0.6726   -0.8492   -3.4236 H   0  0  0  0  0  0  0  0  0  0  0  0
   -0.2096   -2.3846   -3.4346 H   0  0  0  0  0  0  0  0  0  0  0  0
   -1.0918   -0.8492   -3.4236 H   0  0  0  0  0  0  0  0  0  0  0  0
    0.6626   -1.9194   -1.1416 H   0  0  0  0  0  0  0  0  0  0  0  0
   -1.0818   -1.9194   -1.1416 H   0  0  0  0  0  0  0  0  0  0  0  0
   -0.2096   -0.1417    0.2375 H   0  0  0  0  0  0  0  0  0  0  0  0
   -0.2096   -0.2523    1.5440 C   0  0  0  0  0  3  0  0  0  0  0  0
   -0.2096    1.1194    2.2067 C   0  0  0  0  0  0  0  0  0  0  0  0
    1.0047    1.9559    1.8240 C   0  0  0  0  0  0  0  0  0  0  0  0
   -1.0862   -0.8360    1.8301 H   0  0  0  0  0  0  0  0  0  0  0  0
    0.6788   -0.8225    1.8263 H   0  0  0  0  0  0  0  0  0  0  0  0
   -1.1222    1.6560    1.9327 H   0  0  0  0  0  0  0  0  0  0  0  0
   -0.2408    0.9988    3.2931 H   0  0  0  0  0  0  0  0  0  0  0  0
    1.0429    2.1176    0.7440 H   0  0  0  0  0  0  0  0  0  0  0  0
    0.9868    2.9338    2.3080 H   0  0  0  0  0  0  0  0  0  0  0  0
    1.9313    1.4553    2.1151 H   0  0  0  0  0  0  0  0  0  0  0  0
  1  2  1  0
  1  4  1  0
  1  5  1  0
  1  6  1  0
  2  3  1  0
  2  7  1  0
  2  8  1  0
  3  9  1  0
 10 11  1  0
 10 13  1  0
 10 14  1  0
 11 12  1  0
 11 15  1  0
 11 16  1  0
 12 17  1  0
 12 18  1  0
 12 19  1  0
M  RAD  2   3   2  10   2
M  END
>  <reaction>  (9) 
rmg_rxn_506

>  <mol_properties>  (9) 
{"1": {"label": "*0", "atom_type": "Cs"}, "2": {"label": "*1", "atom_type": "N3s"}, "8": {"label": "*2", "atom_type": "H0"}, "9": {"label": "*3", "atom_type": "Cs"}, "10": {"label": "*4", "atom_type": "Cs"}}

>  <type>  (9) 
unop_5

>  <geom_source>  (9) 
Heuristics

$$$$

     RDKit          3D

 19 17  0  0  0  0  0  0  0  0999 V2000
    0.6509   -0.8561   -2.8994 C   0  0  0  0  0  0  0  0  0  0  0  0
    0.6509   -0.8561   -1.3815 C   0  0  0  0  0  0  0  0  0  0  0  0
    0.6509    0.4714   -0.8417 N   0  0  0  0  0  2  0  0  0  0  0  0
    1.5331   -0.3396   -3.2795 H   0  0  0  0  0  0  0  0  0  0  0  0
    0.6509   -1.8750   -3.2905 H   0  0  0  0  0  0  0  0  0  0  0  0
   -0.2313   -0.3396   -3.2795 H   0  0  0  0  0  0  0  0  0  0  0  0
    1.5231   -1.4098   -0.9975 H   0  0  0  0  0  0  0  0  0  0  0  0
   -0.2214   -1.4098   -0.9975 H   0  0  0  0  0  0  0  0  0  0  0  0
    0.6509    0.3679    0.3815 H   0  0  0  0  0  0  0  0  0  0  0  0
    0.6509    0.2573    1.6881 C   0  0  0  0  0  3  0  0  0  0  0  0
   -0.7718    0.2114    2.2307 C   0  0  0  0  0  0  0  0  0  0  0  0
   -1.7905    0.7881    1.2559 C   0  0  0  0  0  0  0  0  0  0  0  0
    1.3654   -0.1597    2.3998 H   0  0  0  0  0  0  0  0  0  0  0  0
    0.9539    1.2849    1.4728 H   0  0  0  0  0  0  0  0  0  0  0  0
   -1.0383   -0.8227    2.4663 H   0  0  0  0  0  0  0  0  0  0  0  0
   -0.8193    0.7615    3.1746 H   0  0  0  0  0  0  0  0  0  0  0  0
   -1.7851    0.2357    0.3131 H   0  0  0  0  0  0  0  0  0  0  0  0
   -2.8025    0.7465    1.6620 H   0  0  0  0  0  0  0  0  0  0  0  0
   -1.5644    1.8324    1.0270 H   0  0  0  0  0  0  0  0  0  0  0  0
  1  2  1  0
  1  4  1  0
  1  5  1  0
  1  6  1  0
  2  3  1  0
  2  7  1  0
  2  8  1  0
  3  9  1  0
 10 11  1  0
 10 13  1  0
 10 14  1  0
 11 12  1  0
 11 15  1  0
 11 16  1  0
 12 17  1  0
 12 18  1  0
 12 19  1  0
M  RAD  2   3   2  10   2
M  END
>  <reaction>  (10) 
rmg_rxn_506

>  <mol_properties>  (10) 
{"1": {"label": "*0", "atom_type": "Cs"}, "2": {"label": "*1", "atom_type": "N3s"}, "8": {"label": "*2", "atom_type": "H0"}, "9": {"label": "*3", "atom_type": "Cs"}, "10": {"label": "*4", "atom_type": "Cs"}}

>  <type>  (10) 
unop_6

>  <geom_source>  (10) 
Heuristics

$$$$

     RDKit          3D

 19 17  0  0  0  0  0  0  0  0999 V2000
    0.5184   -1.1669   -2.9252 C   0  0  0  0  0  0  0  0  0  0  0  0
    0.5184   -1.1669   -1.4072 C   0  0  0  0  0  0  0  0  0  0  0  0
    0.5184    0.1606   -0.8674 N   0  0  0  0  0  2  0  0  0  0  0  0
    1.4006   -0.6505   -3.3052 H   0  0  0  0  0  0  0  0  0  0  0  0
    0.5184   -2.1858   -3.3162 H   0  0  0  0  0  0  0  0  0  0  0  0
   -0.3638   -0.6505   -3.3052 H   0  0  0  0  0  0  0  0  0  0  0  0
    1.3906   -1.7206   -1.0233 H   0  0  0  0  0  0  0  0  0  0  0  0
   -0.3538   -1.7206   -1.0233 H   0  0  0  0  0  0  0  0  0  0  0  0
    0.5184    0.0571    0.3558 H   0  0  0  0  0  0  0  0  0  0  0  0
    0.5184   -0.0535    1.6624 C   0  0  0  0  0  3  0  0  0  0  0  0
   -0.7137    0.6094    2.2650 C   0  0  0  0  0  0  0  0  0  0  0  0
   -1.3552    1.6209    1.3239 C   0  0  0  0  0  0  0  0  0  0  0  0
    0.9634   -0.7740    2.3507 H   0  0  0  0  0  0  0  0  0  0  0  0
    1.2809    0.6896    1.4166 H   0  0  0  0  0  0  0  0  0  0  0  0
   -1.4469   -0.1575    2.5297 H   0  0  0  0  0  0  0  0  0  0  0  0
   -0.4395    1.1053    3.2003 H   0  0  0  0  0  0  0  0  0  0  0  0
   -1.6671    1.1440    0.3915 H   0  0  0  0  0  0  0  0  0  0  0  0
   -2.2352    2.0846    1.7728 H   0  0  0  0  0  0  0  0  0  0  0  0
   -0.6517    2.4168    1.0674 H   0  0  0  0  0  0  0  0  0  0  0  0
  1  2  1  0
  1  4  1  0
  1  5  1  0
  1  6  1  0
  2  3  1  0
  2  7  1  0
  2  8  1  0
  3  9  1  0
 10 11  1  0
 10 13  1  0
 10 14  1  0
 11 12  1  0
 11 15  1  0
 11 16  1  0
 12 17  1  0
 12 18  1  0
 12 19  1  0
M  RAD  2   3   2  10   2
M  END
>  <reaction>  (11) 
rmg_rxn_506

>  <mol_properties>  (11) 
{"1": {"label": "*0", "atom_type": "Cs"}, "2": {"label": "*1", "atom_type": "N3s"}, "8": {"label": "*2", "atom_type": "H0"}, "9": {"label": "*3", "atom_type": "Cs"}, "10": {"label": "*4", "atom_type": "Cs"}}

>  <type>  (11) 
unop_7

>  <geom_source>  (11) 
Heuristics

$$$$

     RDKit          3D

 19 17  0  0  0  0  0  0  0  0999 V2000
   -0.5561   -0.5117   -3.1188 C   0  0  0  0  0  0  0  0  0  0  0  0
   -0.5561   -0.5117   -1.6008 C   0  0  0  0  0  0  0  0  0  0  0  0
   -0.5561    0.8159   -1.0611 N   0  0  0  0  0  2  0  0  0  0  0  0
    0.3261    0.0048   -3.4989 H   0  0  0  0  0  0  0  0  0  0  0  0
   -0.5561   -1.5306   -3.5099 H   0  0  0  0  0  0  0  0  0  0  0  0
   -1.4383    0.0048   -3.4989 H   0  0  0  0  0  0  0  0  0  0  0  0
    0.3161   -1.0654   -1.2169 H   0  0  0  0  0  0  0  0  0  0  0  0
   -1.4283   -1.0654   -1.2169 H   0  0  0  0  0  0  0  0  0  0  0  0
   -0.5561    0.7123    0.1621 H   0  0  0  0  0  0  0  0  0  0  0  0
   -0.5561    0.6017    1.4687 C   0  0  0  0  0  3  0  0  0  0  0  0
    0.8666    0.5558    2.0114 C   0  0  0  0  0  0  0  0  0  0  0  0
    1.3361   -0.8628    2.3073 C   0  0  0  0  0  0  0  0  0  0  0  0
   -0.8741    1.6252    1.2631 H   0  0  0  0  0  0  0  0  0  0  0  0
   -1.2608    0.1695    2.1832 H   0  0  0  0  0  0  0  0  0  0  0  0
    1.5458    1.0214    1.2919 H   0  0  0  0  0  0  0  0  0  0  0  0
    0.9282    1.1572    2.9226 H   0  0  0  0  0  0  0  0  0  0  0  0
    1.3135   -1.4781    1.4046 H   0  0  0  0  0  0  0  0  0  0  0  0
    2.3563   -0.8751    2.6947 H   0  0  0  0  0  0  0  0  0  0  0  0
    0.6910   -1.3412    3.0482 H   0  0  0  0  0  0  0  0  0  0  0  0
  1  2  1  0
  1  4  1  0
  1  5  1  0
  1  6  1  0
  2  3  1  0
  2  7  1  0
  2  8  1  0
  3  9  1  0
 10 11  1  0
 10 13  1  0
 10 14  1  0
 11 12  1  0
 11 15  1  0
 11 16  1  0
 12 17  1  0
 12 18  1  0
 12 19  1  0
M  RAD  2   3   2  10   2
M  END
>  <reaction>  (12) 
rmg_rxn_506

>  <mol_properties>  (12) 
{"1": {"label": "*0", "atom_type": "Cs"}, "2": {"label": "*1", "atom_type": "N3s"}, "8": {"label": "*2", "atom_type": "H0"}, "9": {"label": "*3", "atom_type": "Cs"}, "10": {"label": "*4", "atom_type": "Cs"}}

>  <type>  (12) 
unop_8

>  <geom_source>  (12) 
Heuristics

$$$$

     RDKit          3D

 19 17  0  0  0  0  0  0  0  0999 V2000
    0.4598   -0.2956   -2.8971 C   0  0  0  0  0  0  0  0  0  0  0  0
    0.4598   -0.2956   -1.3792 C   0  0  0  0  0  0  0  0  0  0  0  0
    0.4598    1.0320   -0.8394 N   0  0  0  0  0  2  0  0  0  0  0  0
    1.3420    0.2209   -3.2772 H   0  0  0  0  0  0  0  0  0  0  0  0
    0.4598   -1.3145   -3.2882 H   0  0  0  0  0  0  0  0  0  0  0  0
   -0.4225    0.2209   -3.2772 H   0  0  0  0  0  0  0  0  0  0  0  0
    1.3320   -0.8493   -0.9952 H   0  0  0  0  0  0  0  0  0  0  0  0
   -0.4125   -0.8493   -0.9952 H   0  0  0  0  0  0  0  0  0  0  0  0
    0.4598    0.9284    0.3838 H   0  0  0  0  0  0  0  0  0  0  0  0
    0.4598    0.8178    1.6904 C   0  0  0  0  0  3  0  0  0  0  0  0
   -0.2516   -0.4558    2.1291 C   0  0  0  0  0  0  0  0  0  0  0  0
   -1.5229   -0.7216    1.3332 C   0  0  0  0  0  0  0  0  0  0  0  0
    1.3671    0.9910    2.2715 H   0  0  0  0  0  0  0  0  0  0  0  0
   -0.1879    1.6892    1.8135 H   0  0  0  0  0  0  0  0  0  0  0  0
    0.4277   -1.3064    2.0250 H   0  0  0  0  0  0  0  0  0  0  0  0
   -0.4955   -0.3884    3.1930 H   0  0  0  0  0  0  0  0  0  0  0  0
   -1.3026   -0.8240    0.2678 H   0  0  0  0  0  0  0  0  0  0  0  0
   -2.0177   -1.6372    1.6616 H   0  0  0  0  0  0  0  0  0  0  0  0
   -2.2331    0.1012    1.4450 H   0  0  0  0  0  0  0  0  0  0  0  0
  1  2  1  0
  1  4  1  0
  1  5  1  0
  1  6  1  0
  2  3  1  0
  2  7  1  0
  2  8  1  0
  3  9  1  0
 10 11  1  0
 10 13  1  0
 10 14  1  0
 11 12  1  0
 11 15  1  0
 11 16  1  0
 12 17  1  0
 12 18  1  0
 12 19  1  0
M  RAD  2   3   2  10   2
M  END
>  <reaction>  (13) 
rmg_rxn_506

>  <mol_properties>  (13) 
{"1": {"label": "*0", "atom_type": "Cs"}, "2": {"label": "*1", "atom_type": "N3s"}, "8": {"label": "*2", "atom_type": "H0"}, "9": {"label": "*3", "atom_type": "Cs"}, "10": {"label": "*4", "atom_type": "Cs"}}

>  <type>  (13) 
unop_9

>  <geom_source>  (13) 
Heuristics

$$$$

     RDKit          3D

 19 17  0  0  0  0  0  0  0  0999 V2000
   -0.3730   -0.2590   -3.0684 C   0  0  0  0  0  0  0  0  0  0  0  0
   -0.3730   -0.2590   -1.5504 C   0  0  0  0  0  0  0  0  0  0  0  0
   -0.3730    1.0686   -1.0107 N   0  0  0  0  0  2  0  0  0  0  0  0
    0.5093    0.2575   -3.4485 H   0  0  0  0  0  0  0  0  0  0  0  0
   -0.3730   -1.2779   -3.4595 H   0  0  0  0  0  0  0  0  0  0  0  0
   -1.2552    0.2575   -3.4485 H   0  0  0  0  0  0  0  0  0  0  0  0
    0.4993   -0.8127   -1.1665 H   0  0  0  0  0  0  0  0  0  0  0  0
   -1.2452   -0.8127   -1.1665 H   0  0  0  0  0  0  0  0  0  0  0  0
   -0.3730    0.9651    0.2125 H   0  0  0  0  0  0  0  0  0  0  0  0
   -0.3730    0.8545    1.5191 C   0  0  0  0  0  3  0  0  0  0  0  0
    0.8591    0.0997    2.0018 C   0  0  0  0  0  0  0  0  0  0  0  0
    0.6202   -1.4002    2.1179 C   0  0  0  0  0  0  0  0  0  0  0  0
   -0.1824    1.9262    1.4424 H   0  0  0  0  0  0  0  0  0  0  0  0
   -1.2118    0.7120    2.2047 H   0  0  0  0  0  0  0  0  0  0  0  0
    1.6906    0.2838    1.3158 H   0  0  0  0  0  0  0  0  0  0  0  0
    1.1709    0.4949    2.9725 H   0  0  0  0  0  0  0  0  0  0  0  0
    0.3364   -1.8265    1.1526 H   0  0  0  0  0  0  0  0  0  0  0  0
    1.5131   -1.9230    2.4646 H   0  0  0  0  0  0  0  0  0  0  0  0
   -0.1874   -1.6138    2.8224 H   0  0  0  0  0  0  0  0  0  0  0  0
  1  2  1  0
  1  4  1  0
  1  5  1  0
  1  6  1  0
  2  3  1  0
  2  7  1  0
  2  8  1  0
  3  9  1  0
 10 11  1  0
 10 13  1  0
 10 14  1  0
 11 12  1  0
 11 15  1  0
 11 16  1  0
 12 17  1  0
 12 18  1  0
 12 19  1  0
M  RAD  2   3   2  10   2
M  END
>  <reaction>  (14) 
rmg_rxn_506

>  <mol_properties>  (14) 
{"1": {"label": "*0", "atom_type": "Cs"}, "2": {"label": "*1", "atom_type": "N3s"}, "8": {"label": "*2", "atom_type": "H0"}, "9": {"label": "*3", "atom_type": "Cs"}, "10": {"label": "*4", "atom_type": "Cs"}}

>  <type>  (14) 
unop_10

>  <geom_source>  (14) 
Heuristics

$$$$

     RDKit          3D

 19 17  0  0  0  0  0  0  0  0999 V2000
    0.2083   -1.3829   -2.9634 C   0  0  0  0  0  0  0  0  0  0  0  0
    0.2083   -1.3829   -1.4454 C   0  0  0  0  0  0  0  0  0  0  0  0
    0.2083   -0.0553   -0.9057 N   0  0  0  0  0  2  0  0  0  0  0  0
    1.0906   -0.8664   -3.3435 H   0  0  0  0  0  0  0  0  0  0  0  0
    0.2083   -2.4018   -3.3545 H   0  0  0  0  0  0  0  0  0  0  0  0
   -0.6739   -0.8664   -3.3435 H   0  0  0  0  0  0  0  0  0  0  0  0
    1.0806   -1.9366   -1.0615 H   0  0  0  0  0  0  0  0  0  0  0  0
   -0.6639   -1.9366   -1.0615 H   0  0  0  0  0  0  0  0  0  0  0  0
    0.2083   -0.1589    0.3175 H   0  0  0  0  0  0  0  0  0  0  0  0
    0.2083   -0.2694    1.6241 C   0  0  0  0  0  3  0  0  0  0  0  0
   -0.5030    0.9123    2.2707 C   0  0  0  0  0  0  0  0  0  0  0  0
   -0.3636    2.1953    1.4614 C   0  0  0  0  0  0  0  0  0  0  0  0
    0.0972   -1.1783    2.2179 H   0  0  0  0  0  0  0  0  0  0  0  0
    1.2771   -0.0698    1.5146 H   0  0  0  0  0  0  0  0  0  0  0  0
   -1.5630    0.6747    2.3965 H   0  0  0  0  0  0  0  0  0  0  0  0
   -0.1043    1.0712    3.2764 H   0  0  0  0  0  0  0  0  0  0  0  0
   -0.7830    2.0729    0.4598 H   0  0  0  0  0  0  0  0  0  0  0  0
   -0.8792    3.0296    1.9400 H   0  0  0  0  0  0  0  0  0  0  0  0
    0.6871    2.4726    1.3467 H   0  0  0  0  0  0  0  0  0  0  0  0
  1  2  1  0
  1  4  1  0
  1  5  1  0
  1  6  1  0
  2  3  1  0
  2  7  1  0
  2  8  1  0
  3  9  1  0
 10 11  1  0
 10 13  1  0
 10 14  1  0
 11 12  1  0
 11 15  1  0
 11 16  1  0
 12 17  1  0
 12 18  1  0
 12 19  1  0
M  RAD  2   3   2  10   2
M  END
>  <reaction>  (15) 
rmg_rxn_506

>  <mol_properties>  (15) 
{"1": {"label": "*0", "atom_type": "Cs"}, "2": {"label": "*1", "atom_type": "N3s"}, "8": {"label": "*2", "atom_type": "H0"}, "9": {"label": "*3", "atom_type": "Cs"}, "10": {"label": "*4", "atom_type": "Cs"}}

>  <type>  (15) 
unop_11

>  <geom_source>  (15) 
Heuristics

$$$$

     RDKit          3D

 19 17  0  0  0  0  0  0  0  0999 V2000
    0.2096   -0.1453   -2.9402 C   0  0  0  0  0  0  0  0  0  0  0  0
    0.2096   -0.1453   -1.4222 C   0  0  0  0  0  0  0  0  0  0  0  0
    0.2096    1.1823   -0.8825 N   0  0  0  0  0  2  0  0  0  0  0  0
    1.0918    0.3712   -3.3203 H   0  0  0  0  0  0  0  0  0  0  0  0
    0.2096   -1.1642   -3.3313 H   0  0  0  0  0  0  0  0  0  0  0  0
   -0.6726    0.3712   -3.3203 H   0  0  0  0  0  0  0  0  0  0  0  0
    1.0818   -0.6990   -1.0383 H   0  0  0  0  0  0  0  0  0  0  0  0
   -0.6626   -0.6990   -1.0383 H   0  0  0  0  0  0  0  0  0  0  0  0
    0.2096    1.0787    0.3408 H   0  0  0  0  0  0  0  0  0  0  0  0
    0.2096    0.9681    1.6473 C   0  0  0  0  0  3  0  0  0  0  0  0
    0.2096   -0.4954    2.0700 C   0  0  0  0  0  0  0  0  0  0  0  0
   -1.0047   -1.2556    1.5522 C   0  0  0  0  0  0  0  0  0  0  0  0
    1.0862    1.4955    2.0274 H   0  0  0  0  0  0  0  0  0  0  0  0
   -0.6788    1.4828    2.0214 H   0  0  0  0  0  0  0  0  0  0  0  0
    1.1222   -0.9783    1.7098 H   0  0  0  0  0  0  0  0  0  0  0  0
    0.2408   -0.5591    3.1612 H   0  0  0  0  0  0  0  0  0  0  0  0
   -1.0429   -1.2335    0.4603 H   0  0  0  0  0  0  0  0  0  0  0  0
   -0.9868   -2.3010    1.8649 H   0  0  0  0  0  0  0  0  0  0  0  0
   -1.9313   -0.8111    1.9233 H   0  0  0  0  0  0  0  0  0  0  0  0
  1  2  1  0
  1  4  1  0
  1  5  1  0
  1  6  1  0
  2  3  1  0
  2  7  1  0
  2  8  1  0
  3  9  1  0
 10 11  1  0
 10 13  1  0
 10 14  1  0
 11 12  1  0
 11 15  1  0
 11 16  1  0
 12 17  1  0
 12 18  1  0
 12 19  1  0
M  RAD  2   3   2  10   2
M  END
>  <reaction>  (16) 
rmg_rxn_506

>  <mol_properties>  (16) 
{"1": {"label": "*0", "atom_type": "Cs"}, "2": {"label": "*1", "atom_type": "N3s"}, "8": {"label": "*2", "atom_type": "H0"}, "9": {"label": "*3", "atom_type": "Cs"}, "10": {"label": "*4", "atom_type": "Cs"}}

>  <type>  (16) 
unop_12

>  <geom_source>  (16) 
Heuristics

$$$$

     RDKit          3D

 19 17  0  0  0  0  0  0  0  0999 V2000
   -0.0914   -0.1269   -3.0046 C   0  0  0  0  0  0  0  0  0  0  0  0
   -0.0914   -0.1269   -1.4866 C   0  0  0  0  0  0  0  0  0  0  0  0
   -0.0914    1.2007   -0.9469 N   0  0  0  0  0  2  0  0  0  0  0  0
    0.7909    0.3896   -3.3847 H   0  0  0  0  0  0  0  0  0  0  0  0
   -0.0914   -1.1458   -3.3957 H   0  0  0  0  0  0  0  0  0  0  0  0
   -0.9736    0.3896   -3.3847 H   0  0  0  0  0  0  0  0  0  0  0  0
    0.7809   -0.6806   -1.1027 H   0  0  0  0  0  0  0  0  0  0  0  0
   -0.9636   -0.6806   -1.1027 H   0  0  0  0  0  0  0  0  0  0  0  0
   -0.0914    1.0972    0.2763 H   0  0  0  0  0  0  0  0  0  0  0  0
   -0.0914    0.9866    1.5829 C   0  0  0  0  0  3  0  0  0  0  0  0
    0.6200   -0.2870    2.0217 C   0  0  0  0  0  0  0  0  0  0  0  0
   -0.2429   -1.5304    1.8482 C   0  0  0  0  0  0  0  0  0  0  0  0
    0.5420    1.8655    1.7146 H   0  0  0  0  0  0  0  0  0  0  0  0
   -1.0051    1.1428    2.1615 H   0  0  0  0  0  0  0  0  0  0  0  0
    1.5447   -0.4030    1.4496 H   0  0  0  0  0  0  0  0  0  0  0  0
    0.9188   -0.1946    3.0695 H   0  0  0  0  0  0  0  0  0  0  0  0
   -0.5305   -1.6636    0.8025 H   0  0  0  0  0  0  0  0  0  0  0  0
    0.2834   -2.4316    2.1675 H   0  0  0  0  0  0  0  0  0  0  0  0
   -1.1613   -1.4535    2.4352 H   0  0  0  0  0  0  0  0  0  0  0  0
  1  2  1  0
  1  4  1  0
  1  5  1  0
  1  6  1  0
  2  3  1  0
  2  7  1  0
  2  8  1  0
  3  9  1  0
 10 11  1  0
 10 13  1  0
 10 14  1  0
 11 12  1  0
 11 15  1  0
 11 16  1  0
 12 17  1  0
 12 18  1  0
 12 19  1  0
M  RAD  2   3   2  10   2
M  END
>  <reaction>  (17) 
rmg_rxn_506

>  <mol_properties>  (17) 
{"1": {"label": "*0", "atom_type": "Cs"}, "2": {"label": "*1", "atom_type": "N3s"}, "8": {"label": "*2", "atom_type": "H0"}, "9": {"label": "*3", "atom_type": "Cs"}, "10": {"label": "*4", "atom_type": "Cs"}}

>  <type>  (17) 
unop_13

>  <geom_source>  (17) 
gaussian_log

$$$$
