
     RDKit          3D

  9  8  0  0  0  0  0  0  0  0999 V2000
   -1.2461    0.5037    0.0950 C   0  0  0  0  0  0  0  0  0  0  0  0
   -0.0155   -0.3334    0.0640 C   0  0  0  0  0  0  0  0  0  0  0  0
    1.0697    0.1457   -0.3733 N   0  0  0  0  0  0  0  0  0  0  0  0
    2.1001   -0.7834   -0.3224 O   0  0  0  0  0  0  0  0  0  0  0  0
   -2.0357    0.0440   -0.5039 H   0  0  0  0  0  0  0  0  0  0  0  0
   -1.6237    0.5897    1.1166 H   0  0  0  0  0  0  0  0  0  0  0  0
   -1.0397    1.4998   -0.2929 H   0  0  0  0  0  0  0  0  0  0  0  0
   -0.0537   -1.3634    0.4205 H   0  0  0  0  0  0  0  0  0  0  0  0
    2.8478   -0.2985   -0.6758 H   0  0  0  0  0  0  0  0  0  0  0  0
  1  2  1  0
  1  5  1  0
  1  6  1  0
  1  7  1  0
  2  3  2  3
  2  8  1  0
  3  4  1  0
  4  9  1  0
M  END
>  <reaction>  (1) 
rmg_rxn_48

>  <mol_properties>  (1) 
{"3": {"label": "donator", "atom_type": "O2s"}, "8": {"label": "d_hydrogen", "atom_type": "H0"}}

>  <type>  (1) 
r1h

$$$$

     RDKit          3D

 14 13  0  0  0  0  0  0  0  0999 V2000
    2.5796   -0.5432    0.2329 C   0  0  0  0  0  3  0  0  0  0  0  0
    1.2594    0.0982    0.3029 C   0  0  0  0  0  0  0  0  0  0  0  0
   -0.0483   -1.0244    0.9576 S   0  0  0  0  0  0  0  0  0  0  0  0
   -0.0049   -2.3732   -0.2491 C   0  0  0  0  0  0  0  0  0  0  0  0
   -0.3891   -1.9781   -1.6653 C   0  0  0  0  0  0  0  0  0  0  0  0
    2.9359   -0.9798   -0.6903 H   0  0  0  0  0  0  0  0  0  0  0  0
    3.1327   -0.7454    1.1400 H   0  0  0  0  0  0  0  0  0  0  0  0
    0.9347    0.4858   -0.6621 H   0  0  0  0  0  0  0  0  0  0  0  0
    1.2442    0.9220    1.0193 H   0  0  0  0  0  0  0  0  0  0  0  0
    0.9819   -2.8380   -0.2257 H   0  0  0  0  0  0  0  0  0  0  0  0
   -0.7110   -3.1037    0.1493 H   0  0  0  0  0  0  0  0  0  0  0  0
    0.3274   -1.2737   -2.0913 H   0  0  0  0  0  0  0  0  0  0  0  0
   -0.4075   -2.8581   -2.3121 H   0  0  0  0  0  0  0  0  0  0  0  0
   -1.3749   -1.5123   -1.6865 H   0  0  0  0  0  0  0  0  0  0  0  0
  1  2  1  0
  1  6  1  0
  1  7  1  0
  2  3  1  0
  2  8  1  0
  2  9  1  0
  3  4  1  0
  4  5  1  0
  4 10  1  0
  4 11  1  0
  5 12  1  0
  5 13  1  0
  5 14  1  0
M  RAD  1   1   2
M  END
>  <reaction>  (2) 
rmg_rxn_48

>  <mol_properties>  (2) 
{"0": {"label": "acceptor", "atom_type": "Cs"}}

>  <type>  (2) 
r2

$$$$

     RDKit          3D

 15 14  0  0  0  0  0  0  0  0999 V2000
   -2.0554    0.0723   -0.4910 C   0  0  0  0  0  0  0  0  0  0  0  0
   -0.7461   -0.6266   -0.8178 C   0  0  0  0  0  0  0  0  0  0  0  0
    0.3249    0.2591   -1.9782 S   0  0  0  0  0  0  0  0  0  0  0  0
   -0.7172    0.3642   -3.4551 C   0  0  0  0  0  0  0  0  0  0  0  0
   -1.1375   -0.9737   -4.0409 C   0  0  0  0  0  0  0  0  0  0  0  0
   -2.7005    0.1427   -1.3684 H   0  0  0  0  0  0  0  0  0  0  0  0
   -2.6016   -0.4848    0.2733 H   0  0  0  0  0  0  0  0  0  0  0  0
   -1.8758    1.0825   -0.1213 H   0  0  0  0  0  0  0  0  0  0  0  0
   -0.1320   -0.7246    0.0789 H   0  0  0  0  0  0  0  0  0  0  0  0
   -0.9254   -1.6374   -1.1879 H   0  0  0  0  0  0  0  0  0  0  0  0
   -1.5873    0.9874   -3.2422 H   0  0  0  0  0  0  0  0  0  0  0  0
   -0.1021    0.9161   -4.1678 H   0  0  0  0  0  0  0  0  0  0  0  0
   -1.7876   -1.5224   -3.3574 H   0  0  0  0  0  0  0  0  0  0  0  0
   -0.2676   -1.5962   -4.2534 H   0  0  0  0  0  0  0  0  0  0  0  0
   -1.6916   -0.8229   -4.9700 H   0  0  0  0  0  0  0  0  0  0  0  0
  1  2  1  0
  1  6  1  0
  1  7  1  0
  1  8  1  0
  2  3  1  0
  2  9  1  0
  2 10  1  0
  3  4  1  0
  4  5  1  0
  4 11  1  0
  4 12  1  0
  5 13  1  0
  5 14  1  0
  5 15  1  0
M  END
>  <reaction>  (3) 
rmg_rxn_48

>  <mol_properties>  (3) 
{"0": {"label": "a_hydrogen", "atom_type": "H0"}, "1": {"label": "acceptor", "atom_type": "Cs"}}

>  <type>  (3) 
r2h

$$$$

     RDKit          3D

 23 21  0  0  0  0  0  0  0  0999 V2000
    0.2254   -0.8755   -4.4230 C   0  0  0  0  0  0  0  0  0  0  0  0
   -0.8959   -0.3050   -3.6256 C   0  0  0  0  0  0  0  0  0  0  0  0
   -0.8995   -0.4071   -2.3615 N   0  0  0  0  0  0  0  0  0  0  0  0
   -1.9485    0.1391   -1.7419 O   0  0  0  0  0  0  0  0  0  0  0  0
   -0.1460   -1.6198   -5.1317 H   0  0  0  0  0  0  0  0  0  0  0  0
    0.7204   -0.0945   -5.0052 H   0  0  0  0  0  0  0  0  0  0  0  0
    0.9572   -1.3458   -3.7680 H   0  0  0  0  0  0  0  0  0  0  0  0
   -1.7149    0.2012   -4.1373 H   0  0  0  0  0  0  0  0  0  0  0  0
   -1.7579   -0.0773   -0.5734 H   0  0  0  0  0  0  0  0  0  0  0  0
   -1.4101   -0.3722    0.6602 C   0  0  0  0  0  3  0  0  0  0  0  0
    0.0784   -0.2533    0.6815 C   0  0  0  0  0  0  0  0  0  0  0  0
    0.8140   -0.9116    2.2100 S   0  0  0  0  0  0  0  0  0  0  0  0
    0.0870    0.1586    3.4782 C   0  0  0  0  0  0  0  0  0  0  0  0
    0.4064    1.6367    3.3306 C   0  0  0  0  0  0  0  0  0  0  0  0
   -1.7930   -1.3827    0.7868 H   0  0  0  0  0  0  0  0  0  0  0  0
   -1.9589    0.3668    1.2417 H   0  0  0  0  0  0  0  0  0  0  0  0
    0.4028    0.7751    0.5253 H   0  0  0  0  0  0  0  0  0  0  0  0
    0.5199   -0.8573   -0.1128 H   0  0  0  0  0  0  0  0  0  0  0  0
   -0.9904   -0.0075    3.5188 H   0  0  0  0  0  0  0  0  0  0  0  0
    0.5013   -0.2304    4.4099 H   0  0  0  0  0  0  0  0  0  0  0  0
   -0.0363    2.0537    2.4246 H   0  0  0  0  0  0  0  0  0  0  0  0
    0.0045    2.1959    4.1783 H   0  0  0  0  0  0  0  0  0  0  0  0
    1.4836    1.8005    3.2873 H   0  0  0  0  0  0  0  0  0  0  0  0
  1  2  1  0
  1  5  1  0
  1  6  1  0
  1  7  1  0
  2  3  2  3
  2  8  1  0
  3  4  1  0
  4  9  1  0
 10 11  1  0
 10 15  1  0
 10 16  1  0
 11 12  1  0
 11 17  1  0
 11 18  1  0
 12 13  1  0
 13 14  1  0
 13 19  1  0
 13 20  1  0
 14 21  1  0
 14 22  1  0
 14 23  1  0
M  RAD  1  10   2
M  END
>  <reaction>  (4) 
rmg_rxn_48

>  <mol_properties>  (4) 
{"2": {"label": "*0", "atom_type": "N3d"}, "3": {"label": "*1", "atom_type": "O2s"}, "8": {"label": "*2", "atom_type": "H0"}, "9": {"label": "*3", "atom_type": "Cs"}, "10": {"label": "*4", "atom_type": "Cs"}}

>  <type>  (4) 
ts

$$$$

     RDKit          3D

 23 21  0  0  0  0  0  0  0  0999 V2000
    0.9982   -2.9630   -3.4763 C   0  0  0  0  0  0  0  0  0  0  0  0
    0.9982   -2.9630   -1.9877 C   0  0  0  0  0  0  0  0  0  0  0  0
    0.9982   -1.8709   -1.3509 N   0  0  0  0  0  0  0  0  0  0  0  0
    0.9982   -2.0756    0.0223 O   0  0  0  0  0  0  0  0  0  0  0  0
    1.8776   -3.4868   -3.8581 H   0  0  0  0  0  0  0  0  0  0  0  0
    0.1188   -3.4868   -3.8581 H   0  0  0  0  0  0  0  0  0  0  0  0
    0.9982   -1.9433   -3.8578 H   0  0  0  0  0  0  0  0  0  0  0  0
    0.9982   -3.9105   -1.4475 H   0  0  0  0  0  0  0  0  0  0  0  0
    0.9982   -1.0059    0.4457 H   0  0  0  0  0  0  0  0  0  0  0  0
    0.9982    0.2109    0.9273 C   0  0  0  0  0  3  0  0  0  0  0  0
   -0.2312    0.4543    1.7869 C   0  0  0  0  0  0  0  0  0  0  0  0
   -1.6251    1.2264    0.9272 S   0  0  0  0  0  0  0  0  0  0  0  0
   -0.9145    2.8014    0.3862 C   0  0  0  0  0  0  0  0  0  0  0  0
   -0.4215    3.7019    1.5067 C   0  0  0  0  0  0  0  0  0  0  0  0
    1.4443    1.1493    0.5935 H   0  0  0  0  0  0  0  0  0  0  0  0
    1.7580   -0.3286    1.4971 H   0  0  0  0  0  0  0  0  0  0  0  0
    0.0212    1.0422    2.6709 H   0  0  0  0  0  0  0  0  0  0  0  0
   -0.6394   -0.4922    2.1451 H   0  0  0  0  0  0  0  0  0  0  0  0
   -0.1219    2.6122   -0.3396 H   0  0  0  0  0  0  0  0  0  0  0  0
   -1.7304    3.2809   -0.1573 H   0  0  0  0  0  0  0  0  0  0  0  0
    0.4222    3.2557    2.0358 H   0  0  0  0  0  0  0  0  0  0  0  0
   -0.0855    4.6595    1.1028 H   0  0  0  0  0  0  0  0  0  0  0  0
   -1.2139    3.8907    2.2318 H   0  0  0  0  0  0  0  0  0  0  0  0
  1  2  1  0
  1  5  1  0
  1  6  1  0
  1  7  1  0
  2  3  2  3
  2  8  1  0
  3  4  1  0
  4  9  1  0
 10 11  1  0
 10 15  1  0
 10 16  1  0
 11 12  1  0
 11 17  1  0
 11 18  1  0
 12 13  1  0
 13 14  1  0
 13 19  1  0
 13 20  1  0
 14 21  1  0
 14 22  1  0
 14 23  1  0
M  RAD  1  10   2
M  END
>  <reaction>  (5) 
rmg_rxn_48

>  <mol_properties>  (5) 
{"2": {"label": "*0", "atom_type": "N3d"}, "3": {"label": "*1", "atom_type": "O2s"}, "8": {"label": "*2", "atom_type": "H0"}, "9": {"label": "*3", "atom_type": "Cs"}, "10": {"label": "*4", "atom_type": "Cs"}}

>  <type>  (5) 
unop_1

>  <geom_source>  (5) 
Heuristics

$$$$

     RDKit          3D

 23 21  0  0  0  0  0  0  0  0999 V2000
   -0.2889   -3.0544   -2.5092 C   0  0  0  0  0  0  0  0  0  0  0  0
   -0.2889   -3.0544   -1.0205 C   0  0  0  0  0  0  0  0  0  0  0  0
   -0.2889   -1.9623   -0.3837 N   0  0  0  0  0  0  0  0  0  0  0  0
   -0.2889   -2.1670    0.9895 O   0  0  0  0  0  0  0  0  0  0  0  0
    0.5905   -3.5782   -2.8910 H   0  0  0  0  0  0  0  0  0  0  0  0
   -1.1683   -3.5782   -2.8910 H   0  0  0  0  0  0  0  0  0  0  0  0
   -0.2889   -2.0347   -2.8906 H   0  0  0  0  0  0  0  0  0  0  0  0
   -0.2889   -4.0019   -0.4804 H   0  0  0  0  0  0  0  0  0  0  0  0
   -0.2889   -1.0973    1.4128 H   0  0  0  0  0  0  0  0  0  0  0  0
   -0.2889    0.1195    1.8944 C   0  0  0  0  0  3  0  0  0  0  0  0
   -0.9986    1.0765    0.9510 C   0  0  0  0  0  0  0  0  0  0  0  0
   -0.0799    1.4893   -0.5536 S   0  0  0  0  0  0  0  0  0  0  0  0
    1.4175    2.2586    0.1127 C   0  0  0  0  0  0  0  0  0  0  0  0
    1.1815    3.5073    0.9462 C   0  0  0  0  0  0  0  0  0  0  0  0
    0.6158    0.5662    2.3104 H   0  0  0  0  0  0  0  0  0  0  0  0
   -0.9407   -0.1402    2.7315 H   0  0  0  0  0  0  0  0  0  0  0  0
   -1.2816    1.9952    1.4675 H   0  0  0  0  0  0  0  0  0  0  0  0
   -1.9211    0.6292    0.5771 H   0  0  0  0  0  0  0  0  0  0  0  0
    1.9880    1.5169    0.6743 H   0  0  0  0  0  0  0  0  0  0  0  0
    2.0034    2.4985   -0.7761 H   0  0  0  0  0  0  0  0  0  0  0  0
    0.6316    3.2790    1.8608 H   0  0  0  0  0  0  0  0  0  0  0  0
    2.1348    3.9525    1.2395 H   0  0  0  0  0  0  0  0  0  0  0  0
    0.6113    4.2482    0.3847 H   0  0  0  0  0  0  0  0  0  0  0  0
  1  2  1  0
  1  5  1  0
  1  6  1  0
  1  7  1  0
  2  3  2  3
  2  8  1  0
  3  4  1  0
  4  9  1  0
 10 11  1  0
 10 15  1  0
 10 16  1  0
 11 12  1  0
 11 17  1  0
 11 18  1  0
 12 13  1  0
 13 14  1  0
 13 19  1  0
 13 20  1  0
 14 21  1  0
 14 22  1  0
 14 23  1  0
M  RAD  1  10   2
M  END
>  <reaction>  (6) 
rmg_rxn_48

>  <mol_properties>  (6) 
{"2": {"label": "*0", "atom_type": "N3d"}, "3": {"label": "*1", "atom_type": "O2s"}, "8": {"label": "*2", "atom_type": "H0"}, "9": {"label": "*3", "atom_type": "Cs"}, "10": {"label": "*4", "atom_type": "Cs"}}

>  <type>  (6) 
unop_2

>  <geom_source>  (6) 
Heuristics

$$$$

     RDKit          3D

 23 21  0  0  0  0  0  0  0  0999 V2000
    1.0728   -2.6451   -3.9218 C   0  0  0  0  0  0  0  0  0  0  0  0
    1.0728   -2.6451   -2.4331 C   0  0  0  0  0  0  0  0  0  0  0  0
    1.0728   -1.5530   -1.7963 N   0  0  0  0  0  0  0  0  0  0  0  0
    1.0728   -1.7577   -0.4231 O   0  0  0  0  0  0  0  0  0  0  0  0
    1.9522   -3.1689   -4.3036 H   0  0  0  0  0  0  0  0  0  0  0  0
    0.1934   -3.1689   -4.3036 H   0  0  0  0  0  0  0  0  0  0  0  0
    1.0728   -1.6254   -4.3032 H   0  0  0  0  0  0  0  0  0  0  0  0
    1.0728   -3.5926   -1.8930 H   0  0  0  0  0  0  0  0  0  0  0  0
    1.0728   -0.6880    0.0002 H   0  0  0  0  0  0  0  0  0  0  0  0
    1.0728    0.5288    0.4818 C   0  0  0  0  0  3  0  0  0  0  0  0
    0.3630    0.5810    1.8246 C   0  0  0  0  0  0  0  0  0  0  0  0
   -1.4387    0.7341    1.7320 S   0  0  0  0  0  0  0  0  0  0  0  0
   -1.6435    2.3028    0.8514 C   0  0  0  0  0  0  0  0  0  0  0  0
   -1.0463    3.5136    1.5492 C   0  0  0  0  0  0  0  0  0  0  0  0
    0.9644    1.4676   -0.0640 H   0  0  0  0  0  0  0  0  0  0  0  0
    2.1415    0.3546    0.6250 H   0  0  0  0  0  0  0  0  0  0  0  0
    0.7643    1.3825    2.4470 H   0  0  0  0  0  0  0  0  0  0  0  0
    0.5163   -0.3497    2.3734 H   0  0  0  0  0  0  0  0  0  0  0  0
   -1.2517    2.2042   -0.1623 H   0  0  0  0  0  0  0  0  0  0  0  0
   -2.7257    2.4101    0.7610 H   0  0  0  0  0  0  0  0  0  0  0  0
    0.0409    3.4424    1.6121 H   0  0  0  0  0  0  0  0  0  0  0  0
   -1.2835    4.4248    0.9958 H   0  0  0  0  0  0  0  0  0  0  0  0
   -1.4380    3.6116    2.5623 H   0  0  0  0  0  0  0  0  0  0  0  0
  1  2  1  0
  1  5  1  0
  1  6  1  0
  1  7  1  0
  2  3  2  3
  2  8  1  0
  3  4  1  0
  4  9  1  0
 10 11  1  0
 10 15  1  0
 10 16  1  0
 11 12  1  0
 11 17  1  0
 11 18  1  0
 12 13  1  0
 13 14  1  0
 13 19  1  0
 13 20  1  0
 14 21  1  0
 14 22  1  0
 14 23  1  0
M  RAD  1  10   2
M  END
>  <reaction>  (7) 
rmg_rxn_48

>  <mol_properties>  (7) 
{"2": {"label": "*0", "atom_type": "N3d"}, "3": {"label": "*1", "atom_type": "O2s"}, "8": {"label": "*2", "atom_type": "H0"}, "9": {"label": "*3", "atom_type": "Cs"}, "10": {"label": "*4", "atom_type": "Cs"}}

>  <type>  (7) 
unop_3

>  <geom_source>  (7) 
Heuristics

$$$$

     RDKit          3D

 23 21  0  0  0  0  0  0  0  0999 V2000
   -1.3085   -1.9970   -3.3854 C   0  0  0  0  0  0  0  0  0  0  0  0
   -1.3085   -1.9970   -1.8967 C   0  0  0  0  0  0  0  0  0  0  0  0
   -1.3085   -0.9049   -1.2600 N   0  0  0  0  0  0  0  0  0  0  0  0
   -1.3085   -1.1096    0.1132 O   0  0  0  0  0  0  0  0  0  0  0  0
   -0.4291   -2.5208   -3.7672 H   0  0  0  0  0  0  0  0  0  0  0  0
   -2.1879   -2.5208   -3.7672 H   0  0  0  0  0  0  0  0  0  0  0  0
   -1.3085   -0.9773   -3.7668 H   0  0  0  0  0  0  0  0  0  0  0  0
   -1.3085   -2.9445   -1.3566 H   0  0  0  0  0  0  0  0  0  0  0  0
   -1.3085   -0.0399    0.5366 H   0  0  0  0  0  0  0  0  0  0  0  0
   -1.3085    1.1769    1.0182 C   0  0  0  0  0  3  0  0  0  0  0  0
   -0.0791    1.9427    0.5579 C   0  0  0  0  0  0  0  0  0  0  0  0
    1.3313    0.9112    0.0834 S   0  0  0  0  0  0  0  0  0  0  0  0
    1.6849    0.0188    1.6185 C   0  0  0  0  0  0  0  0  0  0  0  0
    2.0493    0.8983    2.8031 C   0  0  0  0  0  0  0  0  0  0  0  0
   -1.1171    0.6343    1.9455 H   0  0  0  0  0  0  0  0  0  0  0  0
   -2.1351    1.8656    1.2063 H   0  0  0  0  0  0  0  0  0  0  0  0
    0.2364    2.6643    1.3133 H   0  0  0  0  0  0  0  0  0  0  0  0
   -0.3006    2.5113   -0.3468 H   0  0  0  0  0  0  0  0  0  0  0  0
    0.8446   -0.6339    1.8612 H   0  0  0  0  0  0  0  0  0  0  0  0
    2.5211   -0.6306    1.3543 H   0  0  0  0  0  0  0  0  0  0  0  0
    1.2102    1.5260    3.1076 H   0  0  0  0  0  0  0  0  0  0  0  0
    2.3257    0.2819    3.6615 H   0  0  0  0  0  0  0  0  0  0  0  0
    2.8890    1.5504    2.5602 H   0  0  0  0  0  0  0  0  0  0  0  0
  1  2  1  0
  1  5  1  0
  1  6  1  0
  1  7  1  0
  2  3  2  3
  2  8  1  0
  3  4  1  0
  4  9  1  0
 10 11  1  0
 10 15  1  0
 10 16  1  0
 11 12  1  0
 11 17  1  0
 11 18  1  0
 12 13  1  0
 13 14  1  0
 13 19  1  0
 13 20  1  0
 14 21  1  0
 14 22  1  0
 14 23  1  0
M  RAD  1  10   2
M  END
>  <reaction>  (8) 
rmg_rxn_48

>  <mol_properties>  (8) 
{"2": {"label": "*0", "atom_type": "N3d"}, "3": {"label": "*1", "atom_type": "O2s"}, "8": {"label": "*2", "atom_type": "H0"}, "9": {"label": "*3", "atom_type": "Cs"}, "10": {"label": "*4", "atom_type": "Cs"}}

>  <type>  (8) 
unop_4

>  <geom_source>  (8) 
Heuristics

$$$$

     RDKit          3D

 23 21  0  0  0  0  0  0  0  0999 V2000
    0.8528   -2.0464   -4.3772 C   0  0  0  0  0  0  0  0  0  0  0  0
    0.8528   -2.0464   -2.8886 C   0  0  0  0  0  0  0  0  0  0  0  0
    0.8528   -0.9544   -2.2518 N   0  0  0  0  0  0  0  0  0  0  0  0
    0.8528   -1.1590   -0.8786 O   0  0  0  0  0  0  0  0  0  0  0  0
    1.7322   -2.5703   -4.7590 H   0  0  0  0  0  0  0  0  0  0  0  0
   -0.0267   -2.5703   -4.7590 H   0  0  0  0  0  0  0  0  0  0  0  0
    0.8528   -1.0268   -4.7587 H   0  0  0  0  0  0  0  0  0  0  0  0
    0.8528   -2.9940   -2.3484 H   0  0  0  0  0  0  0  0  0  0  0  0
    0.8528   -0.0894   -0.4552 H   0  0  0  0  0  0  0  0  0  0  0  0
    0.8528    1.1275    0.0264 C   0  0  0  0  0  3  0  0  0  0  0  0
    0.8528    1.1096    1.5460 C   0  0  0  0  0  0  0  0  0  0  0  0
   -0.4936    0.1624    2.2998 S   0  0  0  0  0  0  0  0  0  0  0  0
   -1.9602    1.0254    1.6813 C   0  0  0  0  0  0  0  0  0  0  0  0
   -2.0586    2.4892    2.0777 C   0  0  0  0  0  0  0  0  0  0  0  0
   -0.0225    1.6472   -0.3670 H   0  0  0  0  0  0  0  0  0  0  0  0
    1.7377    1.6480   -0.3462 H   0  0  0  0  0  0  0  0  0  0  0  0
    0.8526    2.1241    1.9480 H   0  0  0  0  0  0  0  0  0  0  0  0
    1.7543    0.6229    1.9216 H   0  0  0  0  0  0  0  0  0  0  0  0
   -2.0198    0.9098    0.5978 H   0  0  0  0  0  0  0  0  0  0  0  0
   -2.7918    0.4591    2.1040 H   0  0  0  0  0  0  0  0  0  0  0  0
   -1.2570    3.0790    1.6300 H   0  0  0  0  0  0  0  0  0  0  0  0
   -3.0062    2.9112    1.7357 H   0  0  0  0  0  0  0  0  0  0  0  0
   -1.9989    2.6042    3.1606 H   0  0  0  0  0  0  0  0  0  0  0  0
  1  2  1  0
  1  5  1  0
  1  6  1  0
  1  7  1  0
  2  3  2  3
  2  8  1  0
  3  4  1  0
  4  9  1  0
 10 11  1  0
 10 15  1  0
 10 16  1  0
 11 12  1  0
 11 17  1  0
 11 18  1  0
 12 13  1  0
 13 14  1  0
 13 19  1  0
 13 20  1  0
 14 21  1  0
 14 22  1  0
 14 23  1  0
M  RAD  1  10   2
M  END
>  <reaction>  (9) 
rmg_rxn_48

>  <mol_properties>  (9) 
{"2": {"label": "*0", "atom_type": "N3d"}, "3": {"label": "*1", "atom_type": "O2s"}, "8": {"label": "*2", "atom_type": "H0"}, "9": {"label": "*3", "atom_type": "Cs"}, "10": {"label": "*4", "atom_type": "Cs"}}

>  <type>  (9) 
unop_5

>  <geom_source>  (9) 
Heuristics

$$$$

     RDKit          3D

 23 21  0  0  0  0  0  0  0  0999 V2000
   -1.1403   -1.7091   -3.8914 C   0  0  0  0  0  0  0  0  0  0  0  0
   -1.1403   -1.7091   -2.4028 C   0  0  0  0  0  0  0  0  0  0  0  0
   -1.1403   -0.6170   -1.7660 N   0  0  0  0  0  0  0  0  0  0  0  0
   -1.1403   -0.8217   -0.3928 O   0  0  0  0  0  0  0  0  0  0  0  0
   -0.2609   -2.2329   -4.2732 H   0  0  0  0  0  0  0  0  0  0  0  0
   -2.0197   -2.2329   -4.2732 H   0  0  0  0  0  0  0  0  0  0  0  0
   -1.1403   -0.6894   -4.2728 H   0  0  0  0  0  0  0  0  0  0  0  0
   -1.1403   -2.6566   -1.8626 H   0  0  0  0  0  0  0  0  0  0  0  0
   -1.1403    0.2480    0.0306 H   0  0  0  0  0  0  0  0  0  0  0  0
   -1.1403    1.4649    0.5122 C   0  0  0  0  0  3  0  0  0  0  0  0
    0.2792    1.9694    0.7119 C   0  0  0  0  0  0  0  0  0  0  0  0
    1.5574    0.6873    0.6862 S   0  0  0  0  0  0  0  0  0  0  0  0
    1.0654   -0.3698    2.0713 C   0  0  0  0  0  0  0  0  0  0  0  0
    1.0360    0.3189    3.4257 C   0  0  0  0  0  0  0  0  0  0  0  0
   -1.4579    0.8278    1.3394 H   0  0  0  0  0  0  0  0  0  0  0  0
   -1.8368    2.3046    0.4594 H   0  0  0  0  0  0  0  0  0  0  0  0
    0.3619    2.5465    1.6344 H   0  0  0  0  0  0  0  0  0  0  0  0
    0.5649    2.6368   -0.1029 H   0  0  0  0  0  0  0  0  0  0  0  0
    0.1036   -0.8351    1.8494 H   0  0  0  0  0  0  0  0  0  0  0  0
    1.8095   -1.1680    2.0655 H   0  0  0  0  0  0  0  0  0  0  0  0
    0.2685    1.0938    3.4632 H   0  0  0  0  0  0  0  0  0  0  0  0
    0.8107   -0.4037    4.2132 H   0  0  0  0  0  0  0  0  0  0  0  0
    1.9973    0.7839    3.6471 H   0  0  0  0  0  0  0  0  0  0  0  0
  1  2  1  0
  1  5  1  0
  1  6  1  0
  1  7  1  0
  2  3  2  3
  2  8  1  0
  3  4  1  0
  4  9  1  0
 10 11  1  0
 10 15  1  0
 10 16  1  0
 11 12  1  0
 11 17  1  0
 11 18  1  0
 12 13  1  0
 13 14  1  0
 13 19  1  0
 13 20  1  0
 14 21  1  0
 14 22  1  0
 14 23  1  0
M  RAD  1  10   2
M  END
>  <reaction>  (10) 
rmg_rxn_48

>  <mol_properties>  (10) 
{"2": {"label": "*0", "atom_type": "N3d"}, "3": {"label": "*1", "atom_type": "O2s"}, "8": {"label": "*2", "atom_type": "H0"}, "9": {"label": "*3", "atom_type": "Cs"}, "10": {"label": "*4", "atom_type": "Cs"}}

>  <type>  (10) 
unop_6

>  <geom_source>  (10) 
Heuristics

$$$$

     RDKit          3D

 23 21  0  0  0  0  0  0  0  0999 V2000
   -0.6786   -1.5273   -4.3398 C   0  0  0  0  0  0  0  0  0  0  0  0
   -0.6786   -1.5273   -2.8511 C   0  0  0  0  0  0  0  0  0  0  0  0
   -0.6786   -0.4352   -2.2143 N   0  0  0  0  0  0  0  0  0  0  0  0
   -0.6786   -0.6399   -0.8411 O   0  0  0  0  0  0  0  0  0  0  0  0
    0.2008   -2.0511   -4.7216 H   0  0  0  0  0  0  0  0  0  0  0  0
   -1.5581   -2.0511   -4.7216 H   0  0  0  0  0  0  0  0  0  0  0  0
   -0.6786   -0.5076   -4.7212 H   0  0  0  0  0  0  0  0  0  0  0  0
   -0.6786   -2.4748   -2.3110 H   0  0  0  0  0  0  0  0  0  0  0  0
   -0.6786    0.4298   -0.4177 H   0  0  0  0  0  0  0  0  0  0  0  0
   -0.6786    1.6466    0.0639 C   0  0  0  0  0  3  0  0  0  0  0  0
    0.5507    1.8900    0.9235 C   0  0  0  0  0  0  0  0  0  0  0  0
    1.4401    0.3954    1.4270 S   0  0  0  0  0  0  0  0  0  0  0  0
    0.1800   -0.4987    2.3709 C   0  0  0  0  0  0  0  0  0  0  0  0
   -0.3499    0.2361    3.5910 C   0  0  0  0  0  0  0  0  0  0  0  0
   -1.4528    1.1114    0.6163 H   0  0  0  0  0  0  0  0  0  0  0  0
   -1.1068    2.5970   -0.2624 H   0  0  0  0  0  0  0  0  0  0  0  0
    0.2983    2.4777    1.8076 H   0  0  0  0  0  0  0  0  0  0  0  0
    1.2969    2.4613    0.3688 H   0  0  0  0  0  0  0  0  0  0  0  0
   -0.6350   -0.7883    1.7055 H   0  0  0  0  0  0  0  0  0  0  0  0
    0.6842   -1.4194    2.6694 H   0  0  0  0  0  0  0  0  0  0  0  0
   -0.8933    1.1394    3.3085 H   0  0  0  0  0  0  0  0  0  0  0  0
   -1.0410   -0.4016    4.1466 H   0  0  0  0  0  0  0  0  0  0  0  0
    0.4649    0.5254    4.2557 H   0  0  0  0  0  0  0  0  0  0  0  0
  1  2  1  0
  1  5  1  0
  1  6  1  0
  1  7  1  0
  2  3  2  3
  2  8  1  0
  3  4  1  0
  4  9  1  0
 10 11  1  0
 10 15  1  0
 10 16  1  0
 11 12  1  0
 11 17  1  0
 11 18  1  0
 12 13  1  0
 13 14  1  0
 13 19  1  0
 13 20  1  0
 14 21  1  0
 14 22  1  0
 14 23  1  0
M  RAD  1  10   2
M  END
>  <reaction>  (11) 
rmg_rxn_48

>  <mol_properties>  (11) 
{"2": {"label": "*0", "atom_type": "N3d"}, "3": {"label": "*1", "atom_type": "O2s"}, "8": {"label": "*2", "atom_type": "H0"}, "9": {"label": "*3", "atom_type": "Cs"}, "10": {"label": "*4", "atom_type": "Cs"}}

>  <type>  (11) 
unop_7

>  <geom_source>  (11) 
Heuristics

$$$$

     RDKit          3D

 23 21  0  0  0  0  0  0  0  0999 V2000
    0.7547   -3.1328   -3.0352 C   0  0  0  0  0  0  0  0  0  0  0  0
    0.7547   -3.1328   -1.5465 C   0  0  0  0  0  0  0  0  0  0  0  0
    0.7547   -2.0407   -0.9097 N   0  0  0  0  0  0  0  0  0  0  0  0
    0.7547   -2.2454    0.4635 O   0  0  0  0  0  0  0  0  0  0  0  0
    1.6341   -3.6566   -3.4170 H   0  0  0  0  0  0  0  0  0  0  0  0
   -0.1247   -3.6566   -3.4170 H   0  0  0  0  0  0  0  0  0  0  0  0
    0.7547   -2.1131   -3.4166 H   0  0  0  0  0  0  0  0  0  0  0  0
    0.7547   -4.0803   -1.0064 H   0  0  0  0  0  0  0  0  0  0  0  0
    0.7547   -1.1757    0.8868 H   0  0  0  0  0  0  0  0  0  0  0  0
    0.7547    0.0411    1.3684 C   0  0  0  0  0  3  0  0  0  0  0  0
   -0.6648    0.5457    1.5681 C   0  0  0  0  0  0  0  0  0  0  0  0
   -1.3342    1.5114    0.1906 S   0  0  0  0  0  0  0  0  0  0  0  0
   -0.1790    2.9028    0.1032 C   0  0  0  0  0  0  0  0  0  0  0  0
   -0.1052    3.7558    1.3588 C   0  0  0  0  0  0  0  0  0  0  0  0
    1.4680    0.8654    1.3168 H   0  0  0  0  0  0  0  0  0  0  0  0
    1.0510   -0.5966    2.2042 H   0  0  0  0  0  0  0  0  0  0  0  0
   -0.7475    1.1229    2.4905 H   0  0  0  0  0  0  0  0  0  0  0  0
   -1.3581   -0.2922    1.6585 H   0  0  0  0  0  0  0  0  0  0  0  0
    0.8097    2.5370   -0.1785 H   0  0  0  0  0  0  0  0  0  0  0  0
   -0.5471    3.4930   -0.7377 H   0  0  0  0  0  0  0  0  0  0  0  0
    0.2999    3.1925    2.2011 H   0  0  0  0  0  0  0  0  0  0  0  0
    0.5487    4.6152    1.1948 H   0  0  0  0  0  0  0  0  0  0  0  0
   -1.0935    4.1211    1.6401 H   0  0  0  0  0  0  0  0  0  0  0  0
  1  2  1  0
  1  5  1  0
  1  6  1  0
  1  7  1  0
  2  3  2  3
  2  8  1  0
  3  4  1  0
  4  9  1  0
 10 11  1  0
 10 15  1  0
 10 16  1  0
 11 12  1  0
 11 17  1  0
 11 18  1  0
 12 13  1  0
 13 14  1  0
 13 19  1  0
 13 20  1  0
 14 21  1  0
 14 22  1  0
 14 23  1  0
M  RAD  1  10   2
M  END
>  <reaction>  (12) 
rmg_rxn_48

>  <mol_properties>  (12) 
{"2": {"label": "*0", "atom_type": "N3d"}, "3": {"label": "*1", "atom_type": "O2s"}, "8": {"label": "*2", "atom_type": "H0"}, "9": {"label": "*3", "atom_type": "Cs"}, "10": {"label": "*4", "atom_type": "Cs"}}

>  <type>  (12) 
unop_8

>  <geom_source>  (12) 
Heuristics

$$$$

     RDKit          3D

 23 21  0  0  0  0  0  0  0  0999 V2000
   -1.2097   -2.3566   -2.9288 C   0  0  0  0  0  0  0  0  0  0  0  0
   -1.2097   -2.3566   -1.4402 C   0  0  0  0  0  0  0  0  0  0  0  0
   -1.2097   -1.2646   -0.8034 N   0  0  0  0  0  0  0  0  0  0  0  0
   -1.2097   -1.4692    0.5698 O   0  0  0  0  0  0  0  0  0  0  0  0
   -0.3303   -2.8805   -3.3106 H   0  0  0  0  0  0  0  0  0  0  0  0
   -2.0891   -2.8805   -3.3106 H   0  0  0  0  0  0  0  0  0  0  0  0
   -1.2097   -1.3369   -3.3103 H   0  0  0  0  0  0  0  0  0  0  0  0
   -1.2097   -3.3041   -0.9000 H   0  0  0  0  0  0  0  0  0  0  0  0
   -1.2097   -0.3996    0.9932 H   0  0  0  0  0  0  0  0  0  0  0  0
   -1.2097    0.8173    1.4748 C   0  0  0  0  0  3  0  0  0  0  0  0
   -0.5000    1.7743    0.5314 C   0  0  0  0  0  0  0  0  0  0  0  0
    0.9473    1.0854   -0.3107 S   0  0  0  0  0  0  0  0  0  0  0  0
    2.0272    0.6546    1.0774 C   0  0  0  0  0  0  0  0  0  0  0  0
    2.4362    1.8228    1.9592 C   0  0  0  0  0  0  0  0  0  0  0  0
   -0.5762    0.5478    2.3215 H   0  0  0  0  0  0  0  0  0  0  0  0
   -2.1131    1.2818    1.8763 H   0  0  0  0  0  0  0  0  0  0  0  0
   -0.2167    2.6928    1.0479 H   0  0  0  0  0  0  0  0  0  0  0  0
   -1.1618    2.0647   -0.2862 H   0  0  0  0  0  0  0  0  0  0  0  0
    1.5615   -0.1358    1.6683 H   0  0  0  0  0  0  0  0  0  0  0  0
    2.9028    0.2141    0.5977 H   0  0  0  0  0  0  0  0  0  0  0  0
    1.5774    2.2504    2.4793 H   0  0  0  0  0  0  0  0  0  0  0  0
    3.1482    1.4927    2.7189 H   0  0  0  0  0  0  0  0  0  0  0  0
    2.9014    2.6126    1.3683 H   0  0  0  0  0  0  0  0  0  0  0  0
  1  2  1  0
  1  5  1  0
  1  6  1  0
  1  7  1  0
  2  3  2  3
  2  8  1  0
  3  4  1  0
  4  9  1  0
 10 11  1  0
 10 15  1  0
 10 16  1  0
 11 12  1  0
 11 17  1  0
 11 18  1  0
 12 13  1  0
 13 14  1  0
 13 19  1  0
 13 20  1  0
 14 21  1  0
 14 22  1  0
 14 23  1  0
M  RAD  1  10   2
M  END
>  <reaction>  (13) 
rmg_rxn_48

>  <mol_properties>  (13) 
{"2": {"label": "*0", "atom_type": "N3d"}, "3": {"label": "*1", "atom_type": "O2s"}, "8": {"label": "*2", "atom_type": "H0"}, "9": {"label": "*3", "atom_type": "Cs"}, "10": {"label": "*4", "atom_type": "Cs"}}

>  <type>  (13) 
unop_9

>  <geom_source>  (13) 
Heuristics

$$$$

     RDKit          3D

 23 21  0  0  0  0  0  0  0  0999 V2000
    0.3058   -3.1793   -2.6744 C   0  0  0  0  0  0  0  0  0  0  0  0
    0.3058   -3.1793   -1.1857 C   0  0  0  0  0  0  0  0  0  0  0  0
    0.3058   -2.0872   -0.5489 N   0  0  0  0  0  0  0  0  0  0  0  0
    0.3058   -2.2919    0.8243 O   0  0  0  0  0  0  0  0  0  0  0  0
    1.1852   -3.7031   -3.0562 H   0  0  0  0  0  0  0  0  0  0  0  0
   -0.5736   -3.7031   -3.0562 H   0  0  0  0  0  0  0  0  0  0  0  0
    0.3058   -2.1596   -3.0558 H   0  0  0  0  0  0  0  0  0  0  0  0
    0.3058   -4.1268   -0.6456 H   0  0  0  0  0  0  0  0  0  0  0  0
    0.3058   -1.2222    1.2476 H   0  0  0  0  0  0  0  0  0  0  0  0
    0.3058   -0.0054    1.7292 C   0  0  0  0  0  3  0  0  0  0  0  0
   -0.9236    0.7604    1.2690 C   0  0  0  0  0  0  0  0  0  0  0  0
   -0.7509    1.5956   -0.3282 S   0  0  0  0  0  0  0  0  0  0  0  0
    0.6199    2.7365   -0.0159 C   0  0  0  0  0  0  0  0  0  0  0  0
    0.3712    3.7524    1.0866 C   0  0  0  0  0  0  0  0  0  0  0  0
    1.1435    0.6655    1.9267 H   0  0  0  0  0  0  0  0  0  0  0  0
    0.0919   -0.5437    2.6552 H   0  0  0  0  0  0  0  0  0  0  0  0
   -1.2389    1.4822    2.0242 H   0  0  0  0  0  0  0  0  0  0  0  0
   -1.7621    0.0790    1.1160 H   0  0  0  0  0  0  0  0  0  0  0  0
    1.5302    2.1665    0.1771 H   0  0  0  0  0  0  0  0  0  0  0  0
    0.7615    3.2401   -0.9736 H   0  0  0  0  0  0  0  0  0  0  0  0
    0.2678    3.2689    2.0595 H   0  0  0  0  0  0  0  0  0  0  0  0
    1.2090    4.4499    1.1549 H   0  0  0  0  0  0  0  0  0  0  0  0
   -0.5387    4.3218    0.8935 H   0  0  0  0  0  0  0  0  0  0  0  0
  1  2  1  0
  1  5  1  0
  1  6  1  0
  1  7  1  0
  2  3  2  3
  2  8  1  0
  3  4  1  0
  4  9  1  0
 10 11  1  0
 10 15  1  0
 10 16  1  0
 11 12  1  0
 11 17  1  0
 11 18  1  0
 12 13  1  0
 13 14  1  0
 13 19  1  0
 13 20  1  0
 14 21  1  0
 14 22  1  0
 14 23  1  0
M  RAD  1  10   2
M  END
>  <reaction>  (14) 
rmg_rxn_48

>  <mol_properties>  (14) 
{"2": {"label": "*0", "atom_type": "N3d"}, "3": {"label": "*1", "atom_type": "O2s"}, "8": {"label": "*2", "atom_type": "H0"}, "9": {"label": "*3", "atom_type": "Cs"}, "10": {"label": "*4", "atom_type": "Cs"}}

>  <type>  (14) 
unop_10

>  <geom_source>  (14) 
Heuristics

$$$$

     RDKit          3D

 23 21  0  0  0  0  0  0  0  0999 V2000
    0.0765   -1.5652   -4.5712 C   0  0  0  0  0  0  0  0  0  0  0  0
    0.0765   -1.5652   -3.0825 C   0  0  0  0  0  0  0  0  0  0  0  0
    0.0765   -0.4731   -2.4458 N   0  0  0  0  0  0  0  0  0  0  0  0
    0.0765   -0.6778   -1.0726 O   0  0  0  0  0  0  0  0  0  0  0  0
    0.9559   -2.0890   -4.9530 H   0  0  0  0  0  0  0  0  0  0  0  0
   -0.8029   -2.0890   -4.9530 H   0  0  0  0  0  0  0  0  0  0  0  0
    0.0765   -0.5455   -4.9526 H   0  0  0  0  0  0  0  0  0  0  0  0
    0.0765   -2.5127   -2.5424 H   0  0  0  0  0  0  0  0  0  0  0  0
    0.0765    0.3919   -0.6492 H   0  0  0  0  0  0  0  0  0  0  0  0
    0.0765    1.6087   -0.1676 C   0  0  0  0  0  3  0  0  0  0  0  0
    0.7863    1.6609    1.1752 C   0  0  0  0  0  0  0  0  0  0  0  0
    0.7735    0.1091    2.1079 S   0  0  0  0  0  0  0  0  0  0  0  0
   -0.9983   -0.1794    2.3442 C   0  0  0  0  0  0  0  0  0  0  0  0
   -1.7282    0.9067    3.1170 C   0  0  0  0  0  0  0  0  0  0  0  0
   -0.9948    1.4391   -0.0468 H   0  0  0  0  0  0  0  0  0  0  0  0
    0.2005    2.5552   -0.6985 H   0  0  0  0  0  0  0  0  0  0  0  0
    0.3849    2.4622    1.7977 H   0  0  0  0  0  0  0  0  0  0  0  0
    1.8480    1.8718    1.0373 H   0  0  0  0  0  0  0  0  0  0  0  0
   -1.4704   -0.3535    1.3759 H   0  0  0  0  0  0  0  0  0  0  0  0
   -1.0369   -1.1252    2.8872 H   0  0  0  0  0  0  0  0  0  0  0  0
   -1.7350    1.8506    2.5694 H   0  0  0  0  0  0  0  0  0  0  0  0
   -2.7681    0.6180    3.2852 H   0  0  0  0  0  0  0  0  0  0  0  0
   -1.2560    1.0804    4.0846 H   0  0  0  0  0  0  0  0  0  0  0  0
  1  2  1  0
  1  5  1  0
  1  6  1  0
  1  7  1  0
  2  3  2  3
  2  8  1  0
  3  4  1  0
  4  9  1  0
 10 11  1  0
 10 15  1  0
 10 16  1  0
 11 12  1  0
 11 17  1  0
 11 18  1  0
 12 13  1  0
 13 14  1  0
 13 19  1  0
 13 20  1  0
 14 21  1  0
 14 22  1  0
 14 23  1  0
M  RAD  1  10   2
M  END
>  <reaction>  (15) 
rmg_rxn_48

>  <mol_properties>  (15) 
{"2": {"label": "*0", "atom_type": "N3d"}, "3": {"label": "*1", "atom_type": "O2s"}, "8": {"label": "*2", "atom_type": "H0"}, "9": {"label": "*3", "atom_type": "Cs"}, "10": {"label": "*4", "atom_type": "Cs"}}

>  <type>  (15) 
unop_11

>  <geom_source>  (15) 
Heuristics

$$$$

     RDKit          3D

 23 21  0  0  0  0  0  0  0  0999 V2000
   -0.8528   -2.7472   -2.6068 C   0  0  0  0  0  0  0  0  0  0  0  0
   -0.8528   -2.7472   -1.1181 C   0  0  0  0  0  0  0  0  0  0  0  0
   -0.8528   -1.6551   -0.4813 N   0  0  0  0  0  0  0  0  0  0  0  0
   -0.8528   -1.8598    0.8919 O   0  0  0  0  0  0  0  0  0  0  0  0
    0.0267   -3.2710   -2.9886 H   0  0  0  0  0  0  0  0  0  0  0  0
   -1.7322   -3.2710   -2.9886 H   0  0  0  0  0  0  0  0  0  0  0  0
   -0.8528   -1.7275   -2.9882 H   0  0  0  0  0  0  0  0  0  0  0  0
   -0.8528   -3.6947   -0.5780 H   0  0  0  0  0  0  0  0  0  0  0  0
   -0.8528   -0.7901    1.3152 H   0  0  0  0  0  0  0  0  0  0  0  0
   -0.8528    0.4267    1.7968 C   0  0  0  0  0  3  0  0  0  0  0  0
   -0.8528    1.4537    0.6766 C   0  0  0  0  0  0  0  0  0  0  0  0
    0.4936    1.2789   -0.5213 S   0  0  0  0  0  0  0  0  0  0  0  0
    1.9602    1.4849    0.5203 C   0  0  0  0  0  0  0  0  0  0  0  0
    2.0586    2.8235    1.2330 C   0  0  0  0  0  0  0  0  0  0  0  0
    0.0225    0.5365    2.4393 H   0  0  0  0  0  0  0  0  0  0  0  0
   -1.7377    0.5513    2.4248 H   0  0  0  0  0  0  0  0  0  0  0  0
   -0.8526    2.4685    1.0778 H   0  0  0  0  0  0  0  0  0  0  0  0
   -1.7543    1.3558    0.0696 H   0  0  0  0  0  0  0  0  0  0  0  0
    2.0198    0.6591    1.2312 H   0  0  0  0  0  0  0  0  0  0  0  0
    2.7918    1.3613   -0.1754 H   0  0  0  0  0  0  0  0  0  0  0  0
    1.2570    2.9471    1.9632 H   0  0  0  0  0  0  0  0  0  0  0  0
    3.0062    2.8972    1.7712 H   0  0  0  0  0  0  0  0  0  0  0  0
    1.9989    3.6484    0.5222 H   0  0  0  0  0  0  0  0  0  0  0  0
  1  2  1  0
  1  5  1  0
  1  6  1  0
  1  7  1  0
  2  3  2  3
  2  8  1  0
  3  4  1  0
  4  9  1  0
 10 11  1  0
 10 15  1  0
 10 16  1  0
 11 12  1  0
 11 17  1  0
 11 18  1  0
 12 13  1  0
 13 14  1  0
 13 19  1  0
 13 20  1  0
 14 21  1  0
 14 22  1  0
 14 23  1  0
M  RAD  1  10   2
M  END
>  <reaction>  (16) 
rmg_rxn_48

>  <mol_properties>  (16) 
{"2": {"label": "*0", "atom_type": "N3d"}, "3": {"label": "*1", "atom_type": "O2s"}, "8": {"label": "*2", "atom_type": "H0"}, "9": {"label": "*3", "atom_type": "Cs"}, "10": {"label": "*4", "atom_type": "Cs"}}

>  <type>  (16) 
unop_12

>  <geom_source>  (16) 
Heuristics

$$$$

     RDKit          3D

 23 21  0  0  0  0  0  0  0  0999 V2000
   -1.7417   -0.3724    0.8054 S   0  0  0  0  0  0  0  0  0  0  0  0
    3.0444   -1.0275   -0.7734 O   0  0  0  0  0  1  0  0  0  0  0  0
    4.1243   -0.3952   -0.1999 N   0  0  0  0  0  2  0  0  0  0  0  0
   -0.4297   -0.7872   -0.3922 C   0  0  0  0  0  0  0  0  0  0  0  0
   -3.0689   -0.3092   -0.4445 C   0  0  0  0  0  0  0  0  0  0  0  0
    0.9031   -0.9285    0.3260 C   0  0  0  0  0  0  0  0  0  0  0  0
   -4.3933    0.0309    0.2218 C   0  0  0  0  0  0  0  0  0  0  0  0
    2.7486    1.5673    0.2646 C   0  0  0  0  0  0  0  0  0  0  0  0
    4.0333    0.8009    0.2912 C   0  0  0  0  0  3  0  0  0  0  0  0
   -0.6739   -1.7452   -0.8986 H   0  0  0  0  0  0  0  0  0  0  0  0
   -0.3496    0.0173   -1.1539 H   0  0  0  0  0  0  0  0  0  0  0  0
   -3.1558   -1.2958   -0.9478 H   0  0  0  0  0  0  0  0  0  0  0  0
   -2.8315    0.4669   -1.2031 H   0  0  0  0  0  0  0  0  0  0  0  0
    0.8458   -1.7388    1.0834 H   0  0  0  0  0  0  0  0  0  0  0  0
    1.1704    0.0257    0.8279 H   0  0  0  0  0  0  0  0  0  0  0  0
    1.7609   -1.2015   -0.4697 H   0  0  0  0  0  0  0  0  0  0  0  0
   -4.6521   -0.7428    0.9755 H   0  0  0  0  0  0  0  0  0  0  0  0
   -5.1971    0.0680   -0.5434 H   0  0  0  0  0  0  0  0  0  0  0  0
   -4.3275    1.0214    0.7200 H   0  0  0  0  0  0  0  0  0  0  0  0
    2.4167    1.7118   -0.7849 H   0  0  0  0  0  0  0  0  0  0  0  0
    2.8957    2.5620    0.7350 H   0  0  0  0  0  0  0  0  0  0  0  0
    1.9677    1.0151    0.8285 H   0  0  0  0  0  0  0  0  0  0  0  0
    4.9102    1.2567    0.7321 H   0  0  0  0  0  0  0  0  0  0  0  0
  1  4  1  0
  1  5  1  0
  2  3  1  0
  3  9  1  0
  4 11  1  0
  4  6  1  0
  4 10  1  0
  5 13  1  0
  5  7  1  0
  5 12  1  0
  6 14  1  0
  6 16  1  0
  6 15  1  0
  7 18  1  0
  7 19  1  0
  7 17  1  0
  8  9  1  0
  8 22  1  0
  8 21  1  0
  8 20  1  0
  9 23  1  0
M  RAD  3   2   2   3   2   9   2
M  END
>  <reaction>  (17) 
rmg_rxn_48

>  <mol_properties>  (17) 
{"2": {"label": "*0", "atom_type": "N3d"}, "3": {"label": "*1", "atom_type": "O2s"}, "8": {"label": "*2", "atom_type": "H0"}, "9": {"label": "*3", "atom_type": "Cs"}, "10": {"label": "*4", "atom_type": "Cs"}}

>  <type>  (17) 
unop_13

>  <geom_source>  (17) 
AutoTST

$$$$

     RDKit          3D

 23 21  0  0  0  0  0  0  0  0999 V2000
   -0.2889   -3.0544   -2.5092 C   0  0  0  0  0  0  0  0  0  0  0  0
   -0.2889   -3.0544   -1.0205 C   0  0  0  0  0  0  0  0  0  0  0  0
   -0.2889   -1.9623   -0.3837 N   0  0  0  0  0  0  0  0  0  0  0  0
   -0.2889   -2.1670    0.9895 O   0  0  0  0  0  0  0  0  0  0  0  0
    0.5906   -3.5782   -2.8910 H   0  0  0  0  0  0  0  0  0  0  0  0
   -1.1683   -3.5782   -2.8910 H   0  0  0  0  0  0  0  0  0  0  0  0
   -0.2889   -2.0347   -2.8906 H   0  0  0  0  0  0  0  0  0  0  0  0
   -0.2889   -4.0019   -0.4804 H   0  0  0  0  0  0  0  0  0  0  0  0
   -0.2889   -1.0974    1.4128 H   0  0  0  0  0  0  0  0  0  0  0  0
   -0.2889    0.1195    1.8944 C   0  0  0  0  0  3  0  0  0  0  0  0
   -0.9986    1.0765    0.9510 C   0  0  0  0  0  0  0  0  0  0  0  0
   -0.0799    1.4893   -0.5536 S   0  0  0  0  0  0  0  0  0  0  0  0
    1.4176    2.2586    0.1127 C   0  0  0  0  0  0  0  0  0  0  0  0
    1.1815    3.5073    0.9462 C   0  0  0  0  0  0  0  0  0  0  0  0
    0.6158    0.5662    2.3104 H   0  0  0  0  0  0  0  0  0  0  0  0
   -0.9407   -0.1402    2.7315 H   0  0  0  0  0  0  0  0  0  0  0  0
   -1.2816    1.9951    1.4675 H   0  0  0  0  0  0  0  0  0  0  0  0
   -1.9211    0.6292    0.5771 H   0  0  0  0  0  0  0  0  0  0  0  0
    1.9880    1.5169    0.6743 H   0  0  0  0  0  0  0  0  0  0  0  0
    2.0034    2.4985   -0.7761 H   0  0  0  0  0  0  0  0  0  0  0  0
    0.6316    3.2790    1.8608 H   0  0  0  0  0  0  0  0  0  0  0  0
    2.1348    3.9525    1.2395 H   0  0  0  0  0  0  0  0  0  0  0  0
    0.6113    4.2482    0.3846 H   0  0  0  0  0  0  0  0  0  0  0  0
  1  2  1  0
  1  5  1  0
  1  6  1  0
  1  7  1  0
  2  3  2  3
  2  8  1  0
  3  4  1  0
  4  9  1  0
 10 11  1  0
 10 15  1  0
 10 16  1  0
 11 12  1  0
 11 17  1  0
 11 18  1  0
 12 13  1  0
 13 14  1  0
 13 19  1  0
 13 20  1  0
 14 21  1  0
 14 22  1  0
 14 23  1  0
M  RAD  1  10   2
M  END
>  <reaction>  (18) 
rmg_rxn_48

>  <mol_properties>  (18) 
{"2": {"label": "*0", "atom_type": "N3d"}, "3": {"label": "*1", "atom_type": "O2s"}, "8": {"label": "*2", "atom_type": "H0"}, "9": {"label": "*3", "atom_type": "Cs"}, "10": {"label": "*4", "atom_type": "Cs"}}

>  <type>  (18) 
unop_14

>  <geom_source>  (18) 
gaussian_log

$$$$
