
     RDKit          3D

 14 13  0  0  0  0  0  0  0  0999 V2000
    1.8106   -0.5953    0.5577 C   0  0  0  0  0  0  0  0  0  0  0  0
    0.5197    0.2064    0.6554 C   0  0  0  0  0  0  0  0  0  0  0  0
   -0.5206   -0.2080   -0.3788 C   0  0  0  0  0  0  0  0  0  0  0  0
   -1.8114    0.5937   -0.2812 C   0  0  0  0  0  0  0  0  0  0  0  0
    2.2725   -0.4752   -0.4251 H   0  0  0  0  0  0  0  0  0  0  0  0
    1.6214   -1.6612    0.7052 H   0  0  0  0  0  0  0  0  0  0  0  0
    2.5364   -0.2784    1.3084 H   0  0  0  0  0  0  0  0  0  0  0  0
    0.0930    0.0950    1.6574 H   0  0  0  0  0  0  0  0  0  0  0  0
    0.7393    1.2723    0.5354 H   0  0  0  0  0  0  0  0  0  0  0  0
   -0.7402   -1.2739   -0.2588 H   0  0  0  0  0  0  0  0  0  0  0  0
   -0.0938   -0.0965   -1.3808 H   0  0  0  0  0  0  0  0  0  0  0  0
   -1.6222    1.6596   -0.4287 H   0  0  0  0  0  0  0  0  0  0  0  0
   -2.2734    0.4736    0.7017 H   0  0  0  0  0  0  0  0  0  0  0  0
   -2.5373    0.2768   -1.0318 H   0  0  0  0  0  0  0  0  0  0  0  0
  1  2  1  0
  1  5  1  0
  1  6  1  0
  1  7  1  0
  2  3  1  0
  2  8  1  0
  2  9  1  0
  3  4  1  0
  3 10  1  0
  3 11  1  0
  4 12  1  0
  4 13  1  0
  4 14  1  0
M  END
>  <reaction>  (1) 
rmg_rxn_344

>  <mol_properties>  (1) 
{"3": {"label": "donator", "atom_type": "Cs"}, "12": {"label": "d_hydrogen", "atom_type": "H0"}}

>  <type>  (1) 
r1h

$$$$

     RDKit          3D

  8  7  0  0  0  0  0  0  0  0999 V2000
    1.3778   -0.6812    0.2772 C   0  0  0  0  0  3  0  0  0  0  0  0
    0.4890    0.2108   -0.0590 C   0  0  0  0  0  0  0  0  0  0  0  0
   -1.0010    0.0286   -0.0323 C   0  0  0  0  0  0  0  0  0  0  0  0
    2.4535   -0.7507    0.3287 H   0  0  0  0  0  0  0  0  0  0  0  0
    0.8447    1.1899   -0.3945 H   0  0  0  0  0  0  0  0  0  0  0  0
   -1.4635    0.7638    0.6301 H   0  0  0  0  0  0  0  0  0  0  0  0
   -1.2709   -0.9687    0.3117 H   0  0  0  0  0  0  0  0  0  0  0  0
   -1.4218    0.1801   -1.0289 H   0  0  0  0  0  0  0  0  0  0  0  0
  1  2  2  3
  1  4  1  0
  2  3  1  0
  2  5  1  0
  3  6  1  0
  3  7  1  0
  3  8  1  0
M  RAD  1   1   2
M  END
>  <reaction>  (2) 
rmg_rxn_344

>  <mol_properties>  (2) 
{"0": {"label": "acceptor", "atom_type": "Cd"}}

>  <type>  (2) 
r2

$$$$

     RDKit          3D

  9  8  0  0  0  0  0  0  0  0999 V2000
    1.1303   -0.2933   -0.7510 C   0  0  0  0  0  0  0  0  0  0  0  0
    0.2866    0.4560   -0.0588 C   0  0  0  0  0  0  0  0  0  0  0  0
   -0.9719   -0.0331    0.5823 C   0  0  0  0  0  0  0  0  0  0  0  0
    2.0274    0.1230   -1.1916 H   0  0  0  0  0  0  0  0  0  0  0  0
    0.9532   -1.3530   -0.9023 H   0  0  0  0  0  0  0  0  0  0  0  0
    0.5065    1.5132    0.0659 H   0  0  0  0  0  0  0  0  0  0  0  0
   -0.9526    0.1426    1.6610 H   0  0  0  0  0  0  0  0  0  0  0  0
   -1.1182   -1.1002    0.4106 H   0  0  0  0  0  0  0  0  0  0  0  0
   -1.8412    0.5010    0.1901 H   0  0  0  0  0  0  0  0  0  0  0  0
  1  2  2  3
  1  4  1  0
  1  5  1  0
  2  3  1  0
  2  6  1  0
  3  7  1  0
  3  8  1  0
  3  9  1  0
M  END
>  <reaction>  (3) 
rmg_rxn_344

>  <mol_properties>  (3) 
{"0": {"label": "acceptor", "atom_type": "Cd"}, "8": {"label": "a_hydrogen", "atom_type": "H0"}}

>  <type>  (3) 
r2h

$$$$

     RDKit          3D

 22 20  0  0  0  0  0  0  0  0999 V2000
   -0.8608    0.3415    1.6321 C   0  0  0  0  0  3  0  0  0  0  0  0
   -0.7556   -0.9552    1.8240 C   0  0  0  0  0  0  0  0  0  0  0  0
   -1.7740   -1.8243    2.5027 C   0  0  0  0  0  0  0  0  0  0  0  0
   -1.6794    0.9906    1.9252 H   0  0  0  0  0  0  0  0  0  0  0  0
    0.1399   -1.4625    1.4668 H   0  0  0  0  0  0  0  0  0  0  0  0
   -2.1197   -2.6113    1.8277 H   0  0  0  0  0  0  0  0  0  0  0  0
   -2.6383   -1.2456    2.8291 H   0  0  0  0  0  0  0  0  0  0  0  0
   -1.3387   -2.3177    3.3753 H   0  0  0  0  0  0  0  0  0  0  0  0
    0.6149   -0.1600   -3.1082 C   0  0  0  0  0  0  0  0  0  0  0  0
    0.8662   -0.0661   -1.6097 C   0  0  0  0  0  0  0  0  0  0  0  0
    0.9516    1.3722   -1.1102 C   0  0  0  0  0  0  0  0  0  0  0  0
    1.2139    1.4753    0.3720 C   0  0  0  0  0  0  0  0  0  0  0  0
    1.4135    0.3277   -3.6724 H   0  0  0  0  0  0  0  0  0  0  0  0
   -0.3252    0.3272   -3.3777 H   0  0  0  0  0  0  0  0  0  0  0  0
    0.5585   -1.1983   -3.4392 H   0  0  0  0  0  0  0  0  0  0  0  0
    0.0687   -0.5821   -1.0679 H   0  0  0  0  0  0  0  0  0  0  0  0
    1.7966   -0.5862   -1.3591 H   0  0  0  0  0  0  0  0  0  0  0  0
    0.0209    1.8954   -1.3544 H   0  0  0  0  0  0  0  0  0  0  0  0
    1.7438    1.8960   -1.6602 H   0  0  0  0  0  0  0  0  0  0  0  0
    2.0665    0.8881    0.7155 H   0  0  0  0  0  0  0  0  0  0  0  0
    0.2147    0.9691    0.9893 H   0  0  0  0  0  0  0  0  0  0  0  0
    1.2658    2.4950    0.7517 H   0  0  0  0  0  0  0  0  0  0  0  0
  1  2  2  3
  1  4  1  0
  2  3  1  0
  2  5  1  0
  3  6  1  0
  3  7  1  0
  3  8  1  0
  9 10  1  0
  9 13  1  0
  9 14  1  0
  9 15  1  0
 10 11  1  0
 10 16  1  0
 10 17  1  0
 11 12  1  0
 11 18  1  0
 11 19  1  0
 12 20  1  0
 12 21  1  0
 12 22  1  0
M  RAD  1   1   2
M  END
>  <reaction>  (4) 
rmg_rxn_344

>  <mol_properties>  (4) 
{"0": {"label": "*3", "atom_type": "Cd"}, "1": {"label": "*4", "atom_type": "Cd"}, "10": {"label": "*0", "atom_type": "Cs"}, "11": {"label": "*1", "atom_type": "Cs"}, "20": {"label": "*2", "atom_type": "H0"}}

>  <type>  (4) 
ts

$$$$

     RDKit          3D

 22 20  0  0  0  0  0  0  0  0999 V2000
   -1.1406    0.0316    1.1941 C   0  0  0  0  0  0  0  0  0  0  0  0
   -1.0332   -1.0363    1.9688 C   0  0  0  0  0  0  0  0  0  0  0  0
   -1.7999   -1.2641    3.2316 C   0  0  0  0  0  0  0  0  0  0  0  0
   -1.8201    0.8416    1.4378 H   0  0  0  0  0  0  0  0  0  0  0  0
   -0.3386   -1.8223    1.6835 H   0  0  0  0  0  0  0  0  0  0  0  0
   -2.3946   -2.1788    3.1658 H   0  0  0  0  0  0  0  0  0  0  0  0
   -2.4718   -0.4320    3.4456 H   0  0  0  0  0  0  0  0  0  0  0  0
   -1.1228   -1.3871    4.0808 H   0  0  0  0  0  0  0  0  0  0  0  0
    0.9655   -0.1442   -3.3837 C   0  0  0  0  0  0  0  0  0  0  0  0
    0.9655   -0.1442   -1.8610 C   0  0  0  0  0  0  0  0  0  0  0  0
    0.9655    1.2581   -1.2636 C   0  0  0  0  0  0  0  0  0  0  0  0
    0.9655    1.2581    0.2591 C   0  0  0  0  0  3  0  0  0  0  0  0
    1.8470    0.3691   -3.7750 H   0  0  0  0  0  0  0  0  0  0  0  0
    0.0840    0.3691   -3.7750 H   0  0  0  0  0  0  0  0  0  0  0  0
    0.9655   -1.1593   -3.7840 H   0  0  0  0  0  0  0  0  0  0  0  0
    0.0904   -0.6901   -1.4937 H   0  0  0  0  0  0  0  0  0  0  0  0
    1.8405   -0.6901   -1.4937 H   0  0  0  0  0  0  0  0  0  0  0  0
    0.0904    1.8040   -1.6309 H   0  0  0  0  0  0  0  0  0  0  0  0
    1.8405    1.8040   -1.6309 H   0  0  0  0  0  0  0  0  0  0  0  0
    1.8470    0.7448    0.6505 H   0  0  0  0  0  0  0  0  0  0  0  0
   -0.0924    0.6421    0.7287 H   0  0  0  0  0  0  0  0  0  0  0  0
    0.9655    2.2732    0.6595 H   0  0  0  0  0  0  0  0  0  0  0  0
  1  2  2  3
  1  4  1  0
  1 21  1  0
  2  3  1  0
  2  5  1  0
  3  6  1  0
  3  7  1  0
  3  8  1  0
  9 10  1  0
  9 13  1  0
  9 14  1  0
  9 15  1  0
 10 11  1  0
 10 16  1  0
 10 17  1  0
 11 12  1  0
 11 18  1  0
 11 19  1  0
 12 20  1  0
 12 22  1  0
M  RAD  1  12   2
M  END
>  <reaction>  (5) 
rmg_rxn_344

>  <mol_properties>  (5) 
{"0": {"label": "*3", "atom_type": "Cd"}, "1": {"label": "*4", "atom_type": "Cd"}, "10": {"label": "*0", "atom_type": "Cs"}, "11": {"label": "*1", "atom_type": "Cs"}, "20": {"label": "*2", "atom_type": "H0"}}

>  <type>  (5) 
unop_1

>  <geom_source>  (5) 
Heuristics

$$$$

     RDKit          3D

 22 20  0  0  0  0  0  0  0  0999 V2000
   -0.9185    0.1316    1.7083 C   0  0  0  0  0  0  0  0  0  0  0  0
   -1.4958   -0.8573    1.0442 C   0  0  0  0  0  0  0  0  0  0  0  0
   -2.4411   -1.8535    1.6343 C   0  0  0  0  0  0  0  0  0  0  0  0
   -1.1033    0.2869    2.7660 H   0  0  0  0  0  0  0  0  0  0  0  0
   -1.2798   -0.9730   -0.0148 H   0  0  0  0  0  0  0  0  0  0  0  0
   -3.4086   -1.8196    1.1267 H   0  0  0  0  0  0  0  0  0  0  0  0
   -2.6037   -1.6681    2.6967 H   0  0  0  0  0  0  0  0  0  0  0  0
   -2.0576   -2.8704    1.5170 H   0  0  0  0  0  0  0  0  0  0  0  0
    1.1876   -0.0443   -2.8695 C   0  0  0  0  0  0  0  0  0  0  0  0
    1.1876   -0.0443   -1.3468 C   0  0  0  0  0  0  0  0  0  0  0  0
    1.1876    1.3581   -0.7495 C   0  0  0  0  0  0  0  0  0  0  0  0
    1.1876    1.3581    0.7732 C   0  0  0  0  0  3  0  0  0  0  0  0
    2.0692    0.4691   -3.2609 H   0  0  0  0  0  0  0  0  0  0  0  0
    0.3061    0.4691   -3.2609 H   0  0  0  0  0  0  0  0  0  0  0  0
    1.1876   -1.0594   -3.2699 H   0  0  0  0  0  0  0  0  0  0  0  0
    0.3126   -0.5901   -0.9795 H   0  0  0  0  0  0  0  0  0  0  0  0
    2.0627   -0.5901   -0.9795 H   0  0  0  0  0  0  0  0  0  0  0  0
    0.3126    1.9040   -1.1168 H   0  0  0  0  0  0  0  0  0  0  0  0
    2.0627    1.9040   -1.1168 H   0  0  0  0  0  0  0  0  0  0  0  0
    2.0692    0.8448    1.1646 H   0  0  0  0  0  0  0  0  0  0  0  0
    0.1298    0.7421    1.2429 H   0  0  0  0  0  0  0  0  0  0  0  0
    1.1876    2.3732    1.1736 H   0  0  0  0  0  0  0  0  0  0  0  0
  1  2  2  3
  1  4  1  0
  1 21  1  0
  2  3  1  0
  2  5  1  0
  3  6  1  0
  3  7  1  0
  3  8  1  0
  9 10  1  0
  9 13  1  0
  9 14  1  0
  9 15  1  0
 10 11  1  0
 10 16  1  0
 10 17  1  0
 11 12  1  0
 11 18  1  0
 11 19  1  0
 12 20  1  0
 12 22  1  0
M  RAD  1  12   2
M  END
>  <reaction>  (6) 
rmg_rxn_344

>  <mol_properties>  (6) 
{"0": {"label": "*3", "atom_type": "Cd"}, "1": {"label": "*4", "atom_type": "Cd"}, "10": {"label": "*0", "atom_type": "Cs"}, "11": {"label": "*1", "atom_type": "Cs"}, "20": {"label": "*2", "atom_type": "H0"}}

>  <type>  (6) 
unop_2

>  <geom_source>  (6) 
Heuristics

$$$$

     RDKit          3D

 22 20  0  0  0  0  0  0  0  0999 V2000
   -1.0614   -0.1202    1.1291 C   0  0  0  0  0  0  0  0  0  0  0  0
   -1.0339   -0.7569    2.2893 C   0  0  0  0  0  0  0  0  0  0  0  0
   -2.1563   -0.7971    3.2756 C   0  0  0  0  0  0  0  0  0  0  0  0
   -1.9367    0.4351    0.8088 H   0  0  0  0  0  0  0  0  0  0  0  0
   -0.1342   -1.3000    2.5672 H   0  0  0  0  0  0  0  0  0  0  0  0
   -2.4741   -1.8263    3.4613 H   0  0  0  0  0  0  0  0  0  0  0  0
   -3.0182   -0.2299    2.9221 H   0  0  0  0  0  0  0  0  0  0  0  0
   -1.8433   -0.3840    4.2380 H   0  0  0  0  0  0  0  0  0  0  0  0
    1.0447   -0.2961   -3.4487 C   0  0  0  0  0  0  0  0  0  0  0  0
    1.0447   -0.2961   -1.9260 C   0  0  0  0  0  0  0  0  0  0  0  0
    1.0447    1.1063   -1.3287 C   0  0  0  0  0  0  0  0  0  0  0  0
    1.0447    1.1063    0.1940 C   0  0  0  0  0  3  0  0  0  0  0  0
    1.9263    0.2172   -3.8401 H   0  0  0  0  0  0  0  0  0  0  0  0
    0.1632    0.2172   -3.8401 H   0  0  0  0  0  0  0  0  0  0  0  0
    1.0447   -1.3112   -3.8491 H   0  0  0  0  0  0  0  0  0  0  0  0
    0.1697   -0.8420   -1.5587 H   0  0  0  0  0  0  0  0  0  0  0  0
    1.9198   -0.8420   -1.5587 H   0  0  0  0  0  0  0  0  0  0  0  0
    0.1697    1.6522   -1.6960 H   0  0  0  0  0  0  0  0  0  0  0  0
    1.9198    1.6522   -1.6960 H   0  0  0  0  0  0  0  0  0  0  0  0
    1.9263    0.5929    0.5854 H   0  0  0  0  0  0  0  0  0  0  0  0
   -0.0131    0.4902    0.6637 H   0  0  0  0  0  0  0  0  0  0  0  0
    1.0447    2.1214    0.5944 H   0  0  0  0  0  0  0  0  0  0  0  0
  1  2  2  3
  1  4  1  0
  1 21  1  0
  2  3  1  0
  2  5  1  0
  3  6  1  0
  3  7  1  0
  3  8  1  0
  9 10  1  0
  9 13  1  0
  9 14  1  0
  9 15  1  0
 10 11  1  0
 10 16  1  0
 10 17  1  0
 11 12  1  0
 11 18  1  0
 11 19  1  0
 12 20  1  0
 12 22  1  0
M  RAD  1  12   2
M  END
>  <reaction>  (7) 
rmg_rxn_344

>  <mol_properties>  (7) 
{"0": {"label": "*3", "atom_type": "Cd"}, "1": {"label": "*4", "atom_type": "Cd"}, "10": {"label": "*0", "atom_type": "Cs"}, "11": {"label": "*1", "atom_type": "Cs"}, "20": {"label": "*2", "atom_type": "H0"}}

>  <type>  (7) 
unop_3

>  <geom_source>  (7) 
Heuristics

$$$$

     RDKit          3D

 22 20  0  0  0  0  0  0  0  0999 V2000
   -0.6984   -0.4067    1.5475 C   0  0  0  0  0  0  0  0  0  0  0  0
   -1.9234    0.0105    1.2690 C   0  0  0  0  0  0  0  0  0  0  0  0
   -3.1000   -0.1032    2.1838 C   0  0  0  0  0  0  0  0  0  0  0  0
   -0.4626   -0.8766    2.4966 H   0  0  0  0  0  0  0  0  0  0  0  0
   -2.1115    0.4755    0.3046 H   0  0  0  0  0  0  0  0  0  0  0  0
   -3.5181    0.8824    2.4039 H   0  0  0  0  0  0  0  0  0  0  0  0
   -2.8275   -0.5792    3.1265 H   0  0  0  0  0  0  0  0  0  0  0  0
   -3.8979   -0.6892    1.7202 H   0  0  0  0  0  0  0  0  0  0  0  0
    1.4077   -0.5826   -3.0303 C   0  0  0  0  0  0  0  0  0  0  0  0
    1.4077   -0.5826   -1.5076 C   0  0  0  0  0  0  0  0  0  0  0  0
    1.4077    0.8198   -0.9102 C   0  0  0  0  0  0  0  0  0  0  0  0
    1.4077    0.8198    0.6125 C   0  0  0  0  0  3  0  0  0  0  0  0
    2.2892   -0.0692   -3.4217 H   0  0  0  0  0  0  0  0  0  0  0  0
    0.5262   -0.0692   -3.4217 H   0  0  0  0  0  0  0  0  0  0  0  0
    1.4077   -1.5977   -3.4307 H   0  0  0  0  0  0  0  0  0  0  0  0
    0.5327   -1.1285   -1.1403 H   0  0  0  0  0  0  0  0  0  0  0  0
    2.2828   -1.1285   -1.1403 H   0  0  0  0  0  0  0  0  0  0  0  0
    0.5327    1.3657   -1.2775 H   0  0  0  0  0  0  0  0  0  0  0  0
    2.2828    1.3657   -1.2775 H   0  0  0  0  0  0  0  0  0  0  0  0
    2.2892    0.3065    1.0038 H   0  0  0  0  0  0  0  0  0  0  0  0
    0.3499    0.2038    1.0821 H   0  0  0  0  0  0  0  0  0  0  0  0
    1.4077    1.8349    1.0128 H   0  0  0  0  0  0  0  0  0  0  0  0
  1  2  2  3
  1  4  1  0
  1 21  1  0
  2  3  1  0
  2  5  1  0
  3  6  1  0
  3  7  1  0
  3  8  1  0
  9 10  1  0
  9 13  1  0
  9 14  1  0
  9 15  1  0
 10 11  1  0
 10 16  1  0
 10 17  1  0
 11 12  1  0
 11 18  1  0
 11 19  1  0
 12 20  1  0
 12 22  1  0
M  RAD  1  12   2
M  END
>  <reaction>  (8) 
rmg_rxn_344

>  <mol_properties>  (8) 
{"0": {"label": "*3", "atom_type": "Cd"}, "1": {"label": "*4", "atom_type": "Cd"}, "10": {"label": "*0", "atom_type": "Cs"}, "11": {"label": "*1", "atom_type": "Cs"}, "20": {"label": "*2", "atom_type": "H0"}}

>  <type>  (8) 
unop_4

>  <geom_source>  (8) 
Heuristics

$$$$

     RDKit          3D

 22 20  0  0  0  0  0  0  0  0999 V2000
   -0.9860   -0.1633    1.1471 C   0  0  0  0  0  0  0  0  0  0  0  0
   -1.1956   -0.2854    2.4485 C   0  0  0  0  0  0  0  0  0  0  0  0
   -2.3701   -0.9694    3.0705 C   0  0  0  0  0  0  0  0  0  0  0  0
   -1.6827   -0.5691    0.4211 H   0  0  0  0  0  0  0  0  0  0  0  0
   -0.4692    0.1376    3.1377 H   0  0  0  0  0  0  0  0  0  0  0  0
   -2.0460   -1.7963    3.7076 H   0  0  0  0  0  0  0  0  0  0  0  0
   -3.0485   -1.3644    2.3133 H   0  0  0  0  0  0  0  0  0  0  0  0
   -2.9294   -0.2794    3.7076 H   0  0  0  0  0  0  0  0  0  0  0  0
    1.1201   -0.3392   -3.4307 C   0  0  0  0  0  0  0  0  0  0  0  0
    1.1201   -0.3392   -1.9080 C   0  0  0  0  0  0  0  0  0  0  0  0
    1.1201    1.0632   -1.3106 C   0  0  0  0  0  0  0  0  0  0  0  0
    1.1201    1.0632    0.2121 C   0  0  0  0  0  3  0  0  0  0  0  0
    2.0016    0.1741   -3.8220 H   0  0  0  0  0  0  0  0  0  0  0  0
    0.2386    0.1741   -3.8220 H   0  0  0  0  0  0  0  0  0  0  0  0
    1.1201   -1.3543   -3.8310 H   0  0  0  0  0  0  0  0  0  0  0  0
    0.2451   -0.8851   -1.5407 H   0  0  0  0  0  0  0  0  0  0  0  0
    1.9951   -0.8851   -1.5407 H   0  0  0  0  0  0  0  0  0  0  0  0
    0.2451    1.6090   -1.6779 H   0  0  0  0  0  0  0  0  0  0  0  0
    1.9951    1.6090   -1.6779 H   0  0  0  0  0  0  0  0  0  0  0  0
    2.0016    0.5498    0.6035 H   0  0  0  0  0  0  0  0  0  0  0  0
    0.0623    0.4471    0.6817 H   0  0  0  0  0  0  0  0  0  0  0  0
    1.1201    2.0783    0.6125 H   0  0  0  0  0  0  0  0  0  0  0  0
  1  2  2  3
  1  4  1  0
  1 21  1  0
  2  3  1  0
  2  5  1  0
  3  6  1  0
  3  7  1  0
  3  8  1  0
  9 10  1  0
  9 13  1  0
  9 14  1  0
  9 15  1  0
 10 11  1  0
 10 16  1  0
 10 17  1  0
 11 12  1  0
 11 18  1  0
 11 19  1  0
 12 20  1  0
 12 22  1  0
M  RAD  1  12   2
M  END
>  <reaction>  (9) 
rmg_rxn_344

>  <mol_properties>  (9) 
{"0": {"label": "*3", "atom_type": "Cd"}, "1": {"label": "*4", "atom_type": "Cd"}, "10": {"label": "*0", "atom_type": "Cs"}, "11": {"label": "*1", "atom_type": "Cs"}, "20": {"label": "*2", "atom_type": "H0"}}

>  <type>  (9) 
unop_5

>  <geom_source>  (9) 
Heuristics

$$$$

     RDKit          3D

 22 20  0  0  0  0  0  0  0  0999 V2000
   -0.7761   -0.4581    1.3526 C   0  0  0  0  0  0  0  0  0  0  0  0
   -1.9026    0.1914    1.6007 C   0  0  0  0  0  0  0  0  0  0  0  0
   -2.7662   -0.0121    2.8037 C   0  0  0  0  0  0  0  0  0  0  0  0
   -0.3939   -1.2096    2.0355 H   0  0  0  0  0  0  0  0  0  0  0  0
   -2.2458    0.9358    0.8869 H   0  0  0  0  0  0  0  0  0  0  0  0
   -2.8709    0.9176    3.3689 H   0  0  0  0  0  0  0  0  0  0  0  0
   -2.3529   -0.7728    3.4671 H   0  0  0  0  0  0  0  0  0  0  0  0
   -3.7734   -0.3203    2.5117 H   0  0  0  0  0  0  0  0  0  0  0  0
    1.3300   -0.6340   -3.2252 C   0  0  0  0  0  0  0  0  0  0  0  0
    1.3300   -0.6340   -1.7025 C   0  0  0  0  0  0  0  0  0  0  0  0
    1.3300    0.7684   -1.1051 C   0  0  0  0  0  0  0  0  0  0  0  0
    1.3300    0.7684    0.4176 C   0  0  0  0  0  3  0  0  0  0  0  0
    2.2115   -0.1206   -3.6165 H   0  0  0  0  0  0  0  0  0  0  0  0
    0.4485   -0.1206   -3.6165 H   0  0  0  0  0  0  0  0  0  0  0  0
    1.3300   -1.6491   -3.6255 H   0  0  0  0  0  0  0  0  0  0  0  0
    0.4550   -1.1799   -1.3352 H   0  0  0  0  0  0  0  0  0  0  0  0
    2.2050   -1.1799   -1.3352 H   0  0  0  0  0  0  0  0  0  0  0  0
    0.4550    1.3143   -1.4724 H   0  0  0  0  0  0  0  0  0  0  0  0
    2.2050    1.3143   -1.4724 H   0  0  0  0  0  0  0  0  0  0  0  0
    2.2115    0.2550    0.8090 H   0  0  0  0  0  0  0  0  0  0  0  0
    0.2722    0.1524    0.8872 H   0  0  0  0  0  0  0  0  0  0  0  0
    1.3300    1.7835    0.8180 H   0  0  0  0  0  0  0  0  0  0  0  0
  1  2  2  3
  1  4  1  0
  1 21  1  0
  2  3  1  0
  2  5  1  0
  3  6  1  0
  3  7  1  0
  3  8  1  0
  9 10  1  0
  9 13  1  0
  9 14  1  0
  9 15  1  0
 10 11  1  0
 10 16  1  0
 10 17  1  0
 11 12  1  0
 11 18  1  0
 11 19  1  0
 12 20  1  0
 12 22  1  0
M  RAD  1  12   2
M  END
>  <reaction>  (10) 
rmg_rxn_344

>  <mol_properties>  (10) 
{"0": {"label": "*3", "atom_type": "Cd"}, "1": {"label": "*4", "atom_type": "Cd"}, "10": {"label": "*0", "atom_type": "Cs"}, "11": {"label": "*1", "atom_type": "Cs"}, "20": {"label": "*2", "atom_type": "H0"}}

>  <type>  (10) 
unop_6

>  <geom_source>  (10) 
Heuristics

$$$$

     RDKit          3D

 22 20  0  0  0  0  0  0  0  0999 V2000
   -0.8927   -0.3940    1.1941 C   0  0  0  0  0  0  0  0  0  0  0  0
   -1.7686    0.2265    1.9688 C   0  0  0  0  0  0  0  0  0  0  0  0
   -2.3450   -0.3279    3.2316 C   0  0  0  0  0  0  0  0  0  0  0  0
   -0.5236   -1.3847    1.4378 H   0  0  0  0  0  0  0  0  0  0  0  0
   -2.1094    1.2185    1.6835 H   0  0  0  0  0  0  0  0  0  0  0  0
   -2.1179    0.3216    4.0808 H   0  0  0  0  0  0  0  0  0  0  0  0
   -1.9530   -1.3230    3.4456 H   0  0  0  0  0  0  0  0  0  0  0  0
   -3.4341   -0.3938    3.1658 H   0  0  0  0  0  0  0  0  0  0  0  0
    1.2134   -0.5699   -3.3837 C   0  0  0  0  0  0  0  0  0  0  0  0
    1.2134   -0.5699   -1.8610 C   0  0  0  0  0  0  0  0  0  0  0  0
    1.2134    0.8324   -1.2636 C   0  0  0  0  0  0  0  0  0  0  0  0
    1.2134    0.8324    0.2591 C   0  0  0  0  0  3  0  0  0  0  0  0
    2.0949   -0.0566   -3.7750 H   0  0  0  0  0  0  0  0  0  0  0  0
    0.3319   -0.0566   -3.7750 H   0  0  0  0  0  0  0  0  0  0  0  0
    1.2134   -1.5850   -3.7840 H   0  0  0  0  0  0  0  0  0  0  0  0
    0.3383   -1.1158   -1.4937 H   0  0  0  0  0  0  0  0  0  0  0  0
    2.0884   -1.1158   -1.4937 H   0  0  0  0  0  0  0  0  0  0  0  0
    0.3383    1.3783   -1.6309 H   0  0  0  0  0  0  0  0  0  0  0  0
    2.0884    1.3783   -1.6309 H   0  0  0  0  0  0  0  0  0  0  0  0
    2.0949    0.3191    0.6505 H   0  0  0  0  0  0  0  0  0  0  0  0
    0.1555    0.2164    0.7287 H   0  0  0  0  0  0  0  0  0  0  0  0
    1.2134    1.8475    0.6595 H   0  0  0  0  0  0  0  0  0  0  0  0
  1  2  2  3
  1  4  1  0
  1 21  1  0
  2  3  1  0
  2  5  1  0
  3  6  1  0
  3  7  1  0
  3  8  1  0
  9 10  1  0
  9 13  1  0
  9 14  1  0
  9 15  1  0
 10 11  1  0
 10 16  1  0
 10 17  1  0
 11 12  1  0
 11 18  1  0
 11 19  1  0
 12 20  1  0
 12 22  1  0
M  RAD  1  12   2
M  END
>  <reaction>  (11) 
rmg_rxn_344

>  <mol_properties>  (11) 
{"0": {"label": "*3", "atom_type": "Cd"}, "1": {"label": "*4", "atom_type": "Cd"}, "10": {"label": "*0", "atom_type": "Cs"}, "11": {"label": "*1", "atom_type": "Cs"}, "20": {"label": "*2", "atom_type": "H0"}}

>  <type>  (11) 
unop_7

>  <geom_source>  (11) 
Heuristics

$$$$

     RDKit          3D

 22 20  0  0  0  0  0  0  0  0999 V2000
   -1.1388    0.1647    1.3526 C   0  0  0  0  0  0  0  0  0  0  0  0
   -1.1299   -1.1356    1.6007 C   0  0  0  0  0  0  0  0  0  0  0  0
   -1.7330   -1.7863    2.8037 C   0  0  0  0  0  0  0  0  0  0  0  0
   -1.6038    0.8680    2.0355 H   0  0  0  0  0  0  0  0  0  0  0  0
   -0.6517   -1.8015    0.8869 H   0  0  0  0  0  0  0  0  0  0  0  0
   -2.4981   -2.5102    2.5117 H   0  0  0  0  0  0  0  0  0  0  0  0
   -2.1906   -1.0514    3.4671 H   0  0  0  0  0  0  0  0  0  0  0  0
   -0.9761   -2.3362    3.3689 H   0  0  0  0  0  0  0  0  0  0  0  0
    0.9673   -0.0112   -3.2252 C   0  0  0  0  0  0  0  0  0  0  0  0
    0.9673   -0.0112   -1.7025 C   0  0  0  0  0  0  0  0  0  0  0  0
    0.9673    1.3912   -1.1051 C   0  0  0  0  0  0  0  0  0  0  0  0
    0.9673    1.3912    0.4176 C   0  0  0  0  0  3  0  0  0  0  0  0
    1.8488    0.5022   -3.6165 H   0  0  0  0  0  0  0  0  0  0  0  0
    0.0858    0.5022   -3.6165 H   0  0  0  0  0  0  0  0  0  0  0  0
    0.9673   -1.0263   -3.6255 H   0  0  0  0  0  0  0  0  0  0  0  0
    0.0923   -0.5571   -1.3352 H   0  0  0  0  0  0  0  0  0  0  0  0
    1.8423   -0.5571   -1.3352 H   0  0  0  0  0  0  0  0  0  0  0  0
    0.0923    1.9371   -1.4724 H   0  0  0  0  0  0  0  0  0  0  0  0
    1.8423    1.9371   -1.4724 H   0  0  0  0  0  0  0  0  0  0  0  0
    1.8488    0.8778    0.8090 H   0  0  0  0  0  0  0  0  0  0  0  0
   -0.0905    0.7752    0.8872 H   0  0  0  0  0  0  0  0  0  0  0  0
    0.9673    2.4063    0.8180 H   0  0  0  0  0  0  0  0  0  0  0  0
  1  2  2  3
  1  4  1  0
  1 21  1  0
  2  3  1  0
  2  5  1  0
  3  6  1  0
  3  7  1  0
  3  8  1  0
  9 10  1  0
  9 13  1  0
  9 14  1  0
  9 15  1  0
 10 11  1  0
 10 16  1  0
 10 17  1  0
 11 12  1  0
 11 18  1  0
 11 19  1  0
 12 20  1  0
 12 22  1  0
M  RAD  1  12   2
M  END
>  <reaction>  (12) 
rmg_rxn_344

>  <mol_properties>  (12) 
{"0": {"label": "*3", "atom_type": "Cd"}, "1": {"label": "*4", "atom_type": "Cd"}, "10": {"label": "*0", "atom_type": "Cs"}, "11": {"label": "*1", "atom_type": "Cs"}, "20": {"label": "*2", "atom_type": "H0"}}

>  <type>  (12) 
unop_8

>  <geom_source>  (12) 
Heuristics

$$$$

     RDKit          3D

 22 20  0  0  0  0  0  0  0  0999 V2000
   -0.6961   -0.2502    1.7083 C   0  0  0  0  0  0  0  0  0  0  0  0
   -1.8412   -0.2642    1.0442 C   0  0  0  0  0  0  0  0  0  0  0  0
   -3.1741   -0.5947    1.6343 C   0  0  0  0  0  0  0  0  0  0  0  0
   -0.6523   -0.4875    2.7660 H   0  0  0  0  0  0  0  0  0  0  0  0
   -1.8352   -0.0193   -0.0148 H   0  0  0  0  0  0  0  0  0  0  0  0
   -3.8693    0.2406    1.5170 H   0  0  0  0  0  0  0  0  0  0  0  0
   -3.0931   -0.8277    2.6967 H   0  0  0  0  0  0  0  0  0  0  0  0
   -3.6221   -1.4529    1.1267 H   0  0  0  0  0  0  0  0  0  0  0  0
    1.4100   -0.4260   -2.8695 C   0  0  0  0  0  0  0  0  0  0  0  0
    1.4100   -0.4260   -1.3468 C   0  0  0  0  0  0  0  0  0  0  0  0
    1.4100    0.9763   -0.7495 C   0  0  0  0  0  0  0  0  0  0  0  0
    1.4100    0.9763    0.7732 C   0  0  0  0  0  3  0  0  0  0  0  0
    2.2915    0.0873   -3.2609 H   0  0  0  0  0  0  0  0  0  0  0  0
    0.5285    0.0873   -3.2609 H   0  0  0  0  0  0  0  0  0  0  0  0
    1.4100   -1.4412   -3.2699 H   0  0  0  0  0  0  0  0  0  0  0  0
    0.5349   -0.9719   -0.9795 H   0  0  0  0  0  0  0  0  0  0  0  0
    2.2850   -0.9719   -0.9795 H   0  0  0  0  0  0  0  0  0  0  0  0
    0.5349    1.5222   -1.1168 H   0  0  0  0  0  0  0  0  0  0  0  0
    2.2850    1.5222   -1.1168 H   0  0  0  0  0  0  0  0  0  0  0  0
    2.2915    0.4630    1.1646 H   0  0  0  0  0  0  0  0  0  0  0  0
    0.3522    0.3603    1.2429 H   0  0  0  0  0  0  0  0  0  0  0  0
    1.4100    1.9914    1.1736 H   0  0  0  0  0  0  0  0  0  0  0  0
  1  2  2  3
  1  4  1  0
  1 21  1  0
  2  3  1  0
  2  5  1  0
  3  6  1  0
  3  7  1  0
  3  8  1  0
  9 10  1  0
  9 13  1  0
  9 14  1  0
  9 15  1  0
 10 11  1  0
 10 16  1  0
 10 17  1  0
 11 12  1  0
 11 18  1  0
 11 19  1  0
 12 20  1  0
 12 22  1  0
M  RAD  1  12   2
M  END
>  <reaction>  (13) 
rmg_rxn_344

>  <mol_properties>  (13) 
{"0": {"label": "*3", "atom_type": "Cd"}, "1": {"label": "*4", "atom_type": "Cd"}, "10": {"label": "*0", "atom_type": "Cs"}, "11": {"label": "*1", "atom_type": "Cs"}, "20": {"label": "*2", "atom_type": "H0"}}

>  <type>  (13) 
unop_9

>  <geom_source>  (13) 
Heuristics

$$$$

     RDKit          3D

 22 20  0  0  0  0  0  0  0  0999 V2000
   -1.0557    0.2069    1.5475 C   0  0  0  0  0  0  0  0  0  0  0  0
   -1.2974   -1.0644    1.2690 C   0  0  0  0  0  0  0  0  0  0  0  0
   -1.9770   -2.0317    2.1838 C   0  0  0  0  0  0  0  0  0  0  0  0
   -1.3480    0.6439    2.4966 H   0  0  0  0  0  0  0  0  0  0  0  0
   -0.9858   -1.4575    0.3046 H   0  0  0  0  0  0  0  0  0  0  0  0
   -2.8804   -2.4364    1.7202 H   0  0  0  0  0  0  0  0  0  0  0  0
   -2.2565   -1.5597    3.1265 H   0  0  0  0  0  0  0  0  0  0  0  0
   -1.3261   -2.8817    2.4039 H   0  0  0  0  0  0  0  0  0  0  0  0
    1.0504    0.0310   -3.0303 C   0  0  0  0  0  0  0  0  0  0  0  0
    1.0504    0.0310   -1.5076 C   0  0  0  0  0  0  0  0  0  0  0  0
    1.0504    1.4334   -0.9102 C   0  0  0  0  0  0  0  0  0  0  0  0
    1.0504    1.4334    0.6125 C   0  0  0  0  0  3  0  0  0  0  0  0
    1.9319    0.5444   -3.4217 H   0  0  0  0  0  0  0  0  0  0  0  0
    0.1689    0.5444   -3.4217 H   0  0  0  0  0  0  0  0  0  0  0  0
    1.0504   -0.9841   -3.4307 H   0  0  0  0  0  0  0  0  0  0  0  0
    0.1754   -0.5149   -1.1403 H   0  0  0  0  0  0  0  0  0  0  0  0
    1.9254   -0.5149   -1.1403 H   0  0  0  0  0  0  0  0  0  0  0  0
    0.1754    1.9793   -1.2775 H   0  0  0  0  0  0  0  0  0  0  0  0
    1.9254    1.9793   -1.2775 H   0  0  0  0  0  0  0  0  0  0  0  0
    1.9319    0.9200    1.0038 H   0  0  0  0  0  0  0  0  0  0  0  0
   -0.0074    0.8174    1.0821 H   0  0  0  0  0  0  0  0  0  0  0  0
    1.0504    2.4485    1.0128 H   0  0  0  0  0  0  0  0  0  0  0  0
  1  2  2  3
  1  4  1  0
  1 21  1  0
  2  3  1  0
  2  5  1  0
  3  6  1  0
  3  7  1  0
  3  8  1  0
  9 10  1  0
  9 13  1  0
  9 14  1  0
  9 15  1  0
 10 11  1  0
 10 16  1  0
 10 17  1  0
 11 12  1  0
 11 18  1  0
 11 19  1  0
 12 20  1  0
 12 22  1  0
M  RAD  1  12   2
M  END
>  <reaction>  (14) 
rmg_rxn_344

>  <mol_properties>  (14) 
{"0": {"label": "*3", "atom_type": "Cd"}, "1": {"label": "*4", "atom_type": "Cd"}, "10": {"label": "*0", "atom_type": "Cs"}, "11": {"label": "*1", "atom_type": "Cs"}, "20": {"label": "*2", "atom_type": "H0"}}

>  <type>  (14) 
unop_10

>  <geom_source>  (14) 
Heuristics

$$$$

     RDKit          3D

 22 20  0  0  0  0  0  0  0  0999 V2000
   -0.9857   -0.2502    1.1291 C   0  0  0  0  0  0  0  0  0  0  0  0
   -1.5259    0.0880    2.2893 C   0  0  0  0  0  0  0  0  0  0  0  0
   -2.1148   -0.8684    3.2756 C   0  0  0  0  0  0  0  0  0  0  0  0
   -0.9347   -1.2855    0.8088 H   0  0  0  0  0  0  0  0  0  0  0  0
   -1.5543    1.1385    2.5672 H   0  0  0  0  0  0  0  0  0  0  0  0
   -1.6010   -0.8001    4.2380 H   0  0  0  0  0  0  0  0  0  0  0  0
   -2.0468   -1.8980    2.9221 H   0  0  0  0  0  0  0  0  0  0  0  0
   -3.1668   -0.6369    3.4613 H   0  0  0  0  0  0  0  0  0  0  0  0
    1.1204   -0.4261   -3.4487 C   0  0  0  0  0  0  0  0  0  0  0  0
    1.1204   -0.4261   -1.9260 C   0  0  0  0  0  0  0  0  0  0  0  0
    1.1204    0.9763   -1.3287 C   0  0  0  0  0  0  0  0  0  0  0  0
    1.1204    0.9763    0.1940 C   0  0  0  0  0  3  0  0  0  0  0  0
    2.0019    0.0873   -3.8401 H   0  0  0  0  0  0  0  0  0  0  0  0
    0.2389    0.0873   -3.8401 H   0  0  0  0  0  0  0  0  0  0  0  0
    1.1204   -1.4412   -3.8491 H   0  0  0  0  0  0  0  0  0  0  0  0
    0.2454   -0.9719   -1.5587 H   0  0  0  0  0  0  0  0  0  0  0  0
    1.9954   -0.9719   -1.5587 H   0  0  0  0  0  0  0  0  0  0  0  0
    0.2454    1.5222   -1.6960 H   0  0  0  0  0  0  0  0  0  0  0  0
    1.9954    1.5222   -1.6960 H   0  0  0  0  0  0  0  0  0  0  0  0
    2.0019    0.4630    0.5854 H   0  0  0  0  0  0  0  0  0  0  0  0
    0.0626    0.3603    0.6637 H   0  0  0  0  0  0  0  0  0  0  0  0
    1.1204    1.9914    0.5944 H   0  0  0  0  0  0  0  0  0  0  0  0
  1  2  2  3
  1  4  1  0
  1 21  1  0
  2  3  1  0
  2  5  1  0
  3  6  1  0
  3  7  1  0
  3  8  1  0
  9 10  1  0
  9 13  1  0
  9 14  1  0
  9 15  1  0
 10 11  1  0
 10 16  1  0
 10 17  1  0
 11 12  1  0
 11 18  1  0
 11 19  1  0
 12 20  1  0
 12 22  1  0
M  RAD  1  12   2
M  END
>  <reaction>  (15) 
rmg_rxn_344

>  <mol_properties>  (15) 
{"0": {"label": "*3", "atom_type": "Cd"}, "1": {"label": "*4", "atom_type": "Cd"}, "10": {"label": "*0", "atom_type": "Cs"}, "11": {"label": "*1", "atom_type": "Cs"}, "20": {"label": "*2", "atom_type": "H0"}}

>  <type>  (15) 
unop_11

>  <geom_source>  (15) 
Heuristics

$$$$

     RDKit          3D

 22 20  0  0  0  0  0  0  0  0999 V2000
   -0.7792   -0.0429    1.7710 C   0  0  0  0  0  0  0  0  0  0  0  0
   -1.6871   -0.5716    0.9658 C   0  0  0  0  0  0  0  0  0  0  0  0
   -2.9198   -1.2895    1.4125 C   0  0  0  0  0  0  0  0  0  0  0  0
   -0.8775   -0.1001    2.8500 H   0  0  0  0  0  0  0  0  0  0  0  0
   -1.5455   -0.4892   -0.1087 H   0  0  0  0  0  0  0  0  0  0  0  0
   -3.8171   -0.7964    1.0300 H   0  0  0  0  0  0  0  0  0  0  0  0
   -2.9864   -1.3283    2.5005 H   0  0  0  0  0  0  0  0  0  0  0  0
   -2.9338   -2.3133    1.0300 H   0  0  0  0  0  0  0  0  0  0  0  0
    1.3269   -0.2188   -2.8068 C   0  0  0  0  0  0  0  0  0  0  0  0
    1.3269   -0.2188   -1.2841 C   0  0  0  0  0  0  0  0  0  0  0  0
    1.3269    1.1836   -0.6867 C   0  0  0  0  0  0  0  0  0  0  0  0
    1.3269    1.1836    0.8360 C   0  0  0  0  0  3  0  0  0  0  0  0
    2.2085    0.2946   -3.1981 H   0  0  0  0  0  0  0  0  0  0  0  0
    0.4454    0.2946   -3.1981 H   0  0  0  0  0  0  0  0  0  0  0  0
    1.3269   -1.2339   -3.2071 H   0  0  0  0  0  0  0  0  0  0  0  0
    0.4519   -0.7647   -0.9168 H   0  0  0  0  0  0  0  0  0  0  0  0
    2.2020   -0.7647   -0.9168 H   0  0  0  0  0  0  0  0  0  0  0  0
    0.4519    1.7295   -1.0540 H   0  0  0  0  0  0  0  0  0  0  0  0
    2.2020    1.7295   -1.0540 H   0  0  0  0  0  0  0  0  0  0  0  0
    2.2085    0.6703    1.2274 H   0  0  0  0  0  0  0  0  0  0  0  0
    0.2691    0.5676    1.3056 H   0  0  0  0  0  0  0  0  0  0  0  0
    1.3269    2.1987    1.2364 H   0  0  0  0  0  0  0  0  0  0  0  0
  1  2  2  3
  1  4  1  0
  1 21  1  0
  2  3  1  0
  2  5  1  0
  3  6  1  0
  3  7  1  0
  3  8  1  0
  9 10  1  0
  9 13  1  0
  9 14  1  0
  9 15  1  0
 10 11  1  0
 10 16  1  0
 10 17  1  0
 11 12  1  0
 11 18  1  0
 11 19  1  0
 12 20  1  0
 12 22  1  0
M  RAD  1  12   2
M  END
>  <reaction>  (16) 
rmg_rxn_344

>  <mol_properties>  (16) 
{"0": {"label": "*3", "atom_type": "Cd"}, "1": {"label": "*4", "atom_type": "Cd"}, "10": {"label": "*0", "atom_type": "Cs"}, "11": {"label": "*1", "atom_type": "Cs"}, "20": {"label": "*2", "atom_type": "H0"}}

>  <type>  (16) 
unop_12

>  <geom_source>  (16) 
Heuristics

$$$$

     RDKit          3D

 22 20  0  0  0  0  0  0  0  0999 V2000
   -3.0120   -0.5598    0.0047 C   0  0  0  0  0  0  0  0  0  0  0  0
   -1.7289   -0.6922   -0.8284 C   0  0  0  0  0  0  0  0  0  0  0  0
   -3.2117    0.8510    0.5575 C   0  0  0  0  0  0  0  0  0  0  0  0
    4.3251    0.6486   -0.0771 C   0  0  0  0  0  0  0  0  0  0  0  0
    3.0054    0.1037   -0.5274 C   0  0  0  0  0  0  0  0  0  0  0  0
   -0.4646   -0.6157    0.0225 C   0  0  0  0  0  3  0  0  0  0  0  0
    2.0581   -0.2271    0.3521 C   0  0  0  0  0  0  0  0  0  0  0  0
   -3.8797   -0.8062   -0.6448 H   0  0  0  0  0  0  0  0  0  0  0  0
   -3.0010   -1.2903    0.8428 H   0  0  0  0  0  0  0  0  0  0  0  0
   -1.6955    0.0947   -1.6124 H   0  0  0  0  0  0  0  0  0  0  0  0
   -1.7386   -1.6777   -1.3409 H   0  0  0  0  0  0  0  0  0  0  0  0
   -4.1989    0.9133    1.0619 H   0  0  0  0  0  0  0  0  0  0  0  0
   -3.1874    1.5974   -0.2647 H   0  0  0  0  0  0  0  0  0  0  0  0
   -2.4263    1.0954    1.3025 H   0  0  0  0  0  0  0  0  0  0  0  0
    4.8394   -0.0914    0.5719 H   0  0  0  0  0  0  0  0  0  0  0  0
    4.1728    1.5928    0.4874 H   0  0  0  0  0  0  0  0  0  0  0  0
    4.9646    0.8575   -0.9600 H   0  0  0  0  0  0  0  0  0  0  0  0
    2.8142   -0.0251   -1.5882 H   0  0  0  0  0  0  0  0  0  0  0  0
   -0.3214    0.4008    0.4441 H   0  0  0  0  0  0  0  0  0  0  0  0
   -0.4831   -1.3739    0.8341 H   0  0  0  0  0  0  0  0  0  0  0  0
    2.2208   -0.1092    1.4194 H   0  0  0  0  0  0  0  0  0  0  0  0
    0.9487   -0.6867   -0.0569 H   0  0  0  0  0  0  0  0  0  0  0  0
  1  3  1  0
  1  2  1  0
  1  8  1  0
  1  9  1  0
  2  6  1  0
  2 10  1  0
  2 11  1  0
  3 12  1  0
  3 13  1  0
  3 14  1  0
  4  5  1  0
  4 15  1  0
  4 16  1  0
  4 17  1  0
  5  7  2  3
  5 18  1  0
  6 19  1  0
  6 20  1  0
  7 21  1  0
  7 22  1  0
M  RAD  1   6   2
M  END
>  <reaction>  (17) 
rmg_rxn_344

>  <mol_properties>  (17) 
{"0": {"label": "*3", "atom_type": "Cd"}, "1": {"label": "*4", "atom_type": "Cd"}, "10": {"label": "*0", "atom_type": "Cs"}, "11": {"label": "*1", "atom_type": "Cs"}, "20": {"label": "*2", "atom_type": "H0"}}

>  <type>  (17) 
unop_13

>  <geom_source>  (17) 
AutoTST

$$$$

     RDKit          3D

 22 20  0  0  0  0  0  0  0  0999 V2000
   -0.9185    0.1316    1.7083 C   0  0  0  0  0  0  0  0  0  0  0  0
   -1.4958   -0.8573    1.0442 C   0  0  0  0  0  0  0  0  0  0  0  0
   -2.4411   -1.8535    1.6343 C   0  0  0  0  0  0  0  0  0  0  0  0
   -1.1033    0.2869    2.7660 H   0  0  0  0  0  0  0  0  0  0  0  0
   -1.2798   -0.9730   -0.0148 H   0  0  0  0  0  0  0  0  0  0  0  0
   -3.4086   -1.8196    1.1267 H   0  0  0  0  0  0  0  0  0  0  0  0
   -2.6037   -1.6681    2.6967 H   0  0  0  0  0  0  0  0  0  0  0  0
   -2.0576   -2.8704    1.5170 H   0  0  0  0  0  0  0  0  0  0  0  0
    1.1877   -0.0443   -2.8695 C   0  0  0  0  0  0  0  0  0  0  0  0
    1.1877   -0.0443   -1.3468 C   0  0  0  0  0  0  0  0  0  0  0  0
    1.1877    1.3581   -0.7495 C   0  0  0  0  0  0  0  0  0  0  0  0
    1.1877    1.3581    0.7732 C   0  0  0  0  0  3  0  0  0  0  0  0
    2.0692    0.4691   -3.2609 H   0  0  0  0  0  0  0  0  0  0  0  0
    0.3061    0.4691   -3.2609 H   0  0  0  0  0  0  0  0  0  0  0  0
    1.1877   -1.0594   -3.2699 H   0  0  0  0  0  0  0  0  0  0  0  0
    0.3126   -0.5901   -0.9795 H   0  0  0  0  0  0  0  0  0  0  0  0
    2.0627   -0.5901   -0.9795 H   0  0  0  0  0  0  0  0  0  0  0  0
    0.3126    1.9040   -1.1168 H   0  0  0  0  0  0  0  0  0  0  0  0
    2.0627    1.9040   -1.1168 H   0  0  0  0  0  0  0  0  0  0  0  0
    2.0692    0.8448    1.1646 H   0  0  0  0  0  0  0  0  0  0  0  0
    0.1298    0.7421    1.2429 H   0  0  0  0  0  0  0  0  0  0  0  0
    1.1877    2.3732    1.1736 H   0  0  0  0  0  0  0  0  0  0  0  0
  1  2  2  3
  1  4  1  0
  1 21  1  0
  2  3  1  0
  2  5  1  0
  3  6  1  0
  3  7  1  0
  3  8  1  0
  9 10  1  0
  9 13  1  0
  9 14  1  0
  9 15  1  0
 10 11  1  0
 10 16  1  0
 10 17  1  0
 11 12  1  0
 11 18  1  0
 11 19  1  0
 12 20  1  0
 12 22  1  0
M  RAD  1  12   2
M  END
>  <reaction>  (18) 
rmg_rxn_344

>  <mol_properties>  (18) 
{"0": {"label": "*3", "atom_type": "Cd"}, "1": {"label": "*4", "atom_type": "Cd"}, "10": {"label": "*0", "atom_type": "Cs"}, "11": {"label": "*1", "atom_type": "Cs"}, "20": {"label": "*2", "atom_type": "H0"}}

>  <type>  (18) 
unop_14

>  <geom_source>  (18) 
gaussian_log

$$$$
