
     RDKit          3D

 14 13  0  0  0  0  0  0  0  0999 V2000
    1.8106   -0.5953    0.5577 C   0  0  0  0  0  0  0  0  0  0  0  0
    0.5197    0.2064    0.6554 C   0  0  0  0  0  0  0  0  0  0  0  0
   -0.5206   -0.2080   -0.3788 C   0  0  0  0  0  0  0  0  0  0  0  0
   -1.8114    0.5937   -0.2812 C   0  0  0  0  0  0  0  0  0  0  0  0
    2.2725   -0.4752   -0.4251 H   0  0  0  0  0  0  0  0  0  0  0  0
    1.6214   -1.6612    0.7052 H   0  0  0  0  0  0  0  0  0  0  0  0
    2.5364   -0.2784    1.3084 H   0  0  0  0  0  0  0  0  0  0  0  0
    0.0930    0.0950    1.6574 H   0  0  0  0  0  0  0  0  0  0  0  0
    0.7393    1.2723    0.5354 H   0  0  0  0  0  0  0  0  0  0  0  0
   -0.7402   -1.2739   -0.2588 H   0  0  0  0  0  0  0  0  0  0  0  0
   -0.0938   -0.0965   -1.3808 H   0  0  0  0  0  0  0  0  0  0  0  0
   -1.6222    1.6596   -0.4287 H   0  0  0  0  0  0  0  0  0  0  0  0
   -2.2734    0.4736    0.7017 H   0  0  0  0  0  0  0  0  0  0  0  0
   -2.5373    0.2768   -1.0318 H   0  0  0  0  0  0  0  0  0  0  0  0
  1  2  1  0
  1  5  1  0
  1  6  1  0
  1  7  1  0
  2  3  1  0
  2  8  1  0
  2  9  1  0
  3  4  1  0
  3 10  1  0
  3 11  1  0
  4 12  1  0
  4 13  1  0
  4 14  1  0
M  END
>  <reaction>  (1) 
rmg_rxn_301

>  <mol_properties>  (1) 
{"2": {"label": "donator", "atom_type": "Cs"}, "10": {"label": "d_hydrogen", "atom_type": "H0"}}

>  <type>  (1) 
r1h

$$$$

     RDKit          3D

 11 10  0  0  0  0  0  0  0  0999 V2000
   -1.2230    0.3768   -0.0849 C   0  0  0  0  0  0  0  0  0  0  0  0
   -0.0734   -0.5533    0.2746 C   0  0  0  0  0  0  0  0  0  0  0  0
   -0.0853   -1.8426   -0.5372 C   0  0  0  0  0  0  0  0  0  0  0  0
    0.0319   -1.6944   -1.8815 O   0  0  0  0  0  1  0  0  0  0  0  0
   -2.1874   -0.0885    0.1341 H   0  0  0  0  0  0  0  0  0  0  0  0
   -1.1670    1.3099    0.4765 H   0  0  0  0  0  0  0  0  0  0  0  0
   -1.2014    0.6189   -1.1483 H   0  0  0  0  0  0  0  0  0  0  0  0
    0.8834   -0.0518    0.1071 H   0  0  0  0  0  0  0  0  0  0  0  0
   -0.1104   -0.8149    1.3362 H   0  0  0  0  0  0  0  0  0  0  0  0
    0.6767   -2.5604   -0.1861 H   0  0  0  0  0  0  0  0  0  0  0  0
   -1.0401   -2.3871   -0.3877 H   0  0  0  0  0  0  0  0  0  0  0  0
  1  2  1  0
  1  5  1  0
  1  6  1  0
  1  7  1  0
  2  3  1  0
  2  8  1  0
  2  9  1  0
  3  4  1  0
  3 10  1  0
  3 11  1  0
M  RAD  1   4   2
M  END
>  <reaction>  (2) 
rmg_rxn_301

>  <mol_properties>  (2) 
{"3": {"label": "acceptor", "atom_type": "O2s"}}

>  <type>  (2) 
r2

$$$$

     RDKit          3D

 12 11  0  0  0  0  0  0  0  0999 V2000
   -1.4643   -0.2505   -0.5284 C   0  0  0  0  0  0  0  0  0  0  0  0
   -0.3946    0.4302    0.3143 C   0  0  0  0  0  0  0  0  0  0  0  0
   -0.5959    0.2382    1.8102 C   0  0  0  0  0  0  0  0  0  0  0  0
   -0.5633   -1.1190    2.2092 O   0  0  0  0  0  0  0  0  0  0  0  0
   -2.4511    0.1644   -0.3109 H   0  0  0  0  0  0  0  0  0  0  0  0
   -1.5019   -1.3198   -0.3181 H   0  0  0  0  0  0  0  0  0  0  0  0
   -1.2720   -0.1182   -1.5941 H   0  0  0  0  0  0  0  0  0  0  0  0
    0.5965    0.0515    0.0385 H   0  0  0  0  0  0  0  0  0  0  0  0
   -0.3776    1.5047    0.1078 H   0  0  0  0  0  0  0  0  0  0  0  0
   -1.5821    0.6048    2.1034 H   0  0  0  0  0  0  0  0  0  0  0  0
    0.1495    0.8220    2.3649 H   0  0  0  0  0  0  0  0  0  0  0  0
    0.3017   -1.4750    1.9997 H   0  0  0  0  0  0  0  0  0  0  0  0
  1  2  1  0
  1  5  1  0
  1  6  1  0
  1  7  1  0
  2  3  1  0
  2  8  1  0
  2  9  1  0
  3  4  1  0
  3 10  1  0
  3 11  1  0
  4 12  1  0
M  END
>  <reaction>  (3) 
rmg_rxn_301

>  <mol_properties>  (3) 
{"3": {"label": "acceptor", "atom_type": "O2s"}, "11": {"label": "a_hydrogen", "atom_type": "H0"}}

>  <type>  (3) 
r2h

$$$$

     RDKit          3D

 25 23  0  0  0  0  0  0  0  0999 V2000
   -0.0370    3.0338   -0.5022 C   0  0  0  0  0  0  0  0  0  0  0  0
   -0.5254    1.8743   -1.3580 C   0  0  0  0  0  0  0  0  0  0  0  0
    0.5510    0.8257   -1.6163 C   0  0  0  0  0  0  0  0  0  0  0  0
    1.1259    0.2984   -0.4629 O   0  0  0  0  0  1  0  0  0  0  0  0
    0.7818    3.5645   -0.9939 H   0  0  0  0  0  0  0  0  0  0  0  0
   -0.8373    3.7514   -0.3152 H   0  0  0  0  0  0  0  0  0  0  0  0
    0.3326    2.6738    0.4585 H   0  0  0  0  0  0  0  0  0  0  0  0
   -1.3775    1.3872   -0.8733 H   0  0  0  0  0  0  0  0  0  0  0  0
   -0.8870    2.2389   -2.3242 H   0  0  0  0  0  0  0  0  0  0  0  0
    0.1586    0.0300   -2.2653 H   0  0  0  0  0  0  0  0  0  0  0  0
    1.3897    1.2857   -2.1588 H   0  0  0  0  0  0  0  0  0  0  0  0
    0.3013   -3.0835   -0.3130 C   0  0  0  0  0  0  0  0  0  0  0  0
   -0.1373   -2.3629    0.9546 C   0  0  0  0  0  0  0  0  0  0  0  0
   -0.7178   -0.9948    0.6863 C   0  0  0  0  0  0  0  0  0  0  0  0
   -1.1210   -0.1880    1.8943 C   0  0  0  0  0  0  0  0  0  0  0  0
    1.0639   -2.5036   -0.8356 H   0  0  0  0  0  0  0  0  0  0  0  0
   -0.5415   -3.2241   -0.9940 H   0  0  0  0  0  0  0  0  0  0  0  0
    0.7155   -4.0669   -0.0869 H   0  0  0  0  0  0  0  0  0  0  0  0
   -0.8885   -2.9623    1.4846 H   0  0  0  0  0  0  0  0  0  0  0  0
    0.7099   -2.2630    1.6395 H   0  0  0  0  0  0  0  0  0  0  0  0
   -1.4932   -1.0201   -0.0846 H   0  0  0  0  0  0  0  0  0  0  0  0
    0.1930   -0.3623    0.1440 H   0  0  0  0  0  0  0  0  0  0  0  0
   -0.2839   -0.0767    2.5862 H   0  0  0  0  0  0  0  0  0  0  0  0
   -1.9356   -0.6821    2.4340 H   0  0  0  0  0  0  0  0  0  0  0  0
   -1.4621    0.8090    1.6128 H   0  0  0  0  0  0  0  0  0  0  0  0
  1  2  1  0
  1  5  1  0
  1  6  1  0
  1  7  1  0
  2  3  1  0
  2  8  1  0
  2  9  1  0
  3  4  1  0
  3 10  1  0
  3 11  1  0
 12 13  1  0
 12 16  1  0
 12 17  1  0
 12 18  1  0
 13 14  1  0
 13 19  1  0
 13 20  1  0
 14 15  1  0
 14 21  1  0
 14 22  1  0
 15 23  1  0
 15 24  1  0
 15 25  1  0
M  RAD  1   4   2
M  END
>  <reaction>  (4) 
rmg_rxn_301

>  <mol_properties>  (4) 
{"2": {"label": "*4", "atom_type": "Cs"}, "3": {"label": "*3", "atom_type": "O2s"}, "12": {"label": "*0", "atom_type": "Cs"}, "13": {"label": "*1", "atom_type": "Cs"}, "21": {"label": "*2", "atom_type": "H0"}}

>  <type>  (4) 
ts

$$$$

     RDKit          3D

 25 23  0  0  0  0  0  0  0  0999 V2000
    0.4262    1.9311    1.7388 C   0  0  0  0  0  0  0  0  0  0  0  0
   -0.0533    2.1634    0.3126 C   0  0  0  0  0  0  0  0  0  0  0  0
    0.9627    1.7420   -0.7388 C   0  0  0  0  0  0  0  0  0  0  0  0
    1.2860    0.3655   -0.6840 O   0  0  0  0  0  0  0  0  0  0  0  0
    1.3228    2.5194    1.9468 H   0  0  0  0  0  0  0  0  0  0  0  0
   -0.3375    2.2155    2.4641 H   0  0  0  0  0  0  0  0  0  0  0  0
    0.6753    0.8817    1.8985 H   0  0  0  0  0  0  0  0  0  0  0  0
   -0.9892    1.6197    0.1390 H   0  0  0  0  0  0  0  0  0  0  0  0
   -0.2837    3.2220    0.1589 H   0  0  0  0  0  0  0  0  0  0  0  0
    0.6003    2.0143   -1.7381 H   0  0  0  0  0  0  0  0  0  0  0  0
    1.9055    2.2696   -0.5783 H   0  0  0  0  0  0  0  0  0  0  0  0
   -0.6834   -2.2655   -1.9774 C   0  0  0  0  0  0  0  0  0  0  0  0
   -0.6834   -2.2655   -0.4547 C   0  0  0  0  0  0  0  0  0  0  0  0
   -0.6834   -0.8631    0.1427 C   0  0  0  0  0  3  0  0  0  0  0  0
   -0.6834   -0.8631    1.6654 C   0  0  0  0  0  0  0  0  0  0  0  0
    0.1981   -1.7521   -2.3688 H   0  0  0  0  0  0  0  0  0  0  0  0
   -1.5649   -1.7521   -2.3688 H   0  0  0  0  0  0  0  0  0  0  0  0
   -0.6834   -3.2806   -2.3778 H   0  0  0  0  0  0  0  0  0  0  0  0
   -1.5584   -2.8114   -0.0874 H   0  0  0  0  0  0  0  0  0  0  0  0
    0.1916   -2.8114   -0.0874 H   0  0  0  0  0  0  0  0  0  0  0  0
   -1.5584   -0.3172   -0.2246 H   0  0  0  0  0  0  0  0  0  0  0  0
    0.3667   -0.2080   -0.2981 H   0  0  0  0  0  0  0  0  0  0  0  0
    0.1981   -1.3765    2.0568 H   0  0  0  0  0  0  0  0  0  0  0  0
   -1.5649   -1.3765    2.0568 H   0  0  0  0  0  0  0  0  0  0  0  0
   -0.6834    0.1520    2.0658 H   0  0  0  0  0  0  0  0  0  0  0  0
  1  2  1  0
  1  5  1  0
  1  6  1  0
  1  7  1  0
  2  3  1  0
  2  8  1  0
  2  9  1  0
  3  4  1  0
  3 10  1  0
  3 11  1  0
  4 22  1  0
 12 13  1  0
 12 16  1  0
 12 17  1  0
 12 18  1  0
 13 14  1  0
 13 19  1  0
 13 20  1  0
 14 15  1  0
 14 21  1  0
 15 23  1  0
 15 24  1  0
 15 25  1  0
M  RAD  1  14   2
M  END
>  <reaction>  (5) 
rmg_rxn_301

>  <mol_properties>  (5) 
{"2": {"label": "*4", "atom_type": "Cs"}, "3": {"label": "*3", "atom_type": "O2s"}, "12": {"label": "*0", "atom_type": "Cs"}, "13": {"label": "*1", "atom_type": "Cs"}, "21": {"label": "*2", "atom_type": "H0"}}

>  <type>  (5) 
unop_1

>  <geom_source>  (5) 
Heuristics

$$$$

     RDKit          3D

 25 23  0  0  0  0  0  0  0  0999 V2000
   -0.9058    1.9554   -1.1071 C   0  0  0  0  0  0  0  0  0  0  0  0
   -0.0350    0.8097   -1.6039 C   0  0  0  0  0  0  0  0  0  0  0  0
    1.3912    0.8668   -1.0767 C   0  0  0  0  0  0  0  0  0  0  0  0
    1.4690    0.7966    0.3344 O   0  0  0  0  0  0  0  0  0  0  0  0
   -0.5091    2.9168   -1.4414 H   0  0  0  0  0  0  0  0  0  0  0  0
   -1.9273    1.8662   -1.4794 H   0  0  0  0  0  0  0  0  0  0  0  0
   -0.9395    1.9731   -0.0173 H   0  0  0  0  0  0  0  0  0  0  0  0
   -0.4804   -0.1502   -1.3180 H   0  0  0  0  0  0  0  0  0  0  0  0
    0.0055    0.8124   -2.6974 H   0  0  0  0  0  0  0  0  0  0  0  0
    1.9911    0.0716   -1.5368 H   0  0  0  0  0  0  0  0  0  0  0  0
    1.8503    1.8203   -1.3469 H   0  0  0  0  0  0  0  0  0  0  0  0
   -0.5005   -1.8344   -0.9589 C   0  0  0  0  0  0  0  0  0  0  0  0
   -0.5005   -1.8344    0.5638 C   0  0  0  0  0  0  0  0  0  0  0  0
   -0.5005   -0.4321    1.1612 C   0  0  0  0  0  3  0  0  0  0  0  0
   -0.5005   -0.4321    2.6838 C   0  0  0  0  0  0  0  0  0  0  0  0
    0.3810   -1.3211   -1.3503 H   0  0  0  0  0  0  0  0  0  0  0  0
   -1.3820   -1.3211   -1.3503 H   0  0  0  0  0  0  0  0  0  0  0  0
   -0.5005   -2.8495   -1.3593 H   0  0  0  0  0  0  0  0  0  0  0  0
   -1.3755   -2.3803    0.9311 H   0  0  0  0  0  0  0  0  0  0  0  0
    0.3746   -2.3803    0.9311 H   0  0  0  0  0  0  0  0  0  0  0  0
   -1.3755    0.1138    0.7938 H   0  0  0  0  0  0  0  0  0  0  0  0
    0.5496    0.2230    0.7204 H   0  0  0  0  0  0  0  0  0  0  0  0
    0.3810   -0.9454    3.0752 H   0  0  0  0  0  0  0  0  0  0  0  0
   -1.3820   -0.9454    3.0752 H   0  0  0  0  0  0  0  0  0  0  0  0
   -0.5005    0.5830    3.0842 H   0  0  0  0  0  0  0  0  0  0  0  0
  1  2  1  0
  1  5  1  0
  1  6  1  0
  1  7  1  0
  2  3  1  0
  2  8  1  0
  2  9  1  0
  3  4  1  0
  3 10  1  0
  3 11  1  0
  4 22  1  0
 12 13  1  0
 12 16  1  0
 12 17  1  0
 12 18  1  0
 13 14  1  0
 13 19  1  0
 13 20  1  0
 14 15  1  0
 14 21  1  0
 15 23  1  0
 15 24  1  0
 15 25  1  0
M  RAD  1  14   2
M  END
>  <reaction>  (6) 
rmg_rxn_301

>  <mol_properties>  (6) 
{"2": {"label": "*4", "atom_type": "Cs"}, "3": {"label": "*3", "atom_type": "O2s"}, "12": {"label": "*0", "atom_type": "Cs"}, "13": {"label": "*1", "atom_type": "Cs"}, "21": {"label": "*2", "atom_type": "H0"}}

>  <type>  (6) 
unop_2

>  <geom_source>  (6) 
Heuristics

$$$$

     RDKit          3D

 25 23  0  0  0  0  0  0  0  0999 V2000
    2.1496    1.2092    1.6903 C   0  0  0  0  0  0  0  0  0  0  0  0
    0.8706    1.8476    1.1666 C   0  0  0  0  0  0  0  0  0  0  0  0
    0.7786    1.8499   -0.3522 C   0  0  0  0  0  0  0  0  0  0  0  0
    0.7936    0.5519   -0.9154 O   0  0  0  0  0  0  0  0  0  0  0  0
    3.0273    1.7607    1.3455 H   0  0  0  0  0  0  0  0  0  0  0  0
    2.1680    1.1974    2.7810 H   0  0  0  0  0  0  0  0  0  0  0  0
    2.2444    0.1824    1.3357 H   0  0  0  0  0  0  0  0  0  0  0  0
   -0.0027    1.3248    1.5737 H   0  0  0  0  0  0  0  0  0  0  0  0
    0.7947    2.8824    1.5143 H   0  0  0  0  0  0  0  0  0  0  0  0
   -0.1163    2.3991   -0.6709 H   0  0  0  0  0  0  0  0  0  0  0  0
    1.6448    2.3622   -0.7770 H   0  0  0  0  0  0  0  0  0  0  0  0
   -1.1759   -2.0790   -2.2088 C   0  0  0  0  0  0  0  0  0  0  0  0
   -1.1759   -2.0790   -0.6861 C   0  0  0  0  0  0  0  0  0  0  0  0
   -1.1759   -0.6767   -0.0887 C   0  0  0  0  0  3  0  0  0  0  0  0
   -1.1759   -0.6767    1.4340 C   0  0  0  0  0  0  0  0  0  0  0  0
   -0.2943   -1.5657   -2.6001 H   0  0  0  0  0  0  0  0  0  0  0  0
   -2.0574   -1.5657   -2.6001 H   0  0  0  0  0  0  0  0  0  0  0  0
   -1.1759   -3.0942   -2.6091 H   0  0  0  0  0  0  0  0  0  0  0  0
   -2.0509   -2.6249   -0.3187 H   0  0  0  0  0  0  0  0  0  0  0  0
   -0.3008   -2.6249   -0.3187 H   0  0  0  0  0  0  0  0  0  0  0  0
   -2.0509   -0.1308   -0.4560 H   0  0  0  0  0  0  0  0  0  0  0  0
   -0.1258   -0.0216   -0.5295 H   0  0  0  0  0  0  0  0  0  0  0  0
   -0.2943   -1.1900    1.8254 H   0  0  0  0  0  0  0  0  0  0  0  0
   -2.0574   -1.1900    1.8254 H   0  0  0  0  0  0  0  0  0  0  0  0
   -1.1759    0.3384    1.8344 H   0  0  0  0  0  0  0  0  0  0  0  0
  1  2  1  0
  1  5  1  0
  1  6  1  0
  1  7  1  0
  2  3  1  0
  2  8  1  0
  2  9  1  0
  3  4  1  0
  3 10  1  0
  3 11  1  0
  4 22  1  0
 12 13  1  0
 12 16  1  0
 12 17  1  0
 12 18  1  0
 13 14  1  0
 13 19  1  0
 13 20  1  0
 14 15  1  0
 14 21  1  0
 15 23  1  0
 15 24  1  0
 15 25  1  0
M  RAD  1  14   2
M  END
>  <reaction>  (7) 
rmg_rxn_301

>  <mol_properties>  (7) 
{"2": {"label": "*4", "atom_type": "Cs"}, "3": {"label": "*3", "atom_type": "O2s"}, "12": {"label": "*0", "atom_type": "Cs"}, "13": {"label": "*1", "atom_type": "Cs"}, "21": {"label": "*2", "atom_type": "H0"}}

>  <type>  (7) 
unop_3

>  <geom_source>  (7) 
Heuristics

$$$$

     RDKit          3D

 25 23  0  0  0  0  0  0  0  0999 V2000
    1.5717    0.6828   -2.4570 C   0  0  0  0  0  0  0  0  0  0  0  0
    1.5229   -0.2755   -1.2750 C   0  0  0  0  0  0  0  0  0  0  0  0
    1.6477    0.4236    0.0707 C   0  0  0  0  0  0  0  0  0  0  0  0
    0.6110    1.3550    0.3154 O   0  0  0  0  0  0  0  0  0  0  0  0
    2.5280    1.2099   -2.4893 H   0  0  0  0  0  0  0  0  0  0  0  0
    1.4490    0.1519   -3.4021 H   0  0  0  0  0  0  0  0  0  0  0  0
    0.7837    1.4328   -2.3815 H   0  0  0  0  0  0  0  0  0  0  0  0
    0.5863   -0.8449   -1.2931 H   0  0  0  0  0  0  0  0  0  0  0  0
    2.3281   -1.0124   -1.3524 H   0  0  0  0  0  0  0  0  0  0  0  0
    1.6957   -0.3213    0.8750 H   0  0  0  0  0  0  0  0  0  0  0  0
    2.5736    1.0020    0.1055 H   0  0  0  0  0  0  0  0  0  0  0  0
   -1.3584   -1.2760   -0.9780 C   0  0  0  0  0  0  0  0  0  0  0  0
   -1.3584   -1.2760    0.5447 C   0  0  0  0  0  0  0  0  0  0  0  0
   -1.3584    0.1264    1.1421 C   0  0  0  0  0  3  0  0  0  0  0  0
   -1.3584    0.1264    2.6648 C   0  0  0  0  0  0  0  0  0  0  0  0
   -0.4769   -0.7627   -1.3694 H   0  0  0  0  0  0  0  0  0  0  0  0
   -2.2399   -0.7627   -1.3694 H   0  0  0  0  0  0  0  0  0  0  0  0
   -1.3584   -2.2911   -1.3784 H   0  0  0  0  0  0  0  0  0  0  0  0
   -2.2335   -1.8219    0.9120 H   0  0  0  0  0  0  0  0  0  0  0  0
   -0.4834   -1.8219    0.9120 H   0  0  0  0  0  0  0  0  0  0  0  0
   -2.2335    0.6723    0.7747 H   0  0  0  0  0  0  0  0  0  0  0  0
   -0.3084    0.7814    0.7013 H   0  0  0  0  0  0  0  0  0  0  0  0
   -0.4769   -0.3870    3.0561 H   0  0  0  0  0  0  0  0  0  0  0  0
   -2.2399   -0.3870    3.0561 H   0  0  0  0  0  0  0  0  0  0  0  0
   -1.3584    1.1415    3.0651 H   0  0  0  0  0  0  0  0  0  0  0  0
  1  2  1  0
  1  5  1  0
  1  6  1  0
  1  7  1  0
  2  3  1  0
  2  8  1  0
  2  9  1  0
  3  4  1  0
  3 10  1  0
  3 11  1  0
  4 22  1  0
 12 13  1  0
 12 16  1  0
 12 17  1  0
 12 18  1  0
 13 14  1  0
 13 19  1  0
 13 20  1  0
 14 15  1  0
 14 21  1  0
 15 23  1  0
 15 24  1  0
 15 25  1  0
M  RAD  1  14   2
M  END
>  <reaction>  (8) 
rmg_rxn_301

>  <mol_properties>  (8) 
{"2": {"label": "*4", "atom_type": "Cs"}, "3": {"label": "*3", "atom_type": "O2s"}, "12": {"label": "*0", "atom_type": "Cs"}, "13": {"label": "*1", "atom_type": "Cs"}, "21": {"label": "*2", "atom_type": "H0"}}

>  <type>  (8) 
unop_4

>  <geom_source>  (8) 
Heuristics

$$$$

     RDKit          3D

 25 23  0  0  0  0  0  0  0  0999 V2000
    3.1468    0.7948    0.4527 C   0  0  0  0  0  0  0  0  0  0  0  0
    1.8552    1.1818    1.1597 C   0  0  0  0  0  0  0  0  0  0  0  0
    0.7916    1.7214    0.2148 C   0  0  0  0  0  0  0  0  0  0  0  0
    0.3986    0.7900   -0.7753 O   0  0  0  0  0  0  0  0  0  0  0  0
    3.5993    1.6638   -0.0307 H   0  0  0  0  0  0  0  0  0  0  0  0
    3.8743    0.3845    1.1544 H   0  0  0  0  0  0  0  0  0  0  0  0
    2.9581    0.0484   -0.3195 H   0  0  0  0  0  0  0  0  0  0  0  0
    1.4477    0.3164    1.6949 H   0  0  0  0  0  0  0  0  0  0  0  0
    2.0539    1.9434    1.9198 H   0  0  0  0  0  0  0  0  0  0  0  0
   -0.0780    2.0648    0.7891 H   0  0  0  0  0  0  0  0  0  0  0  0
    1.1819    2.5820   -0.3329 H   0  0  0  0  0  0  0  0  0  0  0  0
   -1.5708   -1.8410   -2.0687 C   0  0  0  0  0  0  0  0  0  0  0  0
   -1.5708   -1.8410   -0.5460 C   0  0  0  0  0  0  0  0  0  0  0  0
   -1.5708   -0.4386    0.0514 C   0  0  0  0  0  3  0  0  0  0  0  0
   -1.5708   -0.4386    1.5741 C   0  0  0  0  0  0  0  0  0  0  0  0
   -0.6893   -1.3276   -2.4601 H   0  0  0  0  0  0  0  0  0  0  0  0
   -2.4523   -1.3276   -2.4601 H   0  0  0  0  0  0  0  0  0  0  0  0
   -1.5708   -2.8561   -2.4691 H   0  0  0  0  0  0  0  0  0  0  0  0
   -2.4459   -2.3869   -0.1787 H   0  0  0  0  0  0  0  0  0  0  0  0
   -0.6958   -2.3869   -0.1787 H   0  0  0  0  0  0  0  0  0  0  0  0
   -2.4459    0.1073   -0.3159 H   0  0  0  0  0  0  0  0  0  0  0  0
   -0.5208    0.2165   -0.3894 H   0  0  0  0  0  0  0  0  0  0  0  0
   -0.6893   -0.9519    1.9654 H   0  0  0  0  0  0  0  0  0  0  0  0
   -2.4523   -0.9519    1.9654 H   0  0  0  0  0  0  0  0  0  0  0  0
   -1.5708    0.5765    1.9744 H   0  0  0  0  0  0  0  0  0  0  0  0
  1  2  1  0
  1  5  1  0
  1  6  1  0
  1  7  1  0
  2  3  1  0
  2  8  1  0
  2  9  1  0
  3  4  1  0
  3 10  1  0
  3 11  1  0
  4 22  1  0
 12 13  1  0
 12 16  1  0
 12 17  1  0
 12 18  1  0
 13 14  1  0
 13 19  1  0
 13 20  1  0
 14 15  1  0
 14 21  1  0
 15 23  1  0
 15 24  1  0
 15 25  1  0
M  RAD  1  14   2
M  END
>  <reaction>  (9) 
rmg_rxn_301

>  <mol_properties>  (9) 
{"2": {"label": "*4", "atom_type": "Cs"}, "3": {"label": "*3", "atom_type": "O2s"}, "12": {"label": "*0", "atom_type": "Cs"}, "13": {"label": "*1", "atom_type": "Cs"}, "21": {"label": "*2", "atom_type": "H0"}}

>  <type>  (9) 
unop_5

>  <geom_source>  (9) 
Heuristics

$$$$

     RDKit          3D

 25 23  0  0  0  0  0  0  0  0999 V2000
    2.4655    0.4663   -1.9318 C   0  0  0  0  0  0  0  0  0  0  0  0
    2.0618   -0.2700   -0.6618 C   0  0  0  0  0  0  0  0  0  0  0  0
    1.5147    0.6513    0.4185 C   0  0  0  0  0  0  0  0  0  0  0  0
    0.3519    1.3520    0.0198 O   0  0  0  0  0  0  0  0  0  0  0  0
    3.2643    1.1828   -1.7270 H   0  0  0  0  0  0  0  0  0  0  0  0
    2.8239   -0.2270   -2.6940 H   0  0  0  0  0  0  0  0  0  0  0  0
    1.6219    1.0210   -2.3437 H   0  0  0  0  0  0  0  0  0  0  0  0
    1.3078   -1.0310   -0.8939 H   0  0  0  0  0  0  0  0  0  0  0  0
    2.9198   -0.8085   -0.2482 H   0  0  0  0  0  0  0  0  0  0  0  0
    1.3259    0.0795    1.3358 H   0  0  0  0  0  0  0  0  0  0  0  0
    2.2510    1.4214    0.6593 H   0  0  0  0  0  0  0  0  0  0  0  0
   -1.6176   -1.2790   -1.2736 C   0  0  0  0  0  0  0  0  0  0  0  0
   -1.6176   -1.2790    0.2491 C   0  0  0  0  0  0  0  0  0  0  0  0
   -1.6176    0.1234    0.8465 C   0  0  0  0  0  3  0  0  0  0  0  0
   -1.6176    0.1234    2.3692 C   0  0  0  0  0  0  0  0  0  0  0  0
   -0.7360   -0.7656   -1.6649 H   0  0  0  0  0  0  0  0  0  0  0  0
   -2.4991   -0.7656   -1.6649 H   0  0  0  0  0  0  0  0  0  0  0  0
   -1.6176   -2.2941   -1.6739 H   0  0  0  0  0  0  0  0  0  0  0  0
   -2.4926   -1.8249    0.6164 H   0  0  0  0  0  0  0  0  0  0  0  0
   -0.7425   -1.8249    0.6164 H   0  0  0  0  0  0  0  0  0  0  0  0
   -2.4926    0.6693    0.4792 H   0  0  0  0  0  0  0  0  0  0  0  0
   -0.5675    0.7784    0.4057 H   0  0  0  0  0  0  0  0  0  0  0  0
   -0.7360   -0.3900    2.7606 H   0  0  0  0  0  0  0  0  0  0  0  0
   -2.4991   -0.3900    2.7606 H   0  0  0  0  0  0  0  0  0  0  0  0
   -1.6176    1.1385    2.7696 H   0  0  0  0  0  0  0  0  0  0  0  0
  1  2  1  0
  1  5  1  0
  1  6  1  0
  1  7  1  0
  2  3  1  0
  2  8  1  0
  2  9  1  0
  3  4  1  0
  3 10  1  0
  3 11  1  0
  4 22  1  0
 12 13  1  0
 12 16  1  0
 12 17  1  0
 12 18  1  0
 13 14  1  0
 13 19  1  0
 13 20  1  0
 14 15  1  0
 14 21  1  0
 15 23  1  0
 15 24  1  0
 15 25  1  0
M  RAD  1  14   2
M  END
>  <reaction>  (10) 
rmg_rxn_301

>  <mol_properties>  (10) 
{"2": {"label": "*4", "atom_type": "Cs"}, "3": {"label": "*3", "atom_type": "O2s"}, "12": {"label": "*0", "atom_type": "Cs"}, "13": {"label": "*1", "atom_type": "Cs"}, "21": {"label": "*2", "atom_type": "H0"}}

>  <type>  (10) 
unop_6

>  <geom_source>  (10) 
Heuristics

$$$$

     RDKit          3D

 25 23  0  0  0  0  0  0  0  0999 V2000
    2.9984    0.4841   -1.2285 C   0  0  0  0  0  0  0  0  0  0  0  0
    2.3397    0.0195    0.0631 C   0  0  0  0  0  0  0  0  0  0  0  0
    1.3052    0.9997    0.5962 C   0  0  0  0  0  0  0  0  0  0  0  0
    0.2322    1.2222   -0.2989 O   0  0  0  0  0  0  0  0  0  0  0  0
    3.5372    1.4216   -1.0732 H   0  0  0  0  0  0  0  0  0  0  0  0
    3.7107   -0.2552   -1.5974 H   0  0  0  0  0  0  0  0  0  0  0  0
    2.2521    0.6567   -2.0045 H   0  0  0  0  0  0  0  0  0  0  0  0
    1.8595   -0.9539   -0.0906 H   0  0  0  0  0  0  0  0  0  0  0  0
    3.0958   -0.1338    0.8391 H   0  0  0  0  0  0  0  0  0  0  0  0
    0.9319    0.6556    1.5690 H   0  0  0  0  0  0  0  0  0  0  0  0
    1.7643    1.9787    0.7503 H   0  0  0  0  0  0  0  0  0  0  0  0
   -1.7372   -1.4088   -1.5923 C   0  0  0  0  0  0  0  0  0  0  0  0
   -1.7372   -1.4088   -0.0696 C   0  0  0  0  0  0  0  0  0  0  0  0
   -1.7372   -0.0064    0.5278 C   0  0  0  0  0  3  0  0  0  0  0  0
   -1.7372   -0.0064    2.0505 C   0  0  0  0  0  0  0  0  0  0  0  0
   -0.8557   -0.8954   -1.9837 H   0  0  0  0  0  0  0  0  0  0  0  0
   -2.6188   -0.8954   -1.9837 H   0  0  0  0  0  0  0  0  0  0  0  0
   -1.7372   -2.4239   -1.9927 H   0  0  0  0  0  0  0  0  0  0  0  0
   -2.6123   -1.9546    0.2977 H   0  0  0  0  0  0  0  0  0  0  0  0
   -0.8622   -1.9546    0.2977 H   0  0  0  0  0  0  0  0  0  0  0  0
   -2.6123    0.5395    0.1605 H   0  0  0  0  0  0  0  0  0  0  0  0
   -0.6872    0.6487    0.0870 H   0  0  0  0  0  0  0  0  0  0  0  0
   -0.8557   -0.5197    2.4418 H   0  0  0  0  0  0  0  0  0  0  0  0
   -2.6188   -0.5197    2.4418 H   0  0  0  0  0  0  0  0  0  0  0  0
   -1.7372    1.0087    2.4508 H   0  0  0  0  0  0  0  0  0  0  0  0
  1  2  1  0
  1  5  1  0
  1  6  1  0
  1  7  1  0
  2  3  1  0
  2  8  1  0
  2  9  1  0
  3  4  1  0
  3 10  1  0
  3 11  1  0
  4 22  1  0
 12 13  1  0
 12 16  1  0
 12 17  1  0
 12 18  1  0
 13 14  1  0
 13 19  1  0
 13 20  1  0
 14 15  1  0
 14 21  1  0
 15 23  1  0
 15 24  1  0
 15 25  1  0
M  RAD  1  14   2
M  END
>  <reaction>  (11) 
rmg_rxn_301

>  <mol_properties>  (11) 
{"2": {"label": "*4", "atom_type": "Cs"}, "3": {"label": "*3", "atom_type": "O2s"}, "12": {"label": "*0", "atom_type": "Cs"}, "13": {"label": "*1", "atom_type": "Cs"}, "21": {"label": "*2", "atom_type": "H0"}}

>  <type>  (11) 
unop_7

>  <geom_source>  (11) 
Heuristics

$$$$

     RDKit          3D

 25 23  0  0  0  0  0  0  0  0999 V2000
   -0.5570    2.2569    0.8401 C   0  0  0  0  0  0  0  0  0  0  0  0
   -0.3578    1.9208   -0.6314 C   0  0  0  0  0  0  0  0  0  0  0  0
    1.0739    1.5331   -0.9706 C   0  0  0  0  0  0  0  0  0  0  0  0
    1.5234    0.3873   -0.2724 O   0  0  0  0  0  0  0  0  0  0  0  0
    0.0541    3.1156    1.1276 H   0  0  0  0  0  0  0  0  0  0  0  0
   -1.5989    2.5002    1.0528 H   0  0  0  0  0  0  0  0  0  0  0  0
   -0.2659    1.4178    1.4727 H   0  0  0  0  0  0  0  0  0  0  0  0
   -1.0253    1.1012   -0.9219 H   0  0  0  0  0  0  0  0  0  0  0  0
   -0.6364    2.7754   -1.2554 H   0  0  0  0  0  0  0  0  0  0  0  0
    1.1749    1.3898   -2.0538 H   0  0  0  0  0  0  0  0  0  0  0  0
    1.7556    2.3363   -0.6823 H   0  0  0  0  0  0  0  0  0  0  0  0
   -0.4461   -2.2437   -1.5658 C   0  0  0  0  0  0  0  0  0  0  0  0
   -0.4461   -2.2437   -0.0431 C   0  0  0  0  0  0  0  0  0  0  0  0
   -0.4461   -0.8413    0.5543 C   0  0  0  0  0  3  0  0  0  0  0  0
   -0.4461   -0.8413    2.0770 C   0  0  0  0  0  0  0  0  0  0  0  0
    0.4355   -1.7303   -1.9571 H   0  0  0  0  0  0  0  0  0  0  0  0
   -1.3276   -1.7303   -1.9571 H   0  0  0  0  0  0  0  0  0  0  0  0
   -0.4461   -3.2588   -1.9661 H   0  0  0  0  0  0  0  0  0  0  0  0
   -1.3211   -2.7896    0.3242 H   0  0  0  0  0  0  0  0  0  0  0  0
    0.4290   -2.7896    0.3242 H   0  0  0  0  0  0  0  0  0  0  0  0
   -1.3211   -0.2954    0.1870 H   0  0  0  0  0  0  0  0  0  0  0  0
    0.6040   -0.1862    0.1135 H   0  0  0  0  0  0  0  0  0  0  0  0
    0.4355   -1.3546    2.4684 H   0  0  0  0  0  0  0  0  0  0  0  0
   -1.3276   -1.3546    2.4684 H   0  0  0  0  0  0  0  0  0  0  0  0
   -0.4461    0.1738    2.4774 H   0  0  0  0  0  0  0  0  0  0  0  0
  1  2  1  0
  1  5  1  0
  1  6  1  0
  1  7  1  0
  2  3  1  0
  2  8  1  0
  2  9  1  0
  3  4  1  0
  3 10  1  0
  3 11  1  0
  4 22  1  0
 12 13  1  0
 12 16  1  0
 12 17  1  0
 12 18  1  0
 13 14  1  0
 13 19  1  0
 13 20  1  0
 14 15  1  0
 14 21  1  0
 15 23  1  0
 15 24  1  0
 15 25  1  0
M  RAD  1  14   2
M  END
>  <reaction>  (12) 
rmg_rxn_301

>  <mol_properties>  (12) 
{"2": {"label": "*4", "atom_type": "Cs"}, "3": {"label": "*3", "atom_type": "O2s"}, "12": {"label": "*0", "atom_type": "Cs"}, "13": {"label": "*1", "atom_type": "Cs"}, "21": {"label": "*2", "atom_type": "H0"}}

>  <type>  (12) 
unop_8

>  <geom_source>  (12) 
Heuristics

$$$$

     RDKit          3D

 25 23  0  0  0  0  0  0  0  0999 V2000
   -0.9390    2.2125   -0.1632 C   0  0  0  0  0  0  0  0  0  0  0  0
   -0.2987    1.3942   -1.2760 C   0  0  0  0  0  0  0  0  0  0  0  0
    1.2045    1.2267   -1.1098 C   0  0  0  0  0  0  0  0  0  0  0  0
    1.5640    0.5591    0.0848 O   0  0  0  0  0  0  0  0  0  0  0  0
   -0.5325    3.2263   -0.1447 H   0  0  0  0  0  0  0  0  0  0  0  0
   -2.0191    2.2865   -0.2979 H   0  0  0  0  0  0  0  0  0  0  0  0
   -0.7460    1.7614    0.8106 H   0  0  0  0  0  0  0  0  0  0  0  0
   -0.7625    0.4023   -1.3257 H   0  0  0  0  0  0  0  0  0  0  0  0
   -0.4840    1.8653   -2.2462 H   0  0  0  0  0  0  0  0  0  0  0  0
    1.6208    0.7082   -1.9826 H   0  0  0  0  0  0  0  0  0  0  0  0
    1.6843    2.2063   -1.0522 H   0  0  0  0  0  0  0  0  0  0  0  0
   -0.4054   -2.0719   -1.2085 C   0  0  0  0  0  0  0  0  0  0  0  0
   -0.4054   -2.0719    0.3142 C   0  0  0  0  0  0  0  0  0  0  0  0
   -0.4054   -0.6695    0.9115 C   0  0  0  0  0  3  0  0  0  0  0  0
   -0.4054   -0.6695    2.4342 C   0  0  0  0  0  0  0  0  0  0  0  0
    0.4761   -1.5585   -1.5999 H   0  0  0  0  0  0  0  0  0  0  0  0
   -1.2869   -1.5585   -1.5999 H   0  0  0  0  0  0  0  0  0  0  0  0
   -0.4054   -3.0870   -1.6089 H   0  0  0  0  0  0  0  0  0  0  0  0
   -1.2804   -2.6178    0.6815 H   0  0  0  0  0  0  0  0  0  0  0  0
    0.4696   -2.6178    0.6815 H   0  0  0  0  0  0  0  0  0  0  0  0
   -1.2804   -0.1236    0.5442 H   0  0  0  0  0  0  0  0  0  0  0  0
    0.6446   -0.0145    0.4708 H   0  0  0  0  0  0  0  0  0  0  0  0
    0.4761   -1.1829    2.8256 H   0  0  0  0  0  0  0  0  0  0  0  0
   -1.2869   -1.1829    2.8256 H   0  0  0  0  0  0  0  0  0  0  0  0
   -0.4054    0.3456    2.8346 H   0  0  0  0  0  0  0  0  0  0  0  0
  1  2  1  0
  1  5  1  0
  1  6  1  0
  1  7  1  0
  2  3  1  0
  2  8  1  0
  2  9  1  0
  3  4  1  0
  3 10  1  0
  3 11  1  0
  4 22  1  0
 12 13  1  0
 12 16  1  0
 12 17  1  0
 12 18  1  0
 13 14  1  0
 13 19  1  0
 13 20  1  0
 14 15  1  0
 14 21  1  0
 15 23  1  0
 15 24  1  0
 15 25  1  0
M  RAD  1  14   2
M  END
>  <reaction>  (13) 
rmg_rxn_301

>  <mol_properties>  (13) 
{"2": {"label": "*4", "atom_type": "Cs"}, "3": {"label": "*3", "atom_type": "O2s"}, "12": {"label": "*0", "atom_type": "Cs"}, "13": {"label": "*1", "atom_type": "Cs"}, "21": {"label": "*2", "atom_type": "H0"}}

>  <type>  (13) 
unop_9

>  <geom_source>  (13) 
Heuristics

$$$$

     RDKit          3D

 25 23  0  0  0  0  0  0  0  0999 V2000
    3.2316    0.6257   -0.4873 C   0  0  0  0  0  0  0  0  0  0  0  0
    2.2918    0.5408    0.7075 C   0  0  0  0  0  0  0  0  0  0  0  0
    1.0389    1.3893    0.5477 C   0  0  0  0  0  0  0  0  0  0  0  0
    0.2477    1.0145   -0.5640 O   0  0  0  0  0  0  0  0  0  0  0  0
    3.5877    1.6488   -0.6283 H   0  0  0  0  0  0  0  0  0  0  0  0
    4.1025   -0.0171   -0.3520 H   0  0  0  0  0  0  0  0  0  0  0  0
    2.7230    0.3238   -1.4034 H   0  0  0  0  0  0  0  0  0  0  0  0
    1.9953   -0.5007    0.8773 H   0  0  0  0  0  0  0  0  0  0  0  0
    2.8074    0.8623    1.6175 H   0  0  0  0  0  0  0  0  0  0  0  0
    0.4471    1.3583    1.4712 H   0  0  0  0  0  0  0  0  0  0  0  0
    1.3147    2.4313    0.3713 H   0  0  0  0  0  0  0  0  0  0  0  0
   -1.7217   -1.6165   -1.8573 C   0  0  0  0  0  0  0  0  0  0  0  0
   -1.7217   -1.6165   -0.3346 C   0  0  0  0  0  0  0  0  0  0  0  0
   -1.7217   -0.2141    0.2627 C   0  0  0  0  0  3  0  0  0  0  0  0
   -1.7217   -0.2141    1.7854 C   0  0  0  0  0  0  0  0  0  0  0  0
   -0.8402   -1.1032   -2.2487 H   0  0  0  0  0  0  0  0  0  0  0  0
   -2.6033   -1.1032   -2.2487 H   0  0  0  0  0  0  0  0  0  0  0  0
   -1.7217   -2.6316   -2.2577 H   0  0  0  0  0  0  0  0  0  0  0  0
   -2.5968   -2.1624    0.0327 H   0  0  0  0  0  0  0  0  0  0  0  0
   -0.8467   -2.1624    0.0327 H   0  0  0  0  0  0  0  0  0  0  0  0
   -2.5968    0.3317   -0.1046 H   0  0  0  0  0  0  0  0  0  0  0  0
   -0.6717    0.4409   -0.1780 H   0  0  0  0  0  0  0  0  0  0  0  0
   -0.8402   -0.7275    2.1768 H   0  0  0  0  0  0  0  0  0  0  0  0
   -2.6033   -0.7275    2.1768 H   0  0  0  0  0  0  0  0  0  0  0  0
   -1.7217    0.8010    2.1858 H   0  0  0  0  0  0  0  0  0  0  0  0
  1  2  1  0
  1  5  1  0
  1  6  1  0
  1  7  1  0
  2  3  1  0
  2  8  1  0
  2  9  1  0
  3  4  1  0
  3 10  1  0
  3 11  1  0
  4 22  1  0
 12 13  1  0
 12 16  1  0
 12 17  1  0
 12 18  1  0
 13 14  1  0
 13 19  1  0
 13 20  1  0
 14 15  1  0
 14 21  1  0
 15 23  1  0
 15 24  1  0
 15 25  1  0
M  RAD  1  14   2
M  END
>  <reaction>  (14) 
rmg_rxn_301

>  <mol_properties>  (14) 
{"2": {"label": "*4", "atom_type": "Cs"}, "3": {"label": "*3", "atom_type": "O2s"}, "12": {"label": "*0", "atom_type": "Cs"}, "13": {"label": "*1", "atom_type": "Cs"}, "21": {"label": "*2", "atom_type": "H0"}}

>  <type>  (14) 
unop_10

>  <geom_source>  (14) 
Heuristics

$$$$

     RDKit          3D

 25 21  0  0  0  0  0  0  0  0999 V2000
   -0.4531    1.5753   -1.9431 C   0  0  0  0  0  3  0  0  0  0  0  0
    0.3598    0.3124   -1.6936 C   0  0  0  0  0  2  0  0  0  0  0  0
    1.5823    0.5480   -0.8188 C   0  0  0  0  0  3  0  0  0  0  0  0
    1.2618    1.0343    0.4708 O   0  0  0  0  0  0  0  0  0  0  0  0
    0.1440    2.3225   -2.4708 H   0  0  0  0  0  0  0  0  0  0  0  0
   -1.3367    1.3641   -2.5472 H   0  0  0  0  0  0  0  0  0  0  0  0
   -0.7804    2.0185   -1.0021 H   0  0  0  0  0  0  0  0  0  0  0  0
   -0.2703   -0.4517   -1.2238 H   0  0  0  0  0  0  0  0  0  0  0  0
    0.6972   -0.1137   -2.6433 H   0  0  0  0  0  0  0  0  0  0  0  0
    2.1737   -0.3735   -0.7483 H   0  0  0  0  0  0  0  0  0  0  0  0
    2.2203    1.3121   -1.2684 H   0  0  0  0  0  0  0  0  0  0  0  0
   -0.7076   -1.5967   -0.8226 C   0  0  0  0  0  0  0  0  0  0  0  0
   -0.7076   -1.5967    0.7001 C   0  0  0  0  0  0  0  0  0  0  0  0
   -0.7076   -0.1943    1.2975 C   0  0  0  0  0  3  0  0  0  0  0  0
   -0.7076   -0.1943    2.8202 C   0  0  0  0  0  0  0  0  0  0  0  0
    0.1739   -1.0833   -1.2140 H   0  0  0  0  0  0  0  0  0  0  0  0
   -1.5891   -1.0833   -1.2140 H   0  0  0  0  0  0  0  0  0  0  0  0
   -0.7076   -2.6118   -1.2230 H   0  0  0  0  0  0  0  0  0  0  0  0
   -1.5826   -2.1426    1.0674 H   0  0  0  0  0  0  0  0  0  0  0  0
    0.1674   -2.1426    1.0674 H   0  0  0  0  0  0  0  0  0  0  0  0
   -1.5826    0.3516    0.9302 H   0  0  0  0  0  0  0  0  0  0  0  0
    0.3424    0.4608    0.8567 H   0  0  0  0  0  0  0  0  0  0  0  0
    0.1739   -0.7076    3.2115 H   0  0  0  0  0  0  0  0  0  0  0  0
   -1.5891   -0.7076    3.2115 H   0  0  0  0  0  0  0  0  0  0  0  0
   -0.7076    0.8208    3.2205 H   0  0  0  0  0  0  0  0  0  0  0  0
  1  5  1  0
  1  6  1  0
  1  7  1  0
  2  8  1  0
  2  9  1  0
  3  4  1  0
  3 10  1  0
  3 11  1  0
  4 22  1  0
 12 13  1  0
 12 16  1  0
 12 17  1  0
 12 18  1  0
 13 14  1  0
 13 19  1  0
 13 20  1  0
 14 15  1  0
 14 21  1  0
 15 23  1  0
 15 24  1  0
 15 25  1  0
M  RAD  4   1   2   2   3   3   2  14   2
M  END
>  <reaction>  (15) 
rmg_rxn_301

>  <mol_properties>  (15) 
{"2": {"label": "*4", "atom_type": "Cs"}, "3": {"label": "*3", "atom_type": "O2s"}, "12": {"label": "*0", "atom_type": "Cs"}, "13": {"label": "*1", "atom_type": "Cs"}, "21": {"label": "*2", "atom_type": "H0"}}

>  <type>  (15) 
unop_11

>  <geom_source>  (15) 
Heuristics

$$$$

     RDKit          3D

 25 23  0  0  0  0  0  0  0  0999 V2000
    0.7775   -1.0279   -0.2868 O   0  0  0  0  0  0  0  0  0  0  0  0
    2.8805    0.0894   -0.6064 C   0  0  0  0  0  0  0  0  0  0  0  0
   -2.6989   -0.0153   -0.5317 C   0  0  0  0  0  0  0  0  0  0  0  0
    1.3743    0.0955   -0.8688 C   0  0  0  0  0  0  0  0  0  0  0  0
    3.1998    0.2401    0.8795 C   0  0  0  0  0  0  0  0  0  0  0  0
   -2.2069    1.4292   -0.5177 C   0  0  0  0  0  0  0  0  0  0  0  0
   -1.3556   -0.9641    1.4147 C   0  0  0  0  0  0  0  0  0  0  0  0
   -1.6044   -0.9925   -0.0911 C   0  0  0  0  0  3  0  0  0  0  0  0
    3.3203   -0.8589   -0.9846 H   0  0  0  0  0  0  0  0  0  0  0  0
    3.3471    0.9319   -1.1612 H   0  0  0  0  0  0  0  0  0  0  0  0
   -3.5972   -0.1172    0.1153 H   0  0  0  0  0  0  0  0  0  0  0  0
   -2.9979   -0.2700   -1.5713 H   0  0  0  0  0  0  0  0  0  0  0  0
    1.1987    0.0756   -1.9663 H   0  0  0  0  0  0  0  0  0  0  0  0
    0.9189    1.0218   -0.4546 H   0  0  0  0  0  0  0  0  0  0  0  0
    4.3009    0.2542    1.0224 H   0  0  0  0  0  0  0  0  0  0  0  0
    2.7794    1.1912    1.2703 H   0  0  0  0  0  0  0  0  0  0  0  0
    2.7799   -0.6114    1.4558 H   0  0  0  0  0  0  0  0  0  0  0  0
   -2.0093    1.7670    0.5208 H   0  0  0  0  0  0  0  0  0  0  0  0
   -1.2793    1.5271   -1.1212 H   0  0  0  0  0  0  0  0  0  0  0  0
   -2.9857    2.0891   -0.9547 H   0  0  0  0  0  0  0  0  0  0  0  0
   -2.2929   -1.1862    1.9679 H   0  0  0  0  0  0  0  0  0  0  0  0
   -0.5983   -1.7329    1.6739 H   0  0  0  0  0  0  0  0  0  0  0  0
   -0.9645    0.0257    1.7268 H   0  0  0  0  0  0  0  0  0  0  0  0
   -1.8885   -2.0243   -0.3913 H   0  0  0  0  0  0  0  0  0  0  0  0
   -0.3979   -0.9372   -0.5398 H   0  0  0  0  0  0  0  0  0  0  0  0
  1  4  1  0
  1 25  1  0
  2  5  1  0
  2  4  1  0
  2  9  1  0
  2 10  1  0
  3  6  1  0
  3  8  1  0
  3 11  1  0
  3 12  1  0
  4 13  1  0
  4 14  1  0
  5 15  1  0
  5 16  1  0
  5 17  1  0
  6 18  1  0
  6 19  1  0
  6 20  1  0
  7  8  1  0
  7 21  1  0
  7 22  1  0
  7 23  1  0
  8 24  1  0
M  RAD  1   8   2
M  END
>  <reaction>  (16) 
rmg_rxn_301

>  <mol_properties>  (16) 
{"2": {"label": "*4", "atom_type": "Cs"}, "3": {"label": "*3", "atom_type": "O2s"}, "12": {"label": "*0", "atom_type": "Cs"}, "13": {"label": "*1", "atom_type": "Cs"}, "21": {"label": "*2", "atom_type": "H0"}}

>  <type>  (16) 
unop_12

>  <geom_source>  (16) 
AutoTST

$$$$

     RDKit          3D

 25 23  0  0  0  0  0  0  0  0999 V2000
   -0.9058    1.9554   -1.1071 C   0  0  0  0  0  0  0  0  0  0  0  0
   -0.0350    0.8097   -1.6039 C   0  0  0  0  0  0  0  0  0  0  0  0
    1.3912    0.8668   -1.0767 C   0  0  0  0  0  0  0  0  0  0  0  0
    1.4690    0.7965    0.3345 O   0  0  0  0  0  0  0  0  0  0  0  0
   -0.5091    2.9168   -1.4414 H   0  0  0  0  0  0  0  0  0  0  0  0
   -1.9273    1.8661   -1.4794 H   0  0  0  0  0  0  0  0  0  0  0  0
   -0.9395    1.9731   -0.0173 H   0  0  0  0  0  0  0  0  0  0  0  0
   -0.4804   -0.1502   -1.3180 H   0  0  0  0  0  0  0  0  0  0  0  0
    0.0055    0.8124   -2.6974 H   0  0  0  0  0  0  0  0  0  0  0  0
    1.9911    0.0716   -1.5368 H   0  0  0  0  0  0  0  0  0  0  0  0
    1.8503    1.8203   -1.3469 H   0  0  0  0  0  0  0  0  0  0  0  0
   -0.5005   -1.8344   -0.9589 C   0  0  0  0  0  0  0  0  0  0  0  0
   -0.5005   -1.8344    0.5638 C   0  0  0  0  0  0  0  0  0  0  0  0
   -0.5005   -0.4321    1.1611 C   0  0  0  0  0  3  0  0  0  0  0  0
   -0.5005   -0.4321    2.6839 C   0  0  0  0  0  0  0  0  0  0  0  0
    0.3810   -1.3211   -1.3503 H   0  0  0  0  0  0  0  0  0  0  0  0
   -1.3820   -1.3211   -1.3503 H   0  0  0  0  0  0  0  0  0  0  0  0
   -0.5005   -2.8495   -1.3593 H   0  0  0  0  0  0  0  0  0  0  0  0
   -1.3755   -2.3803    0.9311 H   0  0  0  0  0  0  0  0  0  0  0  0
    0.3746   -2.3803    0.9311 H   0  0  0  0  0  0  0  0  0  0  0  0
   -1.3755    0.1138    0.7938 H   0  0  0  0  0  0  0  0  0  0  0  0
    0.5496    0.2230    0.7204 H   0  0  0  0  0  0  0  0  0  0  0  0
    0.3810   -0.9454    3.0752 H   0  0  0  0  0  0  0  0  0  0  0  0
   -1.3820   -0.9454    3.0752 H   0  0  0  0  0  0  0  0  0  0  0  0
   -0.5005    0.5830    3.0842 H   0  0  0  0  0  0  0  0  0  0  0  0
  1  2  1  0
  1  5  1  0
  1  6  1  0
  1  7  1  0
  2  3  1  0
  2  8  1  0
  2  9  1  0
  3  4  1  0
  3 10  1  0
  3 11  1  0
  4 22  1  0
 12 13  1  0
 12 16  1  0
 12 17  1  0
 12 18  1  0
 13 14  1  0
 13 19  1  0
 13 20  1  0
 14 15  1  0
 14 21  1  0
 15 23  1  0
 15 24  1  0
 15 25  1  0
M  RAD  1  14   2
M  END
>  <reaction>  (17) 
rmg_rxn_301

>  <mol_properties>  (17) 
{"2": {"label": "*4", "atom_type": "Cs"}, "3": {"label": "*3", "atom_type": "O2s"}, "12": {"label": "*0", "atom_type": "Cs"}, "13": {"label": "*1", "atom_type": "Cs"}, "21": {"label": "*2", "atom_type": "H0"}}

>  <type>  (17) 
unop_13

>  <geom_source>  (17) 
gaussian_log

$$$$
