
     RDKit          3D

  9  8  0  0  0  0  0  0  0  0999 V2000
   -0.8818   -0.3578    0.1297 C   0  0  0  0  0  0  0  0  0  0  0  0
    0.6153   -0.3021   -0.1188 C   0  0  0  0  0  0  0  0  0  0  0  0
    1.5354   -1.7170    0.5545 S   0  0  0  0  0  0  0  0  0  0  0  0
   -1.1018   -0.3317    1.1984 H   0  0  0  0  0  0  0  0  0  0  0  0
   -1.3114   -1.2723   -0.2799 H   0  0  0  0  0  0  0  0  0  0  0  0
   -1.3767    0.4976   -0.3363 H   0  0  0  0  0  0  0  0  0  0  0  0
    1.0467    0.6194    0.2718 H   0  0  0  0  0  0  0  0  0  0  0  0
    0.8295   -0.3275   -1.1882 H   0  0  0  0  0  0  0  0  0  0  0  0
    1.2306   -1.5077    1.8423 H   0  0  0  0  0  0  0  0  0  0  0  0
  1  2  1  0
  1  4  1  0
  1  5  1  0
  1  6  1  0
  2  3  1  0
  2  7  1  0
  2  8  1  0
  3  9  1  0
M  END
>  <reaction>  (1) 
rmg_rxn_509

>  <mol_properties>  (1) 
{"2": {"label": "donator", "atom_type": "S2s"}, "8": {"label": "d_hydrogen", "atom_type": "H0"}}

>  <type>  (1) 
r1h

$$$$

     RDKit          3D

 10  9  0  0  0  0  0  0  0  0999 V2000
    1.4352    0.2660   -0.1351 C   0  0  0  0  0  3  0  0  0  0  0  0
    0.2236   -0.3243    0.4850 C   0  0  0  0  0  0  0  0  0  0  0  0
   -0.8893    0.6872    0.7364 C   0  0  0  0  0  0  0  0  0  0  0  0
    2.3577   -0.2958   -0.1940 H   0  0  0  0  0  0  0  0  0  0  0  0
    1.3935    1.2286   -0.6287 H   0  0  0  0  0  0  0  0  0  0  0  0
   -0.1633   -1.1318   -0.1556 H   0  0  0  0  0  0  0  0  0  0  0  0
    0.4945   -0.8215    1.4240 H   0  0  0  0  0  0  0  0  0  0  0  0
   -1.1991    1.1627   -0.1967 H   0  0  0  0  0  0  0  0  0  0  0  0
   -1.7660    0.2103    1.1768 H   0  0  0  0  0  0  0  0  0  0  0  0
   -0.5545    1.4732    1.4159 H   0  0  0  0  0  0  0  0  0  0  0  0
  1  2  1  0
  1  4  1  0
  1  5  1  0
  2  3  1  0
  2  6  1  0
  2  7  1  0
  3  8  1  0
  3  9  1  0
  3 10  1  0
M  RAD  1   1   2
M  END
>  <reaction>  (2) 
rmg_rxn_509

>  <mol_properties>  (2) 
{"0": {"label": "acceptor", "atom_type": "Cs"}}

>  <type>  (2) 
r2

$$$$

     RDKit          3D

 11 10  0  0  0  0  0  0  0  0999 V2000
   -1.2710    0.1907   -0.2084 C   0  0  0  0  0  0  0  0  0  0  0  0
    0.0202   -0.6130   -0.2928 C   0  0  0  0  0  0  0  0  0  0  0  0
    0.1086   -1.6953    0.7756 C   0  0  0  0  0  0  0  0  0  0  0  0
   -1.3607    0.6851    0.7620 H   0  0  0  0  0  0  0  0  0  0  0  0
   -2.1429   -0.4567   -0.3299 H   0  0  0  0  0  0  0  0  0  0  0  0
   -1.3158    0.9602   -0.9809 H   0  0  0  0  0  0  0  0  0  0  0  0
    0.8757    0.0616   -0.1992 H   0  0  0  0  0  0  0  0  0  0  0  0
    0.0997   -1.0712   -1.2825 H   0  0  0  0  0  0  0  0  0  0  0  0
   -0.7198   -2.4022    0.6850 H   0  0  0  0  0  0  0  0  0  0  0  0
    1.0395   -2.2596    0.6989 H   0  0  0  0  0  0  0  0  0  0  0  0
    0.0624   -1.2603    1.7770 H   0  0  0  0  0  0  0  0  0  0  0  0
  1  2  1  0
  1  4  1  0
  1  5  1  0
  1  6  1  0
  2  3  1  0
  2  7  1  0
  2  8  1  0
  3  9  1  0
  3 10  1  0
  3 11  1  0
M  END
>  <reaction>  (3) 
rmg_rxn_509

>  <mol_properties>  (3) 
{"0": {"label": "a_hydrogen", "atom_type": "H0"}, "1": {"label": "acceptor", "atom_type": "Cs"}}

>  <type>  (3) 
r2h

$$$$

     RDKit          3D

 19 17  0  0  0  0  0  0  0  0999 V2000
   -0.7187   -2.0578   -0.7118 C   0  0  0  0  0  0  0  0  0  0  0  0
   -1.1305   -1.4927    0.6372 C   0  0  0  0  0  0  0  0  0  0  0  0
   -1.4014    0.3025    0.6457 S   0  0  0  0  0  0  0  0  0  0  0  0
    0.2346   -1.6388   -1.0378 H   0  0  0  0  0  0  0  0  0  0  0  0
   -1.4626   -1.8239   -1.4742 H   0  0  0  0  0  0  0  0  0  0  0  0
   -0.6095   -3.1439   -0.6557 H   0  0  0  0  0  0  0  0  0  0  0  0
   -0.3967   -1.7385    1.4058 H   0  0  0  0  0  0  0  0  0  0  0  0
   -2.0798   -1.9239    0.9593 H   0  0  0  0  0  0  0  0  0  0  0  0
    0.0083    0.6408    0.4885 H   0  0  0  0  0  0  0  0  0  0  0  0
    1.5381    0.8997    0.3056 C   0  0  0  0  0  3  0  0  0  0  0  0
    1.6172    1.7454   -0.9234 C   0  0  0  0  0  0  0  0  0  0  0  0
    1.2013    1.0152   -2.1944 C   0  0  0  0  0  0  0  0  0  0  0  0
    1.7277    1.3749    1.2629 H   0  0  0  0  0  0  0  0  0  0  0  0
    1.8923   -0.1255    0.2328 H   0  0  0  0  0  0  0  0  0  0  0  0
    1.0059    2.6426   -0.7893 H   0  0  0  0  0  0  0  0  0  0  0  0
    2.6498    2.1065   -1.0297 H   0  0  0  0  0  0  0  0  0  0  0  0
    0.1600    0.6952   -2.1307 H   0  0  0  0  0  0  0  0  0  0  0  0
    1.3075    1.6582   -3.0688 H   0  0  0  0  0  0  0  0  0  0  0  0
    1.8184    0.1277   -2.3537 H   0  0  0  0  0  0  0  0  0  0  0  0
  1  2  1  0
  1  4  1  0
  1  5  1  0
  1  6  1  0
  2  3  1  0
  2  7  1  0
  2  8  1  0
  3  9  1  0
 10 11  1  0
 10 13  1  0
 10 14  1  0
 11 12  1  0
 11 15  1  0
 11 16  1  0
 12 17  1  0
 12 18  1  0
 12 19  1  0
M  RAD  1  10   2
M  END
>  <reaction>  (4) 
rmg_rxn_509

>  <mol_properties>  (4) 
{"1": {"label": "*0", "atom_type": "Cs"}, "2": {"label": "*1", "atom_type": "S2s"}, "8": {"label": "*2", "atom_type": "H0"}, "9": {"label": "*3", "atom_type": "Cs"}, "10": {"label": "*4", "atom_type": "Cs"}}

>  <type>  (4) 
ts

$$$$

     RDKit          3D

 19 17  0  0  0  0  0  0  0  0999 V2000
   -1.0153   -1.8538   -0.9297 C   0  0  0  0  0  0  0  0  0  0  0  0
   -1.0153   -1.8538    0.5890 C   0  0  0  0  0  0  0  0  0  0  0  0
   -1.0153   -0.1965    1.3339 S   0  0  0  0  0  1  0  0  0  0  0  0
   -0.1086   -1.3884   -1.3205 H   0  0  0  0  0  0  0  0  0  0  0  0
   -1.8712   -1.3026   -1.3198 H   0  0  0  0  0  0  0  0  0  0  0  0
   -1.0583   -2.8772   -1.3100 H   0  0  0  0  0  0  0  0  0  0  0  0
   -0.1720   -2.4200    0.9841 H   0  0  0  0  0  0  0  0  0  0  0  0
   -1.9229   -2.3209    0.9741 H   0  0  0  0  0  0  0  0  0  0  0  0
    0.3945    0.2855    0.7297 H   0  0  0  0  0  0  0  0  0  0  0  0
    1.5443    0.6787    0.2369 C   0  0  0  0  0  0  0  0  0  0  0  0
    1.3689    1.9159   -0.6344 C   0  0  0  0  0  0  0  0  0  0  0  0
    1.3275    1.5856   -2.1209 C   0  0  0  0  0  0  0  0  0  0  0  0
    1.5715    0.9353    1.2972 H   0  0  0  0  0  0  0  0  0  0  0  0
    2.4743    0.1588   -0.0056 H   0  0  0  0  0  0  0  0  0  0  0  0
    0.4482    2.4333   -0.3507 H   0  0  0  0  0  0  0  0  0  0  0  0
    2.1853    2.6168   -0.4398 H   0  0  0  0  0  0  0  0  0  0  0  0
    0.4998    0.9093   -2.3479 H   0  0  0  0  0  0  0  0  0  0  0  0
    1.2015    2.4836   -2.7280 H   0  0  0  0  0  0  0  0  0  0  0  0
    2.2507    1.0943   -2.4377 H   0  0  0  0  0  0  0  0  0  0  0  0
  1  2  1  0
  1  4  1  0
  1  5  1  0
  1  6  1  0
  2  3  1  0
  2  7  1  0
  2  8  1  0
  9 10  1  0
 10 11  1  0
 10 13  1  0
 10 14  1  0
 11 12  1  0
 11 15  1  0
 11 16  1  0
 12 17  1  0
 12 18  1  0
 12 19  1  0
M  RAD  1   3   2
M  END
>  <reaction>  (5) 
rmg_rxn_509

>  <mol_properties>  (5) 
{"1": {"label": "*0", "atom_type": "Cs"}, "2": {"label": "*1", "atom_type": "S2s"}, "8": {"label": "*2", "atom_type": "H0"}, "9": {"label": "*3", "atom_type": "Cs"}, "10": {"label": "*4", "atom_type": "Cs"}}

>  <type>  (5) 
unop_1

>  <geom_source>  (5) 
Heuristics

$$$$

     RDKit          3D

 19 17  0  0  0  0  0  0  0  0999 V2000
   -1.2131   -1.1677   -1.0265 C   0  0  0  0  0  0  0  0  0  0  0  0
   -1.2131   -1.1677    0.4922 C   0  0  0  0  0  0  0  0  0  0  0  0
   -1.2131    0.4897    1.2372 S   0  0  0  0  0  1  0  0  0  0  0  0
   -0.3064   -0.7022   -1.4172 H   0  0  0  0  0  0  0  0  0  0  0  0
   -2.0690   -0.6165   -1.4166 H   0  0  0  0  0  0  0  0  0  0  0  0
   -1.2561   -2.1910   -1.4068 H   0  0  0  0  0  0  0  0  0  0  0  0
   -0.3698   -1.7338    0.8873 H   0  0  0  0  0  0  0  0  0  0  0  0
   -2.1207   -1.6347    0.8773 H   0  0  0  0  0  0  0  0  0  0  0  0
    0.1967    0.9717    0.6329 H   0  0  0  0  0  0  0  0  0  0  0  0
    1.3465    1.3648    0.1401 C   0  0  0  0  0  0  0  0  0  0  0  0
    1.6202    0.6982   -1.2020 C   0  0  0  0  0  0  0  0  0  0  0  0
    2.0975   -0.7410   -1.0557 C   0  0  0  0  0  0  0  0  0  0  0  0
    1.0059    2.3940    0.0148 H   0  0  0  0  0  0  0  0  0  0  0  0
    2.2475    1.3834    0.7581 H   0  0  0  0  0  0  0  0  0  0  0  0
    0.7125    0.7206   -1.8114 H   0  0  0  0  0  0  0  0  0  0  0  0
    2.3697    1.2765   -1.7495 H   0  0  0  0  0  0  0  0  0  0  0  0
    1.3519   -1.3491   -0.5379 H   0  0  0  0  0  0  0  0  0  0  0  0
    2.2881   -1.2010   -2.0268 H   0  0  0  0  0  0  0  0  0  0  0  0
    3.0222   -0.7888   -0.4755 H   0  0  0  0  0  0  0  0  0  0  0  0
  1  2  1  0
  1  4  1  0
  1  5  1  0
  1  6  1  0
  2  3  1  0
  2  7  1  0
  2  8  1  0
  9 10  1  0
 10 11  1  0
 10 13  1  0
 10 14  1  0
 11 12  1  0
 11 15  1  0
 11 16  1  0
 12 17  1  0
 12 18  1  0
 12 19  1  0
M  RAD  1   3   2
M  END
>  <reaction>  (6) 
rmg_rxn_509

>  <mol_properties>  (6) 
{"1": {"label": "*0", "atom_type": "Cs"}, "2": {"label": "*1", "atom_type": "S2s"}, "8": {"label": "*2", "atom_type": "H0"}, "9": {"label": "*3", "atom_type": "Cs"}, "10": {"label": "*4", "atom_type": "Cs"}}

>  <type>  (6) 
unop_2

>  <geom_source>  (6) 
Heuristics

$$$$

     RDKit          3D

 19 17  0  0  0  0  0  0  0  0999 V2000
   -0.9998   -2.0308   -1.1274 C   0  0  0  0  0  0  0  0  0  0  0  0
   -0.9998   -2.0308    0.3912 C   0  0  0  0  0  0  0  0  0  0  0  0
   -0.9998   -0.3735    1.1362 S   0  0  0  0  0  1  0  0  0  0  0  0
   -0.0931   -1.5654   -1.5182 H   0  0  0  0  0  0  0  0  0  0  0  0
   -1.8557   -1.4796   -1.5175 H   0  0  0  0  0  0  0  0  0  0  0  0
   -1.0428   -3.0542   -1.5077 H   0  0  0  0  0  0  0  0  0  0  0  0
   -0.1565   -2.5969    0.7863 H   0  0  0  0  0  0  0  0  0  0  0  0
   -1.9074   -2.4979    0.7764 H   0  0  0  0  0  0  0  0  0  0  0  0
    0.4100    0.1086    0.5320 H   0  0  0  0  0  0  0  0  0  0  0  0
    1.5598    0.5017    0.0392 C   0  0  0  0  0  0  0  0  0  0  0  0
    1.5737    2.0100   -0.1741 C   0  0  0  0  0  0  0  0  0  0  0  0
    1.0455    2.4137   -1.5447 C   0  0  0  0  0  0  0  0  0  0  0  0
    1.9413    0.2324    1.0255 H   0  0  0  0  0  0  0  0  0  0  0  0
    2.1764   -0.0041   -0.7078 H   0  0  0  0  0  0  0  0  0  0  0  0
    0.9754    2.4931    0.6034 H   0  0  0  0  0  0  0  0  0  0  0  0
    2.5935    2.3854   -0.0519 H   0  0  0  0  0  0  0  0  0  0  0  0
    0.0151    2.0766   -1.6810 H   0  0  0  0  0  0  0  0  0  0  0  0
    1.0633    3.4966   -1.6784 H   0  0  0  0  0  0  0  0  0  0  0  0
    1.6459    1.9681   -2.3415 H   0  0  0  0  0  0  0  0  0  0  0  0
  1  2  1  0
  1  4  1  0
  1  5  1  0
  1  6  1  0
  2  3  1  0
  2  7  1  0
  2  8  1  0
  9 10  1  0
 10 11  1  0
 10 13  1  0
 10 14  1  0
 11 12  1  0
 11 15  1  0
 11 16  1  0
 12 17  1  0
 12 18  1  0
 12 19  1  0
M  RAD  1   3   2
M  END
>  <reaction>  (7) 
rmg_rxn_509

>  <mol_properties>  (7) 
{"1": {"label": "*0", "atom_type": "Cs"}, "2": {"label": "*1", "atom_type": "S2s"}, "8": {"label": "*2", "atom_type": "H0"}, "9": {"label": "*3", "atom_type": "Cs"}, "10": {"label": "*4", "atom_type": "Cs"}}

>  <type>  (7) 
unop_3

>  <geom_source>  (7) 
Heuristics

$$$$

     RDKit          3D

 19 17  0  0  0  0  0  0  0  0999 V2000
   -1.3426   -1.2137   -1.7033 C   0  0  0  0  0  0  0  0  0  0  0  0
   -1.3426   -1.2137   -0.1847 C   0  0  0  0  0  0  0  0  0  0  0  0
   -1.3426    0.4436    0.5603 S   0  0  0  0  0  1  0  0  0  0  0  0
   -0.4360   -0.7483   -2.0941 H   0  0  0  0  0  0  0  0  0  0  0  0
   -2.1986   -0.6625   -2.0934 H   0  0  0  0  0  0  0  0  0  0  0  0
   -1.3857   -2.2371   -2.0836 H   0  0  0  0  0  0  0  0  0  0  0  0
   -0.4994   -1.7798    0.2104 H   0  0  0  0  0  0  0  0  0  0  0  0
   -2.2502   -1.6808    0.2005 H   0  0  0  0  0  0  0  0  0  0  0  0
    0.0671    0.9257   -0.0439 H   0  0  0  0  0  0  0  0  0  0  0  0
    1.2169    1.3188   -0.5367 C   0  0  0  0  0  0  0  0  0  0  0  0
    2.3473    0.4081   -0.0748 C   0  0  0  0  0  0  0  0  0  0  0  0
    2.0651   -0.2390    1.2750 C   0  0  0  0  0  0  0  0  0  0  0  0
    1.4373    1.7726   -1.5044 H   0  0  0  0  0  0  0  0  0  0  0  0
    1.0474    2.1256    0.1804 H   0  0  0  0  0  0  0  0  0  0  0  0
    2.5164   -0.3707   -0.8236 H   0  0  0  0  0  0  0  0  0  0  0  0
    3.2763    0.9821   -0.0162 H   0  0  0  0  0  0  0  0  0  0  0  0
    1.1565   -0.8447    1.2355 H   0  0  0  0  0  0  0  0  0  0  0  0
    2.8853   -0.8870    1.5886 H   0  0  0  0  0  0  0  0  0  0  0  0
    1.9223    0.5187    2.0493 H   0  0  0  0  0  0  0  0  0  0  0  0
  1  2  1  0
  1  4  1  0
  1  5  1  0
  1  6  1  0
  2  3  1  0
  2  7  1  0
  2  8  1  0
  9 10  1  0
 10 11  1  0
 10 13  1  0
 10 14  1  0
 11 12  1  0
 11 15  1  0
 11 16  1  0
 12 17  1  0
 12 18  1  0
 12 19  1  0
M  RAD  1   3   2
M  END
>  <reaction>  (8) 
rmg_rxn_509

>  <mol_properties>  (8) 
{"1": {"label": "*0", "atom_type": "Cs"}, "2": {"label": "*1", "atom_type": "S2s"}, "8": {"label": "*2", "atom_type": "H0"}, "9": {"label": "*3", "atom_type": "Cs"}, "10": {"label": "*4", "atom_type": "Cs"}}

>  <type>  (8) 
unop_4

>  <geom_source>  (8) 
Heuristics

$$$$

     RDKit          3D

 19 17  0  0  0  0  0  0  0  0999 V2000
   -1.0112   -2.0924   -1.4381 C   0  0  0  0  0  0  0  0  0  0  0  0
   -1.0112   -2.0924    0.0806 C   0  0  0  0  0  0  0  0  0  0  0  0
   -1.0112   -0.4351    0.8256 S   0  0  0  0  0  1  0  0  0  0  0  0
   -0.1045   -1.6270   -1.8288 H   0  0  0  0  0  0  0  0  0  0  0  0
   -1.8671   -1.5412   -1.8282 H   0  0  0  0  0  0  0  0  0  0  0  0
   -1.0542   -3.1158   -1.8184 H   0  0  0  0  0  0  0  0  0  0  0  0
   -0.1679   -2.6585    0.4757 H   0  0  0  0  0  0  0  0  0  0  0  0
   -1.9188   -2.5595    0.4657 H   0  0  0  0  0  0  0  0  0  0  0  0
    0.3986    0.0470    0.2213 H   0  0  0  0  0  0  0  0  0  0  0  0
    1.5484    0.4401   -0.2715 C   0  0  0  0  0  0  0  0  0  0  0  0
    1.8759    1.8590    0.1756 C   0  0  0  0  0  0  0  0  0  0  0  0
    0.8257    2.8704   -0.2656 C   0  0  0  0  0  0  0  0  0  0  0  0
    2.3114   -0.2691    0.0536 H   0  0  0  0  0  0  0  0  0  0  0  0
    1.4779    0.3801   -1.3603 H   0  0  0  0  0  0  0  0  0  0  0  0
    1.9710    1.8847    1.2647 H   0  0  0  0  0  0  0  0  0  0  0  0
    2.8517    2.1502   -0.2230 H   0  0  0  0  0  0  0  0  0  0  0  0
   -0.1553    2.6194    0.1452 H   0  0  0  0  0  0  0  0  0  0  0  0
    1.0776    3.8799    0.0636 H   0  0  0  0  0  0  0  0  0  0  0  0
    0.7324    2.8869   -1.3542 H   0  0  0  0  0  0  0  0  0  0  0  0
  1  2  1  0
  1  4  1  0
  1  5  1  0
  1  6  1  0
  2  3  1  0
  2  7  1  0
  2  8  1  0
  9 10  1  0
 10 11  1  0
 10 13  1  0
 10 14  1  0
 11 12  1  0
 11 15  1  0
 11 16  1  0
 12 17  1  0
 12 18  1  0
 12 19  1  0
M  RAD  1   3   2
M  END
>  <reaction>  (9) 
rmg_rxn_509

>  <mol_properties>  (9) 
{"1": {"label": "*0", "atom_type": "Cs"}, "2": {"label": "*1", "atom_type": "S2s"}, "8": {"label": "*2", "atom_type": "H0"}, "9": {"label": "*3", "atom_type": "Cs"}, "10": {"label": "*4", "atom_type": "Cs"}}

>  <type>  (9) 
unop_5

>  <geom_source>  (9) 
Heuristics

$$$$

     RDKit          3D

 19 17  0  0  0  0  0  0  0  0999 V2000
   -1.3181   -1.4287   -1.8466 C   0  0  0  0  0  0  0  0  0  0  0  0
   -1.3181   -1.4287   -0.3279 C   0  0  0  0  0  0  0  0  0  0  0  0
   -1.3181    0.2286    0.4171 S   0  0  0  0  0  1  0  0  0  0  0  0
   -0.4114   -0.9633   -2.2373 H   0  0  0  0  0  0  0  0  0  0  0  0
   -2.1741   -0.8775   -2.2367 H   0  0  0  0  0  0  0  0  0  0  0  0
   -1.3612   -2.4521   -2.2268 H   0  0  0  0  0  0  0  0  0  0  0  0
   -0.4748   -1.9948    0.0672 H   0  0  0  0  0  0  0  0  0  0  0  0
   -2.2257   -1.8958    0.0572 H   0  0  0  0  0  0  0  0  0  0  0  0
    0.0917    0.7107   -0.1871 H   0  0  0  0  0  0  0  0  0  0  0  0
    1.2415    1.1038   -0.6800 C   0  0  0  0  0  0  0  0  0  0  0  0
    2.3863    0.7519    0.2614 C   0  0  0  0  0  0  0  0  0  0  0  0
    1.9178    0.5119    1.6909 C   0  0  0  0  0  0  0  0  0  0  0  0
    1.5965    1.2719   -1.6981 H   0  0  0  0  0  0  0  0  0  0  0  0
    0.7292    2.0109   -0.3501 H   0  0  0  0  0  0  0  0  0  0  0  0
    2.9001   -0.1399   -0.1079 H   0  0  0  0  0  0  0  0  0  0  0  0
    3.1264    1.5569    0.2512 H   0  0  0  0  0  0  0  0  0  0  0  0
    1.1988   -0.3098    1.7336 H   0  0  0  0  0  0  0  0  0  0  0  0
    2.7512    0.2614    2.3494 H   0  0  0  0  0  0  0  0  0  0  0  0
    1.4269    1.4004    2.0955 H   0  0  0  0  0  0  0  0  0  0  0  0
  1  2  1  0
  1  4  1  0
  1  5  1  0
  1  6  1  0
  2  3  1  0
  2  7  1  0
  2  8  1  0
  9 10  1  0
 10 11  1  0
 10 13  1  0
 10 14  1  0
 11 12  1  0
 11 15  1  0
 11 16  1  0
 12 17  1  0
 12 18  1  0
 12 19  1  0
M  RAD  1   3   2
M  END
>  <reaction>  (10) 
rmg_rxn_509

>  <mol_properties>  (10) 
{"1": {"label": "*0", "atom_type": "Cs"}, "2": {"label": "*1", "atom_type": "S2s"}, "8": {"label": "*2", "atom_type": "H0"}, "9": {"label": "*3", "atom_type": "Cs"}, "10": {"label": "*4", "atom_type": "Cs"}}

>  <type>  (10) 
unop_6

>  <geom_source>  (10) 
Heuristics

$$$$

     RDKit          3D

 19 17  0  0  0  0  0  0  0  0999 V2000
   -1.2389   -1.6965   -1.8767 C   0  0  0  0  0  0  0  0  0  0  0  0
   -1.2389   -1.6965   -0.3580 C   0  0  0  0  0  0  0  0  0  0  0  0
   -1.2389   -0.0392    0.3869 S   0  0  0  0  0  1  0  0  0  0  0  0
   -0.3322   -1.2311   -2.2675 H   0  0  0  0  0  0  0  0  0  0  0  0
   -2.0949   -1.1453   -2.2668 H   0  0  0  0  0  0  0  0  0  0  0  0
   -1.2820   -2.7199   -2.2570 H   0  0  0  0  0  0  0  0  0  0  0  0
   -0.3956   -2.2626    0.0371 H   0  0  0  0  0  0  0  0  0  0  0  0
   -2.1465   -2.1636    0.0271 H   0  0  0  0  0  0  0  0  0  0  0  0
    0.1709    0.4428   -0.2173 H   0  0  0  0  0  0  0  0  0  0  0  0
    1.3207    0.8360   -0.7101 C   0  0  0  0  0  0  0  0  0  0  0  0
    2.3011    1.1810    0.4036 C   0  0  0  0  0  0  0  0  0  0  0  0
    1.6070    1.4615    1.7302 C   0  0  0  0  0  0  0  0  0  0  0  0
    1.8362    0.6385   -1.6515 H   0  0  0  0  0  0  0  0  0  0  0  0
    0.6174    1.6551   -0.8791 H   0  0  0  0  0  0  0  0  0  0  0  0
    3.0112    0.3592    0.5309 H   0  0  0  0  0  0  0  0  0  0  0  0
    2.8926    2.0528    0.1107 H   0  0  0  0  0  0  0  0  0  0  0  0
    1.0323    0.5933    2.0618 H   0  0  0  0  0  0  0  0  0  0  0  0
    2.3250    1.7065    2.5147 H   0  0  0  0  0  0  0  0  0  0  0  0
    0.9128    2.3003    1.6382 H   0  0  0  0  0  0  0  0  0  0  0  0
  1  2  1  0
  1  4  1  0
  1  5  1  0
  1  6  1  0
  2  3  1  0
  2  7  1  0
  2  8  1  0
  9 10  1  0
 10 11  1  0
 10 13  1  0
 10 14  1  0
 11 12  1  0
 11 15  1  0
 11 16  1  0
 12 17  1  0
 12 18  1  0
 12 19  1  0
M  RAD  1   3   2
M  END
>  <reaction>  (11) 
rmg_rxn_509

>  <mol_properties>  (11) 
{"1": {"label": "*0", "atom_type": "Cs"}, "2": {"label": "*1", "atom_type": "S2s"}, "8": {"label": "*2", "atom_type": "H0"}, "9": {"label": "*3", "atom_type": "Cs"}, "10": {"label": "*4", "atom_type": "Cs"}}

>  <type>  (11) 
unop_7

>  <geom_source>  (11) 
Heuristics

$$$$

     RDKit          3D

 19 17  0  0  0  0  0  0  0  0999 V2000
   -1.0571   -1.6150   -0.8401 C   0  0  0  0  0  0  0  0  0  0  0  0
   -1.0571   -1.6150    0.6786 C   0  0  0  0  0  0  0  0  0  0  0  0
   -1.0571    0.0424    1.4235 S   0  0  0  0  0  1  0  0  0  0  0  0
   -0.1505   -1.1496   -1.2309 H   0  0  0  0  0  0  0  0  0  0  0  0
   -1.9131   -1.0638   -1.2302 H   0  0  0  0  0  0  0  0  0  0  0  0
   -1.1002   -2.6383   -1.2204 H   0  0  0  0  0  0  0  0  0  0  0  0
   -0.2139   -2.1811    1.0737 H   0  0  0  0  0  0  0  0  0  0  0  0
   -1.9647   -2.0820    1.0637 H   0  0  0  0  0  0  0  0  0  0  0  0
    0.3526    0.5244    0.8193 H   0  0  0  0  0  0  0  0  0  0  0  0
    1.5024    0.9175    0.3265 C   0  0  0  0  0  0  0  0  0  0  0  0
    1.3126    1.5959   -1.0242 C   0  0  0  0  0  0  0  0  0  0  0  0
    1.6022    0.6646   -2.1944 C   0  0  0  0  0  0  0  0  0  0  0  0
    1.2905    1.5998    1.1514 H   0  0  0  0  0  0  0  0  0  0  0  0
    2.5283    0.5597    0.4432 H   0  0  0  0  0  0  0  0  0  0  0  0
    0.2884    1.9711   -1.1024 H   0  0  0  0  0  0  0  0  0  0  0  0
    1.9641    2.4720   -1.0863 H   0  0  0  0  0  0  0  0  0  0  0  0
    0.9423   -0.2060   -2.1733 H   0  0  0  0  0  0  0  0  0  0  0  0
    1.4609    1.1681   -3.1522 H   0  0  0  0  0  0  0  0  0  0  0  0
    2.6312    0.2989   -2.1571 H   0  0  0  0  0  0  0  0  0  0  0  0
  1  2  1  0
  1  4  1  0
  1  5  1  0
  1  6  1  0
  2  3  1  0
  2  7  1  0
  2  8  1  0
  9 10  1  0
 10 11  1  0
 10 13  1  0
 10 14  1  0
 11 12  1  0
 11 15  1  0
 11 16  1  0
 12 17  1  0
 12 18  1  0
 12 19  1  0
M  RAD  1   3   2
M  END
>  <reaction>  (12) 
rmg_rxn_509

>  <mol_properties>  (12) 
{"1": {"label": "*0", "atom_type": "Cs"}, "2": {"label": "*1", "atom_type": "S2s"}, "8": {"label": "*2", "atom_type": "H0"}, "9": {"label": "*3", "atom_type": "Cs"}, "10": {"label": "*4", "atom_type": "Cs"}}

>  <type>  (12) 
unop_8

>  <geom_source>  (12) 
Heuristics

$$$$

     RDKit          3D

 19 17  0  0  0  0  0  0  0  0999 V2000
   -1.3253   -1.0885   -1.4927 C   0  0  0  0  0  0  0  0  0  0  0  0
   -1.3253   -1.0885    0.0259 C   0  0  0  0  0  0  0  0  0  0  0  0
   -1.3253    0.5689    0.7709 S   0  0  0  0  0  1  0  0  0  0  0  0
   -0.4187   -0.6230   -1.8835 H   0  0  0  0  0  0  0  0  0  0  0  0
   -2.1813   -0.5373   -1.8828 H   0  0  0  0  0  0  0  0  0  0  0  0
   -1.3684   -2.1118   -1.8730 H   0  0  0  0  0  0  0  0  0  0  0  0
   -0.4820   -1.6546    0.4210 H   0  0  0  0  0  0  0  0  0  0  0  0
   -2.2329   -1.5555    0.4111 H   0  0  0  0  0  0  0  0  0  0  0  0
    0.0845    1.0509    0.1667 H   0  0  0  0  0  0  0  0  0  0  0  0
    1.2342    1.4440   -0.3261 C   0  0  0  0  0  0  0  0  0  0  0  0
    2.1753    0.2623   -0.5222 C   0  0  0  0  0  0  0  0  0  0  0  0
    2.1309   -0.7222    0.6394 C   0  0  0  0  0  0  0  0  0  0  0  0
    1.2802    2.1374   -1.1676 H   0  0  0  0  0  0  0  0  0  0  0  0
    1.4886    1.9998    0.5797 H   0  0  0  0  0  0  0  0  0  0  0  0
    1.9189   -0.2572   -1.4497 H   0  0  0  0  0  0  0  0  0  0  0  0
    3.1977    0.6285   -0.6501 H   0  0  0  0  0  0  0  0  0  0  0  0
    1.1245   -1.1274    0.7697 H   0  0  0  0  0  0  0  0  0  0  0  0
    2.8109   -1.5608    0.4807 H   0  0  0  0  0  0  0  0  0  0  0  0
    2.4134   -0.2347    1.5756 H   0  0  0  0  0  0  0  0  0  0  0  0
  1  2  1  0
  1  4  1  0
  1  5  1  0
  1  6  1  0
  2  3  1  0
  2  7  1  0
  2  8  1  0
  9 10  1  0
 10 11  1  0
 10 13  1  0
 10 14  1  0
 11 12  1  0
 11 15  1  0
 11 16  1  0
 12 17  1  0
 12 18  1  0
 12 19  1  0
M  RAD  1   3   2
M  END
>  <reaction>  (13) 
rmg_rxn_509

>  <mol_properties>  (13) 
{"1": {"label": "*0", "atom_type": "Cs"}, "2": {"label": "*1", "atom_type": "S2s"}, "8": {"label": "*2", "atom_type": "H0"}, "9": {"label": "*3", "atom_type": "Cs"}, "10": {"label": "*4", "atom_type": "Cs"}}

>  <type>  (13) 
unop_9

>  <geom_source>  (13) 
Heuristics

$$$$

     RDKit          3D

 19 17  0  0  0  0  0  0  0  0999 V2000
   -1.1297   -1.3655   -0.8741 C   0  0  0  0  0  0  0  0  0  0  0  0
   -1.1297   -1.3655    0.6445 C   0  0  0  0  0  0  0  0  0  0  0  0
   -1.1297    0.2919    1.3895 S   0  0  0  0  0  1  0  0  0  0  0  0
   -0.2231   -0.9000   -1.2649 H   0  0  0  0  0  0  0  0  0  0  0  0
   -1.9857   -0.8143   -1.2642 H   0  0  0  0  0  0  0  0  0  0  0  0
   -1.1728   -2.3888   -1.2544 H   0  0  0  0  0  0  0  0  0  0  0  0
   -0.2865   -1.9316    1.0396 H   0  0  0  0  0  0  0  0  0  0  0  0
   -2.0373   -1.8325    1.0297 H   0  0  0  0  0  0  0  0  0  0  0  0
    0.2800    0.7739    0.7853 H   0  0  0  0  0  0  0  0  0  0  0  0
    1.4298    1.1670    0.2925 C   0  0  0  0  0  0  0  0  0  0  0  0
    1.4044    1.1486   -1.2306 C   0  0  0  0  0  0  0  0  0  0  0  0
    1.8854   -0.1758   -1.8094 C   0  0  0  0  0  0  0  0  0  0  0  0
    1.0822    2.1229    0.6879 H   0  0  0  0  0  0  0  0  0  0  0  0
    2.4417    0.9975    0.6683 H   0  0  0  0  0  0  0  0  0  0  0  0
    0.3882    1.3510   -1.5801 H   0  0  0  0  0  0  0  0  0  0  0  0
    2.0270    1.9613   -1.6149 H   0  0  0  0  0  0  0  0  0  0  0  0
    1.2600   -1.0029   -1.4647 H   0  0  0  0  0  0  0  0  0  0  0  0
    1.8600   -0.1697   -2.9004 H   0  0  0  0  0  0  0  0  0  0  0  0
    2.9117   -0.3877   -1.4997 H   0  0  0  0  0  0  0  0  0  0  0  0
  1  2  1  0
  1  4  1  0
  1  5  1  0
  1  6  1  0
  2  3  1  0
  2  7  1  0
  2  8  1  0
  9 10  1  0
 10 11  1  0
 10 13  1  0
 10 14  1  0
 11 12  1  0
 11 15  1  0
 11 16  1  0
 12 17  1  0
 12 18  1  0
 12 19  1  0
M  RAD  1   3   2
M  END
>  <reaction>  (14) 
rmg_rxn_509

>  <mol_properties>  (14) 
{"1": {"label": "*0", "atom_type": "Cs"}, "2": {"label": "*1", "atom_type": "S2s"}, "8": {"label": "*2", "atom_type": "H0"}, "9": {"label": "*3", "atom_type": "Cs"}, "10": {"label": "*4", "atom_type": "Cs"}}

>  <type>  (14) 
unop_10

>  <geom_source>  (14) 
Heuristics

$$$$

     RDKit          3D

 19 17  0  0  0  0  0  0  0  0999 V2000
   -1.1137   -1.9544   -1.7464 C   0  0  0  0  0  0  0  0  0  0  0  0
   -1.1137   -1.9544   -0.2277 C   0  0  0  0  0  0  0  0  0  0  0  0
   -1.1137   -0.2970    0.5172 S   0  0  0  0  0  1  0  0  0  0  0  0
   -0.2071   -1.4889   -2.1372 H   0  0  0  0  0  0  0  0  0  0  0  0
   -1.9697   -1.4031   -2.1365 H   0  0  0  0  0  0  0  0  0  0  0  0
   -1.1568   -2.9777   -2.1267 H   0  0  0  0  0  0  0  0  0  0  0  0
   -0.2705   -2.5205    0.1674 H   0  0  0  0  0  0  0  0  0  0  0  0
   -2.0213   -2.4214    0.1574 H   0  0  0  0  0  0  0  0  0  0  0  0
    0.2961    0.1850   -0.0870 H   0  0  0  0  0  0  0  0  0  0  0  0
    1.4458    0.5782   -0.5798 C   0  0  0  0  0  0  0  0  0  0  0  0
    2.1271    1.5713    0.3530 C   0  0  0  0  0  0  0  0  0  0  0  0
    1.1321    2.4157    1.1388 C   0  0  0  0  0  0  0  0  0  0  0  0
    2.1742   -0.0168   -1.1334 H   0  0  0  0  0  0  0  0  0  0  0  0
    0.8141    1.0948   -1.3065 H   0  0  0  0  0  0  0  0  0  0  0  0
    2.7756    1.0315    1.0485 H   0  0  0  0  0  0  0  0  0  0  0  0
    2.7815    2.2267   -0.2284 H   0  0  0  0  0  0  0  0  0  0  0  0
    0.4846    1.7855    1.7533 H   0  0  0  0  0  0  0  0  0  0  0  0
    1.6386    3.1203    1.8007 H   0  0  0  0  0  0  0  0  0  0  0  0
    0.4905    2.9903    0.4663 H   0  0  0  0  0  0  0  0  0  0  0  0
  1  2  1  0
  1  4  1  0
  1  5  1  0
  1  6  1  0
  2  3  1  0
  2  7  1  0
  2  8  1  0
  9 10  1  0
 10 11  1  0
 10 13  1  0
 10 14  1  0
 11 12  1  0
 11 15  1  0
 11 16  1  0
 12 17  1  0
 12 18  1  0
 12 19  1  0
M  RAD  1   3   2
M  END
>  <reaction>  (15) 
rmg_rxn_509

>  <mol_properties>  (15) 
{"1": {"label": "*0", "atom_type": "Cs"}, "2": {"label": "*1", "atom_type": "S2s"}, "8": {"label": "*2", "atom_type": "H0"}, "9": {"label": "*3", "atom_type": "Cs"}, "10": {"label": "*4", "atom_type": "Cs"}}

>  <type>  (15) 
unop_11

>  <geom_source>  (15) 
Heuristics

$$$$

     RDKit          3D

 19 17  0  0  0  0  0  0  0  0999 V2000
   -1.2812   -1.0704   -1.2529 C   0  0  0  0  0  0  0  0  0  0  0  0
   -1.2812   -1.0704    0.2658 C   0  0  0  0  0  0  0  0  0  0  0  0
   -1.2812    0.5869    1.0108 S   0  0  0  0  0  1  0  0  0  0  0  0
   -0.3746   -0.6050   -1.6436 H   0  0  0  0  0  0  0  0  0  0  0  0
   -2.1372   -0.5192   -1.6430 H   0  0  0  0  0  0  0  0  0  0  0  0
   -1.3243   -2.0938   -1.6332 H   0  0  0  0  0  0  0  0  0  0  0  0
   -0.4379   -1.6366    0.6609 H   0  0  0  0  0  0  0  0  0  0  0  0
   -2.1888   -1.5375    0.6509 H   0  0  0  0  0  0  0  0  0  0  0  0
    0.1286    1.0689    0.4065 H   0  0  0  0  0  0  0  0  0  0  0  0
    1.2783    1.4621   -0.0863 C   0  0  0  0  0  0  0  0  0  0  0  0
    1.9058    0.3697   -0.9427 C   0  0  0  0  0  0  0  0  0  0  0  0
    2.1636   -0.9126   -0.1618 C   0  0  0  0  0  0  0  0  0  0  0  0
    1.1015    2.3717   -0.6626 H   0  0  0  0  0  0  0  0  0  0  0  0
    1.9265    1.7196    0.7550 H   0  0  0  0  0  0  0  0  0  0  0  0
    1.2527    0.1532   -1.7926 H   0  0  0  0  0  0  0  0  0  0  0  0
    2.8463    0.7338   -1.3654 H   0  0  0  0  0  0  0  0  0  0  0  0
    1.2334   -1.3151    0.2465 H   0  0  0  0  0  0  0  0  0  0  0  0
    2.6129   -1.6824   -0.7916 H   0  0  0  0  0  0  0  0  0  0  0  0
    2.8397   -0.7299    0.6770 H   0  0  0  0  0  0  0  0  0  0  0  0
  1  2  1  0
  1  4  1  0
  1  5  1  0
  1  6  1  0
  2  3  1  0
  2  7  1  0
  2  8  1  0
  9 10  1  0
 10 11  1  0
 10 13  1  0
 10 14  1  0
 11 12  1  0
 11 15  1  0
 11 16  1  0
 12 17  1  0
 12 18  1  0
 12 19  1  0
M  RAD  1   3   2
M  END
>  <reaction>  (16) 
rmg_rxn_509

>  <mol_properties>  (16) 
{"1": {"label": "*0", "atom_type": "Cs"}, "2": {"label": "*1", "atom_type": "S2s"}, "8": {"label": "*2", "atom_type": "H0"}, "9": {"label": "*3", "atom_type": "Cs"}, "10": {"label": "*4", "atom_type": "Cs"}}

>  <type>  (16) 
unop_12

>  <geom_source>  (16) 
Heuristics

$$$$

     RDKit          3D

 19 17  0  0  0  0  0  0  0  0999 V2000
   -1.2131   -1.1677   -1.0265 C   0  0  0  0  0  0  0  0  0  0  0  0
   -1.2131   -1.1677    0.4922 C   0  0  0  0  0  0  0  0  0  0  0  0
   -1.2131    0.4897    1.2372 S   0  0  0  0  0  1  0  0  0  0  0  0
   -0.3064   -0.7022   -1.4172 H   0  0  0  0  0  0  0  0  0  0  0  0
   -2.0690   -0.6165   -1.4166 H   0  0  0  0  0  0  0  0  0  0  0  0
   -1.2561   -2.1910   -1.4068 H   0  0  0  0  0  0  0  0  0  0  0  0
   -0.3698   -1.7338    0.8873 H   0  0  0  0  0  0  0  0  0  0  0  0
   -2.1207   -1.6347    0.8773 H   0  0  0  0  0  0  0  0  0  0  0  0
    0.1967    0.9717    0.6329 H   0  0  0  0  0  0  0  0  0  0  0  0
    1.3465    1.3648    0.1401 C   0  0  0  0  0  0  0  0  0  0  0  0
    1.6202    0.6983   -1.2020 C   0  0  0  0  0  0  0  0  0  0  0  0
    2.0975   -0.7410   -1.0557 C   0  0  0  0  0  0  0  0  0  0  0  0
    1.0059    2.3941    0.0148 H   0  0  0  0  0  0  0  0  0  0  0  0
    2.2475    1.3834    0.7581 H   0  0  0  0  0  0  0  0  0  0  0  0
    0.7125    0.7206   -1.8114 H   0  0  0  0  0  0  0  0  0  0  0  0
    2.3697    1.2765   -1.7495 H   0  0  0  0  0  0  0  0  0  0  0  0
    1.3519   -1.3491   -0.5379 H   0  0  0  0  0  0  0  0  0  0  0  0
    2.2881   -1.2010   -2.0268 H   0  0  0  0  0  0  0  0  0  0  0  0
    3.0222   -0.7888   -0.4755 H   0  0  0  0  0  0  0  0  0  0  0  0
  1  2  1  0
  1  4  1  0
  1  5  1  0
  1  6  1  0
  2  3  1  0
  2  7  1  0
  2  8  1  0
  9 10  1  0
 10 11  1  0
 10 13  1  0
 10 14  1  0
 11 12  1  0
 11 15  1  0
 11 16  1  0
 12 17  1  0
 12 18  1  0
 12 19  1  0
M  RAD  1   3   2
M  END
>  <reaction>  (17) 
rmg_rxn_509

>  <mol_properties>  (17) 
{"1": {"label": "*0", "atom_type": "Cs"}, "2": {"label": "*1", "atom_type": "S2s"}, "8": {"label": "*2", "atom_type": "H0"}, "9": {"label": "*3", "atom_type": "Cs"}, "10": {"label": "*4", "atom_type": "Cs"}}

>  <type>  (17) 
unop_13

>  <geom_source>  (17) 
gaussian_log

$$$$
