
     RDKit          3D

 14 14  0  0  0  0  0  0  0  0999 V2000
   -1.1778    0.2241    0.1818 C   0  0  0  0  0  0  0  0  0  0  0  0
   -0.5633   -1.1636    0.0678 C   0  0  0  0  0  0  0  0  0  0  0  0
    0.6943   -1.1996    0.7146 O   0  0  0  0  0  0  0  0  0  0  0  0
    1.5547   -0.2288    0.2011 C   0  0  0  0  0  0  0  0  0  0  0  0
    1.0729    1.0696    0.3698 O   0  0  0  0  0  0  0  0  0  0  0  0
   -0.1607    1.2493   -0.2989 C   0  0  0  0  0  0  0  0  0  0  0  0
   -2.0927    0.2866   -0.4117 H   0  0  0  0  0  0  0  0  0  0  0  0
   -1.4303    0.4248    1.2248 H   0  0  0  0  0  0  0  0  0  0  0  0
   -1.1822   -1.9235    0.5431 H   0  0  0  0  0  0  0  0  0  0  0  0
   -0.4389   -1.4347   -0.9919 H   0  0  0  0  0  0  0  0  0  0  0  0
    1.7250   -0.4207   -0.8742 H   0  0  0  0  0  0  0  0  0  0  0  0
    2.4896   -0.3010    0.7524 H   0  0  0  0  0  0  0  0  0  0  0  0
   -0.0080    1.1481   -1.3844 H   0  0  0  0  0  0  0  0  0  0  0  0
   -0.4826    2.2695   -0.0942 H   0  0  0  0  0  0  0  0  0  0  0  0
  1  2  1  0
  1  6  1  0
  1  7  1  0
  1  8  1  0
  2  3  1  0
  2  9  1  0
  2 10  1  0
  3  4  1  0
  4  5  1  0
  4 11  1  0
  4 12  1  0
  5  6  1  0
  6 13  1  0
  6 14  1  0
M  END
>  <reaction>  (1) 
rmg_rxn_257

>  <mol_properties>  (1) 
{"1": {"label": "donator", "atom_type": "Cs"}, "8": {"label": "d_hydrogen", "atom_type": "H0"}}

>  <type>  (1) 
r1h

$$$$

     RDKit          3D

 13 12  0  0  0  0  0  0  0  0999 V2000
    2.0654   -0.2739   -0.0844 C   0  0  0  0  0  3  0  0  0  0  0  0
    0.6326   -0.4110   -0.4406 C   0  0  0  0  0  0  0  0  0  0  0  0
   -0.3055    0.4151    0.4359 C   0  0  0  0  0  0  0  0  0  0  0  0
   -1.7714    0.2357    0.0671 C   0  0  0  0  0  0  0  0  0  0  0  0
    2.3610    0.0676    0.8995 H   0  0  0  0  0  0  0  0  0  0  0  0
    2.8408   -0.6127   -0.7582 H   0  0  0  0  0  0  0  0  0  0  0  0
    0.3313   -1.4695   -0.3768 H   0  0  0  0  0  0  0  0  0  0  0  0
    0.4826   -0.1432   -1.4940 H   0  0  0  0  0  0  0  0  0  0  0  0
   -0.1518    0.1351    1.4826 H   0  0  0  0  0  0  0  0  0  0  0  0
   -0.0303    1.4705    0.3565 H   0  0  0  0  0  0  0  0  0  0  0  0
   -2.0768   -0.8084    0.1692 H   0  0  0  0  0  0  0  0  0  0  0  0
   -1.9546    0.5339   -0.9679 H   0  0  0  0  0  0  0  0  0  0  0  0
   -2.4194    0.8370    0.7066 H   0  0  0  0  0  0  0  0  0  0  0  0
  1  2  1  0
  1  5  1  0
  1  6  1  0
  2  3  1  0
  2  7  1  0
  2  8  1  0
  3  4  1  0
  3  9  1  0
  3 10  1  0
  4 11  1  0
  4 12  1  0
  4 13  1  0
M  RAD  1   1   2
M  END
>  <reaction>  (2) 
rmg_rxn_257

>  <mol_properties>  (2) 
{"0": {"label": "acceptor", "atom_type": "Cs"}}

>  <type>  (2) 
r2

$$$$

     RDKit          3D

 14 13  0  0  0  0  0  0  0  0999 V2000
    1.8106   -0.5953    0.5577 C   0  0  0  0  0  0  0  0  0  0  0  0
    0.5197    0.2064    0.6554 C   0  0  0  0  0  0  0  0  0  0  0  0
   -0.5206   -0.2080   -0.3788 C   0  0  0  0  0  0  0  0  0  0  0  0
   -1.8114    0.5937   -0.2812 C   0  0  0  0  0  0  0  0  0  0  0  0
    2.2725   -0.4752   -0.4251 H   0  0  0  0  0  0  0  0  0  0  0  0
    1.6214   -1.6612    0.7052 H   0  0  0  0  0  0  0  0  0  0  0  0
    2.5364   -0.2784    1.3084 H   0  0  0  0  0  0  0  0  0  0  0  0
    0.0930    0.0950    1.6574 H   0  0  0  0  0  0  0  0  0  0  0  0
    0.7393    1.2723    0.5354 H   0  0  0  0  0  0  0  0  0  0  0  0
   -0.7402   -1.2739   -0.2588 H   0  0  0  0  0  0  0  0  0  0  0  0
   -0.0938   -0.0965   -1.3808 H   0  0  0  0  0  0  0  0  0  0  0  0
   -1.6222    1.6596   -0.4287 H   0  0  0  0  0  0  0  0  0  0  0  0
   -2.2734    0.4736    0.7017 H   0  0  0  0  0  0  0  0  0  0  0  0
   -2.5373    0.2768   -1.0318 H   0  0  0  0  0  0  0  0  0  0  0  0
  1  2  1  0
  1  5  1  0
  1  6  1  0
  1  7  1  0
  2  3  1  0
  2  8  1  0
  2  9  1  0
  3  4  1  0
  3 10  1  0
  3 11  1  0
  4 12  1  0
  4 13  1  0
  4 14  1  0
M  END
>  <reaction>  (3) 
rmg_rxn_257

>  <mol_properties>  (3) 
{"0": {"label": "a_hydrogen", "atom_type": "H0"}, "1": {"label": "acceptor", "atom_type": "Cs"}}

>  <type>  (3) 
r2h

$$$$

     RDKit          3D

 27 26  0  0  0  0  0  0  0  0999 V2000
    1.2570    1.0070   -0.8762 C   0  0  0  0  0  0  0  0  0  0  0  0
    0.7376    1.0154    0.5389 C   0  0  0  0  0  0  0  0  0  0  0  0
   -0.6417    1.2328    0.5893 O   0  0  0  0  0  0  0  0  0  0  0  0
   -1.0106    2.4003   -0.0957 C   0  0  0  0  0  0  0  0  0  0  0  0
   -0.6482    2.3727   -1.4394 O   0  0  0  0  0  0  0  0  0  0  0  0
    0.7534    2.2573   -1.5936 C   0  0  0  0  0  0  0  0  0  0  0  0
    2.3481    0.9711   -0.8851 H   0  0  0  0  0  0  0  0  0  0  0  0
    0.8787    0.1239   -1.3971 H   0  0  0  0  0  0  0  0  0  0  0  0
    0.8768   -0.2091    1.0531 H   0  0  0  0  0  0  0  0  0  0  0  0
    1.2813    1.6852    1.2171 H   0  0  0  0  0  0  0  0  0  0  0  0
   -0.5455    3.2717    0.3977 H   0  0  0  0  0  0  0  0  0  0  0  0
   -2.0953    2.4689   -0.0514 H   0  0  0  0  0  0  0  0  0  0  0  0
    1.2445    3.1525   -1.1842 H   0  0  0  0  0  0  0  0  0  0  0  0
    0.9481    2.2175   -2.6648 H   0  0  0  0  0  0  0  0  0  0  0  0
    0.8054   -1.4890    1.4655 C   0  0  0  0  0  3  0  0  0  0  0  0
    0.0640   -2.2400    0.3916 C   0  0  0  0  0  0  0  0  0  0  0  0
   -0.2455   -3.6907    0.7669 C   0  0  0  0  0  0  0  0  0  0  0  0
   -0.9931   -4.4350   -0.3316 C   0  0  0  0  0  0  0  0  0  0  0  0
    1.8421   -1.7911    1.6123 H   0  0  0  0  0  0  0  0  0  0  0  0
    0.2708   -1.4049    2.4110 H   0  0  0  0  0  0  0  0  0  0  0  0
    0.6482   -2.2329   -0.5347 H   0  0  0  0  0  0  0  0  0  0  0  0
   -0.8731   -1.7198    0.1691 H   0  0  0  0  0  0  0  0  0  0  0  0
    0.6897   -4.2108    0.9956 H   0  0  0  0  0  0  0  0  0  0  0  0
   -0.8357   -3.7018    1.6880 H   0  0  0  0  0  0  0  0  0  0  0  0
   -0.4080   -4.4627   -1.2539 H   0  0  0  0  0  0  0  0  0  0  0  0
   -1.9433   -3.9458   -0.5578 H   0  0  0  0  0  0  0  0  0  0  0  0
   -1.2075   -5.4648   -0.0412 H   0  0  0  0  0  0  0  0  0  0  0  0
  1  2  1  0
  1  6  1  0
  1  7  1  0
  1  8  1  0
  2  3  1  0
  2  9  1  0
  2 10  1  0
  3  4  1  0
  4  5  1  0
  4 11  1  0
  4 12  1  0
  5  6  1  0
  6 13  1  0
  6 14  1  0
 15 16  1  0
 15 19  1  0
 15 20  1  0
 16 17  1  0
 16 21  1  0
 16 22  1  0
 17 18  1  0
 17 23  1  0
 17 24  1  0
 18 25  1  0
 18 26  1  0
 18 27  1  0
M  RAD  1  15   2
M  END
>  <reaction>  (4) 
rmg_rxn_257

>  <mol_properties>  (4) 
{"1": {"label": "*1", "atom_type": "Cs"}, "2": {"label": "*0", "atom_type": "O2s"}, "8": {"label": "*2", "atom_type": "H0"}, "14": {"label": "*3", "atom_type": "Cs"}, "15": {"label": "*4", "atom_type": "Cs"}}

>  <type>  (4) 
ts

$$$$

     RDKit          3D

 27 26  0  0  0  0  0  0  0  0999 V2000
    0.0824    0.6039   -2.0687 C   0  0  0  0  0  0  0  0  0  0  0  0
    0.0824    0.6039   -0.5467 C   0  0  0  0  0  0  0  0  0  0  0  0
   -0.9659    1.4165   -0.0546 O   0  0  0  0  0  0  0  0  0  0  0  0
   -0.8750    2.7161   -0.5539 C   0  0  0  0  0  0  0  0  0  0  0  0
   -0.9659    2.7723   -1.9450 O   0  0  0  0  0  0  0  0  0  0  0  0
    0.0824    2.0456   -2.5569 C   0  0  0  0  0  0  0  0  0  0  0  0
    0.9564    0.0715   -2.4506 H   0  0  0  0  0  0  0  0  0  0  0  0
   -0.8142    0.0978   -2.4318 H   0  0  0  0  0  0  0  0  0  0  0  0
   -0.1083   -0.5931   -0.0579 H   0  0  0  0  0  0  0  0  0  0  0  0
    1.0460    0.9799   -0.1700 H   0  0  0  0  0  0  0  0  0  0  0  0
    0.0804    3.1681   -0.2297 H   0  0  0  0  0  0  0  0  0  0  0  0
   -1.7160    3.2766   -0.1519 H   0  0  0  0  0  0  0  0  0  0  0  0
    1.0460    2.5230   -2.3216 H   0  0  0  0  0  0  0  0  0  0  0  0
   -0.0765    2.1115   -3.6323 H   0  0  0  0  0  0  0  0  0  0  0  0
   -0.2994   -1.7924    0.4318 C   0  0  0  0  0  3  0  0  0  0  0  0
    0.8722   -2.2355    1.2976 C   0  0  0  0  0  0  0  0  0  0  0  0
    0.4382   -2.9860    2.5514 C   0  0  0  0  0  0  0  0  0  0  0  0
    1.6098   -3.4291    3.4172 C   0  0  0  0  0  0  0  0  0  0  0  0
   -0.9665   -1.1281    0.9863 H   0  0  0  0  0  0  0  0  0  0  0  0
   -0.8888   -2.6511    0.1016 H   0  0  0  0  0  0  0  0  0  0  0  0
    1.4641   -1.3621    1.5897 H   0  0  0  0  0  0  0  0  0  0  0  0
    1.5412   -2.8739    0.7115 H   0  0  0  0  0  0  0  0  0  0  0  0
   -0.2308   -2.3476    3.1375 H   0  0  0  0  0  0  0  0  0  0  0  0
   -0.1537   -3.8594    2.2593 H   0  0  0  0  0  0  0  0  0  0  0  0
    2.1992   -2.5704    3.7475 H   0  0  0  0  0  0  0  0  0  0  0  0
    2.2769   -4.0934    2.8628 H   0  0  0  0  0  0  0  0  0  0  0  0
    1.2710   -3.9630    4.3065 H   0  0  0  0  0  0  0  0  0  0  0  0
  1  2  1  0
  1  6  1  0
  1  7  1  0
  1  8  1  0
  2  3  1  0
  2  9  1  0
  2 10  1  0
  3  4  1  0
  4  5  1  0
  4 11  1  0
  4 12  1  0
  5  6  1  0
  6 13  1  0
  6 14  1  0
 15 16  1  0
 15 19  1  0
 15 20  1  0
 16 17  1  0
 16 21  1  0
 16 22  1  0
 17 18  1  0
 17 23  1  0
 17 24  1  0
 18 25  1  0
 18 26  1  0
 18 27  1  0
M  RAD  1  15   2
M  END
>  <reaction>  (5) 
rmg_rxn_257

>  <mol_properties>  (5) 
{"1": {"label": "*1", "atom_type": "Cs"}, "2": {"label": "*0", "atom_type": "O2s"}, "8": {"label": "*2", "atom_type": "H0"}, "14": {"label": "*3", "atom_type": "Cs"}, "15": {"label": "*4", "atom_type": "Cs"}}

>  <type>  (5) 
unop_1

>  <geom_source>  (5) 
Heuristics

$$$$

     RDKit          3D

 27 26  0  0  0  0  0  0  0  0999 V2000
    0.2027    0.9786   -1.2360 C   0  0  0  0  0  0  0  0  0  0  0  0
    0.2027    0.9786    0.2861 C   0  0  0  0  0  0  0  0  0  0  0  0
   -0.8456    1.7912    0.7782 O   0  0  0  0  0  0  0  0  0  0  0  0
   -0.7547    3.0908    0.2788 C   0  0  0  0  0  0  0  0  0  0  0  0
   -0.8456    3.1470   -1.1122 O   0  0  0  0  0  0  0  0  0  0  0  0
    0.2027    2.4202   -1.7241 C   0  0  0  0  0  0  0  0  0  0  0  0
    1.0767    0.4461   -1.6178 H   0  0  0  0  0  0  0  0  0  0  0  0
   -0.6939    0.4724   -1.5990 H   0  0  0  0  0  0  0  0  0  0  0  0
    0.0119   -0.2184    0.7749 H   0  0  0  0  0  0  0  0  0  0  0  0
    1.1663    1.3546    0.6628 H   0  0  0  0  0  0  0  0  0  0  0  0
    0.2006    3.5428    0.6031 H   0  0  0  0  0  0  0  0  0  0  0  0
   -1.5958    3.6513    0.6808 H   0  0  0  0  0  0  0  0  0  0  0  0
    1.1663    2.8976   -1.4888 H   0  0  0  0  0  0  0  0  0  0  0  0
    0.0437    2.4862   -2.7995 H   0  0  0  0  0  0  0  0  0  0  0  0
   -0.1792   -1.4177    1.2646 C   0  0  0  0  0  3  0  0  0  0  0  0
    0.3666   -2.4939    0.3358 C   0  0  0  0  0  0  0  0  0  0  0  0
    0.5670   -3.8363    1.0297 C   0  0  0  0  0  0  0  0  0  0  0  0
    1.1127   -4.9125    0.1009 C   0  0  0  0  0  0  0  0  0  0  0  0
    0.4985   -1.2448    2.1040 H   0  0  0  0  0  0  0  0  0  0  0  0
   -1.1473   -1.7111    1.6773 H   0  0  0  0  0  0  0  0  0  0  0  0
    1.3204   -2.1639   -0.0883 H   0  0  0  0  0  0  0  0  0  0  0  0
   -0.3134   -2.6268   -0.5119 H   0  0  0  0  0  0  0  0  0  0  0  0
    1.2469   -3.7034    1.8774 H   0  0  0  0  0  0  0  0  0  0  0  0
   -0.3868   -4.1663    1.4539 H   0  0  0  0  0  0  0  0  0  0  0  0
    2.0809   -4.6191   -0.3118 H   0  0  0  0  0  0  0  0  0  0  0  0
    0.4350   -5.0854   -0.7385 H   0  0  0  0  0  0  0  0  0  0  0  0
    1.2463   -5.8615    0.6227 H   0  0  0  0  0  0  0  0  0  0  0  0
  1  2  1  0
  1  6  1  0
  1  7  1  0
  1  8  1  0
  2  3  1  0
  2  9  1  0
  2 10  1  0
  3  4  1  0
  4  5  1  0
  4 11  1  0
  4 12  1  0
  5  6  1  0
  6 13  1  0
  6 14  1  0
 15 16  1  0
 15 19  1  0
 15 20  1  0
 16 17  1  0
 16 21  1  0
 16 22  1  0
 17 18  1  0
 17 23  1  0
 17 24  1  0
 18 25  1  0
 18 26  1  0
 18 27  1  0
M  RAD  1  15   2
M  END
>  <reaction>  (6) 
rmg_rxn_257

>  <mol_properties>  (6) 
{"1": {"label": "*1", "atom_type": "Cs"}, "2": {"label": "*0", "atom_type": "O2s"}, "8": {"label": "*2", "atom_type": "H0"}, "14": {"label": "*3", "atom_type": "Cs"}, "15": {"label": "*4", "atom_type": "Cs"}}

>  <type>  (6) 
unop_2

>  <geom_source>  (6) 
Heuristics

$$$$

     RDKit          3D

 27 26  0  0  0  0  0  0  0  0999 V2000
    0.3302    0.5461   -2.1904 C   0  0  0  0  0  0  0  0  0  0  0  0
    0.3302    0.5461   -0.6684 C   0  0  0  0  0  0  0  0  0  0  0  0
   -0.7181    1.3587   -0.1763 O   0  0  0  0  0  0  0  0  0  0  0  0
   -0.6271    2.6583   -0.6756 C   0  0  0  0  0  0  0  0  0  0  0  0
   -0.7181    2.7145   -2.0667 O   0  0  0  0  0  0  0  0  0  0  0  0
    0.3302    1.9878   -2.6785 C   0  0  0  0  0  0  0  0  0  0  0  0
    1.2042    0.0137   -2.5723 H   0  0  0  0  0  0  0  0  0  0  0  0
   -0.5663    0.0400   -2.5535 H   0  0  0  0  0  0  0  0  0  0  0  0
    0.1395   -0.6509   -0.1796 H   0  0  0  0  0  0  0  0  0  0  0  0
    1.2939    0.9221   -0.2917 H   0  0  0  0  0  0  0  0  0  0  0  0
    0.3282    3.1104   -0.3514 H   0  0  0  0  0  0  0  0  0  0  0  0
   -1.4682    3.2188   -0.2736 H   0  0  0  0  0  0  0  0  0  0  0  0
    1.2939    2.4652   -2.4433 H   0  0  0  0  0  0  0  0  0  0  0  0
    0.1713    2.0537   -3.7540 H   0  0  0  0  0  0  0  0  0  0  0  0
   -0.0516   -1.8502    0.3101 C   0  0  0  0  0  3  0  0  0  0  0  0
    0.6385   -2.0202    1.6568 C   0  0  0  0  0  0  0  0  0  0  0  0
   -0.0645   -3.0215    2.5660 C   0  0  0  0  0  0  0  0  0  0  0  0
    0.6256   -3.1916    3.9127 C   0  0  0  0  0  0  0  0  0  0  0  0
   -1.0782   -1.4987    0.4381 H   0  0  0  0  0  0  0  0  0  0  0  0
   -0.0926   -2.7984   -0.2311 H   0  0  0  0  0  0  0  0  0  0  0  0
    0.6948   -1.0524    2.1655 H   0  0  0  0  0  0  0  0  0  0  0  0
    1.6732   -2.3425    1.5012 H   0  0  0  0  0  0  0  0  0  0  0  0
   -1.0992   -2.6992    2.7216 H   0  0  0  0  0  0  0  0  0  0  0  0
   -0.1208   -3.9893    2.0574 H   0  0  0  0  0  0  0  0  0  0  0  0
    0.6666   -2.2433    4.4540 H   0  0  0  0  0  0  0  0  0  0  0  0
    1.6522   -3.5430    3.7848 H   0  0  0  0  0  0  0  0  0  0  0  0
    0.1022   -3.9128    4.5425 H   0  0  0  0  0  0  0  0  0  0  0  0
  1  2  1  0
  1  6  1  0
  1  7  1  0
  1  8  1  0
  2  3  1  0
  2  9  1  0
  2 10  1  0
  3  4  1  0
  4  5  1  0
  4 11  1  0
  4 12  1  0
  5  6  1  0
  6 13  1  0
  6 14  1  0
 15 16  1  0
 15 19  1  0
 15 20  1  0
 16 17  1  0
 16 21  1  0
 16 22  1  0
 17 18  1  0
 17 23  1  0
 17 24  1  0
 18 25  1  0
 18 26  1  0
 18 27  1  0
M  RAD  1  15   2
M  END
>  <reaction>  (7) 
rmg_rxn_257

>  <mol_properties>  (7) 
{"1": {"label": "*1", "atom_type": "Cs"}, "2": {"label": "*0", "atom_type": "O2s"}, "8": {"label": "*2", "atom_type": "H0"}, "14": {"label": "*3", "atom_type": "Cs"}, "15": {"label": "*4", "atom_type": "Cs"}}

>  <type>  (7) 
unop_3

>  <geom_source>  (7) 
Heuristics

$$$$

     RDKit          3D

 27 26  0  0  0  0  0  0  0  0999 V2000
    1.1242    0.6954   -1.4982 C   0  0  0  0  0  0  0  0  0  0  0  0
    1.1242    0.6954    0.0238 C   0  0  0  0  0  0  0  0  0  0  0  0
    0.0759    1.5080    0.5159 O   0  0  0  0  0  0  0  0  0  0  0  0
    0.1668    2.8076    0.0166 C   0  0  0  0  0  0  0  0  0  0  0  0
    0.0759    2.8638   -1.3744 O   0  0  0  0  0  0  0  0  0  0  0  0
    1.1242    2.1371   -1.9863 C   0  0  0  0  0  0  0  0  0  0  0  0
    1.9982    0.1630   -1.8801 H   0  0  0  0  0  0  0  0  0  0  0  0
    0.2276    0.1893   -1.8612 H   0  0  0  0  0  0  0  0  0  0  0  0
    0.9335   -0.5016    0.5126 H   0  0  0  0  0  0  0  0  0  0  0  0
    2.0878    1.0714    0.4006 H   0  0  0  0  0  0  0  0  0  0  0  0
    1.1221    3.2596    0.3408 H   0  0  0  0  0  0  0  0  0  0  0  0
   -0.6742    3.3681    0.4186 H   0  0  0  0  0  0  0  0  0  0  0  0
    2.0878    2.6145   -1.7510 H   0  0  0  0  0  0  0  0  0  0  0  0
    0.9652    2.2030   -3.0618 H   0  0  0  0  0  0  0  0  0  0  0  0
    0.7424   -1.7009    1.0024 C   0  0  0  0  0  3  0  0  0  0  0  0
   -0.5923   -2.2811    0.5545 C   0  0  0  0  0  0  0  0  0  0  0  0
   -1.2170   -3.2103    1.5889 C   0  0  0  0  0  0  0  0  0  0  0  0
   -2.5517   -3.7905    1.1410 C   0  0  0  0  0  0  0  0  0  0  0  0
    1.4679   -2.4940    1.1982 H   0  0  0  0  0  0  0  0  0  0  0  0
    0.6288   -1.1231    1.9227 H   0  0  0  0  0  0  0  0  0  0  0  0
   -0.4584   -2.8284   -0.3842 H   0  0  0  0  0  0  0  0  0  0  0  0
   -1.2914   -1.4677    0.3350 H   0  0  0  0  0  0  0  0  0  0  0  0
   -0.5180   -4.0237    1.8083 H   0  0  0  0  0  0  0  0  0  0  0  0
   -1.3509   -2.6630    2.5276 H   0  0  0  0  0  0  0  0  0  0  0  0
   -2.4381   -4.3683    0.2206 H   0  0  0  0  0  0  0  0  0  0  0  0
   -3.2773   -2.9974    0.9451 H   0  0  0  0  0  0  0  0  0  0  0  0
   -2.9758   -4.4508    1.8991 H   0  0  0  0  0  0  0  0  0  0  0  0
  1  2  1  0
  1  6  1  0
  1  7  1  0
  1  8  1  0
  2  3  1  0
  2  9  1  0
  2 10  1  0
  3  4  1  0
  4  5  1  0
  4 11  1  0
  4 12  1  0
  5  6  1  0
  6 13  1  0
  6 14  1  0
 15 16  1  0
 15 19  1  0
 15 20  1  0
 16 17  1  0
 16 21  1  0
 16 22  1  0
 17 18  1  0
 17 23  1  0
 17 24  1  0
 18 25  1  0
 18 26  1  0
 18 27  1  0
M  RAD  1  15   2
M  END
>  <reaction>  (8) 
rmg_rxn_257

>  <mol_properties>  (8) 
{"1": {"label": "*1", "atom_type": "Cs"}, "2": {"label": "*0", "atom_type": "O2s"}, "8": {"label": "*2", "atom_type": "H0"}, "14": {"label": "*3", "atom_type": "Cs"}, "15": {"label": "*4", "atom_type": "Cs"}}

>  <type>  (8) 
unop_4

>  <geom_source>  (8) 
Heuristics

$$$$

     RDKit          3D

 27 26  0  0  0  0  0  0  0  0999 V2000
    0.5065    0.5513   -2.1991 C   0  0  0  0  0  0  0  0  0  0  0  0
    0.5065    0.5513   -0.6770 C   0  0  0  0  0  0  0  0  0  0  0  0
   -0.5418    1.3639   -0.1849 O   0  0  0  0  0  0  0  0  0  0  0  0
   -0.4509    2.6634   -0.6843 C   0  0  0  0  0  0  0  0  0  0  0  0
   -0.5418    2.7196   -2.0753 O   0  0  0  0  0  0  0  0  0  0  0  0
    0.5065    1.9929   -2.6872 C   0  0  0  0  0  0  0  0  0  0  0  0
    1.3805    0.0188   -2.5809 H   0  0  0  0  0  0  0  0  0  0  0  0
   -0.3901    0.0451   -2.5621 H   0  0  0  0  0  0  0  0  0  0  0  0
    0.3158   -0.6458   -0.1882 H   0  0  0  0  0  0  0  0  0  0  0  0
    1.4701    0.9272   -0.3003 H   0  0  0  0  0  0  0  0  0  0  0  0
    0.5044    3.1155   -0.3600 H   0  0  0  0  0  0  0  0  0  0  0  0
   -1.2919    3.2239   -0.2823 H   0  0  0  0  0  0  0  0  0  0  0  0
    1.4701    2.4703   -2.4519 H   0  0  0  0  0  0  0  0  0  0  0  0
    0.3475    2.0588   -3.7626 H   0  0  0  0  0  0  0  0  0  0  0  0
    0.1247   -1.8451    0.3015 C   0  0  0  0  0  3  0  0  0  0  0  0
    0.1265   -1.8336    1.8242 C   0  0  0  0  0  0  0  0  0  0  0  0
   -0.0935   -3.2139    2.4322 C   0  0  0  0  0  0  0  0  0  0  0  0
   -0.0916   -3.2025    3.9549 C   0  0  0  0  0  0  0  0  0  0  0  0
   -0.8271   -2.2162   -0.0859 H   0  0  0  0  0  0  0  0  0  0  0  0
    0.9140   -2.4937   -0.0859 H   0  0  0  0  0  0  0  0  0  0  0  0
   -0.6513   -1.1540    2.1873 H   0  0  0  0  0  0  0  0  0  0  0  0
    1.0770   -1.4294    2.1873 H   0  0  0  0  0  0  0  0  0  0  0  0
   -1.0439   -3.6181    2.0691 H   0  0  0  0  0  0  0  0  0  0  0  0
    0.6843   -3.8935    2.0691 H   0  0  0  0  0  0  0  0  0  0  0  0
   -0.8809   -2.5538    4.3423 H   0  0  0  0  0  0  0  0  0  0  0  0
    0.8602   -2.8313    4.3423 H   0  0  0  0  0  0  0  0  0  0  0  0
   -0.2509   -4.2019    4.3630 H   0  0  0  0  0  0  0  0  0  0  0  0
  1  2  1  0
  1  6  1  0
  1  7  1  0
  1  8  1  0
  2  3  1  0
  2  9  1  0
  2 10  1  0
  3  4  1  0
  4  5  1  0
  4 11  1  0
  4 12  1  0
  5  6  1  0
  6 13  1  0
  6 14  1  0
 15 16  1  0
 15 19  1  0
 15 20  1  0
 16 17  1  0
 16 21  1  0
 16 22  1  0
 17 18  1  0
 17 23  1  0
 17 24  1  0
 18 25  1  0
 18 26  1  0
 18 27  1  0
M  RAD  1  15   2
M  END
>  <reaction>  (9) 
rmg_rxn_257

>  <mol_properties>  (9) 
{"1": {"label": "*1", "atom_type": "Cs"}, "2": {"label": "*0", "atom_type": "O2s"}, "8": {"label": "*2", "atom_type": "H0"}, "14": {"label": "*3", "atom_type": "Cs"}, "15": {"label": "*4", "atom_type": "Cs"}}

>  <type>  (9) 
unop_5

>  <geom_source>  (9) 
Heuristics

$$$$

     RDKit          3D

 27 26  0  0  0  0  0  0  0  0999 V2000
    1.1124    0.5463   -1.8122 C   0  0  0  0  0  0  0  0  0  0  0  0
    1.1124    0.5463   -0.2902 C   0  0  0  0  0  0  0  0  0  0  0  0
    0.0641    1.3589    0.2019 O   0  0  0  0  0  0  0  0  0  0  0  0
    0.1550    2.6585   -0.2974 C   0  0  0  0  0  0  0  0  0  0  0  0
    0.0641    2.7147   -1.6885 O   0  0  0  0  0  0  0  0  0  0  0  0
    1.1124    1.9880   -2.3003 C   0  0  0  0  0  0  0  0  0  0  0  0
    1.9863    0.0139   -2.1941 H   0  0  0  0  0  0  0  0  0  0  0  0
    0.2158    0.0402   -2.1752 H   0  0  0  0  0  0  0  0  0  0  0  0
    0.9216   -0.6507    0.1986 H   0  0  0  0  0  0  0  0  0  0  0  0
    2.0760    0.9223    0.0865 H   0  0  0  0  0  0  0  0  0  0  0  0
    1.1103    3.1106    0.0268 H   0  0  0  0  0  0  0  0  0  0  0  0
   -0.6861    3.2190    0.1046 H   0  0  0  0  0  0  0  0  0  0  0  0
    2.0760    2.4654   -2.0650 H   0  0  0  0  0  0  0  0  0  0  0  0
    0.9534    2.0539   -3.3758 H   0  0  0  0  0  0  0  0  0  0  0  0
    0.7305   -1.8500    0.6883 C   0  0  0  0  0  3  0  0  0  0  0  0
   -0.7499   -2.1388    0.8973 C   0  0  0  0  0  0  0  0  0  0  0  0
   -1.0327   -2.9095    2.1816 C   0  0  0  0  0  0  0  0  0  0  0  0
   -2.5131   -3.1983    2.3906 C   0  0  0  0  0  0  0  0  0  0  0  0
    1.3067   -2.7769    0.6375 H   0  0  0  0  0  0  0  0  0  0  0  0
    1.1335   -1.2559    1.5121 H   0  0  0  0  0  0  0  0  0  0  0  0
   -1.1370   -2.7074    0.0456 H   0  0  0  0  0  0  0  0  0  0  0  0
   -1.3089   -1.1976    0.9137 H   0  0  0  0  0  0  0  0  0  0  0  0
   -0.4736   -3.8506    2.1652 H   0  0  0  0  0  0  0  0  0  0  0  0
   -0.6456   -2.3408    3.0333 H   0  0  0  0  0  0  0  0  0  0  0  0
   -2.9160   -3.7924    1.5668 H   0  0  0  0  0  0  0  0  0  0  0  0
   -3.0893   -2.2714    2.4414 H   0  0  0  0  0  0  0  0  0  0  0  0
   -2.6866   -3.7501    3.3158 H   0  0  0  0  0  0  0  0  0  0  0  0
  1  2  1  0
  1  6  1  0
  1  7  1  0
  1  8  1  0
  2  3  1  0
  2  9  1  0
  2 10  1  0
  3  4  1  0
  4  5  1  0
  4 11  1  0
  4 12  1  0
  5  6  1  0
  6 13  1  0
  6 14  1  0
 15 16  1  0
 15 19  1  0
 15 20  1  0
 16 17  1  0
 16 21  1  0
 16 22  1  0
 17 18  1  0
 17 23  1  0
 17 24  1  0
 18 25  1  0
 18 26  1  0
 18 27  1  0
M  RAD  1  15   2
M  END
>  <reaction>  (10) 
rmg_rxn_257

>  <mol_properties>  (10) 
{"1": {"label": "*1", "atom_type": "Cs"}, "2": {"label": "*0", "atom_type": "O2s"}, "8": {"label": "*2", "atom_type": "H0"}, "14": {"label": "*3", "atom_type": "Cs"}, "15": {"label": "*4", "atom_type": "Cs"}}

>  <type>  (10) 
unop_6

>  <geom_source>  (10) 
Heuristics

$$$$

     RDKit          3D

 27 26  0  0  0  0  0  0  0  0999 V2000
    0.9259    0.4695   -2.0687 C   0  0  0  0  0  0  0  0  0  0  0  0
    0.9259    0.4695   -0.5467 C   0  0  0  0  0  0  0  0  0  0  0  0
   -0.1224    1.2821   -0.0546 O   0  0  0  0  0  0  0  0  0  0  0  0
   -0.0315    2.5817   -0.5539 C   0  0  0  0  0  0  0  0  0  0  0  0
   -0.1224    2.6379   -1.9450 O   0  0  0  0  0  0  0  0  0  0  0  0
    0.9259    1.9112   -2.5569 C   0  0  0  0  0  0  0  0  0  0  0  0
    1.7999   -0.0629   -2.4506 H   0  0  0  0  0  0  0  0  0  0  0  0
    0.0293   -0.0366   -2.4318 H   0  0  0  0  0  0  0  0  0  0  0  0
    0.7352   -0.7275   -0.0579 H   0  0  0  0  0  0  0  0  0  0  0  0
    1.8895    0.8455   -0.1700 H   0  0  0  0  0  0  0  0  0  0  0  0
    0.9239    3.0337   -0.2297 H   0  0  0  0  0  0  0  0  0  0  0  0
   -0.8725    3.1422   -0.1519 H   0  0  0  0  0  0  0  0  0  0  0  0
    1.8895    2.3886   -2.3216 H   0  0  0  0  0  0  0  0  0  0  0  0
    0.7670    1.9771   -3.6323 H   0  0  0  0  0  0  0  0  0  0  0  0
    0.5441   -1.9268    0.4318 C   0  0  0  0  0  3  0  0  0  0  0  0
   -0.7072   -1.9839    1.2976 C   0  0  0  0  0  0  0  0  0  0  0  0
   -0.5279   -2.8320    2.5514 C   0  0  0  0  0  0  0  0  0  0  0  0
   -1.7792   -2.8891    3.4172 C   0  0  0  0  0  0  0  0  0  0  0  0
    0.8374   -2.9261    0.1016 H   0  0  0  0  0  0  0  0  0  0  0  0
    1.3846   -1.5027    0.9863 H   0  0  0  0  0  0  0  0  0  0  0  0
   -1.5415   -2.3827    0.7115 H   0  0  0  0  0  0  0  0  0  0  0  0
   -0.9983   -0.9697    1.5897 H   0  0  0  0  0  0  0  0  0  0  0  0
   -0.2368   -3.8462    2.2593 H   0  0  0  0  0  0  0  0  0  0  0  0
    0.3064   -2.4332    3.1375 H   0  0  0  0  0  0  0  0  0  0  0  0
   -2.6198   -3.3132    2.8628 H   0  0  0  0  0  0  0  0  0  0  0  0
   -2.0726   -1.8898    3.7475 H   0  0  0  0  0  0  0  0  0  0  0  0
   -1.6231   -3.5019    4.3065 H   0  0  0  0  0  0  0  0  0  0  0  0
  1  2  1  0
  1  6  1  0
  1  7  1  0
  1  8  1  0
  2  3  1  0
  2  9  1  0
  2 10  1  0
  3  4  1  0
  4  5  1  0
  4 11  1  0
  4 12  1  0
  5  6  1  0
  6 13  1  0
  6 14  1  0
 15 16  1  0
 15 19  1  0
 15 20  1  0
 16 17  1  0
 16 21  1  0
 16 22  1  0
 17 18  1  0
 17 23  1  0
 17 24  1  0
 18 25  1  0
 18 26  1  0
 18 27  1  0
M  RAD  1  15   2
M  END
>  <reaction>  (11) 
rmg_rxn_257

>  <mol_properties>  (11) 
{"1": {"label": "*1", "atom_type": "Cs"}, "2": {"label": "*0", "atom_type": "O2s"}, "8": {"label": "*2", "atom_type": "H0"}, "14": {"label": "*3", "atom_type": "Cs"}, "15": {"label": "*4", "atom_type": "Cs"}}

>  <type>  (11) 
unop_7

>  <geom_source>  (11) 
Heuristics

$$$$

     RDKit          3D

 27 26  0  0  0  0  0  0  0  0999 V2000
   -0.0709    0.7349   -1.8122 C   0  0  0  0  0  0  0  0  0  0  0  0
   -0.0709    0.7349   -0.2902 C   0  0  0  0  0  0  0  0  0  0  0  0
   -1.1192    1.5475    0.2019 O   0  0  0  0  0  0  0  0  0  0  0  0
   -1.0283    2.8470   -0.2974 C   0  0  0  0  0  0  0  0  0  0  0  0
   -1.1192    2.9032   -1.6885 O   0  0  0  0  0  0  0  0  0  0  0  0
   -0.0709    2.1765   -2.3003 C   0  0  0  0  0  0  0  0  0  0  0  0
    0.8031    0.2024   -2.1941 H   0  0  0  0  0  0  0  0  0  0  0  0
   -0.9675    0.2287   -2.1752 H   0  0  0  0  0  0  0  0  0  0  0  0
   -0.2616   -0.4621    0.1986 H   0  0  0  0  0  0  0  0  0  0  0  0
    0.8927    1.1108    0.0865 H   0  0  0  0  0  0  0  0  0  0  0  0
   -0.0729    3.2991    0.0268 H   0  0  0  0  0  0  0  0  0  0  0  0
   -1.8693    3.4075    0.1046 H   0  0  0  0  0  0  0  0  0  0  0  0
    0.8927    2.6539   -2.0650 H   0  0  0  0  0  0  0  0  0  0  0  0
   -0.2298    2.2424   -3.3758 H   0  0  0  0  0  0  0  0  0  0  0  0
   -0.4527   -1.6614    0.6883 C   0  0  0  0  0  3  0  0  0  0  0  0
    0.8646   -2.3960    0.8973 C   0  0  0  0  0  0  0  0  0  0  0  0
    0.8939   -3.2165    2.1816 C   0  0  0  0  0  0  0  0  0  0  0  0
    2.2112   -3.9511    2.3906 C   0  0  0  0  0  0  0  0  0  0  0  0
   -0.6511   -0.9716    1.5121 H   0  0  0  0  0  0  0  0  0  0  0  0
   -1.2885   -2.3634    0.6375 H   0  0  0  0  0  0  0  0  0  0  0  0
    1.6885   -1.6752    0.9137 H   0  0  0  0  0  0  0  0  0  0  0  0
    1.0558   -3.0568    0.0456 H   0  0  0  0  0  0  0  0  0  0  0  0
    0.7027   -2.5557    3.0333 H   0  0  0  0  0  0  0  0  0  0  0  0
    0.0700   -3.9373    2.1652 H   0  0  0  0  0  0  0  0  0  0  0  0
    3.0469   -3.2491    2.4414 H   0  0  0  0  0  0  0  0  0  0  0  0
    2.4095   -4.6409    1.5668 H   0  0  0  0  0  0  0  0  0  0  0  0
    2.2047   -4.5295    3.3158 H   0  0  0  0  0  0  0  0  0  0  0  0
  1  2  1  0
  1  6  1  0
  1  7  1  0
  1  8  1  0
  2  3  1  0
  2  9  1  0
  2 10  1  0
  3  4  1  0
  4  5  1  0
  4 11  1  0
  4 12  1  0
  5  6  1  0
  6 13  1  0
  6 14  1  0
 15 16  1  0
 15 19  1  0
 15 20  1  0
 16 17  1  0
 16 21  1  0
 16 22  1  0
 17 18  1  0
 17 23  1  0
 17 24  1  0
 18 25  1  0
 18 26  1  0
 18 27  1  0
M  RAD  1  15   2
M  END
>  <reaction>  (12) 
rmg_rxn_257

>  <mol_properties>  (12) 
{"1": {"label": "*1", "atom_type": "Cs"}, "2": {"label": "*0", "atom_type": "O2s"}, "8": {"label": "*2", "atom_type": "H0"}, "14": {"label": "*3", "atom_type": "Cs"}, "15": {"label": "*4", "atom_type": "Cs"}}

>  <type>  (12) 
unop_8

>  <geom_source>  (12) 
Heuristics

$$$$

     RDKit          3D

 27 26  0  0  0  0  0  0  0  0999 V2000
    0.9281    0.8630   -1.2360 C   0  0  0  0  0  0  0  0  0  0  0  0
    0.9281    0.8630    0.2861 C   0  0  0  0  0  0  0  0  0  0  0  0
   -0.1202    1.6756    0.7782 O   0  0  0  0  0  0  0  0  0  0  0  0
   -0.0293    2.9752    0.2788 C   0  0  0  0  0  0  0  0  0  0  0  0
   -0.1202    3.0314   -1.1122 O   0  0  0  0  0  0  0  0  0  0  0  0
    0.9281    2.3047   -1.7241 C   0  0  0  0  0  0  0  0  0  0  0  0
    1.8021    0.3306   -1.6178 H   0  0  0  0  0  0  0  0  0  0  0  0
    0.0315    0.3569   -1.5990 H   0  0  0  0  0  0  0  0  0  0  0  0
    0.7373   -0.3340    0.7749 H   0  0  0  0  0  0  0  0  0  0  0  0
    1.8917    1.2390    0.6628 H   0  0  0  0  0  0  0  0  0  0  0  0
    0.9260    3.4272    0.6031 H   0  0  0  0  0  0  0  0  0  0  0  0
   -0.8704    3.5357    0.6808 H   0  0  0  0  0  0  0  0  0  0  0  0
    1.8917    2.7821   -1.4888 H   0  0  0  0  0  0  0  0  0  0  0  0
    0.7691    2.3706   -2.7995 H   0  0  0  0  0  0  0  0  0  0  0  0
    0.5462   -1.5333    1.2646 C   0  0  0  0  0  3  0  0  0  0  0  0
   -0.3069   -2.3866    0.3358 C   0  0  0  0  0  0  0  0  0  0  0  0
   -0.9146   -3.6002    1.0297 C   0  0  0  0  0  0  0  0  0  0  0  0
   -1.7678   -4.4535    0.1009 C   0  0  0  0  0  0  0  0  0  0  0  0
    1.3753   -2.1130    1.6773 H   0  0  0  0  0  0  0  0  0  0  0  0
   -0.0441   -1.1583    2.1040 H   0  0  0  0  0  0  0  0  0  0  0  0
    0.2980   -2.7242   -0.5119 H   0  0  0  0  0  0  0  0  0  0  0  0
   -1.1109   -1.7765   -0.0883 H   0  0  0  0  0  0  0  0  0  0  0  0
   -0.1106   -4.2103    1.4539 H   0  0  0  0  0  0  0  0  0  0  0  0
   -1.5196   -3.2626    1.8774 H   0  0  0  0  0  0  0  0  0  0  0  0
   -1.1774   -4.8285   -0.7385 H   0  0  0  0  0  0  0  0  0  0  0  0
   -2.5968   -3.8738   -0.3118 H   0  0  0  0  0  0  0  0  0  0  0  0
   -2.1897   -5.3140    0.6227 H   0  0  0  0  0  0  0  0  0  0  0  0
  1  2  1  0
  1  6  1  0
  1  7  1  0
  1  8  1  0
  2  3  1  0
  2  9  1  0
  2 10  1  0
  3  4  1  0
  4  5  1  0
  4 11  1  0
  4 12  1  0
  5  6  1  0
  6 13  1  0
  6 14  1  0
 15 16  1  0
 15 19  1  0
 15 20  1  0
 16 17  1  0
 16 21  1  0
 16 22  1  0
 17 18  1  0
 17 23  1  0
 17 24  1  0
 18 25  1  0
 18 26  1  0
 18 27  1  0
M  RAD  1  15   2
M  END
>  <reaction>  (13) 
rmg_rxn_257

>  <mol_properties>  (13) 
{"1": {"label": "*1", "atom_type": "Cs"}, "2": {"label": "*0", "atom_type": "O2s"}, "8": {"label": "*2", "atom_type": "H0"}, "14": {"label": "*3", "atom_type": "Cs"}, "15": {"label": "*4", "atom_type": "Cs"}}

>  <type>  (13) 
unop_9

>  <geom_source>  (13) 
Heuristics

$$$$

     RDKit          3D

 27 26  0  0  0  0  0  0  0  0999 V2000
   -0.0358    0.8803   -1.4982 C   0  0  0  0  0  0  0  0  0  0  0  0
   -0.0358    0.8803    0.0238 C   0  0  0  0  0  0  0  0  0  0  0  0
   -1.0841    1.6929    0.5159 O   0  0  0  0  0  0  0  0  0  0  0  0
   -0.9932    2.9924    0.0166 C   0  0  0  0  0  0  0  0  0  0  0  0
   -1.0841    3.0486   -1.3744 O   0  0  0  0  0  0  0  0  0  0  0  0
   -0.0358    2.3219   -1.9863 C   0  0  0  0  0  0  0  0  0  0  0  0
    0.8382    0.3478   -1.8801 H   0  0  0  0  0  0  0  0  0  0  0  0
   -0.9324    0.3741   -1.8612 H   0  0  0  0  0  0  0  0  0  0  0  0
   -0.2266   -0.3168    0.5126 H   0  0  0  0  0  0  0  0  0  0  0  0
    0.9278    1.2562    0.4006 H   0  0  0  0  0  0  0  0  0  0  0  0
   -0.0379    3.4445    0.3408 H   0  0  0  0  0  0  0  0  0  0  0  0
   -1.8343    3.5529    0.4186 H   0  0  0  0  0  0  0  0  0  0  0  0
    0.9278    2.7993   -1.7510 H   0  0  0  0  0  0  0  0  0  0  0  0
   -0.1948    2.3878   -3.0618 H   0  0  0  0  0  0  0  0  0  0  0  0
   -0.4176   -1.5161    1.0024 C   0  0  0  0  0  3  0  0  0  0  0  0
    0.6706   -2.4824    0.5545 C   0  0  0  0  0  0  0  0  0  0  0  0
    0.9756   -3.5596    1.5889 C   0  0  0  0  0  0  0  0  0  0  0  0
    2.0639   -4.5259    1.1410 C   0  0  0  0  0  0  0  0  0  0  0  0
   -0.1302   -1.0022    1.9227 H   0  0  0  0  0  0  0  0  0  0  0  0
   -1.3538   -2.0444    1.1982 H   0  0  0  0  0  0  0  0  0  0  0  0
    1.5878   -1.9264    0.3350 H   0  0  0  0  0  0  0  0  0  0  0  0
    0.3732   -2.9609   -0.3842 H   0  0  0  0  0  0  0  0  0  0  0  0
    1.2730   -3.0810    2.5276 H   0  0  0  0  0  0  0  0  0  0  0  0
    0.0584   -4.1156    1.8083 H   0  0  0  0  0  0  0  0  0  0  0  0
    3.0000   -3.9976    0.9451 H   0  0  0  0  0  0  0  0  0  0  0  0
    1.7764   -5.0398    0.2206 H   0  0  0  0  0  0  0  0  0  0  0  0
    2.2618   -5.2854    1.8991 H   0  0  0  0  0  0  0  0  0  0  0  0
  1  2  1  0
  1  6  1  0
  1  7  1  0
  1  8  1  0
  2  3  1  0
  2  9  1  0
  2 10  1  0
  3  4  1  0
  4  5  1  0
  4 11  1  0
  4 12  1  0
  5  6  1  0
  6 13  1  0
  6 14  1  0
 15 16  1  0
 15 19  1  0
 15 20  1  0
 16 17  1  0
 16 21  1  0
 16 22  1  0
 17 18  1  0
 17 23  1  0
 17 24  1  0
 18 25  1  0
 18 26  1  0
 18 27  1  0
M  RAD  1  15   2
M  END
>  <reaction>  (14) 
rmg_rxn_257

>  <mol_properties>  (14) 
{"1": {"label": "*1", "atom_type": "Cs"}, "2": {"label": "*0", "atom_type": "O2s"}, "8": {"label": "*2", "atom_type": "H0"}, "14": {"label": "*3", "atom_type": "Cs"}, "15": {"label": "*4", "atom_type": "Cs"}}

>  <type>  (14) 
unop_10

>  <geom_source>  (14) 
Heuristics

$$$$

     RDKit          3D

 27 26  0  0  0  0  0  0  0  0999 V2000
    0.6724    0.4916   -2.1904 C   0  0  0  0  0  0  0  0  0  0  0  0
    0.6724    0.4916   -0.6684 C   0  0  0  0  0  0  0  0  0  0  0  0
   -0.3759    1.3042   -0.1763 O   0  0  0  0  0  0  0  0  0  0  0  0
   -0.2850    2.6038   -0.6756 C   0  0  0  0  0  0  0  0  0  0  0  0
   -0.3759    2.6600   -2.0667 O   0  0  0  0  0  0  0  0  0  0  0  0
    0.6724    1.9332   -2.6785 C   0  0  0  0  0  0  0  0  0  0  0  0
    1.5464   -0.0409   -2.5723 H   0  0  0  0  0  0  0  0  0  0  0  0
   -0.2242   -0.0146   -2.5535 H   0  0  0  0  0  0  0  0  0  0  0  0
    0.4817   -0.7054   -0.1796 H   0  0  0  0  0  0  0  0  0  0  0  0
    1.6360    0.8676   -0.2917 H   0  0  0  0  0  0  0  0  0  0  0  0
    0.6704    3.0558   -0.3514 H   0  0  0  0  0  0  0  0  0  0  0  0
   -1.1260    3.1643   -0.2736 H   0  0  0  0  0  0  0  0  0  0  0  0
    1.6360    2.4106   -2.4433 H   0  0  0  0  0  0  0  0  0  0  0  0
    0.5135    1.9992   -3.7540 H   0  0  0  0  0  0  0  0  0  0  0  0
    0.2906   -1.9047    0.3101 C   0  0  0  0  0  3  0  0  0  0  0  0
   -0.4182   -1.8519    1.6568 C   0  0  0  0  0  0  0  0  0  0  0  0
   -0.0612   -3.0220    2.5660 C   0  0  0  0  0  0  0  0  0  0  0  0
   -0.7699   -2.9692    3.9127 C   0  0  0  0  0  0  0  0  0  0  0  0
    0.0349   -2.8187   -0.2311 H   0  0  0  0  0  0  0  0  0  0  0  0
    1.3756   -1.8897    0.4381 H   0  0  0  0  0  0  0  0  0  0  0  0
   -1.5018   -1.8367    1.5012 H   0  0  0  0  0  0  0  0  0  0  0  0
   -0.1709   -0.9145    2.1655 H   0  0  0  0  0  0  0  0  0  0  0  0
   -0.3084   -3.9594    2.0574 H   0  0  0  0  0  0  0  0  0  0  0  0
    1.0224   -3.0373    2.7216 H   0  0  0  0  0  0  0  0  0  0  0  0
   -1.8549   -2.9842    3.7848 H   0  0  0  0  0  0  0  0  0  0  0  0
   -0.5142   -2.0552    4.4540 H   0  0  0  0  0  0  0  0  0  0  0  0
   -0.4966   -3.8173    4.5425 H   0  0  0  0  0  0  0  0  0  0  0  0
  1  2  1  0
  1  6  1  0
  1  7  1  0
  1  8  1  0
  2  3  1  0
  2  9  1  0
  2 10  1  0
  3  4  1  0
  4  5  1  0
  4 11  1  0
  4 12  1  0
  5  6  1  0
  6 13  1  0
  6 14  1  0
 15 16  1  0
 15 19  1  0
 15 20  1  0
 16 17  1  0
 16 21  1  0
 16 22  1  0
 17 18  1  0
 17 23  1  0
 17 24  1  0
 18 25  1  0
 18 26  1  0
 18 27  1  0
M  RAD  1  15   2
M  END
>  <reaction>  (15) 
rmg_rxn_257

>  <mol_properties>  (15) 
{"1": {"label": "*1", "atom_type": "Cs"}, "2": {"label": "*0", "atom_type": "O2s"}, "8": {"label": "*2", "atom_type": "H0"}, "14": {"label": "*3", "atom_type": "Cs"}, "15": {"label": "*4", "atom_type": "Cs"}}

>  <type>  (15) 
unop_11

>  <geom_source>  (15) 
Heuristics

$$$$

     RDKit          3D

 27 26  0  0  0  0  0  0  0  0999 V2000
    0.5742    0.9761   -1.1323 C   0  0  0  0  0  0  0  0  0  0  0  0
    0.5742    0.9761    0.3897 C   0  0  0  0  0  0  0  0  0  0  0  0
   -0.4741    1.7887    0.8818 O   0  0  0  0  0  0  0  0  0  0  0  0
   -0.3832    3.0883    0.3825 C   0  0  0  0  0  0  0  0  0  0  0  0
   -0.4741    3.1444   -1.0085 O   0  0  0  0  0  0  0  0  0  0  0  0
    0.5742    2.4177   -1.6204 C   0  0  0  0  0  0  0  0  0  0  0  0
    1.4482    0.4436   -1.5142 H   0  0  0  0  0  0  0  0  0  0  0  0
   -0.3224    0.4699   -1.4953 H   0  0  0  0  0  0  0  0  0  0  0  0
    0.3834   -0.2209    0.8785 H   0  0  0  0  0  0  0  0  0  0  0  0
    1.5378    1.3521    0.7665 H   0  0  0  0  0  0  0  0  0  0  0  0
    0.5721    3.5403    0.7067 H   0  0  0  0  0  0  0  0  0  0  0  0
   -1.2243    3.6488    0.7845 H   0  0  0  0  0  0  0  0  0  0  0  0
    1.5378    2.8951   -1.3851 H   0  0  0  0  0  0  0  0  0  0  0  0
    0.4152    2.4837   -2.6959 H   0  0  0  0  0  0  0  0  0  0  0  0
    0.1924   -1.4202    1.3683 C   0  0  0  0  0  3  0  0  0  0  0  0
    0.0275   -2.4551    0.2635 C   0  0  0  0  0  0  0  0  0  0  0  0
   -0.1973   -3.8659    0.7952 C   0  0  0  0  0  0  0  0  0  0  0  0
   -0.3622   -4.9007   -0.3096 C   0  0  0  0  0  0  0  0  0  0  0  0
    1.0467   -1.6608    2.0055 H   0  0  0  0  0  0  0  0  0  0  0  0
   -0.6944   -1.3833    2.0055 H   0  0  0  0  0  0  0  0  0  0  0  0
    0.9141   -2.4513   -0.3787 H   0  0  0  0  0  0  0  0  0  0  0  0
   -0.8141   -2.1759   -0.3787 H   0  0  0  0  0  0  0  0  0  0  0  0
    0.6443   -4.1450    1.4374 H   0  0  0  0  0  0  0  0  0  0  0  0
   -1.0840   -3.8697    1.4374 H   0  0  0  0  0  0  0  0  0  0  0  0
    0.5245   -4.9376   -0.9468 H   0  0  0  0  0  0  0  0  0  0  0  0
   -1.2165   -4.6602   -0.9468 H   0  0  0  0  0  0  0  0  0  0  0  0
   -0.5215   -5.9001    0.0986 H   0  0  0  0  0  0  0  0  0  0  0  0
  1  2  1  0
  1  6  1  0
  1  7  1  0
  1  8  1  0
  2  3  1  0
  2  9  1  0
  2 10  1  0
  3  4  1  0
  4  5  1  0
  4 11  1  0
  4 12  1  0
  5  6  1  0
  6 13  1  0
  6 14  1  0
 15 16  1  0
 15 19  1  0
 15 20  1  0
 16 17  1  0
 16 21  1  0
 16 22  1  0
 17 18  1  0
 17 23  1  0
 17 24  1  0
 18 25  1  0
 18 26  1  0
 18 27  1  0
M  RAD  1  15   2
M  END
>  <reaction>  (16) 
rmg_rxn_257

>  <mol_properties>  (16) 
{"1": {"label": "*1", "atom_type": "Cs"}, "2": {"label": "*0", "atom_type": "O2s"}, "8": {"label": "*2", "atom_type": "H0"}, "14": {"label": "*3", "atom_type": "Cs"}, "15": {"label": "*4", "atom_type": "Cs"}}

>  <type>  (16) 
unop_12

>  <geom_source>  (16) 
Heuristics

$$$$

     RDKit          3D

 27 26  0  0  0  0  0  0  0  0999 V2000
   -3.9314    0.0122   -0.0972 O   0  0  0  0  0  0  0  0  0  0  0  0
   -1.9976   -1.1424    0.7284 O   0  0  0  0  0  0  0  0  0  0  0  0
    2.2784   -0.0048   -0.9747 C   0  0  0  0  0  0  0  0  0  0  0  0
    2.7336   -0.3220    0.4534 C   0  0  0  0  0  0  0  0  0  0  0  0
   -1.8585    1.2003    0.1883 C   0  0  0  0  0  0  0  0  0  0  0  0
   -3.3345    1.0992    0.5755 C   0  0  0  0  0  0  0  0  0  0  0  0
    0.9358   -0.6601   -1.2797 C   0  0  0  0  0  0  0  0  0  0  0  0
    4.0765    0.3336    0.7615 C   0  0  0  0  0  0  0  0  0  0  0  0
   -3.3684   -1.2189    0.3481 C   0  0  0  0  0  0  0  0  0  0  0  0
   -1.3202   -0.2035   -0.0767 C   0  0  0  0  0  3  0  0  0  0  0  0
    2.1763    1.0951   -1.0999 H   0  0  0  0  0  0  0  0  0  0  0  0
    3.0340   -0.3752   -1.7015 H   0  0  0  0  0  0  0  0  0  0  0  0
    1.9775    0.0489    1.1795 H   0  0  0  0  0  0  0  0  0  0  0  0
    2.8333   -1.4222    0.5798 H   0  0  0  0  0  0  0  0  0  0  0  0
   -1.2850    1.6698    1.0154 H   0  0  0  0  0  0  0  0  0  0  0  0
   -1.7398    1.8207   -0.7264 H   0  0  0  0  0  0  0  0  0  0  0  0
   -3.4440    0.9847    1.6788 H   0  0  0  0  0  0  0  0  0  0  0  0
   -3.8565    2.0358    0.2865 H   0  0  0  0  0  0  0  0  0  0  0  0
    1.0154   -1.7644   -1.1893 H   0  0  0  0  0  0  0  0  0  0  0  0
    0.6257   -0.4093   -2.3160 H   0  0  0  0  0  0  0  0  0  0  0  0
    0.0374   -0.2290   -0.4637 H   0  0  0  0  0  0  0  0  0  0  0  0
    4.8571   -0.0398    0.0648 H   0  0  0  0  0  0  0  0  0  0  0  0
    4.3808    0.0871    1.8006 H   0  0  0  0  0  0  0  0  0  0  0  0
    3.9977    1.4377    0.6670 H   0  0  0  0  0  0  0  0  0  0  0  0
   -3.4751   -1.9710   -0.4622 H   0  0  0  0  0  0  0  0  0  0  0  0
   -3.9558   -1.5885    1.2151 H   0  0  0  0  0  0  0  0  0  0  0  0
   -1.3926   -0.4743   -1.1552 H   0  0  0  0  0  0  0  0  0  0  0  0
  1  6  1  0
  1  9  1  0
  2 10  1  0
  2  9  1  0
  3  7  1  0
  3  4  1  0
  3 11  1  0
  3 12  1  0
  4  8  1  0
  4 13  1  0
  4 14  1  0
  5 10  1  0
  5  6  1  0
  5 15  1  0
  5 16  1  0
  6 17  1  0
  6 18  1  0
  7 19  1  0
  7 20  1  0
  7 21  1  0
  8 22  1  0
  8 23  1  0
  8 24  1  0
  9 25  1  0
  9 26  1  0
 10 27  1  0
M  RAD  1  10   2
M  END
>  <reaction>  (17) 
rmg_rxn_257

>  <mol_properties>  (17) 
{"1": {"label": "*1", "atom_type": "Cs"}, "2": {"label": "*0", "atom_type": "O2s"}, "8": {"label": "*2", "atom_type": "H0"}, "14": {"label": "*3", "atom_type": "Cs"}, "15": {"label": "*4", "atom_type": "Cs"}}

>  <type>  (17) 
unop_13

>  <geom_source>  (17) 
AutoTST

$$$$

     RDKit          3D

 27 26  0  0  0  0  0  0  0  0999 V2000
    0.2027    0.9786   -1.2360 C   0  0  0  0  0  0  0  0  0  0  0  0
    0.2027    0.9786    0.2861 C   0  0  0  0  0  0  0  0  0  0  0  0
   -0.8456    1.7912    0.7782 O   0  0  0  0  0  0  0  0  0  0  0  0
   -0.7547    3.0908    0.2788 C   0  0  0  0  0  0  0  0  0  0  0  0
   -0.8456    3.1469   -1.1122 O   0  0  0  0  0  0  0  0  0  0  0  0
    0.2027    2.4202   -1.7241 C   0  0  0  0  0  0  0  0  0  0  0  0
    1.0767    0.4461   -1.6178 H   0  0  0  0  0  0  0  0  0  0  0  0
   -0.6939    0.4724   -1.5990 H   0  0  0  0  0  0  0  0  0  0  0  0
    0.0119   -0.2184    0.7749 H   0  0  0  0  0  0  0  0  0  0  0  0
    1.1663    1.3546    0.6628 H   0  0  0  0  0  0  0  0  0  0  0  0
    0.2006    3.5428    0.6031 H   0  0  0  0  0  0  0  0  0  0  0  0
   -1.5958    3.6513    0.6808 H   0  0  0  0  0  0  0  0  0  0  0  0
    1.1663    2.8976   -1.4888 H   0  0  0  0  0  0  0  0  0  0  0  0
    0.0437    2.4862   -2.7995 H   0  0  0  0  0  0  0  0  0  0  0  0
   -0.1792   -1.4177    1.2646 C   0  0  0  0  0  3  0  0  0  0  0  0
    0.3665   -2.4939    0.3358 C   0  0  0  0  0  0  0  0  0  0  0  0
    0.5670   -3.8363    1.0297 C   0  0  0  0  0  0  0  0  0  0  0  0
    1.1127   -4.9125    0.1009 C   0  0  0  0  0  0  0  0  0  0  0  0
    0.4985   -1.2448    2.1040 H   0  0  0  0  0  0  0  0  0  0  0  0
   -1.1473   -1.7111    1.6773 H   0  0  0  0  0  0  0  0  0  0  0  0
    1.3204   -2.1639   -0.0883 H   0  0  0  0  0  0  0  0  0  0  0  0
   -0.3134   -2.6268   -0.5119 H   0  0  0  0  0  0  0  0  0  0  0  0
    1.2469   -3.7034    1.8774 H   0  0  0  0  0  0  0  0  0  0  0  0
   -0.3868   -4.1663    1.4539 H   0  0  0  0  0  0  0  0  0  0  0  0
    2.0809   -4.6191   -0.3118 H   0  0  0  0  0  0  0  0  0  0  0  0
    0.4350   -5.0854   -0.7385 H   0  0  0  0  0  0  0  0  0  0  0  0
    1.2463   -5.8615    0.6227 H   0  0  0  0  0  0  0  0  0  0  0  0
  1  2  1  0
  1  6  1  0
  1  7  1  0
  1  8  1  0
  2  3  1  0
  2  9  1  0
  2 10  1  0
  3  4  1  0
  4  5  1  0
  4 11  1  0
  4 12  1  0
  5  6  1  0
  6 13  1  0
  6 14  1  0
 15 16  1  0
 15 19  1  0
 15 20  1  0
 16 17  1  0
 16 21  1  0
 16 22  1  0
 17 18  1  0
 17 23  1  0
 17 24  1  0
 18 25  1  0
 18 26  1  0
 18 27  1  0
M  RAD  1  15   2
M  END
>  <reaction>  (18) 
rmg_rxn_257

>  <mol_properties>  (18) 
{"1": {"label": "*1", "atom_type": "Cs"}, "2": {"label": "*0", "atom_type": "O2s"}, "8": {"label": "*2", "atom_type": "H0"}, "14": {"label": "*3", "atom_type": "Cs"}, "15": {"label": "*4", "atom_type": "Cs"}}

>  <type>  (18) 
unop_14

>  <geom_source>  (18) 
gaussian_log

$$$$
