
     RDKit          3D

 10  9  0  0  0  0  0  0  0  0999 V2000
    2.0404   -0.0582    0.0133 C   0  0  0  0  0  0  0  0  0  0  0  0
    0.5946   -0.0174    0.1905 C   0  0  0  0  0  0  0  0  0  0  0  0
   -0.5946    0.0163    0.3362 C   0  0  0  0  0  0  0  0  0  0  0  0
   -2.0404    0.0572    0.5135 C   0  0  0  0  0  0  0  0  0  0  0  0
    2.4764    0.9342    0.1402 H   0  0  0  0  0  0  0  0  0  0  0  0
    2.3005   -0.4158   -0.9845 H   0  0  0  0  0  0  0  0  0  0  0  0
    2.5033   -0.7257    0.7421 H   0  0  0  0  0  0  0  0  0  0  0  0
   -2.5531   -0.2795   -0.3892 H   0  0  0  0  0  0  0  0  0  0  0  0
   -2.3771    1.0716    0.7341 H   0  0  0  0  0  0  0  0  0  0  0  0
   -2.3500   -0.5877    1.3377 H   0  0  0  0  0  0  0  0  0  0  0  0
  1  2  1  0
  1  5  1  0
  1  6  1  0
  1  7  1  0
  2  3  3  0
  3  4  1  0
  4  8  1  0
  4  9  1  0
  4 10  1  0
M  END
>  <reaction>  (1) 
rmg_rxn_296

>  <mol_properties>  (1) 
{"3": {"label": "donator", "atom_type": "Cs"}, "9": {"label": "d_hydrogen", "atom_type": "H0"}}

>  <type>  (1) 
r1h

$$$$

     RDKit          3D

 11 10  0  0  0  0  0  0  0  0999 V2000
   -1.2230    0.3768   -0.0849 C   0  0  0  0  0  0  0  0  0  0  0  0
   -0.0734   -0.5533    0.2746 C   0  0  0  0  0  0  0  0  0  0  0  0
   -0.0853   -1.8426   -0.5372 C   0  0  0  0  0  0  0  0  0  0  0  0
    0.0319   -1.6944   -1.8815 O   0  0  0  0  0  1  0  0  0  0  0  0
   -2.1874   -0.0885    0.1341 H   0  0  0  0  0  0  0  0  0  0  0  0
   -1.1670    1.3099    0.4765 H   0  0  0  0  0  0  0  0  0  0  0  0
   -1.2014    0.6189   -1.1483 H   0  0  0  0  0  0  0  0  0  0  0  0
    0.8834   -0.0518    0.1071 H   0  0  0  0  0  0  0  0  0  0  0  0
   -0.1104   -0.8149    1.3362 H   0  0  0  0  0  0  0  0  0  0  0  0
    0.6767   -2.5604   -0.1861 H   0  0  0  0  0  0  0  0  0  0  0  0
   -1.0401   -2.3871   -0.3877 H   0  0  0  0  0  0  0  0  0  0  0  0
  1  2  1  0
  1  5  1  0
  1  6  1  0
  1  7  1  0
  2  3  1  0
  2  8  1  0
  2  9  1  0
  3  4  1  0
  3 10  1  0
  3 11  1  0
M  RAD  1   4   2
M  END
>  <reaction>  (2) 
rmg_rxn_296

>  <mol_properties>  (2) 
{"3": {"label": "acceptor", "atom_type": "O2s"}}

>  <type>  (2) 
r2

$$$$

     RDKit          3D

 12 11  0  0  0  0  0  0  0  0999 V2000
   -1.4643   -0.2505   -0.5284 C   0  0  0  0  0  0  0  0  0  0  0  0
   -0.3946    0.4302    0.3143 C   0  0  0  0  0  0  0  0  0  0  0  0
   -0.5959    0.2382    1.8102 C   0  0  0  0  0  0  0  0  0  0  0  0
   -0.5633   -1.1190    2.2092 O   0  0  0  0  0  0  0  0  0  0  0  0
   -2.4511    0.1644   -0.3109 H   0  0  0  0  0  0  0  0  0  0  0  0
   -1.5019   -1.3198   -0.3181 H   0  0  0  0  0  0  0  0  0  0  0  0
   -1.2720   -0.1182   -1.5941 H   0  0  0  0  0  0  0  0  0  0  0  0
    0.5965    0.0515    0.0385 H   0  0  0  0  0  0  0  0  0  0  0  0
   -0.3776    1.5047    0.1078 H   0  0  0  0  0  0  0  0  0  0  0  0
   -1.5821    0.6048    2.1034 H   0  0  0  0  0  0  0  0  0  0  0  0
    0.1495    0.8220    2.3649 H   0  0  0  0  0  0  0  0  0  0  0  0
    0.3017   -1.4750    1.9997 H   0  0  0  0  0  0  0  0  0  0  0  0
  1  2  1  0
  1  5  1  0
  1  6  1  0
  1  7  1  0
  2  3  1  0
  2  8  1  0
  2  9  1  0
  3  4  1  0
  3 10  1  0
  3 11  1  0
  4 12  1  0
M  END
>  <reaction>  (3) 
rmg_rxn_296

>  <mol_properties>  (3) 
{"3": {"label": "acceptor", "atom_type": "O2s"}, "11": {"label": "a_hydrogen", "atom_type": "H0"}}

>  <type>  (3) 
r2h

$$$$

     RDKit          3D

 21 19  0  0  0  0  0  0  0  0999 V2000
    0.3564    0.5770    3.2131 C   0  0  0  0  0  0  0  0  0  0  0  0
    0.6893    0.3195    1.7505 C   0  0  0  0  0  0  0  0  0  0  0  0
    0.1598   -1.0163    1.2458 C   0  0  0  0  0  0  0  0  0  0  0  0
   -1.2159   -1.1595    1.3485 O   0  0  0  0  0  1  0  0  0  0  0  0
    0.8167   -0.1762    3.8574 H   0  0  0  0  0  0  0  0  0  0  0  0
    0.7136    1.5564    3.5351 H   0  0  0  0  0  0  0  0  0  0  0  0
   -0.7217    0.5373    3.3733 H   0  0  0  0  0  0  0  0  0  0  0  0
    0.2723    1.1129    1.1229 H   0  0  0  0  0  0  0  0  0  0  0  0
    1.7729    0.3402    1.5976 H   0  0  0  0  0  0  0  0  0  0  0  0
    0.4880   -1.1886    0.2087 H   0  0  0  0  0  0  0  0  0  0  0  0
    0.5837   -1.8447    1.8341 H   0  0  0  0  0  0  0  0  0  0  0  0
    1.1986    0.5262   -3.0142 C   0  0  0  0  0  0  0  0  0  0  0  0
    0.0129    0.3901   -2.1828 C   0  0  0  0  0  0  0  0  0  0  0  0
   -0.9771    0.2874   -1.5046 C   0  0  0  0  0  0  0  0  0  0  0  0
   -2.0997    0.1340   -0.6412 C   0  0  0  0  0  0  0  0  0  0  0  0
    1.1064    1.3865   -3.6796 H   0  0  0  0  0  0  0  0  0  0  0  0
    1.3509   -0.3636   -3.6267 H   0  0  0  0  0  0  0  0  0  0  0  0
    2.0872    0.6730   -2.3974 H   0  0  0  0  0  0  0  0  0  0  0  0
   -2.8936   -0.4914   -1.0464 H   0  0  0  0  0  0  0  0  0  0  0  0
   -2.4824    1.0698   -0.2369 H   0  0  0  0  0  0  0  0  0  0  0  0
   -1.7328   -0.4936    0.3635 H   0  0  0  0  0  0  0  0  0  0  0  0
  1  2  1  0
  1  5  1  0
  1  6  1  0
  1  7  1  0
  2  3  1  0
  2  8  1  0
  2  9  1  0
  3  4  1  0
  3 10  1  0
  3 11  1  0
 12 13  1  0
 12 16  1  0
 12 17  1  0
 12 18  1  0
 13 14  3  0
 14 15  1  0
 15 19  1  0
 15 20  1  0
 15 21  1  0
M  RAD  1   4   2
M  END
>  <reaction>  (4) 
rmg_rxn_296

>  <mol_properties>  (4) 
{"2": {"label": "*4", "atom_type": "Cs"}, "3": {"label": "*3", "atom_type": "O2s"}, "13": {"label": "*0", "atom_type": "Ct"}, "14": {"label": "*1", "atom_type": "Cs"}, "20": {"label": "*2", "atom_type": "H0"}}

>  <type>  (4) 
ts

$$$$

     RDKit          3D

 21 19  0  0  0  0  0  0  0  0999 V2000
    0.2936    0.5563    2.9616 C   0  0  0  0  0  0  0  0  0  0  0  0
    1.3390   -0.1408    2.1019 C   0  0  0  0  0  0  0  0  0  0  0  0
    0.9172   -1.5321    1.6532 C   0  0  0  0  0  0  0  0  0  0  0  0
   -0.2591   -1.5334    0.8667 O   0  0  0  0  0  0  0  0  0  0  0  0
    0.1116   -0.0045    3.8812 H   0  0  0  0  0  0  0  0  0  0  0  0
    0.6156    1.5609    3.2393 H   0  0  0  0  0  0  0  0  0  0  0  0
   -0.6553    0.6362    2.4303 H   0  0  0  0  0  0  0  0  0  0  0  0
    1.5599    0.4656    1.2158 H   0  0  0  0  0  0  0  0  0  0  0  0
    2.2811   -0.2308    2.6512 H   0  0  0  0  0  0  0  0  0  0  0  0
    1.7419   -2.0167    1.1156 H   0  0  0  0  0  0  0  0  0  0  0  0
    0.6867   -2.1503    2.5236 H   0  0  0  0  0  0  0  0  0  0  0  0
   -0.6083    0.7379   -4.1238 C   0  0  0  0  0  0  0  0  0  0  0  0
   -0.6083    0.7379   -2.6666 C   0  0  0  0  0  3  0  0  0  0  0  0
   -0.6083    0.7379   -1.4681 C   0  0  0  0  0  0  0  0  0  0  0  0
   -0.6083    0.7379   -0.0108 C   0  0  0  0  0  0  0  0  0  0  0  0
    0.1839    1.3797   -4.5131 H   0  0  0  0  0  0  0  0  0  0  0  0
   -1.5601    1.1031   -4.5131 H   0  0  0  0  0  0  0  0  0  0  0  0
   -0.4486   -0.2690   -4.5131 H   0  0  0  0  0  0  0  0  0  0  0  0
   -1.5584    1.1076    0.3785 H   0  0  0  0  0  0  0  0  0  0  0  0
    0.1870    1.3759    0.3785 H   0  0  0  0  0  0  0  0  0  0  0  0
   -0.4224   -0.4713    0.4564 H   0  0  0  0  0  0  0  0  0  0  0  0
  1  2  1  0
  1  5  1  0
  1  6  1  0
  1  7  1  0
  2  3  1  0
  2  8  1  0
  2  9  1  0
  3  4  1  0
  3 10  1  0
  3 11  1  0
  4 21  1  0
 12 13  1  0
 12 16  1  0
 12 17  1  0
 12 18  1  0
 13 14  2  0
 14 15  2  0
 15 19  1  0
 15 20  1  0
M  RAD  1  13   2
M  END
>  <reaction>  (5) 
rmg_rxn_296

>  <mol_properties>  (5) 
{"2": {"label": "*4", "atom_type": "Cs"}, "3": {"label": "*3", "atom_type": "O2s"}, "13": {"label": "*0", "atom_type": "Ct"}, "14": {"label": "*1", "atom_type": "Cs"}, "20": {"label": "*2", "atom_type": "H0"}}

>  <type>  (5) 
unop_1

>  <geom_source>  (5) 
Heuristics

$$$$

     RDKit          3D

 21 19  0  0  0  0  0  0  0  0999 V2000
    2.3530   -0.4905    1.3168 C   0  0  0  0  0  0  0  0  0  0  0  0
    1.3695   -0.9799    0.2628 C   0  0  0  0  0  0  0  0  0  0  0  0
    0.2259   -1.7993    0.8426 C   0  0  0  0  0  0  0  0  0  0  0  0
   -0.5640   -1.0791    1.7697 O   0  0  0  0  0  0  0  0  0  0  0  0
    2.8263   -1.3331    1.8261 H   0  0  0  0  0  0  0  0  0  0  0  0
    3.1411    0.1176    0.8705 H   0  0  0  0  0  0  0  0  0  0  0  0
    1.8452    0.1094    2.0727 H   0  0  0  0  0  0  0  0  0  0  0  0
    0.9523   -0.1269   -0.2848 H   0  0  0  0  0  0  0  0  0  0  0  0
    1.8866   -1.5945   -0.4803 H   0  0  0  0  0  0  0  0  0  0  0  0
   -0.3967   -2.1971    0.0313 H   0  0  0  0  0  0  0  0  0  0  0  0
    0.6228   -2.6520    1.3980 H   0  0  0  0  0  0  0  0  0  0  0  0
   -0.9131    1.1922   -3.2208 C   0  0  0  0  0  0  0  0  0  0  0  0
   -0.9131    1.1922   -1.7636 C   0  0  0  0  0  3  0  0  0  0  0  0
   -0.9131    1.1922   -0.5651 C   0  0  0  0  0  0  0  0  0  0  0  0
   -0.9131    1.1922    0.8922 C   0  0  0  0  0  0  0  0  0  0  0  0
   -0.1209    1.8340   -3.6102 H   0  0  0  0  0  0  0  0  0  0  0  0
   -1.8650    1.5574   -3.6102 H   0  0  0  0  0  0  0  0  0  0  0  0
   -0.7535    0.1853   -3.6101 H   0  0  0  0  0  0  0  0  0  0  0  0
   -1.8633    1.5619    1.2815 H   0  0  0  0  0  0  0  0  0  0  0  0
   -0.1179    1.8302    1.2815 H   0  0  0  0  0  0  0  0  0  0  0  0
   -0.7273   -0.0170    1.3594 H   0  0  0  0  0  0  0  0  0  0  0  0
  1  2  1  0
  1  5  1  0
  1  6  1  0
  1  7  1  0
  2  3  1  0
  2  8  1  0
  2  9  1  0
  3  4  1  0
  3 10  1  0
  3 11  1  0
  4 21  1  0
 12 13  1  0
 12 16  1  0
 12 17  1  0
 12 18  1  0
 13 14  2  0
 14 15  2  0
 15 19  1  0
 15 20  1  0
M  RAD  1  13   2
M  END
>  <reaction>  (6) 
rmg_rxn_296

>  <mol_properties>  (6) 
{"2": {"label": "*4", "atom_type": "Cs"}, "3": {"label": "*3", "atom_type": "O2s"}, "13": {"label": "*0", "atom_type": "Ct"}, "14": {"label": "*1", "atom_type": "Cs"}, "20": {"label": "*2", "atom_type": "H0"}}

>  <type>  (6) 
unop_2

>  <geom_source>  (6) 
Heuristics

$$$$

     RDKit          3D

 21 19  0  0  0  0  0  0  0  0999 V2000
   -0.9586    0.0394    3.0177 C   0  0  0  0  0  0  0  0  0  0  0  0
    0.5210   -0.0910    2.6834 C   0  0  0  0  0  0  0  0  0  0  0  0
    0.8552   -1.3668    1.9245 C   0  0  0  0  0  0  0  0  0  0  0  0
    0.1913   -1.4667    0.6789 O   0  0  0  0  0  0  0  0  0  0  0  0
   -1.2832   -0.7788    3.6646 H   0  0  0  0  0  0  0  0  0  0  0  0
   -1.1663    0.9778    3.5337 H   0  0  0  0  0  0  0  0  0  0  0  0
   -1.5655    0.0054    2.1125 H   0  0  0  0  0  0  0  0  0  0  0  0
    0.8480    0.7705    2.0898 H   0  0  0  0  0  0  0  0  0  0  0  0
    1.1186   -0.0731    3.5998 H   0  0  0  0  0  0  0  0  0  0  0  0
    1.9413   -1.4478    1.7910 H   0  0  0  0  0  0  0  0  0  0  0  0
    0.5308   -2.2375    2.4985 H   0  0  0  0  0  0  0  0  0  0  0  0
   -0.1578    0.8047   -4.3117 C   0  0  0  0  0  0  0  0  0  0  0  0
   -0.1578    0.8047   -2.8544 C   0  0  0  0  0  3  0  0  0  0  0  0
   -0.1578    0.8047   -1.6559 C   0  0  0  0  0  0  0  0  0  0  0  0
   -0.1578    0.8047   -0.1987 C   0  0  0  0  0  0  0  0  0  0  0  0
    0.6344    1.4464   -4.7010 H   0  0  0  0  0  0  0  0  0  0  0  0
   -1.1097    1.1698   -4.7010 H   0  0  0  0  0  0  0  0  0  0  0  0
    0.0019   -0.2023   -4.7010 H   0  0  0  0  0  0  0  0  0  0  0  0
   -1.1079    1.1744    0.1907 H   0  0  0  0  0  0  0  0  0  0  0  0
    0.6374    1.4426    0.1907 H   0  0  0  0  0  0  0  0  0  0  0  0
    0.0280   -0.4046    0.2685 H   0  0  0  0  0  0  0  0  0  0  0  0
  1  2  1  0
  1  5  1  0
  1  6  1  0
  1  7  1  0
  2  3  1  0
  2  8  1  0
  2  9  1  0
  3  4  1  0
  3 10  1  0
  3 11  1  0
  4 21  1  0
 12 13  1  0
 12 16  1  0
 12 17  1  0
 12 18  1  0
 13 14  2  0
 14 15  2  0
 15 19  1  0
 15 20  1  0
M  RAD  1  13   2
M  END
>  <reaction>  (7) 
rmg_rxn_296

>  <mol_properties>  (7) 
{"2": {"label": "*4", "atom_type": "Cs"}, "3": {"label": "*3", "atom_type": "O2s"}, "13": {"label": "*0", "atom_type": "Ct"}, "14": {"label": "*1", "atom_type": "Cs"}, "20": {"label": "*2", "atom_type": "H0"}}

>  <type>  (7) 
unop_3

>  <geom_source>  (7) 
Heuristics

$$$$

     RDKit          3D

 21 19  0  0  0  0  0  0  0  0999 V2000
    0.8163   -2.9978    0.3751 C   0  0  0  0  0  0  0  0  0  0  0  0
   -0.3579   -2.0528    0.1604 C   0  0  0  0  0  0  0  0  0  0  0  0
   -0.7261   -1.2597    1.4057 C   0  0  0  0  0  0  0  0  0  0  0  0
    0.3235   -0.4342    1.8737 O   0  0  0  0  0  0  0  0  0  0  0  0
    0.5789   -3.7439    1.1370 H   0  0  0  0  0  0  0  0  0  0  0  0
    1.0717   -3.5266   -0.5443 H   0  0  0  0  0  0  0  0  0  0  0  0
    1.6979   -2.4514    0.7114 H   0  0  0  0  0  0  0  0  0  0  0  0
   -0.1311   -1.3523   -0.6517 H   0  0  0  0  0  0  0  0  0  0  0  0
   -1.2410   -2.6138   -0.1599 H   0  0  0  0  0  0  0  0  0  0  0  0
   -1.6294   -0.6661    1.2163 H   0  0  0  0  0  0  0  0  0  0  0  0
   -0.9500   -1.9416    2.2290 H   0  0  0  0  0  0  0  0  0  0  0  0
   -0.0256    1.8372   -3.1169 C   0  0  0  0  0  0  0  0  0  0  0  0
   -0.0256    1.8372   -1.6596 C   0  0  0  0  0  3  0  0  0  0  0  0
   -0.0256    1.8372   -0.4611 C   0  0  0  0  0  0  0  0  0  0  0  0
   -0.0256    1.8372    0.9961 C   0  0  0  0  0  0  0  0  0  0  0  0
    0.7666    2.4789   -3.5062 H   0  0  0  0  0  0  0  0  0  0  0  0
   -0.9775    2.2024   -3.5062 H   0  0  0  0  0  0  0  0  0  0  0  0
    0.1341    0.8302   -3.5062 H   0  0  0  0  0  0  0  0  0  0  0  0
   -0.9757    2.2069    1.3854 H   0  0  0  0  0  0  0  0  0  0  0  0
    0.7696    2.4751    1.3855 H   0  0  0  0  0  0  0  0  0  0  0  0
    0.1602    0.6280    1.4633 H   0  0  0  0  0  0  0  0  0  0  0  0
  1  2  1  0
  1  5  1  0
  1  6  1  0
  1  7  1  0
  2  3  1  0
  2  8  1  0
  2  9  1  0
  3  4  1  0
  3 10  1  0
  3 11  1  0
  4 21  1  0
 12 13  1  0
 12 16  1  0
 12 17  1  0
 12 18  1  0
 13 14  2  0
 14 15  2  0
 15 19  1  0
 15 20  1  0
M  RAD  1  13   2
M  END
>  <reaction>  (8) 
rmg_rxn_296

>  <mol_properties>  (8) 
{"2": {"label": "*4", "atom_type": "Cs"}, "3": {"label": "*3", "atom_type": "O2s"}, "13": {"label": "*0", "atom_type": "Ct"}, "14": {"label": "*1", "atom_type": "Cs"}, "20": {"label": "*2", "atom_type": "H0"}}

>  <type>  (8) 
unop_4

>  <geom_source>  (8) 
Heuristics

$$$$

     RDKit          3D

 21 19  0  0  0  0  0  0  0  0999 V2000
   -1.8449   -1.4545    2.3792 C   0  0  0  0  0  0  0  0  0  0  0  0
   -0.6653   -0.5619    2.7394 C   0  0  0  0  0  0  0  0  0  0  0  0
    0.6564   -1.0532    2.1676 C   0  0  0  0  0  0  0  0  0  0  0  0
    0.6658   -1.1146    0.7540 O   0  0  0  0  0  0  0  0  0  0  0  0
   -1.7075   -2.4601    2.7835 H   0  0  0  0  0  0  0  0  0  0  0  0
   -2.7786   -1.0567    2.7792 H   0  0  0  0  0  0  0  0  0  0  0  0
   -1.9473   -1.5447    1.2974 H   0  0  0  0  0  0  0  0  0  0  0  0
   -0.8468    0.4595    2.3853 H   0  0  0  0  0  0  0  0  0  0  0  0
   -0.5617   -0.4928    3.8265 H   0  0  0  0  0  0  0  0  0  0  0  0
    1.4777   -0.4237    2.5326 H   0  0  0  0  0  0  0  0  0  0  0  0
    0.8520   -2.0735    2.5051 H   0  0  0  0  0  0  0  0  0  0  0  0
    0.3167    1.1568   -4.2366 C   0  0  0  0  0  0  0  0  0  0  0  0
    0.3167    1.1568   -2.7793 C   0  0  0  0  0  3  0  0  0  0  0  0
    0.3167    1.1568   -1.5808 C   0  0  0  0  0  0  0  0  0  0  0  0
    0.3167    1.1568   -0.1235 C   0  0  0  0  0  0  0  0  0  0  0  0
    1.1089    1.7985   -4.6259 H   0  0  0  0  0  0  0  0  0  0  0  0
   -0.6351    1.5219   -4.6259 H   0  0  0  0  0  0  0  0  0  0  0  0
    0.4764    0.1498   -4.6259 H   0  0  0  0  0  0  0  0  0  0  0  0
   -0.6334    1.5265    0.2658 H   0  0  0  0  0  0  0  0  0  0  0  0
    1.1120    1.7947    0.2658 H   0  0  0  0  0  0  0  0  0  0  0  0
    0.5026   -0.0525    0.3436 H   0  0  0  0  0  0  0  0  0  0  0  0
  1  2  1  0
  1  5  1  0
  1  6  1  0
  1  7  1  0
  2  3  1  0
  2  8  1  0
  2  9  1  0
  3  4  1  0
  3 10  1  0
  3 11  1  0
  4 21  1  0
 12 13  1  0
 12 16  1  0
 12 17  1  0
 12 18  1  0
 13 14  2  0
 14 15  2  0
 15 19  1  0
 15 20  1  0
M  RAD  1  13   2
M  END
>  <reaction>  (9) 
rmg_rxn_296

>  <mol_properties>  (9) 
{"2": {"label": "*4", "atom_type": "Cs"}, "3": {"label": "*3", "atom_type": "O2s"}, "13": {"label": "*0", "atom_type": "Ct"}, "14": {"label": "*1", "atom_type": "Cs"}, "20": {"label": "*2", "atom_type": "H0"}}

>  <type>  (9) 
unop_5

>  <geom_source>  (9) 
Heuristics

$$$$

     RDKit          3D

 21 19  0  0  0  0  0  0  0  0999 V2000
    0.0250   -3.2219    0.6617 C   0  0  0  0  0  0  0  0  0  0  0  0
   -0.9693   -2.0696    0.7000 C   0  0  0  0  0  0  0  0  0  0  0  0
   -0.6595   -1.0445    1.7809 C   0  0  0  0  0  0  0  0  0  0  0  0
    0.6043   -0.4285    1.6217 O   0  0  0  0  0  0  0  0  0  0  0  0
    0.0116   -3.7767    1.6027 H   0  0  0  0  0  0  0  0  0  0  0  0
   -0.2095   -3.9203   -0.1429 H   0  0  0  0  0  0  0  0  0  0  0  0
    1.0401   -2.8539    0.5098 H   0  0  0  0  0  0  0  0  0  0  0  0
   -0.9933   -1.5635   -0.2721 H   0  0  0  0  0  0  0  0  0  0  0  0
   -1.9814   -2.4492    0.8701 H   0  0  0  0  0  0  0  0  0  0  0  0
   -1.4553   -0.2899    1.8184 H   0  0  0  0  0  0  0  0  0  0  0  0
   -0.6253   -1.5320    2.7578 H   0  0  0  0  0  0  0  0  0  0  0  0
    0.2552    1.8429   -3.3689 C   0  0  0  0  0  0  0  0  0  0  0  0
    0.2552    1.8429   -1.9116 C   0  0  0  0  0  3  0  0  0  0  0  0
    0.2552    1.8429   -0.7131 C   0  0  0  0  0  0  0  0  0  0  0  0
    0.2552    1.8429    0.7442 C   0  0  0  0  0  0  0  0  0  0  0  0
    1.0474    2.4846   -3.7582 H   0  0  0  0  0  0  0  0  0  0  0  0
   -0.6967    2.2081   -3.7582 H   0  0  0  0  0  0  0  0  0  0  0  0
    0.4149    0.8360   -3.7582 H   0  0  0  0  0  0  0  0  0  0  0  0
   -0.6949    2.2126    1.1335 H   0  0  0  0  0  0  0  0  0  0  0  0
    1.0505    2.4809    1.1335 H   0  0  0  0  0  0  0  0  0  0  0  0
    0.4411    0.6337    1.2113 H   0  0  0  0  0  0  0  0  0  0  0  0
  1  2  1  0
  1  5  1  0
  1  6  1  0
  1  7  1  0
  2  3  1  0
  2  8  1  0
  2  9  1  0
  3  4  1  0
  3 10  1  0
  3 11  1  0
  4 21  1  0
 12 13  1  0
 12 16  1  0
 12 17  1  0
 12 18  1  0
 13 14  2  0
 14 15  2  0
 15 19  1  0
 15 20  1  0
M  RAD  1  13   2
M  END
>  <reaction>  (10) 
rmg_rxn_296

>  <mol_properties>  (10) 
{"2": {"label": "*4", "atom_type": "Cs"}, "3": {"label": "*3", "atom_type": "O2s"}, "13": {"label": "*0", "atom_type": "Ct"}, "14": {"label": "*1", "atom_type": "Cs"}, "20": {"label": "*2", "atom_type": "H0"}}

>  <type>  (10) 
unop_6

>  <geom_source>  (10) 
Heuristics

$$$$

     RDKit          3D

 21 19  0  0  0  0  0  0  0  0999 V2000
   -0.6392   -3.1762    1.0676 C   0  0  0  0  0  0  0  0  0  0  0  0
   -1.3048   -1.8514    1.4136 C   0  0  0  0  0  0  0  0  0  0  0  0
   -0.3688   -0.8717    2.1060 C   0  0  0  0  0  0  0  0  0  0  0  0
    0.7536   -0.5197    1.3196 O   0  0  0  0  0  0  0  0  0  0  0  0
   -0.2988   -3.6866    1.9715 H   0  0  0  0  0  0  0  0  0  0  0  0
   -1.3292   -3.8412    0.5463 H   0  0  0  0  0  0  0  0  0  0  0  0
    0.2311   -3.0185    0.4298 H   0  0  0  0  0  0  0  0  0  0  0  0
   -1.6998   -1.3823    0.5051 H   0  0  0  0  0  0  0  0  0  0  0  0
   -2.1657   -2.0203    2.0675 H   0  0  0  0  0  0  0  0  0  0  0  0
   -0.9247    0.0245    2.4091 H   0  0  0  0  0  0  0  0  0  0  0  0
    0.0403   -1.3243    3.0120 H   0  0  0  0  0  0  0  0  0  0  0  0
    0.4045    1.7517   -3.6710 C   0  0  0  0  0  0  0  0  0  0  0  0
    0.4045    1.7517   -2.2137 C   0  0  0  0  0  3  0  0  0  0  0  0
    0.4045    1.7517   -1.0152 C   0  0  0  0  0  0  0  0  0  0  0  0
    0.4045    1.7517    0.4420 C   0  0  0  0  0  0  0  0  0  0  0  0
    1.1967    2.3934   -4.0603 H   0  0  0  0  0  0  0  0  0  0  0  0
   -0.5474    2.1169   -4.0603 H   0  0  0  0  0  0  0  0  0  0  0  0
    0.5642    0.7448   -4.0603 H   0  0  0  0  0  0  0  0  0  0  0  0
   -0.5456    2.1214    0.8314 H   0  0  0  0  0  0  0  0  0  0  0  0
    1.1998    2.3897    0.8314 H   0  0  0  0  0  0  0  0  0  0  0  0
    0.5904    0.5425    0.9092 H   0  0  0  0  0  0  0  0  0  0  0  0
  1  2  1  0
  1  5  1  0
  1  6  1  0
  1  7  1  0
  2  3  1  0
  2  8  1  0
  2  9  1  0
  3  4  1  0
  3 10  1  0
  3 11  1  0
  4 21  1  0
 12 13  1  0
 12 16  1  0
 12 17  1  0
 12 18  1  0
 13 14  2  0
 14 15  2  0
 15 19  1  0
 15 20  1  0
M  RAD  1  13   2
M  END
>  <reaction>  (11) 
rmg_rxn_296

>  <mol_properties>  (11) 
{"2": {"label": "*4", "atom_type": "Cs"}, "3": {"label": "*3", "atom_type": "O2s"}, "13": {"label": "*0", "atom_type": "Ct"}, "14": {"label": "*1", "atom_type": "Cs"}, "20": {"label": "*2", "atom_type": "H0"}}

>  <type>  (11) 
unop_7

>  <geom_source>  (11) 
Heuristics

$$$$

     RDKit          3D

 21 19  0  0  0  0  0  0  0  0999 V2000
    1.2693    0.5348    2.5433 C   0  0  0  0  0  0  0  0  0  0  0  0
    1.6644   -0.3692    1.3837 C   0  0  0  0  0  0  0  0  0  0  0  0
    0.8649   -1.6627    1.3311 C   0  0  0  0  0  0  0  0  0  0  0  0
   -0.5256   -1.4546    1.1718 O   0  0  0  0  0  0  0  0  0  0  0  0
    1.4514    0.0398    3.5000 H   0  0  0  0  0  0  0  0  0  0  0  0
    1.8402    1.4644    2.5325 H   0  0  0  0  0  0  0  0  0  0  0  0
    0.2089    0.7844    2.4971 H   0  0  0  0  0  0  0  0  0  0  0  0
    1.5392    0.1638    0.4340 H   0  0  0  0  0  0  0  0  0  0  0  0
    2.7258   -0.6269    1.4500 H   0  0  0  0  0  0  0  0  0  0  0  0
    1.2528   -2.3087    0.5334 H   0  0  0  0  0  0  0  0  0  0  0  0
    0.9726   -2.2058    2.2726 H   0  0  0  0  0  0  0  0  0  0  0  0
   -0.8747    0.8168   -3.8187 C   0  0  0  0  0  0  0  0  0  0  0  0
   -0.8747    0.8168   -2.3615 C   0  0  0  0  0  3  0  0  0  0  0  0
   -0.8747    0.8168   -1.1630 C   0  0  0  0  0  0  0  0  0  0  0  0
   -0.8747    0.8168    0.2943 C   0  0  0  0  0  0  0  0  0  0  0  0
   -0.0825    1.4585   -4.2080 H   0  0  0  0  0  0  0  0  0  0  0  0
   -1.8266    1.1819   -4.2080 H   0  0  0  0  0  0  0  0  0  0  0  0
   -0.7150   -0.1902   -4.2080 H   0  0  0  0  0  0  0  0  0  0  0  0
   -1.8249    1.1865    0.6836 H   0  0  0  0  0  0  0  0  0  0  0  0
   -0.0795    1.4547    0.6836 H   0  0  0  0  0  0  0  0  0  0  0  0
   -0.6889   -0.3925    0.7615 H   0  0  0  0  0  0  0  0  0  0  0  0
  1  2  1  0
  1  5  1  0
  1  6  1  0
  1  7  1  0
  2  3  1  0
  2  8  1  0
  2  9  1  0
  3  4  1  0
  3 10  1  0
  3 11  1  0
  4 21  1  0
 12 13  1  0
 12 16  1  0
 12 17  1  0
 12 18  1  0
 13 14  2  0
 14 15  2  0
 15 19  1  0
 15 20  1  0
M  RAD  1  13   2
M  END
>  <reaction>  (12) 
rmg_rxn_296

>  <mol_properties>  (12) 
{"2": {"label": "*4", "atom_type": "Cs"}, "3": {"label": "*3", "atom_type": "O2s"}, "13": {"label": "*0", "atom_type": "Ct"}, "14": {"label": "*1", "atom_type": "Cs"}, "20": {"label": "*2", "atom_type": "H0"}}

>  <type>  (12) 
unop_8

>  <geom_source>  (12) 
Heuristics

$$$$

     RDKit          3D

 21 19  0  0  0  0  0  0  0  0999 V2000
    1.6811   -2.4095    0.3586 C   0  0  0  0  0  0  0  0  0  0  0  0
    0.3610   -1.7948   -0.0854 C   0  0  0  0  0  0  0  0  0  0  0  0
   -0.5785   -1.4888    1.0717 C   0  0  0  0  0  0  0  0  0  0  0  0
   -0.0412   -0.5646    1.9988 O   0  0  0  0  0  0  0  0  0  0  0  0
    1.5141   -3.3657    0.8599 H   0  0  0  0  0  0  0  0  0  0  0  0
    2.3407   -2.5873   -0.4920 H   0  0  0  0  0  0  0  0  0  0  0  0
    2.1978   -1.7544    1.0606 H   0  0  0  0  0  0  0  0  0  0  0  0
    0.5477   -0.8705   -0.6444 H   0  0  0  0  0  0  0  0  0  0  0  0
   -0.1563   -2.4681   -0.7756 H   0  0  0  0  0  0  0  0  0  0  0  0
   -1.5421   -1.1330    0.6857 H   0  0  0  0  0  0  0  0  0  0  0  0
   -0.7718   -2.3981    1.6450 H   0  0  0  0  0  0  0  0  0  0  0  0
   -0.3904    1.7067   -2.9917 C   0  0  0  0  0  0  0  0  0  0  0  0
   -0.3904    1.7067   -1.5345 C   0  0  0  0  0  3  0  0  0  0  0  0
   -0.3904    1.7067   -0.3360 C   0  0  0  0  0  0  0  0  0  0  0  0
   -0.3904    1.7067    1.1213 C   0  0  0  0  0  0  0  0  0  0  0  0
    0.4018    2.3485   -3.3811 H   0  0  0  0  0  0  0  0  0  0  0  0
   -1.3422    2.0719   -3.3811 H   0  0  0  0  0  0  0  0  0  0  0  0
   -0.2307    0.6998   -3.3810 H   0  0  0  0  0  0  0  0  0  0  0  0
   -1.3405    2.0764    1.5106 H   0  0  0  0  0  0  0  0  0  0  0  0
    0.4049    2.3447    1.5106 H   0  0  0  0  0  0  0  0  0  0  0  0
   -0.2045    0.4975    1.5885 H   0  0  0  0  0  0  0  0  0  0  0  0
  1  2  1  0
  1  5  1  0
  1  6  1  0
  1  7  1  0
  2  3  1  0
  2  8  1  0
  2  9  1  0
  3  4  1  0
  3 10  1  0
  3 11  1  0
  4 21  1  0
 12 13  1  0
 12 16  1  0
 12 17  1  0
 12 18  1  0
 13 14  2  0
 14 15  2  0
 15 19  1  0
 15 20  1  0
M  RAD  1  13   2
M  END
>  <reaction>  (13) 
rmg_rxn_296

>  <mol_properties>  (13) 
{"2": {"label": "*4", "atom_type": "Cs"}, "3": {"label": "*3", "atom_type": "O2s"}, "13": {"label": "*0", "atom_type": "Ct"}, "14": {"label": "*1", "atom_type": "Cs"}, "20": {"label": "*2", "atom_type": "H0"}}

>  <type>  (13) 
unop_9

>  <geom_source>  (13) 
Heuristics

$$$$

     RDKit          3D

 21 19  0  0  0  0  0  0  0  0999 V2000
    1.9597    0.1851    1.9620 C   0  0  0  0  0  0  0  0  0  0  0  0
    1.6258   -0.6551    0.7371 C   0  0  0  0  0  0  0  0  0  0  0  0
    0.6315   -1.7700    1.0263 C   0  0  0  0  0  0  0  0  0  0  0  0
   -0.6176   -1.2978    1.4943 O   0  0  0  0  0  0  0  0  0  0  0  0
    2.4255   -0.4279    2.7371 H   0  0  0  0  0  0  0  0  0  0  0  0
    2.6503    0.9918    1.7121 H   0  0  0  0  0  0  0  0  0  0  0  0
    1.0580    0.6265    2.3875 H   0  0  0  0  0  0  0  0  0  0  0  0
    1.2209   -0.0160   -0.0562 H   0  0  0  0  0  0  0  0  0  0  0  0
    2.5352   -1.1067    0.3292 H   0  0  0  0  0  0  0  0  0  0  0  0
    0.4990   -2.3927    0.1325 H   0  0  0  0  0  0  0  0  0  0  0  0
    1.0154   -2.4149    1.8198 H   0  0  0  0  0  0  0  0  0  0  0  0
   -0.9667    0.9736   -3.4963 C   0  0  0  0  0  0  0  0  0  0  0  0
   -0.9667    0.9736   -2.0390 C   0  0  0  0  0  3  0  0  0  0  0  0
   -0.9667    0.9736   -0.8405 C   0  0  0  0  0  0  0  0  0  0  0  0
   -0.9667    0.9736    0.6167 C   0  0  0  0  0  0  0  0  0  0  0  0
   -0.1745    1.6153   -3.8856 H   0  0  0  0  0  0  0  0  0  0  0  0
   -1.9186    1.3387   -3.8856 H   0  0  0  0  0  0  0  0  0  0  0  0
   -0.8071   -0.0334   -3.8856 H   0  0  0  0  0  0  0  0  0  0  0  0
   -1.9169    1.3433    1.0060 H   0  0  0  0  0  0  0  0  0  0  0  0
   -0.1715    1.6115    1.0060 H   0  0  0  0  0  0  0  0  0  0  0  0
   -0.7809   -0.2357    1.0839 H   0  0  0  0  0  0  0  0  0  0  0  0
  1  2  1  0
  1  5  1  0
  1  6  1  0
  1  7  1  0
  2  3  1  0
  2  8  1  0
  2  9  1  0
  3  4  1  0
  3 10  1  0
  3 11  1  0
  4 21  1  0
 12 13  1  0
 12 16  1  0
 12 17  1  0
 12 18  1  0
 13 14  2  0
 14 15  2  0
 15 19  1  0
 15 20  1  0
M  RAD  1  13   2
M  END
>  <reaction>  (14) 
rmg_rxn_296

>  <mol_properties>  (14) 
{"2": {"label": "*4", "atom_type": "Cs"}, "3": {"label": "*3", "atom_type": "O2s"}, "13": {"label": "*0", "atom_type": "Ct"}, "14": {"label": "*1", "atom_type": "Cs"}, "20": {"label": "*2", "atom_type": "H0"}}

>  <type>  (14) 
unop_10

>  <geom_source>  (14) 
Heuristics

$$$$

     RDKit          3D

 21 19  0  0  0  0  0  0  0  0999 V2000
   -1.3388   -2.7708    1.5656 C   0  0  0  0  0  0  0  0  0  0  0  0
   -1.2841   -1.3684    2.1557 C   0  0  0  0  0  0  0  0  0  0  0  0
    0.1306   -0.8202    2.2716 C   0  0  0  0  0  0  0  0  0  0  0  0
    0.7939   -0.7162    1.0261 O   0  0  0  0  0  0  0  0  0  0  0  0
   -0.8020   -3.4795    2.2004 H   0  0  0  0  0  0  0  0  0  0  0  0
   -2.3679   -3.1195    1.4690 H   0  0  0  0  0  0  0  0  0  0  0  0
   -0.8756   -2.7950    0.5787 H   0  0  0  0  0  0  0  0  0  0  0  0
   -1.8814   -0.6817    1.5448 H   0  0  0  0  0  0  0  0  0  0  0  0
   -1.7357   -1.3598    3.1523 H   0  0  0  0  0  0  0  0  0  0  0  0
    0.1137    0.1506    2.7827 H   0  0  0  0  0  0  0  0  0  0  0  0
    0.7436   -1.4953    2.8729 H   0  0  0  0  0  0  0  0  0  0  0  0
    0.4447    1.5552   -3.9645 C   0  0  0  0  0  0  0  0  0  0  0  0
    0.4447    1.5552   -2.5072 C   0  0  0  0  0  3  0  0  0  0  0  0
    0.4447    1.5552   -1.3087 C   0  0  0  0  0  0  0  0  0  0  0  0
    0.4447    1.5552    0.1485 C   0  0  0  0  0  0  0  0  0  0  0  0
    1.2369    2.1969   -4.3538 H   0  0  0  0  0  0  0  0  0  0  0  0
   -0.5071    1.9204   -4.3538 H   0  0  0  0  0  0  0  0  0  0  0  0
    0.6044    0.5482   -4.3538 H   0  0  0  0  0  0  0  0  0  0  0  0
   -0.5054    1.9249    0.5379 H   0  0  0  0  0  0  0  0  0  0  0  0
    1.2400    2.1931    0.5379 H   0  0  0  0  0  0  0  0  0  0  0  0
    0.6306    0.3460    0.6157 H   0  0  0  0  0  0  0  0  0  0  0  0
  1  2  1  0
  1  5  1  0
  1  6  1  0
  1  7  1  0
  2  3  1  0
  2  8  1  0
  2  9  1  0
  3  4  1  0
  3 10  1  0
  3 11  1  0
  4 21  1  0
 12 13  1  0
 12 16  1  0
 12 17  1  0
 12 18  1  0
 13 14  2  0
 14 15  2  0
 15 19  1  0
 15 20  1  0
M  RAD  1  13   2
M  END
>  <reaction>  (15) 
rmg_rxn_296

>  <mol_properties>  (15) 
{"2": {"label": "*4", "atom_type": "Cs"}, "3": {"label": "*3", "atom_type": "O2s"}, "13": {"label": "*0", "atom_type": "Ct"}, "14": {"label": "*1", "atom_type": "Cs"}, "20": {"label": "*2", "atom_type": "H0"}}

>  <type>  (15) 
unop_11

>  <geom_source>  (15) 
Heuristics

$$$$

     RDKit          3D

 21 19  0  0  0  0  0  0  0  0999 V2000
    2.2932   -1.4622    0.7132 C   0  0  0  0  0  0  0  0  0  0  0  0
    0.9636   -1.3792   -0.0239 C   0  0  0  0  0  0  0  0  0  0  0  0
   -0.2340   -1.6954    0.8598 C   0  0  0  0  0  0  0  0  0  0  0  0
   -0.3701   -0.8098    1.9550 O   0  0  0  0  0  0  0  0  0  0  0  0
    2.4658   -2.4736    1.0882 H   0  0  0  0  0  0  0  0  0  0  0  0
    3.1255   -1.2004    0.0584 H   0  0  0  0  0  0  0  0  0  0  0  0
    2.3056   -0.7862    1.5687 H   0  0  0  0  0  0  0  0  0  0  0  0
    0.8343   -0.3780   -0.4512 H   0  0  0  0  0  0  0  0  0  0  0  0
    0.9562   -2.0738   -0.8694 H   0  0  0  0  0  0  0  0  0  0  0  0
   -1.1502   -1.7071    0.2562 H   0  0  0  0  0  0  0  0  0  0  0  0
   -0.1201   -2.6884    1.3002 H   0  0  0  0  0  0  0  0  0  0  0  0
   -0.7192    1.4616   -3.0355 C   0  0  0  0  0  0  0  0  0  0  0  0
   -0.7192    1.4616   -1.5783 C   0  0  0  0  0  3  0  0  0  0  0  0
   -0.7192    1.4616   -0.3798 C   0  0  0  0  0  0  0  0  0  0  0  0
   -0.7192    1.4616    1.0775 C   0  0  0  0  0  0  0  0  0  0  0  0
    0.0730    2.1033   -3.4248 H   0  0  0  0  0  0  0  0  0  0  0  0
   -1.6710    1.8267   -3.4248 H   0  0  0  0  0  0  0  0  0  0  0  0
   -0.5595    0.4546   -3.4248 H   0  0  0  0  0  0  0  0  0  0  0  0
   -1.6693    1.8313    1.4668 H   0  0  0  0  0  0  0  0  0  0  0  0
    0.0761    2.0995    1.4668 H   0  0  0  0  0  0  0  0  0  0  0  0
   -0.5333    0.2523    1.5447 H   0  0  0  0  0  0  0  0  0  0  0  0
  1  2  1  0
  1  5  1  0
  1  6  1  0
  1  7  1  0
  2  3  1  0
  2  8  1  0
  2  9  1  0
  3  4  1  0
  3 10  1  0
  3 11  1  0
  4 21  1  0
 12 13  1  0
 12 16  1  0
 12 17  1  0
 12 18  1  0
 13 14  2  0
 14 15  2  0
 15 19  1  0
 15 20  1  0
M  RAD  1  13   2
M  END
>  <reaction>  (16) 
rmg_rxn_296

>  <mol_properties>  (16) 
{"2": {"label": "*4", "atom_type": "Cs"}, "3": {"label": "*3", "atom_type": "O2s"}, "13": {"label": "*0", "atom_type": "Ct"}, "14": {"label": "*1", "atom_type": "Cs"}, "20": {"label": "*2", "atom_type": "H0"}}

>  <type>  (16) 
unop_12

>  <geom_source>  (16) 
Heuristics

$$$$

     RDKit          3D

 21 19  0  0  0  0  0  0  0  0999 V2000
   -0.2659    1.1297    0.3010 O   0  0  0  0  0  0  0  0  0  0  0  0
   -2.1433   -0.3554    0.4868 C   0  0  0  0  0  0  0  0  0  0  0  0
   -1.6549    1.0543    0.1503 C   0  0  0  0  0  0  0  0  0  0  0  0
   -3.6598   -0.4611    0.3566 C   0  0  0  0  0  0  0  0  0  0  0  0
    4.6379    0.1704    0.3772 C   0  0  0  0  0  0  0  0  0  0  0  0
    0.8397   -0.4738   -1.1153 C   0  0  0  0  0  0  0  0  0  0  0  0
    3.2929   -0.0577   -0.1513 C   0  0  0  0  0  3  0  0  0  0  0  0
    2.1846   -0.2457   -0.5868 C   0  0  0  0  0  0  0  0  0  0  0  0
   -1.8488   -0.6100    1.5281 H   0  0  0  0  0  0  0  0  0  0  0  0
   -1.6685   -1.0877   -0.2017 H   0  0  0  0  0  0  0  0  0  0  0  0
   -1.9364    1.3228   -0.8923 H   0  0  0  0  0  0  0  0  0  0  0  0
   -2.1259    1.7878    0.8390 H   0  0  0  0  0  0  0  0  0  0  0  0
   -4.1574    0.2452    1.0550 H   0  0  0  0  0  0  0  0  0  0  0  0
   -3.9746   -0.2317   -0.6837 H   0  0  0  0  0  0  0  0  0  0  0  0
   -3.9831   -1.4937    0.6060 H   0  0  0  0  0  0  0  0  0  0  0  0
    5.0444   -0.7810    0.7777 H   0  0  0  0  0  0  0  0  0  0  0  0
    4.5932    0.9244    1.1899 H   0  0  0  0  0  0  0  0  0  0  0  0
    5.2967    0.5410   -0.4349 H   0  0  0  0  0  0  0  0  0  0  0  0
    0.8811   -0.5258   -2.2227 H   0  0  0  0  0  0  0  0  0  0  0  0
    0.4417   -1.4289   -0.7149 H   0  0  0  0  0  0  0  0  0  0  0  0
    0.2065    0.5768   -0.6641 H   0  0  0  0  0  0  0  0  0  0  0  0
  1  3  1  0
  1 21  1  0
  2  4  1  0
  2  3  1  0
  2  9  1  0
  2 10  1  0
  3 11  1  0
  3 12  1  0
  4 13  1  0
  4 14  1  0
  4 15  1  0
  5  7  1  0
  5 16  1  0
  5 17  1  0
  5 18  1  0
  6  8  2  0
  6 19  1  0
  6 20  1  0
  7  8  2  0
M  RAD  1   7   2
M  END
>  <reaction>  (17) 
rmg_rxn_296

>  <mol_properties>  (17) 
{"2": {"label": "*4", "atom_type": "Cs"}, "3": {"label": "*3", "atom_type": "O2s"}, "13": {"label": "*0", "atom_type": "Ct"}, "14": {"label": "*1", "atom_type": "Cs"}, "20": {"label": "*2", "atom_type": "H0"}}

>  <type>  (17) 
unop_13

>  <geom_source>  (17) 
AutoTST

$$$$

     RDKit          3D

 21 19  0  0  0  0  0  0  0  0999 V2000
    2.3530   -0.4905    1.3168 C   0  0  0  0  0  0  0  0  0  0  0  0
    1.3695   -0.9799    0.2628 C   0  0  0  0  0  0  0  0  0  0  0  0
    0.2259   -1.7993    0.8426 C   0  0  0  0  0  0  0  0  0  0  0  0
   -0.5640   -1.0791    1.7697 O   0  0  0  0  0  0  0  0  0  0  0  0
    2.8263   -1.3331    1.8261 H   0  0  0  0  0  0  0  0  0  0  0  0
    3.1411    0.1176    0.8705 H   0  0  0  0  0  0  0  0  0  0  0  0
    1.8452    0.1094    2.0727 H   0  0  0  0  0  0  0  0  0  0  0  0
    0.9523   -0.1269   -0.2848 H   0  0  0  0  0  0  0  0  0  0  0  0
    1.8866   -1.5945   -0.4803 H   0  0  0  0  0  0  0  0  0  0  0  0
   -0.3967   -2.1971    0.0313 H   0  0  0  0  0  0  0  0  0  0  0  0
    0.6228   -2.6519    1.3980 H   0  0  0  0  0  0  0  0  0  0  0  0
   -0.9131    1.1922   -3.2208 C   0  0  0  0  0  0  0  0  0  0  0  0
   -0.9131    1.1922   -1.7636 C   0  0  0  0  0  3  0  0  0  0  0  0
   -0.9131    1.1922   -0.5651 C   0  0  0  0  0  0  0  0  0  0  0  0
   -0.9131    1.1922    0.8922 C   0  0  0  0  0  0  0  0  0  0  0  0
   -0.1210    1.8340   -3.6101 H   0  0  0  0  0  0  0  0  0  0  0  0
   -1.8650    1.5574   -3.6101 H   0  0  0  0  0  0  0  0  0  0  0  0
   -0.7535    0.1853   -3.6101 H   0  0  0  0  0  0  0  0  0  0  0  0
   -1.8633    1.5619    1.2815 H   0  0  0  0  0  0  0  0  0  0  0  0
   -0.1179    1.8302    1.2815 H   0  0  0  0  0  0  0  0  0  0  0  0
   -0.7273   -0.0170    1.3594 H   0  0  0  0  0  0  0  0  0  0  0  0
  1  2  1  0
  1  5  1  0
  1  6  1  0
  1  7  1  0
  2  3  1  0
  2  8  1  0
  2  9  1  0
  3  4  1  0
  3 10  1  0
  3 11  1  0
  4 21  1  0
 12 13  1  0
 12 16  1  0
 12 17  1  0
 12 18  1  0
 13 14  2  0
 14 15  2  0
 15 19  1  0
 15 20  1  0
M  RAD  1  13   2
M  END
>  <reaction>  (18) 
rmg_rxn_296

>  <mol_properties>  (18) 
{"2": {"label": "*4", "atom_type": "Cs"}, "3": {"label": "*3", "atom_type": "O2s"}, "13": {"label": "*0", "atom_type": "Ct"}, "14": {"label": "*1", "atom_type": "Cs"}, "20": {"label": "*2", "atom_type": "H0"}}

>  <type>  (18) 
unop_14

>  <geom_source>  (18) 
gaussian_log

$$$$
