
     RDKit          3D

  5  4  0  0  0  0  0  0  0  0999 V2000
   -0.4583    0.0384    0.1517 N   0  0  0  0  0  0  0  0  0  0  0  0
    0.7454   -0.3487    0.5322 N   0  0  0  0  0  0  0  0  0  0  0  0
    0.7566   -1.0388    1.5193 O   0  0  0  0  0  0  0  0  0  0  0  0
   -1.2688   -0.2521    0.6850 H   0  0  0  0  0  0  0  0  0  0  0  0
   -0.5137    0.6154   -0.6670 H   0  0  0  0  0  0  0  0  0  0  0  0
  1  2  1  0
  1  4  1  0
  1  5  1  0
  2  3  2  0
M  END
>  <reaction>  (1) 
rmg_rxn_1534

>  <mol_properties>  (1) 
{"0": {"label": "donator", "atom_type": "N3s"}, "3": {"label": "d_hydrogen", "atom_type": "H0"}}

>  <type>  (1) 
r1h

$$$$

     RDKit          3D

 11 10  0  0  0  0  0  0  0  0999 V2000
    2.2312    0.7411   -0.3115 C   0  0  0  0  0  3  0  0  0  0  0  0
    0.6426    1.1039   -0.7896 S   0  0  0  0  0  0  0  0  0  0  0  0
    0.9085    2.4168   -2.0061 C   0  0  0  0  0  0  0  0  0  0  0  0
    1.5570    1.9429   -3.2967 C   0  0  0  0  0  0  0  0  0  0  0  0
    2.3707   -0.0938    0.3575 H   0  0  0  0  0  0  0  0  0  0  0  0
    3.0432    1.4267   -0.5066 H   0  0  0  0  0  0  0  0  0  0  0  0
    1.4997    3.2005   -1.5289 H   0  0  0  0  0  0  0  0  0  0  0  0
   -0.0844    2.8269   -2.1951 H   0  0  0  0  0  0  0  0  0  0  0  0
    0.9451    1.1830   -3.7838 H   0  0  0  0  0  0  0  0  0  0  0  0
    1.6803    2.7812   -3.9857 H   0  0  0  0  0  0  0  0  0  0  0  0
    2.5399    1.5119   -3.1043 H   0  0  0  0  0  0  0  0  0  0  0  0
  1  2  1  0
  1  5  1  0
  1  6  1  0
  2  3  1  0
  3  4  1  0
  3  7  1  0
  3  8  1  0
  4  9  1  0
  4 10  1  0
  4 11  1  0
M  RAD  1   1   2
M  END
>  <reaction>  (2) 
rmg_rxn_1534

>  <mol_properties>  (2) 
{"0": {"label": "acceptor", "atom_type": "Cs"}}

>  <type>  (2) 
r2

$$$$

     RDKit          3D

 12 11  0  0  0  0  0  0  0  0999 V2000
    1.8075    0.1979    0.4695 C   0  0  0  0  0  0  0  0  0  0  0  0
    1.0072   -0.8859   -0.7259 S   0  0  0  0  0  0  0  0  0  0  0  0
   -0.7258   -0.6904   -0.2447 C   0  0  0  0  0  0  0  0  0  0  0  0
   -1.0856   -1.2776    1.1108 C   0  0  0  0  0  0  0  0  0  0  0  0
    1.7126   -0.1777    1.4878 H   0  0  0  0  0  0  0  0  0  0  0  0
    1.4024    1.2089    0.4095 H   0  0  0  0  0  0  0  0  0  0  0  0
    2.8647    0.2298    0.2095 H   0  0  0  0  0  0  0  0  0  0  0  0
   -1.2866   -1.1892   -1.0369 H   0  0  0  0  0  0  0  0  0  0  0  0
   -0.9814    0.3707   -0.2917 H   0  0  0  0  0  0  0  0  0  0  0  0
   -0.5492   -0.7768    1.9180 H   0  0  0  0  0  0  0  0  0  0  0  0
   -0.8418   -2.3397    1.1503 H   0  0  0  0  0  0  0  0  0  0  0  0
   -2.1545   -1.1604    1.3035 H   0  0  0  0  0  0  0  0  0  0  0  0
  1  2  1  0
  1  5  1  0
  1  6  1  0
  1  7  1  0
  2  3  1  0
  3  4  1  0
  3  8  1  0
  3  9  1  0
  4 10  1  0
  4 11  1  0
  4 12  1  0
M  END
>  <reaction>  (3) 
rmg_rxn_1534

>  <mol_properties>  (3) 
{"0": {"label": "a_hydrogen", "atom_type": "H0"}, "1": {"label": "acceptor", "atom_type": "Cs"}}

>  <type>  (3) 
r2h

$$$$

     RDKit          3D

 16 14  0  0  0  0  0  0  0  0999 V2000
    2.1321    0.8145    0.0463 N   0  0  0  0  0  0  0  0  0  0  0  0
    2.5322   -0.3819    0.2522 N   0  0  0  0  0  0  0  0  0  0  0  0
    1.7179   -1.2658    0.4158 O   0  0  0  0  0  1  0  0  0  0  0  0
    0.8763    1.1082    0.3555 H   0  0  0  0  0  0  0  0  0  0  0  0
    2.8984    1.4778    0.0607 H   0  0  0  0  0  0  0  0  0  0  0  0
   -0.3495    1.3360    0.7900 C   0  0  0  0  0  0  0  0  0  0  0  0
   -1.4666    0.9592   -0.4843 S   0  0  0  0  0  0  0  0  0  0  0  0
   -1.3992   -0.8452   -0.5153 C   0  0  0  0  0  0  0  0  0  0  0  0
   -2.0074   -1.5314    0.6961 C   0  0  0  0  0  0  0  0  0  0  0  0
   -0.4232    0.7141    1.6791 H   0  0  0  0  0  0  0  0  0  0  0  0
   -0.3747    2.3991    1.0209 H   0  0  0  0  0  0  0  0  0  0  0  0
   -0.3482   -1.1238   -0.6258 H   0  0  0  0  0  0  0  0  0  0  0  0
   -1.9291   -1.1205   -1.4280 H   0  0  0  0  0  0  0  0  0  0  0  0
   -3.0502   -1.2442    0.8355 H   0  0  0  0  0  0  0  0  0  0  0  0
   -1.9603   -2.6138    0.5638 H   0  0  0  0  0  0  0  0  0  0  0  0
   -1.4562   -1.2931    1.6059 H   0  0  0  0  0  0  0  0  0  0  0  0
  1  2  2  3
  1  5  1  0
  2  3  1  0
  4  6  1  0
  6  7  1  0
  6 10  1  0
  6 11  1  0
  7  8  1  0
  8  9  1  0
  8 12  1  0
  8 13  1  0
  9 14  1  0
  9 15  1  0
  9 16  1  0
M  RAD  1   3   2
M  END
>  <reaction>  (4) 
rmg_rxn_1534

>  <mol_properties>  (4) 
{"0": {"label": "*3", "atom_type": "N3d"}, "1": {"label": "*4", "atom_type": "N3d"}, "3": {"label": "*2", "atom_type": "H0"}, "5": {"label": "*1", "atom_type": "Cs"}, "6": {"label": "*0", "atom_type": "S2s"}}

>  <type>  (4) 
ts

$$$$

     RDKit          3D

 16 14  0  0  0  0  0  0  0  0999 V2000
    2.1004   -0.8089    0.2281 N   0  0  0  0  0  0  0  0  0  0  0  0
    2.5437    0.3192   -0.1164 N   0  0  0  0  0  0  0  0  0  0  0  0
    1.8354    1.3050   -0.2124 O   0  0  0  0  0  0  0  0  0  0  0  0
    0.9310   -1.0780    0.4940 H   0  0  0  0  0  0  0  0  0  0  0  0
    2.8065   -1.5363    0.2559 H   0  0  0  0  0  0  0  0  0  0  0  0
   -0.3041   -1.3420    0.8205 C   0  0  0  0  0  3  0  0  0  0  0  0
   -1.3667   -0.8927   -0.5131 S   0  0  0  0  0  0  0  0  0  0  0  0
   -1.3000    0.9265   -0.4251 C   0  0  0  0  0  0  0  0  0  0  0  0
   -2.1036    1.4966    0.7276 C   0  0  0  0  0  0  0  0  0  0  0  0
   -0.3746   -2.4114    0.9797 H   0  0  0  0  0  0  0  0  0  0  0  0
   -0.5208   -0.7820    1.7228 H   0  0  0  0  0  0  0  0  0  0  0  0
   -1.7018    1.2633   -1.3800 H   0  0  0  0  0  0  0  0  0  0  0  0
   -0.2452    1.2100   -0.3567 H   0  0  0  0  0  0  0  0  0  0  0  0
   -2.0474    2.5827    0.7045 H   0  0  0  0  0  0  0  0  0  0  0  0
   -3.1477    1.1989    0.6535 H   0  0  0  0  0  0  0  0  0  0  0  0
   -1.7133    1.1593    1.6853 H   0  0  0  0  0  0  0  0  0  0  0  0
  1  2  1  0
  1  4  1  0
  1  5  1  0
  2  3  2  0
  6  7  1  0
  6 10  1  0
  6 11  1  0
  7  8  1  0
  8  9  1  0
  8 12  1  0
  8 13  1  0
  9 14  1  0
  9 15  1  0
  9 16  1  0
M  RAD  1   6   2
M  END
>  <reaction>  (5) 
rmg_rxn_1534

>  <mol_properties>  (5) 
{"0": {"label": "*3", "atom_type": "N3d"}, "1": {"label": "*4", "atom_type": "N3d"}, "3": {"label": "*2", "atom_type": "H0"}, "5": {"label": "*1", "atom_type": "Cs"}, "6": {"label": "*0", "atom_type": "S2s"}}

>  <type>  (5) 
unop_1

>  <geom_source>  (5) 
crest_best.xyz

$$$$

     RDKit          3D

 16 14  0  0  0  0  0  0  0  0999 V2000
    0.9396   -1.3910    1.5577 N   0  0  0  0  0  0  0  0  0  0  0  0
    0.9396   -2.5938    1.0129 N   0  0  0  0  0  0  0  0  0  0  0  0
    0.9396   -2.5938   -0.1916 O   0  0  0  0  0  0  0  0  0  0  0  0
    0.9396   -0.4084    0.8425 H   0  0  0  0  0  0  0  0  0  0  0  0
    0.9396   -1.3446    2.5598 H   0  0  0  0  0  0  0  0  0  0  0  0
    0.9396    0.6499    0.0722 C   0  0  0  0  0  3  0  0  0  0  0  0
   -0.5180    1.6639    0.3751 S   0  0  0  0  0  0  0  0  0  0  0  0
   -1.6127    1.0743   -0.9392 C   0  0  0  0  0  0  0  0  0  0  0  0
   -1.1757    1.4374   -2.3494 C   0  0  0  0  0  0  0  0  0  0  0  0
    1.6431    0.8590    0.8770 H   0  0  0  0  0  0  0  0  0  0  0  0
    1.4162    0.8943   -0.8765 H   0  0  0  0  0  0  0  0  0  0  0  0
   -2.5796    1.5263   -0.7118 H   0  0  0  0  0  0  0  0  0  0  0  0
   -1.7321   -0.0063   -0.8326 H   0  0  0  0  0  0  0  0  0  0  0  0
   -0.2194    0.9770   -2.6021 H   0  0  0  0  0  0  0  0  0  0  0  0
   -1.9119    1.0876   -3.0768 H   0  0  0  0  0  0  0  0  0  0  0  0
   -1.0701    2.5174   -2.4567 H   0  0  0  0  0  0  0  0  0  0  0  0
  1  2  1  0
  1  4  1  0
  1  5  1  0
  2  3  2  0
  6  7  1  0
  6 10  1  0
  6 11  1  0
  7  8  1  0
  8  9  1  0
  8 12  1  0
  8 13  1  0
  9 14  1  0
  9 15  1  0
  9 16  1  0
M  RAD  1   6   2
M  END
>  <reaction>  (6) 
rmg_rxn_1534

>  <mol_properties>  (6) 
{"0": {"label": "*3", "atom_type": "N3d"}, "1": {"label": "*4", "atom_type": "N3d"}, "3": {"label": "*2", "atom_type": "H0"}, "5": {"label": "*1", "atom_type": "Cs"}, "6": {"label": "*0", "atom_type": "S2s"}}

>  <type>  (6) 
unop_2

>  <geom_source>  (6) 
Heuristics

$$$$

     RDKit          3D

 16 14  0  0  0  0  0  0  0  0999 V2000
    2.1004   -0.8089    0.2280 N   0  0  0  0  0  0  0  0  0  0  0  0
    2.5437    0.3192   -0.1164 N   0  0  0  0  0  0  0  0  0  0  0  0
    1.8354    1.3049   -0.2123 O   0  0  0  0  0  0  0  0  0  0  0  0
    0.9311   -1.0781    0.4940 H   0  0  0  0  0  0  0  0  0  0  0  0
    2.8066   -1.5363    0.2556 H   0  0  0  0  0  0  0  0  0  0  0  0
   -0.3040   -1.3419    0.8205 C   0  0  0  0  0  3  0  0  0  0  0  0
   -1.3667   -0.8927   -0.5130 S   0  0  0  0  0  0  0  0  0  0  0  0
   -1.3000    0.9265   -0.4252 C   0  0  0  0  0  0  0  0  0  0  0  0
   -2.1035    1.4967    0.7276 C   0  0  0  0  0  0  0  0  0  0  0  0
   -0.3746   -2.4113    0.9799 H   0  0  0  0  0  0  0  0  0  0  0  0
   -0.5207   -0.7818    1.7227 H   0  0  0  0  0  0  0  0  0  0  0  0
   -1.7019    1.2632   -1.3801 H   0  0  0  0  0  0  0  0  0  0  0  0
   -0.2452    1.2099   -0.3569 H   0  0  0  0  0  0  0  0  0  0  0  0
   -1.7130    1.1596    1.6853 H   0  0  0  0  0  0  0  0  0  0  0  0
   -2.0474    2.5827    0.7042 H   0  0  0  0  0  0  0  0  0  0  0  0
   -3.1476    1.1989    0.6536 H   0  0  0  0  0  0  0  0  0  0  0  0
  1  2  1  0
  1  4  1  0
  1  5  1  0
  2  3  2  0
  6  7  1  0
  6 10  1  0
  6 11  1  0
  7  8  1  0
  8  9  1  0
  8 12  1  0
  8 13  1  0
  9 14  1  0
  9 15  1  0
  9 16  1  0
M  RAD  1   6   2
M  END
>  <reaction>  (7) 
rmg_rxn_1534

>  <mol_properties>  (7) 
{"0": {"label": "*3", "atom_type": "N3d"}, "1": {"label": "*4", "atom_type": "N3d"}, "3": {"label": "*2", "atom_type": "H0"}, "5": {"label": "*1", "atom_type": "Cs"}, "6": {"label": "*0", "atom_type": "S2s"}}

>  <type>  (7) 
unop_3

>  <geom_source>  (7) 
Heuristics

$$$$

     RDKit          3D

 16 14  0  0  0  0  0  0  0  0999 V2000
   -0.0388   -0.6583    2.2481 N   0  0  0  0  0  0  0  0  0  0  0  0
   -0.0388   -1.8611    1.7034 N   0  0  0  0  0  0  0  0  0  0  0  0
   -0.0388   -1.8611    0.4989 O   0  0  0  0  0  0  0  0  0  0  0  0
   -0.0388    0.3243    1.5329 H   0  0  0  0  0  0  0  0  0  0  0  0
   -0.0388   -0.6120    3.2502 H   0  0  0  0  0  0  0  0  0  0  0  0
   -0.0388    1.3826    0.7626 C   0  0  0  0  0  3  0  0  0  0  0  0
   -0.8804    1.0435   -0.7934 S   0  0  0  0  0  0  0  0  0  0  0  0
    0.3645    0.0335   -1.6320 C   0  0  0  0  0  0  0  0  0  0  0  0
    1.6302    0.7754   -2.0310 C   0  0  0  0  0  0  0  0  0  0  0  0
   -0.7465    1.9169    1.3950 H   0  0  0  0  0  0  0  0  0  0  0  0
    0.8414    2.0090    0.6220 H   0  0  0  0  0  0  0  0  0  0  0  0
   -0.1467   -0.3504   -2.5164 H   0  0  0  0  0  0  0  0  0  0  0  0
    0.5977   -0.8259   -0.9993 H   0  0  0  0  0  0  0  0  0  0  0  0
    2.1661    1.1493   -1.1573 H   0  0  0  0  0  0  0  0  0  0  0  0
    2.3063    0.1090   -2.5715 H   0  0  0  0  0  0  0  0  0  0  0  0
    1.3957    1.6248   -2.6732 H   0  0  0  0  0  0  0  0  0  0  0  0
  1  2  1  0
  1  4  1  0
  1  5  1  0
  2  3  2  0
  6  7  1  0
  6 10  1  0
  6 11  1  0
  7  8  1  0
  8  9  1  0
  8 12  1  0
  8 13  1  0
  9 14  1  0
  9 15  1  0
  9 16  1  0
M  RAD  1   6   2
M  END
>  <reaction>  (8) 
rmg_rxn_1534

>  <mol_properties>  (8) 
{"0": {"label": "*3", "atom_type": "N3d"}, "1": {"label": "*4", "atom_type": "N3d"}, "3": {"label": "*2", "atom_type": "H0"}, "5": {"label": "*1", "atom_type": "Cs"}, "6": {"label": "*0", "atom_type": "S2s"}}

>  <type>  (8) 
unop_4

>  <geom_source>  (8) 
Heuristics

$$$$

     RDKit          3D

 16 14  0  0  0  0  0  0  0  0999 V2000
   -2.1003   -0.8091    0.2280 N   0  0  0  0  0  0  0  0  0  0  0  0
   -2.5437    0.3191   -0.1164 N   0  0  0  0  0  0  0  0  0  0  0  0
   -1.8354    1.3048   -0.2125 O   0  0  0  0  0  0  0  0  0  0  0  0
   -0.9310   -1.0783    0.4940 H   0  0  0  0  0  0  0  0  0  0  0  0
   -2.8065   -1.5364    0.2560 H   0  0  0  0  0  0  0  0  0  0  0  0
    0.3042   -1.3419    0.8205 C   0  0  0  0  0  3  0  0  0  0  0  0
    1.3669   -0.8927   -0.5130 S   0  0  0  0  0  0  0  0  0  0  0  0
    1.2999    0.9265   -0.4253 C   0  0  0  0  0  0  0  0  0  0  0  0
    2.1029    1.4969    0.7277 C   0  0  0  0  0  0  0  0  0  0  0  0
    0.5207   -0.7819    1.7228 H   0  0  0  0  0  0  0  0  0  0  0  0
    0.3748   -2.4114    0.9798 H   0  0  0  0  0  0  0  0  0  0  0  0
    0.2450    1.2099   -0.3572 H   0  0  0  0  0  0  0  0  0  0  0  0
    1.7020    1.2632   -1.3800 H   0  0  0  0  0  0  0  0  0  0  0  0
    2.0466    2.5830    0.7042 H   0  0  0  0  0  0  0  0  0  0  0  0
    1.7122    1.1599    1.6853 H   0  0  0  0  0  0  0  0  0  0  0  0
    3.1471    1.1993    0.6541 H   0  0  0  0  0  0  0  0  0  0  0  0
  1  2  1  0
  1  4  1  0
  1  5  1  0
  2  3  2  0
  6  7  1  0
  6 10  1  0
  6 11  1  0
  7  8  1  0
  8  9  1  0
  8 12  1  0
  8 13  1  0
  9 14  1  0
  9 15  1  0
  9 16  1  0
M  RAD  1   6   2
M  END
>  <reaction>  (9) 
rmg_rxn_1534

>  <mol_properties>  (9) 
{"0": {"label": "*3", "atom_type": "N3d"}, "1": {"label": "*4", "atom_type": "N3d"}, "3": {"label": "*2", "atom_type": "H0"}, "5": {"label": "*1", "atom_type": "Cs"}, "6": {"label": "*0", "atom_type": "S2s"}}

>  <type>  (9) 
unop_5

>  <geom_source>  (9) 
Heuristics

$$$$

     RDKit          3D

 16 14  0  0  0  0  0  0  0  0999 V2000
    0.8770   -1.6036    1.1080 N   0  0  0  0  0  0  0  0  0  0  0  0
    0.8770   -2.8064    0.5633 N   0  0  0  0  0  0  0  0  0  0  0  0
    0.8770   -2.8064   -0.6412 O   0  0  0  0  0  0  0  0  0  0  0  0
    0.8770   -0.6209    0.3928 H   0  0  0  0  0  0  0  0  0  0  0  0
    0.8770   -1.5572    2.1101 H   0  0  0  0  0  0  0  0  0  0  0  0
    0.8770    0.4374   -0.3775 C   0  0  0  0  0  3  0  0  0  0  0  0
    0.0355    1.8138    0.4235 S   0  0  0  0  0  0  0  0  0  0  0  0
   -1.6813    1.4610   -0.0251 C   0  0  0  0  0  0  0  0  0  0  0  0
   -2.0038    1.6179   -1.5026 C   0  0  0  0  0  0  0  0  0  0  0  0
    1.9261    0.4983   -0.0913 H   0  0  0  0  0  0  0  0  0  0  0  0
    0.8104    0.4951   -1.4634 H   0  0  0  0  0  0  0  0  0  0  0  0
   -2.2682    2.1630    0.5696 H   0  0  0  0  0  0  0  0  0  0  0  0
   -1.9323    0.4573    0.3257 H   0  0  0  0  0  0  0  0  0  0  0  0
   -1.4408    0.9092   -2.1116 H   0  0  0  0  0  0  0  0  0  0  0  0
   -3.0658    1.4342   -1.6808 H   0  0  0  0  0  0  0  0  0  0  0  0
   -1.7647    2.6246   -1.8468 H   0  0  0  0  0  0  0  0  0  0  0  0
  1  2  1  0
  1  4  1  0
  1  5  1  0
  2  3  2  0
  6  7  1  0
  6 10  1  0
  6 11  1  0
  7  8  1  0
  8  9  1  0
  8 12  1  0
  8 13  1  0
  9 14  1  0
  9 15  1  0
  9 16  1  0
M  RAD  1   6   2
M  END
>  <reaction>  (10) 
rmg_rxn_1534

>  <mol_properties>  (10) 
{"0": {"label": "*3", "atom_type": "N3d"}, "1": {"label": "*4", "atom_type": "N3d"}, "3": {"label": "*2", "atom_type": "H0"}, "5": {"label": "*1", "atom_type": "Cs"}, "6": {"label": "*0", "atom_type": "S2s"}}

>  <type>  (10) 
unop_6

>  <geom_source>  (10) 
Heuristics

$$$$

     RDKit          3D

 16 14  0  0  0  0  0  0  0  0999 V2000
   -1.0660   -0.8284    1.3410 N   0  0  0  0  0  0  0  0  0  0  0  0
   -1.0660   -2.0312    0.7962 N   0  0  0  0  0  0  0  0  0  0  0  0
   -1.0660   -2.0312   -0.4083 O   0  0  0  0  0  0  0  0  0  0  0  0
   -1.0660    0.1542    0.6257 H   0  0  0  0  0  0  0  0  0  0  0  0
   -1.0660   -0.7821    2.3430 H   0  0  0  0  0  0  0  0  0  0  0  0
   -1.0660    1.2125   -0.1445 C   0  0  0  0  0  3  0  0  0  0  0  0
    0.3916    1.2360   -1.2025 S   0  0  0  0  0  0  0  0  0  0  0  0
    1.5318    0.2314   -0.2207 C   0  0  0  0  0  0  0  0  0  0  0  0
    1.9895    0.8681    1.0819 C   0  0  0  0  0  0  0  0  0  0  0  0
   -1.8609    1.7193   -0.6900 H   0  0  0  0  0  0  0  0  0  0  0  0
   -0.8978    1.7413    0.7930 H   0  0  0  0  0  0  0  0  0  0  0  0
    2.3835    0.0614   -0.8815 H   0  0  0  0  0  0  0  0  0  0  0  0
    1.0690   -0.7414   -0.0393 H   0  0  0  0  0  0  0  0  0  0  0  0
    1.1531    1.0269    1.7642 H   0  0  0  0  0  0  0  0  0  0  0  0
    2.7092    0.2209    1.5883 H   0  0  0  0  0  0  0  0  0  0  0  0
    2.4629    1.8327    0.8965 H   0  0  0  0  0  0  0  0  0  0  0  0
  1  2  1  0
  1  4  1  0
  1  5  1  0
  2  3  2  0
  6  7  1  0
  6 10  1  0
  6 11  1  0
  7  8  1  0
  8  9  1  0
  8 12  1  0
  8 13  1  0
  9 14  1  0
  9 15  1  0
  9 16  1  0
M  RAD  1   6   2
M  END
>  <reaction>  (11) 
rmg_rxn_1534

>  <mol_properties>  (11) 
{"0": {"label": "*3", "atom_type": "N3d"}, "1": {"label": "*4", "atom_type": "N3d"}, "3": {"label": "*2", "atom_type": "H0"}, "5": {"label": "*1", "atom_type": "Cs"}, "6": {"label": "*0", "atom_type": "S2s"}}

>  <type>  (11) 
unop_7

>  <geom_source>  (11) 
Heuristics

$$$$

     RDKit          3D

 16 14  0  0  0  0  0  0  0  0999 V2000
    2.1002   -0.8091   -0.2280 N   0  0  0  0  0  0  0  0  0  0  0  0
    2.5438    0.3190    0.1163 N   0  0  0  0  0  0  0  0  0  0  0  0
    1.8356    1.3048    0.2125 O   0  0  0  0  0  0  0  0  0  0  0  0
    0.9308   -1.0780   -0.4939 H   0  0  0  0  0  0  0  0  0  0  0  0
    2.8063   -1.5366   -0.2557 H   0  0  0  0  0  0  0  0  0  0  0  0
   -0.3042   -1.3419   -0.8205 C   0  0  0  0  0  3  0  0  0  0  0  0
   -1.3670   -0.8927    0.5129 S   0  0  0  0  0  0  0  0  0  0  0  0
   -1.2999    0.9265    0.4252 C   0  0  0  0  0  0  0  0  0  0  0  0
   -2.1030    1.4971   -0.7276 C   0  0  0  0  0  0  0  0  0  0  0  0
   -0.5208   -0.7818   -1.7228 H   0  0  0  0  0  0  0  0  0  0  0  0
   -0.3749   -2.4114   -0.9799 H   0  0  0  0  0  0  0  0  0  0  0  0
   -0.2450    1.2098    0.3571 H   0  0  0  0  0  0  0  0  0  0  0  0
   -1.7019    1.2632    1.3801 H   0  0  0  0  0  0  0  0  0  0  0  0
   -1.7124    1.1600   -1.6853 H   0  0  0  0  0  0  0  0  0  0  0  0
   -3.1472    1.1996   -0.6539 H   0  0  0  0  0  0  0  0  0  0  0  0
   -2.0465    2.5831   -0.7041 H   0  0  0  0  0  0  0  0  0  0  0  0
  1  2  1  0
  1  4  1  0
  1  5  1  0
  2  3  2  0
  6  7  1  0
  6 10  1  0
  6 11  1  0
  7  8  1  0
  8  9  1  0
  8 12  1  0
  8 13  1  0
  9 14  1  0
  9 15  1  0
  9 16  1  0
M  RAD  1   6   2
M  END
>  <reaction>  (12) 
rmg_rxn_1534

>  <mol_properties>  (12) 
{"0": {"label": "*3", "atom_type": "N3d"}, "1": {"label": "*4", "atom_type": "N3d"}, "3": {"label": "*2", "atom_type": "H0"}, "5": {"label": "*1", "atom_type": "Cs"}, "6": {"label": "*0", "atom_type": "S2s"}}

>  <type>  (12) 
unop_8

>  <geom_source>  (12) 
Heuristics

$$$$

     RDKit          3D

 16 14  0  0  0  0  0  0  0  0999 V2000
    0.5252   -1.6783    0.5763 N   0  0  0  0  0  0  0  0  0  0  0  0
    0.5252   -2.8811    0.0315 N   0  0  0  0  0  0  0  0  0  0  0  0
    0.5252   -2.8811   -1.1730 O   0  0  0  0  0  0  0  0  0  0  0  0
    0.5252   -0.6957   -0.1390 H   0  0  0  0  0  0  0  0  0  0  0  0
    0.5252   -1.6320    1.5783 H   0  0  0  0  0  0  0  0  0  0  0  0
    0.5252    0.3626   -0.9092 C   0  0  0  0  0  3  0  0  0  0  0  0
    0.5252    1.8718    0.0741 S   0  0  0  0  0  0  0  0  0  0  0  0
   -0.9578    1.6151    1.0780 C   0  0  0  0  0  0  0  0  0  0  0  0
   -2.2685    1.6552    0.3086 C   0  0  0  0  0  0  0  0  0  0  0  0
    1.4429    0.3672   -1.4956 H   0  0  0  0  0  0  0  0  0  0  0  0
   -0.3223    0.3214   -1.5927 H   0  0  0  0  0  0  0  0  0  0  0  0
   -0.9268    2.4151    1.8196 H   0  0  0  0  0  0  0  0  0  0  0  0
   -0.8510    0.6726    1.6201 H   0  0  0  0  0  0  0  0  0  0  0  0
   -2.3262    0.8491   -0.4242 H   0  0  0  0  0  0  0  0  0  0  0  0
   -3.1133    1.5402    0.9917 H   0  0  0  0  0  0  0  0  0  0  0  0
   -2.3786    2.6022   -0.2206 H   0  0  0  0  0  0  0  0  0  0  0  0
  1  2  1  0
  1  4  1  0
  1  5  1  0
  2  3  2  0
  6  7  1  0
  6 10  1  0
  6 11  1  0
  7  8  1  0
  8  9  1  0
  8 12  1  0
  8 13  1  0
  9 14  1  0
  9 15  1  0
  9 16  1  0
M  RAD  1   6   2
M  END
>  <reaction>  (13) 
rmg_rxn_1534

>  <mol_properties>  (13) 
{"0": {"label": "*3", "atom_type": "N3d"}, "1": {"label": "*4", "atom_type": "N3d"}, "3": {"label": "*2", "atom_type": "H0"}, "5": {"label": "*1", "atom_type": "Cs"}, "6": {"label": "*0", "atom_type": "S2s"}}

>  <type>  (13) 
unop_9

>  <geom_source>  (13) 
Heuristics

$$$$

     RDKit          3D

 16 14  0  0  0  0  0  0  0  0999 V2000
    2.1004    0.8090   -0.2278 N   0  0  0  0  0  0  0  0  0  0  0  0
    2.5437   -0.3193    0.1165 N   0  0  0  0  0  0  0  0  0  0  0  0
    1.8355   -1.3051    0.2120 O   0  0  0  0  0  0  0  0  0  0  0  0
    0.9311    1.0780   -0.4939 H   0  0  0  0  0  0  0  0  0  0  0  0
    2.8066    1.5364   -0.2550 H   0  0  0  0  0  0  0  0  0  0  0  0
   -0.3039    1.3418   -0.8206 C   0  0  0  0  0  3  0  0  0  0  0  0
   -1.3667    0.8928    0.5129 S   0  0  0  0  0  0  0  0  0  0  0  0
   -1.3000   -0.9264    0.4252 C   0  0  0  0  0  0  0  0  0  0  0  0
   -2.1038   -1.4967   -0.7273 C   0  0  0  0  0  0  0  0  0  0  0  0
   -0.3746    2.4112   -0.9803 H   0  0  0  0  0  0  0  0  0  0  0  0
   -0.5205    0.7815   -1.7228 H   0  0  0  0  0  0  0  0  0  0  0  0
   -1.7017   -1.2631    1.3803 H   0  0  0  0  0  0  0  0  0  0  0  0
   -0.2453   -1.2099    0.3566 H   0  0  0  0  0  0  0  0  0  0  0  0
   -3.1480   -1.1991   -0.6529 H   0  0  0  0  0  0  0  0  0  0  0  0
   -1.7138   -1.1595   -1.6851 H   0  0  0  0  0  0  0  0  0  0  0  0
   -2.0476   -2.5828   -0.7040 H   0  0  0  0  0  0  0  0  0  0  0  0
  1  2  1  0
  1  4  1  0
  1  5  1  0
  2  3  2  0
  6  7  1  0
  6 10  1  0
  6 11  1  0
  7  8  1  0
  8  9  1  0
  8 12  1  0
  8 13  1  0
  9 14  1  0
  9 15  1  0
  9 16  1  0
M  RAD  1   6   2
M  END
>  <reaction>  (14) 
rmg_rxn_1534

>  <mol_properties>  (14) 
{"0": {"label": "*3", "atom_type": "N3d"}, "1": {"label": "*4", "atom_type": "N3d"}, "3": {"label": "*2", "atom_type": "H0"}, "5": {"label": "*1", "atom_type": "Cs"}, "6": {"label": "*0", "atom_type": "S2s"}}

>  <type>  (14) 
unop_10

>  <geom_source>  (14) 
Heuristics

$$$$

     RDKit          3D

 16 14  0  0  0  0  0  0  0  0999 V2000
   -1.0344   -1.0901    0.9101 N   0  0  0  0  0  0  0  0  0  0  0  0
   -1.0344   -2.2929    0.3654 N   0  0  0  0  0  0  0  0  0  0  0  0
   -1.0344   -2.2929   -0.8391 O   0  0  0  0  0  0  0  0  0  0  0  0
   -1.0344   -0.1075    0.1949 H   0  0  0  0  0  0  0  0  0  0  0  0
   -1.0344   -1.0438    1.9122 H   0  0  0  0  0  0  0  0  0  0  0  0
   -1.0344    0.9508   -0.5754 C   0  0  0  0  0  3  0  0  0  0  0  0
    0.6487    1.4695   -0.9529 S   0  0  0  0  0  0  0  0  0  0  0  0
    1.5648    0.5923    0.3373 C   0  0  0  0  0  0  0  0  0  0  0  0
    1.3154    1.0895    1.7523 C   0  0  0  0  0  0  0  0  0  0  0  0
   -1.6730    1.3532   -1.3605 H   0  0  0  0  0  0  0  0  0  0  0  0
   -1.3760    1.3409    0.3828 H   0  0  0  0  0  0  0  0  0  0  0  0
    2.6133    0.7259    0.0658 H   0  0  0  0  0  0  0  0  0  0  0  0
    1.3464   -0.4748    0.2534 H   0  0  0  0  0  0  0  0  0  0  0  0
    0.2755    0.9450    2.0488 H   0  0  0  0  0  0  0  0  0  0  0  0
    1.9394    0.5420    2.4624 H   0  0  0  0  0  0  0  0  0  0  0  0
    1.5468    2.1518    1.8364 H   0  0  0  0  0  0  0  0  0  0  0  0
  1  2  1  0
  1  4  1  0
  1  5  1  0
  2  3  2  0
  6  7  1  0
  6 10  1  0
  6 11  1  0
  7  8  1  0
  8  9  1  0
  8 12  1  0
  8 13  1  0
  9 14  1  0
  9 15  1  0
  9 16  1  0
M  RAD  1   6   2
M  END
>  <reaction>  (15) 
rmg_rxn_1534

>  <mol_properties>  (15) 
{"0": {"label": "*3", "atom_type": "N3d"}, "1": {"label": "*4", "atom_type": "N3d"}, "3": {"label": "*2", "atom_type": "H0"}, "5": {"label": "*1", "atom_type": "Cs"}, "6": {"label": "*0", "atom_type": "S2s"}}

>  <type>  (15) 
unop_11

>  <geom_source>  (15) 
Heuristics

$$$$

     RDKit          3D

 16 14  0  0  0  0  0  0  0  0999 V2000
    2.1003    0.8090    0.2282 N   0  0  0  0  0  0  0  0  0  0  0  0
    2.5437   -0.3191   -0.1164 N   0  0  0  0  0  0  0  0  0  0  0  0
    1.8355   -1.3049   -0.2125 O   0  0  0  0  0  0  0  0  0  0  0  0
    0.9309    1.0780    0.4941 H   0  0  0  0  0  0  0  0  0  0  0  0
    2.8064    1.5364    0.2560 H   0  0  0  0  0  0  0  0  0  0  0  0
   -0.3041    1.3419    0.8205 C   0  0  0  0  0  3  0  0  0  0  0  0
   -1.3667    0.8927   -0.5131 S   0  0  0  0  0  0  0  0  0  0  0  0
   -1.3000   -0.9265   -0.4251 C   0  0  0  0  0  0  0  0  0  0  0  0
   -2.1034   -1.4967    0.7277 C   0  0  0  0  0  0  0  0  0  0  0  0
   -0.5208    0.7819    1.7227 H   0  0  0  0  0  0  0  0  0  0  0  0
   -0.3748    2.4114    0.9798 H   0  0  0  0  0  0  0  0  0  0  0  0
   -0.2452   -1.2099   -0.3569 H   0  0  0  0  0  0  0  0  0  0  0  0
   -1.7020   -1.2633   -1.3800 H   0  0  0  0  0  0  0  0  0  0  0  0
   -3.1475   -1.1989    0.6539 H   0  0  0  0  0  0  0  0  0  0  0  0
   -2.0474   -2.5828    0.7043 H   0  0  0  0  0  0  0  0  0  0  0  0
   -1.7128   -1.1597    1.6853 H   0  0  0  0  0  0  0  0  0  0  0  0
  1  2  1  0
  1  4  1  0
  1  5  1  0
  2  3  2  0
  6  7  1  0
  6 10  1  0
  6 11  1  0
  7  8  1  0
  8  9  1  0
  8 12  1  0
  8 13  1  0
  9 14  1  0
  9 15  1  0
  9 16  1  0
M  RAD  1   6   2
M  END
>  <reaction>  (16) 
rmg_rxn_1534

>  <mol_properties>  (16) 
{"0": {"label": "*3", "atom_type": "N3d"}, "1": {"label": "*4", "atom_type": "N3d"}, "3": {"label": "*2", "atom_type": "H0"}, "5": {"label": "*1", "atom_type": "Cs"}, "6": {"label": "*0", "atom_type": "S2s"}}

>  <type>  (16) 
unop_12

>  <geom_source>  (16) 
Heuristics

$$$$

     RDKit          3D

 16 14  0  0  0  0  0  0  0  0999 V2000
   -0.7420   -1.3670    0.5264 N   0  0  0  0  0  0  0  0  0  0  0  0
   -0.7420   -2.5699   -0.0183 N   0  0  0  0  0  0  0  0  0  0  0  0
   -0.7420   -2.5699   -1.2228 O   0  0  0  0  0  0  0  0  0  0  0  0
   -0.7420   -0.3844   -0.1888 H   0  0  0  0  0  0  0  0  0  0  0  0
   -0.7420   -1.3207    1.5285 H   0  0  0  0  0  0  0  0  0  0  0  0
   -0.7420    0.6739   -0.9591 C   0  0  0  0  0  3  0  0  0  0  0  0
    0.7157    1.6878   -0.6562 S   0  0  0  0  0  0  0  0  0  0  0  0
    1.2522    1.0306    0.9417 C   0  0  0  0  0  0  0  0  0  0  0  0
    0.3220    1.3339    2.1054 C   0  0  0  0  0  0  0  0  0  0  0  0
   -1.1000    0.9248   -1.9566 H   0  0  0  0  0  0  0  0  0  0  0  0
   -1.5375    0.8796   -0.2437 H   0  0  0  0  0  0  0  0  0  0  0  0
    2.2308    1.4840    1.1082 H   0  0  0  0  0  0  0  0  0  0  0  0
    1.4119   -0.0451    0.8385 H   0  0  0  0  0  0  0  0  0  0  0  0
   -0.6560    0.8710    1.9660 H   0  0  0  0  0  0  0  0  0  0  0  0
    0.7403    0.9456    3.0369 H   0  0  0  0  0  0  0  0  0  0  0  0
    0.1750    2.4089    2.2143 H   0  0  0  0  0  0  0  0  0  0  0  0
  1  2  1  0
  1  4  1  0
  1  5  1  0
  2  3  2  0
  6  7  1  0
  6 10  1  0
  6 11  1  0
  7  8  1  0
  8  9  1  0
  8 12  1  0
  8 13  1  0
  9 14  1  0
  9 15  1  0
  9 16  1  0
M  RAD  1   6   2
M  END
>  <reaction>  (17) 
rmg_rxn_1534

>  <mol_properties>  (17) 
{"0": {"label": "*3", "atom_type": "N3d"}, "1": {"label": "*4", "atom_type": "N3d"}, "3": {"label": "*2", "atom_type": "H0"}, "5": {"label": "*1", "atom_type": "Cs"}, "6": {"label": "*0", "atom_type": "S2s"}}

>  <type>  (17) 
unop_13

>  <geom_source>  (17) 
Heuristics

$$$$

     RDKit          3D

 16 14  0  0  0  0  0  0  0  0999 V2000
    0.7976   -1.1139    1.9331 N   0  0  0  0  0  0  0  0  0  0  0  0
    0.7976   -2.3167    1.3884 N   0  0  0  0  0  0  0  0  0  0  0  0
    0.7976   -2.3167    0.1839 O   0  0  0  0  0  0  0  0  0  0  0  0
    0.7976   -0.1313    1.2179 H   0  0  0  0  0  0  0  0  0  0  0  0
    0.7976   -1.0675    2.9352 H   0  0  0  0  0  0  0  0  0  0  0  0
    0.7976    0.9270    0.4476 C   0  0  0  0  0  3  0  0  0  0  0  0
   -0.8855    1.4457    0.0701 S   0  0  0  0  0  0  0  0  0  0  0  0
   -1.1329    0.6356   -1.5286 C   0  0  0  0  0  0  0  0  0  0  0  0
   -0.2926    1.1921   -2.6668 C   0  0  0  0  0  0  0  0  0  0  0  0
    1.0224    1.2880    1.4503 H   0  0  0  0  0  0  0  0  0  0  0  0
    1.5213    1.3555   -0.2450 H   0  0  0  0  0  0  0  0  0  0  0  0
   -2.1954    0.7678   -1.7395 H   0  0  0  0  0  0  0  0  0  0  0  0
   -0.9627   -0.4363   -1.4044 H   0  0  0  0  0  0  0  0  0  0  0  0
    0.7733    1.0503   -2.4826 H   0  0  0  0  0  0  0  0  0  0  0  0
   -0.5357    0.6829   -3.6022 H   0  0  0  0  0  0  0  0  0  0  0  0
   -0.4744    2.2594   -2.7971 H   0  0  0  0  0  0  0  0  0  0  0  0
  1  2  1  0
  1  4  1  0
  1  5  1  0
  2  3  2  0
  6  7  1  0
  6 10  1  0
  6 11  1  0
  7  8  1  0
  8  9  1  0
  8 12  1  0
  8 13  1  0
  9 14  1  0
  9 15  1  0
  9 16  1  0
M  RAD  1   6   2
M  END
>  <reaction>  (18) 
rmg_rxn_1534

>  <mol_properties>  (18) 
{"0": {"label": "*3", "atom_type": "N3d"}, "1": {"label": "*4", "atom_type": "N3d"}, "3": {"label": "*2", "atom_type": "H0"}, "5": {"label": "*1", "atom_type": "Cs"}, "6": {"label": "*0", "atom_type": "S2s"}}

>  <type>  (18) 
unop_14

>  <geom_source>  (18) 
Heuristics

$$$$

     RDKit          3D

 16 14  0  0  0  0  0  0  0  0999 V2000
    2.1004   -0.8089    0.2281 N   0  0  0  0  0  0  0  0  0  0  0  0
    2.5437    0.3192   -0.1164 N   0  0  0  0  0  0  0  0  0  0  0  0
    1.8354    1.3050   -0.2124 O   0  0  0  0  0  0  0  0  0  0  0  0
    0.9310   -1.0780    0.4940 H   0  0  0  0  0  0  0  0  0  0  0  0
    2.8065   -1.5363    0.2559 H   0  0  0  0  0  0  0  0  0  0  0  0
   -0.3041   -1.3420    0.8205 C   0  0  0  0  0  3  0  0  0  0  0  0
   -1.3667   -0.8927   -0.5131 S   0  0  0  0  0  0  0  0  0  0  0  0
   -1.3000    0.9265   -0.4251 C   0  0  0  0  0  0  0  0  0  0  0  0
   -2.1036    1.4966    0.7276 C   0  0  0  0  0  0  0  0  0  0  0  0
   -0.3746   -2.4114    0.9797 H   0  0  0  0  0  0  0  0  0  0  0  0
   -0.5208   -0.7820    1.7228 H   0  0  0  0  0  0  0  0  0  0  0  0
   -1.7018    1.2633   -1.3800 H   0  0  0  0  0  0  0  0  0  0  0  0
   -0.2452    1.2100   -0.3567 H   0  0  0  0  0  0  0  0  0  0  0  0
   -2.0474    2.5827    0.7045 H   0  0  0  0  0  0  0  0  0  0  0  0
   -3.1477    1.1989    0.6535 H   0  0  0  0  0  0  0  0  0  0  0  0
   -1.7133    1.1593    1.6853 H   0  0  0  0  0  0  0  0  0  0  0  0
  1  2  1  0
  1  4  1  0
  1  5  1  0
  2  3  2  0
  6  7  1  0
  6 10  1  0
  6 11  1  0
  7  8  1  0
  8  9  1  0
  8 12  1  0
  8 13  1  0
  9 14  1  0
  9 15  1  0
  9 16  1  0
M  RAD  1   6   2
M  END
>  <reaction>  (19) 
rmg_rxn_1534

>  <mol_properties>  (19) 
{"0": {"label": "*3", "atom_type": "N3d"}, "1": {"label": "*4", "atom_type": "N3d"}, "3": {"label": "*2", "atom_type": "H0"}, "5": {"label": "*1", "atom_type": "Cs"}, "6": {"label": "*0", "atom_type": "S2s"}}

>  <type>  (19) 
unop_15

>  <geom_source>  (19) 
Heuristics

$$$$

     RDKit          3D

 16 14  0  0  0  0  0  0  0  0999 V2000
   -0.8839   -0.6467    1.7465 N   0  0  0  0  0  0  0  0  0  0  0  0
   -0.8839   -1.8495    1.2018 N   0  0  0  0  0  0  0  0  0  0  0  0
   -0.8839   -1.8495   -0.0027 O   0  0  0  0  0  0  0  0  0  0  0  0
   -0.8839    0.3360    1.0313 H   0  0  0  0  0  0  0  0  0  0  0  0
   -0.8839   -0.6003    2.7486 H   0  0  0  0  0  0  0  0  0  0  0  0
   -0.8839    1.3942    0.2611 C   0  0  0  0  0  3  0  0  0  0  0  0
   -0.0423    1.0552   -1.2950 S   0  0  0  0  0  0  0  0  0  0  0  0
    1.3185    0.0123   -0.7172 C   0  0  0  0  0  0  0  0  0  0  0  0
    2.3557    0.7251    0.1358 C   0  0  0  0  0  0  0  0  0  0  0  0
   -1.7888    1.9489    0.0169 H   0  0  0  0  0  0  0  0  0  0  0  0
   -0.2751    2.0019    0.9298 H   0  0  0  0  0  0  0  0  0  0  0  0
    1.7751   -0.3710   -1.6312 H   0  0  0  0  0  0  0  0  0  0  0  0
    0.8976   -0.8448   -0.1865 H   0  0  0  0  0  0  0  0  0  0  0  0
    1.9213    1.0977    1.0645 H   0  0  0  0  0  0  0  0  0  0  0  0
    3.1639    0.0400    0.4020 H   0  0  0  0  0  0  0  0  0  0  0  0
    2.7837    1.5721   -0.4014 H   0  0  0  0  0  0  0  0  0  0  0  0
  1  2  1  0
  1  4  1  0
  1  5  1  0
  2  3  2  0
  6  7  1  0
  6 10  1  0
  6 11  1  0
  7  8  1  0
  8  9  1  0
  8 12  1  0
  8 13  1  0
  9 14  1  0
  9 15  1  0
  9 16  1  0
M  RAD  1   6   2
M  END
>  <reaction>  (20) 
rmg_rxn_1534

>  <mol_properties>  (20) 
{"0": {"label": "*3", "atom_type": "N3d"}, "1": {"label": "*4", "atom_type": "N3d"}, "3": {"label": "*2", "atom_type": "H0"}, "5": {"label": "*1", "atom_type": "Cs"}, "6": {"label": "*0", "atom_type": "S2s"}}

>  <type>  (20) 
unop_16

>  <geom_source>  (20) 
Heuristics

$$$$

     RDKit          3D

 16 14  0  0  0  0  0  0  0  0999 V2000
    0.4490   -0.8481    2.1907 N   0  0  0  0  0  0  0  0  0  0  0  0
    0.4490   -2.0510    1.6459 N   0  0  0  0  0  0  0  0  0  0  0  0
    0.4490   -2.0510    0.4414 O   0  0  0  0  0  0  0  0  0  0  0  0
    0.4490    0.1345    1.4755 H   0  0  0  0  0  0  0  0  0  0  0  0
    0.4490   -0.8018    3.1928 H   0  0  0  0  0  0  0  0  0  0  0  0
    0.4490    1.1928    0.7052 C   0  0  0  0  0  3  0  0  0  0  0  0
   -1.0086    1.2162   -0.3528 S   0  0  0  0  0  0  0  0  0  0  0  0
   -0.4064    0.2673   -1.7705 C   0  0  0  0  0  0  0  0  0  0  0  0
    0.6760    0.9533   -2.5887 C   0  0  0  0  0  0  0  0  0  0  0  0
    0.1655    1.6651    1.6447 H   0  0  0  0  0  0  0  0  0  0  0  0
    1.2764    1.7534    0.2716 H   0  0  0  0  0  0  0  0  0  0  0  0
   -1.2945    0.0962   -2.3811 H   0  0  0  0  0  0  0  0  0  0  0  0
   -0.0691   -0.7094   -1.4162 H   0  0  0  0  0  0  0  0  0  0  0  0
    1.5801    1.1143   -1.9998 H   0  0  0  0  0  0  0  0  0  0  0  0
    0.9488    0.3378   -3.4491 H   0  0  0  0  0  0  0  0  0  0  0  0
    0.3319    1.9221   -2.9521 H   0  0  0  0  0  0  0  0  0  0  0  0
  1  2  1  0
  1  4  1  0
  1  5  1  0
  2  3  2  0
  6  7  1  0
  6 10  1  0
  6 11  1  0
  7  8  1  0
  8  9  1  0
  8 12  1  0
  8 13  1  0
  9 14  1  0
  9 15  1  0
  9 16  1  0
M  RAD  1   6   2
M  END
>  <reaction>  (21) 
rmg_rxn_1534

>  <mol_properties>  (21) 
{"0": {"label": "*3", "atom_type": "N3d"}, "1": {"label": "*4", "atom_type": "N3d"}, "3": {"label": "*2", "atom_type": "H0"}, "5": {"label": "*1", "atom_type": "Cs"}, "6": {"label": "*0", "atom_type": "S2s"}}

>  <type>  (21) 
unop_17

>  <geom_source>  (21) 
Heuristics

$$$$

     RDKit          3D

 16 14  0  0  0  0  0  0  0  0999 V2000
   -0.1686   -1.5856    0.3328 N   0  0  0  0  0  0  0  0  0  0  0  0
   -0.1686   -2.7884   -0.2120 N   0  0  0  0  0  0  0  0  0  0  0  0
   -0.1686   -2.7884   -1.4165 O   0  0  0  0  0  0  0  0  0  0  0  0
   -0.1686   -0.6029   -0.3824 H   0  0  0  0  0  0  0  0  0  0  0  0
   -0.1686   -1.5392    1.3349 H   0  0  0  0  0  0  0  0  0  0  0  0
   -0.1686    0.4554   -1.1527 C   0  0  0  0  0  3  0  0  0  0  0  0
    0.6729    1.8318   -0.3517 S   0  0  0  0  0  0  0  0  0  0  0  0
    0.3893    1.4281    1.3889 C   0  0  0  0  0  0  0  0  0  0  0  0
   -1.0564    1.5401    1.8463 C   0  0  0  0  0  0  0  0  0  0  0  0
    0.0203    0.5478   -2.2213 H   0  0  0  0  0  0  0  0  0  0  0  0
   -1.2451    0.4840   -0.9877 H   0  0  0  0  0  0  0  0  0  0  0  0
    1.0180    2.1312    1.9377 H   0  0  0  0  0  0  0  0  0  0  0  0
    0.7843    0.4281    1.5820 H   0  0  0  0  0  0  0  0  0  0  0  0
   -1.6971    0.8295    1.3224 H   0  0  0  0  0  0  0  0  0  0  0  0
   -1.1338    1.3275    2.9150 H   0  0  0  0  0  0  0  0  0  0  0  0
   -1.4439    2.5431    1.6645 H   0  0  0  0  0  0  0  0  0  0  0  0
  1  2  1  0
  1  4  1  0
  1  5  1  0
  2  3  2  0
  6  7  1  0
  6 10  1  0
  6 11  1  0
  7  8  1  0
  8  9  1  0
  8 12  1  0
  8 13  1  0
  9 14  1  0
  9 15  1  0
  9 16  1  0
M  RAD  1   6   2
M  END
>  <reaction>  (22) 
rmg_rxn_1534

>  <mol_properties>  (22) 
{"0": {"label": "*3", "atom_type": "N3d"}, "1": {"label": "*4", "atom_type": "N3d"}, "3": {"label": "*2", "atom_type": "H0"}, "5": {"label": "*1", "atom_type": "Cs"}, "6": {"label": "*0", "atom_type": "S2s"}}

>  <type>  (22) 
unop_18

>  <geom_source>  (22) 
Heuristics

$$$$

     RDKit          3D

 16 14  0  0  0  0  0  0  0  0999 V2000
   -0.5252   -0.5861    2.0769 N   0  0  0  0  0  0  0  0  0  0  0  0
   -0.5252   -1.7889    1.5321 N   0  0  0  0  0  0  0  0  0  0  0  0
   -0.5252   -1.7889    0.3276 O   0  0  0  0  0  0  0  0  0  0  0  0
   -0.5252    0.3966    1.3617 H   0  0  0  0  0  0  0  0  0  0  0  0
   -0.5252   -0.5397    3.0790 H   0  0  0  0  0  0  0  0  0  0  0  0
   -0.5252    1.4549    0.5914 C   0  0  0  0  0  3  0  0  0  0  0  0
   -0.5252    0.9831   -1.1469 S   0  0  0  0  0  0  0  0  0  0  0  0
    0.9578   -0.0512   -1.2113 C   0  0  0  0  0  0  0  0  0  0  0  0
    2.2685    0.6933   -1.0129 C   0  0  0  0  0  0  0  0  0  0  0  0
   -1.4429    2.0143    0.7673 H   0  0  0  0  0  0  0  0  0  0  0  0
    0.3223    2.0926    0.8407 H   0  0  0  0  0  0  0  0  0  0  0  0
    0.9268   -0.5109   -2.2005 H   0  0  0  0  0  0  0  0  0  0  0  0
    0.8510   -0.8567   -0.4811 H   0  0  0  0  0  0  0  0  0  0  0  0
    2.3262    1.1428   -0.0206 H   0  0  0  0  0  0  0  0  0  0  0  0
    3.1133    0.0079   -1.1135 H   0  0  0  0  0  0  0  0  0  0  0  0
    2.3786    1.4880   -1.7514 H   0  0  0  0  0  0  0  0  0  0  0  0
  1  2  1  0
  1  4  1  0
  1  5  1  0
  2  3  2  0
  6  7  1  0
  6 10  1  0
  6 11  1  0
  7  8  1  0
  8  9  1  0
  8 12  1  0
  8 13  1  0
  9 14  1  0
  9 15  1  0
  9 16  1  0
M  RAD  1   6   2
M  END
>  <reaction>  (23) 
rmg_rxn_1534

>  <mol_properties>  (23) 
{"0": {"label": "*3", "atom_type": "N3d"}, "1": {"label": "*4", "atom_type": "N3d"}, "3": {"label": "*2", "atom_type": "H0"}, "5": {"label": "*1", "atom_type": "Cs"}, "6": {"label": "*0", "atom_type": "S2s"}}

>  <type>  (23) 
unop_19

>  <geom_source>  (23) 
Heuristics

$$$$

     RDKit          3D

 16 14  0  0  0  0  0  0  0  0999 V2000
   -0.0388   -0.6583    2.2481 N   0  0  0  0  0  0  0  0  0  0  0  0
   -0.0388   -1.8611    1.7034 N   0  0  0  0  0  0  0  0  0  0  0  0
   -0.0388   -1.8611    0.4989 O   0  0  0  0  0  0  0  0  0  0  0  0
   -0.0388    0.3243    1.5329 H   0  0  0  0  0  0  0  0  0  0  0  0
   -0.0388   -0.6120    3.2502 H   0  0  0  0  0  0  0  0  0  0  0  0
   -0.0388    1.3826    0.7627 C   0  0  0  0  0  3  0  0  0  0  0  0
   -0.8804    1.0435   -0.7934 S   0  0  0  0  0  0  0  0  0  0  0  0
    0.3645    0.0336   -1.6320 C   0  0  0  0  0  0  0  0  0  0  0  0
    1.6302    0.7754   -2.0310 C   0  0  0  0  0  0  0  0  0  0  0  0
   -0.7465    1.9169    1.3950 H   0  0  0  0  0  0  0  0  0  0  0  0
    0.8414    2.0090    0.6220 H   0  0  0  0  0  0  0  0  0  0  0  0
   -0.1467   -0.3504   -2.5164 H   0  0  0  0  0  0  0  0  0  0  0  0
    0.5977   -0.8259   -0.9993 H   0  0  0  0  0  0  0  0  0  0  0  0
    2.1661    1.1493   -1.1573 H   0  0  0  0  0  0  0  0  0  0  0  0
    2.3063    0.1090   -2.5715 H   0  0  0  0  0  0  0  0  0  0  0  0
    1.3957    1.6248   -2.6732 H   0  0  0  0  0  0  0  0  0  0  0  0
  1  2  1  0
  1  4  1  0
  1  5  1  0
  2  3  2  0
  6  7  1  0
  6 10  1  0
  6 11  1  0
  7  8  1  0
  8  9  1  0
  8 12  1  0
  8 13  1  0
  9 14  1  0
  9 15  1  0
  9 16  1  0
M  RAD  1   6   2
M  END
>  <reaction>  (24) 
rmg_rxn_1534

>  <mol_properties>  (24) 
{"0": {"label": "*3", "atom_type": "N3d"}, "1": {"label": "*4", "atom_type": "N3d"}, "3": {"label": "*2", "atom_type": "H0"}, "5": {"label": "*1", "atom_type": "Cs"}, "6": {"label": "*0", "atom_type": "S2s"}}

>  <type>  (24) 
unop_20

>  <geom_source>  (24) 
gaussian_log

$$$$
