
     RDKit          3D

 14 13  0  0  0  0  0  0  0  0999 V2000
    1.8106   -0.5953    0.5577 C   0  0  0  0  0  0  0  0  0  0  0  0
    0.5197    0.2064    0.6554 C   0  0  0  0  0  0  0  0  0  0  0  0
   -0.5206   -0.2080   -0.3788 C   0  0  0  0  0  0  0  0  0  0  0  0
   -1.8114    0.5937   -0.2812 C   0  0  0  0  0  0  0  0  0  0  0  0
    2.2725   -0.4752   -0.4251 H   0  0  0  0  0  0  0  0  0  0  0  0
    1.6214   -1.6612    0.7052 H   0  0  0  0  0  0  0  0  0  0  0  0
    2.5364   -0.2784    1.3084 H   0  0  0  0  0  0  0  0  0  0  0  0
    0.0930    0.0950    1.6574 H   0  0  0  0  0  0  0  0  0  0  0  0
    0.7393    1.2723    0.5354 H   0  0  0  0  0  0  0  0  0  0  0  0
   -0.7402   -1.2739   -0.2588 H   0  0  0  0  0  0  0  0  0  0  0  0
   -0.0938   -0.0965   -1.3808 H   0  0  0  0  0  0  0  0  0  0  0  0
   -1.6222    1.6596   -0.4287 H   0  0  0  0  0  0  0  0  0  0  0  0
   -2.2734    0.4736    0.7017 H   0  0  0  0  0  0  0  0  0  0  0  0
   -2.5373    0.2768   -1.0318 H   0  0  0  0  0  0  0  0  0  0  0  0
  1  2  1  0
  1  5  1  0
  1  6  1  0
  1  7  1  0
  2  3  1  0
  2  8  1  0
  2  9  1  0
  3  4  1  0
  3 10  1  0
  3 11  1  0
  4 12  1  0
  4 13  1  0
  4 14  1  0
M  END
>  <reaction>  (1) 
rmg_rxn_370

>  <mol_properties>  (1) 
{"2": {"label": "donator", "atom_type": "Cs"}, "10": {"label": "d_hydrogen", "atom_type": "H0"}}

>  <type>  (1) 
r1h

$$$$

     RDKit          3D

  8  7  0  0  0  0  0  0  0  0999 V2000
   -0.7873    0.0891   -0.0873 C   0  0  0  0  0  0  0  0  0  0  0  0
    0.7223   -0.0637   -0.0109 C   0  0  0  0  0  0  0  0  0  0  0  0
    1.2867   -0.8404   -0.9706 O   0  0  0  0  0  1  0  0  0  0  0  0
   -1.2724   -0.8840   -0.0044 H   0  0  0  0  0  0  0  0  0  0  0  0
   -1.1517    0.7274    0.7201 H   0  0  0  0  0  0  0  0  0  0  0  0
   -1.0763    0.5365   -1.0389 H   0  0  0  0  0  0  0  0  0  0  0  0
    1.2329    0.9169   -0.0453 H   0  0  0  0  0  0  0  0  0  0  0  0
    1.0411   -0.4722    0.9662 H   0  0  0  0  0  0  0  0  0  0  0  0
  1  2  1  0
  1  4  1  0
  1  5  1  0
  1  6  1  0
  2  3  1  0
  2  7  1  0
  2  8  1  0
M  RAD  1   3   2
M  END
>  <reaction>  (2) 
rmg_rxn_370

>  <mol_properties>  (2) 
{"2": {"label": "acceptor", "atom_type": "O2s"}}

>  <type>  (2) 
r2

$$$$

     RDKit          3D

  9  8  0  0  0  0  0  0  0  0999 V2000
   -0.9895    0.3048    0.1041 C   0  0  0  0  0  0  0  0  0  0  0  0
    0.3761   -0.3562    0.0721 C   0  0  0  0  0  0  0  0  0  0  0  0
    0.3441   -1.6564   -0.4834 O   0  0  0  0  0  0  0  0  0  0  0  0
   -1.6997   -0.3114    0.6572 H   0  0  0  0  0  0  0  0  0  0  0  0
   -0.9320    1.2848    0.5822 H   0  0  0  0  0  0  0  0  0  0  0  0
   -1.3774    0.4507   -0.9077 H   0  0  0  0  0  0  0  0  0  0  0  0
    0.7581   -0.4813    1.0862 H   0  0  0  0  0  0  0  0  0  0  0  0
    1.0900    0.2787   -0.4681 H   0  0  0  0  0  0  0  0  0  0  0  0
    0.0089   -1.5959   -1.3792 H   0  0  0  0  0  0  0  0  0  0  0  0
  1  2  1  0
  1  4  1  0
  1  5  1  0
  1  6  1  0
  2  3  1  0
  2  7  1  0
  2  8  1  0
  3  9  1  0
M  END
>  <reaction>  (3) 
rmg_rxn_370

>  <mol_properties>  (3) 
{"2": {"label": "acceptor", "atom_type": "O2s"}, "8": {"label": "a_hydrogen", "atom_type": "H0"}}

>  <type>  (3) 
r2h

$$$$

     RDKit          3D

 22 20  0  0  0  0  0  0  0  0999 V2000
   -0.1370    2.7503   -0.1973 C   0  0  0  0  0  0  0  0  0  0  0  0
    0.6719    1.7192   -0.9667 C   0  0  0  0  0  0  0  0  0  0  0  0
    1.2465    0.7399   -0.1599 O   0  0  0  0  0  1  0  0  0  0  0  0
    0.4763    3.2132    0.5768 H   0  0  0  0  0  0  0  0  0  0  0  0
   -0.5068    3.5312   -0.8654 H   0  0  0  0  0  0  0  0  0  0  0  0
   -0.9973    2.2806    0.2843 H   0  0  0  0  0  0  0  0  0  0  0  0
    0.0639    1.2676   -1.7637 H   0  0  0  0  0  0  0  0  0  0  0  0
    1.5200    2.2046   -1.4680 H   0  0  0  0  0  0  0  0  0  0  0  0
   -0.2247   -2.1142   -1.4380 C   0  0  0  0  0  0  0  0  0  0  0  0
   -0.3904   -2.0738    0.0752 C   0  0  0  0  0  0  0  0  0  0  0  0
   -0.6931   -0.6911    0.6017 C   0  0  0  0  0  0  0  0  0  0  0  0
   -0.8072   -0.5537    2.0986 C   0  0  0  0  0  0  0  0  0  0  0  0
    0.5996   -1.4695   -1.7475 H   0  0  0  0  0  0  0  0  0  0  0  0
   -1.1316   -1.7683   -1.9400 H   0  0  0  0  0  0  0  0  0  0  0  0
   -0.0154   -3.1262   -1.7869 H   0  0  0  0  0  0  0  0  0  0  0  0
   -1.2011   -2.7476    0.3805 H   0  0  0  0  0  0  0  0  0  0  0  0
    0.5156   -2.4498    0.5595 H   0  0  0  0  0  0  0  0  0  0  0  0
   -1.5255   -0.2218    0.0693 H   0  0  0  0  0  0  0  0  0  0  0  0
    0.2720    0.0018    0.2681 H   0  0  0  0  0  0  0  0  0  0  0  0
    0.0923   -0.9231    2.5945 H   0  0  0  0  0  0  0  0  0  0  0  0
   -1.6565   -1.1336    2.4748 H   0  0  0  0  0  0  0  0  0  0  0  0
   -0.9539    0.4859    2.3937 H   0  0  0  0  0  0  0  0  0  0  0  0
  1  2  1  0
  1  4  1  0
  1  5  1  0
  1  6  1  0
  2  3  1  0
  2  7  1  0
  2  8  1  0
  9 10  1  0
  9 13  1  0
  9 14  1  0
  9 15  1  0
 10 11  1  0
 10 16  1  0
 10 17  1  0
 11 12  1  0
 11 18  1  0
 11 19  1  0
 12 20  1  0
 12 21  1  0
 12 22  1  0
M  RAD  1   3   2
M  END
>  <reaction>  (4) 
rmg_rxn_370

>  <mol_properties>  (4) 
{"1": {"label": "*4", "atom_type": "Cs"}, "2": {"label": "*3", "atom_type": "O2s"}, "9": {"label": "*0", "atom_type": "Cs"}, "10": {"label": "*1", "atom_type": "Cs"}, "18": {"label": "*2", "atom_type": "H0"}}

>  <type>  (4) 
ts

$$$$

     RDKit          3D

 22 20  0  0  0  0  0  0  0  0999 V2000
   -0.0250    2.4051    0.5281 C   0  0  0  0  0  0  0  0  0  0  0  0
    1.0330    2.0053   -0.4836 C   0  0  0  0  0  0  0  0  0  0  0  0
    1.3540    0.6291   -0.4280 O   0  0  0  0  0  0  0  0  0  0  0  0
    0.2941    2.1450    1.5382 H   0  0  0  0  0  0  0  0  0  0  0  0
   -0.2104    3.4805    0.4871 H   0  0  0  0  0  0  0  0  0  0  0  0
   -0.9716    1.8966    0.3259 H   0  0  0  0  0  0  0  0  0  0  0  0
    0.7141    2.2885   -1.4949 H   0  0  0  0  0  0  0  0  0  0  0  0
    1.9668    2.5313   -0.2802 H   0  0  0  0  0  0  0  0  0  0  0  0
   -0.6153   -2.0018   -1.7214 C   0  0  0  0  0  0  0  0  0  0  0  0
   -0.6153   -2.0018   -0.1987 C   0  0  0  0  0  0  0  0  0  0  0  0
   -0.6153   -0.5994    0.3986 C   0  0  0  0  0  3  0  0  0  0  0  0
   -0.6153   -0.5994    1.9213 C   0  0  0  0  0  0  0  0  0  0  0  0
    0.2662   -1.4884   -2.1128 H   0  0  0  0  0  0  0  0  0  0  0  0
   -1.4968   -1.4884   -2.1128 H   0  0  0  0  0  0  0  0  0  0  0  0
   -0.6153   -3.0169   -2.1218 H   0  0  0  0  0  0  0  0  0  0  0  0
   -1.4903   -2.5477    0.1686 H   0  0  0  0  0  0  0  0  0  0  0  0
    0.2597   -2.5477    0.1686 H   0  0  0  0  0  0  0  0  0  0  0  0
   -1.4903   -0.0535    0.0313 H   0  0  0  0  0  0  0  0  0  0  0  0
    0.4347    0.0557   -0.0421 H   0  0  0  0  0  0  0  0  0  0  0  0
    0.2662   -1.1128    2.3127 H   0  0  0  0  0  0  0  0  0  0  0  0
   -1.4968   -1.1128    2.3127 H   0  0  0  0  0  0  0  0  0  0  0  0
   -0.6153    0.4157    2.3217 H   0  0  0  0  0  0  0  0  0  0  0  0
  1  2  1  0
  1  4  1  0
  1  5  1  0
  1  6  1  0
  2  3  1  0
  2  7  1  0
  2  8  1  0
  3 19  1  0
  9 10  1  0
  9 13  1  0
  9 14  1  0
  9 15  1  0
 10 11  1  0
 10 16  1  0
 10 17  1  0
 11 12  1  0
 11 18  1  0
 12 20  1  0
 12 21  1  0
 12 22  1  0
M  RAD  1  11   2
M  END
>  <reaction>  (5) 
rmg_rxn_370

>  <mol_properties>  (5) 
{"1": {"label": "*4", "atom_type": "Cs"}, "2": {"label": "*3", "atom_type": "O2s"}, "9": {"label": "*0", "atom_type": "Cs"}, "10": {"label": "*1", "atom_type": "Cs"}, "18": {"label": "*2", "atom_type": "H0"}}

>  <type>  (5) 
unop_1

>  <geom_source>  (5) 
Heuristics

$$$$

     RDKit          3D

 22 20  0  0  0  0  0  0  0  0999 V2000
   -0.1602    1.0365   -1.7437 C   0  0  0  0  0  0  0  0  0  0  0  0
    1.2604    1.1531   -1.2229 C   0  0  0  0  0  0  0  0  0  0  0  0
    1.3361    1.0817    0.1875 O   0  0  0  0  0  0  0  0  0  0  0  0
   -0.7931    1.8087   -1.3043 H   0  0  0  0  0  0  0  0  0  0  0  0
   -0.1824    1.1440   -2.8301 H   0  0  0  0  0  0  0  0  0  0  0  0
   -0.5883    0.0610   -1.4973 H   0  0  0  0  0  0  0  0  0  0  0  0
    1.8955    0.3862   -1.6846 H   0  0  0  0  0  0  0  0  0  0  0  0
    1.6808    2.1239   -1.4891 H   0  0  0  0  0  0  0  0  0  0  0  0
   -0.6332   -1.5492   -1.1060 C   0  0  0  0  0  0  0  0  0  0  0  0
   -0.6332   -1.5492    0.4167 C   0  0  0  0  0  0  0  0  0  0  0  0
   -0.6332   -0.1469    1.0141 C   0  0  0  0  0  3  0  0  0  0  0  0
   -0.6332   -0.1469    2.5368 C   0  0  0  0  0  0  0  0  0  0  0  0
    0.2483   -1.0359   -1.4973 H   0  0  0  0  0  0  0  0  0  0  0  0
   -1.5147   -1.0359   -1.4973 H   0  0  0  0  0  0  0  0  0  0  0  0
   -0.6332   -2.5643   -1.5063 H   0  0  0  0  0  0  0  0  0  0  0  0
   -1.5083   -2.0951    0.7840 H   0  0  0  0  0  0  0  0  0  0  0  0
    0.2418   -2.0951    0.7840 H   0  0  0  0  0  0  0  0  0  0  0  0
   -1.5083    0.3990    0.6468 H   0  0  0  0  0  0  0  0  0  0  0  0
    0.4168    0.5082    0.5733 H   0  0  0  0  0  0  0  0  0  0  0  0
    0.2483   -0.6602    2.9282 H   0  0  0  0  0  0  0  0  0  0  0  0
   -1.5147   -0.6602    2.9282 H   0  0  0  0  0  0  0  0  0  0  0  0
   -0.6332    0.8682    2.9372 H   0  0  0  0  0  0  0  0  0  0  0  0
  1  2  1  0
  1  4  1  0
  1  5  1  0
  1  6  1  0
  2  3  1  0
  2  7  1  0
  2  8  1  0
  3 19  1  0
  9 10  1  0
  9 13  1  0
  9 14  1  0
  9 15  1  0
 10 11  1  0
 10 16  1  0
 10 17  1  0
 11 12  1  0
 11 18  1  0
 12 20  1  0
 12 21  1  0
 12 22  1  0
M  RAD  1  11   2
M  END
>  <reaction>  (6) 
rmg_rxn_370

>  <mol_properties>  (6) 
{"1": {"label": "*4", "atom_type": "Cs"}, "2": {"label": "*3", "atom_type": "O2s"}, "9": {"label": "*0", "atom_type": "Cs"}, "10": {"label": "*1", "atom_type": "Cs"}, "18": {"label": "*2", "atom_type": "H0"}}

>  <type>  (6) 
unop_2

>  <geom_source>  (6) 
Heuristics

$$$$

     RDKit          3D

 22 20  0  0  0  0  0  0  0  0999 V2000
    1.1263    1.9959    1.3989 C   0  0  0  0  0  0  0  0  0  0  0  0
    1.0930    2.0099   -0.1182 C   0  0  0  0  0  0  0  0  0  0  0  0
    1.1059    0.7121   -0.6799 O   0  0  0  0  0  0  0  0  0  0  0  0
    2.0010    1.4516    1.7571 H   0  0  0  0  0  0  0  0  0  0  0  0
    1.1636    3.0137    1.7928 H   0  0  0  0  0  0  0  0  0  0  0  0
    0.2326    1.5146    1.8053 H   0  0  0  0  0  0  0  0  0  0  0  0
    0.2218    2.5764   -0.4713 H   0  0  0  0  0  0  0  0  0  0  0  0
    1.9817    2.5065   -0.5101 H   0  0  0  0  0  0  0  0  0  0  0  0
   -0.8633   -1.9188   -1.9734 C   0  0  0  0  0  0  0  0  0  0  0  0
   -0.8633   -1.9188   -0.4507 C   0  0  0  0  0  0  0  0  0  0  0  0
   -0.8633   -0.5165    0.1467 C   0  0  0  0  0  3  0  0  0  0  0  0
   -0.8633   -0.5165    1.6694 C   0  0  0  0  0  0  0  0  0  0  0  0
    0.0182   -1.4055   -2.3647 H   0  0  0  0  0  0  0  0  0  0  0  0
   -1.7449   -1.4055   -2.3647 H   0  0  0  0  0  0  0  0  0  0  0  0
   -0.8633   -2.9339   -2.3737 H   0  0  0  0  0  0  0  0  0  0  0  0
   -1.7384   -2.4647   -0.0833 H   0  0  0  0  0  0  0  0  0  0  0  0
    0.0117   -2.4647   -0.0833 H   0  0  0  0  0  0  0  0  0  0  0  0
   -1.7384    0.0294   -0.2206 H   0  0  0  0  0  0  0  0  0  0  0  0
    0.1867    0.1386   -0.2941 H   0  0  0  0  0  0  0  0  0  0  0  0
    0.0182   -1.0298    2.0608 H   0  0  0  0  0  0  0  0  0  0  0  0
   -1.7449   -1.0298    2.0608 H   0  0  0  0  0  0  0  0  0  0  0  0
   -0.8633    0.4986    2.0698 H   0  0  0  0  0  0  0  0  0  0  0  0
  1  2  1  0
  1  4  1  0
  1  5  1  0
  1  6  1  0
  2  3  1  0
  2  7  1  0
  2  8  1  0
  3 19  1  0
  9 10  1  0
  9 13  1  0
  9 14  1  0
  9 15  1  0
 10 11  1  0
 10 16  1  0
 10 17  1  0
 11 12  1  0
 11 18  1  0
 12 20  1  0
 12 21  1  0
 12 22  1  0
M  RAD  1  11   2
M  END
>  <reaction>  (7) 
rmg_rxn_370

>  <mol_properties>  (7) 
{"1": {"label": "*4", "atom_type": "Cs"}, "2": {"label": "*3", "atom_type": "O2s"}, "9": {"label": "*0", "atom_type": "Cs"}, "10": {"label": "*1", "atom_type": "Cs"}, "18": {"label": "*2", "atom_type": "H0"}}

>  <type>  (7) 
unop_3

>  <geom_source>  (7) 
Heuristics

$$$$

     RDKit          3D

 22 20  0  0  0  0  0  0  0  0999 V2000
    1.7032   -0.2017   -1.5970 C   0  0  0  0  0  0  0  0  0  0  0  0
    1.8684    0.5322   -0.2790 C   0  0  0  0  0  0  0  0  0  0  0  0
    0.8308    1.4613   -0.0337 O   0  0  0  0  0  0  0  0  0  0  0  0
    1.6442    0.5068   -2.4243 H   0  0  0  0  0  0  0  0  0  0  0  0
    2.5462   -0.8731   -1.7724 H   0  0  0  0  0  0  0  0  0  0  0  0
    0.7916   -0.8055   -1.5969 H   0  0  0  0  0  0  0  0  0  0  0  0
    1.9476   -0.1873    0.5461 H   0  0  0  0  0  0  0  0  0  0  0  0
    2.7889    1.1176   -0.2865 H   0  0  0  0  0  0  0  0  0  0  0  0
   -1.1385   -1.1696   -1.3272 C   0  0  0  0  0  0  0  0  0  0  0  0
   -1.1385   -1.1696    0.1955 C   0  0  0  0  0  0  0  0  0  0  0  0
   -1.1385    0.2328    0.7929 C   0  0  0  0  0  3  0  0  0  0  0  0
   -1.1385    0.2328    2.3156 C   0  0  0  0  0  0  0  0  0  0  0  0
   -0.2569   -0.6563   -1.7185 H   0  0  0  0  0  0  0  0  0  0  0  0
   -2.0200   -0.6563   -1.7185 H   0  0  0  0  0  0  0  0  0  0  0  0
   -1.1385   -2.1847   -1.7275 H   0  0  0  0  0  0  0  0  0  0  0  0
   -2.0135   -1.7155    0.5628 H   0  0  0  0  0  0  0  0  0  0  0  0
   -0.2634   -1.7155    0.5628 H   0  0  0  0  0  0  0  0  0  0  0  0
   -2.0135    0.7787    0.4256 H   0  0  0  0  0  0  0  0  0  0  0  0
   -0.0884    0.8878    0.3521 H   0  0  0  0  0  0  0  0  0  0  0  0
   -0.2569   -0.2806    2.7070 H   0  0  0  0  0  0  0  0  0  0  0  0
   -2.0200   -0.2806    2.7070 H   0  0  0  0  0  0  0  0  0  0  0  0
   -1.1385    1.2479    2.7160 H   0  0  0  0  0  0  0  0  0  0  0  0
  1  2  1  0
  1  4  1  0
  1  5  1  0
  1  6  1  0
  2  3  1  0
  2  7  1  0
  2  8  1  0
  3 19  1  0
  9 10  1  0
  9 13  1  0
  9 14  1  0
  9 15  1  0
 10 11  1  0
 10 16  1  0
 10 17  1  0
 11 12  1  0
 11 18  1  0
 12 20  1  0
 12 21  1  0
 12 22  1  0
M  RAD  1  11   2
M  END
>  <reaction>  (8) 
rmg_rxn_370

>  <mol_properties>  (8) 
{"1": {"label": "*4", "atom_type": "Cs"}, "2": {"label": "*3", "atom_type": "O2s"}, "9": {"label": "*0", "atom_type": "Cs"}, "10": {"label": "*1", "atom_type": "Cs"}, "18": {"label": "*2", "atom_type": "H0"}}

>  <type>  (8) 
unop_4

>  <geom_source>  (8) 
Heuristics

$$$$

     RDKit          3D

 22 20  0  0  0  0  0  0  0  0999 V2000
    2.2584    1.2631    1.2355 C   0  0  0  0  0  0  0  0  0  0  0  0
    1.2392    1.8300    0.2644 C   0  0  0  0  0  0  0  0  0  0  0  0
    0.8447    0.8984   -0.7237 O   0  0  0  0  0  0  0  0  0  0  0  0
    3.1382    0.9041    0.6999 H   0  0  0  0  0  0  0  0  0  0  0  0
    2.5731    2.0248    1.9519 H   0  0  0  0  0  0  0  0  0  0  0  0
    1.8370    0.4280    1.8016 H   0  0  0  0  0  0  0  0  0  0  0  0
    0.3661    2.2077    0.8118 H   0  0  0  0  0  0  0  0  0  0  0  0
    1.6669    2.6717   -0.2820 H   0  0  0  0  0  0  0  0  0  0  0  0
   -1.1246   -1.7325   -2.0172 C   0  0  0  0  0  0  0  0  0  0  0  0
   -1.1246   -1.7325   -0.4945 C   0  0  0  0  0  0  0  0  0  0  0  0
   -1.1246   -0.3301    0.1029 C   0  0  0  0  0  3  0  0  0  0  0  0
   -1.1246   -0.3301    1.6256 C   0  0  0  0  0  0  0  0  0  0  0  0
   -0.2431   -1.2192   -2.4085 H   0  0  0  0  0  0  0  0  0  0  0  0
   -2.0061   -1.2192   -2.4085 H   0  0  0  0  0  0  0  0  0  0  0  0
   -1.1246   -2.7476   -2.4175 H   0  0  0  0  0  0  0  0  0  0  0  0
   -1.9996   -2.2784   -0.1272 H   0  0  0  0  0  0  0  0  0  0  0  0
   -0.2496   -2.2784   -0.1272 H   0  0  0  0  0  0  0  0  0  0  0  0
   -1.9996    0.2157   -0.2644 H   0  0  0  0  0  0  0  0  0  0  0  0
   -0.0746    0.3249   -0.3379 H   0  0  0  0  0  0  0  0  0  0  0  0
   -0.2431   -0.8435    2.0170 H   0  0  0  0  0  0  0  0  0  0  0  0
   -2.0061   -0.8435    2.0170 H   0  0  0  0  0  0  0  0  0  0  0  0
   -1.1246    0.6850    2.0260 H   0  0  0  0  0  0  0  0  0  0  0  0
  1  2  1  0
  1  4  1  0
  1  5  1  0
  1  6  1  0
  2  3  1  0
  2  7  1  0
  2  8  1  0
  3 19  1  0
  9 10  1  0
  9 13  1  0
  9 14  1  0
  9 15  1  0
 10 11  1  0
 10 16  1  0
 10 17  1  0
 11 12  1  0
 11 18  1  0
 12 20  1  0
 12 21  1  0
 12 22  1  0
M  RAD  1  11   2
M  END
>  <reaction>  (9) 
rmg_rxn_370

>  <mol_properties>  (9) 
{"1": {"label": "*4", "atom_type": "Cs"}, "2": {"label": "*3", "atom_type": "O2s"}, "9": {"label": "*0", "atom_type": "Cs"}, "10": {"label": "*1", "atom_type": "Cs"}, "18": {"label": "*2", "atom_type": "H0"}}

>  <type>  (9) 
unop_5

>  <geom_source>  (9) 
Heuristics

$$$$

     RDKit          3D

 22 20  0  0  0  0  0  0  0  0999 V2000
    2.3643   -0.2303   -0.9224 C   0  0  0  0  0  0  0  0  0  0  0  0
    1.8606    0.7286    0.1405 C   0  0  0  0  0  0  0  0  0  0  0  0
    0.6970    1.4273   -0.2570 O   0  0  0  0  0  0  0  0  0  0  0  0
    2.5578    0.3006   -1.8555 H   0  0  0  0  0  0  0  0  0  0  0  0
    3.2882   -0.7138   -0.5984 H   0  0  0  0  0  0  0  0  0  0  0  0
    1.6298   -1.0156   -1.1206 H   0  0  0  0  0  0  0  0  0  0  0  0
    1.6877    0.1914    1.0818 H   0  0  0  0  0  0  0  0  0  0  0  0
    2.6088    1.4971    0.3398 H   0  0  0  0  0  0  0  0  0  0  0  0
   -1.2722   -1.2036   -1.5504 C   0  0  0  0  0  0  0  0  0  0  0  0
   -1.2722   -1.2036   -0.0277 C   0  0  0  0  0  0  0  0  0  0  0  0
   -1.2722    0.1987    0.5697 C   0  0  0  0  0  3  0  0  0  0  0  0
   -1.2722    0.1987    2.0923 C   0  0  0  0  0  0  0  0  0  0  0  0
   -0.3907   -0.6903   -1.9418 H   0  0  0  0  0  0  0  0  0  0  0  0
   -2.1538   -0.6903   -1.9418 H   0  0  0  0  0  0  0  0  0  0  0  0
   -1.2722   -2.2187   -1.9508 H   0  0  0  0  0  0  0  0  0  0  0  0
   -2.1473   -1.7495    0.3396 H   0  0  0  0  0  0  0  0  0  0  0  0
   -0.3972   -1.7495    0.3396 H   0  0  0  0  0  0  0  0  0  0  0  0
   -2.1473    0.7446    0.2023 H   0  0  0  0  0  0  0  0  0  0  0  0
   -0.2222    0.8538    0.1289 H   0  0  0  0  0  0  0  0  0  0  0  0
   -0.3907   -0.3146    2.4837 H   0  0  0  0  0  0  0  0  0  0  0  0
   -2.1538   -0.3146    2.4837 H   0  0  0  0  0  0  0  0  0  0  0  0
   -1.2722    1.2139    2.4927 H   0  0  0  0  0  0  0  0  0  0  0  0
  1  2  1  0
  1  4  1  0
  1  5  1  0
  1  6  1  0
  2  3  1  0
  2  7  1  0
  2  8  1  0
  3 19  1  0
  9 10  1  0
  9 13  1  0
  9 14  1  0
  9 15  1  0
 10 11  1  0
 10 16  1  0
 10 17  1  0
 11 12  1  0
 11 18  1  0
 12 20  1  0
 12 21  1  0
 12 22  1  0
M  RAD  1  11   2
M  END
>  <reaction>  (10) 
rmg_rxn_370

>  <mol_properties>  (10) 
{"1": {"label": "*4", "atom_type": "Cs"}, "2": {"label": "*3", "atom_type": "O2s"}, "9": {"label": "*0", "atom_type": "Cs"}, "10": {"label": "*1", "atom_type": "Cs"}, "18": {"label": "*2", "atom_type": "H0"}}

>  <type>  (10) 
unop_6

>  <geom_source>  (10) 
Heuristics

$$$$

     RDKit          3D

 22 20  0  0  0  0  0  0  0  0999 V2000
    2.7209    0.0549   -0.1032 C   0  0  0  0  0  0  0  0  0  0  0  0
    1.7253    1.0771    0.4133 C   0  0  0  0  0  0  0  0  0  0  0  0
    0.6515    1.2982   -0.4800 O   0  0  0  0  0  0  0  0  0  0  0  0
    3.1112    0.3588   -1.0754 H   0  0  0  0  0  0  0  0  0  0  0  0
    3.5576   -0.0525    0.5902 H   0  0  0  0  0  0  0  0  0  0  0  0
    2.2522   -0.9267   -0.2134 H   0  0  0  0  0  0  0  0  0  0  0  0
    1.3525    0.7752    1.4005 H   0  0  0  0  0  0  0  0  0  0  0  0
    2.2095    2.0472    0.5337 H   0  0  0  0  0  0  0  0  0  0  0  0
   -1.3178   -1.3327   -1.7734 C   0  0  0  0  0  0  0  0  0  0  0  0
   -1.3178   -1.3327   -0.2507 C   0  0  0  0  0  0  0  0  0  0  0  0
   -1.3178    0.0697    0.3466 C   0  0  0  0  0  3  0  0  0  0  0  0
   -1.3178    0.0697    1.8693 C   0  0  0  0  0  0  0  0  0  0  0  0
   -0.4362   -0.8194   -2.1648 H   0  0  0  0  0  0  0  0  0  0  0  0
   -2.1993   -0.8194   -2.1648 H   0  0  0  0  0  0  0  0  0  0  0  0
   -1.3178   -2.3478   -2.1738 H   0  0  0  0  0  0  0  0  0  0  0  0
   -2.1928   -1.8786    0.1166 H   0  0  0  0  0  0  0  0  0  0  0  0
   -0.4427   -1.8786    0.1166 H   0  0  0  0  0  0  0  0  0  0  0  0
   -2.1928    0.6155   -0.0207 H   0  0  0  0  0  0  0  0  0  0  0  0
   -0.2677    0.7247   -0.0941 H   0  0  0  0  0  0  0  0  0  0  0  0
   -0.4362   -0.4437    2.2607 H   0  0  0  0  0  0  0  0  0  0  0  0
   -2.1993   -0.4437    2.2607 H   0  0  0  0  0  0  0  0  0  0  0  0
   -1.3178    1.0848    2.2697 H   0  0  0  0  0  0  0  0  0  0  0  0
  1  2  1  0
  1  4  1  0
  1  5  1  0
  1  6  1  0
  2  3  1  0
  2  7  1  0
  2  8  1  0
  3 19  1  0
  9 10  1  0
  9 13  1  0
  9 14  1  0
  9 15  1  0
 10 11  1  0
 10 16  1  0
 10 17  1  0
 11 12  1  0
 11 18  1  0
 12 20  1  0
 12 21  1  0
 12 22  1  0
M  RAD  1  11   2
M  END
>  <reaction>  (11) 
rmg_rxn_370

>  <mol_properties>  (11) 
{"1": {"label": "*4", "atom_type": "Cs"}, "2": {"label": "*3", "atom_type": "O2s"}, "9": {"label": "*0", "atom_type": "Cs"}, "10": {"label": "*1", "atom_type": "Cs"}, "18": {"label": "*2", "atom_type": "H0"}}

>  <type>  (11) 
unop_7

>  <geom_source>  (11) 
Heuristics

$$$$

     RDKit          3D

 22 20  0  0  0  0  0  0  0  0999 V2000
   -0.4471    2.1941   -0.5382 C   0  0  0  0  0  0  0  0  0  0  0  0
    1.0003    1.8494   -0.8365 C   0  0  0  0  0  0  0  0  0  0  0  0
    1.4473    0.7037   -0.1382 O   0  0  0  0  0  0  0  0  0  0  0  0
   -0.5926    2.3394    0.5331 H   0  0  0  0  0  0  0  0  0  0  0  0
   -0.7400    3.1092   -1.0570 H   0  0  0  0  0  0  0  0  0  0  0  0
   -1.1158    1.3952   -0.8699 H   0  0  0  0  0  0  0  0  0  0  0  0
    1.1435    1.7249   -1.9175 H   0  0  0  0  0  0  0  0  0  0  0  0
    1.6548    2.6609   -0.5153 H   0  0  0  0  0  0  0  0  0  0  0  0
   -0.5220   -1.9272   -1.4316 C   0  0  0  0  0  0  0  0  0  0  0  0
   -0.5220   -1.9272    0.0911 C   0  0  0  0  0  0  0  0  0  0  0  0
   -0.5220   -0.5248    0.6885 C   0  0  0  0  0  3  0  0  0  0  0  0
   -0.5220   -0.5248    2.2111 C   0  0  0  0  0  0  0  0  0  0  0  0
    0.3595   -1.4139   -1.8230 H   0  0  0  0  0  0  0  0  0  0  0  0
   -1.4035   -1.4139   -1.8230 H   0  0  0  0  0  0  0  0  0  0  0  0
   -0.5220   -2.9423   -1.8320 H   0  0  0  0  0  0  0  0  0  0  0  0
   -1.3970   -2.4731    0.4584 H   0  0  0  0  0  0  0  0  0  0  0  0
    0.3530   -2.4731    0.4584 H   0  0  0  0  0  0  0  0  0  0  0  0
   -1.3970    0.0211    0.3211 H   0  0  0  0  0  0  0  0  0  0  0  0
    0.5280    0.1302    0.2477 H   0  0  0  0  0  0  0  0  0  0  0  0
    0.3595   -1.0382    2.6025 H   0  0  0  0  0  0  0  0  0  0  0  0
   -1.4035   -1.0382    2.6025 H   0  0  0  0  0  0  0  0  0  0  0  0
   -0.5220    0.4903    2.6115 H   0  0  0  0  0  0  0  0  0  0  0  0
  1  2  1  0
  1  4  1  0
  1  5  1  0
  1  6  1  0
  2  3  1  0
  2  7  1  0
  2  8  1  0
  3 19  1  0
  9 10  1  0
  9 13  1  0
  9 14  1  0
  9 15  1  0
 10 11  1  0
 10 16  1  0
 10 17  1  0
 11 12  1  0
 11 18  1  0
 12 20  1  0
 12 21  1  0
 12 22  1  0
M  RAD  1  11   2
M  END
>  <reaction>  (12) 
rmg_rxn_370

>  <mol_properties>  (12) 
{"1": {"label": "*4", "atom_type": "Cs"}, "2": {"label": "*3", "atom_type": "O2s"}, "9": {"label": "*0", "atom_type": "Cs"}, "10": {"label": "*1", "atom_type": "Cs"}, "18": {"label": "*2", "atom_type": "H0"}}

>  <type>  (12) 
unop_8

>  <geom_source>  (12) 
Heuristics

$$$$

     RDKit          3D

 22 20  0  0  0  0  0  0  0  0999 V2000
   -0.4297    1.6545   -1.3051 C   0  0  0  0  0  0  0  0  0  0  0  0
    1.0722    1.5441   -1.1181 C   0  0  0  0  0  0  0  0  0  0  0  0
    1.4293    0.8759    0.0761 O   0  0  0  0  0  0  0  0  0  0  0  0
   -0.8849    2.1610   -0.4530 H   0  0  0  0  0  0  0  0  0  0  0  0
   -0.6648    2.2168   -2.2112 H   0  0  0  0  0  0  0  0  0  0  0  0
   -0.8859    0.6654   -1.3999 H   0  0  0  0  0  0  0  0  0  0  0  0
    1.5255    1.0520   -1.9881 H   0  0  0  0  0  0  0  0  0  0  0  0
    1.5164    2.5374   -1.0409 H   0  0  0  0  0  0  0  0  0  0  0  0
   -0.5399   -1.7550   -1.2173 C   0  0  0  0  0  0  0  0  0  0  0  0
   -0.5399   -1.7550    0.3054 C   0  0  0  0  0  0  0  0  0  0  0  0
   -0.5399   -0.3526    0.9028 C   0  0  0  0  0  3  0  0  0  0  0  0
   -0.5399   -0.3526    2.4254 C   0  0  0  0  0  0  0  0  0  0  0  0
    0.3416   -1.2416   -1.6087 H   0  0  0  0  0  0  0  0  0  0  0  0
   -1.4215   -1.2416   -1.6087 H   0  0  0  0  0  0  0  0  0  0  0  0
   -0.5399   -2.7701   -1.6177 H   0  0  0  0  0  0  0  0  0  0  0  0
   -1.4150   -2.3009    0.6727 H   0  0  0  0  0  0  0  0  0  0  0  0
    0.3351   -2.3009    0.6727 H   0  0  0  0  0  0  0  0  0  0  0  0
   -1.4150    0.1933    0.5354 H   0  0  0  0  0  0  0  0  0  0  0  0
    0.5101    0.3025    0.4620 H   0  0  0  0  0  0  0  0  0  0  0  0
    0.3416   -0.8660    2.8168 H   0  0  0  0  0  0  0  0  0  0  0  0
   -1.4215   -0.8660    2.8168 H   0  0  0  0  0  0  0  0  0  0  0  0
   -0.5399    0.6625    2.8258 H   0  0  0  0  0  0  0  0  0  0  0  0
  1  2  1  0
  1  4  1  0
  1  5  1  0
  1  6  1  0
  2  3  1  0
  2  7  1  0
  2  8  1  0
  3 19  1  0
  9 10  1  0
  9 13  1  0
  9 14  1  0
  9 15  1  0
 10 11  1  0
 10 16  1  0
 10 17  1  0
 11 12  1  0
 11 18  1  0
 12 20  1  0
 12 21  1  0
 12 22  1  0
M  RAD  1  11   2
M  END
>  <reaction>  (13) 
rmg_rxn_370

>  <mol_properties>  (13) 
{"1": {"label": "*4", "atom_type": "Cs"}, "2": {"label": "*3", "atom_type": "O2s"}, "9": {"label": "*0", "atom_type": "Cs"}, "10": {"label": "*1", "atom_type": "Cs"}, "18": {"label": "*2", "atom_type": "H0"}}

>  <type>  (13) 
unop_9

>  <geom_source>  (13) 
Heuristics

$$$$

     RDKit          3D

 22 20  0  0  0  0  0  0  0  0999 V2000
    2.7098    0.5932    0.6485 C   0  0  0  0  0  0  0  0  0  0  0  0
    1.4932    1.4816    0.4652 C   0  0  0  0  0  0  0  0  0  0  0  0
    0.7009    1.1060   -0.6443 O   0  0  0  0  0  0  0  0  0  0  0  0
    3.3222    0.5926   -0.2541 H   0  0  0  0  0  0  0  0  0  0  0  0
    3.3201    0.9432    1.4836 H   0  0  0  0  0  0  0  0  0  0  0  0
    2.4131   -0.4371    0.8624 H   0  0  0  0  0  0  0  0  0  0  0  0
    0.8929    1.4936    1.3840 H   0  0  0  0  0  0  0  0  0  0  0  0
    1.8030    2.5089    0.2684 H   0  0  0  0  0  0  0  0  0  0  0  0
   -1.2684   -1.5249   -1.9378 C   0  0  0  0  0  0  0  0  0  0  0  0
   -1.2684   -1.5249   -0.4151 C   0  0  0  0  0  0  0  0  0  0  0  0
   -1.2684   -0.1225    0.1823 C   0  0  0  0  0  3  0  0  0  0  0  0
   -1.2684   -0.1225    1.7050 C   0  0  0  0  0  0  0  0  0  0  0  0
   -0.3869   -1.0115   -2.3291 H   0  0  0  0  0  0  0  0  0  0  0  0
   -2.1499   -1.0115   -2.3291 H   0  0  0  0  0  0  0  0  0  0  0  0
   -1.2684   -2.5400   -2.3381 H   0  0  0  0  0  0  0  0  0  0  0  0
   -2.1434   -2.0708   -0.0478 H   0  0  0  0  0  0  0  0  0  0  0  0
   -0.3934   -2.0708   -0.0478 H   0  0  0  0  0  0  0  0  0  0  0  0
   -2.1434    0.4234   -0.1850 H   0  0  0  0  0  0  0  0  0  0  0  0
   -0.2183    0.5325   -0.2585 H   0  0  0  0  0  0  0  0  0  0  0  0
   -0.3869   -0.6359    2.0964 H   0  0  0  0  0  0  0  0  0  0  0  0
   -2.1499   -0.6359    2.0964 H   0  0  0  0  0  0  0  0  0  0  0  0
   -1.2684    0.8926    2.1054 H   0  0  0  0  0  0  0  0  0  0  0  0
  1  2  1  0
  1  4  1  0
  1  5  1  0
  1  6  1  0
  2  3  1  0
  2  7  1  0
  2  8  1  0
  3 19  1  0
  9 10  1  0
  9 13  1  0
  9 14  1  0
  9 15  1  0
 10 11  1  0
 10 16  1  0
 10 17  1  0
 11 12  1  0
 11 18  1  0
 12 20  1  0
 12 21  1  0
 12 22  1  0
M  RAD  1  11   2
M  END
>  <reaction>  (14) 
rmg_rxn_370

>  <mol_properties>  (14) 
{"1": {"label": "*4", "atom_type": "Cs"}, "2": {"label": "*3", "atom_type": "O2s"}, "9": {"label": "*0", "atom_type": "Cs"}, "10": {"label": "*1", "atom_type": "Cs"}, "18": {"label": "*2", "atom_type": "H0"}}

>  <type>  (14) 
unop_10

>  <geom_source>  (14) 
Heuristics

$$$$

     RDKit          3D

 22 19  0  0  0  0  0  0  0  0999 V2000
    0.2877    0.4956   -1.9346 C   0  0  0  0  0  3  0  0  0  0  0  0
    1.5148    0.7830   -1.0893 C   0  0  0  0  0  3  0  0  0  0  0  0
    1.1927    1.2675    0.1997 O   0  0  0  0  0  0  0  0  0  0  0  0
   -0.3324    1.3885   -2.0244 H   0  0  0  0  0  0  0  0  0  0  0  0
    0.5772    0.1701   -2.9359 H   0  0  0  0  0  0  0  0  0  0  0  0
   -0.3172   -0.2986   -1.4887 H   0  0  0  0  0  0  0  0  0  0  0  0
    2.1439   -0.1137   -1.0204 H   0  0  0  0  0  0  0  0  0  0  0  0
    2.1171    1.5653   -1.5532 H   0  0  0  0  0  0  0  0  0  0  0  0
   -0.7766   -1.3634   -1.0937 C   0  0  0  0  0  0  0  0  0  0  0  0
   -0.7766   -1.3634    0.4290 C   0  0  0  0  0  0  0  0  0  0  0  0
   -0.7766    0.0390    1.0263 C   0  0  0  0  0  3  0  0  0  0  0  0
   -0.7766    0.0390    2.5490 C   0  0  0  0  0  0  0  0  0  0  0  0
    0.1049   -0.8500   -1.4851 H   0  0  0  0  0  0  0  0  0  0  0  0
   -1.6581   -0.8500   -1.4851 H   0  0  0  0  0  0  0  0  0  0  0  0
   -0.7766   -2.3785   -1.4941 H   0  0  0  0  0  0  0  0  0  0  0  0
   -1.6516   -1.9093    0.7963 H   0  0  0  0  0  0  0  0  0  0  0  0
    0.0984   -1.9093    0.7963 H   0  0  0  0  0  0  0  0  0  0  0  0
   -1.6516    0.5849    0.6590 H   0  0  0  0  0  0  0  0  0  0  0  0
    0.2734    0.6941    0.5856 H   0  0  0  0  0  0  0  0  0  0  0  0
    0.1049   -0.4744    2.9404 H   0  0  0  0  0  0  0  0  0  0  0  0
   -1.6581   -0.4744    2.9404 H   0  0  0  0  0  0  0  0  0  0  0  0
   -0.7766    1.0541    2.9494 H   0  0  0  0  0  0  0  0  0  0  0  0
  1  4  1  0
  1  5  1  0
  1  6  1  0
  2  3  1  0
  2  7  1  0
  2  8  1  0
  3 19  1  0
  9 10  1  0
  9 13  1  0
  9 14  1  0
  9 15  1  0
 10 11  1  0
 10 16  1  0
 10 17  1  0
 11 12  1  0
 11 18  1  0
 12 20  1  0
 12 21  1  0
 12 22  1  0
M  RAD  3   1   2   2   2  11   2
M  END
>  <reaction>  (15) 
rmg_rxn_370

>  <mol_properties>  (15) 
{"1": {"label": "*4", "atom_type": "Cs"}, "2": {"label": "*3", "atom_type": "O2s"}, "9": {"label": "*0", "atom_type": "Cs"}, "10": {"label": "*1", "atom_type": "Cs"}, "18": {"label": "*2", "atom_type": "H0"}}

>  <type>  (15) 
unop_11

>  <geom_source>  (15) 
Heuristics

$$$$

     RDKit          3D

 22 20  0  0  0  0  0  0  0  0999 V2000
    1.0642    0.2616    0.5235 O   0  0  0  0  0  0  0  0  0  0  0  0
   -1.7734    0.1814   -1.0880 C   0  0  0  0  0  0  0  0  0  0  0  0
    2.3054   -0.2083    0.0844 C   0  0  0  0  0  0  0  0  0  0  0  0
   -2.0624    1.4485   -0.2882 C   0  0  0  0  0  0  0  0  0  0  0  0
    3.3859    0.8080    0.4195 C   0  0  0  0  0  0  0  0  0  0  0  0
   -1.6704   -1.5258    0.8009 C   0  0  0  0  0  0  0  0  0  0  0  0
   -0.9008   -0.8010   -0.3002 C   0  0  0  0  0  3  0  0  0  0  0  0
   -1.2279    0.4710   -2.0119 H   0  0  0  0  0  0  0  0  0  0  0  0
   -2.7272   -0.3012   -1.3932 H   0  0  0  0  0  0  0  0  0  0  0  0
    2.5380   -1.1728    0.5856 H   0  0  0  0  0  0  0  0  0  0  0  0
    2.2767   -0.3671   -1.0154 H   0  0  0  0  0  0  0  0  0  0  0  0
    3.1680    1.7743   -0.0830 H   0  0  0  0  0  0  0  0  0  0  0  0
    3.4293    0.9688    1.5176 H   0  0  0  0  0  0  0  0  0  0  0  0
    4.3720    0.4350    0.0708 H   0  0  0  0  0  0  0  0  0  0  0  0
   -1.1139    1.9078    0.0637 H   0  0  0  0  0  0  0  0  0  0  0  0
   -2.5926    2.1801   -0.9337 H   0  0  0  0  0  0  0  0  0  0  0  0
   -2.7099    1.2233    0.5845 H   0  0  0  0  0  0  0  0  0  0  0  0
   -0.9996   -2.2618    1.2910 H   0  0  0  0  0  0  0  0  0  0  0  0
   -2.0179   -0.8078    1.5715 H   0  0  0  0  0  0  0  0  0  0  0  0
   -2.5420   -2.0666    0.3747 H   0  0  0  0  0  0  0  0  0  0  0  0
   -0.4714   -1.5533   -0.9967 H   0  0  0  0  0  0  0  0  0  0  0  0
    0.2701   -0.5942    0.2224 H   0  0  0  0  0  0  0  0  0  0  0  0
  1  3  1  0
  1 22  1  0
  2  4  1  0
  2  7  1  0
  2  8  1  0
  2  9  1  0
  3  5  1  0
  3 10  1  0
  3 11  1  0
  4 15  1  0
  4 16  1  0
  4 17  1  0
  5 12  1  0
  5 13  1  0
  5 14  1  0
  6  7  1  0
  6 18  1  0
  6 19  1  0
  6 20  1  0
  7 21  1  0
M  RAD  1   7   2
M  END
>  <reaction>  (16) 
rmg_rxn_370

>  <mol_properties>  (16) 
{"1": {"label": "*4", "atom_type": "Cs"}, "2": {"label": "*3", "atom_type": "O2s"}, "9": {"label": "*0", "atom_type": "Cs"}, "10": {"label": "*1", "atom_type": "Cs"}, "18": {"label": "*2", "atom_type": "H0"}}

>  <type>  (16) 
unop_12

>  <geom_source>  (16) 
AutoTST

$$$$

     RDKit          3D

 22 20  0  0  0  0  0  0  0  0999 V2000
   -0.1602    1.0365   -1.7437 C   0  0  0  0  0  0  0  0  0  0  0  0
    1.2604    1.1531   -1.2229 C   0  0  0  0  0  0  0  0  0  0  0  0
    1.3360    1.0817    0.1875 O   0  0  0  0  0  0  0  0  0  0  0  0
   -0.7931    1.8087   -1.3043 H   0  0  0  0  0  0  0  0  0  0  0  0
   -0.1824    1.1440   -2.8301 H   0  0  0  0  0  0  0  0  0  0  0  0
   -0.5883    0.0610   -1.4973 H   0  0  0  0  0  0  0  0  0  0  0  0
    1.8956    0.3862   -1.6846 H   0  0  0  0  0  0  0  0  0  0  0  0
    1.6808    2.1239   -1.4891 H   0  0  0  0  0  0  0  0  0  0  0  0
   -0.6332   -1.5492   -1.1060 C   0  0  0  0  0  0  0  0  0  0  0  0
   -0.6332   -1.5492    0.4167 C   0  0  0  0  0  0  0  0  0  0  0  0
   -0.6332   -0.1469    1.0141 C   0  0  0  0  0  3  0  0  0  0  0  0
   -0.6332   -0.1469    2.5368 C   0  0  0  0  0  0  0  0  0  0  0  0
    0.2483   -1.0359   -1.4973 H   0  0  0  0  0  0  0  0  0  0  0  0
   -1.5148   -1.0359   -1.4973 H   0  0  0  0  0  0  0  0  0  0  0  0
   -0.6332   -2.5643   -1.5064 H   0  0  0  0  0  0  0  0  0  0  0  0
   -1.5083   -2.0951    0.7840 H   0  0  0  0  0  0  0  0  0  0  0  0
    0.2418   -2.0951    0.7840 H   0  0  0  0  0  0  0  0  0  0  0  0
   -1.5083    0.3990    0.6468 H   0  0  0  0  0  0  0  0  0  0  0  0
    0.4168    0.5082    0.5733 H   0  0  0  0  0  0  0  0  0  0  0  0
    0.2483   -0.6602    2.9282 H   0  0  0  0  0  0  0  0  0  0  0  0
   -1.5148   -0.6602    2.9282 H   0  0  0  0  0  0  0  0  0  0  0  0
   -0.6332    0.8682    2.9371 H   0  0  0  0  0  0  0  0  0  0  0  0
  1  2  1  0
  1  4  1  0
  1  5  1  0
  1  6  1  0
  2  3  1  0
  2  7  1  0
  2  8  1  0
  3 19  1  0
  9 10  1  0
  9 13  1  0
  9 14  1  0
  9 15  1  0
 10 11  1  0
 10 16  1  0
 10 17  1  0
 11 12  1  0
 11 18  1  0
 12 20  1  0
 12 21  1  0
 12 22  1  0
M  RAD  1  11   2
M  END
>  <reaction>  (17) 
rmg_rxn_370

>  <mol_properties>  (17) 
{"1": {"label": "*4", "atom_type": "Cs"}, "2": {"label": "*3", "atom_type": "O2s"}, "9": {"label": "*0", "atom_type": "Cs"}, "10": {"label": "*1", "atom_type": "Cs"}, "18": {"label": "*2", "atom_type": "H0"}}

>  <type>  (17) 
unop_13

>  <geom_source>  (17) 
gaussian_log

$$$$
