
     RDKit          3D

  9  8  0  0  0  0  0  0  0  0999 V2000
   -1.0314    0.2323   -0.1227 C   0  0  0  0  0  0  0  0  0  0  0  0
    0.3094   -0.4511    0.0063 C   0  0  0  0  0  0  0  0  0  0  0  0
    0.3197   -1.7698    0.6841 N   0  0  0  0  0  0  0  0  0  0  0  0
   -0.7498   -2.1455    1.0557 O   0  0  0  0  0  0  0  0  0  0  0  0
   -1.4744    0.4198    0.8552 H   0  0  0  0  0  0  0  0  0  0  0  0
   -0.9073    1.1865   -0.6350 H   0  0  0  0  0  0  0  0  0  0  0  0
   -1.7319   -0.3778   -0.6927 H   0  0  0  0  0  0  0  0  0  0  0  0
    1.0375    0.1401    0.5713 H   0  0  0  0  0  0  0  0  0  0  0  0
    0.7826   -0.6494   -0.9609 H   0  0  0  0  0  0  0  0  0  0  0  0
  1  2  1  0
  1  5  1  0
  1  6  1  0
  1  7  1  0
  2  3  1  0
  2  8  1  0
  2  9  1  0
  3  4  2  0
M  END
>  <reaction>  (1) 
rmg_rxn_1988

>  <mol_properties>  (1) 
{"1": {"label": "donator", "atom_type": "Cs"}, "7": {"label": "d_hydrogen", "atom_type": "H0"}}

>  <type>  (1) 
r1h

$$$$

     RDKit          3D

  8  7  0  0  0  0  0  0  0  0999 V2000
   -0.9728    0.1768    0.1542 C   0  0  0  0  0  0  0  0  0  0  0  0
    0.4518   -0.2348    0.0047 C   0  0  0  0  0  3  0  0  0  0  0  0
    1.3116    0.0208    0.9062 N   0  0  0  0  0  2  0  0  0  0  0  0
    2.5018   -0.1901    1.0428 O   0  0  0  0  0  1  0  0  0  0  0  0
   -1.2701    0.8423   -0.6593 H   0  0  0  0  0  0  0  0  0  0  0  0
   -1.6318   -0.6936    0.1212 H   0  0  0  0  0  0  0  0  0  0  0  0
   -1.1258    0.6936    1.1003 H   0  0  0  0  0  0  0  0  0  0  0  0
    0.7882   -0.7655   -0.8838 H   0  0  0  0  0  0  0  0  0  0  0  0
  1  2  1  0
  1  7  1  0
  1  6  1  0
  1  5  1  0
  2  3  1  0
  2  8  1  0
  3  4  1  0
M  RAD  3   2   2   3   2   4   2
M  END
>  <reaction>  (2) 
rmg_rxn_1988

>  <mol_properties>  (2) 
{"2": {"label": "acceptor", "atom_type": "N3s"}}

>  <type>  (2) 
r2

$$$$

     RDKit          3D

  9  8  0  0  0  0  0  0  0  0999 V2000
    1.0366    1.3666   -1.0040 O   0  0  0  0  0  1  0  0  0  0  0  0
    0.8763    0.9651    0.1786 N   0  0  0  0  0  0  0  0  0  0  0  0
    0.0999    0.0100    0.5787 C   0  0  0  0  0  3  0  0  0  0  0  0
   -0.7197   -0.7380   -0.4015 C   0  0  0  0  0  0  0  0  0  0  0  0
    1.4193    1.4472    0.9012 H   0  0  0  0  0  0  0  0  0  0  0  0
    0.0997   -0.1874    1.6410 H   0  0  0  0  0  0  0  0  0  0  0  0
   -1.3136   -1.5037    0.0930 H   0  0  0  0  0  0  0  0  0  0  0  0
   -1.3825   -0.0572   -0.9424 H   0  0  0  0  0  0  0  0  0  0  0  0
   -0.0802   -1.2049   -1.1555 H   0  0  0  0  0  0  0  0  0  0  0  0
  1  2  1  0
  2  3  1  0
  2  5  1  0
  3  4  1  0
  3  6  1  0
  4  7  1  0
  4  8  1  0
  4  9  1  0
M  CHG  2   1  -1   3   1
M  END
>  <reaction>  (3) 
rmg_rxn_1988

>  <mol_properties>  (3) 
{"2": {"label": "acceptor", "atom_type": "N3s"}, "8": {"label": "a_hydrogen", "atom_type": "H0"}}

>  <type>  (3) 
r2h

$$$$

     RDKit          3D

 17 15  0  0  0  0  0  0  0  0999 V2000
    2.9090   -0.5753    1.1671 C   0  0  0  0  0  0  0  0  0  0  0  0
    1.4990   -0.2155    0.8567 C   0  0  0  0  0  3  0  0  0  0  0  0
    0.8730   -0.7591   -0.1225 N   0  0  0  0  0  0  0  0  0  0  0  0
    1.2499   -1.6047   -0.9398 O   0  0  0  0  0  1  0  0  0  0  0  0
    3.5530   -0.3647    0.3098 H   0  0  0  0  0  0  0  0  0  0  0  0
    2.9945   -1.6444    1.3757 H   0  0  0  0  0  0  0  0  0  0  0  0
    3.2671   -0.0143    2.0274 H   0  0  0  0  0  0  0  0  0  0  0  0
    0.9322    0.5150    1.4173 H   0  0  0  0  0  0  0  0  0  0  0  0
   -1.5526   -0.1368   -2.0582 C   0  0  0  0  0  0  0  0  0  0  0  0
   -1.5491    0.1120   -0.5773 C   0  0  0  0  0  0  0  0  0  0  0  0
   -1.5517    1.4327   -0.0977 N   0  0  0  0  0  0  0  0  0  0  0  0
   -0.9718    2.2703   -0.7501 O   0  0  0  0  0  1  0  0  0  0  0  0
   -0.8435    0.5248   -2.5549 H   0  0  0  0  0  0  0  0  0  0  0  0
   -1.2674   -1.1718   -2.2522 H   0  0  0  0  0  0  0  0  0  0  0  0
   -2.5444    0.0318   -2.4835 H   0  0  0  0  0  0  0  0  0  0  0  0
   -0.3240   -0.3090   -0.2445 H   0  0  0  0  0  0  0  0  0  0  0  0
   -2.1944   -0.5133    0.0352 H   0  0  0  0  0  0  0  0  0  0  0  0
  1  2  1  0
  1  5  1  0
  1  6  1  0
  1  7  1  0
  2  3  1  0
  2  8  1  0
  3  4  1  0
  3 16  1  0
  9 10  1  0
  9 13  1  0
  9 14  1  0
  9 15  1  0
 10 11  2  3
 10 17  1  0
 11 12  1  0
M  CHG  2   2   1   4  -1
M  RAD  1  12   2
M  END
>  <reaction>  (4) 
rmg_rxn_1988

>  <mol_properties>  (4) 
{"1": {"label": "*0", "atom_type": "Csc"}, "2": {"label": "*1", "atom_type": "N3s"}, "9": {"label": "*3", "atom_type": "Cd"}, "10": {"label": "*4", "atom_type": "N3d"}, "15": {"label": "*2", "atom_type": "H0"}}

>  <type>  (4) 
ts

$$$$

     RDKit          3D

 17 15  0  0  0  0  0  0  0  0999 V2000
    1.8487   -1.5187    2.3683 C   0  0  0  0  0  0  0  0  0  0  0  0
    0.6386   -1.2163    1.5706 C   0  0  0  0  0  3  0  0  0  0  0  0
    0.7447   -0.9524    0.3080 N   0  0  0  0  0  0  0  0  0  0  0  0
    1.8035   -0.9165   -0.3726 O   0  0  0  0  0  1  0  0  0  0  0  0
    2.3728   -2.3835    1.9527 H   0  0  0  0  0  0  0  0  0  0  0  0
    1.5898   -1.7174    3.4061 H   0  0  0  0  0  0  0  0  0  0  0  0
    2.5533   -0.6839    2.3231 H   0  0  0  0  0  0  0  0  0  0  0  0
   -0.3627   -1.1984    1.9763 H   0  0  0  0  0  0  0  0  0  0  0  0
   -1.2788    0.2260   -2.1947 C   0  0  0  0  0  0  0  0  0  0  0  0
   -1.2788    0.2260   -0.6842 C   0  0  0  0  0  0  0  0  0  0  0  0
   -1.2788    1.5519   -0.0206 N   0  0  0  0  0  0  0  0  0  0  0  0
   -1.2788    2.4815   -0.7683 O   0  0  0  0  0  1  0  0  0  0  0  0
   -0.3987    0.7333   -2.5892 H   0  0  0  0  0  0  0  0  0  0  0  0
   -1.2788   -0.8012   -2.5599 H   0  0  0  0  0  0  0  0  0  0  0  0
   -2.1590    0.7333   -2.5892 H   0  0  0  0  0  0  0  0  0  0  0  0
   -0.2334   -0.3828   -0.1716 H   0  0  0  0  0  0  0  0  0  0  0  0
   -2.1500   -0.2814   -0.2570 H   0  0  0  0  0  0  0  0  0  0  0  0
  1  2  1  0
  1  5  1  0
  1  6  1  0
  1  7  1  0
  2  3  1  0
  2  8  1  0
  3  4  1  0
  3 16  1  0
  9 10  1  0
  9 13  1  0
  9 14  1  0
  9 15  1  0
 10 11  2  3
 10 17  1  0
 11 12  1  0
M  CHG  2   2   1   4  -1
M  RAD  1  12   2
M  END
>  <reaction>  (5) 
rmg_rxn_1988

>  <mol_properties>  (5) 
{"1": {"label": "*0", "atom_type": "Csc"}, "2": {"label": "*1", "atom_type": "N3s"}, "9": {"label": "*3", "atom_type": "Cd"}, "10": {"label": "*4", "atom_type": "N3d"}, "15": {"label": "*2", "atom_type": "H0"}}

>  <type>  (5) 
unop_1

>  <geom_source>  (5) 
gaussian_log

$$$$
