
     RDKit          3D

 14 14  0  0  0  0  0  0  0  0999 V2000
   -1.1778    0.2241    0.1818 C   0  0  0  0  0  0  0  0  0  0  0  0
   -0.5633   -1.1636    0.0678 C   0  0  0  0  0  0  0  0  0  0  0  0
    0.6943   -1.1996    0.7146 O   0  0  0  0  0  0  0  0  0  0  0  0
    1.5547   -0.2288    0.2011 C   0  0  0  0  0  0  0  0  0  0  0  0
    1.0729    1.0696    0.3698 O   0  0  0  0  0  0  0  0  0  0  0  0
   -0.1607    1.2493   -0.2989 C   0  0  0  0  0  0  0  0  0  0  0  0
   -2.0927    0.2866   -0.4117 H   0  0  0  0  0  0  0  0  0  0  0  0
   -1.4303    0.4248    1.2248 H   0  0  0  0  0  0  0  0  0  0  0  0
   -1.1822   -1.9235    0.5431 H   0  0  0  0  0  0  0  0  0  0  0  0
   -0.4389   -1.4347   -0.9919 H   0  0  0  0  0  0  0  0  0  0  0  0
    1.7250   -0.4207   -0.8742 H   0  0  0  0  0  0  0  0  0  0  0  0
    2.4896   -0.3010    0.7524 H   0  0  0  0  0  0  0  0  0  0  0  0
   -0.0080    1.1481   -1.3844 H   0  0  0  0  0  0  0  0  0  0  0  0
   -0.4826    2.2695   -0.0942 H   0  0  0  0  0  0  0  0  0  0  0  0
  1  2  1  0
  1  6  1  0
  1  7  1  0
  1  8  1  0
  2  3  1  0
  2  9  1  0
  2 10  1  0
  3  4  1  0
  4  5  1  0
  4 11  1  0
  4 12  1  0
  5  6  1  0
  6 13  1  0
  6 14  1  0
M  END
>  <reaction>  (1) 
rmg_rxn_246

>  <mol_properties>  (1) 
{"0": {"label": "donator", "atom_type": "Cs"}, "6": {"label": "d_hydrogen", "atom_type": "H0"}}

>  <type>  (1) 
r1h

$$$$

     RDKit          3D

 17 16  0  0  0  0  0  0  0  0999 V2000
    2.3128   -0.1525    1.1777 C   0  0  0  0  0  3  0  0  0  0  0  0
    1.7469    0.7266    0.1254 C   0  0  0  0  0  0  0  0  0  0  0  0
    1.6374    2.1830    0.5408 C   0  0  0  0  0  0  0  0  0  0  0  0
    2.9245    2.6874    0.7877 O   0  0  0  0  0  0  0  0  0  0  0  0
    2.9227    4.0197    1.2361 C   0  0  0  0  0  0  0  0  0  0  0  0
    4.3491    4.4603    1.4693 C   0  0  0  0  0  0  0  0  0  0  0  0
    2.1393   -1.2196    1.1557 H   0  0  0  0  0  0  0  0  0  0  0  0
    3.0313    0.2400    1.8838 H   0  0  0  0  0  0  0  0  0  0  0  0
    0.7555    0.3746   -0.1764 H   0  0  0  0  0  0  0  0  0  0  0  0
    2.3678    0.6841   -0.7826 H   0  0  0  0  0  0  0  0  0  0  0  0
    1.0170    2.2718    1.4449 H   0  0  0  0  0  0  0  0  0  0  0  0
    1.1499    2.7653   -0.2546 H   0  0  0  0  0  0  0  0  0  0  0  0
    2.4379    4.6655    0.4891 H   0  0  0  0  0  0  0  0  0  0  0  0
    2.3377    4.1015    2.1638 H   0  0  0  0  0  0  0  0  0  0  0  0
    4.9261    4.3920    0.5465 H   0  0  0  0  0  0  0  0  0  0  0  0
    4.3728    5.4939    1.8180 H   0  0  0  0  0  0  0  0  0  0  0  0
    4.8260    3.8299    2.2206 H   0  0  0  0  0  0  0  0  0  0  0  0
  1  2  1  0
  1  7  1  0
  1  8  1  0
  2  3  1  0
  2  9  1  0
  2 10  1  0
  3  4  1  0
  3 11  1  0
  3 12  1  0
  4  5  1  0
  5  6  1  0
  5 13  1  0
  5 14  1  0
  6 15  1  0
  6 16  1  0
  6 17  1  0
M  RAD  1   1   2
M  END
>  <reaction>  (2) 
rmg_rxn_246

>  <mol_properties>  (2) 
{"0": {"label": "acceptor", "atom_type": "Cs"}}

>  <type>  (2) 
r2

$$$$

     RDKit          3D

 18 17  0  0  0  0  0  0  0  0999 V2000
    2.2026   -0.7213   -0.2612 C   0  0  0  0  0  0  0  0  0  0  0  0
    1.5384    0.2638    0.6915 C   0  0  0  0  0  0  0  0  0  0  0  0
    2.2584    1.5946    0.7694 C   0  0  0  0  0  0  0  0  0  0  0  0
    2.2212    2.2185   -0.4893 O   0  0  0  0  0  0  0  0  0  0  0  0
    2.8988    3.4488   -0.5204 C   0  0  0  0  0  0  0  0  0  0  0  0
    2.7981    4.0296   -1.9118 C   0  0  0  0  0  0  0  0  0  0  0  0
    3.2294   -0.9309    0.0486 H   0  0  0  0  0  0  0  0  0  0  0  0
    2.2338   -0.3181   -1.2734 H   0  0  0  0  0  0  0  0  0  0  0  0
    1.6610   -1.6680   -0.2875 H   0  0  0  0  0  0  0  0  0  0  0  0
    1.4990   -0.1566    1.7002 H   0  0  0  0  0  0  0  0  0  0  0  0
    0.5055    0.4455    0.3835 H   0  0  0  0  0  0  0  0  0  0  0  0
    3.3038    1.4410    1.0808 H   0  0  0  0  0  0  0  0  0  0  0  0
    1.7844    2.2410    1.5226 H   0  0  0  0  0  0  0  0  0  0  0  0
    2.4596    4.1376    0.2164 H   0  0  0  0  0  0  0  0  0  0  0  0
    3.9524    3.3035   -0.2397 H   0  0  0  0  0  0  0  0  0  0  0  0
    1.7543    4.1869   -2.1856 H   0  0  0  0  0  0  0  0  0  0  0  0
    3.2472    3.3545   -2.6411 H   0  0  0  0  0  0  0  0  0  0  0  0
    3.3178    4.9878   -1.9600 H   0  0  0  0  0  0  0  0  0  0  0  0
  1  2  1  0
  1  7  1  0
  1  8  1  0
  1  9  1  0
  2  3  1  0
  2 10  1  0
  2 11  1  0
  3  4  1  0
  3 12  1  0
  3 13  1  0
  4  5  1  0
  5  6  1  0
  5 14  1  0
  5 15  1  0
  6 16  1  0
  6 17  1  0
  6 18  1  0
M  END
>  <reaction>  (3) 
rmg_rxn_246

>  <mol_properties>  (3) 
{"0": {"label": "a_hydrogen", "atom_type": "H0"}, "1": {"label": "acceptor", "atom_type": "Cs"}}

>  <type>  (3) 
r2h

$$$$

     RDKit          3D

 31 30  0  0  0  0  0  0  0  0999 V2000
    0.5081    2.0979    0.1975 C   0  0  0  0  0  3  0  0  0  0  0  0
    1.0420    2.1811   -1.2096 C   0  0  0  0  0  0  0  0  0  0  0  0
    0.5423    3.3455   -1.8559 O   0  0  0  0  0  0  0  0  0  0  0  0
   -0.8529    3.3714   -1.8279 C   0  0  0  0  0  0  0  0  0  0  0  0
   -1.3751    3.4011   -0.5345 O   0  0  0  0  0  0  0  0  0  0  0  0
   -0.9923    2.2434    0.1974 C   0  0  0  0  0  0  0  0  0  0  0  0
    0.7688    0.8603    0.6609 H   0  0  0  0  0  0  0  0  0  0  0  0
    1.0081    2.7737    0.8895 H   0  0  0  0  0  0  0  0  0  0  0  0
    2.1283    2.2501   -1.2380 H   0  0  0  0  0  0  0  0  0  0  0  0
    0.7355    1.2936   -1.7842 H   0  0  0  0  0  0  0  0  0  0  0  0
   -1.2465    2.4870   -2.3624 H   0  0  0  0  0  0  0  0  0  0  0  0
   -1.1687    4.2863   -2.3246 H   0  0  0  0  0  0  0  0  0  0  0  0
   -1.4574    1.3567   -0.2610 H   0  0  0  0  0  0  0  0  0  0  0  0
   -1.3967    2.3604    1.2013 H   0  0  0  0  0  0  0  0  0  0  0  0
    0.9293   -0.4156    1.0389 C   0  0  0  0  0  0  0  0  0  0  0  0
    0.7609   -1.2665   -0.1932 C   0  0  0  0  0  0  0  0  0  0  0  0
    0.8210   -2.7583    0.0929 C   0  0  0  0  0  0  0  0  0  0  0  0
   -0.2518   -3.1088    0.9274 O   0  0  0  0  0  0  0  0  0  0  0  0
   -0.2648   -4.4713    1.2746 C   0  0  0  0  0  0  0  0  0  0  0  0
   -1.4518   -4.7371    2.1709 C   0  0  0  0  0  0  0  0  0  0  0  0
    0.1563   -0.5592    1.7905 H   0  0  0  0  0  0  0  0  0  0  0  0
    1.9276   -0.4372    1.4748 H   0  0  0  0  0  0  0  0  0  0  0  0
    1.5408   -1.0332   -0.9236 H   0  0  0  0  0  0  0  0  0  0  0  0
   -0.1995   -1.0505   -0.6705 H   0  0  0  0  0  0  0  0  0  0  0  0
    1.7765   -3.0122    0.5767 H   0  0  0  0  0  0  0  0  0  0  0  0
    0.7680   -3.3240   -0.8491 H   0  0  0  0  0  0  0  0  0  0  0  0
   -0.3224   -5.0886    0.3661 H   0  0  0  0  0  0  0  0  0  0  0  0
    0.6715   -4.7352    1.7875 H   0  0  0  0  0  0  0  0  0  0  0  0
   -2.3815   -4.4880    1.6582 H   0  0  0  0  0  0  0  0  0  0  0  0
   -1.4830   -5.7904    2.4535 H   0  0  0  0  0  0  0  0  0  0  0  0
   -1.3874   -4.1364    3.0788 H   0  0  0  0  0  0  0  0  0  0  0  0
  1  2  1  0
  1  6  1  0
  1  8  1  0
  2  3  1  0
  2  9  1  0
  2 10  1  0
  3  4  1  0
  4  5  1  0
  4 11  1  0
  4 12  1  0
  5  6  1  0
  6 13  1  0
  6 14  1  0
  7 15  1  0
 15 16  1  0
 15 21  1  0
 15 22  1  0
 16 17  1  0
 16 23  1  0
 16 24  1  0
 17 18  1  0
 17 25  1  0
 17 26  1  0
 18 19  1  0
 19 20  1  0
 19 27  1  0
 19 28  1  0
 20 29  1  0
 20 30  1  0
 20 31  1  0
M  RAD  1   1   2
M  END
>  <reaction>  (4) 
rmg_rxn_246

>  <mol_properties>  (4) 
{"0": {"label": "*3", "atom_type": "Cs"}, "1": {"label": "*4", "atom_type": "Cs"}, "6": {"label": "*2", "atom_type": "H0"}, "14": {"label": "*1", "atom_type": "Cs"}, "15": {"label": "*0", "atom_type": "Cs"}}

>  <type>  (4) 
ts

$$$$

     RDKit          3D

 31 30  0  0  0  0  0  0  0  0999 V2000
    0.3295    1.6564   -0.8733 C   0  0  0  0  0  3  0  0  0  0  0  0
    0.3295    1.6564   -2.3953 C   0  0  0  0  0  0  0  0  0  0  0  0
    0.3295    2.9828   -2.8874 O   0  0  0  0  0  0  0  0  0  0  0  0
   -0.7533    3.7071   -2.3881 C   0  0  0  0  0  0  0  0  0  0  0  0
   -0.7420    3.8134   -0.9970 O   0  0  0  0  0  0  0  0  0  0  0  0
   -0.8099    2.5397   -0.3852 C   0  0  0  0  0  0  0  0  0  0  0  0
    0.1920    0.4361   -0.4150 H   0  0  0  0  0  0  0  0  0  0  0  0
    1.2789    2.0549   -0.5103 H   0  0  0  0  0  0  0  0  0  0  0  0
    1.2153    1.1709   -2.8026 H   0  0  0  0  0  0  0  0  0  0  0  0
   -0.5580    1.1252   -2.7720 H   0  0  0  0  0  0  0  0  0  0  0  0
   -1.6959    3.2290   -2.7123 H   0  0  0  0  0  0  0  0  0  0  0  0
   -0.6810    4.7153   -2.7901 H   0  0  0  0  0  0  0  0  0  0  0  0
   -1.7776    2.0706   -0.6205 H   0  0  0  0  0  0  0  0  0  0  0  0
   -0.7646    2.7057    0.6903 H   0  0  0  0  0  0  0  0  0  0  0  0
    0.0546   -0.7828    0.0427 C   0  0  0  0  0  0  0  0  0  0  0  0
    1.2476   -1.1841    0.8999 C   0  0  0  0  0  0  0  0  0  0  0  0
    0.8570   -1.9768    2.1304 C   0  0  0  0  0  0  0  0  0  0  0  0
    0.2642   -3.1882    1.7352 O   0  0  0  0  0  0  0  0  0  0  0  0
   -0.1640   -3.9766    2.8163 C   0  0  0  0  0  0  0  0  0  0  0  0
   -0.7832   -5.2473    2.2823 C   0  0  0  0  0  0  0  0  0  0  0  0
   -0.4843   -1.6639   -0.3058 H   0  0  0  0  0  0  0  0  0  0  0  0
   -0.6443   -0.1652    0.6123 H   0  0  0  0  0  0  0  0  0  0  0  0
    1.7892   -0.2939    1.2314 H   0  0  0  0  0  0  0  0  0  0  0  0
    1.9491   -1.7806    0.3109 H   0  0  0  0  0  0  0  0  0  0  0  0
    0.1504   -1.3968    2.7451 H   0  0  0  0  0  0  0  0  0  0  0  0
    1.7422   -2.1775    2.7516 H   0  0  0  0  0  0  0  0  0  0  0  0
    0.6886   -4.2101    3.4712 H   0  0  0  0  0  0  0  0  0  0  0  0
   -0.8933   -3.4182    3.4215 H   0  0  0  0  0  0  0  0  0  0  0  0
   -0.0566   -5.8084    1.6936 H   0  0  0  0  0  0  0  0  0  0  0  0
   -1.1234   -5.8772    3.1058 H   0  0  0  0  0  0  0  0  0  0  0  0
   -1.6382   -5.0175    1.6454 H   0  0  0  0  0  0  0  0  0  0  0  0
  1  2  1  0
  1  6  1  0
  1  8  1  0
  2  3  1  0
  2  9  1  0
  2 10  1  0
  3  4  1  0
  4  5  1  0
  4 11  1  0
  4 12  1  0
  5  6  1  0
  6 13  1  0
  6 14  1  0
  7 15  1  0
 15 16  1  0
 15 21  1  0
 15 22  1  0
 16 17  1  0
 16 23  1  0
 16 24  1  0
 17 18  1  0
 17 25  1  0
 17 26  1  0
 18 19  1  0
 19 20  1  0
 19 27  1  0
 19 28  1  0
 20 29  1  0
 20 30  1  0
 20 31  1  0
M  RAD  1   1   2
M  END
>  <reaction>  (5) 
rmg_rxn_246

>  <mol_properties>  (5) 
{"0": {"label": "*3", "atom_type": "Cs"}, "1": {"label": "*4", "atom_type": "Cs"}, "6": {"label": "*2", "atom_type": "H0"}, "14": {"label": "*1", "atom_type": "Cs"}, "15": {"label": "*0", "atom_type": "Cs"}}

>  <type>  (5) 
unop_1

>  <geom_source>  (5) 
Heuristics

$$$$

     RDKit          3D

 31 30  0  0  0  0  0  0  0  0999 V2000
    0.4711    1.9501   -0.1296 C   0  0  0  0  0  3  0  0  0  0  0  0
    0.4711    1.9501   -1.6516 C   0  0  0  0  0  0  0  0  0  0  0  0
    0.4711    3.2764   -2.1437 O   0  0  0  0  0  0  0  0  0  0  0  0
   -0.6117    4.0008   -1.6444 C   0  0  0  0  0  0  0  0  0  0  0  0
   -0.6004    4.1070   -0.2534 O   0  0  0  0  0  0  0  0  0  0  0  0
   -0.6683    2.8333    0.3585 C   0  0  0  0  0  0  0  0  0  0  0  0
    0.3335    0.7297    0.3286 H   0  0  0  0  0  0  0  0  0  0  0  0
    1.4204    2.3486    0.2334 H   0  0  0  0  0  0  0  0  0  0  0  0
    1.3568    1.4645   -2.0590 H   0  0  0  0  0  0  0  0  0  0  0  0
   -0.4164    1.4188   -2.0284 H   0  0  0  0  0  0  0  0  0  0  0  0
   -1.5543    3.5227   -1.9686 H   0  0  0  0  0  0  0  0  0  0  0  0
   -0.5394    5.0089   -2.0464 H   0  0  0  0  0  0  0  0  0  0  0  0
   -1.6360    2.3642    0.1232 H   0  0  0  0  0  0  0  0  0  0  0  0
   -0.6231    2.9993    1.4340 H   0  0  0  0  0  0  0  0  0  0  0  0
    0.1961   -0.4892    0.7863 C   0  0  0  0  0  0  0  0  0  0  0  0
    0.7964   -1.5065   -0.1749 C   0  0  0  0  0  0  0  0  0  0  0  0
    1.0678   -2.8492    0.4722 C   0  0  0  0  0  0  0  0  0  0  0  0
   -0.1464   -3.4158    0.8960 O   0  0  0  0  0  0  0  0  0  0  0  0
    0.0129   -4.6528    1.5428 C   0  0  0  0  0  0  0  0  0  0  0  0
   -1.3458   -5.1695    1.9555 C   0  0  0  0  0  0  0  0  0  0  0  0
   -0.7535   -0.8472    1.1838 H   0  0  0  0  0  0  0  0  0  0  0  0
    0.8664   -0.3078    1.6302 H   0  0  0  0  0  0  0  0  0  0  0  0
    1.7406   -1.1310   -0.5789 H   0  0  0  0  0  0  0  0  0  0  0  0
    0.1268   -1.6599   -1.0252 H   0  0  0  0  0  0  0  0  0  0  0  0
    1.7437   -2.7242    1.3329 H   0  0  0  0  0  0  0  0  0  0  0  0
    1.5671   -3.5220   -0.2405 H   0  0  0  0  0  0  0  0  0  0  0  0
    0.5076   -5.3677    0.8686 H   0  0  0  0  0  0  0  0  0  0  0  0
    0.6628   -4.5347    2.4224 H   0  0  0  0  0  0  0  0  0  0  0  0
   -1.9863   -5.3000    1.0825 H   0  0  0  0  0  0  0  0  0  0  0  0
   -1.2470   -6.1317    2.4604 H   0  0  0  0  0  0  0  0  0  0  0  0
   -1.8305   -4.4688    2.6362 H   0  0  0  0  0  0  0  0  0  0  0  0
  1  2  1  0
  1  6  1  0
  1  8  1  0
  2  3  1  0
  2  9  1  0
  2 10  1  0
  3  4  1  0
  4  5  1  0
  4 11  1  0
  4 12  1  0
  5  6  1  0
  6 13  1  0
  6 14  1  0
  7 15  1  0
 15 16  1  0
 15 21  1  0
 15 22  1  0
 16 17  1  0
 16 23  1  0
 16 24  1  0
 17 18  1  0
 17 25  1  0
 17 26  1  0
 18 19  1  0
 19 20  1  0
 19 27  1  0
 19 28  1  0
 20 29  1  0
 20 30  1  0
 20 31  1  0
M  RAD  1   1   2
M  END
>  <reaction>  (6) 
rmg_rxn_246

>  <mol_properties>  (6) 
{"0": {"label": "*3", "atom_type": "Cs"}, "1": {"label": "*4", "atom_type": "Cs"}, "6": {"label": "*2", "atom_type": "H0"}, "14": {"label": "*1", "atom_type": "Cs"}, "15": {"label": "*0", "atom_type": "Cs"}}

>  <type>  (6) 
unop_2

>  <geom_source>  (6) 
Heuristics

$$$$

     RDKit          3D

 31 30  0  0  0  0  0  0  0  0999 V2000
    0.4150    1.6984   -0.8248 C   0  0  0  0  0  3  0  0  0  0  0  0
    0.4150    1.6984   -2.3469 C   0  0  0  0  0  0  0  0  0  0  0  0
    0.4150    3.0247   -2.8390 O   0  0  0  0  0  0  0  0  0  0  0  0
   -0.6678    3.7491   -2.3397 C   0  0  0  0  0  0  0  0  0  0  0  0
   -0.6565    3.8553   -0.9486 O   0  0  0  0  0  0  0  0  0  0  0  0
   -0.7244    2.5816   -0.3367 C   0  0  0  0  0  0  0  0  0  0  0  0
    0.2775    0.4780   -0.3666 H   0  0  0  0  0  0  0  0  0  0  0  0
    1.3644    2.0969   -0.4618 H   0  0  0  0  0  0  0  0  0  0  0  0
    1.3008    1.2128   -2.7542 H   0  0  0  0  0  0  0  0  0  0  0  0
   -0.4725    1.1671   -2.7236 H   0  0  0  0  0  0  0  0  0  0  0  0
   -1.6104    3.2710   -2.6639 H   0  0  0  0  0  0  0  0  0  0  0  0
   -0.5955    4.7572   -2.7416 H   0  0  0  0  0  0  0  0  0  0  0  0
   -1.6920    2.1125   -0.5720 H   0  0  0  0  0  0  0  0  0  0  0  0
   -0.6791    2.7476    0.7387 H   0  0  0  0  0  0  0  0  0  0  0  0
    0.1401   -0.7409    0.0911 C   0  0  0  0  0  0  0  0  0  0  0  0
    0.8367   -0.9033    1.4355 C   0  0  0  0  0  0  0  0  0  0  0  0
    0.1876   -1.9479    2.3202 C   0  0  0  0  0  0  0  0  0  0  0  0
    0.2835   -3.2064    1.7021 O   0  0  0  0  0  0  0  0  0  0  0  0
   -0.3263   -4.2356    2.4385 C   0  0  0  0  0  0  0  0  0  0  0  0
   -0.1667   -5.5374    1.6878 C   0  0  0  0  0  0  0  0  0  0  0  0
    0.1509   -1.6782   -0.4651 H   0  0  0  0  0  0  0  0  0  0  0  0
   -0.9026   -0.4425    0.2260 H   0  0  0  0  0  0  0  0  0  0  0  0
    0.8332    0.0461    1.9783 H   0  0  0  0  0  0  0  0  0  0  0  0
    1.8839   -1.1781    1.2849 H   0  0  0  0  0  0  0  0  0  0  0  0
   -0.8706   -1.6939    2.4910 H   0  0  0  0  0  0  0  0  0  0  0  0
    0.6802   -1.9744    3.3033 H   0  0  0  0  0  0  0  0  0  0  0  0
    0.1341   -4.3076    3.4350 H   0  0  0  0  0  0  0  0  0  0  0  0
   -1.3917   -4.0073    2.5900 H   0  0  0  0  0  0  0  0  0  0  0  0
    0.8894   -5.7715    1.5492 H   0  0  0  0  0  0  0  0  0  0  0  0
   -0.6332   -6.3532    2.2422 H   0  0  0  0  0  0  0  0  0  0  0  0
   -0.6364   -5.4723    0.7057 H   0  0  0  0  0  0  0  0  0  0  0  0
  1  2  1  0
  1  6  1  0
  1  8  1  0
  2  3  1  0
  2  9  1  0
  2 10  1  0
  3  4  1  0
  4  5  1  0
  4 11  1  0
  4 12  1  0
  5  6  1  0
  6 13  1  0
  6 14  1  0
  7 15  1  0
 15 16  1  0
 15 21  1  0
 15 22  1  0
 16 17  1  0
 16 23  1  0
 16 24  1  0
 17 18  1  0
 17 25  1  0
 17 26  1  0
 18 19  1  0
 19 20  1  0
 19 27  1  0
 19 28  1  0
 20 29  1  0
 20 30  1  0
 20 31  1  0
M  RAD  1   1   2
M  END
>  <reaction>  (7) 
rmg_rxn_246

>  <mol_properties>  (7) 
{"0": {"label": "*3", "atom_type": "Cs"}, "1": {"label": "*4", "atom_type": "Cs"}, "6": {"label": "*2", "atom_type": "H0"}, "14": {"label": "*1", "atom_type": "Cs"}, "15": {"label": "*0", "atom_type": "Cs"}}

>  <type>  (7) 
unop_3

>  <geom_source>  (7) 
Heuristics

$$$$

     RDKit          3D

 31 30  0  0  0  0  0  0  0  0999 V2000
    1.3610    1.1657   -0.7733 C   0  0  0  0  0  3  0  0  0  0  0  0
    1.3610    1.1657   -2.2953 C   0  0  0  0  0  0  0  0  0  0  0  0
    1.3610    2.4921   -2.7874 O   0  0  0  0  0  0  0  0  0  0  0  0
    0.2782    3.2164   -2.2881 C   0  0  0  0  0  0  0  0  0  0  0  0
    0.2895    3.3227   -0.8970 O   0  0  0  0  0  0  0  0  0  0  0  0
    0.2216    2.0490   -0.2851 C   0  0  0  0  0  0  0  0  0  0  0  0
    1.2235   -0.0546   -0.3150 H   0  0  0  0  0  0  0  0  0  0  0  0
    2.3104    1.5643   -0.4102 H   0  0  0  0  0  0  0  0  0  0  0  0
    2.2468    0.6802   -2.7026 H   0  0  0  0  0  0  0  0  0  0  0  0
    0.4735    0.6345   -2.6720 H   0  0  0  0  0  0  0  0  0  0  0  0
   -0.6644    2.7384   -2.6123 H   0  0  0  0  0  0  0  0  0  0  0  0
    0.3505    4.2246   -2.6901 H   0  0  0  0  0  0  0  0  0  0  0  0
   -0.7461    1.5799   -0.5204 H   0  0  0  0  0  0  0  0  0  0  0  0
    0.2669    2.2150    0.7903 H   0  0  0  0  0  0  0  0  0  0  0  0
    1.0861   -1.2735    0.1427 C   0  0  0  0  0  0  0  0  0  0  0  0
   -0.2220   -1.8928   -0.3313 C   0  0  0  0  0  0  0  0  0  0  0  0
   -0.8093   -2.8758    0.6606 C   0  0  0  0  0  0  0  0  0  0  0  0
   -1.1321   -2.2005    1.8501 O   0  0  0  0  0  0  0  0  0  0  0  0
   -1.6529   -3.0445    2.8450 C   0  0  0  0  0  0  0  0  0  0  0  0
   -1.9629   -2.2216    4.0739 C   0  0  0  0  0  0  0  0  0  0  0  0
    0.9405   -0.7319    1.0773 H   0  0  0  0  0  0  0  0  0  0  0  0
    1.8419   -2.0438    0.3152 H   0  0  0  0  0  0  0  0  0  0  0  0
   -0.0677   -2.4206   -1.2765 H   0  0  0  0  0  0  0  0  0  0  0  0
   -0.9603   -1.1097   -0.5227 H   0  0  0  0  0  0  0  0  0  0  0  0
   -0.0854   -3.6792    0.8703 H   0  0  0  0  0  0  0  0  0  0  0  0
   -1.7098   -3.3484    0.2414 H   0  0  0  0  0  0  0  0  0  0  0  0
   -2.5620   -3.5425    2.4764 H   0  0  0  0  0  0  0  0  0  0  0  0
   -0.9258   -3.8344    3.0846 H   0  0  0  0  0  0  0  0  0  0  0  0
   -2.6941   -1.4469    3.8406 H   0  0  0  0  0  0  0  0  0  0  0  0
   -2.3701   -2.8573    4.8618 H   0  0  0  0  0  0  0  0  0  0  0  0
   -1.0593   -1.7400    4.4493 H   0  0  0  0  0  0  0  0  0  0  0  0
  1  2  1  0
  1  6  1  0
  1  8  1  0
  2  3  1  0
  2  9  1  0
  2 10  1  0
  3  4  1  0
  4  5  1  0
  4 11  1  0
  4 12  1  0
  5  6  1  0
  6 13  1  0
  6 14  1  0
  7 15  1  0
 15 16  1  0
 15 21  1  0
 15 22  1  0
 16 17  1  0
 16 23  1  0
 16 24  1  0
 17 18  1  0
 17 25  1  0
 17 26  1  0
 18 19  1  0
 19 20  1  0
 19 27  1  0
 19 28  1  0
 20 29  1  0
 20 30  1  0
 20 31  1  0
M  RAD  1   1   2
M  END
>  <reaction>  (8) 
rmg_rxn_246

>  <mol_properties>  (8) 
{"0": {"label": "*3", "atom_type": "Cs"}, "1": {"label": "*4", "atom_type": "Cs"}, "6": {"label": "*2", "atom_type": "H0"}, "14": {"label": "*1", "atom_type": "Cs"}, "15": {"label": "*0", "atom_type": "Cs"}}

>  <type>  (8) 
unop_4

>  <geom_source>  (8) 
Heuristics

$$$$

     RDKit          3D

 31 30  0  0  0  0  0  0  0  0999 V2000
    0.1074    1.6417   -0.8358 C   0  0  0  0  0  3  0  0  0  0  0  0
    0.1074    1.6417   -2.3578 C   0  0  0  0  0  0  0  0  0  0  0  0
    0.1074    2.9681   -2.8499 O   0  0  0  0  0  0  0  0  0  0  0  0
   -0.9754    3.6924   -2.3506 C   0  0  0  0  0  0  0  0  0  0  0  0
   -0.9641    3.7987   -0.9596 O   0  0  0  0  0  0  0  0  0  0  0  0
   -1.0320    2.5249   -0.3477 C   0  0  0  0  0  0  0  0  0  0  0  0
   -0.0302    0.4213   -0.3775 H   0  0  0  0  0  0  0  0  0  0  0  0
    1.0567    2.0402   -0.4728 H   0  0  0  0  0  0  0  0  0  0  0  0
    0.9932    1.1562   -2.7652 H   0  0  0  0  0  0  0  0  0  0  0  0
   -0.7801    1.1104   -2.7345 H   0  0  0  0  0  0  0  0  0  0  0  0
   -1.9180    3.2143   -2.6748 H   0  0  0  0  0  0  0  0  0  0  0  0
   -0.9031    4.7005   -2.7526 H   0  0  0  0  0  0  0  0  0  0  0  0
   -1.9997    2.0558   -0.5830 H   0  0  0  0  0  0  0  0  0  0  0  0
   -0.9867    2.6909    0.7278 H   0  0  0  0  0  0  0  0  0  0  0  0
   -0.1675   -0.7975    0.0801 C   0  0  0  0  0  0  0  0  0  0  0  0
   -0.1694   -0.8143    1.6029 C   0  0  0  0  0  0  0  0  0  0  0  0
   -0.3336   -2.2041    2.1830 C   0  0  0  0  0  0  0  0  0  0  0  0
    0.7638   -2.9979    1.8081 O   0  0  0  0  0  0  0  0  0  0  0  0
    0.6787   -4.3204    2.2744 C   0  0  0  0  0  0  0  0  0  0  0  0
    1.9011   -5.0818    1.8167 C   0  0  0  0  0  0  0  0  0  0  0  0
    0.6497   -1.4030   -0.3116 H   0  0  0  0  0  0  0  0  0  0  0  0
   -1.1034   -1.2005   -0.3151 H   0  0  0  0  0  0  0  0  0  0  0  0
   -0.9835   -0.1921    1.9851 H   0  0  0  0  0  0  0  0  0  0  0  0
    0.7616   -0.3868    1.9841 H   0  0  0  0  0  0  0  0  0  0  0  0
   -1.2677   -2.6587    1.8165 H   0  0  0  0  0  0  0  0  0  0  0  0
   -0.4029   -2.1539    3.2796 H   0  0  0  0  0  0  0  0  0  0  0  0
    0.6102   -4.3274    3.3723 H   0  0  0  0  0  0  0  0  0  0  0  0
   -0.2362   -4.7950    1.8901 H   0  0  0  0  0  0  0  0  0  0  0  0
    2.8080   -4.6200    2.2086 H   0  0  0  0  0  0  0  0  0  0  0  0
    1.8573   -6.1138    2.1683 H   0  0  0  0  0  0  0  0  0  0  0  0
    1.9614   -5.0888    0.7278 H   0  0  0  0  0  0  0  0  0  0  0  0
  1  2  1  0
  1  6  1  0
  1  8  1  0
  2  3  1  0
  2  9  1  0
  2 10  1  0
  3  4  1  0
  4  5  1  0
  4 11  1  0
  4 12  1  0
  5  6  1  0
  6 13  1  0
  6 14  1  0
  7 15  1  0
 15 16  1  0
 15 21  1  0
 15 22  1  0
 16 17  1  0
 16 23  1  0
 16 24  1  0
 17 18  1  0
 17 25  1  0
 17 26  1  0
 18 19  1  0
 19 20  1  0
 19 27  1  0
 19 28  1  0
 20 29  1  0
 20 30  1  0
 20 31  1  0
M  RAD  1   1   2
M  END
>  <reaction>  (9) 
rmg_rxn_246

>  <mol_properties>  (9) 
{"0": {"label": "*3", "atom_type": "Cs"}, "1": {"label": "*4", "atom_type": "Cs"}, "6": {"label": "*2", "atom_type": "H0"}, "14": {"label": "*1", "atom_type": "Cs"}, "15": {"label": "*0", "atom_type": "Cs"}}

>  <type>  (9) 
unop_5

>  <geom_source>  (9) 
Heuristics

$$$$

     RDKit          3D

 31 30  0  0  0  0  0  0  0  0999 V2000
    1.0270    0.9444   -1.1535 C   0  0  0  0  0  3  0  0  0  0  0  0
    1.0270    0.9444   -2.6755 C   0  0  0  0  0  0  0  0  0  0  0  0
    1.0270    2.2707   -3.1676 O   0  0  0  0  0  0  0  0  0  0  0  0
   -0.0558    2.9951   -2.6683 C   0  0  0  0  0  0  0  0  0  0  0  0
   -0.0445    3.1013   -1.2773 O   0  0  0  0  0  0  0  0  0  0  0  0
   -0.1124    1.8276   -0.6654 C   0  0  0  0  0  0  0  0  0  0  0  0
    0.8894   -0.2760   -0.6952 H   0  0  0  0  0  0  0  0  0  0  0  0
    1.9763    1.3429   -0.7905 H   0  0  0  0  0  0  0  0  0  0  0  0
    1.9128    0.4589   -3.0829 H   0  0  0  0  0  0  0  0  0  0  0  0
    0.1395    0.4131   -3.0522 H   0  0  0  0  0  0  0  0  0  0  0  0
   -0.9984    2.5170   -2.9925 H   0  0  0  0  0  0  0  0  0  0  0  0
    0.0165    4.0032   -3.0703 H   0  0  0  0  0  0  0  0  0  0  0  0
   -1.0801    1.3585   -0.9007 H   0  0  0  0  0  0  0  0  0  0  0  0
   -0.0671    1.9936    0.4101 H   0  0  0  0  0  0  0  0  0  0  0  0
    0.7521   -1.4949   -0.2376 C   0  0  0  0  0  0  0  0  0  0  0  0
   -0.7174   -1.8460   -0.0459 C   0  0  0  0  0  0  0  0  0  0  0  0
   -0.9764   -2.6628    1.2034 C   0  0  0  0  0  0  0  0  0  0  0  0
   -0.6288   -1.9057    2.3352 O   0  0  0  0  0  0  0  0  0  0  0  0
   -0.8037   -2.6000    3.5439 C   0  0  0  0  0  0  0  0  0  0  0  0
   -0.4021   -1.7000    4.6895 C   0  0  0  0  0  0  0  0  0  0  0  0
    1.1226   -0.9112    0.6051 H   0  0  0  0  0  0  0  0  0  0  0  0
    1.3618   -2.3986   -0.3142 H   0  0  0  0  0  0  0  0  0  0  0  0
   -1.0824   -2.4182   -0.9034 H   0  0  0  0  0  0  0  0  0  0  0  0
   -1.3176   -0.9340    0.0049 H   0  0  0  0  0  0  0  0  0  0  0  0
   -0.3844   -3.5914    1.1774 H   0  0  0  0  0  0  0  0  0  0  0  0
   -2.0362   -2.9522    1.2568 H   0  0  0  0  0  0  0  0  0  0  0  0
   -1.8536   -2.9112    3.6493 H   0  0  0  0  0  0  0  0  0  0  0  0
   -0.1935   -3.5153    3.5419 H   0  0  0  0  0  0  0  0  0  0  0  0
   -1.0158   -0.7986    4.7005 H   0  0  0  0  0  0  0  0  0  0  0  0
   -0.5303   -2.2188    5.6408 H   0  0  0  0  0  0  0  0  0  0  0  0
    0.6431   -1.4035    4.5943 H   0  0  0  0  0  0  0  0  0  0  0  0
  1  2  1  0
  1  6  1  0
  1  8  1  0
  2  3  1  0
  2  9  1  0
  2 10  1  0
  3  4  1  0
  4  5  1  0
  4 11  1  0
  4 12  1  0
  5  6  1  0
  6 13  1  0
  6 14  1  0
  7 15  1  0
 15 16  1  0
 15 21  1  0
 15 22  1  0
 16 17  1  0
 16 23  1  0
 16 24  1  0
 17 18  1  0
 17 25  1  0
 17 26  1  0
 18 19  1  0
 19 20  1  0
 19 27  1  0
 19 28  1  0
 20 29  1  0
 20 30  1  0
 20 31  1  0
M  RAD  1   1   2
M  END
>  <reaction>  (10) 
rmg_rxn_246

>  <mol_properties>  (10) 
{"0": {"label": "*3", "atom_type": "Cs"}, "1": {"label": "*4", "atom_type": "Cs"}, "6": {"label": "*2", "atom_type": "H0"}, "14": {"label": "*1", "atom_type": "Cs"}, "15": {"label": "*0", "atom_type": "Cs"}}

>  <type>  (10) 
unop_6

>  <geom_source>  (10) 
Heuristics

$$$$

     RDKit          3D

 31 30  0  0  0  0  0  0  0  0999 V2000
    0.4926    0.9388   -1.3102 C   0  0  0  0  0  3  0  0  0  0  0  0
    0.4926    0.9388   -2.8323 C   0  0  0  0  0  0  0  0  0  0  0  0
    0.4926    2.2652   -3.3244 O   0  0  0  0  0  0  0  0  0  0  0  0
   -0.5902    2.9895   -2.8250 C   0  0  0  0  0  0  0  0  0  0  0  0
   -0.5789    3.0958   -1.4340 O   0  0  0  0  0  0  0  0  0  0  0  0
   -0.6468    1.8220   -0.8221 C   0  0  0  0  0  0  0  0  0  0  0  0
    0.3551   -0.2816   -0.8520 H   0  0  0  0  0  0  0  0  0  0  0  0
    1.4420    1.3373   -0.9472 H   0  0  0  0  0  0  0  0  0  0  0  0
    1.3784    0.4533   -3.2396 H   0  0  0  0  0  0  0  0  0  0  0  0
   -0.3949    0.4075   -3.2090 H   0  0  0  0  0  0  0  0  0  0  0  0
   -1.5327    2.5114   -3.1493 H   0  0  0  0  0  0  0  0  0  0  0  0
   -0.5179    3.9976   -3.2270 H   0  0  0  0  0  0  0  0  0  0  0  0
   -1.6144    1.3529   -1.0574 H   0  0  0  0  0  0  0  0  0  0  0  0
   -0.6015    1.9880    0.2533 H   0  0  0  0  0  0  0  0  0  0  0  0
    0.2177   -1.5004   -0.3943 C   0  0  0  0  0  0  0  0  0  0  0  0
   -1.0348   -1.6261    0.4629 C   0  0  0  0  0  0  0  0  0  0  0  0
   -0.8345   -2.4980    1.6856 C   0  0  0  0  0  0  0  0  0  0  0  0
    0.1275   -1.9099    2.5244 O   0  0  0  0  0  0  0  0  0  0  0  0
    0.4047   -2.6713    3.6721 C   0  0  0  0  0  0  0  0  0  0  0  0
    1.4462   -1.9526    4.4982 C   0  0  0  0  0  0  0  0  0  0  0  0
    1.0347   -1.0610    0.1779 H   0  0  0  0  0  0  0  0  0  0  0  0
    0.5460   -2.4801   -0.7504 H   0  0  0  0  0  0  0  0  0  0  0  0
   -1.8517   -2.0539   -0.1249 H   0  0  0  0  0  0  0  0  0  0  0  0
   -1.3652   -0.6375    0.7918 H   0  0  0  0  0  0  0  0  0  0  0  0
   -0.5029   -3.5037    1.3824 H   0  0  0  0  0  0  0  0  0  0  0  0
   -1.7835   -2.6166    2.2288 H   0  0  0  0  0  0  0  0  0  0  0  0
   -0.5158   -2.8175    4.2566 H   0  0  0  0  0  0  0  0  0  0  0  0
    0.7656   -3.6690    3.3817 H   0  0  0  0  0  0  0  0  0  0  0  0
    1.0838   -0.9688    4.7982 H   0  0  0  0  0  0  0  0  0  0  0  0
    1.6775   -2.5263    5.3971 H   0  0  0  0  0  0  0  0  0  0  0  0
    2.3645   -1.8210    3.9249 H   0  0  0  0  0  0  0  0  0  0  0  0
  1  2  1  0
  1  6  1  0
  1  8  1  0
  2  3  1  0
  2  9  1  0
  2 10  1  0
  3  4  1  0
  4  5  1  0
  4 11  1  0
  4 12  1  0
  5  6  1  0
  6 13  1  0
  6 14  1  0
  7 15  1  0
 15 16  1  0
 15 21  1  0
 15 22  1  0
 16 17  1  0
 16 23  1  0
 16 24  1  0
 17 18  1  0
 17 25  1  0
 17 26  1  0
 18 19  1  0
 19 20  1  0
 19 27  1  0
 19 28  1  0
 20 29  1  0
 20 30  1  0
 20 31  1  0
M  RAD  1   1   2
M  END
>  <reaction>  (11) 
rmg_rxn_246

>  <mol_properties>  (11) 
{"0": {"label": "*3", "atom_type": "Cs"}, "1": {"label": "*4", "atom_type": "Cs"}, "6": {"label": "*2", "atom_type": "H0"}, "14": {"label": "*1", "atom_type": "Cs"}, "15": {"label": "*0", "atom_type": "Cs"}}

>  <type>  (11) 
unop_7

>  <geom_source>  (11) 
Heuristics

$$$$

     RDKit          3D

 31 30  0  0  0  0  0  0  0  0999 V2000
    0.1520    1.7358   -0.7205 C   0  0  0  0  0  3  0  0  0  0  0  0
    0.1520    1.7358   -2.2426 C   0  0  0  0  0  0  0  0  0  0  0  0
    0.1520    3.0622   -2.7347 O   0  0  0  0  0  0  0  0  0  0  0  0
   -0.9308    3.7865   -2.2354 C   0  0  0  0  0  0  0  0  0  0  0  0
   -0.9195    3.8928   -0.8443 O   0  0  0  0  0  0  0  0  0  0  0  0
   -0.9874    2.6191   -0.2324 C   0  0  0  0  0  0  0  0  0  0  0  0
    0.0145    0.5154   -0.2623 H   0  0  0  0  0  0  0  0  0  0  0  0
    1.1014    2.1343   -0.3575 H   0  0  0  0  0  0  0  0  0  0  0  0
    1.0378    1.2503   -2.6499 H   0  0  0  0  0  0  0  0  0  0  0  0
   -0.7355    1.2046   -2.6193 H   0  0  0  0  0  0  0  0  0  0  0  0
   -1.8734    3.3084   -2.5596 H   0  0  0  0  0  0  0  0  0  0  0  0
   -0.8585    4.7946   -2.6373 H   0  0  0  0  0  0  0  0  0  0  0  0
   -1.9551    2.1499   -0.4677 H   0  0  0  0  0  0  0  0  0  0  0  0
   -0.9421    2.7851    0.8430 H   0  0  0  0  0  0  0  0  0  0  0  0
   -0.1229   -0.7034    0.1954 C   0  0  0  0  0  0  0  0  0  0  0  0
    1.2315   -1.3729    0.3870 C   0  0  0  0  0  0  0  0  0  0  0  0
    1.3070   -2.2150    1.6442 C   0  0  0  0  0  0  0  0  0  0  0  0
    0.3844   -3.2712    1.5533 O   0  0  0  0  0  0  0  0  0  0  0  0
    0.3598   -4.0879    2.6961 C   0  0  0  0  0  0  0  0  0  0  0  0
   -0.6605   -5.1842    2.4940 C   0  0  0  0  0  0  0  0  0  0  0  0
   -0.9155   -1.4485    0.1258 H   0  0  0  0  0  0  0  0  0  0  0  0
   -0.3543   -0.0445    1.0360 H   0  0  0  0  0  0  0  0  0  0  0  0
    2.0204   -0.6175    0.4405 H   0  0  0  0  0  0  0  0  0  0  0  0
    1.4602   -2.0095   -0.4716 H   0  0  0  0  0  0  0  0  0  0  0  0
    1.0826   -1.5963    2.5275 H   0  0  0  0  0  0  0  0  0  0  0  0
    2.3233   -2.6148    1.7747 H   0  0  0  0  0  0  0  0  0  0  0  0
    1.3570   -4.5183    2.8712 H   0  0  0  0  0  0  0  0  0  0  0  0
    0.1071   -3.4860    3.5814 H   0  0  0  0  0  0  0  0  0  0  0  0
   -0.4032   -5.7900    1.6245 H   0  0  0  0  0  0  0  0  0  0  0  0
   -0.6969   -5.8330    3.3706 H   0  0  0  0  0  0  0  0  0  0  0  0
   -1.6522   -4.7589    2.3358 H   0  0  0  0  0  0  0  0  0  0  0  0
  1  2  1  0
  1  6  1  0
  1  8  1  0
  2  3  1  0
  2  9  1  0
  2 10  1  0
  3  4  1  0
  4  5  1  0
  4 11  1  0
  4 12  1  0
  5  6  1  0
  6 13  1  0
  6 14  1  0
  7 15  1  0
 15 16  1  0
 15 21  1  0
 15 22  1  0
 16 17  1  0
 16 23  1  0
 16 24  1  0
 17 18  1  0
 17 25  1  0
 17 26  1  0
 18 19  1  0
 19 20  1  0
 19 27  1  0
 19 28  1  0
 20 29  1  0
 20 30  1  0
 20 31  1  0
M  RAD  1   1   2
M  END
>  <reaction>  (12) 
rmg_rxn_246

>  <mol_properties>  (12) 
{"0": {"label": "*3", "atom_type": "Cs"}, "1": {"label": "*4", "atom_type": "Cs"}, "6": {"label": "*2", "atom_type": "H0"}, "14": {"label": "*1", "atom_type": "Cs"}, "15": {"label": "*0", "atom_type": "Cs"}}

>  <type>  (12) 
unop_8

>  <geom_source>  (12) 
Heuristics

$$$$

     RDKit          3D

 31 30  0  0  0  0  0  0  0  0999 V2000
    1.3435    1.5126   -0.3415 C   0  0  0  0  0  3  0  0  0  0  0  0
    1.3435    1.5126   -1.8635 C   0  0  0  0  0  0  0  0  0  0  0  0
    1.3435    2.8390   -2.3557 O   0  0  0  0  0  0  0  0  0  0  0  0
    0.2607    3.5633   -1.8563 C   0  0  0  0  0  0  0  0  0  0  0  0
    0.2720    3.6696   -0.4653 O   0  0  0  0  0  0  0  0  0  0  0  0
    0.2041    2.3959    0.1466 C   0  0  0  0  0  0  0  0  0  0  0  0
    1.2059    0.2922    0.1167 H   0  0  0  0  0  0  0  0  0  0  0  0
    2.2928    1.9111    0.0215 H   0  0  0  0  0  0  0  0  0  0  0  0
    2.2292    1.0271   -2.2709 H   0  0  0  0  0  0  0  0  0  0  0  0
    0.4560    0.9814   -2.2403 H   0  0  0  0  0  0  0  0  0  0  0  0
   -0.6819    3.0852   -2.1805 H   0  0  0  0  0  0  0  0  0  0  0  0
    0.3330    4.5714   -2.2583 H   0  0  0  0  0  0  0  0  0  0  0  0
   -0.7636    1.9267   -0.0887 H   0  0  0  0  0  0  0  0  0  0  0  0
    0.2494    2.5619    1.2221 H   0  0  0  0  0  0  0  0  0  0  0  0
    1.0685   -0.9266    0.5744 C   0  0  0  0  0  0  0  0  0  0  0  0
    0.2569   -1.7848   -0.3868 C   0  0  0  0  0  0  0  0  0  0  0  0
   -0.2942   -3.0409    0.2565 C   0  0  0  0  0  0  0  0  0  0  0  0
   -1.1907   -2.6857    1.2788 O   0  0  0  0  0  0  0  0  0  0  0  0
   -1.7268   -3.7926    1.9577 C   0  0  0  0  0  0  0  0  0  0  0  0
   -2.6710   -3.3005    3.0300 C   0  0  0  0  0  0  0  0  0  0  0  0
    0.4567   -0.6082    1.4184 H   0  0  0  0  0  0  0  0  0  0  0  0
    1.9214   -1.4842    0.9694 H   0  0  0  0  0  0  0  0  0  0  0  0
    0.8757   -2.0860   -1.2366 H   0  0  0  0  0  0  0  0  0  0  0  0
   -0.5780   -1.2073   -0.7920 H   0  0  0  0  0  0  0  0  0  0  0  0
    0.5281   -3.6446    0.6721 H   0  0  0  0  0  0  0  0  0  0  0  0
   -0.8073   -3.6600   -0.4940 H   0  0  0  0  0  0  0  0  0  0  0  0
   -2.2567   -4.4466    1.2494 H   0  0  0  0  0  0  0  0  0  0  0  0
   -0.9159   -4.3877    2.4030 H   0  0  0  0  0  0  0  0  0  0  0  0
   -3.4830   -2.7220    2.5881 H   0  0  0  0  0  0  0  0  0  0  0  0
   -3.1010   -4.1446    3.5715 H   0  0  0  0  0  0  0  0  0  0  0  0
   -2.1432   -2.6646    3.7416 H   0  0  0  0  0  0  0  0  0  0  0  0
  1  2  1  0
  1  6  1  0
  1  8  1  0
  2  3  1  0
  2  9  1  0
  2 10  1  0
  3  4  1  0
  4  5  1  0
  4 11  1  0
  4 12  1  0
  5  6  1  0
  6 13  1  0
  6 14  1  0
  7 15  1  0
 15 16  1  0
 15 21  1  0
 15 22  1  0
 16 17  1  0
 16 23  1  0
 16 24  1  0
 17 18  1  0
 17 25  1  0
 17 26  1  0
 18 19  1  0
 19 20  1  0
 19 27  1  0
 19 28  1  0
 20 29  1  0
 20 30  1  0
 20 31  1  0
M  RAD  1   1   2
M  END
>  <reaction>  (13) 
rmg_rxn_246

>  <mol_properties>  (13) 
{"0": {"label": "*3", "atom_type": "Cs"}, "1": {"label": "*4", "atom_type": "Cs"}, "6": {"label": "*2", "atom_type": "H0"}, "14": {"label": "*1", "atom_type": "Cs"}, "15": {"label": "*0", "atom_type": "Cs"}}

>  <type>  (13) 
unop_9

>  <geom_source>  (13) 
Heuristics

$$$$

     RDKit          3D

 31 30  0  0  0  0  0  0  0  0999 V2000
    0.1623    1.8758   -0.4140 C   0  0  0  0  0  3  0  0  0  0  0  0
    0.1623    1.8758   -1.9360 C   0  0  0  0  0  0  0  0  0  0  0  0
    0.1623    3.2022   -2.4281 O   0  0  0  0  0  0  0  0  0  0  0  0
   -0.9205    3.9265   -1.9288 C   0  0  0  0  0  0  0  0  0  0  0  0
   -0.9092    4.0328   -0.5377 O   0  0  0  0  0  0  0  0  0  0  0  0
   -0.9771    2.7590    0.0741 C   0  0  0  0  0  0  0  0  0  0  0  0
    0.0248    0.6554    0.0443 H   0  0  0  0  0  0  0  0  0  0  0  0
    1.1117    2.2743   -0.0510 H   0  0  0  0  0  0  0  0  0  0  0  0
    1.0481    1.3903   -2.3433 H   0  0  0  0  0  0  0  0  0  0  0  0
   -0.7252    1.3445   -2.3127 H   0  0  0  0  0  0  0  0  0  0  0  0
   -1.8630    3.4484   -2.2530 H   0  0  0  0  0  0  0  0  0  0  0  0
   -0.8482    4.9346   -2.3308 H   0  0  0  0  0  0  0  0  0  0  0  0
   -1.9447    2.2899   -0.1612 H   0  0  0  0  0  0  0  0  0  0  0  0
   -0.9318    2.9250    1.1496 H   0  0  0  0  0  0  0  0  0  0  0  0
   -0.1126   -0.5634    0.5019 C   0  0  0  0  0  0  0  0  0  0  0  0
    1.0248   -1.4584    0.0280 C   0  0  0  0  0  0  0  0  0  0  0  0
    1.3885   -2.5383    1.0263 C   0  0  0  0  0  0  0  0  0  0  0  0
    0.2917   -3.3993    1.2012 O   0  0  0  0  0  0  0  0  0  0  0  0
    0.5273   -4.4162    2.1414 C   0  0  0  0  0  0  0  0  0  0  0  0
   -0.7087   -5.2785    2.2520 C   0  0  0  0  0  0  0  0  0  0  0  0
   -1.0154   -1.1479    0.6796 H   0  0  0  0  0  0  0  0  0  0  0  0
    0.1508   -0.0602    1.4356 H   0  0  0  0  0  0  0  0  0  0  0  0
    1.9204   -0.8601   -0.1613 H   0  0  0  0  0  0  0  0  0  0  0  0
    0.7572   -1.9361   -0.9181 H   0  0  0  0  0  0  0  0  0  0  0  0
    1.6655   -2.0837    1.9907 H   0  0  0  0  0  0  0  0  0  0  0  0
    2.2598   -3.1080    0.6712 H   0  0  0  0  0  0  0  0  0  0  0  0
    1.3918   -5.0215    1.8307 H   0  0  0  0  0  0  0  0  0  0  0  0
    0.7761   -3.9738    3.1173 H   0  0  0  0  0  0  0  0  0  0  0  0
   -0.9482   -5.7286    1.2880 H   0  0  0  0  0  0  0  0  0  0  0  0
   -0.5487   -6.0773    2.9779 H   0  0  0  0  0  0  0  0  0  0  0  0
   -1.5629   -4.6824    2.5751 H   0  0  0  0  0  0  0  0  0  0  0  0
  1  2  1  0
  1  6  1  0
  1  8  1  0
  2  3  1  0
  2  9  1  0
  2 10  1  0
  3  4  1  0
  4  5  1  0
  4 11  1  0
  4 12  1  0
  5  6  1  0
  6 13  1  0
  6 14  1  0
  7 15  1  0
 15 16  1  0
 15 21  1  0
 15 22  1  0
 16 17  1  0
 16 23  1  0
 16 24  1  0
 17 18  1  0
 17 25  1  0
 17 26  1  0
 18 19  1  0
 19 20  1  0
 19 27  1  0
 19 28  1  0
 20 29  1  0
 20 30  1  0
 20 31  1  0
M  RAD  1   1   2
M  END
>  <reaction>  (14) 
rmg_rxn_246

>  <mol_properties>  (14) 
{"0": {"label": "*3", "atom_type": "Cs"}, "1": {"label": "*4", "atom_type": "Cs"}, "6": {"label": "*2", "atom_type": "H0"}, "14": {"label": "*1", "atom_type": "Cs"}, "15": {"label": "*0", "atom_type": "Cs"}}

>  <type>  (14) 
unop_10

>  <geom_source>  (14) 
Heuristics

$$$$

     RDKit          3D

 31 30  0  0  0  0  0  0  0  0999 V2000
    0.0335    1.2146   -1.1540 C   0  0  0  0  0  3  0  0  0  0  0  0
    0.0335    1.2146   -2.6761 C   0  0  0  0  0  0  0  0  0  0  0  0
    0.0335    2.5410   -3.1682 O   0  0  0  0  0  0  0  0  0  0  0  0
   -1.0493    3.2653   -2.6688 C   0  0  0  0  0  0  0  0  0  0  0  0
   -1.0380    3.3716   -1.2778 O   0  0  0  0  0  0  0  0  0  0  0  0
   -1.1059    2.0978   -0.6659 C   0  0  0  0  0  0  0  0  0  0  0  0
   -0.1041   -0.0058   -0.6958 H   0  0  0  0  0  0  0  0  0  0  0  0
    0.9828    1.6131   -0.7910 H   0  0  0  0  0  0  0  0  0  0  0  0
    0.9193    0.7291   -3.0834 H   0  0  0  0  0  0  0  0  0  0  0  0
   -0.8540    0.6833   -3.0528 H   0  0  0  0  0  0  0  0  0  0  0  0
   -1.9919    2.7872   -2.9930 H   0  0  0  0  0  0  0  0  0  0  0  0
   -0.9770    4.2734   -3.0708 H   0  0  0  0  0  0  0  0  0  0  0  0
   -2.0736    1.6287   -0.9012 H   0  0  0  0  0  0  0  0  0  0  0  0
   -1.0606    2.2638    0.4095 H   0  0  0  0  0  0  0  0  0  0  0  0
   -0.2415   -1.2246   -0.2381 C   0  0  0  0  0  0  0  0  0  0  0  0
   -0.9567   -1.2279    1.1064 C   0  0  0  0  0  0  0  0  0  0  0  0
   -0.5676   -2.3991    1.9851 C   0  0  0  0  0  0  0  0  0  0  0  0
    0.8001   -2.3132    2.2966 O   0  0  0  0  0  0  0  0  0  0  0  0
    1.2596   -3.3828    3.0831 C   0  0  0  0  0  0  0  0  0  0  0  0
    2.7335   -3.1930    3.3571 C   0  0  0  0  0  0  0  0  0  0  0  0
    0.8386   -1.1726   -0.1007 H   0  0  0  0  0  0  0  0  0  0  0  0
   -0.4650   -2.1346   -0.8006 H   0  0  0  0  0  0  0  0  0  0  0  0
   -2.0393   -1.2652    0.9565 H   0  0  0  0  0  0  0  0  0  0  0  0
   -0.7436   -0.3022    1.6471 H   0  0  0  0  0  0  0  0  0  0  0  0
   -0.7746   -3.3474    1.4645 H   0  0  0  0  0  0  0  0  0  0  0  0
   -1.1636   -2.3967    2.9095 H   0  0  0  0  0  0  0  0  0  0  0  0
    0.6954   -3.4240    4.0267 H   0  0  0  0  0  0  0  0  0  0  0  0
    1.0851   -4.3346    2.5600 H   0  0  0  0  0  0  0  0  0  0  0  0
    2.9059   -2.2561    3.8880 H   0  0  0  0  0  0  0  0  0  0  0  0
    3.1131   -4.0132    3.9683 H   0  0  0  0  0  0  0  0  0  0  0  0
    3.2956   -3.1676    2.4229 H   0  0  0  0  0  0  0  0  0  0  0  0
  1  2  1  0
  1  6  1  0
  1  8  1  0
  2  3  1  0
  2  9  1  0
  2 10  1  0
  3  4  1  0
  4  5  1  0
  4 11  1  0
  4 12  1  0
  5  6  1  0
  6 13  1  0
  6 14  1  0
  7 15  1  0
 15 16  1  0
 15 21  1  0
 15 22  1  0
 16 17  1  0
 16 23  1  0
 16 24  1  0
 17 18  1  0
 17 25  1  0
 17 26  1  0
 18 19  1  0
 19 20  1  0
 19 27  1  0
 19 28  1  0
 20 29  1  0
 20 30  1  0
 20 31  1  0
M  RAD  1   1   2
M  END
>  <reaction>  (15) 
rmg_rxn_246

>  <mol_properties>  (15) 
{"0": {"label": "*3", "atom_type": "Cs"}, "1": {"label": "*4", "atom_type": "Cs"}, "6": {"label": "*2", "atom_type": "H0"}, "14": {"label": "*1", "atom_type": "Cs"}, "15": {"label": "*0", "atom_type": "Cs"}}

>  <type>  (15) 
unop_11

>  <geom_source>  (15) 
Heuristics

$$$$

     RDKit          3D

 31 30  0  0  0  0  0  0  0  0999 V2000
    0.9691    1.8288   -0.0789 C   0  0  0  0  0  3  0  0  0  0  0  0
    0.9691    1.8288   -1.6010 C   0  0  0  0  0  0  0  0  0  0  0  0
    0.9691    3.1551   -2.0931 O   0  0  0  0  0  0  0  0  0  0  0  0
   -0.1137    3.8795   -1.5937 C   0  0  0  0  0  0  0  0  0  0  0  0
   -0.1025    3.9857   -0.2027 O   0  0  0  0  0  0  0  0  0  0  0  0
   -0.1703    2.7120    0.4092 C   0  0  0  0  0  0  0  0  0  0  0  0
    0.8315    0.6084    0.3793 H   0  0  0  0  0  0  0  0  0  0  0  0
    1.9184    2.2273    0.2841 H   0  0  0  0  0  0  0  0  0  0  0  0
    1.8548    1.3432   -2.0083 H   0  0  0  0  0  0  0  0  0  0  0  0
    0.0815    1.2975   -1.9777 H   0  0  0  0  0  0  0  0  0  0  0  0
   -1.0563    3.4014   -1.9180 H   0  0  0  0  0  0  0  0  0  0  0  0
   -0.0415    4.8876   -1.9957 H   0  0  0  0  0  0  0  0  0  0  0  0
   -1.1380    2.2429    0.1739 H   0  0  0  0  0  0  0  0  0  0  0  0
   -0.1251    2.8780    1.4846 H   0  0  0  0  0  0  0  0  0  0  0  0
    0.6941   -0.6105    0.8370 C   0  0  0  0  0  0  0  0  0  0  0  0
    0.5810   -1.6144   -0.3026 C   0  0  0  0  0  0  0  0  0  0  0  0
    0.4274   -3.0436    0.1759 C   0  0  0  0  0  0  0  0  0  0  0  0
   -0.7734   -3.1673    0.8954 O   0  0  0  0  0  0  0  0  0  0  0  0
   -0.9829   -4.4576    1.4102 C   0  0  0  0  0  0  0  0  0  0  0  0
   -2.2936   -4.4794    2.1620 C   0  0  0  0  0  0  0  0  0  0  0  0
   -0.1948   -0.6399    1.4672 H   0  0  0  0  0  0  0  0  0  0  0  0
    1.5596   -0.8316    1.4666 H   0  0  0  0  0  0  0  0  0  0  0  0
    1.4707   -1.5658   -0.9365 H   0  0  0  0  0  0  0  0  0  0  0  0
   -0.2740   -1.3670   -0.9371 H   0  0  0  0  0  0  0  0  0  0  0  0
    1.2789   -3.3210    0.8173 H   0  0  0  0  0  0  0  0  0  0  0  0
    0.4245   -3.7341   -0.6803 H   0  0  0  0  0  0  0  0  0  0  0  0
   -0.9978   -5.1908    0.5901 H   0  0  0  0  0  0  0  0  0  0  0  0
   -0.1527   -4.7344    2.0766 H   0  0  0  0  0  0  0  0  0  0  0  0
   -3.1189   -4.2185    1.4987 H   0  0  0  0  0  0  0  0  0  0  0  0
   -2.4782   -5.4738    2.5712 H   0  0  0  0  0  0  0  0  0  0  0  0
   -2.2740   -3.7639    2.9848 H   0  0  0  0  0  0  0  0  0  0  0  0
  1  2  1  0
  1  6  1  0
  1  8  1  0
  2  3  1  0
  2  9  1  0
  2 10  1  0
  3  4  1  0
  4  5  1  0
  4 11  1  0
  4 12  1  0
  5  6  1  0
  6 13  1  0
  6 14  1  0
  7 15  1  0
 15 16  1  0
 15 21  1  0
 15 22  1  0
 16 17  1  0
 16 23  1  0
 16 24  1  0
 17 18  1  0
 17 25  1  0
 17 26  1  0
 18 19  1  0
 19 20  1  0
 19 27  1  0
 19 28  1  0
 20 29  1  0
 20 30  1  0
 20 31  1  0
M  RAD  1   1   2
M  END
>  <reaction>  (16) 
rmg_rxn_246

>  <mol_properties>  (16) 
{"0": {"label": "*3", "atom_type": "Cs"}, "1": {"label": "*4", "atom_type": "Cs"}, "6": {"label": "*2", "atom_type": "H0"}, "14": {"label": "*1", "atom_type": "Cs"}, "15": {"label": "*0", "atom_type": "Cs"}}

>  <type>  (16) 
unop_12

>  <geom_source>  (16) 
Heuristics

$$$$

     RDKit          3D

 31 30  0  0  0  0  0  0  0  0999 V2000
   -3.3039    0.0290   -0.6177 O   0  0  0  0  0  0  0  0  0  0  0  0
    4.0558   -0.4974    0.4731 O   0  0  0  0  0  0  0  0  0  0  0  0
    3.1017    1.6208    1.0697 O   0  0  0  0  0  0  0  0  0  0  0  0
   -0.9306    0.0584   -0.9368 C   0  0  0  0  0  0  0  0  0  0  0  0
   -2.1281   -0.7226   -0.3983 C   0  0  0  0  0  0  0  0  0  0  0  0
   -4.4179   -0.6032   -0.0156 C   0  0  0  0  0  0  0  0  0  0  0  0
    2.8414   -0.6365   -0.2314 C   0  0  0  0  0  0  0  0  0  0  0  0
    3.1559    1.8289   -0.3244 C   0  0  0  0  0  0  0  0  0  0  0  0
    0.3718   -0.7090   -0.7341 C   0  0  0  0  0  0  0  0  0  0  0  0
   -4.7017    0.0148    1.3489 C   0  0  0  0  0  0  0  0  0  0  0  0
    3.9519    0.5404    1.4438 C   0  0  0  0  0  0  0  0  0  0  0  0
    2.5683    0.6221   -1.0515 C   0  0  0  0  0  3  0  0  0  0  0  0
   -0.8598    1.0359   -0.4127 H   0  0  0  0  0  0  0  0  0  0  0  0
   -1.0712    0.2516   -2.0223 H   0  0  0  0  0  0  0  0  0  0  0  0
   -2.1922   -1.6958   -0.9367 H   0  0  0  0  0  0  0  0  0  0  0  0
   -1.9721   -0.9089    0.6893 H   0  0  0  0  0  0  0  0  0  0  0  0
   -5.3023   -0.4294   -0.6643 H   0  0  0  0  0  0  0  0  0  0  0  0
   -4.3107   -1.7099    0.0823 H   0  0  0  0  0  0  0  0  0  0  0  0
    0.5488   -0.8915    0.3473 H   0  0  0  0  0  0  0  0  0  0  0  0
    0.3353   -1.6812   -1.2703 H   0  0  0  0  0  0  0  0  0  0  0  0
    1.3608   -0.0096   -1.2059 H   0  0  0  0  0  0  0  0  0  0  0  0
   -5.6214   -0.4348    1.7791 H   0  0  0  0  0  0  0  0  0  0  0  0
   -3.8554   -0.1733    2.0420 H   0  0  0  0  0  0  0  0  0  0  0  0
   -4.8515    1.1105    1.2461 H   0  0  0  0  0  0  0  0  0  0  0  0
    2.9123   -1.5121   -0.9104 H   0  0  0  0  0  0  0  0  0  0  0  0
    1.9967   -0.8241    0.4697 H   0  0  0  0  0  0  0  0  0  0  0  0
    2.5547    2.7253   -0.5808 H   0  0  0  0  0  0  0  0  0  0  0  0
    4.2040    2.0174   -0.6538 H   0  0  0  0  0  0  0  0  0  0  0  0
    4.9687    0.9379    1.6475 H   0  0  0  0  0  0  0  0  0  0  0  0
    3.5752    0.1063    2.3941 H   0  0  0  0  0  0  0  0  0  0  0  0
    3.0153    0.5402   -2.0660 H   0  0  0  0  0  0  0  0  0  0  0  0
  1  6  1  0
  1  5  1  0
  2  7  1  0
  2 11  1  0
  3  8  1  0
  3 11  1  0
  4  9  1  0
  4  5  1  0
  4 13  1  0
  4 14  1  0
  5 15  1  0
  5 16  1  0
  6 10  1  0
  6 17  1  0
  6 18  1  0
  7 12  1  0
  7 25  1  0
  7 26  1  0
  8 12  1  0
  8 27  1  0
  8 28  1  0
  9 19  1  0
  9 20  1  0
  9 21  1  0
 10 22  1  0
 10 23  1  0
 10 24  1  0
 11 29  1  0
 11 30  1  0
 12 31  1  0
M  RAD  1  12   2
M  END
>  <reaction>  (17) 
rmg_rxn_246

>  <mol_properties>  (17) 
{"0": {"label": "*3", "atom_type": "Cs"}, "1": {"label": "*4", "atom_type": "Cs"}, "6": {"label": "*2", "atom_type": "H0"}, "14": {"label": "*1", "atom_type": "Cs"}, "15": {"label": "*0", "atom_type": "Cs"}}

>  <type>  (17) 
unop_13

>  <geom_source>  (17) 
AutoTST

$$$$

     RDKit          3D

 31 30  0  0  0  0  0  0  0  0999 V2000
    0.4711    1.9501   -0.1296 C   0  0  0  0  0  3  0  0  0  0  0  0
    0.4711    1.9501   -1.6517 C   0  0  0  0  0  0  0  0  0  0  0  0
    0.4711    3.2764   -2.1437 O   0  0  0  0  0  0  0  0  0  0  0  0
   -0.6117    4.0008   -1.6444 C   0  0  0  0  0  0  0  0  0  0  0  0
   -0.6004    4.1070   -0.2534 O   0  0  0  0  0  0  0  0  0  0  0  0
   -0.6683    2.8333    0.3585 C   0  0  0  0  0  0  0  0  0  0  0  0
    0.3335    0.7297    0.3286 H   0  0  0  0  0  0  0  0  0  0  0  0
    1.4204    2.3486    0.2334 H   0  0  0  0  0  0  0  0  0  0  0  0
    1.3568    1.4645   -2.0590 H   0  0  0  0  0  0  0  0  0  0  0  0
   -0.4164    1.4188   -2.0284 H   0  0  0  0  0  0  0  0  0  0  0  0
   -1.5543    3.5227   -1.9686 H   0  0  0  0  0  0  0  0  0  0  0  0
   -0.5394    5.0089   -2.0464 H   0  0  0  0  0  0  0  0  0  0  0  0
   -1.6360    2.3642    0.1232 H   0  0  0  0  0  0  0  0  0  0  0  0
   -0.6231    2.9993    1.4340 H   0  0  0  0  0  0  0  0  0  0  0  0
    0.1961   -0.4892    0.7863 C   0  0  0  0  0  0  0  0  0  0  0  0
    0.7964   -1.5065   -0.1749 C   0  0  0  0  0  0  0  0  0  0  0  0
    1.0678   -2.8492    0.4722 C   0  0  0  0  0  0  0  0  0  0  0  0
   -0.1464   -3.4158    0.8961 O   0  0  0  0  0  0  0  0  0  0  0  0
    0.0129   -4.6528    1.5428 C   0  0  0  0  0  0  0  0  0  0  0  0
   -1.3458   -5.1695    1.9555 C   0  0  0  0  0  0  0  0  0  0  0  0
   -0.7535   -0.8472    1.1838 H   0  0  0  0  0  0  0  0  0  0  0  0
    0.8664   -0.3078    1.6302 H   0  0  0  0  0  0  0  0  0  0  0  0
    1.7406   -1.1310   -0.5789 H   0  0  0  0  0  0  0  0  0  0  0  0
    0.1268   -1.6599   -1.0252 H   0  0  0  0  0  0  0  0  0  0  0  0
    1.7437   -2.7242    1.3329 H   0  0  0  0  0  0  0  0  0  0  0  0
    1.5671   -3.5220   -0.2405 H   0  0  0  0  0  0  0  0  0  0  0  0
    0.5076   -5.3677    0.8686 H   0  0  0  0  0  0  0  0  0  0  0  0
    0.6628   -4.5347    2.4224 H   0  0  0  0  0  0  0  0  0  0  0  0
   -1.9863   -5.3000    1.0825 H   0  0  0  0  0  0  0  0  0  0  0  0
   -1.2470   -6.1317    2.4604 H   0  0  0  0  0  0  0  0  0  0  0  0
   -1.8305   -4.4688    2.6362 H   0  0  0  0  0  0  0  0  0  0  0  0
  1  2  1  0
  1  6  1  0
  1  8  1  0
  2  3  1  0
  2  9  1  0
  2 10  1  0
  3  4  1  0
  4  5  1  0
  4 11  1  0
  4 12  1  0
  5  6  1  0
  6 13  1  0
  6 14  1  0
  7 15  1  0
 15 16  1  0
 15 21  1  0
 15 22  1  0
 16 17  1  0
 16 23  1  0
 16 24  1  0
 17 18  1  0
 17 25  1  0
 17 26  1  0
 18 19  1  0
 19 20  1  0
 19 27  1  0
 19 28  1  0
 20 29  1  0
 20 30  1  0
 20 31  1  0
M  RAD  1   1   2
M  END
>  <reaction>  (18) 
rmg_rxn_246

>  <mol_properties>  (18) 
{"0": {"label": "*3", "atom_type": "Cs"}, "1": {"label": "*4", "atom_type": "Cs"}, "6": {"label": "*2", "atom_type": "H0"}, "14": {"label": "*1", "atom_type": "Cs"}, "15": {"label": "*0", "atom_type": "Cs"}}

>  <type>  (18) 
unop_14

>  <geom_source>  (18) 
gaussian_log

$$$$
