
     RDKit          3D

  9  8  0  0  0  0  0  0  0  0999 V2000
    1.0366    1.3666   -1.0040 O   0  0  0  0  0  1  0  0  0  0  0  0
    0.8763    0.9651    0.1786 N   0  0  0  0  0  0  0  0  0  0  0  0
    0.0999    0.0100    0.5787 C   0  0  0  0  0  3  0  0  0  0  0  0
   -0.7197   -0.7380   -0.4015 C   0  0  0  0  0  0  0  0  0  0  0  0
    1.4193    1.4472    0.9012 H   0  0  0  0  0  0  0  0  0  0  0  0
    0.0997   -0.1874    1.6410 H   0  0  0  0  0  0  0  0  0  0  0  0
   -1.3136   -1.5037    0.0930 H   0  0  0  0  0  0  0  0  0  0  0  0
   -1.3825   -0.0572   -0.9424 H   0  0  0  0  0  0  0  0  0  0  0  0
   -0.0802   -1.2049   -1.1555 H   0  0  0  0  0  0  0  0  0  0  0  0
  1  2  1  0
  2  3  1  0
  2  5  1  0
  3  4  1  0
  3  6  1  0
  4  7  1  0
  4  8  1  0
  4  9  1  0
M  CHG  2   1  -1   3   1
M  END
>  <reaction>  (1) 
rmg_rxn_15680

>  <mol_properties>  (1) 
{"3": {"label": "donator", "atom_type": "Cs"}, "6": {"label": "d_hydrogen", "atom_type": "H0"}}

>  <type>  (1) 
r1h

$$$$

     RDKit          3D

  8  7  0  0  0  0  0  0  0  0999 V2000
    1.7077   -0.1964   -0.0607 C   0  0  0  0  0  3  0  0  0  0  0  0
    0.4209   -0.4565    0.2808 O   0  0  0  0  0  0  0  0  0  0  0  0
   -0.4607    0.4385   -0.2968 N   0  0  0  0  0  0  0  0  0  0  0  0
   -1.6584    0.1416   -0.0244 C   0  0  0  0  0  0  0  0  0  0  0  0
    2.4163   -0.7685    0.5170 H   0  0  0  0  0  0  0  0  0  0  0  0
    1.9214    0.7645   -0.5045 H   0  0  0  0  0  0  0  0  0  0  0  0
   -2.4185    0.7953   -0.4307 H   0  0  0  0  0  0  0  0  0  0  0  0
   -1.9286   -0.7185    0.5831 H   0  0  0  0  0  0  0  0  0  0  0  0
  1  2  1  0
  1  5  1  0
  1  6  1  0
  2  3  1  0
  3  4  2  3
  4  7  1  0
  4  8  1  0
M  RAD  1   1   2
M  END
>  <reaction>  (2) 
rmg_rxn_15680

>  <mol_properties>  (2) 
{"0": {"label": "acceptor", "atom_type": "Cs"}}

>  <type>  (2) 
r2

$$$$

     RDKit          3D

  9  8  0  0  0  0  0  0  0  0999 V2000
   -1.5470   -0.0755   -0.1976 C   0  0  0  0  0  0  0  0  0  0  0  0
   -0.2885    0.4507    0.1749 O   0  0  0  0  0  0  0  0  0  0  0  0
   -0.1502    1.7216   -0.3294 N   0  0  0  0  0  0  0  0  0  0  0  0
    0.9626    2.2353   -0.0219 C   0  0  0  0  0  0  0  0  0  0  0  0
   -1.6392   -0.1356   -1.2844 H   0  0  0  0  0  0  0  0  0  0  0  0
   -2.3597    0.5337    0.2044 H   0  0  0  0  0  0  0  0  0  0  0  0
   -1.5879   -1.0750    0.2318 H   0  0  0  0  0  0  0  0  0  0  0  0
    1.1497    3.2381   -0.3820 H   0  0  0  0  0  0  0  0  0  0  0  0
    1.7060    1.7101    0.5739 H   0  0  0  0  0  0  0  0  0  0  0  0
  1  2  1  0
  1  5  1  0
  1  6  1  0
  1  7  1  0
  2  3  1  0
  3  4  2  3
  4  8  1  0
  4  9  1  0
M  END
>  <reaction>  (3) 
rmg_rxn_15680

>  <mol_properties>  (3) 
{"0": {"label": "acceptor", "atom_type": "Cs"}, "8": {"label": "a_hydrogen", "atom_type": "H0"}}

>  <type>  (3) 
r2h

$$$$

     RDKit          3D

 17 15  0  0  0  0  0  0  0  0999 V2000
    1.6682    1.2463    0.5160 C   0  0  0  0  0  3  0  0  0  0  0  0
    1.9060    0.4964   -0.6014 O   0  0  0  0  0  0  0  0  0  0  0  0
    1.6953   -0.8742   -0.5732 N   0  0  0  0  0  0  0  0  0  0  0  0
    1.1208   -1.3730    0.4385 C   0  0  0  0  0  0  0  0  0  0  0  0
    1.9868    0.8126    1.4645 H   0  0  0  0  0  0  0  0  0  0  0  0
    2.0200    2.2560    0.3300 H   0  0  0  0  0  0  0  0  0  0  0  0
    0.9791   -2.4450    0.4020 H   0  0  0  0  0  0  0  0  0  0  0  0
    0.7311   -0.8315    1.2919 H   0  0  0  0  0  0  0  0  0  0  0  0
   -1.7762   -1.1432    0.7253 O   0  0  0  0  0  1  0  0  0  0  0  0
   -1.8622   -0.4947   -0.3597 N   0  0  0  0  0  0  0  0  0  0  0  0
   -1.5677    0.7691   -0.5394 C   0  0  0  0  0  3  0  0  0  0  0  0
   -1.0534    1.5824    0.5246 C   0  0  0  0  0  0  0  0  0  0  0  0
   -2.1901   -1.0140   -1.1747 H   0  0  0  0  0  0  0  0  0  0  0  0
   -1.6710    1.1251   -1.5548 H   0  0  0  0  0  0  0  0  0  0  0  0
    0.2097    1.4170    0.5934 H   0  0  0  0  0  0  0  0  0  0  0  0
   -1.1550    2.6497    0.3512 H   0  0  0  0  0  0  0  0  0  0  0  0
   -1.3836    1.2707    1.5128 H   0  0  0  0  0  0  0  0  0  0  0  0
  1  2  1  0
  1  5  1  0
  1  6  1  0
  2  3  1  0
  3  4  2  3
  4  7  1  0
  4  8  1  0
  9 10  1  0
 10 11  1  0
 10 13  1  0
 11 12  1  0
 11 14  1  0
 12 15  1  0
 12 16  1  0
 12 17  1  0
M  CHG  2   9  -1  11   1
M  RAD  1   1   2
M  END
>  <reaction>  (4) 
rmg_rxn_15680

>  <mol_properties>  (4) 
{"0": {"label": "*3", "atom_type": "Cs"}, "1": {"label": "*4", "atom_type": "O2s"}, "10": {"label": "*0", "atom_type": "Csc"}, "11": {"label": "*1", "atom_type": "Cs"}, "14": {"label": "*2", "atom_type": "H0"}}

>  <type>  (4) 
ts

$$$$

     RDKit          3D

 17 15  0  0  0  0  0  0  0  0999 V2000
    1.5394   -1.2982    0.4146 C   0  0  0  0  0  0  0  0  0  0  0  0
    1.6961   -0.3853   -0.6252 O   0  0  0  0  0  0  0  0  0  0  0  0
    1.3902    0.9375   -0.4721 N   0  0  0  0  0  0  0  0  0  0  0  0
    0.9415    1.4149    0.6105 C   0  0  0  0  0  0  0  0  0  0  0  0
    2.0031   -2.2209    0.0792 H   0  0  0  0  0  0  0  0  0  0  0  0
    1.9411   -0.9621    1.3712 H   0  0  0  0  0  0  0  0  0  0  0  0
    0.7760    2.4769    0.6128 H   0  0  0  0  0  0  0  0  0  0  0  0
    0.8107    0.8915    1.5517 H   0  0  0  0  0  0  0  0  0  0  0  0
   -1.3407    1.2165    0.4754 O   0  0  0  0  0  1  0  0  0  0  0  0
   -1.6431    0.4724   -0.5235 N   0  0  0  0  0  0  0  0  0  0  0  0
   -1.5498   -0.8537   -0.5291 C   0  0  0  0  0  0  0  0  0  0  0  0
   -1.0849   -1.5618    0.5777 C   0  0  0  0  0  0  0  0  0  0  0  0
   -1.9268    0.9525   -1.3809 H   0  0  0  0  0  0  0  0  0  0  0  0
   -1.7387   -1.3340   -1.4768 H   0  0  0  0  0  0  0  0  0  0  0  0
    0.2877   -1.4964    0.5489 H   0  0  0  0  0  0  0  0  0  0  0  0
   -1.2186   -1.0699    1.5332 H   0  0  0  0  0  0  0  0  0  0  0  0
   -1.2287   -2.6314    0.5798 H   0  0  0  0  0  0  0  0  0  0  0  0
  1  2  1  0
  1  5  1  0
  1  6  1  0
  1 15  1  0
  2  3  1  0
  3  4  2  3
  4  7  1  0
  4  8  1  0
  9 10  1  0
 10 11  1  0
 10 13  1  0
 11 12  2  3
 11 14  1  0
 12 16  1  0
 12 17  1  0
M  RAD  1   9   2
M  END
>  <reaction>  (5) 
rmg_rxn_15680

>  <mol_properties>  (5) 
{"0": {"label": "*3", "atom_type": "Cs"}, "1": {"label": "*4", "atom_type": "O2s"}, "10": {"label": "*0", "atom_type": "Csc"}, "11": {"label": "*1", "atom_type": "Cs"}, "14": {"label": "*2", "atom_type": "H0"}}

>  <type>  (5) 
unop_1

>  <geom_source>  (5) 
crest_best.xyz

$$$$

     RDKit          3D

 17 15  0  0  0  0  0  0  0  0999 V2000
   -0.5038    1.0021    1.1270 C   0  0  0  0  0  3  0  0  0  0  0  0
    0.6749    1.7584    0.9317 O   0  0  0  0  0  0  0  0  0  0  0  0
    0.4252    3.0829    1.2001 N   0  0  0  0  0  0  0  0  0  0  0  0
    1.4522    3.8012    1.0390 C   0  0  0  0  0  0  0  0  0  0  0  0
   -0.8474    1.0742    2.1614 H   0  0  0  0  0  0  0  0  0  0  0  0
   -1.2977    1.3352    0.4546 H   0  0  0  0  0  0  0  0  0  0  0  0
    1.3384    4.8598    1.2309 H   0  0  0  0  0  0  0  0  0  0  0  0
    2.4098    3.3925    0.7239 H   0  0  0  0  0  0  0  0  0  0  0  0
   -0.5038   -3.2047   -2.2164 O   0  0  0  0  0  1  0  0  0  0  0  0
   -0.5038   -3.2047   -0.9573 N   0  0  0  0  0  0  0  0  0  0  0  0
   -0.5038   -2.1713   -0.1781 C   0  0  0  0  0  3  0  0  0  0  0  0
   -0.5038   -0.8081   -0.7558 C   0  0  0  0  0  0  0  0  0  0  0  0
   -0.5038   -4.1221   -0.5014 H   0  0  0  0  0  0  0  0  0  0  0  0
   -0.5038   -2.3771    0.8826 H   0  0  0  0  0  0  0  0  0  0  0  0
   -0.5038    0.0967    0.1853 H   0  0  0  0  0  0  0  0  0  0  0  0
    0.3706   -0.6657   -1.3965 H   0  0  0  0  0  0  0  0  0  0  0  0
   -1.3783   -0.6657   -1.3965 H   0  0  0  0  0  0  0  0  0  0  0  0
  1  2  1  0
  1  5  1  0
  1  6  1  0
  2  3  1  0
  3  4  2  3
  4  7  1  0
  4  8  1  0
  9 10  1  0
 10 11  1  0
 10 13  1  0
 11 12  1  0
 11 14  1  0
 12 15  1  0
 12 16  1  0
 12 17  1  0
M  CHG  2   9  -1  11   1
M  RAD  1   1   2
M  END
>  <reaction>  (6) 
rmg_rxn_15680

>  <mol_properties>  (6) 
{"0": {"label": "*3", "atom_type": "Cs"}, "1": {"label": "*4", "atom_type": "O2s"}, "10": {"label": "*0", "atom_type": "Csc"}, "11": {"label": "*1", "atom_type": "Cs"}, "14": {"label": "*2", "atom_type": "H0"}}

>  <type>  (6) 
unop_2

>  <geom_source>  (6) 
Heuristics

$$$$

     RDKit          3D

 17 15  0  0  0  0  0  0  0  0999 V2000
   -0.4308    1.7322    0.3571 C   0  0  0  0  0  3  0  0  0  0  0  0
    0.2497    1.1482    1.4504 O   0  0  0  0  0  0  0  0  0  0  0  0
    0.6623    2.1312    2.3177 N   0  0  0  0  0  0  0  0  0  0  0  0
    1.2775    1.6567    3.3142 C   0  0  0  0  0  0  0  0  0  0  0  0
   -1.3174    2.2746    0.6933 H   0  0  0  0  0  0  0  0  0  0  0  0
    0.2247    2.4103   -0.1941 H   0  0  0  0  0  0  0  0  0  0  0  0
    1.6362    2.3679    4.0462 H   0  0  0  0  0  0  0  0  0  0  0  0
    1.4468    0.5900    3.4451 H   0  0  0  0  0  0  0  0  0  0  0  0
   -0.4308   -2.4746   -2.9863 O   0  0  0  0  0  1  0  0  0  0  0  0
   -0.4308   -2.4746   -1.7272 N   0  0  0  0  0  0  0  0  0  0  0  0
   -0.4308   -1.4412   -0.9480 C   0  0  0  0  0  3  0  0  0  0  0  0
   -0.4308   -0.0779   -1.5257 C   0  0  0  0  0  0  0  0  0  0  0  0
   -0.4308   -3.3920   -1.2714 H   0  0  0  0  0  0  0  0  0  0  0  0
   -0.4308   -1.6470    0.1127 H   0  0  0  0  0  0  0  0  0  0  0  0
   -0.4308    0.8268   -0.5847 H   0  0  0  0  0  0  0  0  0  0  0  0
    0.4436    0.0644   -2.1665 H   0  0  0  0  0  0  0  0  0  0  0  0
   -1.3053    0.0644   -2.1665 H   0  0  0  0  0  0  0  0  0  0  0  0
  1  2  1  0
  1  5  1  0
  1  6  1  0
  2  3  1  0
  3  4  2  3
  4  7  1  0
  4  8  1  0
  9 10  1  0
 10 11  1  0
 10 13  1  0
 11 12  1  0
 11 14  1  0
 12 15  1  0
 12 16  1  0
 12 17  1  0
M  CHG  2   9  -1  11   1
M  RAD  1   1   2
M  END
>  <reaction>  (7) 
rmg_rxn_15680

>  <mol_properties>  (7) 
{"0": {"label": "*3", "atom_type": "Cs"}, "1": {"label": "*4", "atom_type": "O2s"}, "10": {"label": "*0", "atom_type": "Csc"}, "11": {"label": "*1", "atom_type": "Cs"}, "14": {"label": "*2", "atom_type": "H0"}}

>  <type>  (7) 
unop_3

>  <geom_source>  (7) 
Heuristics

$$$$

     RDKit          3D

 17 15  0  0  0  0  0  0  0  0999 V2000
   -0.2198    0.8736    1.2042 C   0  0  0  0  0  3  0  0  0  0  0  0
    0.4607    1.9890    0.6636 O   0  0  0  0  0  0  0  0  0  0  0  0
    0.0339    3.1379    1.2853 N   0  0  0  0  0  0  0  0  0  0  0  0
    0.6155    4.1652    0.8346 C   0  0  0  0  0  0  0  0  0  0  0  0
   -0.0153    0.7711    2.2722 H   0  0  0  0  0  0  0  0  0  0  0  0
   -1.2972    0.9587    1.0454 H   0  0  0  0  0  0  0  0  0  0  0  0
    0.3344    5.1132    1.2733 H   0  0  0  0  0  0  0  0  0  0  0  0
    1.3632    4.1168    0.0458 H   0  0  0  0  0  0  0  0  0  0  0  0
   -0.2198   -3.3332   -2.1392 O   0  0  0  0  0  1  0  0  0  0  0  0
   -0.2198   -3.3332   -0.8801 N   0  0  0  0  0  0  0  0  0  0  0  0
   -0.2198   -2.2998   -0.1009 C   0  0  0  0  0  3  0  0  0  0  0  0
   -0.2198   -0.9365   -0.6786 C   0  0  0  0  0  0  0  0  0  0  0  0
   -0.2198   -4.2506   -0.4243 H   0  0  0  0  0  0  0  0  0  0  0  0
   -0.2198   -2.5056    0.9598 H   0  0  0  0  0  0  0  0  0  0  0  0
   -0.2198   -0.0318    0.2624 H   0  0  0  0  0  0  0  0  0  0  0  0
    0.6546   -0.7942   -1.3194 H   0  0  0  0  0  0  0  0  0  0  0  0
   -1.0943   -0.7942   -1.3194 H   0  0  0  0  0  0  0  0  0  0  0  0
  1  2  1  0
  1  5  1  0
  1  6  1  0
  2  3  1  0
  3  4  2  3
  4  7  1  0
  4  8  1  0
  9 10  1  0
 10 11  1  0
 10 13  1  0
 11 12  1  0
 11 14  1  0
 12 15  1  0
 12 16  1  0
 12 17  1  0
M  CHG  2   9  -1  11   1
M  RAD  1   1   2
M  END
>  <reaction>  (8) 
rmg_rxn_15680

>  <mol_properties>  (8) 
{"0": {"label": "*3", "atom_type": "Cs"}, "1": {"label": "*4", "atom_type": "O2s"}, "10": {"label": "*0", "atom_type": "Csc"}, "11": {"label": "*1", "atom_type": "Cs"}, "14": {"label": "*2", "atom_type": "H0"}}

>  <type>  (8) 
unop_4

>  <geom_source>  (8) 
Heuristics

$$$$

     RDKit          3D

 17 15  0  0  0  0  0  0  0  0999 V2000
    0.6846    1.5067    0.6168 C   0  0  0  0  0  3  0  0  0  0  0  0
   -0.4941    1.2818    1.3648 O   0  0  0  0  0  0  0  0  0  0  0  0
   -0.9638    2.4751    1.8590 N   0  0  0  0  0  0  0  0  0  0  0  0
   -2.0195    2.3250    2.5369 C   0  0  0  0  0  0  0  0  0  0  0  0
    0.4890    2.1659   -0.2320 H   0  0  0  0  0  0  0  0  0  0  0  0
    1.4678    1.9404    1.2427 H   0  0  0  0  0  0  0  0  0  0  0  0
   -2.4540    3.2198    2.9621 H   0  0  0  0  0  0  0  0  0  0  0  0
   -2.4814    1.3527    2.6948 H   0  0  0  0  0  0  0  0  0  0  0  0
    0.6846   -2.7000   -2.7266 O   0  0  0  0  0  1  0  0  0  0  0  0
    0.6846   -2.7000   -1.4675 N   0  0  0  0  0  0  0  0  0  0  0  0
    0.6846   -1.6667   -0.6883 C   0  0  0  0  0  3  0  0  0  0  0  0
    0.6846   -0.3034   -1.2660 C   0  0  0  0  0  0  0  0  0  0  0  0
    0.6846   -3.6174   -1.0116 H   0  0  0  0  0  0  0  0  0  0  0  0
    0.6846   -1.8724    0.3724 H   0  0  0  0  0  0  0  0  0  0  0  0
    0.6846    0.6013   -0.3249 H   0  0  0  0  0  0  0  0  0  0  0  0
    1.5591   -0.1611   -1.9067 H   0  0  0  0  0  0  0  0  0  0  0  0
   -0.1898   -0.1611   -1.9067 H   0  0  0  0  0  0  0  0  0  0  0  0
  1  2  1  0
  1  5  1  0
  1  6  1  0
  2  3  1  0
  3  4  2  3
  4  7  1  0
  4  8  1  0
  9 10  1  0
 10 11  1  0
 10 13  1  0
 11 12  1  0
 11 14  1  0
 12 15  1  0
 12 16  1  0
 12 17  1  0
M  CHG  2   9  -1  11   1
M  RAD  1   1   2
M  END
>  <reaction>  (9) 
rmg_rxn_15680

>  <mol_properties>  (9) 
{"0": {"label": "*3", "atom_type": "Cs"}, "1": {"label": "*4", "atom_type": "O2s"}, "10": {"label": "*0", "atom_type": "Csc"}, "11": {"label": "*1", "atom_type": "Cs"}, "14": {"label": "*2", "atom_type": "H0"}}

>  <type>  (9) 
unop_5

>  <geom_source>  (9) 
Heuristics

$$$$

     RDKit          3D

 17 15  0  0  0  0  0  0  0  0999 V2000
    1.8378   -1.5754    0.3406 C   0  0  0  0  0  0  0  0  0  0  0  0
    2.4627   -0.3642   -0.0162 O   0  0  0  0  0  0  0  0  0  0  0  0
    1.5908    0.7005    0.0468 N   0  0  0  0  0  0  0  0  0  0  0  0
    2.0721    1.8393   -0.1942 C   0  0  0  0  0  0  0  0  0  0  0  0
    2.3616   -2.3828   -0.1274 H   0  0  0  0  0  0  0  0  0  0  0  0
    1.7482   -1.6978    1.4175 H   0  0  0  0  0  0  0  0  0  0  0  0
    1.3934    2.6738   -0.1588 H   0  0  0  0  0  0  0  0  0  0  0  0
    3.1146    2.0191   -0.4333 H   0  0  0  0  0  0  0  0  0  0  0  0
   -1.2806   -1.2571   -0.4555 O   0  0  0  0  0  1  0  0  0  0  0  0
   -1.2137   -0.0562   -0.0354 N   0  0  0  0  0  0  0  0  0  0  0  0
   -2.2840    0.7249    0.2442 C   0  0  0  0  0  0  0  0  0  0  0  0
   -3.5616    0.3193    0.1145 C   0  0  0  0  0  0  0  0  0  0  0  0
   -0.2621    0.3366    0.0835 H   0  0  0  0  0  0  0  0  0  0  0  0
   -2.0240    1.7160    0.5886 H   0  0  0  0  0  0  0  0  0  0  0  0
    0.8873   -1.7576   -0.1770 H   0  0  0  0  0  0  0  0  0  0  0  0
   -3.7737   -0.6767   -0.2312 H   0  0  0  0  0  0  0  0  0  0  0  0
   -4.3847    0.9666    0.3478 H   0  0  0  0  0  0  0  0  0  0  0  0
  1  2  1  0
  1  5  1  0
  1  6  1  0
  1 15  1  0
  2  3  1  0
  3  4  2  3
  4  7  1  0
  4  8  1  0
  9 10  1  0
 10 11  1  0
 10 13  1  0
 11 12  2  3
 11 14  1  0
 12 16  1  0
 12 17  1  0
M  RAD  1   9   2
M  END
>  <reaction>  (10) 
rmg_rxn_15680

>  <mol_properties>  (10) 
{"0": {"label": "*3", "atom_type": "Cs"}, "1": {"label": "*4", "atom_type": "O2s"}, "10": {"label": "*0", "atom_type": "Csc"}, "11": {"label": "*1", "atom_type": "Cs"}, "14": {"label": "*2", "atom_type": "H0"}}

>  <type>  (10) 
unop_6

>  <geom_source>  (10) 
Heuristics

$$$$

     RDKit          3D

 17 15  0  0  0  0  0  0  0  0999 V2000
   -0.0000    0.8431    1.1893 C   0  0  0  0  0  3  0  0  0  0  0  0
   -0.0000    2.0900    0.5223 O   0  0  0  0  0  0  0  0  0  0  0  0
    0.0000    3.1087    1.4449 N   0  0  0  0  0  0  0  0  0  0  0  0
    0.0000    4.2464    0.8950 C   0  0  0  0  0  0  0  0  0  0  0  0
    0.8921    0.7319    1.8097 H   0  0  0  0  0  0  0  0  0  0  0  0
   -0.8921    0.7319    1.8097 H   0  0  0  0  0  0  0  0  0  0  0  0
    0.0000    5.1038    1.5547 H   0  0  0  0  0  0  0  0  0  0  0  0
   -0.0000    4.3753   -0.1852 H   0  0  0  0  0  0  0  0  0  0  0  0
   -0.0000   -3.3636   -2.1541 O   0  0  0  0  0  1  0  0  0  0  0  0
   -0.0000   -3.3636   -0.8949 N   0  0  0  0  0  0  0  0  0  0  0  0
   -0.0000   -2.3302   -0.1157 C   0  0  0  0  0  3  0  0  0  0  0  0
   -0.0000   -0.9670   -0.6935 C   0  0  0  0  0  0  0  0  0  0  0  0
   -0.0000   -4.2810   -0.4391 H   0  0  0  0  0  0  0  0  0  0  0  0
   -0.0000   -2.5360    0.9449 H   0  0  0  0  0  0  0  0  0  0  0  0
   -0.0000   -0.0623    0.2476 H   0  0  0  0  0  0  0  0  0  0  0  0
    0.8744   -0.8247   -1.3342 H   0  0  0  0  0  0  0  0  0  0  0  0
   -0.8744   -0.8247   -1.3342 H   0  0  0  0  0  0  0  0  0  0  0  0
  1  2  1  0
  1  5  1  0
  1  6  1  0
  2  3  1  0
  3  4  2  3
  4  7  1  0
  4  8  1  0
  9 10  1  0
 10 11  1  0
 10 13  1  0
 11 12  1  0
 11 14  1  0
 12 15  1  0
 12 16  1  0
 12 17  1  0
M  CHG  2   9  -1  11   1
M  RAD  1   1   2
M  END
>  <reaction>  (11) 
rmg_rxn_15680

>  <mol_properties>  (11) 
{"0": {"label": "*3", "atom_type": "Cs"}, "1": {"label": "*4", "atom_type": "O2s"}, "10": {"label": "*0", "atom_type": "Csc"}, "11": {"label": "*1", "atom_type": "Cs"}, "14": {"label": "*2", "atom_type": "H0"}}

>  <type>  (11) 
unop_7

>  <geom_source>  (11) 
Heuristics

$$$$

     RDKit          3D

 17 15  0  0  0  0  0  0  0  0999 V2000
   -1.8333   -1.5754    0.3449 C   0  0  0  0  0  0  0  0  0  0  0  0
   -2.4618   -0.3665   -0.0122 O   0  0  0  0  0  0  0  0  0  0  0  0
   -1.5916    0.7000    0.0454 N   0  0  0  0  0  0  0  0  0  0  0  0
   -2.0758    1.8373   -0.1969 C   0  0  0  0  0  0  0  0  0  0  0  0
   -1.7419   -1.6980    1.4215 H   0  0  0  0  0  0  0  0  0  0  0  0
   -2.3506   -2.3853   -0.1248 H   0  0  0  0  0  0  0  0  0  0  0  0
   -1.3989    2.6734   -0.1647 H   0  0  0  0  0  0  0  0  0  0  0  0
   -3.1196    2.0143   -0.4329 H   0  0  0  0  0  0  0  0  0  0  0  0
    1.2808   -1.2538   -0.4635 O   0  0  0  0  0  1  0  0  0  0  0  0
    1.2133   -0.0546   -0.0387 N   0  0  0  0  0  0  0  0  0  0  0  0
    2.2832    0.7248    0.2472 C   0  0  0  0  0  0  0  0  0  0  0  0
    3.5609    0.3193    0.1193 C   0  0  0  0  0  0  0  0  0  0  0  0
    0.2615    0.3378    0.0801 H   0  0  0  0  0  0  0  0  0  0  0  0
    2.0227    1.7147    0.5952 H   0  0  0  0  0  0  0  0  0  0  0  0
   -0.8855   -1.7587   -0.1759 H   0  0  0  0  0  0  0  0  0  0  0  0
    4.3836    0.9651    0.3579 H   0  0  0  0  0  0  0  0  0  0  0  0
    3.7735   -0.6755   -0.2300 H   0  0  0  0  0  0  0  0  0  0  0  0
  1  2  1  0
  1  5  1  0
  1  6  1  0
  1 15  1  0
  2  3  1  0
  3  4  2  3
  4  7  1  0
  4  8  1  0
  9 10  1  0
 10 11  1  0
 10 13  1  0
 11 12  2  3
 11 14  1  0
 12 16  1  0
 12 17  1  0
M  RAD  1   9   2
M  END
>  <reaction>  (12) 
rmg_rxn_15680

>  <mol_properties>  (12) 
{"0": {"label": "*3", "atom_type": "Cs"}, "1": {"label": "*4", "atom_type": "O2s"}, "10": {"label": "*0", "atom_type": "Csc"}, "11": {"label": "*1", "atom_type": "Cs"}, "14": {"label": "*2", "atom_type": "H0"}}

>  <type>  (12) 
unop_8

>  <geom_source>  (12) 
Heuristics

$$$$

     RDKit          3D

 17 15  0  0  0  0  0  0  0  0999 V2000
    0.6973    1.2332    0.9087 C   0  0  0  0  0  3  0  0  0  0  0  0
   -0.6638    1.4989    1.1850 O   0  0  0  0  0  0  0  0  0  0  0  0
   -0.8350    2.8421    1.4200 N   0  0  0  0  0  0  0  0  0  0  0  0
   -2.0393    3.1296    1.6726 C   0  0  0  0  0  0  0  0  0  0  0  0
    1.0278    1.7729    0.0183 H   0  0  0  0  0  0  0  0  0  0  0  0
    1.3289    1.5070    1.7568 H   0  0  0  0  0  0  0  0  0  0  0  0
   -2.2582    4.1705    1.8696 H   0  0  0  0  0  0  0  0  0  0  0  0
   -2.8284    2.3810    1.6948 H   0  0  0  0  0  0  0  0  0  0  0  0
    0.6973   -2.9735   -2.4347 O   0  0  0  0  0  1  0  0  0  0  0  0
    0.6973   -2.9735   -1.1756 N   0  0  0  0  0  0  0  0  0  0  0  0
    0.6973   -1.9402   -0.3964 C   0  0  0  0  0  3  0  0  0  0  0  0
    0.6973   -0.5769   -0.9741 C   0  0  0  0  0  0  0  0  0  0  0  0
    0.6973   -3.8909   -0.7198 H   0  0  0  0  0  0  0  0  0  0  0  0
    0.6973   -2.1459    0.6643 H   0  0  0  0  0  0  0  0  0  0  0  0
    0.6973    0.3278   -0.0331 H   0  0  0  0  0  0  0  0  0  0  0  0
    1.5717   -0.4346   -1.6149 H   0  0  0  0  0  0  0  0  0  0  0  0
   -0.1771   -0.4346   -1.6149 H   0  0  0  0  0  0  0  0  0  0  0  0
  1  2  1  0
  1  5  1  0
  1  6  1  0
  2  3  1  0
  3  4  2  3
  4  7  1  0
  4  8  1  0
  9 10  1  0
 10 11  1  0
 10 13  1  0
 11 12  1  0
 11 14  1  0
 12 15  1  0
 12 16  1  0
 12 17  1  0
M  CHG  2   9  -1  11   1
M  RAD  1   1   2
M  END
>  <reaction>  (13) 
rmg_rxn_15680

>  <mol_properties>  (13) 
{"0": {"label": "*3", "atom_type": "Cs"}, "1": {"label": "*4", "atom_type": "O2s"}, "10": {"label": "*0", "atom_type": "Csc"}, "11": {"label": "*1", "atom_type": "Cs"}, "14": {"label": "*2", "atom_type": "H0"}}

>  <type>  (13) 
unop_9

>  <geom_source>  (13) 
Heuristics

$$$$

     RDKit          3D

 17 15  0  0  0  0  0  0  0  0999 V2000
    1.5396    1.2978    0.4150 C   0  0  0  0  0  0  0  0  0  0  0  0
    1.6958    0.3851   -0.6250 O   0  0  0  0  0  0  0  0  0  0  0  0
    1.3894   -0.9376   -0.4724 N   0  0  0  0  0  0  0  0  0  0  0  0
    0.9411   -1.4153    0.6102 C   0  0  0  0  0  0  0  0  0  0  0  0
    1.9415    0.9614    1.3715 H   0  0  0  0  0  0  0  0  0  0  0  0
    2.0036    2.2204    0.0797 H   0  0  0  0  0  0  0  0  0  0  0  0
    0.7752   -2.4772    0.6122 H   0  0  0  0  0  0  0  0  0  0  0  0
    0.8108   -0.8921    1.5517 H   0  0  0  0  0  0  0  0  0  0  0  0
   -1.3410   -1.2159    0.4758 O   0  0  0  0  0  1  0  0  0  0  0  0
   -1.6426   -0.4722   -0.5235 N   0  0  0  0  0  0  0  0  0  0  0  0
   -1.5490    0.8539   -0.5295 C   0  0  0  0  0  0  0  0  0  0  0  0
   -1.0845    1.5620    0.5775 C   0  0  0  0  0  0  0  0  0  0  0  0
   -1.9258   -0.9525   -1.3810 H   0  0  0  0  0  0  0  0  0  0  0  0
   -1.7370    1.3341   -1.4774 H   0  0  0  0  0  0  0  0  0  0  0  0
    0.2881    1.4963    0.5495 H   0  0  0  0  0  0  0  0  0  0  0  0
   -1.2281    2.6316    0.5796 H   0  0  0  0  0  0  0  0  0  0  0  0
   -1.2188    1.0701    1.5330 H   0  0  0  0  0  0  0  0  0  0  0  0
  1  2  1  0
  1  5  1  0
  1  6  1  0
  1 15  1  0
  2  3  1  0
  3  4  2  3
  4  7  1  0
  4  8  1  0
  9 10  1  0
 10 11  1  0
 10 13  1  0
 11 12  2  3
 11 14  1  0
 12 16  1  0
 12 17  1  0
M  RAD  1   9   2
M  END
>  <reaction>  (14) 
rmg_rxn_15680

>  <mol_properties>  (14) 
{"0": {"label": "*3", "atom_type": "Cs"}, "1": {"label": "*4", "atom_type": "O2s"}, "10": {"label": "*0", "atom_type": "Csc"}, "11": {"label": "*1", "atom_type": "Cs"}, "14": {"label": "*2", "atom_type": "H0"}}

>  <type>  (14) 
unop_10

>  <geom_source>  (14) 
Heuristics

$$$$

     RDKit          3D

 17 15  0  0  0  0  0  0  0  0999 V2000
    0.5038    1.0021    1.1270 C   0  0  0  0  0  3  0  0  0  0  0  0
   -0.6749    1.7584    0.9317 O   0  0  0  0  0  0  0  0  0  0  0  0
   -0.4252    3.0829    1.2001 N   0  0  0  0  0  0  0  0  0  0  0  0
   -1.4522    3.8012    1.0390 C   0  0  0  0  0  0  0  0  0  0  0  0
    1.2977    1.3352    0.4546 H   0  0  0  0  0  0  0  0  0  0  0  0
    0.8474    1.0742    2.1614 H   0  0  0  0  0  0  0  0  0  0  0  0
   -1.3384    4.8598    1.2309 H   0  0  0  0  0  0  0  0  0  0  0  0
   -2.4099    3.3924    0.7239 H   0  0  0  0  0  0  0  0  0  0  0  0
    0.5038   -3.2047   -2.2164 O   0  0  0  0  0  1  0  0  0  0  0  0
    0.5038   -3.2047   -0.9573 N   0  0  0  0  0  0  0  0  0  0  0  0
    0.5038   -2.1713   -0.1781 C   0  0  0  0  0  3  0  0  0  0  0  0
    0.5038   -0.8081   -0.7558 C   0  0  0  0  0  0  0  0  0  0  0  0
    0.5038   -4.1221   -0.5014 H   0  0  0  0  0  0  0  0  0  0  0  0
    0.5038   -2.3771    0.8826 H   0  0  0  0  0  0  0  0  0  0  0  0
    0.5038    0.0967    0.1853 H   0  0  0  0  0  0  0  0  0  0  0  0
    1.3783   -0.6657   -1.3965 H   0  0  0  0  0  0  0  0  0  0  0  0
   -0.3706   -0.6657   -1.3965 H   0  0  0  0  0  0  0  0  0  0  0  0
  1  2  1  0
  1  5  1  0
  1  6  1  0
  2  3  1  0
  3  4  2  3
  4  7  1  0
  4  8  1  0
  9 10  1  0
 10 11  1  0
 10 13  1  0
 11 12  1  0
 11 14  1  0
 12 15  1  0
 12 16  1  0
 12 17  1  0
M  CHG  2   9  -1  11   1
M  RAD  1   1   2
M  END
>  <reaction>  (15) 
rmg_rxn_15680

>  <mol_properties>  (15) 
{"0": {"label": "*3", "atom_type": "Cs"}, "1": {"label": "*4", "atom_type": "O2s"}, "10": {"label": "*0", "atom_type": "Csc"}, "11": {"label": "*1", "atom_type": "Cs"}, "14": {"label": "*2", "atom_type": "H0"}}

>  <type>  (15) 
unop_11

>  <geom_source>  (15) 
Heuristics

$$$$

     RDKit          3D

 17 15  0  0  0  0  0  0  0  0999 V2000
   -0.6973    1.2332    0.9087 C   0  0  0  0  0  3  0  0  0  0  0  0
    0.6638    1.4989    1.1850 O   0  0  0  0  0  0  0  0  0  0  0  0
    0.8350    2.8421    1.4201 N   0  0  0  0  0  0  0  0  0  0  0  0
    2.0393    3.1296    1.6726 C   0  0  0  0  0  0  0  0  0  0  0  0
   -1.3289    1.5070    1.7568 H   0  0  0  0  0  0  0  0  0  0  0  0
   -1.0278    1.7729    0.0183 H   0  0  0  0  0  0  0  0  0  0  0  0
    2.2582    4.1705    1.8697 H   0  0  0  0  0  0  0  0  0  0  0  0
    2.8284    2.3810    1.6948 H   0  0  0  0  0  0  0  0  0  0  0  0
   -0.6973   -2.9735   -2.4347 O   0  0  0  0  0  1  0  0  0  0  0  0
   -0.6973   -2.9735   -1.1756 N   0  0  0  0  0  0  0  0  0  0  0  0
   -0.6973   -1.9402   -0.3964 C   0  0  0  0  0  3  0  0  0  0  0  0
   -0.6973   -0.5769   -0.9741 C   0  0  0  0  0  0  0  0  0  0  0  0
   -0.6973   -3.8909   -0.7198 H   0  0  0  0  0  0  0  0  0  0  0  0
   -0.6973   -2.1459    0.6643 H   0  0  0  0  0  0  0  0  0  0  0  0
   -0.6973    0.3278   -0.0331 H   0  0  0  0  0  0  0  0  0  0  0  0
    0.1771   -0.4346   -1.6149 H   0  0  0  0  0  0  0  0  0  0  0  0
   -1.5717   -0.4346   -1.6149 H   0  0  0  0  0  0  0  0  0  0  0  0
  1  2  1  0
  1  5  1  0
  1  6  1  0
  2  3  1  0
  3  4  2  3
  4  7  1  0
  4  8  1  0
  9 10  1  0
 10 11  1  0
 10 13  1  0
 11 12  1  0
 11 14  1  0
 12 15  1  0
 12 16  1  0
 12 17  1  0
M  CHG  2   9  -1  11   1
M  RAD  1   1   2
M  END
>  <reaction>  (16) 
rmg_rxn_15680

>  <mol_properties>  (16) 
{"0": {"label": "*3", "atom_type": "Cs"}, "1": {"label": "*4", "atom_type": "O2s"}, "10": {"label": "*0", "atom_type": "Csc"}, "11": {"label": "*1", "atom_type": "Cs"}, "14": {"label": "*2", "atom_type": "H0"}}

>  <type>  (16) 
unop_12

>  <geom_source>  (16) 
Heuristics

$$$$

     RDKit          3D

 17 15  0  0  0  0  0  0  0  0999 V2000
    1.5394   -1.2982    0.4146 C   0  0  0  0  0  0  0  0  0  0  0  0
    1.6961   -0.3853   -0.6252 O   0  0  0  0  0  0  0  0  0  0  0  0
    1.3902    0.9375   -0.4721 N   0  0  0  0  0  0  0  0  0  0  0  0
    0.9415    1.4149    0.6105 C   0  0  0  0  0  0  0  0  0  0  0  0
    2.0031   -2.2209    0.0792 H   0  0  0  0  0  0  0  0  0  0  0  0
    1.9411   -0.9621    1.3712 H   0  0  0  0  0  0  0  0  0  0  0  0
    0.7760    2.4769    0.6128 H   0  0  0  0  0  0  0  0  0  0  0  0
    0.8107    0.8915    1.5517 H   0  0  0  0  0  0  0  0  0  0  0  0
   -1.3407    1.2165    0.4754 O   0  0  0  0  0  1  0  0  0  0  0  0
   -1.6431    0.4724   -0.5235 N   0  0  0  0  0  0  0  0  0  0  0  0
   -1.5498   -0.8537   -0.5291 C   0  0  0  0  0  0  0  0  0  0  0  0
   -1.0849   -1.5618    0.5777 C   0  0  0  0  0  0  0  0  0  0  0  0
   -1.9268    0.9525   -1.3809 H   0  0  0  0  0  0  0  0  0  0  0  0
   -1.7387   -1.3340   -1.4768 H   0  0  0  0  0  0  0  0  0  0  0  0
    0.2877   -1.4964    0.5489 H   0  0  0  0  0  0  0  0  0  0  0  0
   -1.2186   -1.0699    1.5332 H   0  0  0  0  0  0  0  0  0  0  0  0
   -1.2287   -2.6314    0.5798 H   0  0  0  0  0  0  0  0  0  0  0  0
  1  2  1  0
  1  5  1  0
  1  6  1  0
  1 15  1  0
  2  3  1  0
  3  4  2  3
  4  7  1  0
  4  8  1  0
  9 10  1  0
 10 11  1  0
 10 13  1  0
 11 12  2  3
 11 14  1  0
 12 16  1  0
 12 17  1  0
M  RAD  1   9   2
M  END
>  <reaction>  (17) 
rmg_rxn_15680

>  <mol_properties>  (17) 
{"0": {"label": "*3", "atom_type": "Cs"}, "1": {"label": "*4", "atom_type": "O2s"}, "10": {"label": "*0", "atom_type": "Csc"}, "11": {"label": "*1", "atom_type": "Cs"}, "14": {"label": "*2", "atom_type": "H0"}}

>  <type>  (17) 
unop_13

>  <geom_source>  (17) 
Heuristics

$$$$

     RDKit          3D

 17 15  0  0  0  0  0  0  0  0999 V2000
    0.4308    1.7322    0.3571 C   0  0  0  0  0  3  0  0  0  0  0  0
   -0.2497    1.1482    1.4504 O   0  0  0  0  0  0  0  0  0  0  0  0
   -0.6623    2.1312    2.3177 N   0  0  0  0  0  0  0  0  0  0  0  0
   -1.2775    1.6567    3.3142 C   0  0  0  0  0  0  0  0  0  0  0  0
   -0.2247    2.4103   -0.1941 H   0  0  0  0  0  0  0  0  0  0  0  0
    1.3174    2.2746    0.6933 H   0  0  0  0  0  0  0  0  0  0  0  0
   -1.6362    2.3679    4.0462 H   0  0  0  0  0  0  0  0  0  0  0  0
   -1.4467    0.5900    3.4451 H   0  0  0  0  0  0  0  0  0  0  0  0
    0.4308   -2.4746   -2.9863 O   0  0  0  0  0  1  0  0  0  0  0  0
    0.4308   -2.4746   -1.7272 N   0  0  0  0  0  0  0  0  0  0  0  0
    0.4308   -1.4412   -0.9480 C   0  0  0  0  0  3  0  0  0  0  0  0
    0.4308   -0.0779   -1.5257 C   0  0  0  0  0  0  0  0  0  0  0  0
    0.4308   -3.3920   -1.2714 H   0  0  0  0  0  0  0  0  0  0  0  0
    0.4308   -1.6470    0.1127 H   0  0  0  0  0  0  0  0  0  0  0  0
    0.4308    0.8268   -0.5847 H   0  0  0  0  0  0  0  0  0  0  0  0
    1.3053    0.0644   -2.1665 H   0  0  0  0  0  0  0  0  0  0  0  0
   -0.4436    0.0644   -2.1665 H   0  0  0  0  0  0  0  0  0  0  0  0
  1  2  1  0
  1  5  1  0
  1  6  1  0
  2  3  1  0
  3  4  2  3
  4  7  1  0
  4  8  1  0
  9 10  1  0
 10 11  1  0
 10 13  1  0
 11 12  1  0
 11 14  1  0
 12 15  1  0
 12 16  1  0
 12 17  1  0
M  CHG  2   9  -1  11   1
M  RAD  1   1   2
M  END
>  <reaction>  (18) 
rmg_rxn_15680

>  <mol_properties>  (18) 
{"0": {"label": "*3", "atom_type": "Cs"}, "1": {"label": "*4", "atom_type": "O2s"}, "10": {"label": "*0", "atom_type": "Csc"}, "11": {"label": "*1", "atom_type": "Cs"}, "14": {"label": "*2", "atom_type": "H0"}}

>  <type>  (18) 
unop_14

>  <geom_source>  (18) 
Heuristics

$$$$

     RDKit          3D

 17 15  0  0  0  0  0  0  0  0999 V2000
   -0.6846    1.5067    0.6168 C   0  0  0  0  0  3  0  0  0  0  0  0
    0.4941    1.2818    1.3648 O   0  0  0  0  0  0  0  0  0  0  0  0
    0.9637    2.4751    1.8590 N   0  0  0  0  0  0  0  0  0  0  0  0
    2.0195    2.3250    2.5369 C   0  0  0  0  0  0  0  0  0  0  0  0
   -1.4678    1.9404    1.2427 H   0  0  0  0  0  0  0  0  0  0  0  0
   -0.4890    2.1659   -0.2320 H   0  0  0  0  0  0  0  0  0  0  0  0
    2.4540    3.2198    2.9621 H   0  0  0  0  0  0  0  0  0  0  0  0
    2.4815    1.3528    2.6948 H   0  0  0  0  0  0  0  0  0  0  0  0
   -0.6846   -2.7000   -2.7266 O   0  0  0  0  0  1  0  0  0  0  0  0
   -0.6846   -2.7000   -1.4675 N   0  0  0  0  0  0  0  0  0  0  0  0
   -0.6846   -1.6667   -0.6883 C   0  0  0  0  0  3  0  0  0  0  0  0
   -0.6846   -0.3034   -1.2660 C   0  0  0  0  0  0  0  0  0  0  0  0
   -0.6846   -3.6174   -1.0116 H   0  0  0  0  0  0  0  0  0  0  0  0
   -0.6846   -1.8724    0.3724 H   0  0  0  0  0  0  0  0  0  0  0  0
   -0.6846    0.6013   -0.3249 H   0  0  0  0  0  0  0  0  0  0  0  0
    0.1898   -0.1611   -1.9067 H   0  0  0  0  0  0  0  0  0  0  0  0
   -1.5591   -0.1611   -1.9067 H   0  0  0  0  0  0  0  0  0  0  0  0
  1  2  1  0
  1  5  1  0
  1  6  1  0
  2  3  1  0
  3  4  2  3
  4  7  1  0
  4  8  1  0
  9 10  1  0
 10 11  1  0
 10 13  1  0
 11 12  1  0
 11 14  1  0
 12 15  1  0
 12 16  1  0
 12 17  1  0
M  CHG  2   9  -1  11   1
M  RAD  1   1   2
M  END
>  <reaction>  (19) 
rmg_rxn_15680

>  <mol_properties>  (19) 
{"0": {"label": "*3", "atom_type": "Cs"}, "1": {"label": "*4", "atom_type": "O2s"}, "10": {"label": "*0", "atom_type": "Csc"}, "11": {"label": "*1", "atom_type": "Cs"}, "14": {"label": "*2", "atom_type": "H0"}}

>  <type>  (19) 
unop_15

>  <geom_source>  (19) 
Heuristics

$$$$

     RDKit          3D

 17 15  0  0  0  0  0  0  0  0999 V2000
    0.2198    0.8736    1.2042 C   0  0  0  0  0  3  0  0  0  0  0  0
   -0.4607    1.9890    0.6636 O   0  0  0  0  0  0  0  0  0  0  0  0
   -0.0338    3.1379    1.2853 N   0  0  0  0  0  0  0  0  0  0  0  0
   -0.6155    4.1652    0.8346 C   0  0  0  0  0  0  0  0  0  0  0  0
    1.2972    0.9587    1.0454 H   0  0  0  0  0  0  0  0  0  0  0  0
    0.0153    0.7711    2.2723 H   0  0  0  0  0  0  0  0  0  0  0  0
   -0.3343    5.1132    1.2733 H   0  0  0  0  0  0  0  0  0  0  0  0
   -1.3632    4.1168    0.0459 H   0  0  0  0  0  0  0  0  0  0  0  0
    0.2198   -3.3332   -2.1392 O   0  0  0  0  0  1  0  0  0  0  0  0
    0.2198   -3.3332   -0.8801 N   0  0  0  0  0  0  0  0  0  0  0  0
    0.2198   -2.2998   -0.1009 C   0  0  0  0  0  3  0  0  0  0  0  0
    0.2198   -0.9365   -0.6786 C   0  0  0  0  0  0  0  0  0  0  0  0
    0.2198   -4.2506   -0.4243 H   0  0  0  0  0  0  0  0  0  0  0  0
    0.2198   -2.5056    0.9598 H   0  0  0  0  0  0  0  0  0  0  0  0
    0.2198   -0.0318    0.2624 H   0  0  0  0  0  0  0  0  0  0  0  0
    1.0943   -0.7942   -1.3194 H   0  0  0  0  0  0  0  0  0  0  0  0
   -0.6546   -0.7942   -1.3194 H   0  0  0  0  0  0  0  0  0  0  0  0
  1  2  1  0
  1  5  1  0
  1  6  1  0
  2  3  1  0
  3  4  2  3
  4  7  1  0
  4  8  1  0
  9 10  1  0
 10 11  1  0
 10 13  1  0
 11 12  1  0
 11 14  1  0
 12 15  1  0
 12 16  1  0
 12 17  1  0
M  CHG  2   9  -1  11   1
M  RAD  1   1   2
M  END
>  <reaction>  (20) 
rmg_rxn_15680

>  <mol_properties>  (20) 
{"0": {"label": "*3", "atom_type": "Cs"}, "1": {"label": "*4", "atom_type": "O2s"}, "10": {"label": "*0", "atom_type": "Csc"}, "11": {"label": "*1", "atom_type": "Cs"}, "14": {"label": "*2", "atom_type": "H0"}}

>  <type>  (20) 
unop_16

>  <geom_source>  (20) 
Heuristics

$$$$

     RDKit          3D

 17 15  0  0  0  0  0  0  0  0999 V2000
    0.0000    1.8208    0.2493 C   0  0  0  0  0  3  0  0  0  0  0  0
    0.0000    1.1053    1.4690 O   0  0  0  0  0  0  0  0  0  0  0  0
   -0.0000    1.9871    2.5232 N   0  0  0  0  0  0  0  0  0  0  0  0
    0.0000    1.3929    3.6384 C   0  0  0  0  0  0  0  0  0  0  0  0
   -0.8921    2.4451    0.1626 H   0  0  0  0  0  0  0  0  0  0  0  0
    0.8921    2.4451    0.1626 H   0  0  0  0  0  0  0  0  0  0  0  0
   -0.0000    2.0184    4.5210 H   0  0  0  0  0  0  0  0  0  0  0  0
    0.0000    0.3084    3.7247 H   0  0  0  0  0  0  0  0  0  0  0  0
    0.0000   -2.3859   -3.0940 O   0  0  0  0  0  1  0  0  0  0  0  0
    0.0000   -2.3859   -1.8349 N   0  0  0  0  0  0  0  0  0  0  0  0
    0.0000   -1.3525   -1.0557 C   0  0  0  0  0  3  0  0  0  0  0  0
    0.0000    0.0107   -1.6335 C   0  0  0  0  0  0  0  0  0  0  0  0
    0.0000   -3.3033   -1.3791 H   0  0  0  0  0  0  0  0  0  0  0  0
    0.0000   -1.5583    0.0050 H   0  0  0  0  0  0  0  0  0  0  0  0
    0.0000    0.9154   -0.6924 H   0  0  0  0  0  0  0  0  0  0  0  0
    0.8744    0.1530   -2.2742 H   0  0  0  0  0  0  0  0  0  0  0  0
   -0.8744    0.1530   -2.2742 H   0  0  0  0  0  0  0  0  0  0  0  0
  1  2  1  0
  1  5  1  0
  1  6  1  0
  2  3  1  0
  3  4  2  3
  4  7  1  0
  4  8  1  0
  9 10  1  0
 10 11  1  0
 10 13  1  0
 11 12  1  0
 11 14  1  0
 12 15  1  0
 12 16  1  0
 12 17  1  0
M  CHG  2   9  -1  11   1
M  RAD  1   1   2
M  END
>  <reaction>  (21) 
rmg_rxn_15680

>  <mol_properties>  (21) 
{"0": {"label": "*3", "atom_type": "Cs"}, "1": {"label": "*4", "atom_type": "O2s"}, "10": {"label": "*0", "atom_type": "Csc"}, "11": {"label": "*1", "atom_type": "Cs"}, "14": {"label": "*2", "atom_type": "H0"}}

>  <type>  (21) 
unop_17

>  <geom_source>  (21) 
Heuristics

$$$$

     RDKit          3D

 17 15  0  0  0  0  0  0  0  0999 V2000
    1.9241   -0.5918    0.3292 O   0  0  0  0  0  0  0  0  0  0  0  0
   -2.5177   -0.9630    1.6301 O   0  0  0  0  0  1  0  0  0  0  0  0
   -2.7286    0.3213    1.1817 N   0  0  0  0  0  0  0  0  0  0  0  0
    2.5016    0.4298   -0.3891 N   0  0  0  0  0  0  0  0  0  0  0  0
    0.7600   -1.2379   -0.1566 C   0  0  0  0  0  0  0  0  0  0  0  0
   -2.2691    0.7190    0.0359 C   0  0  0  0  0  0  0  0  0  0  0  0
   -1.4871   -0.1952   -0.8509 C   0  0  0  0  0  0  0  0  0  0  0  0
    3.5628    1.0219    0.0495 C   0  0  0  0  0  0  0  0  0  0  0  0
    0.9769   -1.7187   -1.1335 H   0  0  0  0  0  0  0  0  0  0  0  0
    0.4406   -2.0139    0.5689 H   0  0  0  0  0  0  0  0  0  0  0  0
   -0.2128   -0.3519   -0.3046 H   0  0  0  0  0  0  0  0  0  0  0  0
   -2.4441    1.7389   -0.2854 H   0  0  0  0  0  0  0  0  0  0  0  0
   -3.2676    0.9850    1.7812 H   0  0  0  0  0  0  0  0  0  0  0  0
   -1.1349    0.3555   -1.7481 H   0  0  0  0  0  0  0  0  0  0  0  0
   -2.1243   -1.0457   -1.1722 H   0  0  0  0  0  0  0  0  0  0  0  0
    4.0128    0.7232    0.9880 H   0  0  0  0  0  0  0  0  0  0  0  0
    4.0074    1.8235   -0.5241 H   0  0  0  0  0  0  0  0  0  0  0  0
  1  5  1  0
  1  4  1  0
  2  3  1  0
  3  6  1  0
  3 13  1  0
  4  8  2  3
  5  9  1  0
  5 10  1  0
  5 11  1  0
  6  7  2  3
  6 12  1  0
  7 14  1  0
  7 15  1  0
  8 16  1  0
  8 17  1  0
M  RAD  1   2   2
M  END
>  <reaction>  (22) 
rmg_rxn_15680

>  <mol_properties>  (22) 
{"0": {"label": "*3", "atom_type": "Cs"}, "1": {"label": "*4", "atom_type": "O2s"}, "10": {"label": "*0", "atom_type": "Csc"}, "11": {"label": "*1", "atom_type": "Cs"}, "14": {"label": "*2", "atom_type": "H0"}}

>  <type>  (22) 
unop_18

>  <geom_source>  (22) 
AutoTST

$$$$

     RDKit          3D

 17 15  0  0  0  0  0  0  0  0999 V2000
   -0.4308    1.7322    0.3570 C   0  0  0  0  0  3  0  0  0  0  0  0
    0.2497    1.1482    1.4504 O   0  0  0  0  0  0  0  0  0  0  0  0
    0.6623    2.1312    2.3177 N   0  0  0  0  0  0  0  0  0  0  0  0
    1.2775    1.6567    3.3142 C   0  0  0  0  0  0  0  0  0  0  0  0
   -1.3174    2.2746    0.6933 H   0  0  0  0  0  0  0  0  0  0  0  0
    0.2247    2.4103   -0.1941 H   0  0  0  0  0  0  0  0  0  0  0  0
    1.6362    2.3679    4.0462 H   0  0  0  0  0  0  0  0  0  0  0  0
    1.4468    0.5900    3.4451 H   0  0  0  0  0  0  0  0  0  0  0  0
   -0.4308   -2.4746   -2.9863 O   0  0  0  0  0  1  0  0  0  0  0  0
   -0.4308   -2.4746   -1.7272 N   0  0  0  0  0  0  0  0  0  0  0  0
   -0.4308   -1.4412   -0.9480 C   0  0  0  0  0  3  0  0  0  0  0  0
   -0.4308   -0.0780   -1.5257 C   0  0  0  0  0  0  0  0  0  0  0  0
   -0.4308   -3.3920   -1.2714 H   0  0  0  0  0  0  0  0  0  0  0  0
   -0.4308   -1.6470    0.1127 H   0  0  0  0  0  0  0  0  0  0  0  0
   -0.4308    0.8268   -0.5847 H   0  0  0  0  0  0  0  0  0  0  0  0
    0.4436    0.0644   -2.1665 H   0  0  0  0  0  0  0  0  0  0  0  0
   -1.3053    0.0644   -2.1665 H   0  0  0  0  0  0  0  0  0  0  0  0
  1  2  1  0
  1  5  1  0
  1  6  1  0
  2  3  1  0
  3  4  2  3
  4  7  1  0
  4  8  1  0
  9 10  1  0
 10 11  1  0
 10 13  1  0
 11 12  1  0
 11 14  1  0
 12 15  1  0
 12 16  1  0
 12 17  1  0
M  CHG  2   9  -1  11   1
M  RAD  1   1   2
M  END
>  <reaction>  (23) 
rmg_rxn_15680

>  <mol_properties>  (23) 
{"0": {"label": "*3", "atom_type": "Cs"}, "1": {"label": "*4", "atom_type": "O2s"}, "10": {"label": "*0", "atom_type": "Csc"}, "11": {"label": "*1", "atom_type": "Cs"}, "14": {"label": "*2", "atom_type": "H0"}}

>  <type>  (23) 
unop_19

>  <geom_source>  (23) 
gaussian_log

$$$$
