
     RDKit          3D

 14 13  0  0  0  0  0  0  0  0999 V2000
    1.8106   -0.5953    0.5577 C   0  0  0  0  0  0  0  0  0  0  0  0
    0.5197    0.2064    0.6554 C   0  0  0  0  0  0  0  0  0  0  0  0
   -0.5206   -0.2080   -0.3788 C   0  0  0  0  0  0  0  0  0  0  0  0
   -1.8114    0.5937   -0.2812 C   0  0  0  0  0  0  0  0  0  0  0  0
    2.2725   -0.4752   -0.4251 H   0  0  0  0  0  0  0  0  0  0  0  0
    1.6214   -1.6612    0.7052 H   0  0  0  0  0  0  0  0  0  0  0  0
    2.5364   -0.2784    1.3084 H   0  0  0  0  0  0  0  0  0  0  0  0
    0.0930    0.0950    1.6574 H   0  0  0  0  0  0  0  0  0  0  0  0
    0.7393    1.2723    0.5354 H   0  0  0  0  0  0  0  0  0  0  0  0
   -0.7402   -1.2739   -0.2588 H   0  0  0  0  0  0  0  0  0  0  0  0
   -0.0938   -0.0965   -1.3808 H   0  0  0  0  0  0  0  0  0  0  0  0
   -1.6222    1.6596   -0.4287 H   0  0  0  0  0  0  0  0  0  0  0  0
   -2.2734    0.4736    0.7017 H   0  0  0  0  0  0  0  0  0  0  0  0
   -2.5373    0.2768   -1.0318 H   0  0  0  0  0  0  0  0  0  0  0  0
  1  2  1  0
  1  5  1  0
  1  6  1  0
  1  7  1  0
  2  3  1  0
  2  8  1  0
  2  9  1  0
  3  4  1  0
  3 10  1  0
  3 11  1  0
  4 12  1  0
  4 13  1  0
  4 14  1  0
M  END
>  <reaction>  (1) 
rmg_rxn_21

>  <mol_properties>  (1) 
{"2": {"label": "donator", "atom_type": "Cs"}, "10": {"label": "d_hydrogen", "atom_type": "H0"}}

>  <type>  (1) 
r1h

$$$$

     RDKit          3D

  9  8  0  0  0  0  0  0  0  0999 V2000
    1.3246   -0.8124   -0.0809 C   0  0  0  0  0  2  0  0  0  0  0  0
    0.4082    0.3080    0.1518 C   0  0  0  0  0  0  0  0  0  0  0  0
   -1.0545   -0.0277   -0.1520 C   0  0  0  0  0  0  0  0  0  0  0  0
    2.3933   -0.9471    0.0203 H   0  0  0  0  0  0  0  0  0  0  0  0
    0.4898    0.6406    1.1970 H   0  0  0  0  0  0  0  0  0  0  0  0
    0.7134    1.1680   -0.4624 H   0  0  0  0  0  0  0  0  0  0  0  0
   -1.4014   -0.8515    0.4727 H   0  0  0  0  0  0  0  0  0  0  0  0
   -1.1767   -0.3214   -1.1952 H   0  0  0  0  0  0  0  0  0  0  0  0
   -1.6915    0.8372    0.0370 H   0  0  0  0  0  0  0  0  0  0  0  0
  1  2  1  0
  1  4  1  0
  2  3  1  0
  2  5  1  0
  2  6  1  0
  3  7  1  0
  3  8  1  0
  3  9  1  0
M  RAD  1   1   3
M  END
>  <reaction>  (2) 
rmg_rxn_21

>  <mol_properties>  (2) 
{"0": {"label": "acceptor", "atom_type": "Cs"}}

>  <type>  (2) 
r2

$$$$

     RDKit          3D

 10  9  0  0  0  0  0  0  0  0999 V2000
    1.4352    0.2660   -0.1351 C   0  0  0  0  0  3  0  0  0  0  0  0
    0.2236   -0.3243    0.4850 C   0  0  0  0  0  0  0  0  0  0  0  0
   -0.8893    0.6872    0.7364 C   0  0  0  0  0  0  0  0  0  0  0  0
    2.3577   -0.2958   -0.1940 H   0  0  0  0  0  0  0  0  0  0  0  0
    1.3935    1.2286   -0.6287 H   0  0  0  0  0  0  0  0  0  0  0  0
   -0.1633   -1.1318   -0.1556 H   0  0  0  0  0  0  0  0  0  0  0  0
    0.4945   -0.8215    1.4240 H   0  0  0  0  0  0  0  0  0  0  0  0
   -1.1991    1.1627   -0.1967 H   0  0  0  0  0  0  0  0  0  0  0  0
   -1.7660    0.2103    1.1768 H   0  0  0  0  0  0  0  0  0  0  0  0
   -0.5545    1.4732    1.4159 H   0  0  0  0  0  0  0  0  0  0  0  0
  1  2  1  0
  1  4  1  0
  1  5  1  0
  2  3  1  0
  2  6  1  0
  2  7  1  0
  3  8  1  0
  3  9  1  0
  3 10  1  0
M  RAD  1   1   2
M  END
>  <reaction>  (3) 
rmg_rxn_21

>  <mol_properties>  (3) 
{"0": {"label": "acceptor", "atom_type": "Cs"}, "9": {"label": "a_hydrogen", "atom_type": "H0"}}

>  <type>  (3) 
r2h

$$$$

     RDKit          3D

 23 21  0  0  0  0  0  0  0  0999 V2000
    1.6584    0.2449    0.3690 C   0  0  0  0  0  2  0  0  0  0  0  0
    2.1455    1.0024   -0.8032 C   0  0  0  0  0  0  0  0  0  0  0  0
    1.0368    1.6918   -1.5962 C   0  0  0  0  0  0  0  0  0  0  0  0
    2.2986   -0.2375    1.1001 H   0  0  0  0  0  0  0  0  0  0  0  0
    2.8793    1.7535   -0.4779 H   0  0  0  0  0  0  0  0  0  0  0  0
    2.7011    0.3294   -1.4732 H   0  0  0  0  0  0  0  0  0  0  0  0
    0.4924    2.3982   -0.9670 H   0  0  0  0  0  0  0  0  0  0  0  0
    0.3192    0.9622   -1.9751 H   0  0  0  0  0  0  0  0  0  0  0  0
    1.4466    2.2388   -2.4463 H   0  0  0  0  0  0  0  0  0  0  0  0
   -0.9825   -1.6810   -1.1848 C   0  0  0  0  0  0  0  0  0  0  0  0
   -1.2776   -1.4735    0.2947 C   0  0  0  0  0  0  0  0  0  0  0  0
   -0.9691   -0.0740    0.7727 C   0  0  0  0  0  0  0  0  0  0  0  0
   -1.1901    0.1820    2.2427 C   0  0  0  0  0  0  0  0  0  0  0  0
    0.0757   -1.5083   -1.3937 H   0  0  0  0  0  0  0  0  0  0  0  0
   -1.5620   -0.9881   -1.7998 H   0  0  0  0  0  0  0  0  0  0  0  0
   -1.2278   -2.6955   -1.5024 H   0  0  0  0  0  0  0  0  0  0  0  0
   -2.3331   -1.6974    0.4950 H   0  0  0  0  0  0  0  0  0  0  0  0
   -0.7000   -2.1886    0.8897 H   0  0  0  0  0  0  0  0  0  0  0  0
   -1.4282    0.6888    0.1392 H   0  0  0  0  0  0  0  0  0  0  0  0
    0.2824    0.0979    0.5653 H   0  0  0  0  0  0  0  0  0  0  0  0
   -0.6211   -0.5246    2.8518 H   0  0  0  0  0  0  0  0  0  0  0  0
   -2.2462    0.0689    2.5092 H   0  0  0  0  0  0  0  0  0  0  0  0
   -0.8820    1.1906    2.5221 H   0  0  0  0  0  0  0  0  0  0  0  0
  1  2  1  0
  1  4  1  0
  2  3  1  0
  2  5  1  0
  2  6  1  0
  3  7  1  0
  3  8  1  0
  3  9  1  0
 10 11  1  0
 10 14  1  0
 10 15  1  0
 10 16  1  0
 11 12  1  0
 11 17  1  0
 11 18  1  0
 12 13  1  0
 12 19  1  0
 12 20  1  0
 13 21  1  0
 13 22  1  0
 13 23  1  0
M  RAD  1   1   3
M  END
>  <reaction>  (4) 
rmg_rxn_21

>  <mol_properties>  (4) 
{"0": {"label": "*3", "atom_type": "Cs"}, "1": {"label": "*4", "atom_type": "Cs"}, "10": {"label": "*0", "atom_type": "Cs"}, "11": {"label": "*1", "atom_type": "Cs"}, "19": {"label": "*2", "atom_type": "H0"}}

>  <type>  (4) 
ts

$$$$

     RDKit          3D

 23 21  0  0  0  0  0  0  0  0999 V2000
    1.1393    0.6092   -0.2021 C   0  0  0  0  0  3  0  0  0  0  0  0
    0.9822    1.8642   -0.9775 C   0  0  0  0  0  0  0  0  0  0  0  0
    1.7076    3.0568   -0.3641 C   0  0  0  0  0  0  0  0  0  0  0  0
    1.9315    0.5031    0.5280 H   0  0  0  0  0  0  0  0  0  0  0  0
    1.3471    1.7119   -2.0050 H   0  0  0  0  0  0  0  0  0  0  0  0
   -0.0833    2.0955   -1.0935 H   0  0  0  0  0  0  0  0  0  0  0  0
    2.7781    2.8577   -0.2792 H   0  0  0  0  0  0  0  0  0  0  0  0
    1.3278    3.2705    0.6368 H   0  0  0  0  0  0  0  0  0  0  0  0
    1.5806    3.9534   -0.9724 H   0  0  0  0  0  0  0  0  0  0  0  0
   -0.9483   -2.0955   -1.4459 C   0  0  0  0  0  0  0  0  0  0  0  0
   -0.9483   -2.0955    0.0768 C   0  0  0  0  0  0  0  0  0  0  0  0
   -0.9483   -0.6931    0.6742 C   0  0  0  0  0  3  0  0  0  0  0  0
   -0.9483   -0.6931    2.1969 C   0  0  0  0  0  0  0  0  0  0  0  0
   -0.0668   -1.5821   -1.8372 H   0  0  0  0  0  0  0  0  0  0  0  0
   -1.8298   -1.5821   -1.8372 H   0  0  0  0  0  0  0  0  0  0  0  0
   -0.9483   -3.1106   -1.8462 H   0  0  0  0  0  0  0  0  0  0  0  0
   -1.8233   -2.6414    0.4441 H   0  0  0  0  0  0  0  0  0  0  0  0
   -0.0733   -2.6414    0.4441 H   0  0  0  0  0  0  0  0  0  0  0  0
   -1.8233   -0.1472    0.3069 H   0  0  0  0  0  0  0  0  0  0  0  0
    0.1017   -0.0380    0.2334 H   0  0  0  0  0  0  0  0  0  0  0  0
   -0.0668   -1.2065    2.5883 H   0  0  0  0  0  0  0  0  0  0  0  0
   -1.8298   -1.2065    2.5883 H   0  0  0  0  0  0  0  0  0  0  0  0
   -0.9483    0.3220    2.5973 H   0  0  0  0  0  0  0  0  0  0  0  0
  1  2  1  0
  1  4  1  0
  1 20  1  0
  2  3  1  0
  2  5  1  0
  2  6  1  0
  3  7  1  0
  3  8  1  0
  3  9  1  0
 10 11  1  0
 10 14  1  0
 10 15  1  0
 10 16  1  0
 11 12  1  0
 11 17  1  0
 11 18  1  0
 12 13  1  0
 12 19  1  0
 13 21  1  0
 13 22  1  0
 13 23  1  0
M  RAD  2   1   2  12   2
M  END
>  <reaction>  (5) 
rmg_rxn_21

>  <mol_properties>  (5) 
{"0": {"label": "*3", "atom_type": "Cs"}, "1": {"label": "*4", "atom_type": "Cs"}, "10": {"label": "*0", "atom_type": "Cs"}, "11": {"label": "*1", "atom_type": "Cs"}, "19": {"label": "*2", "atom_type": "H0"}}

>  <type>  (5) 
unop_1

>  <geom_source>  (5) 
Heuristics

$$$$

     RDKit          3D

 23 21  0  0  0  0  0  0  0  0999 V2000
    0.9336    1.0600    0.1563 C   0  0  0  0  0  3  0  0  0  0  0  0
    1.5069    0.7666   -1.1801 C   0  0  0  0  0  0  0  0  0  0  0  0
    2.1831    1.9676   -1.8324 C   0  0  0  0  0  0  0  0  0  0  0  0
    1.2446    1.9339    0.7143 H   0  0  0  0  0  0  0  0  0  0  0  0
    2.2355   -0.0545   -1.0976 H   0  0  0  0  0  0  0  0  0  0  0  0
    0.7233    0.3762   -1.8403 H   0  0  0  0  0  0  0  0  0  0  0  0
    2.9941    2.3438   -1.2050 H   0  0  0  0  0  0  0  0  0  0  0  0
    1.4714    2.7818   -1.9810 H   0  0  0  0  0  0  0  0  0  0  0  0
    2.6048    1.7055   -2.8038 H   0  0  0  0  0  0  0  0  0  0  0  0
   -1.1540   -1.6447   -1.0874 C   0  0  0  0  0  0  0  0  0  0  0  0
   -1.1540   -1.6447    0.4353 C   0  0  0  0  0  0  0  0  0  0  0  0
   -1.1540   -0.2423    1.0326 C   0  0  0  0  0  3  0  0  0  0  0  0
   -1.1540   -0.2423    2.5553 C   0  0  0  0  0  0  0  0  0  0  0  0
   -0.2725   -1.1314   -1.4788 H   0  0  0  0  0  0  0  0  0  0  0  0
   -2.0355   -1.1314   -1.4788 H   0  0  0  0  0  0  0  0  0  0  0  0
   -1.1540   -2.6598   -1.4878 H   0  0  0  0  0  0  0  0  0  0  0  0
   -2.0290   -2.1906    0.8026 H   0  0  0  0  0  0  0  0  0  0  0  0
   -0.2790   -2.1906    0.8026 H   0  0  0  0  0  0  0  0  0  0  0  0
   -2.0290    0.3035    0.6653 H   0  0  0  0  0  0  0  0  0  0  0  0
   -0.1039    0.4127    0.5918 H   0  0  0  0  0  0  0  0  0  0  0  0
   -0.2725   -0.7557    2.9467 H   0  0  0  0  0  0  0  0  0  0  0  0
   -2.0355   -0.7557    2.9467 H   0  0  0  0  0  0  0  0  0  0  0  0
   -1.1540    0.7728    2.9557 H   0  0  0  0  0  0  0  0  0  0  0  0
  1  2  1  0
  1  4  1  0
  1 20  1  0
  2  3  1  0
  2  5  1  0
  2  6  1  0
  3  7  1  0
  3  8  1  0
  3  9  1  0
 10 11  1  0
 10 14  1  0
 10 15  1  0
 10 16  1  0
 11 12  1  0
 11 17  1  0
 11 18  1  0
 12 13  1  0
 12 19  1  0
 13 21  1  0
 13 22  1  0
 13 23  1  0
M  RAD  2   1   2  12   2
M  END
>  <reaction>  (6) 
rmg_rxn_21

>  <mol_properties>  (6) 
{"0": {"label": "*3", "atom_type": "Cs"}, "1": {"label": "*4", "atom_type": "Cs"}, "10": {"label": "*0", "atom_type": "Cs"}, "11": {"label": "*1", "atom_type": "Cs"}, "19": {"label": "*2", "atom_type": "H0"}}

>  <type>  (6) 
unop_2

>  <geom_source>  (6) 
Heuristics

$$$$

     RDKit          3D

 23 21  0  0  0  0  0  0  0  0999 V2000
    1.0311    0.6196   -0.3789 C   0  0  0  0  0  3  0  0  0  0  0  0
    0.9937    2.0934   -0.5439 C   0  0  0  0  0  0  0  0  0  0  0  0
    2.1943    2.8078    0.0671 C   0  0  0  0  0  0  0  0  0  0  0  0
    1.9552    0.1115   -0.1342 H   0  0  0  0  0  0  0  0  0  0  0  0
    0.9335    2.3440   -1.6142 H   0  0  0  0  0  0  0  0  0  0  0  0
    0.0661    2.4895   -0.1141 H   0  0  0  0  0  0  0  0  0  0  0  0
    3.1254    2.4530   -0.3802 H   0  0  0  0  0  0  0  0  0  0  0  0
    2.2501    2.6254    1.1419 H   0  0  0  0  0  0  0  0  0  0  0  0
    2.1362    3.8857   -0.0904 H   0  0  0  0  0  0  0  0  0  0  0  0
   -1.0564   -2.0851   -1.6226 C   0  0  0  0  0  0  0  0  0  0  0  0
   -1.0564   -2.0851   -0.0999 C   0  0  0  0  0  0  0  0  0  0  0  0
   -1.0564   -0.6828    0.4974 C   0  0  0  0  0  3  0  0  0  0  0  0
   -1.0564   -0.6828    2.0201 C   0  0  0  0  0  0  0  0  0  0  0  0
   -0.1749   -1.5718   -2.0140 H   0  0  0  0  0  0  0  0  0  0  0  0
   -1.9379   -1.5718   -2.0140 H   0  0  0  0  0  0  0  0  0  0  0  0
   -1.0564   -3.1002   -2.0230 H   0  0  0  0  0  0  0  0  0  0  0  0
   -1.9315   -2.6310    0.2674 H   0  0  0  0  0  0  0  0  0  0  0  0
   -0.1814   -2.6310    0.2674 H   0  0  0  0  0  0  0  0  0  0  0  0
   -1.9315   -0.1369    0.1301 H   0  0  0  0  0  0  0  0  0  0  0  0
   -0.0064   -0.0277    0.0566 H   0  0  0  0  0  0  0  0  0  0  0  0
   -0.1749   -1.1961    2.4115 H   0  0  0  0  0  0  0  0  0  0  0  0
   -1.9379   -1.1961    2.4115 H   0  0  0  0  0  0  0  0  0  0  0  0
   -1.0564    0.3324    2.4205 H   0  0  0  0  0  0  0  0  0  0  0  0
  1  2  1  0
  1  4  1  0
  1 20  1  0
  2  3  1  0
  2  5  1  0
  2  6  1  0
  3  7  1  0
  3  8  1  0
  3  9  1  0
 10 11  1  0
 10 14  1  0
 10 15  1  0
 10 16  1  0
 11 12  1  0
 11 17  1  0
 11 18  1  0
 12 13  1  0
 12 19  1  0
 13 21  1  0
 13 22  1  0
 13 23  1  0
M  RAD  2   1   2  12   2
M  END
>  <reaction>  (7) 
rmg_rxn_21

>  <mol_properties>  (7) 
{"0": {"label": "*3", "atom_type": "Cs"}, "1": {"label": "*4", "atom_type": "Cs"}, "10": {"label": "*0", "atom_type": "Cs"}, "11": {"label": "*1", "atom_type": "Cs"}, "19": {"label": "*2", "atom_type": "H0"}}

>  <type>  (7) 
unop_3

>  <geom_source>  (7) 
Heuristics

$$$$

     RDKit          3D

 23 21  0  0  0  0  0  0  0  0999 V2000
    0.6412    1.1375   -0.3955 C   0  0  0  0  0  3  0  0  0  0  0  0
    2.0137    0.6408   -0.1303 C   0  0  0  0  0  0  0  0  0  0  0  0
    3.0876    1.7163   -0.2530 C   0  0  0  0  0  0  0  0  0  0  0  0
    0.4184    2.1964   -0.3653 H   0  0  0  0  0  0  0  0  0  0  0  0
    2.0593    0.2015    0.8781 H   0  0  0  0  0  0  0  0  0  0  0  0
    2.2417   -0.1922   -0.8059 H   0  0  0  0  0  0  0  0  0  0  0  0
    2.8970    2.5357    0.4435 H   0  0  0  0  0  0  0  0  0  0  0  0
    3.1069    2.1337   -1.2615 H   0  0  0  0  0  0  0  0  0  0  0  0
    4.0778    1.3141   -0.0345 H   0  0  0  0  0  0  0  0  0  0  0  0
   -1.4464   -1.5672   -1.6393 C   0  0  0  0  0  0  0  0  0  0  0  0
   -1.4464   -1.5672   -0.1166 C   0  0  0  0  0  0  0  0  0  0  0  0
   -1.4464   -0.1648    0.4808 C   0  0  0  0  0  3  0  0  0  0  0  0
   -1.4464   -0.1648    2.0035 C   0  0  0  0  0  0  0  0  0  0  0  0
   -0.5649   -1.0539   -2.0307 H   0  0  0  0  0  0  0  0  0  0  0  0
   -2.3279   -1.0539   -2.0307 H   0  0  0  0  0  0  0  0  0  0  0  0
   -1.4464   -2.5823   -2.0397 H   0  0  0  0  0  0  0  0  0  0  0  0
   -2.3214   -2.1131    0.2507 H   0  0  0  0  0  0  0  0  0  0  0  0
   -0.5713   -2.1131    0.2507 H   0  0  0  0  0  0  0  0  0  0  0  0
   -2.3214    0.3810    0.1135 H   0  0  0  0  0  0  0  0  0  0  0  0
   -0.3963    0.4902    0.0400 H   0  0  0  0  0  0  0  0  0  0  0  0
   -0.5649   -0.6782    2.3948 H   0  0  0  0  0  0  0  0  0  0  0  0
   -2.3279   -0.6782    2.3948 H   0  0  0  0  0  0  0  0  0  0  0  0
   -1.4464    0.8503    2.4038 H   0  0  0  0  0  0  0  0  0  0  0  0
  1  2  1  0
  1  4  1  0
  1 20  1  0
  2  3  1  0
  2  5  1  0
  2  6  1  0
  3  7  1  0
  3  8  1  0
  3  9  1  0
 10 11  1  0
 10 14  1  0
 10 15  1  0
 10 16  1  0
 11 12  1  0
 11 17  1  0
 11 18  1  0
 12 13  1  0
 12 19  1  0
 13 21  1  0
 13 22  1  0
 13 23  1  0
M  RAD  2   1   2  12   2
M  END
>  <reaction>  (8) 
rmg_rxn_21

>  <mol_properties>  (8) 
{"0": {"label": "*3", "atom_type": "Cs"}, "1": {"label": "*4", "atom_type": "Cs"}, "10": {"label": "*0", "atom_type": "Cs"}, "11": {"label": "*1", "atom_type": "Cs"}, "19": {"label": "*2", "atom_type": "H0"}}

>  <type>  (8) 
unop_4

>  <geom_source>  (8) 
Heuristics

$$$$

     RDKit          3D

 23 21  0  0  0  0  0  0  0  0999 V2000
    0.9190    0.6723   -0.3963 C   0  0  0  0  0  3  0  0  0  0  0  0
    1.1741    2.0717    0.0250 C   0  0  0  0  0  0  0  0  0  0  0  0
    2.5626    2.5793   -0.3487 C   0  0  0  0  0  0  0  0  0  0  0  0
    1.5348    0.1982   -1.1499 H   0  0  0  0  0  0  0  0  0  0  0  0
    0.4174    2.7356   -0.4206 H   0  0  0  0  0  0  0  0  0  0  0  0
    1.0219    2.1651    1.1068 H   0  0  0  0  0  0  0  0  0  0  0  0
    2.7153    2.5309   -1.4290 H   0  0  0  0  0  0  0  0  0  0  0  0
    3.3384    1.9749    0.1250 H   0  0  0  0  0  0  0  0  0  0  0  0
    2.7030    3.6151   -0.0364 H   0  0  0  0  0  0  0  0  0  0  0  0
   -1.1686   -2.0324   -1.6400 C   0  0  0  0  0  0  0  0  0  0  0  0
   -1.1686   -2.0324   -0.1173 C   0  0  0  0  0  0  0  0  0  0  0  0
   -1.1686   -0.6300    0.4800 C   0  0  0  0  0  3  0  0  0  0  0  0
   -1.1686   -0.6300    2.0027 C   0  0  0  0  0  0  0  0  0  0  0  0
   -0.2870   -1.5190   -2.0314 H   0  0  0  0  0  0  0  0  0  0  0  0
   -2.0501   -1.5190   -2.0314 H   0  0  0  0  0  0  0  0  0  0  0  0
   -1.1686   -3.0475   -2.0404 H   0  0  0  0  0  0  0  0  0  0  0  0
   -2.0436   -2.5783    0.2500 H   0  0  0  0  0  0  0  0  0  0  0  0
   -0.2935   -2.5783    0.2500 H   0  0  0  0  0  0  0  0  0  0  0  0
   -2.0436   -0.0841    0.1127 H   0  0  0  0  0  0  0  0  0  0  0  0
   -0.1185    0.0251    0.0393 H   0  0  0  0  0  0  0  0  0  0  0  0
   -0.2870   -1.1434    2.3941 H   0  0  0  0  0  0  0  0  0  0  0  0
   -2.0501   -1.1434    2.3941 H   0  0  0  0  0  0  0  0  0  0  0  0
   -1.1686    0.3851    2.4031 H   0  0  0  0  0  0  0  0  0  0  0  0
  1  2  1  0
  1  4  1  0
  1 20  1  0
  2  3  1  0
  2  5  1  0
  2  6  1  0
  3  7  1  0
  3  8  1  0
  3  9  1  0
 10 11  1  0
 10 14  1  0
 10 15  1  0
 10 16  1  0
 11 12  1  0
 11 17  1  0
 11 18  1  0
 12 13  1  0
 12 19  1  0
 13 21  1  0
 13 22  1  0
 13 23  1  0
M  RAD  2   1   2  12   2
M  END
>  <reaction>  (9) 
rmg_rxn_21

>  <mol_properties>  (9) 
{"0": {"label": "*3", "atom_type": "Cs"}, "1": {"label": "*4", "atom_type": "Cs"}, "10": {"label": "*0", "atom_type": "Cs"}, "11": {"label": "*1", "atom_type": "Cs"}, "19": {"label": "*2", "atom_type": "H0"}}

>  <type>  (9) 
unop_5

>  <geom_source>  (9) 
Heuristics

$$$$

     RDKit          3D

 23 21  0  0  0  0  0  0  0  0999 V2000
    0.7046    0.9746   -0.5280 C   0  0  0  0  0  3  0  0  0  0  0  0
    1.9919    0.9314    0.2082 C   0  0  0  0  0  0  0  0  0  0  0  0
    2.8257    2.1990    0.0566 C   0  0  0  0  0  0  0  0  0  0  0  0
    0.2874    1.9159   -0.8623 H   0  0  0  0  0  0  0  0  0  0  0  0
    1.8002    0.7536    1.2776 H   0  0  0  0  0  0  0  0  0  0  0  0
    2.5741    0.0612   -0.1173 H   0  0  0  0  0  0  0  0  0  0  0  0
    2.2742    3.0710    0.4149 H   0  0  0  0  0  0  0  0  0  0  0  0
    3.0819    2.3735   -0.9900 H   0  0  0  0  0  0  0  0  0  0  0  0
    3.7542    2.1328    0.6255 H   0  0  0  0  0  0  0  0  0  0  0  0
   -1.3830   -1.7301   -1.7718 C   0  0  0  0  0  0  0  0  0  0  0  0
   -1.3830   -1.7301   -0.2491 C   0  0  0  0  0  0  0  0  0  0  0  0
   -1.3830   -0.3277    0.3483 C   0  0  0  0  0  3  0  0  0  0  0  0
   -1.3830   -0.3277    1.8710 C   0  0  0  0  0  0  0  0  0  0  0  0
   -0.5015   -1.2168   -2.1631 H   0  0  0  0  0  0  0  0  0  0  0  0
   -2.2645   -1.2168   -2.1631 H   0  0  0  0  0  0  0  0  0  0  0  0
   -1.3830   -2.7452   -2.1721 H   0  0  0  0  0  0  0  0  0  0  0  0
   -2.2580   -2.2760    0.1182 H   0  0  0  0  0  0  0  0  0  0  0  0
   -0.5080   -2.2760    0.1182 H   0  0  0  0  0  0  0  0  0  0  0  0
   -2.2580    0.2181   -0.0190 H   0  0  0  0  0  0  0  0  0  0  0  0
   -0.3329    0.3273   -0.0925 H   0  0  0  0  0  0  0  0  0  0  0  0
   -0.5015   -0.8411    2.2624 H   0  0  0  0  0  0  0  0  0  0  0  0
   -2.2645   -0.8411    2.2624 H   0  0  0  0  0  0  0  0  0  0  0  0
   -1.3830    0.6874    2.2714 H   0  0  0  0  0  0  0  0  0  0  0  0
  1  2  1  0
  1  4  1  0
  1 20  1  0
  2  3  1  0
  2  5  1  0
  2  6  1  0
  3  7  1  0
  3  8  1  0
  3  9  1  0
 10 11  1  0
 10 14  1  0
 10 15  1  0
 10 16  1  0
 11 12  1  0
 11 17  1  0
 11 18  1  0
 12 13  1  0
 12 19  1  0
 13 21  1  0
 13 22  1  0
 13 23  1  0
M  RAD  2   1   2  12   2
M  END
>  <reaction>  (10) 
rmg_rxn_21

>  <mol_properties>  (10) 
{"0": {"label": "*3", "atom_type": "Cs"}, "1": {"label": "*4", "atom_type": "Cs"}, "10": {"label": "*0", "atom_type": "Cs"}, "11": {"label": "*1", "atom_type": "Cs"}, "19": {"label": "*2", "atom_type": "H0"}}

>  <type>  (10) 
unop_6

>  <geom_source>  (10) 
Heuristics

$$$$

     RDKit          3D

 23 21  0  0  0  0  0  0  0  0999 V2000
    0.8146    0.8020   -0.5400 C   0  0  0  0  0  3  0  0  0  0  0  0
    1.8345    1.3256    0.4015 C   0  0  0  0  0  0  0  0  0  0  0  0
    2.4686    2.6365   -0.0508 C   0  0  0  0  0  0  0  0  0  0  0  0
    0.3658    1.4450   -1.2864 H   0  0  0  0  0  0  0  0  0  0  0  0
    1.3815    1.4699    1.3944 H   0  0  0  0  0  0  0  0  0  0  0  0
    2.6133    0.5701    0.5596 H   0  0  0  0  0  0  0  0  0  0  0  0
    1.7096    3.4121   -0.1738 H   0  0  0  0  0  0  0  0  0  0  0  0
    2.9770    2.5126   -1.0088 H   0  0  0  0  0  0  0  0  0  0  0  0
    3.1991    2.9947    0.6759 H   0  0  0  0  0  0  0  0  0  0  0  0
   -1.2730   -1.9027   -1.7838 C   0  0  0  0  0  0  0  0  0  0  0  0
   -1.2730   -1.9027   -0.2611 C   0  0  0  0  0  0  0  0  0  0  0  0
   -1.2730   -0.5003    0.3363 C   0  0  0  0  0  3  0  0  0  0  0  0
   -1.2730   -0.5003    1.8590 C   0  0  0  0  0  0  0  0  0  0  0  0
   -0.3914   -1.3893   -2.1752 H   0  0  0  0  0  0  0  0  0  0  0  0
   -2.1545   -1.3893   -2.1752 H   0  0  0  0  0  0  0  0  0  0  0  0
   -1.2730   -2.9178   -2.1842 H   0  0  0  0  0  0  0  0  0  0  0  0
   -2.1480   -2.4486    0.1062 H   0  0  0  0  0  0  0  0  0  0  0  0
   -0.3979   -2.4486    0.1062 H   0  0  0  0  0  0  0  0  0  0  0  0
   -2.1480    0.0456   -0.0310 H   0  0  0  0  0  0  0  0  0  0  0  0
   -0.2229    0.1548   -0.1045 H   0  0  0  0  0  0  0  0  0  0  0  0
   -0.3914   -1.0137    2.2503 H   0  0  0  0  0  0  0  0  0  0  0  0
   -2.1545   -1.0137    2.2503 H   0  0  0  0  0  0  0  0  0  0  0  0
   -1.2730    0.5148    2.2593 H   0  0  0  0  0  0  0  0  0  0  0  0
  1  2  1  0
  1  4  1  0
  1 20  1  0
  2  3  1  0
  2  5  1  0
  2  6  1  0
  3  7  1  0
  3  8  1  0
  3  9  1  0
 10 11  1  0
 10 14  1  0
 10 15  1  0
 10 16  1  0
 11 12  1  0
 11 17  1  0
 11 18  1  0
 12 13  1  0
 12 19  1  0
 13 21  1  0
 13 22  1  0
 13 23  1  0
M  RAD  2   1   2  12   2
M  END
>  <reaction>  (11) 
rmg_rxn_21

>  <mol_properties>  (11) 
{"0": {"label": "*3", "atom_type": "Cs"}, "1": {"label": "*4", "atom_type": "Cs"}, "10": {"label": "*0", "atom_type": "Cs"}, "11": {"label": "*1", "atom_type": "Cs"}, "19": {"label": "*2", "atom_type": "H0"}}

>  <type>  (11) 
unop_7

>  <geom_source>  (11) 
Heuristics

$$$$

     RDKit          3D

 23 21  0  0  0  0  0  0  0  0999 V2000
    1.1560    0.7025    0.0030 C   0  0  0  0  0  3  0  0  0  0  0  0
    1.0842    1.5038   -1.2434 C   0  0  0  0  0  0  0  0  0  0  0  0
    1.5405    2.9482   -1.0688 C   0  0  0  0  0  0  0  0  0  0  0  0
    1.7575    1.0315    0.8408 H   0  0  0  0  0  0  0  0  0  0  0  0
    1.6947    1.0266   -2.0254 H   0  0  0  0  0  0  0  0  0  0  0  0
    0.0616    1.4813   -1.6383 H   0  0  0  0  0  0  0  0  0  0  0  0
    2.5727    2.9885   -0.7142 H   0  0  0  0  0  0  0  0  0  0  0  0
    0.9168    3.4679   -0.3391 H   0  0  0  0  0  0  0  0  0  0  0  0
    1.4879    3.4969   -2.0103 H   0  0  0  0  0  0  0  0  0  0  0  0
   -0.9316   -2.0022   -1.2408 C   0  0  0  0  0  0  0  0  0  0  0  0
   -0.9316   -2.0022    0.2819 C   0  0  0  0  0  0  0  0  0  0  0  0
   -0.9316   -0.5999    0.8793 C   0  0  0  0  0  3  0  0  0  0  0  0
   -0.9316   -0.5999    2.4019 C   0  0  0  0  0  0  0  0  0  0  0  0
   -0.0500   -1.4889   -1.6322 H   0  0  0  0  0  0  0  0  0  0  0  0
   -1.8131   -1.4889   -1.6322 H   0  0  0  0  0  0  0  0  0  0  0  0
   -0.9316   -3.0173   -1.6412 H   0  0  0  0  0  0  0  0  0  0  0  0
   -1.8066   -2.5481    0.6492 H   0  0  0  0  0  0  0  0  0  0  0  0
   -0.0565   -2.5481    0.6492 H   0  0  0  0  0  0  0  0  0  0  0  0
   -1.8066   -0.0540    0.5119 H   0  0  0  0  0  0  0  0  0  0  0  0
    0.1185    0.0552    0.4385 H   0  0  0  0  0  0  0  0  0  0  0  0
   -0.0500   -1.1132    2.7933 H   0  0  0  0  0  0  0  0  0  0  0  0
   -1.8131   -1.1132    2.7933 H   0  0  0  0  0  0  0  0  0  0  0  0
   -0.9316    0.4152    2.8023 H   0  0  0  0  0  0  0  0  0  0  0  0
  1  2  1  0
  1  4  1  0
  1 20  1  0
  2  3  1  0
  2  5  1  0
  2  6  1  0
  3  7  1  0
  3  8  1  0
  3  9  1  0
 10 11  1  0
 10 14  1  0
 10 15  1  0
 10 16  1  0
 11 12  1  0
 11 17  1  0
 11 18  1  0
 12 13  1  0
 12 19  1  0
 13 21  1  0
 13 22  1  0
 13 23  1  0
M  RAD  2   1   2  12   2
M  END
>  <reaction>  (12) 
rmg_rxn_21

>  <mol_properties>  (12) 
{"0": {"label": "*3", "atom_type": "Cs"}, "1": {"label": "*4", "atom_type": "Cs"}, "10": {"label": "*0", "atom_type": "Cs"}, "11": {"label": "*1", "atom_type": "Cs"}, "19": {"label": "*2", "atom_type": "H0"}}

>  <type>  (12) 
unop_8

>  <geom_source>  (12) 
Heuristics

$$$$

     RDKit          3D

 23 21  0  0  0  0  0  0  0  0999 V2000
    0.6619    1.2250   -0.1816 C   0  0  0  0  0  3  0  0  0  0  0  0
    1.9148    0.5093   -0.5268 C   0  0  0  0  0  0  0  0  0  0  0  0
    3.0722    1.4377   -0.8781 C   0  0  0  0  0  0  0  0  0  0  0  0
    0.6776    2.2730    0.0891 H   0  0  0  0  0  0  0  0  0  0  0  0
    2.2148   -0.1365    0.3127 H   0  0  0  0  0  0  0  0  0  0  0  0
    1.7277   -0.1833   -1.3560 H   0  0  0  0  0  0  0  0  0  0  0  0
    3.2981    2.1078   -0.0458 H   0  0  0  0  0  0  0  0  0  0  0  0
    2.8275    2.0539   -1.7453 H   0  0  0  0  0  0  0  0  0  0  0  0
    3.9768    0.8732   -1.1089 H   0  0  0  0  0  0  0  0  0  0  0  0
   -1.4257   -1.4797   -1.4254 C   0  0  0  0  0  0  0  0  0  0  0  0
   -1.4257   -1.4797    0.0973 C   0  0  0  0  0  0  0  0  0  0  0  0
   -1.4257   -0.0774    0.6947 C   0  0  0  0  0  3  0  0  0  0  0  0
   -1.4257   -0.0774    2.2174 C   0  0  0  0  0  0  0  0  0  0  0  0
   -0.5442   -0.9664   -1.8168 H   0  0  0  0  0  0  0  0  0  0  0  0
   -2.3072   -0.9664   -1.8168 H   0  0  0  0  0  0  0  0  0  0  0  0
   -1.4257   -2.4948   -1.8258 H   0  0  0  0  0  0  0  0  0  0  0  0
   -2.3007   -2.0256    0.4646 H   0  0  0  0  0  0  0  0  0  0  0  0
   -0.5506   -2.0256    0.4646 H   0  0  0  0  0  0  0  0  0  0  0  0
   -2.3007    0.4685    0.3273 H   0  0  0  0  0  0  0  0  0  0  0  0
   -0.3756    0.5777    0.2539 H   0  0  0  0  0  0  0  0  0  0  0  0
   -0.5442   -0.5907    2.6087 H   0  0  0  0  0  0  0  0  0  0  0  0
   -2.3072   -0.5907    2.6087 H   0  0  0  0  0  0  0  0  0  0  0  0
   -1.4257    0.9377    2.6177 H   0  0  0  0  0  0  0  0  0  0  0  0
  1  2  1  0
  1  4  1  0
  1 20  1  0
  2  3  1  0
  2  5  1  0
  2  6  1  0
  3  7  1  0
  3  8  1  0
  3  9  1  0
 10 11  1  0
 10 14  1  0
 10 15  1  0
 10 16  1  0
 11 12  1  0
 11 17  1  0
 11 18  1  0
 12 13  1  0
 12 19  1  0
 13 21  1  0
 13 22  1  0
 13 23  1  0
M  RAD  2   1   2  12   2
M  END
>  <reaction>  (13) 
rmg_rxn_21

>  <mol_properties>  (13) 
{"0": {"label": "*3", "atom_type": "Cs"}, "1": {"label": "*4", "atom_type": "Cs"}, "10": {"label": "*0", "atom_type": "Cs"}, "11": {"label": "*1", "atom_type": "Cs"}, "19": {"label": "*2", "atom_type": "H0"}}

>  <type>  (13) 
unop_9

>  <geom_source>  (13) 
Heuristics

$$$$

     RDKit          3D

 23 21  0  0  0  0  0  0  0  0999 V2000
    1.0793    0.8720    0.1416 C   0  0  0  0  0  3  0  0  0  0  0  0
    1.2748    1.1066   -1.3102 C   0  0  0  0  0  0  0  0  0  0  0  0
    1.7223    2.5252   -1.6455 C   0  0  0  0  0  0  0  0  0  0  0  0
    1.5109    1.5408    0.8752 H   0  0  0  0  0  0  0  0  0  0  0  0
    2.0163    0.3941   -1.7032 H   0  0  0  0  0  0  0  0  0  0  0  0
    0.3503    0.8701   -1.8501 H   0  0  0  0  0  0  0  0  0  0  0  0
    2.6646    2.7625   -1.1469 H   0  0  0  0  0  0  0  0  0  0  0  0
    0.9792    3.2551   -1.3188 H   0  0  0  0  0  0  0  0  0  0  0  0
    1.8702    2.6506   -2.7190 H   0  0  0  0  0  0  0  0  0  0  0  0
   -1.0083   -1.8327   -1.1022 C   0  0  0  0  0  0  0  0  0  0  0  0
   -1.0083   -1.8327    0.4205 C   0  0  0  0  0  0  0  0  0  0  0  0
   -1.0083   -0.4304    1.0178 C   0  0  0  0  0  3  0  0  0  0  0  0
   -1.0083   -0.4304    2.5405 C   0  0  0  0  0  0  0  0  0  0  0  0
   -0.1267   -1.3194   -1.4936 H   0  0  0  0  0  0  0  0  0  0  0  0
   -1.8898   -1.3194   -1.4936 H   0  0  0  0  0  0  0  0  0  0  0  0
   -1.0083   -2.8478   -1.5026 H   0  0  0  0  0  0  0  0  0  0  0  0
   -1.8833   -2.3786    0.7878 H   0  0  0  0  0  0  0  0  0  0  0  0
   -0.1332   -2.3786    0.7878 H   0  0  0  0  0  0  0  0  0  0  0  0
   -1.8833    0.1155    0.6505 H   0  0  0  0  0  0  0  0  0  0  0  0
    0.0418    0.2247    0.5771 H   0  0  0  0  0  0  0  0  0  0  0  0
   -0.1267   -0.9437    2.9319 H   0  0  0  0  0  0  0  0  0  0  0  0
   -1.8898   -0.9437    2.9319 H   0  0  0  0  0  0  0  0  0  0  0  0
   -1.0083    0.5847    2.9409 H   0  0  0  0  0  0  0  0  0  0  0  0
  1  2  1  0
  1  4  1  0
  1 20  1  0
  2  3  1  0
  2  5  1  0
  2  6  1  0
  3  7  1  0
  3  8  1  0
  3  9  1  0
 10 11  1  0
 10 14  1  0
 10 15  1  0
 10 16  1  0
 11 12  1  0
 11 17  1  0
 11 18  1  0
 12 13  1  0
 12 19  1  0
 13 21  1  0
 13 22  1  0
 13 23  1  0
M  RAD  2   1   2  12   2
M  END
>  <reaction>  (14) 
rmg_rxn_21

>  <mol_properties>  (14) 
{"0": {"label": "*3", "atom_type": "Cs"}, "1": {"label": "*4", "atom_type": "Cs"}, "10": {"label": "*0", "atom_type": "Cs"}, "11": {"label": "*1", "atom_type": "Cs"}, "19": {"label": "*2", "atom_type": "H0"}}

>  <type>  (14) 
unop_10

>  <geom_source>  (14) 
Heuristics

$$$$

     RDKit          3D

 23 21  0  0  0  0  0  0  0  0999 V2000
    0.9056    0.6901   -0.4479 C   0  0  0  0  0  3  0  0  0  0  0  0
    1.5477    1.7417    0.3784 C   0  0  0  0  0  0  0  0  0  0  0  0
    2.3079    2.7814   -0.4378 C   0  0  0  0  0  0  0  0  0  0  0  0
    0.7428    0.8389   -1.5078 H   0  0  0  0  0  0  0  0  0  0  0  0
    0.7846    2.2509    0.9869 H   0  0  0  0  0  0  0  0  0  0  0  0
    2.2202    1.2773    1.1093 H   0  0  0  0  0  0  0  0  0  0  0  0
    1.6421    3.2825   -1.1438 H   0  0  0  0  0  0  0  0  0  0  0  0
    3.1113    2.3149   -1.0109 H   0  0  0  0  0  0  0  0  0  0  0  0
    2.7499    3.5439    0.2051 H   0  0  0  0  0  0  0  0  0  0  0  0
   -1.1820   -2.0146   -1.6917 C   0  0  0  0  0  0  0  0  0  0  0  0
   -1.1820   -2.0146   -0.1690 C   0  0  0  0  0  0  0  0  0  0  0  0
   -1.1820   -0.6122    0.4284 C   0  0  0  0  0  3  0  0  0  0  0  0
   -1.1820   -0.6122    1.9511 C   0  0  0  0  0  0  0  0  0  0  0  0
   -0.3005   -1.5013   -2.0830 H   0  0  0  0  0  0  0  0  0  0  0  0
   -2.0635   -1.5013   -2.0830 H   0  0  0  0  0  0  0  0  0  0  0  0
   -1.1820   -3.0297   -2.0920 H   0  0  0  0  0  0  0  0  0  0  0  0
   -2.0570   -2.5605    0.1983 H   0  0  0  0  0  0  0  0  0  0  0  0
   -0.3070   -2.5605    0.1983 H   0  0  0  0  0  0  0  0  0  0  0  0
   -2.0570   -0.0664    0.0611 H   0  0  0  0  0  0  0  0  0  0  0  0
   -0.1320    0.0428   -0.0124 H   0  0  0  0  0  0  0  0  0  0  0  0
   -0.3005   -1.1256    2.3425 H   0  0  0  0  0  0  0  0  0  0  0  0
   -2.0635   -1.1256    2.3425 H   0  0  0  0  0  0  0  0  0  0  0  0
   -1.1820    0.4029    2.3515 H   0  0  0  0  0  0  0  0  0  0  0  0
  1  2  1  0
  1  4  1  0
  1 20  1  0
  2  3  1  0
  2  5  1  0
  2  6  1  0
  3  7  1  0
  3  8  1  0
  3  9  1  0
 10 11  1  0
 10 14  1  0
 10 15  1  0
 10 16  1  0
 11 12  1  0
 11 17  1  0
 11 18  1  0
 12 13  1  0
 12 19  1  0
 13 21  1  0
 13 22  1  0
 13 23  1  0
M  RAD  2   1   2  12   2
M  END
>  <reaction>  (15) 
rmg_rxn_21

>  <mol_properties>  (15) 
{"0": {"label": "*3", "atom_type": "Cs"}, "1": {"label": "*4", "atom_type": "Cs"}, "10": {"label": "*0", "atom_type": "Cs"}, "11": {"label": "*1", "atom_type": "Cs"}, "19": {"label": "*2", "atom_type": "H0"}}

>  <type>  (15) 
unop_11

>  <geom_source>  (15) 
Heuristics

$$$$

     RDKit          3D

 23 21  0  0  0  0  0  0  0  0999 V2000
    0.7723    1.1962    0.0328 C   0  0  0  0  0  3  0  0  0  0  0  0
    1.7326    0.5551   -0.8986 C   0  0  0  0  0  0  0  0  0  0  0  0
    2.7230    1.5316   -1.5235 C   0  0  0  0  0  0  0  0  0  0  0  0
    0.9696    2.1776    0.4452 H   0  0  0  0  0  0  0  0  0  0  0  0
    2.2906   -0.2328   -0.3696 H   0  0  0  0  0  0  0  0  0  0  0  0
    1.1846    0.0249   -1.6865 H   0  0  0  0  0  0  0  0  0  0  0  0
    3.3063    2.0390   -0.7521 H   0  0  0  0  0  0  0  0  0  0  0  0
    2.2027    2.2953   -2.1045 H   0  0  0  0  0  0  0  0  0  0  0  0
    3.4201    1.0183   -2.1874 H   0  0  0  0  0  0  0  0  0  0  0  0
   -1.3153   -1.5084   -1.2110 C   0  0  0  0  0  0  0  0  0  0  0  0
   -1.3153   -1.5084    0.3117 C   0  0  0  0  0  0  0  0  0  0  0  0
   -1.3153   -0.1061    0.9091 C   0  0  0  0  0  3  0  0  0  0  0  0
   -1.3153   -0.1061    2.4318 C   0  0  0  0  0  0  0  0  0  0  0  0
   -0.4338   -0.9951   -1.6023 H   0  0  0  0  0  0  0  0  0  0  0  0
   -2.1968   -0.9951   -1.6023 H   0  0  0  0  0  0  0  0  0  0  0  0
   -1.3153   -2.5236   -1.6113 H   0  0  0  0  0  0  0  0  0  0  0  0
   -2.1903   -2.0543    0.6791 H   0  0  0  0  0  0  0  0  0  0  0  0
   -0.4403   -2.0543    0.6791 H   0  0  0  0  0  0  0  0  0  0  0  0
   -2.1903    0.4398    0.5418 H   0  0  0  0  0  0  0  0  0  0  0  0
   -0.2652    0.5490    0.4683 H   0  0  0  0  0  0  0  0  0  0  0  0
   -0.4338   -0.6194    2.8232 H   0  0  0  0  0  0  0  0  0  0  0  0
   -2.1968   -0.6194    2.8232 H   0  0  0  0  0  0  0  0  0  0  0  0
   -1.3153    0.9090    2.8322 H   0  0  0  0  0  0  0  0  0  0  0  0
  1  2  1  0
  1  4  1  0
  1 20  1  0
  2  3  1  0
  2  5  1  0
  2  6  1  0
  3  7  1  0
  3  8  1  0
  3  9  1  0
 10 11  1  0
 10 14  1  0
 10 15  1  0
 10 16  1  0
 11 12  1  0
 11 17  1  0
 11 18  1  0
 12 13  1  0
 12 19  1  0
 13 21  1  0
 13 22  1  0
 13 23  1  0
M  RAD  2   1   2  12   2
M  END
>  <reaction>  (16) 
rmg_rxn_21

>  <mol_properties>  (16) 
{"0": {"label": "*3", "atom_type": "Cs"}, "1": {"label": "*4", "atom_type": "Cs"}, "10": {"label": "*0", "atom_type": "Cs"}, "11": {"label": "*1", "atom_type": "Cs"}, "19": {"label": "*2", "atom_type": "H0"}}

>  <type>  (16) 
unop_12

>  <geom_source>  (16) 
Heuristics

$$$$

     RDKit          3D

 23 21  0  0  0  0  0  0  0  0999 V2000
   -2.3704    0.0952   -0.4147 C   0  0  0  0  0  0  0  0  0  0  0  0
    2.1224    0.7776    0.1348 C   0  0  0  0  0  0  0  0  0  0  0  0
    3.6220    0.5471    0.2767 C   0  0  0  0  0  0  0  0  0  0  0  0
   -2.1610    1.6029   -0.3394 C   0  0  0  0  0  0  0  0  0  0  0  0
   -1.3475   -2.1529    0.1118 C   0  0  0  0  0  0  0  0  0  0  0  0
   -1.2113   -0.6421    0.2564 C   0  0  0  0  0  0  0  0  0  0  0  0
    1.3646   -0.5397    0.2028 C   0  0  0  0  0  2  0  0  0  0  0  0
    1.9106    1.2765   -0.8351 H   0  0  0  0  0  0  0  0  0  0  0  0
    1.7734    1.4370    0.9575 H   0  0  0  0  0  0  0  0  0  0  0  0
   -2.4353   -0.2039   -1.4833 H   0  0  0  0  0  0  0  0  0  0  0  0
   -3.3265   -0.1678    0.0882 H   0  0  0  0  0  0  0  0  0  0  0  0
    4.1528    1.5218    0.2410 H   0  0  0  0  0  0  0  0  0  0  0  0
    3.8456    0.0550    1.2474 H   0  0  0  0  0  0  0  0  0  0  0  0
    3.9947   -0.0910   -0.5529 H   0  0  0  0  0  0  0  0  0  0  0  0
   -3.0026    2.1211   -0.8455 H   0  0  0  0  0  0  0  0  0  0  0  0
   -2.1250    1.9353    0.7201 H   0  0  0  0  0  0  0  0  0  0  0  0
   -1.2129    1.8851   -0.8451 H   0  0  0  0  0  0  0  0  0  0  0  0
   -2.2832   -2.5046    0.5962 H   0  0  0  0  0  0  0  0  0  0  0  0
   -1.3574   -2.4350   -0.9621 H   0  0  0  0  0  0  0  0  0  0  0  0
   -0.4822   -2.6476    0.5998 H   0  0  0  0  0  0  0  0  0  0  0  0
   -1.1566   -0.3744    1.3342 H   0  0  0  0  0  0  0  0  0  0  0  0
    1.6438   -1.1931   -0.6512 H   0  0  0  0  0  0  0  0  0  0  0  0
    0.0419   -0.3027    0.1623 H   0  0  0  0  0  0  0  0  0  0  0  0
  1  4  1  0
  1  6  1  0
  1 10  1  0
  1 11  1  0
  2  7  1  0
  2  3  1  0
  2  8  1  0
  2  9  1  0
  3 12  1  0
  3 13  1  0
  3 14  1  0
  4 15  1  0
  4 16  1  0
  4 17  1  0
  5  6  1  0
  5 18  1  0
  5 19  1  0
  5 20  1  0
  6 21  1  0
  6 23  1  0
  7 22  1  0
M  RAD  1   7   3
M  END
>  <reaction>  (17) 
rmg_rxn_21

>  <mol_properties>  (17) 
{"0": {"label": "*3", "atom_type": "Cs"}, "1": {"label": "*4", "atom_type": "Cs"}, "10": {"label": "*0", "atom_type": "Cs"}, "11": {"label": "*1", "atom_type": "Cs"}, "19": {"label": "*2", "atom_type": "H0"}}

>  <type>  (17) 
unop_13

>  <geom_source>  (17) 
AutoTST

$$$$

     RDKit          3D

 23 21  0  0  0  0  0  0  0  0999 V2000
    0.9336    1.0600    0.1563 C   0  0  0  0  0  3  0  0  0  0  0  0
    1.5069    0.7666   -1.1801 C   0  0  0  0  0  0  0  0  0  0  0  0
    2.1831    1.9676   -1.8324 C   0  0  0  0  0  0  0  0  0  0  0  0
    1.2446    1.9339    0.7143 H   0  0  0  0  0  0  0  0  0  0  0  0
    2.2355   -0.0545   -1.0976 H   0  0  0  0  0  0  0  0  0  0  0  0
    0.7233    0.3762   -1.8403 H   0  0  0  0  0  0  0  0  0  0  0  0
    2.9941    2.3438   -1.2050 H   0  0  0  0  0  0  0  0  0  0  0  0
    1.4714    2.7818   -1.9810 H   0  0  0  0  0  0  0  0  0  0  0  0
    2.6048    1.7055   -2.8038 H   0  0  0  0  0  0  0  0  0  0  0  0
   -1.1540   -1.6447   -1.0874 C   0  0  0  0  0  0  0  0  0  0  0  0
   -1.1540   -1.6447    0.4353 C   0  0  0  0  0  0  0  0  0  0  0  0
   -1.1540   -0.2423    1.0326 C   0  0  0  0  0  3  0  0  0  0  0  0
   -1.1540   -0.2423    2.5553 C   0  0  0  0  0  0  0  0  0  0  0  0
   -0.2725   -1.1314   -1.4788 H   0  0  0  0  0  0  0  0  0  0  0  0
   -2.0355   -1.1314   -1.4788 H   0  0  0  0  0  0  0  0  0  0  0  0
   -1.1540   -2.6598   -1.4878 H   0  0  0  0  0  0  0  0  0  0  0  0
   -2.0290   -2.1906    0.8026 H   0  0  0  0  0  0  0  0  0  0  0  0
   -0.2790   -2.1906    0.8026 H   0  0  0  0  0  0  0  0  0  0  0  0
   -2.0290    0.3035    0.6653 H   0  0  0  0  0  0  0  0  0  0  0  0
   -0.1040    0.4127    0.5918 H   0  0  0  0  0  0  0  0  0  0  0  0
   -0.2725   -0.7557    2.9467 H   0  0  0  0  0  0  0  0  0  0  0  0
   -2.0355   -0.7557    2.9467 H   0  0  0  0  0  0  0  0  0  0  0  0
   -1.1540    0.7728    2.9557 H   0  0  0  0  0  0  0  0  0  0  0  0
  1  2  1  0
  1  4  1  0
  1 20  1  0
  2  3  1  0
  2  5  1  0
  2  6  1  0
  3  7  1  0
  3  8  1  0
  3  9  1  0
 10 11  1  0
 10 14  1  0
 10 15  1  0
 10 16  1  0
 11 12  1  0
 11 17  1  0
 11 18  1  0
 12 13  1  0
 12 19  1  0
 13 21  1  0
 13 22  1  0
 13 23  1  0
M  RAD  2   1   2  12   2
M  END
>  <reaction>  (18) 
rmg_rxn_21

>  <mol_properties>  (18) 
{"0": {"label": "*3", "atom_type": "Cs"}, "1": {"label": "*4", "atom_type": "Cs"}, "10": {"label": "*0", "atom_type": "Cs"}, "11": {"label": "*1", "atom_type": "Cs"}, "19": {"label": "*2", "atom_type": "H0"}}

>  <type>  (18) 
unop_14

>  <geom_source>  (18) 
gaussian_log

$$$$
