
     RDKit          3D

  6  5  0  0  0  0  0  0  0  0999 V2000
   -0.4547   -0.0097   -0.0070 C   0  0  0  0  0  0  0  0  0  0  0  0
    0.8695   -0.1987   -0.6218 N   0  0  0  0  0  0  0  0  0  0  0  0
    1.0322   -1.2809   -1.0969 O   0  0  0  0  0  0  0  0  0  0  0  0
   -0.2820    0.2687    1.0347 H   0  0  0  0  0  0  0  0  0  0  0  0
   -1.0716   -0.9051   -0.0916 H   0  0  0  0  0  0  0  0  0  0  0  0
   -0.9130    0.8487   -0.5026 H   0  0  0  0  0  0  0  0  0  0  0  0
  1  2  1  0
  1  4  1  0
  1  5  1  0
  1  6  1  0
  2  3  2  0
M  END
>  <reaction>  (1) 
rmg_rxn_610

>  <mol_properties>  (1) 
{"0": {"label": "donator", "atom_type": "Cs"}, "3": {"label": "d_hydrogen", "atom_type": "H0"}}

>  <type>  (1) 
r1h

$$$$

     RDKit          3D

  8  7  0  0  0  0  0  0  0  0999 V2000
   -0.9728    0.1768    0.1542 C   0  0  0  0  0  0  0  0  0  0  0  0
    0.4518   -0.2348    0.0047 C   0  0  0  0  0  3  0  0  0  0  0  0
    1.3116    0.0208    0.9062 N   0  0  0  0  0  2  0  0  0  0  0  0
    2.5018   -0.1901    1.0428 O   0  0  0  0  0  1  0  0  0  0  0  0
   -1.2701    0.8423   -0.6593 H   0  0  0  0  0  0  0  0  0  0  0  0
   -1.6318   -0.6936    0.1212 H   0  0  0  0  0  0  0  0  0  0  0  0
   -1.1258    0.6936    1.1003 H   0  0  0  0  0  0  0  0  0  0  0  0
    0.7882   -0.7655   -0.8838 H   0  0  0  0  0  0  0  0  0  0  0  0
  1  2  1  0
  1  7  1  0
  1  6  1  0
  1  5  1  0
  2  3  1  0
  2  8  1  0
  3  4  1  0
M  RAD  3   2   2   3   2   4   2
M  END
>  <reaction>  (2) 
rmg_rxn_610

>  <mol_properties>  (2) 
{"3": {"label": "acceptor", "atom_type": "O2s"}}

>  <type>  (2) 
r2

$$$$

     RDKit          3D

  9  8  0  0  0  0  0  0  0  0999 V2000
   -1.2461    0.5037    0.0950 C   0  0  0  0  0  0  0  0  0  0  0  0
   -0.0155   -0.3334    0.0640 C   0  0  0  0  0  0  0  0  0  0  0  0
    1.0697    0.1457   -0.3733 N   0  0  0  0  0  0  0  0  0  0  0  0
    2.1001   -0.7834   -0.3224 O   0  0  0  0  0  0  0  0  0  0  0  0
   -2.0357    0.0440   -0.5039 H   0  0  0  0  0  0  0  0  0  0  0  0
   -1.6237    0.5897    1.1166 H   0  0  0  0  0  0  0  0  0  0  0  0
   -1.0397    1.4998   -0.2929 H   0  0  0  0  0  0  0  0  0  0  0  0
   -0.0537   -1.3634    0.4205 H   0  0  0  0  0  0  0  0  0  0  0  0
    2.8478   -0.2985   -0.6758 H   0  0  0  0  0  0  0  0  0  0  0  0
  1  2  1  0
  1  5  1  0
  1  6  1  0
  1  7  1  0
  2  3  2  3
  2  8  1  0
  3  4  1  0
  4  9  1  0
M  END
>  <reaction>  (3) 
rmg_rxn_610

>  <mol_properties>  (3) 
{"0": {"label": "a_hydrogen", "atom_type": "H0"}, "4": {"label": "acceptor", "atom_type": "O2s"}}

>  <type>  (3) 
r2h

$$$$

     RDKit          3D

 14 12  0  0  0  0  0  0  0  0999 V2000
    1.1523    0.7566   -1.1801 C   0  0  0  0  0  0  0  0  0  0  0  0
    0.8787   -0.3553   -0.4288 N   0  0  0  0  0  2  0  0  0  0  0  0
    0.3794   -1.3836   -0.7740 O   0  0  0  0  0  1  0  0  0  0  0  0
    0.2672    1.5415   -0.6621 H   0  0  0  0  0  0  0  0  0  0  0  0
    0.9869    0.6151   -2.2441 H   0  0  0  0  0  0  0  0  0  0  0  0
    2.0855    1.2233   -0.8806 H   0  0  0  0  0  0  0  0  0  0  0  0
   -0.8094   -0.9904    2.5764 C   0  0  0  0  0  0  0  0  0  0  0  0
   -1.0433    0.3448    1.9574 C   0  0  0  0  0  3  0  0  0  0  0  0
   -0.4411    0.6930    0.8968 N   0  0  0  0  0  2  0  0  0  0  0  0
   -0.5747    1.8133    0.2979 O   0  0  0  0  0  1  0  0  0  0  0  0
   -0.4357   -0.8793    3.5970 H   0  0  0  0  0  0  0  0  0  0  0  0
   -1.7424   -1.5559    2.6332 H   0  0  0  0  0  0  0  0  0  0  0  0
   -0.0887   -1.5661    1.9989 H   0  0  0  0  0  0  0  0  0  0  0  0
   -1.7433    1.0433    2.4128 H   0  0  0  0  0  0  0  0  0  0  0  0
  1  4  1  0
  1  2  1  0
  1  6  1  0
  1  5  1  0
  2  3  1  0
  7  8  1  0
  7 12  1  0
  7 13  1  0
  7 11  1  0
  8  9  1  0
  8 14  1  0
  9 10  1  0
M  RAD  5   2   2   3   2   8   2   9   2  10   2
M  END
>  <reaction>  (4) 
rmg_rxn_610

>  <mol_properties>  (4) 
{"0": {"label": "*1", "atom_type": "Cs"}, "1": {"label": "*0", "atom_type": "N3s"}, "3": {"label": "*2", "atom_type": "H0"}, "8": {"label": "*4", "atom_type": "N3s"}, "9": {"label": "*3", "atom_type": "O2s"}}

>  <type>  (4) 
ts

$$$$

     RDKit          3D

 14 12  0  0  0  0  0  0  0  0999 V2000
    1.0274   -0.0940   -1.3561 C   0  0  0  0  0  0  0  0  0  0  0  0
    1.0274   -1.4398   -1.9529 N   0  0  0  0  0  0  0  0  0  0  0  0
    1.0274   -1.4398   -3.1460 O   0  0  0  0  0  1  0  0  0  0  0  0
   -0.0286   -0.0226   -0.5835 H   0  0  0  0  0  0  0  0  0  0  0  0
    1.0274    0.6865   -2.1178 H   0  0  0  0  0  0  0  0  0  0  0  0
    1.9074   -0.0345   -0.7122 H   0  0  0  0  0  0  0  0  0  0  0  0
   -0.6786    1.5523    3.3604 C   0  0  0  0  0  0  0  0  0  0  0  0
   -1.0928    1.1421    1.9907 C   0  0  0  0  0  0  0  0  0  0  0  0
   -0.4130    0.2921    1.3476 N   0  0  0  0  0  0  0  0  0  0  0  0
   -0.9557    0.0401    0.0948 O   0  0  0  0  0  0  0  0  0  0  0  0
   -0.4963    2.6288    3.3978 H   0  0  0  0  0  0  0  0  0  0  0  0
   -1.4705    1.3333    4.0804 H   0  0  0  0  0  0  0  0  0  0  0  0
    0.2277    1.0276    3.6581 H   0  0  0  0  0  0  0  0  0  0  0  0
   -1.9866    1.5785    1.5432 H   0  0  0  0  0  0  0  0  0  0  0  0
  1  2  2  3
  1  5  1  0
  1  6  1  0
  2  3  1  0
  4 10  1  0
  7  8  1  0
  7 11  1  0
  7 12  1  0
  7 13  1  0
  8  9  2  3
  8 14  1  0
  9 10  1  0
M  RAD  1   3   2
M  END
>  <reaction>  (5) 
rmg_rxn_610

>  <mol_properties>  (5) 
{"0": {"label": "*1", "atom_type": "Cs"}, "1": {"label": "*0", "atom_type": "N3s"}, "3": {"label": "*2", "atom_type": "H0"}, "8": {"label": "*4", "atom_type": "N3s"}, "9": {"label": "*3", "atom_type": "O2s"}}

>  <type>  (5) 
unop_1

>  <geom_source>  (5) 
Heuristics

$$$$

     RDKit          3D

 14 12  0  0  0  0  0  0  0  0999 V2000
    1.4269    1.0547   -1.0218 C   0  0  0  0  0  0  0  0  0  0  0  0
    1.4269   -0.2911   -1.6186 N   0  0  0  0  0  0  0  0  0  0  0  0
    1.4269   -0.2911   -2.8118 O   0  0  0  0  0  1  0  0  0  0  0  0
    0.3708    1.1261   -0.2493 H   0  0  0  0  0  0  0  0  0  0  0  0
    1.4268    1.8351   -1.7836 H   0  0  0  0  0  0  0  0  0  0  0  0
    2.3069    1.1142   -0.3780 H   0  0  0  0  0  0  0  0  0  0  0  0
   -1.7211   -1.5130    2.5199 C   0  0  0  0  0  0  0  0  0  0  0  0
   -1.4191   -0.1913    1.9049 C   0  0  0  0  0  0  0  0  0  0  0  0
   -0.7298   -0.1237    0.8474 N   0  0  0  0  0  0  0  0  0  0  0  0
   -0.5562    1.1887    0.4290 O   0  0  0  0  0  0  0  0  0  0  0  0
   -1.3337   -1.5567    3.5405 H   0  0  0  0  0  0  0  0  0  0  0  0
   -2.8008   -1.6698    2.5769 H   0  0  0  0  0  0  0  0  0  0  0  0
   -1.2754   -2.3163    1.9357 H   0  0  0  0  0  0  0  0  0  0  0  0
   -1.7956    0.7200    2.3711 H   0  0  0  0  0  0  0  0  0  0  0  0
  1  2  2  3
  1  5  1  0
  1  6  1  0
  2  3  1  0
  4 10  1  0
  7  8  1  0
  7 11  1  0
  7 12  1  0
  7 13  1  0
  8  9  2  3
  8 14  1  0
  9 10  1  0
M  RAD  1   3   2
M  END
>  <reaction>  (6) 
rmg_rxn_610

>  <mol_properties>  (6) 
{"0": {"label": "*1", "atom_type": "Cs"}, "1": {"label": "*0", "atom_type": "N3s"}, "3": {"label": "*2", "atom_type": "H0"}, "8": {"label": "*4", "atom_type": "N3s"}, "9": {"label": "*3", "atom_type": "O2s"}}

>  <type>  (6) 
unop_2

>  <geom_source>  (6) 
Heuristics

$$$$

     RDKit          3D

 14 12  0  0  0  0  0  0  0  0999 V2000
    1.2020   -0.3770   -1.1637 C   0  0  0  0  0  0  0  0  0  0  0  0
    1.2020   -1.7228   -1.7605 N   0  0  0  0  0  0  0  0  0  0  0  0
    1.2020   -1.7228   -2.9537 O   0  0  0  0  0  1  0  0  0  0  0  0
    0.1460   -0.3056   -0.3911 H   0  0  0  0  0  0  0  0  0  0  0  0
    1.2020    0.4035   -1.9255 H   0  0  0  0  0  0  0  0  0  0  0  0
    2.0820   -0.3175   -0.5199 H   0  0  0  0  0  0  0  0  0  0  0  0
   -1.1568    2.2740    2.8468 C   0  0  0  0  0  0  0  0  0  0  0  0
   -1.3679    1.2731    1.7653 C   0  0  0  0  0  0  0  0  0  0  0  0
   -0.3853    0.6424    1.2806 N   0  0  0  0  0  0  0  0  0  0  0  0
   -0.7811   -0.2429    0.2871 O   0  0  0  0  0  0  0  0  0  0  0  0
   -1.5107    3.2580    2.5308 H   0  0  0  0  0  0  0  0  0  0  0  0
   -1.7238    1.9976    3.7388 H   0  0  0  0  0  0  0  0  0  0  0  0
   -0.1009    2.3413    3.1034 H   0  0  0  0  0  0  0  0  0  0  0  0
   -2.3753    1.0856    1.3920 H   0  0  0  0  0  0  0  0  0  0  0  0
  1  2  2  3
  1  5  1  0
  1  6  1  0
  2  3  1  0
  4 10  1  0
  7  8  1  0
  7 11  1  0
  7 12  1  0
  7 13  1  0
  8  9  2  3
  8 14  1  0
  9 10  1  0
M  RAD  1   3   2
M  END
>  <reaction>  (7) 
rmg_rxn_610

>  <mol_properties>  (7) 
{"0": {"label": "*1", "atom_type": "Cs"}, "1": {"label": "*0", "atom_type": "N3s"}, "3": {"label": "*2", "atom_type": "H0"}, "8": {"label": "*4", "atom_type": "N3s"}, "9": {"label": "*3", "atom_type": "O2s"}}

>  <type>  (7) 
unop_3

>  <geom_source>  (7) 
Heuristics

$$$$

     RDKit          3D

 14 12  0  0  0  0  0  0  0  0999 V2000
    2.0143    0.2188   -0.0722 C   0  0  0  0  0  0  0  0  0  0  0  0
    2.0143   -1.1270   -0.6690 N   0  0  0  0  0  0  0  0  0  0  0  0
    2.0143   -1.1270   -1.8621 O   0  0  0  0  0  1  0  0  0  0  0  0
    0.9582    0.2902    0.7004 H   0  0  0  0  0  0  0  0  0  0  0  0
    2.0143    0.9993   -0.8339 H   0  0  0  0  0  0  0  0  0  0  0  0
    2.8943    0.2783    0.5717 H   0  0  0  0  0  0  0  0  0  0  0  0
   -3.2783    0.7235   -0.0136 C   0  0  0  0  0  0  0  0  0  0  0  0
   -2.0398    0.8138    0.8075 C   0  0  0  0  0  0  0  0  0  0  0  0
   -1.0193    0.1352    0.4973 N   0  0  0  0  0  0  0  0  0  0  0  0
    0.0312    0.3529    1.3787 O   0  0  0  0  0  0  0  0  0  0  0  0
   -4.1175    0.3833    0.5975 H   0  0  0  0  0  0  0  0  0  0  0  0
   -3.5451    1.7054   -0.4113 H   0  0  0  0  0  0  0  0  0  0  0  0
   -3.1374    0.0308   -0.8415 H   0  0  0  0  0  0  0  0  0  0  0  0
   -2.0162    1.4688    1.6793 H   0  0  0  0  0  0  0  0  0  0  0  0
  1  2  2  3
  1  5  1  0
  1  6  1  0
  2  3  1  0
  4 10  1  0
  7  8  1  0
  7 11  1  0
  7 12  1  0
  7 13  1  0
  8  9  2  3
  8 14  1  0
  9 10  1  0
M  RAD  1   3   2
M  END
>  <reaction>  (8) 
rmg_rxn_610

>  <mol_properties>  (8) 
{"0": {"label": "*1", "atom_type": "Cs"}, "1": {"label": "*0", "atom_type": "N3s"}, "3": {"label": "*2", "atom_type": "H0"}, "8": {"label": "*4", "atom_type": "N3s"}, "9": {"label": "*3", "atom_type": "O2s"}}

>  <type>  (8) 
unop_4

>  <geom_source>  (8) 
Heuristics

$$$$

     RDKit          3D

 14 12  0  0  0  0  0  0  0  0999 V2000
    1.3730   -0.4805   -0.9925 C   0  0  0  0  0  0  0  0  0  0  0  0
    1.3730   -1.8263   -1.5893 N   0  0  0  0  0  0  0  0  0  0  0  0
    1.3730   -1.8263   -2.7824 O   0  0  0  0  0  1  0  0  0  0  0  0
    0.3170   -0.4091   -0.2199 H   0  0  0  0  0  0  0  0  0  0  0  0
    1.3730    0.3000   -1.7542 H   0  0  0  0  0  0  0  0  0  0  0  0
    2.2530   -0.4210   -0.3486 H   0  0  0  0  0  0  0  0  0  0  0  0
   -1.6011    2.5150    2.4226 C   0  0  0  0  0  0  0  0  0  0  0  0
   -1.4962    1.1862    1.7597 C   0  0  0  0  0  0  0  0  0  0  0  0
   -0.5352    0.9396    0.9762 N   0  0  0  0  0  0  0  0  0  0  0  0
   -0.6101   -0.3464    0.4584 O   0  0  0  0  0  0  0  0  0  0  0  0
   -2.5422    3.0015    2.1558 H   0  0  0  0  0  0  0  0  0  0  0  0
   -1.5926    2.4013    3.5092 H   0  0  0  0  0  0  0  0  0  0  0  0
   -0.7727    3.1559    2.1257 H   0  0  0  0  0  0  0  0  0  0  0  0
   -2.2528    0.4249    1.9530 H   0  0  0  0  0  0  0  0  0  0  0  0
  1  2  2  3
  1  5  1  0
  1  6  1  0
  2  3  1  0
  4 10  1  0
  7  8  1  0
  7 11  1  0
  7 12  1  0
  7 13  1  0
  8  9  2  3
  8 14  1  0
  9 10  1  0
M  RAD  1   3   2
M  END
>  <reaction>  (9) 
rmg_rxn_610

>  <mol_properties>  (9) 
{"0": {"label": "*1", "atom_type": "Cs"}, "1": {"label": "*0", "atom_type": "N3s"}, "3": {"label": "*2", "atom_type": "H0"}, "8": {"label": "*4", "atom_type": "N3s"}, "9": {"label": "*3", "atom_type": "O2s"}}

>  <type>  (9) 
unop_5

>  <geom_source>  (9) 
Heuristics

$$$$

     RDKit          3D

 14 12  0  0  0  0  0  0  0  0999 V2000
    1.8856   -0.2268   -0.1636 C   0  0  0  0  0  0  0  0  0  0  0  0
    1.8856   -1.5725   -0.7604 N   0  0  0  0  0  0  0  0  0  0  0  0
    1.8856   -1.5725   -1.9535 O   0  0  0  0  0  1  0  0  0  0  0  0
    0.8295   -0.1554    0.6090 H   0  0  0  0  0  0  0  0  0  0  0  0
    1.8856    0.5537   -0.9254 H   0  0  0  0  0  0  0  0  0  0  0  0
    2.7656   -0.1673    0.4802 H   0  0  0  0  0  0  0  0  0  0  0  0
   -2.9201    1.9004    0.2438 C   0  0  0  0  0  0  0  0  0  0  0  0
   -1.8037    1.2598    0.9917 C   0  0  0  0  0  0  0  0  0  0  0  0
   -1.0814    0.3859    0.4325 N   0  0  0  0  0  0  0  0  0  0  0  0
   -0.0975   -0.0927    1.2872 O   0  0  0  0  0  0  0  0  0  0  0  0
   -3.8712    1.7225    0.7510 H   0  0  0  0  0  0  0  0  0  0  0  0
   -2.7764    2.9824    0.1963 H   0  0  0  0  0  0  0  0  0  0  0  0
   -2.9775    1.5045   -0.7688 H   0  0  0  0  0  0  0  0  0  0  0  0
   -1.6111    1.5477    2.0259 H   0  0  0  0  0  0  0  0  0  0  0  0
  1  2  2  3
  1  5  1  0
  1  6  1  0
  2  3  1  0
  4 10  1  0
  7  8  1  0
  7 11  1  0
  7 12  1  0
  7 13  1  0
  8  9  2  3
  8 14  1  0
  9 10  1  0
M  RAD  1   3   2
M  END
>  <reaction>  (10) 
rmg_rxn_610

>  <mol_properties>  (10) 
{"0": {"label": "*1", "atom_type": "Cs"}, "1": {"label": "*0", "atom_type": "N3s"}, "3": {"label": "*2", "atom_type": "H0"}, "8": {"label": "*4", "atom_type": "N3s"}, "9": {"label": "*3", "atom_type": "O2s"}}

>  <type>  (10) 
unop_6

>  <geom_source>  (10) 
Heuristics

$$$$

     RDKit          3D

 14 12  0  0  0  0  0  0  0  0999 V2000
    1.6734   -0.5023   -0.4354 C   0  0  0  0  0  0  0  0  0  0  0  0
    1.6734   -1.8480   -1.0322 N   0  0  0  0  0  0  0  0  0  0  0  0
    1.6734   -1.8480   -2.2253 O   0  0  0  0  0  1  0  0  0  0  0  0
    0.6174   -0.4309    0.3372 H   0  0  0  0  0  0  0  0  0  0  0  0
    1.6734    0.2782   -1.1972 H   0  0  0  0  0  0  0  0  0  0  0  0
    2.5534   -0.4428    0.2084 H   0  0  0  0  0  0  0  0  0  0  0  0
   -2.3502    2.6089    0.9779 C   0  0  0  0  0  0  0  0  0  0  0  0
   -1.5360    1.4223    1.3589 C   0  0  0  0  0  0  0  0  0  0  0  0
   -1.0314    0.6830    0.4661 N   0  0  0  0  0  0  0  0  0  0  0  0
   -0.3097   -0.3682    1.0154 O   0  0  0  0  0  0  0  0  0  0  0  0
   -3.3594    2.5272    1.3882 H   0  0  0  0  0  0  0  0  0  0  0  0
   -1.9086    3.5215    1.3849 H   0  0  0  0  0  0  0  0  0  0  0  0
   -2.4128    2.6966   -0.1054 H   0  0  0  0  0  0  0  0  0  0  0  0
   -1.3763    1.1927    2.4131 H   0  0  0  0  0  0  0  0  0  0  0  0
  1  2  2  3
  1  5  1  0
  1  6  1  0
  2  3  1  0
  4 10  1  0
  7  8  1  0
  7 11  1  0
  7 12  1  0
  7 13  1  0
  8  9  2  3
  8 14  1  0
  9 10  1  0
M  RAD  1   3   2
M  END
>  <reaction>  (11) 
rmg_rxn_610

>  <mol_properties>  (11) 
{"0": {"label": "*1", "atom_type": "Cs"}, "1": {"label": "*0", "atom_type": "N3s"}, "3": {"label": "*2", "atom_type": "H0"}, "8": {"label": "*4", "atom_type": "N3s"}, "9": {"label": "*3", "atom_type": "O2s"}}

>  <type>  (11) 
unop_7

>  <geom_source>  (11) 
Heuristics

$$$$

     RDKit          3D

 14 12  0  0  0  0  0  0  0  0999 V2000
    0.9916    0.3383   -1.4377 C   0  0  0  0  0  0  0  0  0  0  0  0
    0.9916   -1.0075   -2.0345 N   0  0  0  0  0  0  0  0  0  0  0  0
    0.9916   -1.0075   -3.2276 O   0  0  0  0  0  1  0  0  0  0  0  0
   -0.0644    0.4097   -0.6651 H   0  0  0  0  0  0  0  0  0  0  0  0
    0.9916    1.1187   -2.1995 H   0  0  0  0  0  0  0  0  0  0  0  0
    1.8716    0.3978   -0.7939 H   0  0  0  0  0  0  0  0  0  0  0  0
   -0.5673    0.4134    3.5971 C   0  0  0  0  0  0  0  0  0  0  0  0
   -0.9593    0.7260    2.1954 C   0  0  0  0  0  0  0  0  0  0  0  0
   -0.5154    0.0281    1.2393 N   0  0  0  0  0  0  0  0  0  0  0  0
   -0.9915    0.4723    0.0131 O   0  0  0  0  0  0  0  0  0  0  0  0
   -0.0693    1.2713    4.0547 H   0  0  0  0  0  0  0  0  0  0  0  0
   -1.4510    0.1928    4.2004 H   0  0  0  0  0  0  0  0  0  0  0  0
    0.1041   -0.4432    3.6234 H   0  0  0  0  0  0  0  0  0  0  0  0
   -1.6320    1.5609    1.9960 H   0  0  0  0  0  0  0  0  0  0  0  0
  1  2  2  3
  1  5  1  0
  1  6  1  0
  2  3  1  0
  4 10  1  0
  7  8  1  0
  7 11  1  0
  7 12  1  0
  7 13  1  0
  8  9  2  3
  8 14  1  0
  9 10  1  0
M  RAD  1   3   2
M  END
>  <reaction>  (12) 
rmg_rxn_610

>  <mol_properties>  (12) 
{"0": {"label": "*1", "atom_type": "Cs"}, "1": {"label": "*0", "atom_type": "N3s"}, "3": {"label": "*2", "atom_type": "H0"}, "8": {"label": "*4", "atom_type": "N3s"}, "9": {"label": "*3", "atom_type": "O2s"}}

>  <type>  (12) 
unop_8

>  <geom_source>  (12) 
Heuristics

$$$$

     RDKit          3D

 14 12  0  0  0  0  0  0  0  0999 V2000
    1.9855    0.7015   -0.2256 C   0  0  0  0  0  0  0  0  0  0  0  0
    1.9855   -0.6442   -0.8224 N   0  0  0  0  0  0  0  0  0  0  0  0
    1.9855   -0.6442   -2.0155 O   0  0  0  0  0  1  0  0  0  0  0  0
    0.9295    0.7729    0.5470 H   0  0  0  0  0  0  0  0  0  0  0  0
    1.9855    1.4820   -0.9874 H   0  0  0  0  0  0  0  0  0  0  0  0
    2.8655    0.7611    0.4182 H   0  0  0  0  0  0  0  0  0  0  0  0
   -3.2161   -0.5680    0.3892 C   0  0  0  0  0  0  0  0  0  0  0  0
   -2.0922    0.2341    0.9456 C   0  0  0  0  0  0  0  0  0  0  0  0
   -0.9012   -0.0154    0.6032 N   0  0  0  0  0  0  0  0  0  0  0  0
    0.0024    0.8356    1.2252 O   0  0  0  0  0  0  0  0  0  0  0  0
   -3.7716   -1.0562    1.1933 H   0  0  0  0  0  0  0  0  0  0  0  0
   -3.9185    0.0771   -0.1436 H   0  0  0  0  0  0  0  0  0  0  0  0
   -2.8408   -1.3269   -0.2954 H   0  0  0  0  0  0  0  0  0  0  0  0
   -2.3008    1.0393    1.6511 H   0  0  0  0  0  0  0  0  0  0  0  0
  1  2  2  3
  1  5  1  0
  1  6  1  0
  2  3  1  0
  4 10  1  0
  7  8  1  0
  7 11  1  0
  7 12  1  0
  7 13  1  0
  8  9  2  3
  8 14  1  0
  9 10  1  0
M  RAD  1   3   2
M  END
>  <reaction>  (13) 
rmg_rxn_610

>  <mol_properties>  (13) 
{"0": {"label": "*1", "atom_type": "Cs"}, "1": {"label": "*0", "atom_type": "N3s"}, "3": {"label": "*2", "atom_type": "H0"}, "8": {"label": "*4", "atom_type": "N3s"}, "9": {"label": "*3", "atom_type": "O2s"}}

>  <type>  (13) 
unop_9

>  <geom_source>  (13) 
Heuristics

$$$$

     RDKit          3D

 14 12  0  0  0  0  0  0  0  0999 V2000
    1.1335    0.7755   -1.3275 C   0  0  0  0  0  0  0  0  0  0  0  0
    1.1335   -0.5702   -1.9243 N   0  0  0  0  0  0  0  0  0  0  0  0
    1.1335   -0.5702   -3.1174 O   0  0  0  0  0  1  0  0  0  0  0  0
    0.0775    0.8469   -0.5549 H   0  0  0  0  0  0  0  0  0  0  0  0
    1.1335    1.5560   -2.0893 H   0  0  0  0  0  0  0  0  0  0  0  0
    2.0135    0.8350   -0.6837 H   0  0  0  0  0  0  0  0  0  0  0  0
   -0.9366   -0.7566    3.3240 C   0  0  0  0  0  0  0  0  0  0  0  0
   -1.0690    0.2001    2.1912 C   0  0  0  0  0  0  0  0  0  0  0  0
   -0.6357   -0.1073    1.0441 N   0  0  0  0  0  0  0  0  0  0  0  0
   -0.8496    0.9096    0.1233 O   0  0  0  0  0  0  0  0  0  0  0  0
   -0.3556   -0.3105    4.1346 H   0  0  0  0  0  0  0  0  0  0  0  0
   -1.9197   -1.0059    3.7301 H   0  0  0  0  0  0  0  0  0  0  0  0
   -0.4452   -1.6709    2.9956 H   0  0  0  0  0  0  0  0  0  0  0  0
   -1.5421    1.1691    2.3550 H   0  0  0  0  0  0  0  0  0  0  0  0
  1  2  2  3
  1  5  1  0
  1  6  1  0
  2  3  1  0
  4 10  1  0
  7  8  1  0
  7 11  1  0
  7 12  1  0
  7 13  1  0
  8  9  2  3
  8 14  1  0
  9 10  1  0
M  RAD  1   3   2
M  END
>  <reaction>  (14) 
rmg_rxn_610

>  <mol_properties>  (14) 
{"0": {"label": "*1", "atom_type": "Cs"}, "1": {"label": "*0", "atom_type": "N3s"}, "3": {"label": "*2", "atom_type": "H0"}, "8": {"label": "*4", "atom_type": "N3s"}, "9": {"label": "*3", "atom_type": "O2s"}}

>  <type>  (14) 
unop_10

>  <geom_source>  (14) 
Heuristics

$$$$

     RDKit          3D

 14 12  0  0  0  0  0  0  0  0999 V2000
    1.4821   -0.5540   -0.7645 C   0  0  0  0  0  0  0  0  0  0  0  0
    1.4821   -1.8998   -1.3613 N   0  0  0  0  0  0  0  0  0  0  0  0
    1.4821   -1.8998   -2.5544 O   0  0  0  0  0  1  0  0  0  0  0  0
    0.4261   -0.4826    0.0081 H   0  0  0  0  0  0  0  0  0  0  0  0
    1.4821    0.2264   -1.5263 H   0  0  0  0  0  0  0  0  0  0  0  0
    2.3621   -0.4945   -0.1207 H   0  0  0  0  0  0  0  0  0  0  0  0
   -1.8570    2.7166    1.8488 C   0  0  0  0  0  0  0  0  0  0  0  0
   -1.4153    1.3030    1.6977 C   0  0  0  0  0  0  0  0  0  0  0  0
   -0.8352    0.9268    0.6394 N   0  0  0  0  0  0  0  0  0  0  0  0
   -0.5010   -0.4200    0.6863 O   0  0  0  0  0  0  0  0  0  0  0  0
   -2.9365    2.7641    2.0105 H   0  0  0  0  0  0  0  0  0  0  0  0
   -1.3795    3.1750    2.7178 H   0  0  0  0  0  0  0  0  0  0  0  0
   -1.6050    3.2920    0.9596 H   0  0  0  0  0  0  0  0  0  0  0  0
   -1.5944    0.5919    2.5051 H   0  0  0  0  0  0  0  0  0  0  0  0
  1  2  2  3
  1  5  1  0
  1  6  1  0
  2  3  1  0
  4 10  1  0
  7  8  1  0
  7 11  1  0
  7 12  1  0
  7 13  1  0
  8  9  2  3
  8 14  1  0
  9 10  1  0
M  RAD  1   3   2
M  END
>  <reaction>  (15) 
rmg_rxn_610

>  <mol_properties>  (15) 
{"0": {"label": "*1", "atom_type": "Cs"}, "1": {"label": "*0", "atom_type": "N3s"}, "3": {"label": "*2", "atom_type": "H0"}, "8": {"label": "*4", "atom_type": "N3s"}, "9": {"label": "*3", "atom_type": "O2s"}}

>  <type>  (15) 
unop_11

>  <geom_source>  (15) 
Heuristics

$$$$

     RDKit          3D

 14 12  0  0  0  0  0  0  0  0999 V2000
    1.7654    1.0342   -0.5961 C   0  0  0  0  0  0  0  0  0  0  0  0
    1.7654   -0.3116   -1.1929 N   0  0  0  0  0  0  0  0  0  0  0  0
    1.7654   -0.3116   -2.3860 O   0  0  0  0  0  1  0  0  0  0  0  0
    0.7094    1.1056    0.1765 H   0  0  0  0  0  0  0  0  0  0  0  0
    1.7654    1.8147   -1.3578 H   0  0  0  0  0  0  0  0  0  0  0  0
    2.6454    1.0937    0.0478 H   0  0  0  0  0  0  0  0  0  0  0  0
   -2.6317   -1.4629    1.3816 C   0  0  0  0  0  0  0  0  0  0  0  0
   -1.8537   -0.1938    1.3986 C   0  0  0  0  0  0  0  0  0  0  0  0
   -0.8003   -0.0834    0.7084 N   0  0  0  0  0  0  0  0  0  0  0  0
   -0.2177    1.1683    0.8548 O   0  0  0  0  0  0  0  0  0  0  0  0
   -2.7021   -1.8810    2.3885 H   0  0  0  0  0  0  0  0  0  0  0  0
   -3.6516   -1.2808    1.0351 H   0  0  0  0  0  0  0  0  0  0  0  0
   -2.1582   -2.1918    0.7262 H   0  0  0  0  0  0  0  0  0  0  0  0
   -2.1966    0.6419    2.0098 H   0  0  0  0  0  0  0  0  0  0  0  0
  1  2  2  3
  1  5  1  0
  1  6  1  0
  2  3  1  0
  4 10  1  0
  7  8  1  0
  7 11  1  0
  7 12  1  0
  7 13  1  0
  8  9  2  3
  8 14  1  0
  9 10  1  0
M  RAD  1   3   2
M  END
>  <reaction>  (16) 
rmg_rxn_610

>  <mol_properties>  (16) 
{"0": {"label": "*1", "atom_type": "Cs"}, "1": {"label": "*0", "atom_type": "N3s"}, "3": {"label": "*2", "atom_type": "H0"}, "8": {"label": "*4", "atom_type": "N3s"}, "9": {"label": "*3", "atom_type": "O2s"}}

>  <type>  (16) 
unop_12

>  <geom_source>  (16) 
Heuristics

$$$$

     RDKit          3D

 14 12  0  0  0  0  0  0  0  0999 V2000
   -0.1082    0.0403   -0.4928 O   0  0  0  0  0  1  0  0  0  0  0  0
   -2.7732    1.9694   -0.1092 O   0  0  0  0  0  1  0  0  0  0  0  0
    0.5629   -0.9939    0.1193 N   0  0  0  0  0  2  0  0  0  0  0  0
   -2.9524    0.8646    0.3040 N   0  0  0  0  0  2  0  0  0  0  0  0
    2.5454    0.4111    0.3530 C   0  0  0  0  0  0  0  0  0  0  0  0
    1.7873   -0.8672    0.5253 C   0  0  0  0  0  3  0  0  0  0  0  0
   -2.4947   -0.2712   -0.4485 C   0  0  0  0  0  0  0  0  0  0  0  0
    2.0268    1.2329    0.8900 H   0  0  0  0  0  0  0  0  0  0  0  0
    2.6216    0.6624   -0.7257 H   0  0  0  0  0  0  0  0  0  0  0  0
    3.5684    0.2993    0.7690 H   0  0  0  0  0  0  0  0  0  0  0  0
    2.2735   -1.7087    1.0013 H   0  0  0  0  0  0  0  0  0  0  0  0
   -3.0248   -0.3155   -1.4232 H   0  0  0  0  0  0  0  0  0  0  0  0
   -2.7013   -1.1996    0.1226 H   0  0  0  0  0  0  0  0  0  0  0  0
   -1.3314   -0.1240   -0.8851 H   0  0  0  0  0  0  0  0  0  0  0  0
  1  3  1  0
  2  4  1  0
  3  6  1  0
  4  7  1  0
  5  8  1  0
  5 10  1  0
  5  9  1  0
  5  6  1  0
  6 11  1  0
  7 14  1  0
  7 12  1  0
  7 13  1  0
M  RAD  5   1   2   2   2   3   2   4   2   6   2
M  END
>  <reaction>  (17) 
rmg_rxn_610

>  <mol_properties>  (17) 
{"0": {"label": "*1", "atom_type": "Cs"}, "1": {"label": "*0", "atom_type": "N3s"}, "3": {"label": "*2", "atom_type": "H0"}, "8": {"label": "*4", "atom_type": "N3s"}, "9": {"label": "*3", "atom_type": "O2s"}}

>  <type>  (17) 
unop_13

>  <geom_source>  (17) 
AutoTST

$$$$

     RDKit          3D

 14 12  0  0  0  0  0  0  0  0999 V2000
    1.4268    1.0547   -1.0218 C   0  0  0  0  0  0  0  0  0  0  0  0
    1.4268   -0.2911   -1.6186 N   0  0  0  0  0  0  0  0  0  0  0  0
    1.4268   -0.2911   -2.8117 O   0  0  0  0  0  1  0  0  0  0  0  0
    0.3708    1.1260   -0.2492 H   0  0  0  0  0  0  0  0  0  0  0  0
    1.4268    1.8351   -1.7836 H   0  0  0  0  0  0  0  0  0  0  0  0
    2.3069    1.1141   -0.3780 H   0  0  0  0  0  0  0  0  0  0  0  0
   -1.7211   -1.5130    2.5199 C   0  0  0  0  0  0  0  0  0  0  0  0
   -1.4191   -0.1913    1.9049 C   0  0  0  0  0  0  0  0  0  0  0  0
   -0.7298   -0.1237    0.8474 N   0  0  0  0  0  0  0  0  0  0  0  0
   -0.5562    1.1887    0.4290 O   0  0  0  0  0  0  0  0  0  0  0  0
   -1.3337   -1.5567    3.5405 H   0  0  0  0  0  0  0  0  0  0  0  0
   -2.8008   -1.6698    2.5769 H   0  0  0  0  0  0  0  0  0  0  0  0
   -1.2754   -2.3163    1.9357 H   0  0  0  0  0  0  0  0  0  0  0  0
   -1.7956    0.7200    2.3711 H   0  0  0  0  0  0  0  0  0  0  0  0
  1  2  2  3
  1  5  1  0
  1  6  1  0
  2  3  1  0
  4 10  1  0
  7  8  1  0
  7 11  1  0
  7 12  1  0
  7 13  1  0
  8  9  2  3
  8 14  1  0
  9 10  1  0
M  RAD  1   3   2
M  END
>  <reaction>  (18) 
rmg_rxn_610

>  <mol_properties>  (18) 
{"0": {"label": "*1", "atom_type": "Cs"}, "1": {"label": "*0", "atom_type": "N3s"}, "3": {"label": "*2", "atom_type": "H0"}, "8": {"label": "*4", "atom_type": "N3s"}, "9": {"label": "*3", "atom_type": "O2s"}}

>  <type>  (18) 
unop_14

>  <geom_source>  (18) 
gaussian_log

$$$$
