
     RDKit          3D

  5  4  0  0  0  0  0  0  0  0999 V2000
    0.7361   -0.2872    0.4035 N   0  0  0  0  0  2  0  0  0  0  0  0
   -0.3891   -0.1505   -0.3131 N   0  0  0  0  0  0  0  0  0  0  0  0
    1.4909    0.0686   -0.1831 H   0  0  0  0  0  0  0  0  0  0  0  0
   -1.1819   -0.6340    0.0744 H   0  0  0  0  0  0  0  0  0  0  0  0
   -0.3592   -0.1189   -1.3223 H   0  0  0  0  0  0  0  0  0  0  0  0
  1  2  1  0
  1  3  1  0
  2  4  1  0
  2  5  1  0
M  RAD  1   1   2
M  END
>  <reaction>  (1) 
rmg_rxn_22

>  <mol_properties>  (1) 
{"0": {"label": "donator", "atom_type": "N3s"}, "2": {"label": "d_hydrogen", "atom_type": "H0"}}

>  <type>  (1) 
r1h

$$$$

     RDKit          3D

 13 12  0  0  0  0  0  0  0  0999 V2000
    1.9060    0.2628    0.3980 C   0  0  0  0  0  0  0  0  0  0  0  0
    0.6330   -0.4250    0.0685 C   0  0  0  0  0  3  0  0  0  0  0  0
   -0.2610   -0.9325    1.1416 C   0  0  0  0  0  0  0  0  0  0  0  0
   -1.4364   -1.7546    0.6268 C   0  0  0  0  0  0  0  0  0  0  0  0
    2.4899   -0.3070    1.1292 H   0  0  0  0  0  0  0  0  0  0  0  0
    1.7297    1.2496    0.8515 H   0  0  0  0  0  0  0  0  0  0  0  0
    2.5269    0.4197   -0.4845 H   0  0  0  0  0  0  0  0  0  0  0  0
    0.2597   -0.3936   -0.9489 H   0  0  0  0  0  0  0  0  0  0  0  0
   -0.6439   -0.0868    1.7356 H   0  0  0  0  0  0  0  0  0  0  0  0
    0.3260   -1.5277    1.8536 H   0  0  0  0  0  0  0  0  0  0  0  0
   -1.0872   -2.6320    0.0792 H   0  0  0  0  0  0  0  0  0  0  0  0
   -2.0701   -2.0976    1.4459 H   0  0  0  0  0  0  0  0  0  0  0  0
   -2.0561   -1.1637   -0.0512 H   0  0  0  0  0  0  0  0  0  0  0  0
  1  2  1  0
  1  5  1  0
  1  6  1  0
  1  7  1  0
  2  3  1  0
  2  8  1  0
  3  4  1  0
  3  9  1  0
  3 10  1  0
  4 11  1  0
  4 12  1  0
  4 13  1  0
M  RAD  1   2   2
M  END
>  <reaction>  (2) 
rmg_rxn_22

>  <mol_properties>  (2) 
{"1": {"label": "acceptor", "atom_type": "Cs"}}

>  <type>  (2) 
r2

$$$$

     RDKit          3D

 14 13  0  0  0  0  0  0  0  0999 V2000
    1.8106   -0.5953    0.5577 C   0  0  0  0  0  0  0  0  0  0  0  0
    0.5197    0.2064    0.6554 C   0  0  0  0  0  0  0  0  0  0  0  0
   -0.5206   -0.2080   -0.3788 C   0  0  0  0  0  0  0  0  0  0  0  0
   -1.8114    0.5937   -0.2812 C   0  0  0  0  0  0  0  0  0  0  0  0
    2.2725   -0.4752   -0.4251 H   0  0  0  0  0  0  0  0  0  0  0  0
    1.6214   -1.6612    0.7052 H   0  0  0  0  0  0  0  0  0  0  0  0
    2.5364   -0.2784    1.3084 H   0  0  0  0  0  0  0  0  0  0  0  0
    0.0930    0.0950    1.6574 H   0  0  0  0  0  0  0  0  0  0  0  0
    0.7393    1.2723    0.5354 H   0  0  0  0  0  0  0  0  0  0  0  0
   -0.7402   -1.2739   -0.2588 H   0  0  0  0  0  0  0  0  0  0  0  0
   -0.0938   -0.0965   -1.3808 H   0  0  0  0  0  0  0  0  0  0  0  0
   -1.6222    1.6596   -0.4287 H   0  0  0  0  0  0  0  0  0  0  0  0
   -2.2734    0.4736    0.7017 H   0  0  0  0  0  0  0  0  0  0  0  0
   -2.5373    0.2768   -1.0318 H   0  0  0  0  0  0  0  0  0  0  0  0
  1  2  1  0
  1  5  1  0
  1  6  1  0
  1  7  1  0
  2  3  1  0
  2  8  1  0
  2  9  1  0
  3  4  1  0
  3 10  1  0
  3 11  1  0
  4 12  1  0
  4 13  1  0
  4 14  1  0
M  END
>  <reaction>  (3) 
rmg_rxn_22

>  <mol_properties>  (3) 
{"0": {"label": "a_hydrogen", "atom_type": "H0"}, "2": {"label": "acceptor", "atom_type": "Cs"}}

>  <type>  (3) 
r2h

$$$$

     RDKit          3D

 18 16  0  0  0  0  0  0  0  0999 V2000
   -0.4246   -1.8145   -0.0028 N   0  0  0  0  0  2  0  0  0  0  0  0
    0.5747   -1.8594   -0.8963 N   0  0  0  0  0  0  0  0  0  0  0  0
   -0.3735   -0.6791    0.4303 H   0  0  0  0  0  0  0  0  0  0  0  0
    0.8532   -2.7958   -1.1509 H   0  0  0  0  0  0  0  0  0  0  0  0
    1.3507   -1.2177   -0.7820 H   0  0  0  0  0  0  0  0  0  0  0  0
    1.1677    0.5893    1.5992 C   0  0  0  0  0  0  0  0  0  0  0  0
   -0.1186    0.6289    0.8215 C   0  0  0  0  0  3  0  0  0  0  0  0
   -0.1294    1.4539   -0.4379 C   0  0  0  0  0  0  0  0  0  0  0  0
   -1.4408    1.3656   -1.2078 C   0  0  0  0  0  0  0  0  0  0  0  0
    1.4036    1.5723    2.0235 H   0  0  0  0  0  0  0  0  0  0  0  0
    2.0136    0.3110    0.9632 H   0  0  0  0  0  0  0  0  0  0  0  0
    1.1168   -0.1236    2.4230 H   0  0  0  0  0  0  0  0  0  0  0  0
   -1.0004    0.7839    1.4457 H   0  0  0  0  0  0  0  0  0  0  0  0
    0.6989    1.1438   -1.0854 H   0  0  0  0  0  0  0  0  0  0  0  0
    0.0787    2.5016   -0.1798 H   0  0  0  0  0  0  0  0  0  0  0  0
   -2.2761    1.7055   -0.5917 H   0  0  0  0  0  0  0  0  0  0  0  0
   -1.4139    1.9832   -2.1065 H   0  0  0  0  0  0  0  0  0  0  0  0
   -1.6438    0.3359   -1.5064 H   0  0  0  0  0  0  0  0  0  0  0  0
  1  2  1  0
  1  3  1  0
  2  4  1  0
  2  5  1  0
  6  7  1  0
  6 10  1  0
  6 11  1  0
  6 12  1  0
  7  8  1  0
  7 13  1  0
  8  9  1  0
  8 14  1  0
  8 15  1  0
  9 16  1  0
  9 17  1  0
  9 18  1  0
M  RAD  2   1   2   7   2
M  END
>  <reaction>  (4) 
rmg_rxn_22

>  <mol_properties>  (4) 
{"0": {"label": "*1", "atom_type": "N3s"}, "1": {"label": "*0", "atom_type": "N3s"}, "2": {"label": "*2", "atom_type": "H0"}, "6": {"label": "*3", "atom_type": "Cs"}, "7": {"label": "*4", "atom_type": "Cs"}}

>  <type>  (4) 
ts

$$$$

     RDKit          3D

 18 16  0  0  0  0  0  0  0  0999 V2000
    0.4019   -1.6911   -0.4895 N   0  0  0  0  0  2  0  0  0  0  0  0
    0.4019   -1.6911   -1.8305 N   0  0  0  0  0  0  0  0  0  0  0  0
    0.4019   -0.5153   -0.1493 H   0  0  0  0  0  0  0  0  0  0  0  0
    0.5899   -2.5910   -2.2394 H   0  0  0  0  0  0  0  0  0  0  0  0
    0.7639   -0.9026   -2.3480 H   0  0  0  0  0  0  0  0  0  0  0  0
    1.0379    2.0099   -0.3485 C   0  0  0  0  0  0  0  0  0  0  0  0
    0.4019    0.7467    0.2159 C   0  0  0  0  0  3  0  0  0  0  0  0
   -0.8455    1.0257    1.0463 C   0  0  0  0  0  0  0  0  0  0  0  0
   -1.4815   -0.2375    1.6107 C   0  0  0  0  0  0  0  0  0  0  0  0
    1.3341    2.6907    0.4531 H   0  0  0  0  0  0  0  0  0  0  0  0
    0.3380    2.5455   -0.9944 H   0  0  0  0  0  0  0  0  0  0  0  0
    1.9274    1.7814   -0.9378 H   0  0  0  0  0  0  0  0  0  0  0  0
    1.1313    0.2126    0.8333 H   0  0  0  0  0  0  0  0  0  0  0  0
   -1.5749    1.5598    0.4289 H   0  0  0  0  0  0  0  0  0  0  0  0
   -0.5861    1.7040    1.8656 H   0  0  0  0  0  0  0  0  0  0  0  0
   -0.7816   -0.7731    2.2566 H   0  0  0  0  0  0  0  0  0  0  0  0
   -2.3710   -0.0090    2.2000 H   0  0  0  0  0  0  0  0  0  0  0  0
   -1.7777   -0.9183    0.8091 H   0  0  0  0  0  0  0  0  0  0  0  0
  1  2  1  0
  1  3  1  0
  2  4  1  0
  2  5  1  0
  6  7  1  0
  6 10  1  0
  6 11  1  0
  6 12  1  0
  7  8  1  0
  7 13  1  0
  8  9  1  0
  8 14  1  0
  8 15  1  0
  9 16  1  0
  9 17  1  0
  9 18  1  0
M  RAD  2   1   2   7   2
M  END
>  <reaction>  (5) 
rmg_rxn_22

>  <mol_properties>  (5) 
{"0": {"label": "*1", "atom_type": "N3s"}, "1": {"label": "*0", "atom_type": "N3s"}, "2": {"label": "*2", "atom_type": "H0"}, "6": {"label": "*3", "atom_type": "Cs"}, "7": {"label": "*4", "atom_type": "Cs"}}

>  <type>  (5) 
unop_1

>  <geom_source>  (5) 
Heuristics

$$$$

     RDKit          3D

 18 16  0  0  0  0  0  0  0  0999 V2000
    0.2344   -1.8746    0.1379 N   0  0  0  0  0  2  0  0  0  0  0  0
    0.2344   -1.8746   -1.2031 N   0  0  0  0  0  0  0  0  0  0  0  0
    0.2344   -0.6988    0.4781 H   0  0  0  0  0  0  0  0  0  0  0  0
    0.4223   -2.7746   -1.6120 H   0  0  0  0  0  0  0  0  0  0  0  0
    0.5964   -1.0862   -1.7206 H   0  0  0  0  0  0  0  0  0  0  0  0
    1.4664    1.2586    1.4065 C   0  0  0  0  0  0  0  0  0  0  0  0
    0.2344    0.5632    0.8433 C   0  0  0  0  0  3  0  0  0  0  0  0
   -0.4858    1.3891   -0.2163 C   0  0  0  0  0  0  0  0  0  0  0  0
   -1.7178    0.6936   -0.7795 C   0  0  0  0  0  0  0  0  0  0  0  0
    1.2001    2.2110    1.8710 H   0  0  0  0  0  0  0  0  0  0  0  0
    2.1925    1.4681    0.6174 H   0  0  0  0  0  0  0  0  0  0  0  0
    1.9618    0.6462    2.1616 H   0  0  0  0  0  0  0  0  0  0  0  0
   -0.4632    0.3364    1.6561 H   0  0  0  0  0  0  0  0  0  0  0  0
    0.2117    1.6158   -1.0291 H   0  0  0  0  0  0  0  0  0  0  0  0
   -0.7734    2.3532    0.2153 H   0  0  0  0  0  0  0  0  0  0  0  0
   -2.4439    0.4841    0.0096 H   0  0  0  0  0  0  0  0  0  0  0  0
   -2.2132    1.3061   -1.5346 H   0  0  0  0  0  0  0  0  0  0  0  0
   -1.4515   -0.2588   -1.2440 H   0  0  0  0  0  0  0  0  0  0  0  0
  1  2  1  0
  1  3  1  0
  2  4  1  0
  2  5  1  0
  6  7  1  0
  6 10  1  0
  6 11  1  0
  6 12  1  0
  7  8  1  0
  7 13  1  0
  8  9  1  0
  8 14  1  0
  8 15  1  0
  9 16  1  0
  9 17  1  0
  9 18  1  0
M  RAD  2   1   2   7   2
M  END
>  <reaction>  (6) 
rmg_rxn_22

>  <mol_properties>  (6) 
{"0": {"label": "*1", "atom_type": "N3s"}, "1": {"label": "*0", "atom_type": "N3s"}, "2": {"label": "*2", "atom_type": "H0"}, "6": {"label": "*3", "atom_type": "Cs"}, "7": {"label": "*4", "atom_type": "Cs"}}

>  <type>  (6) 
unop_2

>  <geom_source>  (6) 
Heuristics

$$$$

     RDKit          3D

 18 16  0  0  0  0  0  0  0  0999 V2000
    0.2266   -1.6449   -0.6532 N   0  0  0  0  0  2  0  0  0  0  0  0
    0.2266   -1.6449   -1.9942 N   0  0  0  0  0  0  0  0  0  0  0  0
    0.2266   -0.4692   -0.3130 H   0  0  0  0  0  0  0  0  0  0  0  0
    0.4145   -2.5449   -2.4031 H   0  0  0  0  0  0  0  0  0  0  0  0
    0.5886   -0.8565   -2.5117 H   0  0  0  0  0  0  0  0  0  0  0  0
    0.0963    2.0333   -0.8212 C   0  0  0  0  0  0  0  0  0  0  0  0
    0.2266    0.7928    0.0522 C   0  0  0  0  0  3  0  0  0  0  0  0
   -0.4936    0.9253    1.3891 C   0  0  0  0  0  0  0  0  0  0  0  0
   -0.3634   -0.3152    2.2625 C   0  0  0  0  0  0  0  0  0  0  0  0
    0.5129    2.9103   -0.3201 H   0  0  0  0  0  0  0  0  0  0  0  0
   -0.9518    2.2472   -1.0435 H   0  0  0  0  0  0  0  0  0  0  0  0
    0.6204    1.9113   -1.7706 H   0  0  0  0  0  0  0  0  0  0  0  0
    1.2852    0.5817    0.2349 H   0  0  0  0  0  0  0  0  0  0  0  0
   -1.5522    1.1364    1.2064 H   0  0  0  0  0  0  0  0  0  0  0  0
   -0.0983    1.7946    1.9244 H   0  0  0  0  0  0  0  0  0  0  0  0
    0.6848   -0.5291    2.4847 H   0  0  0  0  0  0  0  0  0  0  0  0
   -0.8874   -0.1932    3.2119 H   0  0  0  0  0  0  0  0  0  0  0  0
   -0.7799   -1.1922    1.7614 H   0  0  0  0  0  0  0  0  0  0  0  0
  1  2  1  0
  1  3  1  0
  2  4  1  0
  2  5  1  0
  6  7  1  0
  6 10  1  0
  6 11  1  0
  6 12  1  0
  7  8  1  0
  7 13  1  0
  8  9  1  0
  8 14  1  0
  8 15  1  0
  9 16  1  0
  9 17  1  0
  9 18  1  0
M  RAD  2   1   2   7   2
M  END
>  <reaction>  (7) 
rmg_rxn_22

>  <mol_properties>  (7) 
{"0": {"label": "*1", "atom_type": "N3s"}, "1": {"label": "*0", "atom_type": "N3s"}, "2": {"label": "*2", "atom_type": "H0"}, "6": {"label": "*3", "atom_type": "Cs"}, "7": {"label": "*4", "atom_type": "Cs"}}

>  <type>  (7) 
unop_3

>  <geom_source>  (7) 
Heuristics

$$$$

     RDKit          3D

 18 16  0  0  0  0  0  0  0  0999 V2000
   -0.4211   -1.8243   -0.0320 N   0  0  0  0  0  2  0  0  0  0  0  0
   -0.4211   -1.8243   -1.3730 N   0  0  0  0  0  0  0  0  0  0  0  0
   -0.4211   -0.6485    0.3082 H   0  0  0  0  0  0  0  0  0  0  0  0
   -0.2331   -2.7243   -1.7819 H   0  0  0  0  0  0  0  0  0  0  0  0
   -0.0591   -1.0359   -1.8905 H   0  0  0  0  0  0  0  0  0  0  0  0
   -0.2131    0.0228    2.0613 C   0  0  0  0  0  0  0  0  0  0  0  0
   -0.4211    0.6135    0.6734 C   0  0  0  0  0  3  0  0  0  0  0  0
    0.8263    1.2928    0.1202 C   0  0  0  0  0  0  0  0  0  0  0  0
    0.6184    1.8836   -1.2677 C   0  0  0  0  0  0  0  0  0  0  0  0
    0.0725    0.7970    2.7774 H   0  0  0  0  0  0  0  0  0  0  0  0
    0.5812   -0.7274    2.0524 H   0  0  0  0  0  0  0  0  0  0  0  0
   -1.1204   -0.4565    2.4325 H   0  0  0  0  0  0  0  0  0  0  0  0
   -1.2410    1.3384    0.7018 H   0  0  0  0  0  0  0  0  0  0  0  0
    1.6463    0.5680    0.0918 H   0  0  0  0  0  0  0  0  0  0  0  0
    1.1414    2.0812    0.8115 H   0  0  0  0  0  0  0  0  0  0  0  0
   -0.1759    2.6338   -1.2588 H   0  0  0  0  0  0  0  0  0  0  0  0
    1.5257    2.3629   -1.6389 H   0  0  0  0  0  0  0  0  0  0  0  0
    0.3328    1.1093   -1.9838 H   0  0  0  0  0  0  0  0  0  0  0  0
  1  2  1  0
  1  3  1  0
  2  4  1  0
  2  5  1  0
  6  7  1  0
  6 10  1  0
  6 11  1  0
  6 12  1  0
  7  8  1  0
  7 13  1  0
  8  9  1  0
  8 14  1  0
  8 15  1  0
  9 16  1  0
  9 17  1  0
  9 18  1  0
M  RAD  2   1   2   7   2
M  END
>  <reaction>  (8) 
rmg_rxn_22

>  <mol_properties>  (8) 
{"0": {"label": "*1", "atom_type": "N3s"}, "1": {"label": "*0", "atom_type": "N3s"}, "2": {"label": "*2", "atom_type": "H0"}, "6": {"label": "*3", "atom_type": "Cs"}, "7": {"label": "*4", "atom_type": "Cs"}}

>  <type>  (8) 
unop_4

>  <geom_source>  (8) 
Heuristics

$$$$

     RDKit          3D

 18 16  0  0  0  0  0  0  0  0999 V2000
   -0.0063   -1.6293   -0.7117 N   0  0  0  0  0  2  0  0  0  0  0  0
   -0.0063   -1.6293   -2.0527 N   0  0  0  0  0  0  0  0  0  0  0  0
   -0.0063   -0.4536   -0.3714 H   0  0  0  0  0  0  0  0  0  0  0  0
    0.1817   -2.5293   -2.4615 H   0  0  0  0  0  0  0  0  0  0  0  0
    0.3557   -0.8409   -2.5701 H   0  0  0  0  0  0  0  0  0  0  0  0
   -1.1912    1.5239   -0.6408 C   0  0  0  0  0  0  0  0  0  0  0  0
   -0.0063    0.8084   -0.0063 C   0  0  0  0  0  3  0  0  0  0  0  0
   -0.0063    0.8872    1.5160 C   0  0  0  0  0  0  0  0  0  0  0  0
    1.1786    0.1718    2.1506 C   0  0  0  0  0  0  0  0  0  0  0  0
   -1.1957    2.5840   -0.3764 H   0  0  0  0  0  0  0  0  0  0  0  0
   -2.1362    1.0947   -0.2993 H   0  0  0  0  0  0  0  0  0  0  0  0
   -1.1663    1.4518   -1.7294 H   0  0  0  0  0  0  0  0  0  0  0  0
    0.9273    1.2351   -0.3871 H   0  0  0  0  0  0  0  0  0  0  0  0
   -0.9399    0.4606    1.8968 H   0  0  0  0  0  0  0  0  0  0  0  0
   -0.0063    1.9389    1.8203 H   0  0  0  0  0  0  0  0  0  0  0  0
    2.1236    0.6009    1.8090 H   0  0  0  0  0  0  0  0  0  0  0  0
    1.1537    0.2439    3.2391 H   0  0  0  0  0  0  0  0  0  0  0  0
    1.1831   -0.8883    1.8861 H   0  0  0  0  0  0  0  0  0  0  0  0
  1  2  1  0
  1  3  1  0
  2  4  1  0
  2  5  1  0
  6  7  1  0
  6 10  1  0
  6 11  1  0
  6 12  1  0
  7  8  1  0
  7 13  1  0
  8  9  1  0
  8 14  1  0
  8 15  1  0
  9 16  1  0
  9 17  1  0
  9 18  1  0
M  RAD  2   1   2   7   2
M  END
>  <reaction>  (9) 
rmg_rxn_22

>  <mol_properties>  (9) 
{"0": {"label": "*1", "atom_type": "N3s"}, "1": {"label": "*0", "atom_type": "N3s"}, "2": {"label": "*2", "atom_type": "H0"}, "6": {"label": "*3", "atom_type": "Cs"}, "7": {"label": "*4", "atom_type": "Cs"}}

>  <type>  (9) 
unop_5

>  <geom_source>  (9) 
Heuristics

$$$$

     RDKit          3D

 18 16  0  0  0  0  0  0  0  0999 V2000
   -0.4819   -1.7569   -0.2621 N   0  0  0  0  0  2  0  0  0  0  0  0
   -0.4819   -1.7569   -1.6030 N   0  0  0  0  0  0  0  0  0  0  0  0
   -0.4819   -0.5811    0.0782 H   0  0  0  0  0  0  0  0  0  0  0  0
   -0.2940   -2.6568   -2.0119 H   0  0  0  0  0  0  0  0  0  0  0  0
   -0.1199   -0.9685   -2.1205 H   0  0  0  0  0  0  0  0  0  0  0  0
   -0.9930   -0.0399    1.6834 C   0  0  0  0  0  0  0  0  0  0  0  0
   -0.4819    0.6809    0.4434 C   0  0  0  0  0  3  0  0  0  0  0  0
    0.9585    1.1601    0.5820 C   0  0  0  0  0  0  0  0  0  0  0  0
    1.4695    1.8809   -0.6581 C   0  0  0  0  0  0  0  0  0  0  0  0
   -0.9570    0.6133    2.5585 H   0  0  0  0  0  0  0  0  0  0  0  0
   -0.3839   -0.9199    1.9035 H   0  0  0  0  0  0  0  0  0  0  0  0
   -2.0249   -0.3716    1.5570 H   0  0  0  0  0  0  0  0  0  0  0  0
   -1.1257    1.5393    0.2260 H   0  0  0  0  0  0  0  0  0  0  0  0
    1.6023    0.3016    0.7994 H   0  0  0  0  0  0  0  0  0  0  0  0
    1.0334    1.8236    1.4496 H   0  0  0  0  0  0  0  0  0  0  0  0
    0.8605    2.7609   -0.8781 H   0  0  0  0  0  0  0  0  0  0  0  0
    2.5014    2.2126   -0.5316 H   0  0  0  0  0  0  0  0  0  0  0  0
    1.4336    1.2277   -1.5332 H   0  0  0  0  0  0  0  0  0  0  0  0
  1  2  1  0
  1  3  1  0
  2  4  1  0
  2  5  1  0
  6  7  1  0
  6 10  1  0
  6 11  1  0
  6 12  1  0
  7  8  1  0
  7 13  1  0
  8  9  1  0
  8 14  1  0
  8 15  1  0
  9 16  1  0
  9 17  1  0
  9 18  1  0
M  RAD  2   1   2   7   2
M  END
>  <reaction>  (10) 
rmg_rxn_22

>  <mol_properties>  (10) 
{"0": {"label": "*1", "atom_type": "N3s"}, "1": {"label": "*0", "atom_type": "N3s"}, "2": {"label": "*2", "atom_type": "H0"}, "6": {"label": "*3", "atom_type": "Cs"}, "7": {"label": "*4", "atom_type": "Cs"}}

>  <type>  (10) 
unop_6

>  <geom_source>  (10) 
Heuristics

$$$$

     RDKit          3D

 18 16  0  0  0  0  0  0  0  0999 V2000
   -0.4145   -1.6911   -0.4895 N   0  0  0  0  0  2  0  0  0  0  0  0
   -0.4145   -1.6911   -1.8305 N   0  0  0  0  0  0  0  0  0  0  0  0
   -0.4145   -0.5153   -0.1493 H   0  0  0  0  0  0  0  0  0  0  0  0
   -0.2265   -2.5910   -2.2394 H   0  0  0  0  0  0  0  0  0  0  0  0
   -0.0525   -0.9026   -2.3480 H   0  0  0  0  0  0  0  0  0  0  0  0
   -1.5535    0.1503    1.0317 C   0  0  0  0  0  0  0  0  0  0  0  0
   -0.4145    0.7467    0.2159 C   0  0  0  0  0  3  0  0  0  0  0  0
    0.8329    1.0257    1.0463 C   0  0  0  0  0  0  0  0  0  0  0  0
    1.9719    1.6221    0.2305 C   0  0  0  0  0  0  0  0  0  0  0  0
   -1.8516    0.8241    1.8385 H   0  0  0  0  0  0  0  0  0  0  0  0
   -1.2547   -0.7971    1.4866 H   0  0  0  0  0  0  0  0  0  0  0  0
   -2.4324   -0.0391    0.4134 H   0  0  0  0  0  0  0  0  0  0  0  0
   -0.7476    1.6777   -0.2541 H   0  0  0  0  0  0  0  0  0  0  0  0
    1.1660    0.0947    1.5163 H   0  0  0  0  0  0  0  0  0  0  0  0
    0.5736    1.7040    1.8656 H   0  0  0  0  0  0  0  0  0  0  0  0
    1.6731    2.5695   -0.2244 H   0  0  0  0  0  0  0  0  0  0  0  0
    2.8509    1.8115    0.8488 H   0  0  0  0  0  0  0  0  0  0  0  0
    2.2700    0.9483   -0.5763 H   0  0  0  0  0  0  0  0  0  0  0  0
  1  2  1  0
  1  3  1  0
  2  4  1  0
  2  5  1  0
  6  7  1  0
  6 10  1  0
  6 11  1  0
  6 12  1  0
  7  8  1  0
  7 13  1  0
  8  9  1  0
  8 14  1  0
  8 15  1  0
  9 16  1  0
  9 17  1  0
  9 18  1  0
M  RAD  2   1   2   7   2
M  END
>  <reaction>  (11) 
rmg_rxn_22

>  <mol_properties>  (11) 
{"0": {"label": "*1", "atom_type": "N3s"}, "1": {"label": "*0", "atom_type": "N3s"}, "2": {"label": "*2", "atom_type": "H0"}, "6": {"label": "*3", "atom_type": "Cs"}, "7": {"label": "*4", "atom_type": "Cs"}}

>  <type>  (11) 
unop_7

>  <geom_source>  (11) 
Heuristics

$$$$

     RDKit          3D

 18 16  0  0  0  0  0  0  0  0999 V2000
    0.4693   -1.7569   -0.2621 N   0  0  0  0  0  2  0  0  0  0  0  0
    0.4693   -1.7569   -1.6030 N   0  0  0  0  0  0  0  0  0  0  0  0
    0.4693   -0.5811    0.0782 H   0  0  0  0  0  0  0  0  0  0  0  0
    0.6573   -2.6568   -2.0119 H   0  0  0  0  0  0  0  0  0  0  0  0
    0.8313   -0.9685   -2.1205 H   0  0  0  0  0  0  0  0  0  0  0  0
    1.4669    1.8225    0.3011 C   0  0  0  0  0  0  0  0  0  0  0  0
    0.4693    0.6809    0.4434 C   0  0  0  0  0  3  0  0  0  0  0  0
   -0.9710    1.1601    0.5820 C   0  0  0  0  0  0  0  0  0  0  0  0
   -1.9686    0.0185    0.7243 C   0  0  0  0  0  0  0  0  0  0  0  0
    1.4328    2.4827    1.1709 H   0  0  0  0  0  0  0  0  0  0  0  0
    1.2458    2.4277   -0.5813 H   0  0  0  0  0  0  0  0  0  0  0  0
    2.4885    1.4516    0.2037 H   0  0  0  0  0  0  0  0  0  0  0  0
    0.7298    0.0720    1.3151 H   0  0  0  0  0  0  0  0  0  0  0  0
   -1.2315    1.7690   -0.2897 H   0  0  0  0  0  0  0  0  0  0  0  0
   -1.0459    1.8236    1.4496 H   0  0  0  0  0  0  0  0  0  0  0  0
   -1.7475   -0.5868    1.6067 H   0  0  0  0  0  0  0  0  0  0  0  0
   -2.9902    0.3894    0.8217 H   0  0  0  0  0  0  0  0  0  0  0  0
   -1.9345   -0.6418   -0.1456 H   0  0  0  0  0  0  0  0  0  0  0  0
  1  2  1  0
  1  3  1  0
  2  4  1  0
  2  5  1  0
  6  7  1  0
  6 10  1  0
  6 11  1  0
  6 12  1  0
  7  8  1  0
  7 13  1  0
  8  9  1  0
  8 14  1  0
  8 15  1  0
  9 16  1  0
  9 17  1  0
  9 18  1  0
M  RAD  2   1   2   7   2
M  END
>  <reaction>  (12) 
rmg_rxn_22

>  <mol_properties>  (12) 
{"0": {"label": "*1", "atom_type": "N3s"}, "1": {"label": "*0", "atom_type": "N3s"}, "2": {"label": "*2", "atom_type": "H0"}, "6": {"label": "*3", "atom_type": "Cs"}, "7": {"label": "*4", "atom_type": "Cs"}}

>  <type>  (12) 
unop_8

>  <geom_source>  (12) 
Heuristics

$$$$

     RDKit          3D

 18 16  0  0  0  0  0  0  0  0999 V2000
   -0.2470   -1.8746    0.1379 N   0  0  0  0  0  2  0  0  0  0  0  0
   -0.2470   -1.8746   -1.2031 N   0  0  0  0  0  0  0  0  0  0  0  0
   -0.2470   -0.6988    0.4781 H   0  0  0  0  0  0  0  0  0  0  0  0
   -0.0590   -2.7746   -1.6120 H   0  0  0  0  0  0  0  0  0  0  0  0
    0.1150   -1.0862   -1.7206 H   0  0  0  0  0  0  0  0  0  0  0  0
    0.5921    0.3336    2.0931 C   0  0  0  0  0  0  0  0  0  0  0  0
   -0.2470    0.5632    0.8433 C   0  0  0  0  0  3  0  0  0  0  0  0
    0.4732    1.3891   -0.2163 C   0  0  0  0  0  0  0  0  0  0  0  0
   -0.3658    1.6187   -1.4661 C   0  0  0  0  0  0  0  0  0  0  0  0
    0.8662    1.2825    2.5602 H   0  0  0  0  0  0  0  0  0  0  0  0
    1.5175   -0.1946    1.8516 H   0  0  0  0  0  0  0  0  0  0  0  0
    0.0531   -0.2594    2.8338 H   0  0  0  0  0  0  0  0  0  0  0  0
   -1.1811    1.0653    1.1151 H   0  0  0  0  0  0  0  0  0  0  0  0
    1.4074    0.8870   -0.4881 H   0  0  0  0  0  0  0  0  0  0  0  0
    0.7608    2.3532    0.2153 H   0  0  0  0  0  0  0  0  0  0  0  0
   -1.2912    2.1469   -1.2246 H   0  0  0  0  0  0  0  0  0  0  0  0
    0.1732    2.2117   -2.2068 H   0  0  0  0  0  0  0  0  0  0  0  0
   -0.6399    0.6697   -1.9332 H   0  0  0  0  0  0  0  0  0  0  0  0
  1  2  1  0
  1  3  1  0
  2  4  1  0
  2  5  1  0
  6  7  1  0
  6 10  1  0
  6 11  1  0
  6 12  1  0
  7  8  1  0
  7 13  1  0
  8  9  1  0
  8 14  1  0
  8 15  1  0
  9 16  1  0
  9 17  1  0
  9 18  1  0
M  RAD  2   1   2   7   2
M  END
>  <reaction>  (13) 
rmg_rxn_22

>  <mol_properties>  (13) 
{"0": {"label": "*1", "atom_type": "N3s"}, "1": {"label": "*0", "atom_type": "N3s"}, "2": {"label": "*2", "atom_type": "H0"}, "6": {"label": "*3", "atom_type": "Cs"}, "7": {"label": "*4", "atom_type": "Cs"}}

>  <type>  (13) 
unop_9

>  <geom_source>  (13) 
Heuristics

$$$$

     RDKit          3D

 18 16  0  0  0  0  0  0  0  0999 V2000
    0.4085   -1.8243   -0.0320 N   0  0  0  0  0  2  0  0  0  0  0  0
    0.4085   -1.8243   -1.3730 N   0  0  0  0  0  0  0  0  0  0  0  0
    0.4085   -0.6485    0.3082 H   0  0  0  0  0  0  0  0  0  0  0  0
    0.5964   -2.7243   -1.7819 H   0  0  0  0  0  0  0  0  0  0  0  0
    0.7705   -1.0359   -1.8905 H   0  0  0  0  0  0  0  0  0  0  0  0
    1.5616    1.5806    0.9051 C   0  0  0  0  0  0  0  0  0  0  0  0
    0.4085    0.6135    0.6734 C   0  0  0  0  0  3  0  0  0  0  0  0
   -0.8389    1.2928    0.1202 C   0  0  0  0  0  0  0  0  0  0  0  0
   -1.9921    0.3258   -0.1115 C   0  0  0  0  0  0  0  0  0  0  0  0
    1.2812    2.3607    1.6168 H   0  0  0  0  0  0  0  0  0  0  0  0
    1.8528    2.0727   -0.0259 H   0  0  0  0  0  0  0  0  0  0  0  0
    2.4403    1.0685    1.3006 H   0  0  0  0  0  0  0  0  0  0  0  0
    0.1561    0.1110    1.6128 H   0  0  0  0  0  0  0  0  0  0  0  0
   -0.5865    1.7953   -0.8191 H   0  0  0  0  0  0  0  0  0  0  0  0
   -1.1539    2.0812    0.8115 H   0  0  0  0  0  0  0  0  0  0  0  0
   -2.2832   -0.1663    0.8196 H   0  0  0  0  0  0  0  0  0  0  0  0
   -2.8707    0.8379   -0.5070 H   0  0  0  0  0  0  0  0  0  0  0  0
   -1.7116   -0.4543   -0.8232 H   0  0  0  0  0  0  0  0  0  0  0  0
  1  2  1  0
  1  3  1  0
  2  4  1  0
  2  5  1  0
  6  7  1  0
  6 10  1  0
  6 11  1  0
  6 12  1  0
  7  8  1  0
  7 13  1  0
  8  9  1  0
  8 14  1  0
  8 15  1  0
  9 16  1  0
  9 17  1  0
  9 18  1  0
M  RAD  2   1   2   7   2
M  END
>  <reaction>  (14) 
rmg_rxn_22

>  <mol_properties>  (14) 
{"0": {"label": "*1", "atom_type": "N3s"}, "1": {"label": "*0", "atom_type": "N3s"}, "2": {"label": "*2", "atom_type": "H0"}, "6": {"label": "*3", "atom_type": "Cs"}, "7": {"label": "*4", "atom_type": "Cs"}}

>  <type>  (14) 
unop_10

>  <geom_source>  (14) 
Heuristics

$$$$

     RDKit          3D

 18 16  0  0  0  0  0  0  0  0999 V2000
   -0.2392   -1.6449   -0.6532 N   0  0  0  0  0  2  0  0  0  0  0  0
   -0.2392   -1.6449   -1.9942 N   0  0  0  0  0  0  0  0  0  0  0  0
   -0.2392   -0.4692   -0.3130 H   0  0  0  0  0  0  0  0  0  0  0  0
   -0.0512   -2.5449   -2.4031 H   0  0  0  0  0  0  0  0  0  0  0  0
    0.1228   -0.8565   -2.5117 H   0  0  0  0  0  0  0  0  0  0  0  0
   -1.7490    0.6596    0.1983 C   0  0  0  0  0  0  0  0  0  0  0  0
   -0.2392    0.7928    0.0522 C   0  0  0  0  0  3  0  0  0  0  0  0
    0.4810    0.9253    1.3891 C   0  0  0  0  0  0  0  0  0  0  0  0
    1.9908    1.0585    1.2430 C   0  0  0  0  0  0  0  0  0  0  0  0
   -2.1717    1.5315    0.7033 H   0  0  0  0  0  0  0  0  0  0  0  0
   -2.0087   -0.2219    0.7892 H   0  0  0  0  0  0  0  0  0  0  0  0
   -2.2385    0.5666   -0.7725 H   0  0  0  0  0  0  0  0  0  0  0  0
   -0.0056    1.6640   -0.5684 H   0  0  0  0  0  0  0  0  0  0  0  0
    0.2475    0.0541    2.0097 H   0  0  0  0  0  0  0  0  0  0  0  0
    0.0857    1.7946    1.9244 H   0  0  0  0  0  0  0  0  0  0  0  0
    2.2506    1.9400    0.6521 H   0  0  0  0  0  0  0  0  0  0  0  0
    2.4804    1.1515    2.2137 H   0  0  0  0  0  0  0  0  0  0  0  0
    2.4136    0.1866    0.7380 H   0  0  0  0  0  0  0  0  0  0  0  0
  1  2  1  0
  1  3  1  0
  2  4  1  0
  2  5  1  0
  6  7  1  0
  6 10  1  0
  6 11  1  0
  6 12  1  0
  7  8  1  0
  7 13  1  0
  8  9  1  0
  8 14  1  0
  8 15  1  0
  9 16  1  0
  9 17  1  0
  9 18  1  0
M  RAD  2   1   2   7   2
M  END
>  <reaction>  (15) 
rmg_rxn_22

>  <mol_properties>  (15) 
{"0": {"label": "*1", "atom_type": "N3s"}, "1": {"label": "*0", "atom_type": "N3s"}, "2": {"label": "*2", "atom_type": "H0"}, "6": {"label": "*3", "atom_type": "Cs"}, "7": {"label": "*4", "atom_type": "Cs"}}

>  <type>  (15) 
unop_11

>  <geom_source>  (15) 
Heuristics

$$$$

     RDKit          3D

 18 16  0  0  0  0  0  0  0  0999 V2000
   -0.0063   -1.8933    0.2005 N   0  0  0  0  0  2  0  0  0  0  0  0
   -0.0063   -1.8933   -1.1405 N   0  0  0  0  0  0  0  0  0  0  0  0
   -0.0063   -0.7175    0.5407 H   0  0  0  0  0  0  0  0  0  0  0  0
    0.1817   -2.7933   -1.5494 H   0  0  0  0  0  0  0  0  0  0  0  0
    0.3557   -1.1049   -1.6580 H   0  0  0  0  0  0  0  0  0  0  0  0
    1.1786    0.8105    1.8244 C   0  0  0  0  0  0  0  0  0  0  0  0
   -0.0063    0.5445    0.9059 C   0  0  0  0  0  3  0  0  0  0  0  0
   -0.0063    1.4240   -0.3391 C   0  0  0  0  0  0  0  0  0  0  0  0
   -1.1912    1.1580   -1.2577 C   0  0  0  0  0  0  0  0  0  0  0  0
    1.1831    1.8480    2.1669 H   0  0  0  0  0  0  0  0  0  0  0  0
    2.1236    0.6301    1.3065 H   0  0  0  0  0  0  0  0  0  0  0  0
    1.1537    0.1683    2.7063 H   0  0  0  0  0  0  0  0  0  0  0  0
   -0.9399    0.7018    1.4557 H   0  0  0  0  0  0  0  0  0  0  0  0
    0.9273    1.2667   -0.8889 H   0  0  0  0  0  0  0  0  0  0  0  0
   -0.0063    2.4757   -0.0348 H   0  0  0  0  0  0  0  0  0  0  0  0
   -2.1362    1.3384   -0.7397 H   0  0  0  0  0  0  0  0  0  0  0  0
   -1.1663    1.8002   -2.1395 H   0  0  0  0  0  0  0  0  0  0  0  0
   -1.1957    0.1205   -1.6002 H   0  0  0  0  0  0  0  0  0  0  0  0
  1  2  1  0
  1  3  1  0
  2  4  1  0
  2  5  1  0
  6  7  1  0
  6 10  1  0
  6 11  1  0
  6 12  1  0
  7  8  1  0
  7 13  1  0
  8  9  1  0
  8 14  1  0
  8 15  1  0
  9 16  1  0
  9 17  1  0
  9 18  1  0
M  RAD  2   1   2   7   2
M  END
>  <reaction>  (16) 
rmg_rxn_22

>  <mol_properties>  (16) 
{"0": {"label": "*1", "atom_type": "N3s"}, "1": {"label": "*0", "atom_type": "N3s"}, "2": {"label": "*2", "atom_type": "H0"}, "6": {"label": "*3", "atom_type": "Cs"}, "7": {"label": "*4", "atom_type": "Cs"}}

>  <type>  (16) 
unop_12

>  <geom_source>  (16) 
Heuristics

$$$$

     RDKit          3D

 18 16  0  0  0  0  0  0  0  0999 V2000
    0.2344   -1.8746    0.1379 N   0  0  0  0  0  2  0  0  0  0  0  0
    0.2344   -1.8746   -1.2031 N   0  0  0  0  0  0  0  0  0  0  0  0
    0.2344   -0.6988    0.4781 H   0  0  0  0  0  0  0  0  0  0  0  0
    0.4223   -2.7746   -1.6120 H   0  0  0  0  0  0  0  0  0  0  0  0
    0.5964   -1.0862   -1.7206 H   0  0  0  0  0  0  0  0  0  0  0  0
    1.4664    1.2586    1.4065 C   0  0  0  0  0  0  0  0  0  0  0  0
    0.2344    0.5632    0.8433 C   0  0  0  0  0  3  0  0  0  0  0  0
   -0.4858    1.3891   -0.2163 C   0  0  0  0  0  0  0  0  0  0  0  0
   -1.7178    0.6936   -0.7795 C   0  0  0  0  0  0  0  0  0  0  0  0
    1.2001    2.2110    1.8710 H   0  0  0  0  0  0  0  0  0  0  0  0
    2.1925    1.4681    0.6174 H   0  0  0  0  0  0  0  0  0  0  0  0
    1.9618    0.6462    2.1616 H   0  0  0  0  0  0  0  0  0  0  0  0
   -0.4632    0.3365    1.6561 H   0  0  0  0  0  0  0  0  0  0  0  0
    0.2117    1.6158   -1.0291 H   0  0  0  0  0  0  0  0  0  0  0  0
   -0.7734    2.3533    0.2153 H   0  0  0  0  0  0  0  0  0  0  0  0
   -2.4439    0.4841    0.0096 H   0  0  0  0  0  0  0  0  0  0  0  0
   -2.2132    1.3061   -1.5346 H   0  0  0  0  0  0  0  0  0  0  0  0
   -1.4515   -0.2588   -1.2440 H   0  0  0  0  0  0  0  0  0  0  0  0
  1  2  1  0
  1  3  1  0
  2  4  1  0
  2  5  1  0
  6  7  1  0
  6 10  1  0
  6 11  1  0
  6 12  1  0
  7  8  1  0
  7 13  1  0
  8  9  1  0
  8 14  1  0
  8 15  1  0
  9 16  1  0
  9 17  1  0
  9 18  1  0
M  RAD  2   1   2   7   2
M  END
>  <reaction>  (17) 
rmg_rxn_22

>  <mol_properties>  (17) 
{"0": {"label": "*1", "atom_type": "N3s"}, "1": {"label": "*0", "atom_type": "N3s"}, "2": {"label": "*2", "atom_type": "H0"}, "6": {"label": "*3", "atom_type": "Cs"}, "7": {"label": "*4", "atom_type": "Cs"}}

>  <type>  (17) 
unop_13

>  <geom_source>  (17) 
gaussian_log

$$$$
