
     RDKit          3D

  2  1  0  0  0  0  0  0  0  0999 V2000
    0.0000    0.0000    0.6715 S   0  0  0  0  0  1  0  0  0  0  0  0
    0.0000    0.0000   -0.6715 H   0  0  0  0  0  0  0  0  0  0  0  0
  1  2  1  0
M  RAD  1   1   2
M  END
>  <reaction>  (1) 
rmg_rxn_16507

>  <mol_properties>  (1) 
{"0": {"label": "donator", "atom_type": "S2s"}, "1": {"label": "d_hydrogen", "atom_type": "H0"}}

>  <type>  (1) 
r1h

$$$$

     RDKit          3D

  7  6  0  0  0  0  0  0  0  0999 V2000
   -0.6441   -0.1356    0.0624 C   0  0  0  0  0  0  0  0  0  0  0  0
    0.8523    0.0148   -0.0333 C   0  0  0  0  0  0  0  0  0  0  0  0
    1.6700   -0.6077    0.6603 N   0  0  0  0  0  2  0  0  0  0  0  0
   -1.0940    0.8275    0.3091 H   0  0  0  0  0  0  0  0  0  0  0  0
   -0.9104   -0.8656    0.8237 H   0  0  0  0  0  0  0  0  0  0  0  0
   -1.0427   -0.4545   -0.9022 H   0  0  0  0  0  0  0  0  0  0  0  0
    1.2362    0.7308   -0.7748 H   0  0  0  0  0  0  0  0  0  0  0  0
  1  2  1  0
  1  4  1  0
  1  5  1  0
  1  6  1  0
  2  3  2  0
  2  7  1  0
M  RAD  1   3   2
M  END
>  <reaction>  (2) 
rmg_rxn_16507

>  <mol_properties>  (2) 
{"2": {"label": "acceptor", "atom_type": "N3d"}}

>  <type>  (2) 
r2

$$$$

     RDKit          3D

  8  7  0  0  0  0  0  0  0  0999 V2000
    0.9548    0.1194   -0.0790 C   0  0  0  0  0  0  0  0  0  0  0  0
   -0.4838   -0.2649    0.0193 C   0  0  0  0  0  0  0  0  0  0  0  0
   -0.8933   -1.1081    0.8664 N   0  0  0  0  0  0  0  0  0  0  0  0
    1.3360   -0.0983   -1.0800 H   0  0  0  0  0  0  0  0  0  0  0  0
    1.0698    1.1948    0.0786 H   0  0  0  0  0  0  0  0  0  0  0  0
    1.5426   -0.4219    0.6602 H   0  0  0  0  0  0  0  0  0  0  0  0
   -1.1575    0.2324   -0.6905 H   0  0  0  0  0  0  0  0  0  0  0  0
   -1.8989   -1.2455    0.7886 H   0  0  0  0  0  0  0  0  0  0  0  0
  1  2  1  0
  1  4  1  0
  1  5  1  0
  1  6  1  0
  2  3  2  3
  2  7  1  0
  3  8  1  0
M  END
>  <reaction>  (3) 
rmg_rxn_16507

>  <mol_properties>  (3) 
{"0": {"label": "a_hydrogen", "atom_type": "H0"}, "3": {"label": "acceptor", "atom_type": "N3d"}}

>  <type>  (3) 
r2h

$$$$

     RDKit          3D

  9  7  0  0  0  0  0  0  0  0999 V2000
    0.0000   -0.3216   -2.0238 S   0  0  0  0  0 15  0  0  0  0  0  0
    0.0000   -0.6314   -0.5423 H   0  0  0  0  0  0  0  0  0  0  0  0
    0.0000    0.9618    2.6821 C   0  0  0  0  0  0  0  0  0  0  0  0
    0.0000    0.6260    1.2210 C   0  0  0  0  0  0  0  0  0  0  0  0
    0.0000   -0.5531    0.8084 N   0  0  0  0  0  0  0  0  0  0  0  0
    0.8811    1.5624    2.9151 H   0  0  0  0  0  0  0  0  0  0  0  0
   -0.0000    0.0604    3.2910 H   0  0  0  0  0  0  0  0  0  0  0  0
   -0.8811    1.5624    2.9151 H   0  0  0  0  0  0  0  0  0  0  0  0
    0.0000    1.4580    0.5088 H   0  0  0  0  0  0  0  0  0  0  0  0
  2  5  1  0
  3  4  1  0
  3  6  1  0
  3  7  1  0
  3  8  1  0
  4  5  2  3
  4  9  1  0
M  END
>  <reaction>  (4) 
rmg_rxn_16507

>  <mol_properties>  (4) 
{"0": {"label": "*3", "atom_type": "S2s"}, "1": {"label": "*2", "atom_type": "H0"}, "3": {"label": "*0", "atom_type": "Cd"}, "4": {"label": "*1", "atom_type": "N3d"}}

>  <type>  (4) 
ts

$$$$

     RDKit          3D

  9  7  0  0  0  0  0  0  0  0999 V2000
   -2.0995    0.1014    0.0000 S   0  0  0  0  0 15  0  0  0  0  0  0
   -0.5699   -0.4920   -0.0001 H   0  0  0  0  0  0  0  0  0  0  0  0
    2.7971    0.1434    0.0001 C   0  0  0  0  0  0  0  0  0  0  0  0
    1.3137    0.2980   -0.0001 C   0  0  0  0  0  0  0  0  0  0  0  0
    0.5699   -0.6970   -0.0000 N   0  0  0  0  0  0  0  0  0  0  0  0
    3.2069    0.6335   -0.8814 H   0  0  0  0  0  0  0  0  0  0  0  0
    3.0695   -0.9078    0.0001 H   0  0  0  0  0  0  0  0  0  0  0  0
    3.2067    0.6334    0.8817 H   0  0  0  0  0  0  0  0  0  0  0  0
    0.9633    1.3351   -0.0003 H   0  0  0  0  0  0  0  0  0  0  0  0
  2  5  1  0
  3  4  1  0
  3  6  1  0
  3  7  1  0
  3  8  1  0
  4  5  2  3
  4  9  1  0
M  END
>  <reaction>  (5) 
rmg_rxn_16507

>  <mol_properties>  (5) 
{"0": {"label": "*3", "atom_type": "S2s"}, "1": {"label": "*2", "atom_type": "H0"}, "3": {"label": "*0", "atom_type": "Cd"}, "4": {"label": "*1", "atom_type": "N3d"}}

>  <type>  (5) 
unop_1

>  <geom_source>  (5) 
crest_best.xyz

$$$$

     RDKit          3D

  9  7  0  0  0  0  0  0  0  0999 V2000
   -2.0995    0.1014    0.0000 S   0  0  0  0  0 15  0  0  0  0  0  0
   -0.5699   -0.4920   -0.0001 H   0  0  0  0  0  0  0  0  0  0  0  0
    2.7971    0.1434    0.0001 C   0  0  0  0  0  0  0  0  0  0  0  0
    1.3137    0.2980   -0.0001 C   0  0  0  0  0  0  0  0  0  0  0  0
    0.5699   -0.6970   -0.0000 N   0  0  0  0  0  0  0  0  0  0  0  0
    3.2069    0.6335   -0.8814 H   0  0  0  0  0  0  0  0  0  0  0  0
    3.0695   -0.9078    0.0001 H   0  0  0  0  0  0  0  0  0  0  0  0
    3.2067    0.6334    0.8817 H   0  0  0  0  0  0  0  0  0  0  0  0
    0.9633    1.3351   -0.0003 H   0  0  0  0  0  0  0  0  0  0  0  0
  2  5  1  0
  3  4  1  0
  3  6  1  0
  3  7  1  0
  3  8  1  0
  4  5  2  3
  4  9  1  0
M  END
>  <reaction>  (6) 
rmg_rxn_16507

>  <mol_properties>  (6) 
{"0": {"label": "*3", "atom_type": "S2s"}, "1": {"label": "*2", "atom_type": "H0"}, "3": {"label": "*0", "atom_type": "Cd"}, "4": {"label": "*1", "atom_type": "N3d"}}

>  <type>  (6) 
unop_2

>  <geom_source>  (6) 
Heuristics

$$$$

     RDKit          3D

  9  7  0  0  0  0  0  0  0  0999 V2000
    0.0000   -0.5122   -2.0782 S   0  0  0  0  0 15  0  0  0  0  0  0
    0.0000   -0.5122   -0.4667 H   0  0  0  0  0  0  0  0  0  0  0  0
   -0.0000    0.9482    2.6740 C   0  0  0  0  0  0  0  0  0  0  0  0
    0.0000    0.6670    1.2084 C   0  0  0  0  0  0  0  0  0  0  0  0
    0.0000   -0.5122    0.7547 N   0  0  0  0  0  0  0  0  0  0  0  0
    0.8783    1.5398    2.9447 H   0  0  0  0  0  0  0  0  0  0  0  0
   -0.0000    0.0172    3.2381 H   0  0  0  0  0  0  0  0  0  0  0  0
   -0.8783    1.5398    2.9447 H   0  0  0  0  0  0  0  0  0  0  0  0
    0.0000    1.5495    0.5557 H   0  0  0  0  0  0  0  0  0  0  0  0
  2  5  1  0
  3  4  1  0
  3  6  1  0
  3  7  1  0
  3  8  1  0
  4  5  2  3
  4  9  1  0
M  END
>  <reaction>  (7) 
rmg_rxn_16507

>  <mol_properties>  (7) 
{"0": {"label": "*3", "atom_type": "S2s"}, "1": {"label": "*2", "atom_type": "H0"}, "3": {"label": "*0", "atom_type": "Cd"}, "4": {"label": "*1", "atom_type": "N3d"}}

>  <type>  (7) 
unop_3

>  <geom_source>  (7) 
Heuristics

$$$$
