
     RDKit          3D

  4  3  0  0  0  0  0  0  0  0999 V2000
   -0.5192    0.5067    0.5114 O   0  0  0  0  0  0  0  0  0  0  0  0
    0.5296    0.4929   -0.3599 N   0  0  0  0  0  0  0  0  0  0  0  0
    0.7996   -0.5796   -0.7553 O   0  0  0  0  0  0  0  0  0  0  0  0
   -0.8100   -0.4200    0.6039 H   0  0  0  0  0  0  0  0  0  0  0  0
  1  2  1  0
  1  4  1  0
  2  3  2  0
M  END
>  <reaction>  (1) 
rmg_rxn_15636

>  <mol_properties>  (1) 
{"0": {"label": "donator", "atom_type": "O2s"}, "3": {"label": "d_hydrogen", "atom_type": "H0"}}

>  <type>  (1) 
r1h

$$$$

     RDKit          3D

  8  7  0  0  0  0  0  0  0  0999 V2000
    1.7077   -0.1964   -0.0607 C   0  0  0  0  0  3  0  0  0  0  0  0
    0.4209   -0.4565    0.2808 O   0  0  0  0  0  0  0  0  0  0  0  0
   -0.4607    0.4385   -0.2968 N   0  0  0  0  0  0  0  0  0  0  0  0
   -1.6584    0.1416   -0.0244 C   0  0  0  0  0  0  0  0  0  0  0  0
    2.4163   -0.7685    0.5170 H   0  0  0  0  0  0  0  0  0  0  0  0
    1.9214    0.7645   -0.5045 H   0  0  0  0  0  0  0  0  0  0  0  0
   -2.4185    0.7953   -0.4307 H   0  0  0  0  0  0  0  0  0  0  0  0
   -1.9286   -0.7185    0.5831 H   0  0  0  0  0  0  0  0  0  0  0  0
  1  2  1  0
  1  5  1  0
  1  6  1  0
  2  3  1  0
  3  4  2  3
  4  7  1  0
  4  8  1  0
M  RAD  1   1   2
M  END
>  <reaction>  (2) 
rmg_rxn_15636

>  <mol_properties>  (2) 
{"0": {"label": "acceptor", "atom_type": "Cs"}}

>  <type>  (2) 
r2

$$$$

     RDKit          3D

  9  8  0  0  0  0  0  0  0  0999 V2000
   -1.5470   -0.0755   -0.1976 C   0  0  0  0  0  0  0  0  0  0  0  0
   -0.2885    0.4507    0.1749 O   0  0  0  0  0  0  0  0  0  0  0  0
   -0.1502    1.7216   -0.3294 N   0  0  0  0  0  0  0  0  0  0  0  0
    0.9626    2.2353   -0.0219 C   0  0  0  0  0  0  0  0  0  0  0  0
   -1.6392   -0.1356   -1.2844 H   0  0  0  0  0  0  0  0  0  0  0  0
   -2.3597    0.5337    0.2044 H   0  0  0  0  0  0  0  0  0  0  0  0
   -1.5879   -1.0750    0.2318 H   0  0  0  0  0  0  0  0  0  0  0  0
    1.1497    3.2381   -0.3820 H   0  0  0  0  0  0  0  0  0  0  0  0
    1.7060    1.7101    0.5739 H   0  0  0  0  0  0  0  0  0  0  0  0
  1  2  1  0
  1  5  1  0
  1  6  1  0
  1  7  1  0
  2  3  1  0
  3  4  2  3
  4  8  1  0
  4  9  1  0
M  END
>  <reaction>  (3) 
rmg_rxn_15636

>  <mol_properties>  (3) 
{"0": {"label": "a_hydrogen", "atom_type": "H0"}, "1": {"label": "acceptor", "atom_type": "Cs"}}

>  <type>  (3) 
r2h

$$$$

     RDKit          3D

 12 10  0  0  0  0  0  0  0  0999 V2000
   -0.0980   -1.3409    1.0230 O   0  0  0  0  0  0  0  0  0  0  0  0
    0.7830   -1.7001    1.8852 N   0  0  0  0  0  0  0  0  0  0  0  0
    1.8066   -1.0919    1.9238 O   0  0  0  0  0  0  0  0  0  0  0  0
    0.3523   -0.3768    0.3879 H   0  0  0  0  0  0  0  0  0  0  0  0
    0.7930    0.6658   -0.3349 C   0  0  0  0  0  3  0  0  0  0  0  0
   -0.1266    0.9211   -1.3094 O   0  0  0  0  0  0  0  0  0  0  0  0
   -1.1706    1.7023   -0.8238 N   0  0  0  0  0  0  0  0  0  0  0  0
   -2.0792    1.8268   -1.6912 C   0  0  0  0  0  0  0  0  0  0  0  0
    1.7129    0.3035   -0.7834 H   0  0  0  0  0  0  0  0  0  0  0  0
    0.8922    1.4546    0.4079 H   0  0  0  0  0  0  0  0  0  0  0  0
   -2.9306    2.4314   -1.4081 H   0  0  0  0  0  0  0  0  0  0  0  0
   -2.0263    1.3606   -2.6718 H   0  0  0  0  0  0  0  0  0  0  0  0
  1  2  1  0
  1  4  1  0
  2  3  2  0
  5  6  1  0
  5  9  1  0
  5 10  1  0
  6  7  1  0
  7  8  2  3
  8 11  1  0
  8 12  1  0
M  RAD  1   5   2
M  END
>  <reaction>  (4) 
rmg_rxn_15636

>  <mol_properties>  (4) 
{"0": {"label": "*1", "atom_type": "O2s"}, "1": {"label": "*0", "atom_type": "N3d"}, "3": {"label": "*2", "atom_type": "H0"}, "4": {"label": "*3", "atom_type": "Cs"}, "5": {"label": "*4", "atom_type": "O2s"}}

>  <type>  (4) 
ts

$$$$

     RDKit          3D

 12 10  0  0  0  0  0  0  0  0999 V2000
    1.4125    1.1378    0.0740 O   0  0  0  0  0  0  0  0  0  0  0  0
    1.8711    0.0549   -0.2860 N   0  0  0  0  0  0  0  0  0  0  0  0
    1.4569   -1.0366   -0.0015 O   0  0  0  0  0  1  0  0  0  0  0  0
    0.1665    1.3458    0.3378 H   0  0  0  0  0  0  0  0  0  0  0  0
   -1.0790    1.3740    0.4513 C   0  0  0  0  0  0  0  0  0  0  0  0
   -1.6117    0.4959   -0.4858 O   0  0  0  0  0  0  0  0  0  0  0  0
   -1.4125   -0.8357   -0.4043 N   0  0  0  0  0  0  0  0  0  0  0  0
   -0.8149   -1.3825    0.5685 C   0  0  0  0  0  0  0  0  0  0  0  0
   -1.4313    2.3632    0.1799 H   0  0  0  0  0  0  0  0  0  0  0  0
   -1.3073    1.1215    1.4882 H   0  0  0  0  0  0  0  0  0  0  0  0
   -0.7110   -2.4509    0.5057 H   0  0  0  0  0  0  0  0  0  0  0  0
   -0.4861   -0.9047    1.4884 H   0  0  0  0  0  0  0  0  0  0  0  0
  1  2  2  0
  2  3  1  0
  4  5  1  0
  5  6  1  0
  5  9  1  0
  5 10  1  0
  6  7  1  0
  7  8  2  3
  8 11  1  0
  8 12  1  0
M  RAD  1   3   2
M  END
>  <reaction>  (5) 
rmg_rxn_15636

>  <mol_properties>  (5) 
{"0": {"label": "*1", "atom_type": "O2s"}, "1": {"label": "*0", "atom_type": "N3d"}, "3": {"label": "*2", "atom_type": "H0"}, "4": {"label": "*3", "atom_type": "Cs"}, "5": {"label": "*4", "atom_type": "O2s"}}

>  <type>  (5) 
unop_1

>  <geom_source>  (5) 
crest_best.xyz

$$$$

     RDKit          3D

 12 10  0  0  0  0  0  0  0  0999 V2000
    0.5616   -1.3052    1.4176 O   0  0  0  0  0  0  0  0  0  0  0  0
    0.5616   -2.5543    0.8706 N   0  0  0  0  0  0  0  0  0  0  0  0
    0.5616   -2.5543   -0.3039 O   0  0  0  0  0  0  0  0  0  0  0  0
    0.5616   -0.5538    0.5196 H   0  0  0  0  0  0  0  0  0  0  0  0
    0.5616    0.2845   -0.4823 C   0  0  0  0  0  3  0  0  0  0  0  0
   -0.6172    1.0524   -0.3397 O   0  0  0  0  0  0  0  0  0  0  0  0
   -0.3674    2.3553   -0.6988 N   0  0  0  0  0  0  0  0  0  0  0  0
   -1.3945    3.0830   -0.5876 C   0  0  0  0  0  0  0  0  0  0  0  0
    0.9052    0.2851   -1.5192 H   0  0  0  0  0  0  0  0  0  0  0  0
    1.3554    0.6632    0.1654 H   0  0  0  0  0  0  0  0  0  0  0  0
   -1.2807    4.1258   -0.8520 H   0  0  0  0  0  0  0  0  0  0  0  0
   -2.3521    2.6969   -0.2450 H   0  0  0  0  0  0  0  0  0  0  0  0
  1  2  1  0
  1  4  1  0
  2  3  2  0
  5  6  1  0
  5  9  1  0
  5 10  1  0
  6  7  1  0
  7  8  2  3
  8 11  1  0
  8 12  1  0
M  RAD  1   5   2
M  END
>  <reaction>  (6) 
rmg_rxn_15636

>  <mol_properties>  (6) 
{"0": {"label": "*1", "atom_type": "O2s"}, "1": {"label": "*0", "atom_type": "N3d"}, "3": {"label": "*2", "atom_type": "H0"}, "4": {"label": "*3", "atom_type": "Cs"}, "5": {"label": "*4", "atom_type": "O2s"}}

>  <type>  (6) 
unop_2

>  <geom_source>  (6) 
Heuristics

$$$$

     RDKit          3D

 12 10  0  0  0  0  0  0  0  0999 V2000
    0.4802   -0.4341    2.2176 O   0  0  0  0  0  0  0  0  0  0  0  0
    0.4802   -1.6832    1.6706 N   0  0  0  0  0  0  0  0  0  0  0  0
    0.4802   -1.6832    0.4961 O   0  0  0  0  0  0  0  0  0  0  0  0
    0.4802    0.3172    1.3196 H   0  0  0  0  0  0  0  0  0  0  0  0
    0.4802    1.1555    0.3177 C   0  0  0  0  0  3  0  0  0  0  0  0
   -0.2004    0.4975   -0.7328 O   0  0  0  0  0  0  0  0  0  0  0  0
   -0.6129    1.4183   -1.6658 N   0  0  0  0  0  0  0  0  0  0  0  0
   -1.2282    0.8762   -2.6272 C   0  0  0  0  0  0  0  0  0  0  0  0
    1.3667    1.6734   -0.0552 H   0  0  0  0  0  0  0  0  0  0  0  0
   -0.1753    1.8699    0.8207 H   0  0  0  0  0  0  0  0  0  0  0  0
   -1.5868    1.5353   -3.4065 H   0  0  0  0  0  0  0  0  0  0  0  0
   -1.3974   -0.1969   -2.6843 H   0  0  0  0  0  0  0  0  0  0  0  0
  1  2  1  0
  1  4  1  0
  2  3  2  0
  5  6  1  0
  5  9  1  0
  5 10  1  0
  6  7  1  0
  7  8  2  3
  8 11  1  0
  8 12  1  0
M  RAD  1   5   2
M  END
>  <reaction>  (7) 
rmg_rxn_15636

>  <mol_properties>  (7) 
{"0": {"label": "*1", "atom_type": "O2s"}, "1": {"label": "*0", "atom_type": "N3d"}, "3": {"label": "*2", "atom_type": "H0"}, "4": {"label": "*3", "atom_type": "Cs"}, "5": {"label": "*4", "atom_type": "O2s"}}

>  <type>  (7) 
unop_3

>  <geom_source>  (7) 
Heuristics

$$$$

     RDKit          3D

 12 10  0  0  0  0  0  0  0  0999 V2000
    0.2450   -1.4540    1.3416 O   0  0  0  0  0  0  0  0  0  0  0  0
    0.2450   -2.7031    0.7947 N   0  0  0  0  0  0  0  0  0  0  0  0
    0.2450   -2.7031   -0.3799 O   0  0  0  0  0  0  0  0  0  0  0  0
    0.2450   -0.7026    0.4437 H   0  0  0  0  0  0  0  0  0  0  0  0
    0.2450    0.1357   -0.5583 C   0  0  0  0  0  3  0  0  0  0  0  0
   -0.4355    1.2857   -0.0959 O   0  0  0  0  0  0  0  0  0  0  0  0
   -0.0087    2.3890   -0.7954 N   0  0  0  0  0  0  0  0  0  0  0  0
   -0.5903    3.4449   -0.4166 C   0  0  0  0  0  0  0  0  0  0  0  0
    0.0405   -0.0402   -1.6168 H   0  0  0  0  0  0  0  0  0  0  0  0
    1.3224    0.2315   -0.4058 H   0  0  0  0  0  0  0  0  0  0  0  0
   -0.3092    4.3604   -0.9196 H   0  0  0  0  0  0  0  0  0  0  0  0
   -1.3380    3.4510    0.3736 H   0  0  0  0  0  0  0  0  0  0  0  0
  1  2  1  0
  1  4  1  0
  2  3  2  0
  5  6  1  0
  5  9  1  0
  5 10  1  0
  6  7  1  0
  7  8  2  3
  8 11  1  0
  8 12  1  0
M  RAD  1   5   2
M  END
>  <reaction>  (8) 
rmg_rxn_15636

>  <mol_properties>  (8) 
{"0": {"label": "*1", "atom_type": "O2s"}, "1": {"label": "*0", "atom_type": "N3d"}, "3": {"label": "*2", "atom_type": "H0"}, "4": {"label": "*3", "atom_type": "Cs"}, "5": {"label": "*4", "atom_type": "O2s"}}

>  <type>  (8) 
unop_4

>  <geom_source>  (8) 
Heuristics

$$$$

     RDKit          3D

 12 10  0  0  0  0  0  0  0  0999 V2000
   -0.7631   -0.7048    1.9461 O   0  0  0  0  0  0  0  0  0  0  0  0
   -0.7631   -1.9539    1.3991 N   0  0  0  0  0  0  0  0  0  0  0  0
   -0.7631   -1.9539    0.2246 O   0  0  0  0  0  0  0  0  0  0  0  0
   -0.7631    0.0465    1.0481 H   0  0  0  0  0  0  0  0  0  0  0  0
   -0.7631    0.8848    0.0462 C   0  0  0  0  0  3  0  0  0  0  0  0
    0.4156    0.6089   -0.6846 O   0  0  0  0  0  0  0  0  0  0  0  0
    0.8853    1.7652   -1.2599 N   0  0  0  0  0  0  0  0  0  0  0  0
    1.9411    1.5687   -1.9257 C   0  0  0  0  0  0  0  0  0  0  0  0
   -0.5674    1.6009    0.8475 H   0  0  0  0  0  0  0  0  0  0  0  0
   -1.5463    1.2743   -0.6082 H   0  0  0  0  0  0  0  0  0  0  0  0
    2.3756    2.4321   -2.4116 H   0  0  0  0  0  0  0  0  0  0  0  0
    2.4030    0.5879   -2.0163 H   0  0  0  0  0  0  0  0  0  0  0  0
  1  2  1  0
  1  4  1  0
  2  3  2  0
  5  6  1  0
  5  9  1  0
  5 10  1  0
  6  7  1  0
  7  8  2  3
  8 11  1  0
  8 12  1  0
M  RAD  1   5   2
M  END
>  <reaction>  (9) 
rmg_rxn_15636

>  <mol_properties>  (9) 
{"0": {"label": "*1", "atom_type": "O2s"}, "1": {"label": "*0", "atom_type": "N3d"}, "3": {"label": "*2", "atom_type": "H0"}, "4": {"label": "*3", "atom_type": "Cs"}, "5": {"label": "*4", "atom_type": "O2s"}}

>  <type>  (9) 
unop_5

>  <geom_source>  (9) 
Heuristics

$$$$

     RDKit          3D

 12 10  0  0  0  0  0  0  0  0999 V2000
    0.0000   -1.4867    1.3605 O   0  0  0  0  0  0  0  0  0  0  0  0
    0.0000   -2.7358    0.8135 N   0  0  0  0  0  0  0  0  0  0  0  0
    0.0000   -2.7358   -0.3610 O   0  0  0  0  0  0  0  0  0  0  0  0
    0.0000   -0.7354    0.4625 H   0  0  0  0  0  0  0  0  0  0  0  0
    0.0000    0.1029   -0.5394 C   0  0  0  0  0  3  0  0  0  0  0  0
    0.0000    1.3928    0.0400 O   0  0  0  0  0  0  0  0  0  0  0  0
   -0.0000    2.3455   -0.9506 N   0  0  0  0  0  0  0  0  0  0  0  0
   -0.0000    3.5184   -0.4805 C   0  0  0  0  0  0  0  0  0  0  0  0
   -0.8921   -0.0508   -1.1507 H   0  0  0  0  0  0  0  0  0  0  0  0
    0.8921   -0.0508   -1.1507 H   0  0  0  0  0  0  0  0  0  0  0  0
   -0.0000    4.3282   -1.1978 H   0  0  0  0  0  0  0  0  0  0  0  0
    0.0000    3.7215    0.5883 H   0  0  0  0  0  0  0  0  0  0  0  0
  1  2  1  0
  1  4  1  0
  2  3  2  0
  5  6  1  0
  5  9  1  0
  5 10  1  0
  6  7  1  0
  7  8  2  3
  8 11  1  0
  8 12  1  0
M  RAD  1   5   2
M  END
>  <reaction>  (10) 
rmg_rxn_15636

>  <mol_properties>  (10) 
{"0": {"label": "*1", "atom_type": "O2s"}, "1": {"label": "*0", "atom_type": "N3d"}, "3": {"label": "*2", "atom_type": "H0"}, "4": {"label": "*3", "atom_type": "Cs"}, "5": {"label": "*4", "atom_type": "O2s"}}

>  <type>  (10) 
unop_6

>  <geom_source>  (10) 
Heuristics

$$$$

     RDKit          3D

 12 10  0  0  0  0  0  0  0  0999 V2000
   -0.7772   -1.0314    1.6426 O   0  0  0  0  0  0  0  0  0  0  0  0
   -0.7772   -2.2805    1.0956 N   0  0  0  0  0  0  0  0  0  0  0  0
   -0.7772   -2.2805   -0.0789 O   0  0  0  0  0  0  0  0  0  0  0  0
   -0.7772   -0.2800    0.7446 H   0  0  0  0  0  0  0  0  0  0  0  0
   -0.7772    0.5583   -0.2573 C   0  0  0  0  0  3  0  0  0  0  0  0
    0.5839    0.8043   -0.5514 O   0  0  0  0  0  0  0  0  0  0  0  0
    0.7551    2.1281   -0.8784 N   0  0  0  0  0  0  0  0  0  0  0  0
    1.9594    2.3974   -1.1502 C   0  0  0  0  0  0  0  0  0  0  0  0
   -1.1077    1.1580    0.5937 H   0  0  0  0  0  0  0  0  0  0  0  0
   -1.4088    0.7729   -1.1223 H   0  0  0  0  0  0  0  0  0  0  0  0
    2.1783    3.4223   -1.4186 H   0  0  0  0  0  0  0  0  0  0  0  0
    2.7485    1.6491   -1.1208 H   0  0  0  0  0  0  0  0  0  0  0  0
  1  2  1  0
  1  4  1  0
  2  3  2  0
  5  6  1  0
  5  9  1  0
  5 10  1  0
  6  7  1  0
  7  8  2  3
  8 11  1  0
  8 12  1  0
M  RAD  1   5   2
M  END
>  <reaction>  (11) 
rmg_rxn_15636

>  <mol_properties>  (11) 
{"0": {"label": "*1", "atom_type": "O2s"}, "1": {"label": "*0", "atom_type": "N3d"}, "3": {"label": "*2", "atom_type": "H0"}, "4": {"label": "*3", "atom_type": "Cs"}, "5": {"label": "*4", "atom_type": "O2s"}}

>  <type>  (11) 
unop_7

>  <geom_source>  (11) 
Heuristics

$$$$

     RDKit          3D

 12 10  0  0  0  0  0  0  0  0999 V2000
    1.4126    1.1377   -0.0740 O   0  0  0  0  0  0  0  0  0  0  0  0
    1.8715    0.0549    0.2858 N   0  0  0  0  0  0  0  0  0  0  0  0
    1.4572   -1.0366    0.0018 O   0  0  0  0  0  1  0  0  0  0  0  0
    0.1665    1.3454   -0.3378 H   0  0  0  0  0  0  0  0  0  0  0  0
   -1.0790    1.3739   -0.4512 C   0  0  0  0  0  0  0  0  0  0  0  0
   -1.6120    0.4960    0.4858 O   0  0  0  0  0  0  0  0  0  0  0  0
   -1.4128   -0.8358    0.4042 N   0  0  0  0  0  0  0  0  0  0  0  0
   -0.8151   -1.3824   -0.5687 C   0  0  0  0  0  0  0  0  0  0  0  0
   -1.3074    1.1216   -1.4881 H   0  0  0  0  0  0  0  0  0  0  0  0
   -1.4309    2.3633   -0.1797 H   0  0  0  0  0  0  0  0  0  0  0  0
   -0.7110   -2.4508   -0.5056 H   0  0  0  0  0  0  0  0  0  0  0  0
   -0.4859   -0.9047   -1.4885 H   0  0  0  0  0  0  0  0  0  0  0  0
  1  2  2  0
  2  3  1  0
  4  5  1  0
  5  6  1  0
  5  9  1  0
  5 10  1  0
  6  7  1  0
  7  8  2  3
  8 11  1  0
  8 12  1  0
M  RAD  1   3   2
M  END
>  <reaction>  (12) 
rmg_rxn_15636

>  <mol_properties>  (12) 
{"0": {"label": "*1", "atom_type": "O2s"}, "1": {"label": "*0", "atom_type": "N3d"}, "3": {"label": "*2", "atom_type": "H0"}, "4": {"label": "*3", "atom_type": "Cs"}, "5": {"label": "*4", "atom_type": "O2s"}}

>  <type>  (12) 
unop_8

>  <geom_source>  (12) 
Heuristics

$$$$

     RDKit          3D

 12 10  0  0  0  0  0  0  0  0999 V2000
   -0.5616   -1.3052    1.4176 O   0  0  0  0  0  0  0  0  0  0  0  0
   -0.5616   -2.5543    0.8706 N   0  0  0  0  0  0  0  0  0  0  0  0
   -0.5616   -2.5543   -0.3040 O   0  0  0  0  0  0  0  0  0  0  0  0
   -0.5616   -0.5538    0.5196 H   0  0  0  0  0  0  0  0  0  0  0  0
   -0.5616    0.2845   -0.4823 C   0  0  0  0  0  3  0  0  0  0  0  0
    0.6172    1.0524   -0.3397 O   0  0  0  0  0  0  0  0  0  0  0  0
    0.3674    2.3553   -0.6987 N   0  0  0  0  0  0  0  0  0  0  0  0
    1.3944    3.0830   -0.5876 C   0  0  0  0  0  0  0  0  0  0  0  0
   -1.3554    0.6632    0.1654 H   0  0  0  0  0  0  0  0  0  0  0  0
   -0.9052    0.2851   -1.5192 H   0  0  0  0  0  0  0  0  0  0  0  0
    1.2807    4.1258   -0.8520 H   0  0  0  0  0  0  0  0  0  0  0  0
    2.3521    2.6969   -0.2451 H   0  0  0  0  0  0  0  0  0  0  0  0
  1  2  1  0
  1  4  1  0
  2  3  2  0
  5  6  1  0
  5  9  1  0
  5 10  1  0
  6  7  1  0
  7  8  2  3
  8 11  1  0
  8 12  1  0
M  RAD  1   5   2
M  END
>  <reaction>  (13) 
rmg_rxn_15636

>  <mol_properties>  (13) 
{"0": {"label": "*1", "atom_type": "O2s"}, "1": {"label": "*0", "atom_type": "N3d"}, "3": {"label": "*2", "atom_type": "H0"}, "4": {"label": "*3", "atom_type": "Cs"}, "5": {"label": "*4", "atom_type": "O2s"}}

>  <type>  (13) 
unop_9

>  <geom_source>  (13) 
Heuristics

$$$$

     RDKit          3D

 12 10  0  0  0  0  0  0  0  0999 V2000
    0.7772   -1.0314    1.6426 O   0  0  0  0  0  0  0  0  0  0  0  0
    0.7772   -2.2805    1.0956 N   0  0  0  0  0  0  0  0  0  0  0  0
    0.7772   -2.2805   -0.0789 O   0  0  0  0  0  0  0  0  0  0  0  0
    0.7772   -0.2800    0.7446 H   0  0  0  0  0  0  0  0  0  0  0  0
    0.7772    0.5583   -0.2573 C   0  0  0  0  0  3  0  0  0  0  0  0
   -0.5839    0.8043   -0.5514 O   0  0  0  0  0  0  0  0  0  0  0  0
   -0.7551    2.1281   -0.8785 N   0  0  0  0  0  0  0  0  0  0  0  0
   -1.9594    2.3974   -1.1502 C   0  0  0  0  0  0  0  0  0  0  0  0
    1.4088    0.7730   -1.1223 H   0  0  0  0  0  0  0  0  0  0  0  0
    1.1077    1.1580    0.5937 H   0  0  0  0  0  0  0  0  0  0  0  0
   -2.1783    3.4223   -1.4186 H   0  0  0  0  0  0  0  0  0  0  0  0
   -2.7485    1.6491   -1.1207 H   0  0  0  0  0  0  0  0  0  0  0  0
  1  2  1  0
  1  4  1  0
  2  3  2  0
  5  6  1  0
  5  9  1  0
  5 10  1  0
  6  7  1  0
  7  8  2  3
  8 11  1  0
  8 12  1  0
M  RAD  1   5   2
M  END
>  <reaction>  (14) 
rmg_rxn_15636

>  <mol_properties>  (14) 
{"0": {"label": "*1", "atom_type": "O2s"}, "1": {"label": "*0", "atom_type": "N3d"}, "3": {"label": "*2", "atom_type": "H0"}, "4": {"label": "*3", "atom_type": "Cs"}, "5": {"label": "*4", "atom_type": "O2s"}}

>  <type>  (14) 
unop_10

>  <geom_source>  (14) 
Heuristics

$$$$

     RDKit          3D

 12 10  0  0  0  0  0  0  0  0999 V2000
    1.4125    1.1378    0.0740 O   0  0  0  0  0  0  0  0  0  0  0  0
    1.8711    0.0549   -0.2860 N   0  0  0  0  0  0  0  0  0  0  0  0
    1.4569   -1.0366   -0.0015 O   0  0  0  0  0  1  0  0  0  0  0  0
    0.1665    1.3458    0.3378 H   0  0  0  0  0  0  0  0  0  0  0  0
   -1.0790    1.3740    0.4513 C   0  0  0  0  0  0  0  0  0  0  0  0
   -1.6117    0.4959   -0.4858 O   0  0  0  0  0  0  0  0  0  0  0  0
   -1.4125   -0.8357   -0.4043 N   0  0  0  0  0  0  0  0  0  0  0  0
   -0.8149   -1.3825    0.5685 C   0  0  0  0  0  0  0  0  0  0  0  0
   -1.4313    2.3632    0.1799 H   0  0  0  0  0  0  0  0  0  0  0  0
   -1.3073    1.1215    1.4882 H   0  0  0  0  0  0  0  0  0  0  0  0
   -0.7110   -2.4509    0.5057 H   0  0  0  0  0  0  0  0  0  0  0  0
   -0.4861   -0.9047    1.4884 H   0  0  0  0  0  0  0  0  0  0  0  0
  1  2  2  0
  2  3  1  0
  4  5  1  0
  5  6  1  0
  5  9  1  0
  5 10  1  0
  6  7  1  0
  7  8  2  3
  8 11  1  0
  8 12  1  0
M  RAD  1   3   2
M  END
>  <reaction>  (15) 
rmg_rxn_15636

>  <mol_properties>  (15) 
{"0": {"label": "*1", "atom_type": "O2s"}, "1": {"label": "*0", "atom_type": "N3d"}, "3": {"label": "*2", "atom_type": "H0"}, "4": {"label": "*3", "atom_type": "Cs"}, "5": {"label": "*4", "atom_type": "O2s"}}

>  <type>  (15) 
unop_11

>  <geom_source>  (15) 
Heuristics

$$$$

     RDKit          3D

 12 10  0  0  0  0  0  0  0  0999 V2000
   -0.4802   -0.4341    2.2176 O   0  0  0  0  0  0  0  0  0  0  0  0
   -0.4802   -1.6832    1.6706 N   0  0  0  0  0  0  0  0  0  0  0  0
   -0.4802   -1.6832    0.4961 O   0  0  0  0  0  0  0  0  0  0  0  0
   -0.4802    0.3172    1.3196 H   0  0  0  0  0  0  0  0  0  0  0  0
   -0.4802    1.1555    0.3177 C   0  0  0  0  0  3  0  0  0  0  0  0
    0.2003    0.4975   -0.7328 O   0  0  0  0  0  0  0  0  0  0  0  0
    0.6130    1.4183   -1.6658 N   0  0  0  0  0  0  0  0  0  0  0  0
    1.2282    0.8762   -2.6272 C   0  0  0  0  0  0  0  0  0  0  0  0
    0.1753    1.8699    0.8207 H   0  0  0  0  0  0  0  0  0  0  0  0
   -1.3667    1.6734   -0.0552 H   0  0  0  0  0  0  0  0  0  0  0  0
    1.5868    1.5353   -3.4065 H   0  0  0  0  0  0  0  0  0  0  0  0
    1.3973   -0.1969   -2.6843 H   0  0  0  0  0  0  0  0  0  0  0  0
  1  2  1  0
  1  4  1  0
  2  3  2  0
  5  6  1  0
  5  9  1  0
  5 10  1  0
  6  7  1  0
  7  8  2  3
  8 11  1  0
  8 12  1  0
M  RAD  1   5   2
M  END
>  <reaction>  (16) 
rmg_rxn_15636

>  <mol_properties>  (16) 
{"0": {"label": "*1", "atom_type": "O2s"}, "1": {"label": "*0", "atom_type": "N3d"}, "3": {"label": "*2", "atom_type": "H0"}, "4": {"label": "*3", "atom_type": "Cs"}, "5": {"label": "*4", "atom_type": "O2s"}}

>  <type>  (16) 
unop_12

>  <geom_source>  (16) 
Heuristics

$$$$

     RDKit          3D

 12 10  0  0  0  0  0  0  0  0999 V2000
    0.7631   -0.7048    1.9461 O   0  0  0  0  0  0  0  0  0  0  0  0
    0.7631   -1.9539    1.3991 N   0  0  0  0  0  0  0  0  0  0  0  0
    0.7631   -1.9539    0.2246 O   0  0  0  0  0  0  0  0  0  0  0  0
    0.7631    0.0465    1.0481 H   0  0  0  0  0  0  0  0  0  0  0  0
    0.7631    0.8848    0.0462 C   0  0  0  0  0  3  0  0  0  0  0  0
   -0.4156    0.6089   -0.6846 O   0  0  0  0  0  0  0  0  0  0  0  0
   -0.8853    1.7652   -1.2599 N   0  0  0  0  0  0  0  0  0  0  0  0
   -1.9411    1.5687   -1.9258 C   0  0  0  0  0  0  0  0  0  0  0  0
    1.5463    1.2743   -0.6082 H   0  0  0  0  0  0  0  0  0  0  0  0
    0.5674    1.6009    0.8475 H   0  0  0  0  0  0  0  0  0  0  0  0
   -2.3756    2.4321   -2.4117 H   0  0  0  0  0  0  0  0  0  0  0  0
   -2.4030    0.5879   -2.0162 H   0  0  0  0  0  0  0  0  0  0  0  0
  1  2  1  0
  1  4  1  0
  2  3  2  0
  5  6  1  0
  5  9  1  0
  5 10  1  0
  6  7  1  0
  7  8  2  3
  8 11  1  0
  8 12  1  0
M  RAD  1   5   2
M  END
>  <reaction>  (17) 
rmg_rxn_15636

>  <mol_properties>  (17) 
{"0": {"label": "*1", "atom_type": "O2s"}, "1": {"label": "*0", "atom_type": "N3d"}, "3": {"label": "*2", "atom_type": "H0"}, "4": {"label": "*3", "atom_type": "Cs"}, "5": {"label": "*4", "atom_type": "O2s"}}

>  <type>  (17) 
unop_13

>  <geom_source>  (17) 
Heuristics

$$$$

     RDKit          3D

 12 10  0  0  0  0  0  0  0  0999 V2000
   -0.2450   -1.4540    1.3416 O   0  0  0  0  0  0  0  0  0  0  0  0
   -0.2450   -2.7031    0.7947 N   0  0  0  0  0  0  0  0  0  0  0  0
   -0.2450   -2.7031   -0.3799 O   0  0  0  0  0  0  0  0  0  0  0  0
   -0.2450   -0.7026    0.4436 H   0  0  0  0  0  0  0  0  0  0  0  0
   -0.2450    0.1357   -0.5583 C   0  0  0  0  0  3  0  0  0  0  0  0
    0.4355    1.2857   -0.0959 O   0  0  0  0  0  0  0  0  0  0  0  0
    0.0086    2.3890   -0.7954 N   0  0  0  0  0  0  0  0  0  0  0  0
    0.5903    3.4449   -0.4166 C   0  0  0  0  0  0  0  0  0  0  0  0
   -1.3224    0.2315   -0.4058 H   0  0  0  0  0  0  0  0  0  0  0  0
   -0.0405   -0.0402   -1.6168 H   0  0  0  0  0  0  0  0  0  0  0  0
    0.3091    4.3604   -0.9196 H   0  0  0  0  0  0  0  0  0  0  0  0
    1.3380    3.4510    0.3736 H   0  0  0  0  0  0  0  0  0  0  0  0
  1  2  1  0
  1  4  1  0
  2  3  2  0
  5  6  1  0
  5  9  1  0
  5 10  1  0
  6  7  1  0
  7  8  2  3
  8 11  1  0
  8 12  1  0
M  RAD  1   5   2
M  END
>  <reaction>  (18) 
rmg_rxn_15636

>  <mol_properties>  (18) 
{"0": {"label": "*1", "atom_type": "O2s"}, "1": {"label": "*0", "atom_type": "N3d"}, "3": {"label": "*2", "atom_type": "H0"}, "4": {"label": "*3", "atom_type": "Cs"}, "5": {"label": "*4", "atom_type": "O2s"}}

>  <type>  (18) 
unop_14

>  <geom_source>  (18) 
Heuristics

$$$$

     RDKit          3D

 12 10  0  0  0  0  0  0  0  0999 V2000
   -0.0000   -0.3273    2.3305 O   0  0  0  0  0  0  0  0  0  0  0  0
   -0.0000   -1.5764    1.7836 N   0  0  0  0  0  0  0  0  0  0  0  0
   -0.0000   -1.5764    0.6090 O   0  0  0  0  0  0  0  0  0  0  0  0
   -0.0000    0.4240    1.4326 H   0  0  0  0  0  0  0  0  0  0  0  0
   -0.0000    1.2623    0.4306 C   0  0  0  0  0  3  0  0  0  0  0  0
   -0.0000    0.4644   -0.7368 O   0  0  0  0  0  0  0  0  0  0  0  0
    0.0000    1.2714   -1.8493 N   0  0  0  0  0  0  0  0  0  0  0  0
    0.0000    0.6017   -2.9209 C   0  0  0  0  0  0  0  0  0  0  0  0
    0.8921    1.8911    0.4741 H   0  0  0  0  0  0  0  0  0  0  0  0
   -0.8921    1.8911    0.4741 H   0  0  0  0  0  0  0  0  0  0  0  0
    0.0000    1.1649   -3.8445 H   0  0  0  0  0  0  0  0  0  0  0  0
   -0.0000   -0.4861   -2.9322 H   0  0  0  0  0  0  0  0  0  0  0  0
  1  2  1  0
  1  4  1  0
  2  3  2  0
  5  6  1  0
  5  9  1  0
  5 10  1  0
  6  7  1  0
  7  8  2  3
  8 11  1  0
  8 12  1  0
M  RAD  1   5   2
M  END
>  <reaction>  (19) 
rmg_rxn_15636

>  <mol_properties>  (19) 
{"0": {"label": "*1", "atom_type": "O2s"}, "1": {"label": "*0", "atom_type": "N3d"}, "3": {"label": "*2", "atom_type": "H0"}, "4": {"label": "*3", "atom_type": "Cs"}, "5": {"label": "*4", "atom_type": "O2s"}}

>  <type>  (19) 
unop_15

>  <geom_source>  (19) 
Heuristics

$$$$

     RDKit          3D

 12 10  0  0  0  0  0  0  0  0999 V2000
   -0.9977   -0.6466   -0.1052 O   0  0  0  0  0  0  0  0  0  0  0  0
    1.7790    0.4004   -1.6573 O   0  0  0  0  0  0  0  0  0  0  0  0
    2.2918    1.3454    0.3428 O   0  0  0  0  0  1  0  0  0  0  0  0
   -0.6496    0.1095    0.9905 N   0  0  0  0  0  0  0  0  0  0  0  0
    2.1646    1.4738   -0.8909 N   0  0  0  0  0  0  0  0  0  0  0  0
   -0.0064   -1.0722   -1.0245 C   0  0  0  0  0  0  0  0  0  0  0  0
   -1.5499    0.4997    1.8311 C   0  0  0  0  0  0  0  0  0  0  0  0
   -0.4858   -1.6539   -1.8384 H   0  0  0  0  0  0  0  0  0  0  0  0
    0.7365   -1.7141   -0.5061 H   0  0  0  0  0  0  0  0  0  0  0  0
    0.5718   -0.0732   -1.5162 H   0  0  0  0  0  0  0  0  0  0  0  0
   -1.2639    1.0935    2.6883 H   0  0  0  0  0  0  0  0  0  0  0  0
   -2.5904    0.2377    1.6858 H   0  0  0  0  0  0  0  0  0  0  0  0
  1  6  1  0
  1  4  1  0
  2  5  2  0
  3  5  1  0
  4  7  2  3
  6  8  1  0
  6  9  1  0
  6 10  1  0
  7 11  1  0
  7 12  1  0
M  RAD  1   3   2
M  END
>  <reaction>  (20) 
rmg_rxn_15636

>  <mol_properties>  (20) 
{"0": {"label": "*1", "atom_type": "O2s"}, "1": {"label": "*0", "atom_type": "N3d"}, "3": {"label": "*2", "atom_type": "H0"}, "4": {"label": "*3", "atom_type": "Cs"}, "5": {"label": "*4", "atom_type": "O2s"}}

>  <type>  (20) 
unop_16

>  <geom_source>  (20) 
AutoTST

$$$$

     RDKit          3D

 12 10  0  0  0  0  0  0  0  0999 V2000
    0.4802   -0.4341    2.2176 O   0  0  0  0  0  0  0  0  0  0  0  0
    0.4802   -1.6832    1.6706 N   0  0  0  0  0  0  0  0  0  0  0  0
    0.4802   -1.6832    0.4961 O   0  0  0  0  0  0  0  0  0  0  0  0
    0.4802    0.3172    1.3196 H   0  0  0  0  0  0  0  0  0  0  0  0
    0.4802    1.1555    0.3177 C   0  0  0  0  0  3  0  0  0  0  0  0
   -0.2004    0.4975   -0.7328 O   0  0  0  0  0  0  0  0  0  0  0  0
   -0.6129    1.4183   -1.6658 N   0  0  0  0  0  0  0  0  0  0  0  0
   -1.2282    0.8762   -2.6272 C   0  0  0  0  0  0  0  0  0  0  0  0
    1.3667    1.6734   -0.0552 H   0  0  0  0  0  0  0  0  0  0  0  0
   -0.1753    1.8700    0.8207 H   0  0  0  0  0  0  0  0  0  0  0  0
   -1.5868    1.5353   -3.4065 H   0  0  0  0  0  0  0  0  0  0  0  0
   -1.3974   -0.1969   -2.6843 H   0  0  0  0  0  0  0  0  0  0  0  0
  1  2  1  0
  1  4  1  0
  2  3  2  0
  5  6  1  0
  5  9  1  0
  5 10  1  0
  6  7  1  0
  7  8  2  3
  8 11  1  0
  8 12  1  0
M  RAD  1   5   2
M  END
>  <reaction>  (21) 
rmg_rxn_15636

>  <mol_properties>  (21) 
{"0": {"label": "*1", "atom_type": "O2s"}, "1": {"label": "*0", "atom_type": "N3d"}, "3": {"label": "*2", "atom_type": "H0"}, "4": {"label": "*3", "atom_type": "Cs"}, "5": {"label": "*4", "atom_type": "O2s"}}

>  <type>  (21) 
unop_17

>  <geom_source>  (21) 
gaussian_log

$$$$
