
     RDKit          3D

  9  8  0  0  0  0  0  0  0  0999 V2000
   -1.5470   -0.0755   -0.1976 C   0  0  0  0  0  0  0  0  0  0  0  0
   -0.2885    0.4507    0.1749 O   0  0  0  0  0  0  0  0  0  0  0  0
   -0.1502    1.7216   -0.3294 N   0  0  0  0  0  0  0  0  0  0  0  0
    0.9626    2.2353   -0.0219 C   0  0  0  0  0  0  0  0  0  0  0  0
   -1.6392   -0.1356   -1.2844 H   0  0  0  0  0  0  0  0  0  0  0  0
   -2.3597    0.5337    0.2044 H   0  0  0  0  0  0  0  0  0  0  0  0
   -1.5879   -1.0750    0.2318 H   0  0  0  0  0  0  0  0  0  0  0  0
    1.1497    3.2381   -0.3820 H   0  0  0  0  0  0  0  0  0  0  0  0
    1.7060    1.7101    0.5739 H   0  0  0  0  0  0  0  0  0  0  0  0
  1  2  1  0
  1  5  1  0
  1  6  1  0
  1  7  1  0
  2  3  1  0
  3  4  2  3
  4  8  1  0
  4  9  1  0
M  END
>  <reaction>  (1) 
rmg_rxn_15614

>  <mol_properties>  (1) 
{"0": {"label": "donator", "atom_type": "Cs"}, "4": {"label": "d_hydrogen", "atom_type": "H0"}}

>  <type>  (1) 
r1h

$$$$

     RDKit          3D

 13 13  0  0  0  0  0  0  0  0999 V2000
   -1.1371    0.3608    0.3110 C   0  0  0  0  0  3  0  0  0  0  0  0
   -0.0045    1.3224    0.2943 C   0  0  0  0  0  0  0  0  0  0  0  0
    1.2245    0.6965    0.6137 O   0  0  0  0  0  0  0  0  0  0  0  0
    1.3926   -0.4921   -0.0955 C   0  0  0  0  0  0  0  0  0  0  0  0
    0.4387   -1.4537    0.2351 O   0  0  0  0  0  0  0  0  0  0  0  0
   -0.8659   -1.0349   -0.1206 C   0  0  0  0  0  0  0  0  0  0  0  0
   -2.1544    0.7285    0.3341 H   0  0  0  0  0  0  0  0  0  0  0  0
   -0.1488    2.1272    1.0165 H   0  0  0  0  0  0  0  0  0  0  0  0
    0.0825    1.7949   -0.7036 H   0  0  0  0  0  0  0  0  0  0  0  0
    1.3549   -0.2872   -1.1815 H   0  0  0  0  0  0  0  0  0  0  0  0
    2.3646   -0.8956    0.1787 H   0  0  0  0  0  0  0  0  0  0  0  0
   -1.5620   -1.7401    0.3358 H   0  0  0  0  0  0  0  0  0  0  0  0
   -0.9852   -1.1268   -1.2179 H   0  0  0  0  0  0  0  0  0  0  0  0
  1  2  1  0
  1  6  1  0
  1  7  1  0
  2  3  1  0
  2  8  1  0
  2  9  1  0
  3  4  1  0
  4  5  1  0
  4 10  1  0
  4 11  1  0
  5  6  1  0
  6 12  1  0
  6 13  1  0
M  RAD  1   1   2
M  END
>  <reaction>  (2) 
rmg_rxn_15614

>  <mol_properties>  (2) 
{"0": {"label": "acceptor", "atom_type": "Cs"}}

>  <type>  (2) 
r2

$$$$

     RDKit          3D

 14 14  0  0  0  0  0  0  0  0999 V2000
   -1.1778    0.2241    0.1818 C   0  0  0  0  0  0  0  0  0  0  0  0
   -0.5633   -1.1636    0.0678 C   0  0  0  0  0  0  0  0  0  0  0  0
    0.6943   -1.1996    0.7146 O   0  0  0  0  0  0  0  0  0  0  0  0
    1.5547   -0.2288    0.2011 C   0  0  0  0  0  0  0  0  0  0  0  0
    1.0729    1.0696    0.3698 O   0  0  0  0  0  0  0  0  0  0  0  0
   -0.1607    1.2493   -0.2989 C   0  0  0  0  0  0  0  0  0  0  0  0
   -2.0927    0.2866   -0.4117 H   0  0  0  0  0  0  0  0  0  0  0  0
   -1.4303    0.4248    1.2248 H   0  0  0  0  0  0  0  0  0  0  0  0
   -1.1822   -1.9235    0.5431 H   0  0  0  0  0  0  0  0  0  0  0  0
   -0.4389   -1.4347   -0.9919 H   0  0  0  0  0  0  0  0  0  0  0  0
    1.7250   -0.4207   -0.8742 H   0  0  0  0  0  0  0  0  0  0  0  0
    2.4896   -0.3010    0.7524 H   0  0  0  0  0  0  0  0  0  0  0  0
   -0.0080    1.1481   -1.3844 H   0  0  0  0  0  0  0  0  0  0  0  0
   -0.4826    2.2695   -0.0942 H   0  0  0  0  0  0  0  0  0  0  0  0
  1  2  1  0
  1  6  1  0
  1  7  1  0
  1  8  1  0
  2  3  1  0
  2  9  1  0
  2 10  1  0
  3  4  1  0
  4  5  1  0
  4 11  1  0
  4 12  1  0
  5  6  1  0
  6 13  1  0
  6 14  1  0
M  END
>  <reaction>  (3) 
rmg_rxn_15614

>  <mol_properties>  (3) 
{"0": {"label": "a_hydrogen", "atom_type": "H0"}, "1": {"label": "acceptor", "atom_type": "Cs"}}

>  <type>  (3) 
r2h

$$$$

     RDKit          3D

 22 21  0  0  0  0  0  0  0  0999 V2000
   -2.4535   -0.3475   -0.0532 C   0  0  0  0  0  0  0  0  0  0  0  0
   -2.2774    0.6191   -1.0357 O   0  0  0  0  0  0  0  0  0  0  0  0
   -1.3822    0.1808   -1.9893 N   0  0  0  0  0  0  0  0  0  0  0  0
   -1.1591    1.0657   -2.8634 C   0  0  0  0  0  0  0  0  0  0  0  0
   -1.3516   -0.3992    0.6802 H   0  0  0  0  0  0  0  0  0  0  0  0
   -2.5897   -1.3501   -0.4585 H   0  0  0  0  0  0  0  0  0  0  0  0
   -3.2558   -0.0185    0.6018 H   0  0  0  0  0  0  0  0  0  0  0  0
   -0.4710    0.7997   -3.6545 H   0  0  0  0  0  0  0  0  0  0  0  0
   -1.6277    2.0468   -2.8383 H   0  0  0  0  0  0  0  0  0  0  0  0
   -0.1231   -0.3630    1.3025 C   0  0  0  0  0  3  0  0  0  0  0  0
    0.7628   -1.3348    0.5659 C   0  0  0  0  0  0  0  0  0  0  0  0
    2.1210   -1.1401    0.9479 O   0  0  0  0  0  0  0  0  0  0  0  0
    2.5118    0.1828    0.7408 C   0  0  0  0  0  0  0  0  0  0  0  0
    1.7742    1.0967    1.4953 O   0  0  0  0  0  0  0  0  0  0  0  0
    0.3942    1.0441    1.1493 C   0  0  0  0  0  0  0  0  0  0  0  0
   -0.3215   -0.6452    2.3354 H   0  0  0  0  0  0  0  0  0  0  0  0
    0.5216   -2.3714    0.7956 H   0  0  0  0  0  0  0  0  0  0  0  0
    0.6634   -1.1852   -0.5188 H   0  0  0  0  0  0  0  0  0  0  0  0
    2.4143    0.4308   -0.3323 H   0  0  0  0  0  0  0  0  0  0  0  0
    3.5493    0.2666    1.0577 H   0  0  0  0  0  0  0  0  0  0  0  0
    0.2708    1.3816    0.1097 H   0  0  0  0  0  0  0  0  0  0  0  0
   -0.1181    1.7483    1.8027 H   0  0  0  0  0  0  0  0  0  0  0  0
  1  2  1  0
  1  5  1  0
  1  6  1  0
  1  7  1  0
  2  3  1  0
  3  4  2  3
  4  8  1  0
  4  9  1  0
 10 11  1  0
 10 15  1  0
 10 16  1  0
 11 12  1  0
 11 17  1  0
 11 18  1  0
 12 13  1  0
 13 14  1  0
 13 19  1  0
 13 20  1  0
 14 15  1  0
 15 21  1  0
 15 22  1  0
M  RAD  1  10   2
M  END
>  <reaction>  (4) 
rmg_rxn_15614

>  <mol_properties>  (4) 
{"0": {"label": "*1", "atom_type": "Cs"}, "1": {"label": "*0", "atom_type": "O2s"}, "4": {"label": "*2", "atom_type": "H0"}, "9": {"label": "*3", "atom_type": "Cs"}, "10": {"label": "*4", "atom_type": "Cs"}}

>  <type>  (4) 
ts

$$$$

     RDKit          3D

 22 21  0  0  0  0  0  0  0  0999 V2000
   -1.3015   -1.2354   -0.5540 C   0  0  0  0  0  3  0  0  0  0  0  0
   -2.5122   -0.9123    0.0256 O   0  0  0  0  0  0  0  0  0  0  0  0
   -2.9824    0.3554    0.0544 N   0  0  0  0  0  0  0  0  0  0  0  0
   -2.2935    1.3480   -0.3151 C   0  0  0  0  0  0  0  0  0  0  0  0
   -0.2838   -0.9924    0.2904 H   0  0  0  0  0  0  0  0  0  0  0  0
   -1.0566   -0.6810   -1.4578 H   0  0  0  0  0  0  0  0  0  0  0  0
   -1.2885   -2.3110   -0.6929 H   0  0  0  0  0  0  0  0  0  0  0  0
   -2.7916    2.3002   -0.2532 H   0  0  0  0  0  0  0  0  0  0  0  0
   -1.2645    1.3402   -0.6615 H   0  0  0  0  0  0  0  0  0  0  0  0
    0.7616   -0.7735    1.0465 C   0  0  0  0  0  0  0  0  0  0  0  0
    1.9479   -1.2603    0.2388 C   0  0  0  0  0  0  0  0  0  0  0  0
    2.0904   -0.4914   -0.9449 O   0  0  0  0  0  0  0  0  0  0  0  0
    2.1855    0.8687   -0.6538 C   0  0  0  0  0  0  0  0  0  0  0  0
    1.0597    1.3739   -0.0025 O   0  0  0  0  0  0  0  0  0  0  0  0
    0.8567    0.7257    1.2441 C   0  0  0  0  0  0  0  0  0  0  0  0
    0.6174   -1.3195    1.9735 H   0  0  0  0  0  0  0  0  0  0  0  0
    2.8765   -1.1836    0.8346 H   0  0  0  0  0  0  0  0  0  0  0  0
    1.8239   -2.2943   -0.0876 H   0  0  0  0  0  0  0  0  0  0  0  0
    2.2646    1.3943   -1.6077 H   0  0  0  0  0  0  0  0  0  0  0  0
    3.0895    1.0601   -0.0371 H   0  0  0  0  0  0  0  0  0  0  0  0
   -0.0625    1.1441    1.6598 H   0  0  0  0  0  0  0  0  0  0  0  0
    1.6954    0.9730    1.9206 H   0  0  0  0  0  0  0  0  0  0  0  0
  1  2  1  0
  1  6  1  0
  1  7  1  0
  2  3  1  0
  3  4  2  3
  4  8  1  0
  4  9  1  0
  5 10  1  0
 10 11  1  0
 10 15  1  0
 10 16  1  0
 11 12  1  0
 11 17  1  0
 11 18  1  0
 12 13  1  0
 13 14  1  0
 13 19  1  0
 13 20  1  0
 14 15  1  0
 15 21  1  0
 15 22  1  0
M  RAD  1   1   2
M  END
>  <reaction>  (5) 
rmg_rxn_15614

>  <mol_properties>  (5) 
{"0": {"label": "*1", "atom_type": "Cs"}, "1": {"label": "*0", "atom_type": "O2s"}, "4": {"label": "*2", "atom_type": "H0"}, "9": {"label": "*3", "atom_type": "Cs"}, "10": {"label": "*4", "atom_type": "Cs"}}

>  <type>  (5) 
unop_1

>  <geom_source>  (5) 
crest_best.xyz

$$$$

     RDKit          3D

 22 21  0  0  0  0  0  0  0  0999 V2000
   -1.3166    1.0497   -0.7615 C   0  0  0  0  0  0  0  0  0  0  0  0
   -1.3166    1.1076   -2.1744 O   0  0  0  0  0  0  0  0  0  0  0  0
   -1.3166   -0.1663   -2.6901 N   0  0  0  0  0  0  0  0  0  0  0  0
   -1.3166   -0.1663   -3.9537 C   0  0  0  0  0  0  0  0  0  0  0  0
   -0.2460    0.4375   -0.3174 H   0  0  0  0  0  0  0  0  0  0  0  0
   -2.2087    0.5395   -0.3914 H   0  0  0  0  0  0  0  0  0  0  0  0
   -1.3166    2.0846   -0.4237 H   0  0  0  0  0  0  0  0  0  0  0  0
   -1.3166   -1.1334   -4.4386 H   0  0  0  0  0  0  0  0  0  0  0  0
   -1.3166    0.7502   -4.5399 H   0  0  0  0  0  0  0  0  0  0  0  0
    0.8246   -0.1747    0.1268 C   0  0  0  0  0  3  0  0  0  0  0  0
    1.6349    0.7523    1.0216 C   0  0  0  0  0  0  0  0  0  0  0  0
    2.0301    0.0770    2.2003 O   0  0  0  0  0  0  0  0  0  0  0  0
    0.9269   -0.4369    2.8823 C   0  0  0  0  0  0  0  0  0  0  0  0
    0.2064   -1.3656    2.1307 O   0  0  0  0  0  0  0  0  0  0  0  0
   -0.3043   -0.7817    0.9476 C   0  0  0  0  0  0  0  0  0  0  0  0
    1.4693   -0.9715   -0.2490 H   0  0  0  0  0  0  0  0  0  0  0  0
    2.5475    1.0933    0.5347 H   0  0  0  0  0  0  0  0  0  0  0  0
    1.0361    1.6366    1.2885 H   0  0  0  0  0  0  0  0  0  0  0  0
    0.2592    0.3928    3.1789 H   0  0  0  0  0  0  0  0  0  0  0  0
    1.3028   -0.9547    3.7619 H   0  0  0  0  0  0  0  0  0  0  0  0
   -1.0395   -0.0053    1.2092 H   0  0  0  0  0  0  0  0  0  0  0  0
   -0.8221   -1.5722    0.4061 H   0  0  0  0  0  0  0  0  0  0  0  0
  1  2  1  0
  1  5  1  0
  1  6  1  0
  1  7  1  0
  2  3  1  0
  3  4  2  3
  4  8  1  0
  4  9  1  0
 10 11  1  0
 10 15  1  0
 10 16  1  0
 11 12  1  0
 11 17  1  0
 11 18  1  0
 12 13  1  0
 13 14  1  0
 13 19  1  0
 13 20  1  0
 14 15  1  0
 15 21  1  0
 15 22  1  0
M  RAD  1  10   2
M  END
>  <reaction>  (6) 
rmg_rxn_15614

>  <mol_properties>  (6) 
{"0": {"label": "*1", "atom_type": "Cs"}, "1": {"label": "*0", "atom_type": "O2s"}, "4": {"label": "*2", "atom_type": "H0"}, "9": {"label": "*3", "atom_type": "Cs"}, "10": {"label": "*4", "atom_type": "Cs"}}

>  <type>  (6) 
unop_2

>  <geom_source>  (6) 
Heuristics

$$$$

     RDKit          3D

 22 21  0  0  0  0  0  0  0  0999 V2000
   -1.5913    1.7402    0.0601 C   0  0  0  0  0  3  0  0  0  0  0  0
   -2.5863    0.8682    0.2342 O   0  0  0  0  0  0  0  0  0  0  0  0
   -2.3159   -0.4268   -0.1296 N   0  0  0  0  0  0  0  0  0  0  0  0
   -3.2774   -1.2510    0.0262 C   0  0  0  0  0  0  0  0  0  0  0  0
    0.7599   -2.4120   -0.6604 H   0  0  0  0  0  0  0  0  0  0  0  0
   -0.6383    1.4360   -0.3264 H   0  0  0  0  0  0  0  0  0  0  0  0
   -1.8243    2.7323    0.3865 H   0  0  0  0  0  0  0  0  0  0  0  0
   -3.0845   -2.2697   -0.2546 H   0  0  0  0  0  0  0  0  0  0  0  0
   -4.2531   -0.9802    0.4137 H   0  0  0  0  0  0  0  0  0  0  0  0
    0.8745   -1.3732   -0.3452 C   0  0  0  0  0  0  0  0  0  0  0  0
    1.6742   -1.2036    0.9380 C   0  0  0  0  0  0  0  0  0  0  0  0
    1.7597    0.1695    1.2827 O   0  0  0  0  0  0  0  0  0  0  0  0
    2.3018    0.9169    0.2395 C   0  0  0  0  0  0  0  0  0  0  0  0
    1.5483    0.8630   -0.9339 O   0  0  0  0  0  0  0  0  0  0  0  0
    1.4557   -0.4673   -1.4202 C   0  0  0  0  0  0  0  0  0  0  0  0
   -0.1759   -1.2180   -0.2055 H   0  0  0  0  0  0  0  0  0  0  0  0
    1.1967   -1.6965    1.7853 H   0  0  0  0  0  0  0  0  0  0  0  0
    2.6913   -1.6087    0.8056 H   0  0  0  0  0  0  0  0  0  0  0  0
    3.3386    0.5736    0.0304 H   0  0  0  0  0  0  0  0  0  0  0  0
    2.3099    1.9595    0.5648 H   0  0  0  0  0  0  0  0  0  0  0  0
    2.4596   -0.8168   -1.7112 H   0  0  0  0  0  0  0  0  0  0  0  0
    0.8179   -0.4214   -2.3036 H   0  0  0  0  0  0  0  0  0  0  0  0
  1  2  1  0
  1  6  1  0
  1  7  1  0
  2  3  1  0
  3  4  2  3
  4  8  1  0
  4  9  1  0
  5 10  1  0
 10 11  1  0
 10 15  1  0
 10 16  1  0
 11 12  1  0
 11 17  1  0
 11 18  1  0
 12 13  1  0
 13 14  1  0
 13 19  1  0
 13 20  1  0
 14 15  1  0
 15 21  1  0
 15 22  1  0
M  RAD  1   1   2
M  END
>  <reaction>  (7) 
rmg_rxn_15614

>  <mol_properties>  (7) 
{"0": {"label": "*1", "atom_type": "Cs"}, "1": {"label": "*0", "atom_type": "O2s"}, "4": {"label": "*2", "atom_type": "H0"}, "9": {"label": "*3", "atom_type": "Cs"}, "10": {"label": "*4", "atom_type": "Cs"}}

>  <type>  (7) 
unop_3

>  <geom_source>  (7) 
Heuristics

$$$$

     RDKit          3D

 22 21  0  0  0  0  0  0  0  0999 V2000
   -2.0684    0.6670   -0.1476 C   0  0  0  0  0  0  0  0  0  0  0  0
   -2.0685    0.7249   -1.5605 O   0  0  0  0  0  0  0  0  0  0  0  0
   -2.0685   -0.5490   -2.0762 N   0  0  0  0  0  0  0  0  0  0  0  0
   -2.0685   -0.5490   -3.3399 C   0  0  0  0  0  0  0  0  0  0  0  0
   -0.9979    0.0548    0.2965 H   0  0  0  0  0  0  0  0  0  0  0  0
   -2.9606    0.1568    0.2225 H   0  0  0  0  0  0  0  0  0  0  0  0
   -2.0685    1.7019    0.1902 H   0  0  0  0  0  0  0  0  0  0  0  0
   -2.0685   -1.5161   -3.8247 H   0  0  0  0  0  0  0  0  0  0  0  0
   -2.0685    0.3675   -3.9260 H   0  0  0  0  0  0  0  0  0  0  0  0
    0.0727   -0.5574    0.7406 C   0  0  0  0  0  3  0  0  0  0  0  0
    1.2393   -0.3496   -0.2146 C   0  0  0  0  0  0  0  0  0  0  0  0
    2.4684   -0.4917    0.4714 O   0  0  0  0  0  0  0  0  0  0  0  0
    2.5473    0.3848    1.5540 C   0  0  0  0  0  0  0  0  0  0  0  0
    1.5494    0.1670    2.5043 O   0  0  0  0  0  0  0  0  0  0  0  0
    0.2621    0.3509    1.9472 C   0  0  0  0  0  0  0  0  0  0  0  0
    0.0537   -1.5983    1.0693 H   0  0  0  0  0  0  0  0  0  0  0  0
    1.2427   -1.0836   -1.0192 H   0  0  0  0  0  0  0  0  0  0  0  0
    1.1839    0.6537   -0.6643 H   0  0  0  0  0  0  0  0  0  0  0  0
    2.4855    1.4263    1.1886 H   0  0  0  0  0  0  0  0  0  0  0  0
    3.5031    0.2099    2.0427 H   0  0  0  0  0  0  0  0  0  0  0  0
    0.1379    1.4034    1.6495 H   0  0  0  0  0  0  0  0  0  0  0  0
   -0.4554    0.1336    2.7372 H   0  0  0  0  0  0  0  0  0  0  0  0
  1  2  1  0
  1  5  1  0
  1  6  1  0
  1  7  1  0
  2  3  1  0
  3  4  2  3
  4  8  1  0
  4  9  1  0
 10 11  1  0
 10 15  1  0
 10 16  1  0
 11 12  1  0
 11 17  1  0
 11 18  1  0
 12 13  1  0
 13 14  1  0
 13 19  1  0
 13 20  1  0
 14 15  1  0
 15 21  1  0
 15 22  1  0
M  RAD  1  10   2
M  END
>  <reaction>  (8) 
rmg_rxn_15614

>  <mol_properties>  (8) 
{"0": {"label": "*1", "atom_type": "Cs"}, "1": {"label": "*0", "atom_type": "O2s"}, "4": {"label": "*2", "atom_type": "H0"}, "9": {"label": "*3", "atom_type": "Cs"}, "10": {"label": "*4", "atom_type": "Cs"}}

>  <type>  (8) 
unop_4

>  <geom_source>  (8) 
Heuristics

$$$$

     RDKit          3D

 22 21  0  0  0  0  0  0  0  0999 V2000
   -1.2965    1.4575   -0.6118 C   0  0  0  0  0  0  0  0  0  0  0  0
   -1.2965    1.5154   -2.0246 O   0  0  0  0  0  0  0  0  0  0  0  0
   -1.2965    0.2415   -2.5404 N   0  0  0  0  0  0  0  0  0  0  0  0
   -1.2965    0.2415   -3.8040 C   0  0  0  0  0  0  0  0  0  0  0  0
   -0.2259    0.8453   -0.1676 H   0  0  0  0  0  0  0  0  0  0  0  0
   -2.1886    0.9473   -0.2416 H   0  0  0  0  0  0  0  0  0  0  0  0
   -1.2965    2.4924   -0.2739 H   0  0  0  0  0  0  0  0  0  0  0  0
   -1.2965   -0.7256   -4.2888 H   0  0  0  0  0  0  0  0  0  0  0  0
   -1.2965    1.1580   -4.3901 H   0  0  0  0  0  0  0  0  0  0  0  0
    0.8447    0.2331    0.2765 C   0  0  0  0  0  3  0  0  0  0  0  0
    1.2387    0.7744    1.6434 C   0  0  0  0  0  0  0  0  0  0  0  0
    1.7738   -0.2599    2.4467 O   0  0  0  0  0  0  0  0  0  0  0  0
    0.8757   -1.3204    2.5696 C   0  0  0  0  0  0  0  0  0  0  0  0
    0.5586   -1.9097    1.3454 O   0  0  0  0  0  0  0  0  0  0  0  0
   -0.0535   -0.9800    0.4723 C   0  0  0  0  0  0  0  0  0  0  0  0
    1.7426   -0.0642   -0.2688 H   0  0  0  0  0  0  0  0  0  0  0  0
    2.0060    1.5440    1.5710 H   0  0  0  0  0  0  0  0  0  0  0  0
    0.3602    1.2104    2.1434 H   0  0  0  0  0  0  0  0  0  0  0  0
   -0.0505   -0.9629    3.0560 H   0  0  0  0  0  0  0  0  0  0  0  0
    1.3558   -2.0817    3.1803 H   0  0  0  0  0  0  0  0  0  0  0  0
   -1.0229   -0.6675    0.8899 H   0  0  0  0  0  0  0  0  0  0  0  0
   -0.2393   -1.5045   -0.4640 H   0  0  0  0  0  0  0  0  0  0  0  0
  1  2  1  0
  1  5  1  0
  1  6  1  0
  1  7  1  0
  2  3  1  0
  3  4  2  3
  4  8  1  0
  4  9  1  0
 10 11  1  0
 10 15  1  0
 10 16  1  0
 11 12  1  0
 11 17  1  0
 11 18  1  0
 12 13  1  0
 13 14  1  0
 13 19  1  0
 13 20  1  0
 14 15  1  0
 15 21  1  0
 15 22  1  0
M  RAD  1  10   2
M  END
>  <reaction>  (9) 
rmg_rxn_15614

>  <mol_properties>  (9) 
{"0": {"label": "*1", "atom_type": "Cs"}, "1": {"label": "*0", "atom_type": "O2s"}, "4": {"label": "*2", "atom_type": "H0"}, "9": {"label": "*3", "atom_type": "Cs"}, "10": {"label": "*4", "atom_type": "Cs"}}

>  <type>  (9) 
unop_5

>  <geom_source>  (9) 
Heuristics

$$$$

     RDKit          3D

 22 21  0  0  0  0  0  0  0  0999 V2000
   -1.9422    1.5106   -0.0621 C   0  0  0  0  0  0  0  0  0  0  0  0
   -1.9422    1.5685   -1.4750 O   0  0  0  0  0  0  0  0  0  0  0  0
   -1.9422    0.2946   -1.9907 N   0  0  0  0  0  0  0  0  0  0  0  0
   -1.9422    0.2946   -3.2544 C   0  0  0  0  0  0  0  0  0  0  0  0
   -0.8716    0.8984    0.3820 H   0  0  0  0  0  0  0  0  0  0  0  0
   -2.8343    1.0004    0.3080 H   0  0  0  0  0  0  0  0  0  0  0  0
   -1.9422    2.5455    0.2757 H   0  0  0  0  0  0  0  0  0  0  0  0
   -1.9422   -0.6724   -3.7392 H   0  0  0  0  0  0  0  0  0  0  0  0
   -1.9422    1.2111   -3.8405 H   0  0  0  0  0  0  0  0  0  0  0  0
    0.1990    0.2862    0.8261 C   0  0  0  0  0  3  0  0  0  0  0  0
    0.2579   -1.1377    0.2918 C   0  0  0  0  0  0  0  0  0  0  0  0
    1.0149   -1.9584    1.1607 O   0  0  0  0  0  0  0  0  0  0  0  0
    2.2973   -1.4437    1.3525 C   0  0  0  0  0  0  0  0  0  0  0  0
    2.2933   -0.1737    1.9301 O   0  0  0  0  0  0  0  0  0  0  0  0
    1.6173    0.7601    1.1100 C   0  0  0  0  0  0  0  0  0  0  0  0
   -0.3813    0.3033    1.7507 H   0  0  0  0  0  0  0  0  0  0  0  0
   -0.7317   -1.5868    0.2193 H   0  0  0  0  0  0  0  0  0  0  0  0
    0.7136   -1.1456   -0.7102 H   0  0  0  0  0  0  0  0  0  0  0  0
    2.8262   -1.4044    0.3826 H   0  0  0  0  0  0  0  0  0  0  0  0
    2.8137   -2.1100    2.0400 H   0  0  0  0  0  0  0  0  0  0  0  0
    2.1686    0.8858    0.1655 H   0  0  0  0  0  0  0  0  0  0  0  0
    1.6305    1.7109    1.6409 H   0  0  0  0  0  0  0  0  0  0  0  0
  1  2  1  0
  1  5  1  0
  1  6  1  0
  1  7  1  0
  2  3  1  0
  3  4  2  3
  4  8  1  0
  4  9  1  0
 10 11  1  0
 10 15  1  0
 10 16  1  0
 11 12  1  0
 11 17  1  0
 11 18  1  0
 12 13  1  0
 13 14  1  0
 13 19  1  0
 13 20  1  0
 14 15  1  0
 15 21  1  0
 15 22  1  0
M  RAD  1  10   2
M  END
>  <reaction>  (10) 
rmg_rxn_15614

>  <mol_properties>  (10) 
{"0": {"label": "*1", "atom_type": "Cs"}, "1": {"label": "*0", "atom_type": "O2s"}, "4": {"label": "*2", "atom_type": "H0"}, "9": {"label": "*3", "atom_type": "Cs"}, "10": {"label": "*4", "atom_type": "Cs"}}

>  <type>  (10) 
unop_6

>  <geom_source>  (10) 
Heuristics

$$$$

     RDKit          3D

 22 21  0  0  0  0  0  0  0  0999 V2000
   -1.5715    1.7429   -0.0205 C   0  0  0  0  0  3  0  0  0  0  0  0
   -2.5619    0.8717   -0.2216 O   0  0  0  0  0  0  0  0  0  0  0  0
   -2.3032   -0.4230    0.1520 N   0  0  0  0  0  0  0  0  0  0  0  0
   -3.2598   -1.2471   -0.0319 C   0  0  0  0  0  0  0  0  0  0  0  0
    0.7832   -2.4274    0.6499 H   0  0  0  0  0  0  0  0  0  0  0  0
   -0.6276    1.4361    0.3855 H   0  0  0  0  0  0  0  0  0  0  0  0
   -1.7926    2.7341   -0.3581 H   0  0  0  0  0  0  0  0  0  0  0  0
   -3.0750   -2.2659    0.2545 H   0  0  0  0  0  0  0  0  0  0  0  0
   -4.2227   -0.9771   -0.4503 H   0  0  0  0  0  0  0  0  0  0  0  0
    0.8819   -1.3836    0.3472 C   0  0  0  0  0  0  0  0  0  0  0  0
    1.5063   -0.4922    1.4099 C   0  0  0  0  0  0  0  0  0  0  0  0
    1.5711    0.8461    0.9415 O   0  0  0  0  0  0  0  0  0  0  0  0
    2.2714    0.9225   -0.2633 C   0  0  0  0  0  0  0  0  0  0  0  0
    1.6871    0.1887   -1.2934 O   0  0  0  0  0  0  0  0  0  0  0  0
    1.6231   -1.1901   -0.9672 C   0  0  0  0  0  0  0  0  0  0  0  0
   -0.1742   -1.2323    0.2555 H   0  0  0  0  0  0  0  0  0  0  0  0
    0.9085   -0.4637    2.3216 H   0  0  0  0  0  0  0  0  0  0  0  0
    2.5238   -0.8413    1.6502 H   0  0  0  0  0  0  0  0  0  0  0  0
    3.3181    0.5815   -0.1059 H   0  0  0  0  0  0  0  0  0  0  0  0
    2.2600    1.9701   -0.5719 H   0  0  0  0  0  0  0  0  0  0  0  0
    2.6469   -1.5921   -0.8867 H   0  0  0  0  0  0  0  0  0  0  0  0
    1.1103   -1.6720   -1.8002 H   0  0  0  0  0  0  0  0  0  0  0  0
  1  2  1  0
  1  6  1  0
  1  7  1  0
  2  3  1  0
  3  4  2  3
  4  8  1  0
  4  9  1  0
  5 10  1  0
 10 11  1  0
 10 15  1  0
 10 16  1  0
 11 12  1  0
 11 17  1  0
 11 18  1  0
 12 13  1  0
 13 14  1  0
 13 19  1  0
 13 20  1  0
 14 15  1  0
 15 21  1  0
 15 22  1  0
M  RAD  1   1   2
M  END
>  <reaction>  (11) 
rmg_rxn_15614

>  <mol_properties>  (11) 
{"0": {"label": "*1", "atom_type": "Cs"}, "1": {"label": "*0", "atom_type": "O2s"}, "4": {"label": "*2", "atom_type": "H0"}, "9": {"label": "*3", "atom_type": "Cs"}, "10": {"label": "*4", "atom_type": "Cs"}}

>  <type>  (11) 
unop_7

>  <geom_source>  (11) 
Heuristics

$$$$

     RDKit          3D

 22 21  0  0  0  0  0  0  0  0999 V2000
   -1.6164    1.6315   -0.3428 C   0  0  0  0  0  0  0  0  0  0  0  0
   -1.6164    1.6894   -1.7557 O   0  0  0  0  0  0  0  0  0  0  0  0
   -1.6164    0.4156   -2.2714 N   0  0  0  0  0  0  0  0  0  0  0  0
   -1.6164    0.4156   -3.5351 C   0  0  0  0  0  0  0  0  0  0  0  0
   -0.5458    1.0194    0.1013 H   0  0  0  0  0  0  0  0  0  0  0  0
   -2.5085    1.1213    0.0273 H   0  0  0  0  0  0  0  0  0  0  0  0
   -1.6164    2.6664   -0.0050 H   0  0  0  0  0  0  0  0  0  0  0  0
   -1.6164   -0.5515   -4.0199 H   0  0  0  0  0  0  0  0  0  0  0  0
   -1.6164    1.3321   -4.1212 H   0  0  0  0  0  0  0  0  0  0  0  0
    0.5248    0.4072    0.5454 C   0  0  0  0  0  3  0  0  0  0  0  0
    0.5134    0.3512    2.0664 C   0  0  0  0  0  0  0  0  0  0  0  0
    1.5903   -0.4356    2.5380 O   0  0  0  0  0  0  0  0  0  0  0  0
    1.5565   -1.7186    1.9909 C   0  0  0  0  0  0  0  0  0  0  0  0
    1.6601   -1.7198    0.5996 O   0  0  0  0  0  0  0  0  0  0  0  0
    0.5876   -1.0144    0.0051 C   0  0  0  0  0  0  0  0  0  0  0  0
    1.4026    0.9624    0.2092 H   0  0  0  0  0  0  0  0  0  0  0  0
    0.6282    1.3387    2.5112 H   0  0  0  0  0  0  0  0  0  0  0  0
   -0.4369   -0.0772    2.4204 H   0  0  0  0  0  0  0  0  0  0  0  0
    0.6181   -2.2207    2.2898 H   0  0  0  0  0  0  0  0  0  0  0  0
    2.4168   -2.2588    2.3798 H   0  0  0  0  0  0  0  0  0  0  0  0
   -0.3574   -1.5389    0.2142 H   0  0  0  0  0  0  0  0  0  0  0  0
    0.7572   -1.0342   -1.0705 H   0  0  0  0  0  0  0  0  0  0  0  0
  1  2  1  0
  1  5  1  0
  1  6  1  0
  1  7  1  0
  2  3  1  0
  3  4  2  3
  4  8  1  0
  4  9  1  0
 10 11  1  0
 10 15  1  0
 10 16  1  0
 11 12  1  0
 11 17  1  0
 11 18  1  0
 12 13  1  0
 13 14  1  0
 13 19  1  0
 13 20  1  0
 14 15  1  0
 15 21  1  0
 15 22  1  0
M  RAD  1  10   2
M  END
>  <reaction>  (12) 
rmg_rxn_15614

>  <mol_properties>  (12) 
{"0": {"label": "*1", "atom_type": "Cs"}, "1": {"label": "*0", "atom_type": "O2s"}, "4": {"label": "*2", "atom_type": "H0"}, "9": {"label": "*3", "atom_type": "Cs"}, "10": {"label": "*4", "atom_type": "Cs"}}

>  <type>  (12) 
unop_8

>  <geom_source>  (12) 
Heuristics

$$$$

     RDKit          3D

 22 21  0  0  0  0  0  0  0  0999 V2000
   -1.9303    1.5759    0.1509 C   0  0  0  0  0  3  0  0  0  0  0  0
   -2.4946    0.4492   -0.4142 O   0  0  0  0  0  0  0  0  0  0  0  0
   -2.4386   -0.6473    0.4263 N   0  0  0  0  0  0  0  0  0  0  0  0
   -2.9117   -1.7213   -0.0379 C   0  0  0  0  0  0  0  0  0  0  0  0
   -0.5968    1.4330    0.0913 H   0  0  0  0  0  0  0  0  0  0  0  0
   -2.1486    1.6926    1.2093 H   0  0  0  0  0  0  0  0  0  0  0  0
   -2.1961    2.4286   -0.4621 H   0  0  0  0  0  0  0  0  0  0  0  0
   -2.8768   -2.5788    0.6101 H   0  0  0  0  0  0  0  0  0  0  0  0
   -3.3450   -1.8225   -1.0283 H   0  0  0  0  0  0  0  0  0  0  0  0
    0.6754    1.1378    0.0317 C   0  0  0  0  0  0  0  0  0  0  0  0
    1.0297    0.3114    1.2525 C   0  0  0  0  0  0  0  0  0  0  0  0
    2.3494   -0.2104    1.1202 O   0  0  0  0  0  0  0  0  0  0  0  0
    2.4752   -0.9552   -0.0503 C   0  0  0  0  0  0  0  0  0  0  0  0
    2.2358   -0.2176   -1.2084 O   0  0  0  0  0  0  0  0  0  0  0  0
    0.9113    0.3064   -1.2134 C   0  0  0  0  0  0  0  0  0  0  0  0
    1.2218    2.0781    0.0023 H   0  0  0  0  0  0  0  0  0  0  0  0
    1.0356    0.9062    2.1666 H   0  0  0  0  0  0  0  0  0  0  0  0
    0.3190   -0.5234    1.3620 H   0  0  0  0  0  0  0  0  0  0  0  0
    1.7846   -1.8268   -0.0142 H   0  0  0  0  0  0  0  0  0  0  0  0
    3.5112   -1.2979   -0.1003 H   0  0  0  0  0  0  0  0  0  0  0  0
    0.1947   -0.5303   -1.2504 H   0  0  0  0  0  0  0  0  0  0  0  0
    0.8266    0.8959   -2.1270 H   0  0  0  0  0  0  0  0  0  0  0  0
  1  2  1  0
  1  6  1  0
  1  7  1  0
  2  3  1  0
  3  4  2  3
  4  8  1  0
  4  9  1  0
  5 10  1  0
 10 11  1  0
 10 15  1  0
 10 16  1  0
 11 12  1  0
 11 17  1  0
 11 18  1  0
 12 13  1  0
 13 14  1  0
 13 19  1  0
 13 20  1  0
 14 15  1  0
 15 21  1  0
 15 22  1  0
M  RAD  1   1   2
M  END
>  <reaction>  (13) 
rmg_rxn_15614

>  <mol_properties>  (13) 
{"0": {"label": "*1", "atom_type": "Cs"}, "1": {"label": "*0", "atom_type": "O2s"}, "4": {"label": "*2", "atom_type": "H0"}, "9": {"label": "*3", "atom_type": "Cs"}, "10": {"label": "*4", "atom_type": "Cs"}}

>  <type>  (13) 
unop_9

>  <geom_source>  (13) 
Heuristics

$$$$

     RDKit          3D

 22 21  0  0  0  0  0  0  0  0999 V2000
   -1.8620    1.5169   -0.2376 C   0  0  0  0  0  0  0  0  0  0  0  0
   -1.8620    1.5748   -1.6504 O   0  0  0  0  0  0  0  0  0  0  0  0
   -1.8620    0.3009   -2.1662 N   0  0  0  0  0  0  0  0  0  0  0  0
   -1.8620    0.3009   -3.4298 C   0  0  0  0  0  0  0  0  0  0  0  0
   -0.7914    0.9047    0.2066 H   0  0  0  0  0  0  0  0  0  0  0  0
   -2.7541    1.0067    0.1326 H   0  0  0  0  0  0  0  0  0  0  0  0
   -1.8620    2.5518    0.1003 H   0  0  0  0  0  0  0  0  0  0  0  0
   -1.8620   -0.6662   -3.9146 H   0  0  0  0  0  0  0  0  0  0  0  0
   -1.8620    1.2174   -4.0159 H   0  0  0  0  0  0  0  0  0  0  0  0
    0.2792    0.2925    0.6507 C   0  0  0  0  0  3  0  0  0  0  0  0
    0.0224   -1.2021    0.7799 C   0  0  0  0  0  0  0  0  0  0  0  0
    0.7581   -1.7359    1.8640 O   0  0  0  0  0  0  0  0  0  0  0  0
    2.1216   -1.4735    1.7275 C   0  0  0  0  0  0  0  0  0  0  0  0
    2.4132   -0.1095    1.6998 O   0  0  0  0  0  0  0  0  0  0  0  0
    1.7823    0.5274    0.6054 C   0  0  0  0  0  0  0  0  0  0  0  0
   -0.1431    0.8094    1.5146 H   0  0  0  0  0  0  0  0  0  0  0  0
   -1.0266   -1.4198    0.9756 H   0  0  0  0  0  0  0  0  0  0  0  0
    0.3130   -1.7160   -0.1493 H   0  0  0  0  0  0  0  0  0  0  0  0
    2.4961   -1.9480    0.8019 H   0  0  0  0  0  0  0  0  0  0  0  0
    2.6205   -1.8933    2.5981 H   0  0  0  0  0  0  0  0  0  0  0  0
    2.1967    0.1352   -0.3361 H   0  0  0  0  0  0  0  0  0  0  0  0
    2.0315    1.5855    0.6722 H   0  0  0  0  0  0  0  0  0  0  0  0
  1  2  1  0
  1  5  1  0
  1  6  1  0
  1  7  1  0
  2  3  1  0
  3  4  2  3
  4  8  1  0
  4  9  1  0
 10 11  1  0
 10 15  1  0
 10 16  1  0
 11 12  1  0
 11 17  1  0
 11 18  1  0
 12 13  1  0
 13 14  1  0
 13 19  1  0
 13 20  1  0
 14 15  1  0
 15 21  1  0
 15 22  1  0
M  RAD  1  10   2
M  END
>  <reaction>  (14) 
rmg_rxn_15614

>  <mol_properties>  (14) 
{"0": {"label": "*1", "atom_type": "Cs"}, "1": {"label": "*0", "atom_type": "O2s"}, "4": {"label": "*2", "atom_type": "H0"}, "9": {"label": "*3", "atom_type": "Cs"}, "10": {"label": "*4", "atom_type": "Cs"}}

>  <type>  (14) 
unop_10

>  <geom_source>  (14) 
Heuristics

$$$$

     RDKit          3D

 22 21  0  0  0  0  0  0  0  0999 V2000
    1.2998    1.2346    0.5542 C   0  0  0  0  0  3  0  0  0  0  0  0
    2.5112    0.9133   -0.0248 O   0  0  0  0  0  0  0  0  0  0  0  0
    2.9829   -0.3537   -0.0542 N   0  0  0  0  0  0  0  0  0  0  0  0
    2.2947   -1.3475    0.3135 C   0  0  0  0  0  0  0  0  0  0  0  0
    0.2829    0.9919   -0.2914 H   0  0  0  0  0  0  0  0  0  0  0  0
    1.2855    2.3100    0.6947 H   0  0  0  0  0  0  0  0  0  0  0  0
    1.0544    0.6785    1.4569 H   0  0  0  0  0  0  0  0  0  0  0  0
    2.7938   -2.2991    0.2510 H   0  0  0  0  0  0  0  0  0  0  0  0
    1.2653   -1.3412    0.6588 H   0  0  0  0  0  0  0  0  0  0  0  0
   -0.7622    0.7723   -1.0476 C   0  0  0  0  0  0  0  0  0  0  0  0
   -0.8568   -0.7270   -1.2437 C   0  0  0  0  0  0  0  0  0  0  0  0
   -1.0586   -1.3738    0.0039 O   0  0  0  0  0  0  0  0  0  0  0  0
   -2.1843   -0.8684    0.6553 C   0  0  0  0  0  0  0  0  0  0  0  0
   -2.0900    0.4921    0.9445 O   0  0  0  0  0  0  0  0  0  0  0  0
   -1.9487    1.2595   -0.2404 C   0  0  0  0  0  0  0  0  0  0  0  0
   -0.6182    1.3176   -1.9751 H   0  0  0  0  0  0  0  0  0  0  0  0
   -1.6960   -0.9755   -1.9193 H   0  0  0  0  0  0  0  0  0  0  0  0
    0.0622   -1.1455   -1.6596 H   0  0  0  0  0  0  0  0  0  0  0  0
   -2.2623   -1.3928    1.6100 H   0  0  0  0  0  0  0  0  0  0  0  0
   -3.0886   -1.0614    0.0396 H   0  0  0  0  0  0  0  0  0  0  0  0
   -1.8255    2.2941    0.0845 H   0  0  0  0  0  0  0  0  0  0  0  0
   -2.8775    1.1811   -0.8357 H   0  0  0  0  0  0  0  0  0  0  0  0
  1  2  1  0
  1  6  1  0
  1  7  1  0
  2  3  1  0
  3  4  2  3
  4  8  1  0
  4  9  1  0
  5 10  1  0
 10 11  1  0
 10 15  1  0
 10 16  1  0
 11 12  1  0
 11 17  1  0
 11 18  1  0
 12 13  1  0
 13 14  1  0
 13 19  1  0
 13 20  1  0
 14 15  1  0
 15 21  1  0
 15 22  1  0
M  RAD  1   1   2
M  END
>  <reaction>  (15) 
rmg_rxn_15614

>  <mol_properties>  (15) 
{"0": {"label": "*1", "atom_type": "Cs"}, "1": {"label": "*0", "atom_type": "O2s"}, "4": {"label": "*2", "atom_type": "H0"}, "9": {"label": "*3", "atom_type": "Cs"}, "10": {"label": "*4", "atom_type": "Cs"}}

>  <type>  (15) 
unop_11

>  <geom_source>  (15) 
Heuristics

$$$$

     RDKit          3D

 22 21  0  0  0  0  0  0  0  0999 V2000
   -1.8649    1.4483   -0.3239 C   0  0  0  0  0  0  0  0  0  0  0  0
   -1.8649    1.5062   -1.7368 O   0  0  0  0  0  0  0  0  0  0  0  0
   -1.8649    0.2324   -2.2525 N   0  0  0  0  0  0  0  0  0  0  0  0
   -1.8649    0.2324   -3.5162 C   0  0  0  0  0  0  0  0  0  0  0  0
   -0.7943    0.8361    0.1202 H   0  0  0  0  0  0  0  0  0  0  0  0
   -2.7570    0.9381    0.0462 H   0  0  0  0  0  0  0  0  0  0  0  0
   -1.8649    2.4832    0.0139 H   0  0  0  0  0  0  0  0  0  0  0  0
   -1.8649   -0.7347   -4.0010 H   0  0  0  0  0  0  0  0  0  0  0  0
   -1.8649    1.1488   -4.1023 H   0  0  0  0  0  0  0  0  0  0  0  0
    0.2763    0.2240    0.5643 C   0  0  0  0  0  3  0  0  0  0  0  0
   -0.1109   -1.0075    1.3707 C   0  0  0  0  0  0  0  0  0  0  0  0
    0.8187   -1.2242    2.4149 O   0  0  0  0  0  0  0  0  0  0  0  0
    2.1176   -1.3401    1.9191 C   0  0  0  0  0  0  0  0  0  0  0  0
    2.5498   -0.1937    1.2518 O   0  0  0  0  0  0  0  0  0  0  0  0
    1.7299    0.0884    0.1339 C   0  0  0  0  0  0  0  0  0  0  0  0
    0.1631    1.1148    1.1852 H   0  0  0  0  0  0  0  0  0  0  0  0
   -1.0881   -0.8971    1.8389 H   0  0  0  0  0  0  0  0  0  0  0  0
   -0.1408   -1.8922    0.7164 H   0  0  0  0  0  0  0  0  0  0  0  0
    2.1737   -2.2066    1.2349 H   0  0  0  0  0  0  0  0  0  0  0  0
    2.7773   -1.4862    2.7716 H   0  0  0  0  0  0  0  0  0  0  0  0
    1.8295   -0.7193   -0.6074 H   0  0  0  0  0  0  0  0  0  0  0  0
    2.1106    1.0071   -0.3102 H   0  0  0  0  0  0  0  0  0  0  0  0
  1  2  1  0
  1  5  1  0
  1  6  1  0
  1  7  1  0
  2  3  1  0
  3  4  2  3
  4  8  1  0
  4  9  1  0
 10 11  1  0
 10 15  1  0
 10 16  1  0
 11 12  1  0
 11 17  1  0
 11 18  1  0
 12 13  1  0
 13 14  1  0
 13 19  1  0
 13 20  1  0
 14 15  1  0
 15 21  1  0
 15 22  1  0
M  RAD  1  10   2
M  END
>  <reaction>  (16) 
rmg_rxn_15614

>  <mol_properties>  (16) 
{"0": {"label": "*1", "atom_type": "Cs"}, "1": {"label": "*0", "atom_type": "O2s"}, "4": {"label": "*2", "atom_type": "H0"}, "9": {"label": "*3", "atom_type": "Cs"}, "10": {"label": "*4", "atom_type": "Cs"}}

>  <type>  (16) 
unop_12

>  <geom_source>  (16) 
Heuristics

$$$$

     RDKit          3D

 22 21  0  0  0  0  0  0  0  0999 V2000
   -1.5437    0.7116   -0.6894 C   0  0  0  0  0  0  0  0  0  0  0  0
   -1.5437    0.7695   -2.1022 O   0  0  0  0  0  0  0  0  0  0  0  0
   -1.5437   -0.5044   -2.6180 N   0  0  0  0  0  0  0  0  0  0  0  0
   -1.5437   -0.5044   -3.8816 C   0  0  0  0  0  0  0  0  0  0  0  0
   -0.4731    0.0994   -0.2452 H   0  0  0  0  0  0  0  0  0  0  0  0
   -2.4358    0.2014   -0.3192 H   0  0  0  0  0  0  0  0  0  0  0  0
   -1.5437    1.7465   -0.3515 H   0  0  0  0  0  0  0  0  0  0  0  0
   -1.5437   -1.4714   -4.3664 H   0  0  0  0  0  0  0  0  0  0  0  0
   -1.5437    0.4121   -4.4677 H   0  0  0  0  0  0  0  0  0  0  0  0
    0.5975   -0.5128    0.1989 C   0  0  0  0  0  3  0  0  0  0  0  0
    1.7235    0.4849    0.4302 C   0  0  0  0  0  0  0  0  0  0  0  0
    2.3441    0.2456    1.6788 O   0  0  0  0  0  0  0  0  0  0  0  0
    1.4171    0.2886    2.7205 C   0  0  0  0  0  0  0  0  0  0  0  0
    0.4159   -0.6753    2.5982 O   0  0  0  0  0  0  0  0  0  0  0  0
   -0.3270   -0.4944    1.4078 C   0  0  0  0  0  0  0  0  0  0  0  0
    1.0179   -1.5131    0.0785 H   0  0  0  0  0  0  0  0  0  0  0  0
    2.5017    0.4037   -0.3274 H   0  0  0  0  0  0  0  0  0  0  0  0
    1.3274    1.5118    0.4080 H   0  0  0  0  0  0  0  0  0  0  0  0
    0.9570    1.2929    2.7616 H   0  0  0  0  0  0  0  0  0  0  0  0
    1.9561    0.0798    3.6420 H   0  0  0  0  0  0  0  0  0  0  0  0
   -0.8673    0.4636    1.4544 H   0  0  0  0  0  0  0  0  0  0  0  0
   -1.0613   -1.2979    1.3714 H   0  0  0  0  0  0  0  0  0  0  0  0
  1  2  1  0
  1  5  1  0
  1  6  1  0
  1  7  1  0
  2  3  1  0
  3  4  2  3
  4  8  1  0
  4  9  1  0
 10 11  1  0
 10 15  1  0
 10 16  1  0
 11 12  1  0
 11 17  1  0
 11 18  1  0
 12 13  1  0
 13 14  1  0
 13 19  1  0
 13 20  1  0
 14 15  1  0
 15 21  1  0
 15 22  1  0
M  RAD  1  10   2
M  END
>  <reaction>  (17) 
rmg_rxn_15614

>  <mol_properties>  (17) 
{"0": {"label": "*1", "atom_type": "Cs"}, "1": {"label": "*0", "atom_type": "O2s"}, "4": {"label": "*2", "atom_type": "H0"}, "9": {"label": "*3", "atom_type": "Cs"}, "10": {"label": "*4", "atom_type": "Cs"}}

>  <type>  (17) 
unop_13

>  <geom_source>  (17) 
Heuristics

$$$$

     RDKit          3D

 22 21  0  0  0  0  0  0  0  0999 V2000
   -1.3015   -1.2354   -0.5540 C   0  0  0  0  0  3  0  0  0  0  0  0
   -2.5122   -0.9123    0.0256 O   0  0  0  0  0  0  0  0  0  0  0  0
   -2.9824    0.3554    0.0544 N   0  0  0  0  0  0  0  0  0  0  0  0
   -2.2935    1.3480   -0.3151 C   0  0  0  0  0  0  0  0  0  0  0  0
   -0.2838   -0.9924    0.2904 H   0  0  0  0  0  0  0  0  0  0  0  0
   -1.0566   -0.6810   -1.4578 H   0  0  0  0  0  0  0  0  0  0  0  0
   -1.2885   -2.3110   -0.6929 H   0  0  0  0  0  0  0  0  0  0  0  0
   -2.7916    2.3002   -0.2532 H   0  0  0  0  0  0  0  0  0  0  0  0
   -1.2645    1.3402   -0.6615 H   0  0  0  0  0  0  0  0  0  0  0  0
    0.7616   -0.7735    1.0465 C   0  0  0  0  0  0  0  0  0  0  0  0
    1.9479   -1.2603    0.2388 C   0  0  0  0  0  0  0  0  0  0  0  0
    2.0904   -0.4914   -0.9449 O   0  0  0  0  0  0  0  0  0  0  0  0
    2.1855    0.8687   -0.6538 C   0  0  0  0  0  0  0  0  0  0  0  0
    1.0597    1.3739   -0.0025 O   0  0  0  0  0  0  0  0  0  0  0  0
    0.8567    0.7257    1.2441 C   0  0  0  0  0  0  0  0  0  0  0  0
    0.6174   -1.3195    1.9735 H   0  0  0  0  0  0  0  0  0  0  0  0
    2.8765   -1.1836    0.8346 H   0  0  0  0  0  0  0  0  0  0  0  0
    1.8239   -2.2943   -0.0876 H   0  0  0  0  0  0  0  0  0  0  0  0
    2.2646    1.3943   -1.6077 H   0  0  0  0  0  0  0  0  0  0  0  0
    3.0895    1.0601   -0.0371 H   0  0  0  0  0  0  0  0  0  0  0  0
   -0.0625    1.1441    1.6598 H   0  0  0  0  0  0  0  0  0  0  0  0
    1.6954    0.9730    1.9206 H   0  0  0  0  0  0  0  0  0  0  0  0
  1  2  1  0
  1  6  1  0
  1  7  1  0
  2  3  1  0
  3  4  2  3
  4  8  1  0
  4  9  1  0
  5 10  1  0
 10 11  1  0
 10 15  1  0
 10 16  1  0
 11 12  1  0
 11 17  1  0
 11 18  1  0
 12 13  1  0
 13 14  1  0
 13 19  1  0
 13 20  1  0
 14 15  1  0
 15 21  1  0
 15 22  1  0
M  RAD  1   1   2
M  END
>  <reaction>  (18) 
rmg_rxn_15614

>  <mol_properties>  (18) 
{"0": {"label": "*1", "atom_type": "Cs"}, "1": {"label": "*0", "atom_type": "O2s"}, "4": {"label": "*2", "atom_type": "H0"}, "9": {"label": "*3", "atom_type": "Cs"}, "10": {"label": "*4", "atom_type": "Cs"}}

>  <type>  (18) 
unop_14

>  <geom_source>  (18) 
Heuristics

$$$$

     RDKit          3D

 22 21  0  0  0  0  0  0  0  0999 V2000
   -2.0798    1.3245    0.0852 C   0  0  0  0  0  0  0  0  0  0  0  0
   -2.0798    1.3824   -1.3276 O   0  0  0  0  0  0  0  0  0  0  0  0
   -2.0798    0.1086   -1.8434 N   0  0  0  0  0  0  0  0  0  0  0  0
   -2.0798    0.1086   -3.1070 C   0  0  0  0  0  0  0  0  0  0  0  0
   -1.0092    0.7123    0.5294 H   0  0  0  0  0  0  0  0  0  0  0  0
   -2.9719    0.8143    0.4554 H   0  0  0  0  0  0  0  0  0  0  0  0
   -2.0798    2.3594    0.4231 H   0  0  0  0  0  0  0  0  0  0  0  0
   -2.0798   -0.8585   -3.5918 H   0  0  0  0  0  0  0  0  0  0  0  0
   -2.0798    1.0250   -3.6931 H   0  0  0  0  0  0  0  0  0  0  0  0
    0.0614    0.1002    0.9735 C   0  0  0  0  0  3  0  0  0  0  0  0
    0.5366   -0.9382   -0.0328 C   0  0  0  0  0  0  0  0  0  0  0  0
    1.5169   -1.7755    0.5497 O   0  0  0  0  0  0  0  0  0  0  0  0
    2.5888   -1.0312    1.0432 C   0  0  0  0  0  0  0  0  0  0  0  0
    2.2126   -0.1295    2.0391 O   0  0  0  0  0  0  0  0  0  0  0  0
    1.2764    0.8121    1.5509 C   0  0  0  0  0  0  0  0  0  0  0  0
   -0.4843   -0.3970    1.7778 H   0  0  0  0  0  0  0  0  0  0  0  0
   -0.2739   -1.5867   -0.3625 H   0  0  0  0  0  0  0  0  0  0  0  0
    0.9594   -0.4389   -0.9181 H   0  0  0  0  0  0  0  0  0  0  0  0
    3.0679   -0.4817    0.2121 H   0  0  0  0  0  0  0  0  0  0  0  0
    3.2908   -1.7319    1.4896 H   0  0  0  0  0  0  0  0  0  0  0  0
    1.7513    1.4346    0.7770 H   0  0  0  0  0  0  0  0  0  0  0  0
    1.0116    1.4547    2.3895 H   0  0  0  0  0  0  0  0  0  0  0  0
  1  2  1  0
  1  5  1  0
  1  6  1  0
  1  7  1  0
  2  3  1  0
  3  4  2  3
  4  8  1  0
  4  9  1  0
 10 11  1  0
 10 15  1  0
 10 16  1  0
 11 12  1  0
 11 17  1  0
 11 18  1  0
 12 13  1  0
 13 14  1  0
 13 19  1  0
 13 20  1  0
 14 15  1  0
 15 21  1  0
 15 22  1  0
M  RAD  1  10   2
M  END
>  <reaction>  (19) 
rmg_rxn_15614

>  <mol_properties>  (19) 
{"0": {"label": "*1", "atom_type": "Cs"}, "1": {"label": "*0", "atom_type": "O2s"}, "4": {"label": "*2", "atom_type": "H0"}, "9": {"label": "*3", "atom_type": "Cs"}, "10": {"label": "*4", "atom_type": "Cs"}}

>  <type>  (19) 
unop_15

>  <geom_source>  (19) 
Heuristics

$$$$

     RDKit          3D

 22 21  0  0  0  0  0  0  0  0999 V2000
   -1.8305    0.5647   -0.4493 C   0  0  0  0  0  0  0  0  0  0  0  0
   -1.8305    0.6226   -1.8622 O   0  0  0  0  0  0  0  0  0  0  0  0
   -1.8305   -0.6513   -2.3779 N   0  0  0  0  0  0  0  0  0  0  0  0
   -1.8305   -0.6513   -3.6415 C   0  0  0  0  0  0  0  0  0  0  0  0
   -0.7599   -0.0475   -0.0052 H   0  0  0  0  0  0  0  0  0  0  0  0
   -2.7226    0.0545   -0.0792 H   0  0  0  0  0  0  0  0  0  0  0  0
   -1.8305    1.5996   -0.1115 H   0  0  0  0  0  0  0  0  0  0  0  0
   -1.8305   -1.6184   -4.1264 H   0  0  0  0  0  0  0  0  0  0  0  0
   -1.8305    0.2652   -4.2277 H   0  0  0  0  0  0  0  0  0  0  0  0
    0.3107   -0.6597    0.4389 C   0  0  0  0  0  3  0  0  0  0  0  0
    1.5670    0.0747   -0.0069 C   0  0  0  0  0  0  0  0  0  0  0  0
    2.5382    0.0576    1.0217 O   0  0  0  0  0  0  0  0  0  0  0  0
    2.0335    0.6030    2.2025 C   0  0  0  0  0  0  0  0  0  0  0  0
    0.9347   -0.0982    2.6998 O   0  0  0  0  0  0  0  0  0  0  0  0
   -0.1381   -0.0910    1.7775 C   0  0  0  0  0  0  0  0  0  0  0  0
    0.5324   -1.7226    0.5521 H   0  0  0  0  0  0  0  0  0  0  0  0
    2.0246   -0.3925   -0.8778 H   0  0  0  0  0  0  0  0  0  0  0  0
    1.3230    1.1169   -0.2639 H   0  0  0  0  0  0  0  0  0  0  0  0
    1.7483    1.6567    2.0278 H   0  0  0  0  0  0  0  0  0  0  0  0
    2.8215    0.5417    2.9497 H   0  0  0  0  0  0  0  0  0  0  0  0
   -0.5021    0.9395    1.6460 H   0  0  0  0  0  0  0  0  0  0  0  0
   -0.9383   -0.6805    2.2228 H   0  0  0  0  0  0  0  0  0  0  0  0
  1  2  1  0
  1  5  1  0
  1  6  1  0
  1  7  1  0
  2  3  1  0
  3  4  2  3
  4  8  1  0
  4  9  1  0
 10 11  1  0
 10 15  1  0
 10 16  1  0
 11 12  1  0
 11 17  1  0
 11 18  1  0
 12 13  1  0
 13 14  1  0
 13 19  1  0
 13 20  1  0
 14 15  1  0
 15 21  1  0
 15 22  1  0
M  RAD  1  10   2
M  END
>  <reaction>  (20) 
rmg_rxn_15614

>  <mol_properties>  (20) 
{"0": {"label": "*1", "atom_type": "Cs"}, "1": {"label": "*0", "atom_type": "O2s"}, "4": {"label": "*2", "atom_type": "H0"}, "9": {"label": "*3", "atom_type": "Cs"}, "10": {"label": "*4", "atom_type": "Cs"}}

>  <type>  (20) 
unop_16

>  <geom_source>  (20) 
Heuristics

$$$$

     RDKit          3D

 22 21  0  0  0  0  0  0  0  0999 V2000
   -1.8632    1.4741   -0.2958 C   0  0  0  0  0  0  0  0  0  0  0  0
   -1.8632    1.5320   -1.7086 O   0  0  0  0  0  0  0  0  0  0  0  0
   -1.8632    0.2581   -2.2244 N   0  0  0  0  0  0  0  0  0  0  0  0
   -1.8632    0.2581   -3.4880 C   0  0  0  0  0  0  0  0  0  0  0  0
   -0.7926    0.8619    0.1484 H   0  0  0  0  0  0  0  0  0  0  0  0
   -2.7553    0.9639    0.0744 H   0  0  0  0  0  0  0  0  0  0  0  0
   -1.8632    2.5090    0.0420 H   0  0  0  0  0  0  0  0  0  0  0  0
   -1.8632   -0.7089   -3.9728 H   0  0  0  0  0  0  0  0  0  0  0  0
   -1.8632    1.1746   -4.0742 H   0  0  0  0  0  0  0  0  0  0  0  0
    0.2780    0.2497    0.5925 C   0  0  0  0  0  3  0  0  0  0  0  0
   -0.0194   -0.4551    1.9083 C   0  0  0  0  0  0  0  0  0  0  0  0
    1.1772   -0.6749    2.6302 O   0  0  0  0  0  0  0  0  0  0  0  0
    2.0985   -1.3989    1.8731 C   0  0  0  0  0  0  0  0  0  0  0  0
    2.4727   -0.7441    0.6993 O   0  0  0  0  0  0  0  0  0  0  0  0
    1.3582   -0.5287   -0.1449 C   0  0  0  0  0  0  0  0  0  0  0  0
    0.6341    1.2617    0.7951 H   0  0  0  0  0  0  0  0  0  0  0  0
   -0.6686    0.1384    2.5506 H   0  0  0  0  0  0  0  0  0  0  0  0
   -0.5143   -1.4194    1.7157 H   0  0  0  0  0  0  0  0  0  0  0  0
    1.6717   -2.3874    1.6222 H   0  0  0  0  0  0  0  0  0  0  0  0
    2.9947   -1.5149    2.4785 H   0  0  0  0  0  0  0  0  0  0  0  0
    0.9602   -1.4982   -0.4820 H   0  0  0  0  0  0  0  0  0  0  0  0
    1.7252    0.0105   -1.0172 H   0  0  0  0  0  0  0  0  0  0  0  0
  1  2  1  0
  1  5  1  0
  1  6  1  0
  1  7  1  0
  2  3  1  0
  3  4  2  3
  4  8  1  0
  4  9  1  0
 10 11  1  0
 10 15  1  0
 10 16  1  0
 11 12  1  0
 11 17  1  0
 11 18  1  0
 12 13  1  0
 13 14  1  0
 13 19  1  0
 13 20  1  0
 14 15  1  0
 15 21  1  0
 15 22  1  0
M  RAD  1  10   2
M  END
>  <reaction>  (21) 
rmg_rxn_15614

>  <mol_properties>  (21) 
{"0": {"label": "*1", "atom_type": "Cs"}, "1": {"label": "*0", "atom_type": "O2s"}, "4": {"label": "*2", "atom_type": "H0"}, "9": {"label": "*3", "atom_type": "Cs"}, "10": {"label": "*4", "atom_type": "Cs"}}

>  <type>  (21) 
unop_17

>  <geom_source>  (21) 
Heuristics

$$$$

     RDKit          3D

 22 21  0  0  0  0  0  0  0  0999 V2000
   -2.1587    0.9814    0.0684 C   0  0  0  0  0  0  0  0  0  0  0  0
   -2.1587    1.0393   -1.3445 O   0  0  0  0  0  0  0  0  0  0  0  0
   -2.1587   -0.2346   -1.8602 N   0  0  0  0  0  0  0  0  0  0  0  0
   -2.1587   -0.2346   -3.1239 C   0  0  0  0  0  0  0  0  0  0  0  0
   -1.0881    0.3692    0.5125 H   0  0  0  0  0  0  0  0  0  0  0  0
   -3.0508    0.4712    0.4385 H   0  0  0  0  0  0  0  0  0  0  0  0
   -2.1587    2.0163    0.4062 H   0  0  0  0  0  0  0  0  0  0  0  0
   -2.1587   -1.2017   -3.6087 H   0  0  0  0  0  0  0  0  0  0  0  0
   -2.1587    0.6819   -3.7100 H   0  0  0  0  0  0  0  0  0  0  0  0
   -0.0175   -0.2430    0.9566 C   0  0  0  0  0  3  0  0  0  0  0  0
    0.8631   -0.6840   -0.2038 C   0  0  0  0  0  0  0  0  0  0  0  0
    2.0843   -1.2113    0.2780 O   0  0  0  0  0  0  0  0  0  0  0  0
    2.7490   -0.2891    1.0868 C   0  0  0  0  0  0  0  0  0  0  0  0
    2.0145    0.0729    2.2164 O   0  0  0  0  0  0  0  0  0  0  0  0
    0.7889    0.6815    1.8575 C   0  0  0  0  0  0  0  0  0  0  0  0
   -0.3338   -1.1193    1.5258 H   0  0  0  0  0  0  0  0  0  0  0  0
    0.3944   -1.4692   -0.7954 H   0  0  0  0  0  0  0  0  0  0  0  0
    1.0684    0.1704   -0.8669 H   0  0  0  0  0  0  0  0  0  0  0  0
    2.9839    0.6154    0.4961 H   0  0  0  0  0  0  0  0  0  0  0  0
    3.6638   -0.7639    1.4343 H   0  0  0  0  0  0  0  0  0  0  0  0
    0.9890    1.6320    1.3394 H   0  0  0  0  0  0  0  0  0  0  0  0
    0.2654    0.9037    2.7863 H   0  0  0  0  0  0  0  0  0  0  0  0
  1  2  1  0
  1  5  1  0
  1  6  1  0
  1  7  1  0
  2  3  1  0
  3  4  2  3
  4  8  1  0
  4  9  1  0
 10 11  1  0
 10 15  1  0
 10 16  1  0
 11 12  1  0
 11 17  1  0
 11 18  1  0
 12 13  1  0
 13 14  1  0
 13 19  1  0
 13 20  1  0
 14 15  1  0
 15 21  1  0
 15 22  1  0
M  RAD  1  10   2
M  END
>  <reaction>  (22) 
rmg_rxn_15614

>  <mol_properties>  (22) 
{"0": {"label": "*1", "atom_type": "Cs"}, "1": {"label": "*0", "atom_type": "O2s"}, "4": {"label": "*2", "atom_type": "H0"}, "9": {"label": "*3", "atom_type": "Cs"}, "10": {"label": "*4", "atom_type": "Cs"}}

>  <type>  (22) 
unop_18

>  <geom_source>  (22) 
Heuristics

$$$$

     RDKit          3D

 22 21  0  0  0  0  0  0  0  0999 V2000
   -2.8443    0.5989   -0.9677 O   0  0  0  0  0  0  0  0  0  0  0  0
   -1.9285    1.7593    0.8352 O   0  0  0  0  0  0  0  0  0  0  0  0
    2.6606   -1.0090   -0.6062 O   0  0  0  0  0  0  0  0  0  0  0  0
    3.1937   -0.0413    0.2135 N   0  0  0  0  0  0  0  0  0  0  0  0
   -0.5990    0.0508   -0.2480 C   0  0  0  0  0  0  0  0  0  0  0  0
   -1.9026   -0.4499   -0.8670 C   0  0  0  0  0  0  0  0  0  0  0  0
   -0.9285    0.7843    1.0507 C   0  0  0  0  0  0  0  0  0  0  0  0
   -3.0898    1.1349    0.3194 C   0  0  0  0  0  0  0  0  0  0  0  0
    1.3927   -1.5697   -0.3146 C   0  0  0  0  0  3  0  0  0  0  0  0
    4.3498    0.4740   -0.0455 C   0  0  0  0  0  0  0  0  0  0  0  0
   -0.0968    0.7491   -0.9525 H   0  0  0  0  0  0  0  0  0  0  0  0
    0.2056   -0.9676   -0.0013 H   0  0  0  0  0  0  0  0  0  0  0  0
   -2.3164   -1.2951   -0.2713 H   0  0  0  0  0  0  0  0  0  0  0  0
   -1.6894   -0.8375   -1.8852 H   0  0  0  0  0  0  0  0  0  0  0  0
   -0.0110    1.2891    1.4191 H   0  0  0  0  0  0  0  0  0  0  0  0
   -1.2461    0.0611    1.8359 H   0  0  0  0  0  0  0  0  0  0  0  0
   -3.8794    1.9081    0.2229 H   0  0  0  0  0  0  0  0  0  0  0  0
   -3.4920    0.3642    1.0197 H   0  0  0  0  0  0  0  0  0  0  0  0
    1.4321   -2.1006    0.6596 H   0  0  0  0  0  0  0  0  0  0  0  0
    1.1155   -2.2890   -1.1124 H   0  0  0  0  0  0  0  0  0  0  0  0
    4.7582    1.2339    0.6064 H   0  0  0  0  0  0  0  0  0  0  0  0
    4.9156    0.1519   -0.9107 H   0  0  0  0  0  0  0  0  0  0  0  0
  1  6  1  0
  1  8  1  0
  2  7  1  0
  2  8  1  0
  3  9  1  0
  3  4  1  0
  4 10  2  3
  5  6  1  0
  5  7  1  0
  5 11  1  0
  5 12  1  0
  6 13  1  0
  6 14  1  0
  7 15  1  0
  7 16  1  0
  8 17  1  0
  8 18  1  0
  9 19  1  0
  9 20  1  0
 10 21  1  0
 10 22  1  0
M  RAD  1   9   2
M  END
>  <reaction>  (23) 
rmg_rxn_15614

>  <mol_properties>  (23) 
{"0": {"label": "*1", "atom_type": "Cs"}, "1": {"label": "*0", "atom_type": "O2s"}, "4": {"label": "*2", "atom_type": "H0"}, "9": {"label": "*3", "atom_type": "Cs"}, "10": {"label": "*4", "atom_type": "Cs"}}

>  <type>  (23) 
unop_19

>  <geom_source>  (23) 
AutoTST

$$$$

     RDKit          3D

 22 21  0  0  0  0  0  0  0  0999 V2000
   -2.0684    0.6670   -0.1476 C   0  0  0  0  0  0  0  0  0  0  0  0
   -2.0685    0.7249   -1.5605 O   0  0  0  0  0  0  0  0  0  0  0  0
   -2.0685   -0.5490   -2.0762 N   0  0  0  0  0  0  0  0  0  0  0  0
   -2.0685   -0.5490   -3.3399 C   0  0  0  0  0  0  0  0  0  0  0  0
   -0.9979    0.0548    0.2965 H   0  0  0  0  0  0  0  0  0  0  0  0
   -2.9606    0.1568    0.2225 H   0  0  0  0  0  0  0  0  0  0  0  0
   -2.0685    1.7019    0.1902 H   0  0  0  0  0  0  0  0  0  0  0  0
   -2.0685   -1.5161   -3.8247 H   0  0  0  0  0  0  0  0  0  0  0  0
   -2.0685    0.3675   -3.9260 H   0  0  0  0  0  0  0  0  0  0  0  0
    0.0727   -0.5574    0.7406 C   0  0  0  0  0  3  0  0  0  0  0  0
    1.2393   -0.3496   -0.2146 C   0  0  0  0  0  0  0  0  0  0  0  0
    2.4684   -0.4917    0.4714 O   0  0  0  0  0  0  0  0  0  0  0  0
    2.5473    0.3848    1.5540 C   0  0  0  0  0  0  0  0  0  0  0  0
    1.5494    0.1671    2.5044 O   0  0  0  0  0  0  0  0  0  0  0  0
    0.2621    0.3509    1.9472 C   0  0  0  0  0  0  0  0  0  0  0  0
    0.0537   -1.5983    1.0693 H   0  0  0  0  0  0  0  0  0  0  0  0
    1.2427   -1.0836   -1.0192 H   0  0  0  0  0  0  0  0  0  0  0  0
    1.1839    0.6537   -0.6643 H   0  0  0  0  0  0  0  0  0  0  0  0
    2.4855    1.4263    1.1886 H   0  0  0  0  0  0  0  0  0  0  0  0
    3.5031    0.2099    2.0427 H   0  0  0  0  0  0  0  0  0  0  0  0
    0.1379    1.4034    1.6495 H   0  0  0  0  0  0  0  0  0  0  0  0
   -0.4554    0.1336    2.7372 H   0  0  0  0  0  0  0  0  0  0  0  0
  1  2  1  0
  1  5  1  0
  1  6  1  0
  1  7  1  0
  2  3  1  0
  3  4  2  3
  4  8  1  0
  4  9  1  0
 10 11  1  0
 10 15  1  0
 10 16  1  0
 11 12  1  0
 11 17  1  0
 11 18  1  0
 12 13  1  0
 13 14  1  0
 13 19  1  0
 13 20  1  0
 14 15  1  0
 15 21  1  0
 15 22  1  0
M  RAD  1  10   2
M  END
>  <reaction>  (24) 
rmg_rxn_15614

>  <mol_properties>  (24) 
{"0": {"label": "*1", "atom_type": "Cs"}, "1": {"label": "*0", "atom_type": "O2s"}, "4": {"label": "*2", "atom_type": "H0"}, "9": {"label": "*3", "atom_type": "Cs"}, "10": {"label": "*4", "atom_type": "Cs"}}

>  <type>  (24) 
unop_20

>  <geom_source>  (24) 
gaussian_log

$$$$
