
     RDKit          3D

  8  7  0  0  0  0  0  0  0  0999 V2000
    0.9548    0.1194   -0.0790 C   0  0  0  0  0  0  0  0  0  0  0  0
   -0.4838   -0.2649    0.0193 C   0  0  0  0  0  0  0  0  0  0  0  0
   -0.8933   -1.1081    0.8664 N   0  0  0  0  0  0  0  0  0  0  0  0
    1.3360   -0.0983   -1.0800 H   0  0  0  0  0  0  0  0  0  0  0  0
    1.0698    1.1948    0.0786 H   0  0  0  0  0  0  0  0  0  0  0  0
    1.5426   -0.4219    0.6602 H   0  0  0  0  0  0  0  0  0  0  0  0
   -1.1575    0.2324   -0.6905 H   0  0  0  0  0  0  0  0  0  0  0  0
   -1.8989   -1.2455    0.7886 H   0  0  0  0  0  0  0  0  0  0  0  0
  1  2  1  0
  1  4  1  0
  1  5  1  0
  1  6  1  0
  2  3  2  3
  2  7  1  0
  3  8  1  0
M  END
>  <reaction>  (1) 
rmg_rxn_16463

>  <mol_properties>  (1) 
{"2": {"label": "donator", "atom_type": "N3d"}, "7": {"label": "d_hydrogen", "atom_type": "H0"}}

>  <type>  (1) 
r1h

$$$$

     RDKit          3D

 17 16  0  0  0  0  0  0  0  0999 V2000
   -2.5795    0.1959    0.4034 C   0  0  0  0  0  0  0  0  0  0  0  0
   -1.5336    0.7406   -0.5804 C   0  0  0  0  0  0  0  0  0  0  0  0
   -0.1611    0.2303   -0.3387 C   0  0  0  0  0  3  0  0  0  0  0  0
    0.0150   -1.0861   -0.6052 O   0  0  0  0  0  0  0  0  0  0  0  0
    1.2861   -1.6127   -0.2717 C   0  0  0  0  0  0  0  0  0  0  0  0
    1.3024   -3.0858   -0.6020 C   0  0  0  0  0  0  0  0  0  0  0  0
   -2.3313    0.4751    1.4294 H   0  0  0  0  0  0  0  0  0  0  0  0
   -3.5721    0.5891    0.1750 H   0  0  0  0  0  0  0  0  0  0  0  0
   -2.6226   -0.8925    0.3503 H   0  0  0  0  0  0  0  0  0  0  0  0
   -1.8345    0.4824   -1.6005 H   0  0  0  0  0  0  0  0  0  0  0  0
   -1.5087    1.8312   -0.5230 H   0  0  0  0  0  0  0  0  0  0  0  0
    0.4638    0.6500    0.4483 H   0  0  0  0  0  0  0  0  0  0  0  0
    2.0583   -1.0760   -0.8340 H   0  0  0  0  0  0  0  0  0  0  0  0
    1.4751   -1.4511    0.7969 H   0  0  0  0  0  0  0  0  0  0  0  0
    1.1179   -3.2427   -1.6651 H   0  0  0  0  0  0  0  0  0  0  0  0
    2.2746   -3.5135   -0.3525 H   0  0  0  0  0  0  0  0  0  0  0  0
    0.5355   -3.6159   -0.0363 H   0  0  0  0  0  0  0  0  0  0  0  0
  1  2  1  0
  1  7  1  0
  1  8  1  0
  1  9  1  0
  2  3  1  0
  2 10  1  0
  2 11  1  0
  3  4  1  0
  3 12  1  0
  4  5  1  0
  5  6  1  0
  5 13  1  0
  5 14  1  0
  6 15  1  0
  6 16  1  0
  6 17  1  0
M  RAD  1   3   2
M  END
>  <reaction>  (2) 
rmg_rxn_16463

>  <mol_properties>  (2) 
{"2": {"label": "acceptor", "atom_type": "Cs"}}

>  <type>  (2) 
r2

$$$$

     RDKit          3D

 18 17  0  0  0  0  0  0  0  0999 V2000
    2.2026   -0.7213   -0.2612 C   0  0  0  0  0  0  0  0  0  0  0  0
    1.5384    0.2638    0.6915 C   0  0  0  0  0  0  0  0  0  0  0  0
    2.2584    1.5946    0.7694 C   0  0  0  0  0  0  0  0  0  0  0  0
    2.2212    2.2185   -0.4893 O   0  0  0  0  0  0  0  0  0  0  0  0
    2.8988    3.4488   -0.5204 C   0  0  0  0  0  0  0  0  0  0  0  0
    2.7981    4.0296   -1.9118 C   0  0  0  0  0  0  0  0  0  0  0  0
    3.2294   -0.9309    0.0486 H   0  0  0  0  0  0  0  0  0  0  0  0
    2.2338   -0.3181   -1.2734 H   0  0  0  0  0  0  0  0  0  0  0  0
    1.6610   -1.6680   -0.2875 H   0  0  0  0  0  0  0  0  0  0  0  0
    1.4990   -0.1566    1.7002 H   0  0  0  0  0  0  0  0  0  0  0  0
    0.5055    0.4455    0.3835 H   0  0  0  0  0  0  0  0  0  0  0  0
    3.3038    1.4410    1.0808 H   0  0  0  0  0  0  0  0  0  0  0  0
    1.7844    2.2410    1.5226 H   0  0  0  0  0  0  0  0  0  0  0  0
    2.4596    4.1376    0.2164 H   0  0  0  0  0  0  0  0  0  0  0  0
    3.9524    3.3035   -0.2397 H   0  0  0  0  0  0  0  0  0  0  0  0
    1.7543    4.1869   -2.1856 H   0  0  0  0  0  0  0  0  0  0  0  0
    3.2472    3.3545   -2.6411 H   0  0  0  0  0  0  0  0  0  0  0  0
    3.3178    4.9878   -1.9600 H   0  0  0  0  0  0  0  0  0  0  0  0
  1  2  1  0
  1  7  1  0
  1  8  1  0
  1  9  1  0
  2  3  1  0
  2 10  1  0
  2 11  1  0
  3  4  1  0
  3 12  1  0
  3 13  1  0
  4  5  1  0
  5  6  1  0
  5 14  1  0
  5 15  1  0
  6 16  1  0
  6 17  1  0
  6 18  1  0
M  END
>  <reaction>  (3) 
rmg_rxn_16463

>  <mol_properties>  (3) 
{"0": {"label": "a_hydrogen", "atom_type": "H0"}, "3": {"label": "acceptor", "atom_type": "Cs"}}

>  <type>  (3) 
r2h

$$$$

     RDKit          3D

 25 23  0  0  0  0  0  0  0  0999 V2000
   -0.3393   -0.4527   -3.3643 C   0  0  0  0  0  0  0  0  0  0  0  0
    0.0392   -0.1332   -1.9484 C   0  0  0  0  0  0  0  0  0  0  0  0
    0.8823    0.7486   -1.6517 N   0  0  0  0  0  0  0  0  0  0  0  0
   -0.1258   -1.5028   -3.5781 H   0  0  0  0  0  0  0  0  0  0  0  0
   -1.4128   -0.3059   -3.5060 H   0  0  0  0  0  0  0  0  0  0  0  0
    0.2086    0.1783   -4.0616 H   0  0  0  0  0  0  0  0  0  0  0  0
   -0.4667   -0.7236   -1.1689 H   0  0  0  0  0  0  0  0  0  0  0  0
    0.9583    0.7597   -0.3793 H   0  0  0  0  0  0  0  0  0  0  0  0
    1.9241   -1.6991    0.7605 C   0  0  0  0  0  0  0  0  0  0  0  0
    1.9808   -0.3085    1.3827 C   0  0  0  0  0  0  0  0  0  0  0  0
    0.8609    0.5986    0.9518 C   0  0  0  0  0  3  0  0  0  0  0  0
   -0.3784    0.0581    1.2230 O   0  0  0  0  0  0  0  0  0  0  0  0
   -1.4549    0.9659    1.0822 C   0  0  0  0  0  0  0  0  0  0  0  0
   -2.7501    0.2168    1.2829 C   0  0  0  0  0  0  0  0  0  0  0  0
    2.0090   -1.6418   -0.3257 H   0  0  0  0  0  0  0  0  0  0  0  0
    2.7408   -2.3200    1.1309 H   0  0  0  0  0  0  0  0  0  0  0  0
    0.9841   -2.1956    1.0030 H   0  0  0  0  0  0  0  0  0  0  0  0
    1.9640   -0.3932    2.4757 H   0  0  0  0  0  0  0  0  0  0  0  0
    2.9213    0.1817    1.1201 H   0  0  0  0  0  0  0  0  0  0  0  0
    0.9569    1.6295    1.3142 H   0  0  0  0  0  0  0  0  0  0  0  0
   -1.3485    1.7694    1.8221 H   0  0  0  0  0  0  0  0  0  0  0  0
   -1.4192    1.4250    0.0874 H   0  0  0  0  0  0  0  0  0  0  0  0
   -2.7777   -0.2472    2.2693 H   0  0  0  0  0  0  0  0  0  0  0  0
   -3.5955    0.9009    1.1975 H   0  0  0  0  0  0  0  0  0  0  0  0
   -2.8620   -0.5657    0.5311 H   0  0  0  0  0  0  0  0  0  0  0  0
  1  2  1  0
  1  4  1  0
  1  5  1  0
  1  6  1  0
  2  3  2  3
  2  7  1  0
  3  8  1  0
  9 10  1  0
  9 15  1  0
  9 16  1  0
  9 17  1  0
 10 11  1  0
 10 18  1  0
 10 19  1  0
 11 12  1  0
 11 20  1  0
 12 13  1  0
 13 14  1  0
 13 21  1  0
 13 22  1  0
 14 23  1  0
 14 24  1  0
 14 25  1  0
M  RAD  1  11   2
M  END
>  <reaction>  (4) 
rmg_rxn_16463

>  <mol_properties>  (4) 
{"1": {"label": "*0", "atom_type": "Cd"}, "2": {"label": "*1", "atom_type": "N3d"}, "7": {"label": "*2", "atom_type": "H0"}, "10": {"label": "*3", "atom_type": "Cs"}, "11": {"label": "*4", "atom_type": "O2s"}}

>  <type>  (4) 
ts

$$$$

     RDKit          3D

 25 23  0  0  0  0  0  0  0  0999 V2000
   -3.5126    0.1399    0.3143 C   0  0  0  0  0  0  0  0  0  0  0  0
   -2.0222   -0.0123    0.3055 C   0  0  0  0  0  0  0  0  0  0  0  0
   -1.3787   -0.2524   -0.7292 N   0  0  0  0  0  0  0  0  0  0  0  0
   -3.9485   -0.6010    0.9829 H   0  0  0  0  0  0  0  0  0  0  0  0
   -3.7742    1.1292    0.6869 H   0  0  0  0  0  0  0  0  0  0  0  0
   -3.9115    0.0087   -0.6877 H   0  0  0  0  0  0  0  0  0  0  0  0
   -1.5569    0.1115    1.2962 H   0  0  0  0  0  0  0  0  0  0  0  0
   -0.1631   -0.3426   -0.5411 H   0  0  0  0  0  0  0  0  0  0  0  0
    0.8185   -2.9011   -0.4096 C   0  0  0  0  0  0  0  0  0  0  0  0
    1.2933   -1.7557    0.4754 C   0  0  0  0  0  0  0  0  0  0  0  0
    1.1239   -0.4179   -0.2090 C   0  0  0  0  0  3  0  0  0  0  0  0
    1.4275    0.6322    0.6513 O   0  0  0  0  0  0  0  0  0  0  0  0
    1.6935    1.8762    0.0462 C   0  0  0  0  0  0  0  0  0  0  0  0
    0.4413    2.5850   -0.4652 C   0  0  0  0  0  0  0  0  0  0  0  0
   -0.2286   -2.7677   -0.6699 H   0  0  0  0  0  0  0  0  0  0  0  0
    1.3968   -2.9370   -1.3299 H   0  0  0  0  0  0  0  0  0  0  0  0
    0.9326   -3.8509    0.1067 H   0  0  0  0  0  0  0  0  0  0  0  0
    0.7290   -1.7423    1.4102 H   0  0  0  0  0  0  0  0  0  0  0  0
    2.3482   -1.9011    0.7361 H   0  0  0  0  0  0  0  0  0  0  0  0
    1.6509   -0.3452   -1.1665 H   0  0  0  0  0  0  0  0  0  0  0  0
    2.1683    2.4747    0.8290 H   0  0  0  0  0  0  0  0  0  0  0  0
    2.4075    1.7443   -0.7803 H   0  0  0  0  0  0  0  0  0  0  0  0
   -0.0434    1.9975   -1.2410 H   0  0  0  0  0  0  0  0  0  0  0  0
   -0.2638    2.7292    0.3496 H   0  0  0  0  0  0  0  0  0  0  0  0
    0.7143    3.5546   -0.8724 H   0  0  0  0  0  0  0  0  0  0  0  0
  1  2  1  0
  1  4  1  0
  1  5  1  0
  1  6  1  0
  2  3  2  3
  2  7  1  0
  3  8  1  0
  9 10  1  0
  9 15  1  0
  9 16  1  0
  9 17  1  0
 10 11  1  0
 10 18  1  0
 10 19  1  0
 11 12  1  0
 11 20  1  0
 12 13  1  0
 13 14  1  0
 13 21  1  0
 13 22  1  0
 14 23  1  0
 14 24  1  0
 14 25  1  0
M  RAD  1  11   2
M  END
>  <reaction>  (5) 
rmg_rxn_16463

>  <mol_properties>  (5) 
{"1": {"label": "*0", "atom_type": "Cd"}, "2": {"label": "*1", "atom_type": "N3d"}, "7": {"label": "*2", "atom_type": "H0"}, "10": {"label": "*3", "atom_type": "Cs"}, "11": {"label": "*4", "atom_type": "O2s"}}

>  <type>  (5) 
unop_1

>  <geom_source>  (5) 
crest_best.xyz

$$$$

     RDKit          3D

 25 23  0  0  0  0  0  0  0  0999 V2000
    0.0864    0.0769   -3.9638 C   0  0  0  0  0  0  0  0  0  0  0  0
    0.0864    0.0769   -2.4714 C   0  0  0  0  0  0  0  0  0  0  0  0
    0.0864    1.1496   -1.8038 N   0  0  0  0  0  0  0  0  0  0  0  0
    0.9647   -0.4531   -4.3412 H   0  0  0  0  0  0  0  0  0  0  0  0
   -0.7918   -0.4531   -4.3412 H   0  0  0  0  0  0  0  0  0  0  0  0
    0.0864    1.0976   -4.3424 H   0  0  0  0  0  0  0  0  0  0  0  0
    0.0864   -0.9128   -1.9968 H   0  0  0  0  0  0  0  0  0  0  0  0
    0.0864    0.9194   -0.6042 H   0  0  0  0  0  0  0  0  0  0  0  0
    2.4531    0.2696    1.5105 C   0  0  0  0  0  0  0  0  0  0  0  0
    1.3188    1.2711    1.3386 C   0  0  0  0  0  0  0  0  0  0  0  0
    0.0864    0.6703    0.6940 C   0  0  0  0  0  3  0  0  0  0  0  0
   -0.4331   -0.3338    1.5288 O   0  0  0  0  0  0  0  0  0  0  0  0
   -1.5626   -0.9739    0.9921 C   0  0  0  0  0  0  0  0  0  0  0  0
   -2.0367   -2.0295    1.9640 C   0  0  0  0  0  0  0  0  0  0  0  0
    2.7634   -0.1372    0.5447 H   0  0  0  0  0  0  0  0  0  0  0  0
    3.3239    0.7379    1.9717 H   0  0  0  0  0  0  0  0  0  0  0  0
    2.1405   -0.5635    2.1400 H   0  0  0  0  0  0  0  0  0  0  0  0
    1.0353    1.6872    2.3088 H   0  0  0  0  0  0  0  0  0  0  0  0
    1.6478    2.1094    0.7182 H   0  0  0  0  0  0  0  0  0  0  0  0
   -0.6730    1.4478    0.5251 H   0  0  0  0  0  0  0  0  0  0  0  0
   -2.3584   -0.2373    0.8063 H   0  0  0  0  0  0  0  0  0  0  0  0
   -1.3103   -1.4290    0.0230 H   0  0  0  0  0  0  0  0  0  0  0  0
   -2.3003   -1.5773    2.9207 H   0  0  0  0  0  0  0  0  0  0  0  0
   -2.9155   -2.5407    1.5678 H   0  0  0  0  0  0  0  0  0  0  0  0
   -1.2539   -2.7689    2.1369 H   0  0  0  0  0  0  0  0  0  0  0  0
  1  2  1  0
  1  4  1  0
  1  5  1  0
  1  6  1  0
  2  3  2  3
  2  7  1  0
  3  8  1  0
  9 10  1  0
  9 15  1  0
  9 16  1  0
  9 17  1  0
 10 11  1  0
 10 18  1  0
 10 19  1  0
 11 12  1  0
 11 20  1  0
 12 13  1  0
 13 14  1  0
 13 21  1  0
 13 22  1  0
 14 23  1  0
 14 24  1  0
 14 25  1  0
M  RAD  1  11   2
M  END
>  <reaction>  (6) 
rmg_rxn_16463

>  <mol_properties>  (6) 
{"1": {"label": "*0", "atom_type": "Cd"}, "2": {"label": "*1", "atom_type": "N3d"}, "7": {"label": "*2", "atom_type": "H0"}, "10": {"label": "*3", "atom_type": "Cs"}, "11": {"label": "*4", "atom_type": "O2s"}}

>  <type>  (6) 
unop_2

>  <geom_source>  (6) 
Heuristics

$$$$

     RDKit          3D

 25 23  0  0  0  0  0  0  0  0999 V2000
    0.6346   -0.3751   -3.8793 C   0  0  0  0  0  0  0  0  0  0  0  0
    0.6346   -0.3751   -2.3869 C   0  0  0  0  0  0  0  0  0  0  0  0
    0.6346    0.6975   -1.7192 N   0  0  0  0  0  0  0  0  0  0  0  0
    1.5128   -0.9051   -4.2567 H   0  0  0  0  0  0  0  0  0  0  0  0
   -0.2437   -0.9051   -4.2567 H   0  0  0  0  0  0  0  0  0  0  0  0
    0.6346    0.6455   -4.2578 H   0  0  0  0  0  0  0  0  0  0  0  0
    0.6346   -1.3648   -1.9123 H   0  0  0  0  0  0  0  0  0  0  0  0
    0.6346    0.4674   -0.5196 H   0  0  0  0  0  0  0  0  0  0  0  0
    0.5118   -2.3129    0.6996 C   0  0  0  0  0  0  0  0  0  0  0  0
    1.3461   -1.0900    1.0568 C   0  0  0  0  0  0  0  0  0  0  0  0
    0.6346    0.2183    0.7785 C   0  0  0  0  0  3  0  0  0  0  0  0
   -0.5115    0.3062    1.5871 O   0  0  0  0  0  0  0  0  0  0  0  0
   -1.2569    1.4770    1.3698 C   0  0  0  0  0  0  0  0  0  0  0  0
   -2.4603    1.4695    2.2838 C   0  0  0  0  0  0  0  0  0  0  0  0
    0.2510   -2.3102   -0.3617 H   0  0  0  0  0  0  0  0  0  0  0  0
    1.0570   -3.2347    0.9078 H   0  0  0  0  0  0  0  0  0  0  0  0
   -0.4154   -2.3284    1.2723 H   0  0  0  0  0  0  0  0  0  0  0  0
    1.6196   -1.1183    2.1147 H   0  0  0  0  0  0  0  0  0  0  0  0
    2.2800   -1.0924    0.4879 H   0  0  0  0  0  0  0  0  0  0  0  0
    1.3036    1.0671    0.9827 H   0  0  0  0  0  0  0  0  0  0  0  0
   -0.6319    2.3612    1.5644 H   0  0  0  0  0  0  0  0  0  0  0  0
   -1.5735    1.5298    0.3177 H   0  0  0  0  0  0  0  0  0  0  0  0
   -2.1470    1.4312    3.3277 H   0  0  0  0  0  0  0  0  0  0  0  0
   -3.0553    2.3716    2.1329 H   0  0  0  0  0  0  0  0  0  0  0  0
   -3.0887    0.6016    2.0811 H   0  0  0  0  0  0  0  0  0  0  0  0
  1  2  1  0
  1  4  1  0
  1  5  1  0
  1  6  1  0
  2  3  2  3
  2  7  1  0
  3  8  1  0
  9 10  1  0
  9 15  1  0
  9 16  1  0
  9 17  1  0
 10 11  1  0
 10 18  1  0
 10 19  1  0
 11 12  1  0
 11 20  1  0
 12 13  1  0
 13 14  1  0
 13 21  1  0
 13 22  1  0
 14 23  1  0
 14 24  1  0
 14 25  1  0
M  RAD  1  11   2
M  END
>  <reaction>  (7) 
rmg_rxn_16463

>  <mol_properties>  (7) 
{"1": {"label": "*0", "atom_type": "Cd"}, "2": {"label": "*1", "atom_type": "N3d"}, "7": {"label": "*2", "atom_type": "H0"}, "10": {"label": "*3", "atom_type": "Cs"}, "11": {"label": "*4", "atom_type": "O2s"}}

>  <type>  (7) 
unop_3

>  <geom_source>  (7) 
Heuristics

$$$$

     RDKit          3D

 25 23  0  0  0  0  0  0  0  0999 V2000
   -0.2845    0.0697   -3.8833 C   0  0  0  0  0  0  0  0  0  0  0  0
   -0.2845    0.0697   -2.3910 C   0  0  0  0  0  0  0  0  0  0  0  0
   -0.2845    1.1423   -1.7233 N   0  0  0  0  0  0  0  0  0  0  0  0
    0.5938   -0.4603   -4.2607 H   0  0  0  0  0  0  0  0  0  0  0  0
   -1.1627   -0.4603   -4.2607 H   0  0  0  0  0  0  0  0  0  0  0  0
   -0.2845    1.0903   -4.2619 H   0  0  0  0  0  0  0  0  0  0  0  0
   -0.2845   -0.9200   -1.9163 H   0  0  0  0  0  0  0  0  0  0  0  0
   -0.2845    0.9122   -0.5237 H   0  0  0  0  0  0  0  0  0  0  0  0
    1.9359    1.5803    1.5851 C   0  0  0  0  0  0  0  0  0  0  0  0
    0.4271    1.7755    1.5172 C   0  0  0  0  0  0  0  0  0  0  0  0
   -0.2845    0.6631    0.7745 C   0  0  0  0  0  3  0  0  0  0  0  0
   -0.1011   -0.5482    1.4631 O   0  0  0  0  0  0  0  0  0  0  0  0
   -0.6999   -1.6470    0.8246 C   0  0  0  0  0  0  0  0  0  0  0  0
   -0.4425   -2.8907    1.6435 C   0  0  0  0  0  0  0  0  0  0  0  0
    2.3687    1.5373    0.5825 H   0  0  0  0  0  0  0  0  0  0  0  0
    2.4143    2.4013    2.1212 H   0  0  0  0  0  0  0  0  0  0  0  0
    2.1822    0.6498    2.0964 H   0  0  0  0  0  0  0  0  0  0  0  0
    0.0113    1.8406    2.5260 H   0  0  0  0  0  0  0  0  0  0  0  0
    0.1918    2.7185    1.0160 H   0  0  0  0  0  0  0  0  0  0  0  0
   -1.3579    0.8873    0.6893 H   0  0  0  0  0  0  0  0  0  0  0  0
   -1.7810   -1.4748    0.7166 H   0  0  0  0  0  0  0  0  0  0  0  0
   -0.2877   -1.7618   -0.1888 H   0  0  0  0  0  0  0  0  0  0  0  0
   -0.8629   -2.7832    2.6440 H   0  0  0  0  0  0  0  0  0  0  0  0
   -0.8998   -3.7589    1.1663 H   0  0  0  0  0  0  0  0  0  0  0  0
    0.6289   -3.0711    1.7380 H   0  0  0  0  0  0  0  0  0  0  0  0
  1  2  1  0
  1  4  1  0
  1  5  1  0
  1  6  1  0
  2  3  2  3
  2  7  1  0
  3  8  1  0
  9 10  1  0
  9 15  1  0
  9 16  1  0
  9 17  1  0
 10 11  1  0
 10 18  1  0
 10 19  1  0
 11 12  1  0
 11 20  1  0
 12 13  1  0
 13 14  1  0
 13 21  1  0
 13 22  1  0
 14 23  1  0
 14 24  1  0
 14 25  1  0
M  RAD  1  11   2
M  END
>  <reaction>  (8) 
rmg_rxn_16463

>  <mol_properties>  (8) 
{"1": {"label": "*0", "atom_type": "Cd"}, "2": {"label": "*1", "atom_type": "N3d"}, "7": {"label": "*2", "atom_type": "H0"}, "10": {"label": "*3", "atom_type": "Cs"}, "11": {"label": "*4", "atom_type": "O2s"}}

>  <type>  (8) 
unop_4

>  <geom_source>  (8) 
Heuristics

$$$$

     RDKit          3D

 25 23  0  0  0  0  0  0  0  0999 V2000
    0.3109   -1.1822   -3.4613 C   0  0  0  0  0  0  0  0  0  0  0  0
    0.3109   -1.1822   -1.9689 C   0  0  0  0  0  0  0  0  0  0  0  0
    0.3109   -0.1096   -1.3012 N   0  0  0  0  0  0  0  0  0  0  0  0
    1.1892   -1.7122   -3.8387 H   0  0  0  0  0  0  0  0  0  0  0  0
   -0.5674   -1.7122   -3.8387 H   0  0  0  0  0  0  0  0  0  0  0  0
    0.3109   -0.1616   -3.8399 H   0  0  0  0  0  0  0  0  0  0  0  0
    0.3109   -2.1719   -1.4943 H   0  0  0  0  0  0  0  0  0  0  0  0
    0.3109   -0.3398   -0.1017 H   0  0  0  0  0  0  0  0  0  0  0  0
   -2.0906   -1.1646    0.6223 C   0  0  0  0  0  0  0  0  0  0  0  0
   -0.9215   -1.3856    1.5729 C   0  0  0  0  0  0  0  0  0  0  0  0
    0.3109   -0.5888    1.1965 C   0  0  0  0  0  3  0  0  0  0  0  0
    0.0220    0.7838    1.2819 O   0  0  0  0  0  0  0  0  0  0  0  0
    1.1022    1.6034    0.9144 C   0  0  0  0  0  0  0  0  0  0  0  0
    0.6858    3.0505    1.0407 C   0  0  0  0  0  0  0  0  0  0  0  0
   -1.8231   -1.4521   -0.3976 H   0  0  0  0  0  0  0  0  0  0  0  0
   -2.9567   -1.7571    0.9207 H   0  0  0  0  0  0  0  0  0  0  0  0
   -2.3838   -0.1149    0.6085 H   0  0  0  0  0  0  0  0  0  0  0  0
   -1.2107   -1.1169    2.5922 H   0  0  0  0  0  0  0  0  0  0  0  0
   -0.6455   -2.4436    1.5904 H   0  0  0  0  0  0  0  0  0  0  0  0
    1.1461   -0.8389    1.8672 H   0  0  0  0  0  0  0  0  0  0  0  0
    1.9682    1.3948    1.5601 H   0  0  0  0  0  0  0  0  0  0  0  0
    1.4076    1.3799   -0.1185 H   0  0  0  0  0  0  0  0  0  0  0  0
    0.3960    3.2765    2.0675 H   0  0  0  0  0  0  0  0  0  0  0  0
    1.5108    3.7072    0.7603 H   0  0  0  0  0  0  0  0  0  0  0  0
   -0.1628    3.2622    0.3892 H   0  0  0  0  0  0  0  0  0  0  0  0
  1  2  1  0
  1  4  1  0
  1  5  1  0
  1  6  1  0
  2  3  2  3
  2  7  1  0
  3  8  1  0
  9 10  1  0
  9 15  1  0
  9 16  1  0
  9 17  1  0
 10 11  1  0
 10 18  1  0
 10 19  1  0
 11 12  1  0
 11 20  1  0
 12 13  1  0
 13 14  1  0
 13 21  1  0
 13 22  1  0
 14 23  1  0
 14 24  1  0
 14 25  1  0
M  RAD  1  11   2
M  END
>  <reaction>  (9) 
rmg_rxn_16463

>  <mol_properties>  (9) 
{"1": {"label": "*0", "atom_type": "Cd"}, "2": {"label": "*1", "atom_type": "N3d"}, "7": {"label": "*2", "atom_type": "H0"}, "10": {"label": "*3", "atom_type": "Cs"}, "11": {"label": "*4", "atom_type": "O2s"}}

>  <type>  (9) 
unop_5

>  <geom_source>  (9) 
Heuristics

$$$$

     RDKit          3D

 25 23  0  0  0  0  0  0  0  0999 V2000
   -0.6915   -0.2878   -3.6695 C   0  0  0  0  0  0  0  0  0  0  0  0
   -0.6915   -0.2878   -2.1772 C   0  0  0  0  0  0  0  0  0  0  0  0
   -0.6915    0.7849   -1.5095 N   0  0  0  0  0  0  0  0  0  0  0  0
    0.1868   -0.8177   -4.0469 H   0  0  0  0  0  0  0  0  0  0  0  0
   -1.5697   -0.8177   -4.0469 H   0  0  0  0  0  0  0  0  0  0  0  0
   -0.6915    0.7329   -4.0481 H   0  0  0  0  0  0  0  0  0  0  0  0
   -0.6915   -1.2774   -1.7025 H   0  0  0  0  0  0  0  0  0  0  0  0
   -0.6915    0.5547   -0.3099 H   0  0  0  0  0  0  0  0  0  0  0  0
    0.4916    2.5037    1.4320 C   0  0  0  0  0  0  0  0  0  0  0  0
   -0.6915    1.6052    1.7669 C   0  0  0  0  0  0  0  0  0  0  0  0
   -0.6915    0.3056    0.9883 C   0  0  0  0  0  3  0  0  0  0  0  0
    0.4473   -0.4429    1.3315 O   0  0  0  0  0  0  0  0  0  0  0  0
    0.5493   -1.6545    0.6279 C   0  0  0  0  0  0  0  0  0  0  0  0
    1.8019   -2.3750    1.0700 C   0  0  0  0  0  0  0  0  0  0  0  0
    0.4933    2.7665    0.3712 H   0  0  0  0  0  0  0  0  0  0  0  0
    0.4557    3.4306    2.0063 H   0  0  0  0  0  0  0  0  0  0  0  0
    1.4330    2.0013    1.6540 H   0  0  0  0  0  0  0  0  0  0  0  0
   -0.6939    1.3703    2.8344 H   0  0  0  0  0  0  0  0  0  0  0  0
   -1.6302    2.1244    1.5545 H   0  0  0  0  0  0  0  0  0  0  0  0
   -1.6009   -0.2719    1.2103 H   0  0  0  0  0  0  0  0  0  0  0  0
   -0.3388   -2.2751    0.8188 H   0  0  0  0  0  0  0  0  0  0  0  0
    0.5802   -1.4581   -0.4540 H   0  0  0  0  0  0  0  0  0  0  0  0
    1.7659   -2.5825    2.1400 H   0  0  0  0  0  0  0  0  0  0  0  0
    1.9021   -3.3213    0.5361 H   0  0  0  0  0  0  0  0  0  0  0  0
    2.6843   -1.7671    0.8668 H   0  0  0  0  0  0  0  0  0  0  0  0
  1  2  1  0
  1  4  1  0
  1  5  1  0
  1  6  1  0
  2  3  2  3
  2  7  1  0
  3  8  1  0
  9 10  1  0
  9 15  1  0
  9 16  1  0
  9 17  1  0
 10 11  1  0
 10 18  1  0
 10 19  1  0
 11 12  1  0
 11 20  1  0
 12 13  1  0
 13 14  1  0
 13 21  1  0
 13 22  1  0
 14 23  1  0
 14 24  1  0
 14 25  1  0
M  RAD  1  11   2
M  END
>  <reaction>  (10) 
rmg_rxn_16463

>  <mol_properties>  (10) 
{"1": {"label": "*0", "atom_type": "Cd"}, "2": {"label": "*1", "atom_type": "N3d"}, "7": {"label": "*2", "atom_type": "H0"}, "10": {"label": "*3", "atom_type": "Cs"}, "11": {"label": "*4", "atom_type": "O2s"}}

>  <type>  (10) 
unop_6

>  <geom_source>  (10) 
Heuristics

$$$$

     RDKit          3D

 25 23  0  0  0  0  0  0  0  0999 V2000
   -0.0238   -1.2405   -3.3860 C   0  0  0  0  0  0  0  0  0  0  0  0
   -0.0238   -1.2405   -1.8937 C   0  0  0  0  0  0  0  0  0  0  0  0
   -0.0238   -0.1679   -1.2260 N   0  0  0  0  0  0  0  0  0  0  0  0
    0.8545   -1.7705   -3.7634 H   0  0  0  0  0  0  0  0  0  0  0  0
   -0.9021   -1.7705   -3.7634 H   0  0  0  0  0  0  0  0  0  0  0  0
   -0.0238   -0.2199   -3.7646 H   0  0  0  0  0  0  0  0  0  0  0  0
   -0.0238   -2.2302   -1.4190 H   0  0  0  0  0  0  0  0  0  0  0  0
   -0.0238   -0.3981   -0.0264 H   0  0  0  0  0  0  0  0  0  0  0  0
   -2.4639   -0.1057    0.8463 C   0  0  0  0  0  0  0  0  0  0  0  0
   -1.4469   -0.7451    1.7823 C   0  0  0  0  0  0  0  0  0  0  0  0
   -0.0238   -0.6471    1.2718 C   0  0  0  0  0  3  0  0  0  0  0  0
    0.3500    0.7052    1.1913 O   0  0  0  0  0  0  0  0  0  0  0  0
    1.6491    0.8942    0.6912 C   0  0  0  0  0  0  0  0  0  0  0  0
    1.9469    2.3750    0.6456 C   0  0  0  0  0  0  0  0  0  0  0  0
   -2.4432   -0.5833   -0.1365 H   0  0  0  0  0  0  0  0  0  0  0  0
   -3.4759   -0.1999    1.2428 H   0  0  0  0  0  0  0  0  0  0  0  0
   -2.2489    0.9539    0.7084 H   0  0  0  0  0  0  0  0  0  0  0  0
   -1.4955   -0.2741    2.7675 H   0  0  0  0  0  0  0  0  0  0  0  0
   -1.6806   -1.8037    1.9253 H   0  0  0  0  0  0  0  0  0  0  0  0
    0.6602   -1.1860    1.9438 H   0  0  0  0  0  0  0  0  0  0  0  0
    2.3771    0.3752    1.3322 H   0  0  0  0  0  0  0  0  0  0  0  0
    1.7315    0.4543   -0.3137 H   0  0  0  0  0  0  0  0  0  0  0  0
    1.8791    2.8094    1.6436 H   0  0  0  0  0  0  0  0  0  0  0  0
    2.9532    2.5466    0.2601 H   0  0  0  0  0  0  0  0  0  0  0  0
    1.2352    2.8882   -0.0021 H   0  0  0  0  0  0  0  0  0  0  0  0
  1  2  1  0
  1  4  1  0
  1  5  1  0
  1  6  1  0
  2  3  2  3
  2  7  1  0
  3  8  1  0
  9 10  1  0
  9 15  1  0
  9 16  1  0
  9 17  1  0
 10 11  1  0
 10 18  1  0
 10 19  1  0
 11 12  1  0
 11 20  1  0
 12 13  1  0
 13 14  1  0
 13 21  1  0
 13 22  1  0
 14 23  1  0
 14 24  1  0
 14 25  1  0
M  RAD  1  11   2
M  END
>  <reaction>  (11) 
rmg_rxn_16463

>  <mol_properties>  (11) 
{"1": {"label": "*0", "atom_type": "Cd"}, "2": {"label": "*1", "atom_type": "N3d"}, "7": {"label": "*2", "atom_type": "H0"}, "10": {"label": "*3", "atom_type": "Cs"}, "11": {"label": "*4", "atom_type": "O2s"}}

>  <type>  (11) 
unop_7

>  <geom_source>  (11) 
Heuristics

$$$$

     RDKit          3D

 25 23  0  0  0  0  0  0  0  0999 V2000
   -0.3654   -1.1380   -3.3648 C   0  0  0  0  0  0  0  0  0  0  0  0
   -0.3654   -1.1380   -1.8724 C   0  0  0  0  0  0  0  0  0  0  0  0
   -0.3654   -0.0653   -1.2047 N   0  0  0  0  0  0  0  0  0  0  0  0
    0.5128   -1.6679   -3.7422 H   0  0  0  0  0  0  0  0  0  0  0  0
   -1.2437   -1.6679   -3.7422 H   0  0  0  0  0  0  0  0  0  0  0  0
   -0.3654   -0.1173   -3.7433 H   0  0  0  0  0  0  0  0  0  0  0  0
   -0.3654   -2.1276   -1.3978 H   0  0  0  0  0  0  0  0  0  0  0  0
   -0.3654   -0.2955   -0.0051 H   0  0  0  0  0  0  0  0  0  0  0  0
   -2.2547    1.1333    1.0846 C   0  0  0  0  0  0  0  0  0  0  0  0
   -1.5978    0.0563    1.9376 C   0  0  0  0  0  0  0  0  0  0  0  0
   -0.3654   -0.5446    1.2930 C   0  0  0  0  0  3  0  0  0  0  0  0
    0.6136    0.4521    1.1413 O   0  0  0  0  0  0  0  0  0  0  0  0
    1.7843   -0.0088    0.5163 C   0  0  0  0  0  0  0  0  0  0  0  0
    2.7638    1.1363    0.4030 C   0  0  0  0  0  0  0  0  0  0  0  0
   -2.5644    0.7294    0.1174 H   0  0  0  0  0  0  0  0  0  0  0  0
   -3.1400    1.5385    1.5769 H   0  0  0  0  0  0  0  0  0  0  0  0
   -1.5622    1.9542    0.8986 H   0  0  0  0  0  0  0  0  0  0  0  0
   -1.3153    0.4680    2.9099 H   0  0  0  0  0  0  0  0  0  0  0  0
   -2.3056   -0.7547    2.1305 H   0  0  0  0  0  0  0  0  0  0  0  0
    0.0271   -1.3648    1.9119 H   0  0  0  0  0  0  0  0  0  0  0  0
    2.2217   -0.8325    1.0998 H   0  0  0  0  0  0  0  0  0  0  0  0
    1.5444   -0.4096   -0.4796 H   0  0  0  0  0  0  0  0  0  0  0  0
    3.0128    1.5253    1.3909 H   0  0  0  0  0  0  0  0  0  0  0  0
    3.6830    0.8012   -0.0799 H   0  0  0  0  0  0  0  0  0  0  0  0
    2.3370    1.9471   -0.1885 H   0  0  0  0  0  0  0  0  0  0  0  0
  1  2  1  0
  1  4  1  0
  1  5  1  0
  1  6  1  0
  2  3  2  3
  2  7  1  0
  3  8  1  0
  9 10  1  0
  9 15  1  0
  9 16  1  0
  9 17  1  0
 10 11  1  0
 10 18  1  0
 10 19  1  0
 11 12  1  0
 11 20  1  0
 12 13  1  0
 13 14  1  0
 13 21  1  0
 13 22  1  0
 14 23  1  0
 14 24  1  0
 14 25  1  0
M  RAD  1  11   2
M  END
>  <reaction>  (12) 
rmg_rxn_16463

>  <mol_properties>  (12) 
{"1": {"label": "*0", "atom_type": "Cd"}, "2": {"label": "*1", "atom_type": "N3d"}, "7": {"label": "*2", "atom_type": "H0"}, "10": {"label": "*3", "atom_type": "Cs"}, "11": {"label": "*4", "atom_type": "O2s"}}

>  <type>  (12) 
unop_8

>  <geom_source>  (12) 
Heuristics

$$$$

     RDKit          3D

 25 23  0  0  0  0  0  0  0  0999 V2000
    0.3214   -0.0292   -3.9833 C   0  0  0  0  0  0  0  0  0  0  0  0
    0.3214   -0.0292   -2.4909 C   0  0  0  0  0  0  0  0  0  0  0  0
    0.3214    1.0434   -1.8232 N   0  0  0  0  0  0  0  0  0  0  0  0
    1.1997   -0.5592   -4.3607 H   0  0  0  0  0  0  0  0  0  0  0  0
   -0.5568   -0.5592   -4.3607 H   0  0  0  0  0  0  0  0  0  0  0  0
    0.3214    0.9914   -4.3619 H   0  0  0  0  0  0  0  0  0  0  0  0
    0.3214   -1.0189   -2.0163 H   0  0  0  0  0  0  0  0  0  0  0  0
    0.3214    0.8133   -0.6237 H   0  0  0  0  0  0  0  0  0  0  0  0
    2.2523   -0.9669    1.2709 C   0  0  0  0  0  0  0  0  0  0  0  0
    1.7445    0.4662    1.1850 C   0  0  0  0  0  0  0  0  0  0  0  0
    0.3214    0.5642    0.6745 C   0  0  0  0  0  3  0  0  0  0  0  0
   -0.5425   -0.0784    1.5776 O   0  0  0  0  0  0  0  0  0  0  0  0
   -1.8856   -0.0680    1.1656 C   0  0  0  0  0  0  0  0  0  0  0  0
   -2.7225   -0.7815    2.2019 C   0  0  0  0  0  0  0  0  0  0  0  0
    2.2308   -1.4474    0.2896 H   0  0  0  0  0  0  0  0  0  0  0  0
    3.2798   -0.9982    1.6364 H   0  0  0  0  0  0  0  0  0  0  0  0
    1.6322   -1.5564    1.9461 H   0  0  0  0  0  0  0  0  0  0  0  0
    1.7941    0.9416    2.1681 H   0  0  0  0  0  0  0  0  0  0  0  0
    2.3822    1.0520    0.5172 H   0  0  0  0  0  0  0  0  0  0  0  0
    0.0288    1.6184    0.5610 H   0  0  0  0  0  0  0  0  0  0  0  0
   -2.2313    0.9687    1.0396 H   0  0  0  0  0  0  0  0  0  0  0  0
   -1.9812   -0.5621    0.1875 H   0  0  0  0  0  0  0  0  0  0  0  0
   -2.6391   -0.2842    3.1689 H   0  0  0  0  0  0  0  0  0  0  0  0
   -3.7719   -0.7855    1.9030 H   0  0  0  0  0  0  0  0  0  0  0  0
   -2.3906   -1.8140    2.3164 H   0  0  0  0  0  0  0  0  0  0  0  0
  1  2  1  0
  1  4  1  0
  1  5  1  0
  1  6  1  0
  2  3  2  3
  2  7  1  0
  3  8  1  0
  9 10  1  0
  9 15  1  0
  9 16  1  0
  9 17  1  0
 10 11  1  0
 10 18  1  0
 10 19  1  0
 11 12  1  0
 11 20  1  0
 12 13  1  0
 13 14  1  0
 13 21  1  0
 13 22  1  0
 14 23  1  0
 14 24  1  0
 14 25  1  0
M  RAD  1  11   2
M  END
>  <reaction>  (13) 
rmg_rxn_16463

>  <mol_properties>  (13) 
{"1": {"label": "*0", "atom_type": "Cd"}, "2": {"label": "*1", "atom_type": "N3d"}, "7": {"label": "*2", "atom_type": "H0"}, "10": {"label": "*3", "atom_type": "Cs"}, "11": {"label": "*4", "atom_type": "O2s"}}

>  <type>  (13) 
unop_9

>  <geom_source>  (13) 
Heuristics

$$$$

     RDKit          3D

 25 23  0  0  0  0  0  0  0  0999 V2000
   -3.5126    0.1399    0.3143 C   0  0  0  0  0  0  0  0  0  0  0  0
   -2.0222   -0.0123    0.3055 C   0  0  0  0  0  0  0  0  0  0  0  0
   -1.3787   -0.2524   -0.7292 N   0  0  0  0  0  0  0  0  0  0  0  0
   -3.9485   -0.6010    0.9829 H   0  0  0  0  0  0  0  0  0  0  0  0
   -3.7742    1.1292    0.6869 H   0  0  0  0  0  0  0  0  0  0  0  0
   -3.9115    0.0087   -0.6877 H   0  0  0  0  0  0  0  0  0  0  0  0
   -1.5569    0.1115    1.2962 H   0  0  0  0  0  0  0  0  0  0  0  0
   -0.1631   -0.3426   -0.5411 H   0  0  0  0  0  0  0  0  0  0  0  0
    0.8185   -2.9011   -0.4096 C   0  0  0  0  0  0  0  0  0  0  0  0
    1.2933   -1.7557    0.4754 C   0  0  0  0  0  0  0  0  0  0  0  0
    1.1239   -0.4179   -0.2090 C   0  0  0  0  0  3  0  0  0  0  0  0
    1.4275    0.6322    0.6513 O   0  0  0  0  0  0  0  0  0  0  0  0
    1.6935    1.8762    0.0462 C   0  0  0  0  0  0  0  0  0  0  0  0
    0.4413    2.5850   -0.4652 C   0  0  0  0  0  0  0  0  0  0  0  0
   -0.2286   -2.7677   -0.6699 H   0  0  0  0  0  0  0  0  0  0  0  0
    1.3968   -2.9370   -1.3299 H   0  0  0  0  0  0  0  0  0  0  0  0
    0.9326   -3.8509    0.1067 H   0  0  0  0  0  0  0  0  0  0  0  0
    0.7290   -1.7423    1.4102 H   0  0  0  0  0  0  0  0  0  0  0  0
    2.3482   -1.9011    0.7361 H   0  0  0  0  0  0  0  0  0  0  0  0
    1.6509   -0.3452   -1.1665 H   0  0  0  0  0  0  0  0  0  0  0  0
    2.1683    2.4747    0.8290 H   0  0  0  0  0  0  0  0  0  0  0  0
    2.4075    1.7443   -0.7803 H   0  0  0  0  0  0  0  0  0  0  0  0
   -0.0434    1.9975   -1.2410 H   0  0  0  0  0  0  0  0  0  0  0  0
   -0.2638    2.7292    0.3496 H   0  0  0  0  0  0  0  0  0  0  0  0
    0.7143    3.5546   -0.8724 H   0  0  0  0  0  0  0  0  0  0  0  0
  1  2  1  0
  1  4  1  0
  1  5  1  0
  1  6  1  0
  2  3  2  3
  2  7  1  0
  3  8  1  0
  9 10  1  0
  9 15  1  0
  9 16  1  0
  9 17  1  0
 10 11  1  0
 10 18  1  0
 10 19  1  0
 11 12  1  0
 11 20  1  0
 12 13  1  0
 13 14  1  0
 13 21  1  0
 13 22  1  0
 14 23  1  0
 14 24  1  0
 14 25  1  0
M  RAD  1  11   2
M  END
>  <reaction>  (14) 
rmg_rxn_16463

>  <mol_properties>  (14) 
{"1": {"label": "*0", "atom_type": "Cd"}, "2": {"label": "*1", "atom_type": "N3d"}, "7": {"label": "*2", "atom_type": "H0"}, "10": {"label": "*3", "atom_type": "Cs"}, "11": {"label": "*4", "atom_type": "O2s"}}

>  <type>  (14) 
unop_10

>  <geom_source>  (14) 
Heuristics

$$$$

     RDKit          3D

 25 23  0  0  0  0  0  0  0  0999 V2000
    0.5778   -0.9719   -3.5850 C   0  0  0  0  0  0  0  0  0  0  0  0
    0.5778   -0.9719   -2.0927 C   0  0  0  0  0  0  0  0  0  0  0  0
    0.5778    0.1007   -1.4250 N   0  0  0  0  0  0  0  0  0  0  0  0
    1.4561   -1.5019   -3.9624 H   0  0  0  0  0  0  0  0  0  0  0  0
   -0.3004   -1.5019   -3.9624 H   0  0  0  0  0  0  0  0  0  0  0  0
    0.5778    0.0487   -3.9636 H   0  0  0  0  0  0  0  0  0  0  0  0
    0.5778   -1.9616   -1.6180 H   0  0  0  0  0  0  0  0  0  0  0  0
    0.5778   -0.1294   -0.2254 H   0  0  0  0  0  0  0  0  0  0  0  0
   -1.3738   -1.8886    0.4904 C   0  0  0  0  0  0  0  0  0  0  0  0
   -0.1337   -1.6868    1.3510 C   0  0  0  0  0  0  0  0  0  0  0  0
    0.5778   -0.3785    1.0728 C   0  0  0  0  0  3  0  0  0  0  0  0
   -0.2728    0.6923    1.3967 O   0  0  0  0  0  0  0  0  0  0  0  0
    0.2938    1.9511    1.1361 C   0  0  0  0  0  0  0  0  0  0  0  0
   -0.6990    3.0247    1.5170 C   0  0  0  0  0  0  0  0  0  0  0  0
   -1.1158   -1.8845   -0.5716 H   0  0  0  0  0  0  0  0  0  0  0  0
   -1.8560   -2.8414    0.7138 H   0  0  0  0  0  0  0  0  0  0  0  0
   -2.0971   -1.0917    0.6625 H   0  0  0  0  0  0  0  0  0  0  0  0
   -0.4029   -1.7172    2.4100 H   0  0  0  0  0  0  0  0  0  0  0  0
    0.5783   -2.4993    1.1816 H   0  0  0  0  0  0  0  0  0  0  0  0
    1.5032   -0.3146    1.6639 H   0  0  0  0  0  0  0  0  0  0  0  0
    1.2259    2.0688    1.7085 H   0  0  0  0  0  0  0  0  0  0  0  0
    0.5562    2.0305    0.0708 H   0  0  0  0  0  0  0  0  0  0  0  0
   -0.9492    2.9553    2.5762 H   0  0  0  0  0  0  0  0  0  0  0  0
   -0.2798    4.0133    1.3235 H   0  0  0  0  0  0  0  0  0  0  0  0
   -1.6176    2.9183    0.9388 H   0  0  0  0  0  0  0  0  0  0  0  0
  1  2  1  0
  1  4  1  0
  1  5  1  0
  1  6  1  0
  2  3  2  3
  2  7  1  0
  3  8  1  0
  9 10  1  0
  9 15  1  0
  9 16  1  0
  9 17  1  0
 10 11  1  0
 10 18  1  0
 10 19  1  0
 11 12  1  0
 11 20  1  0
 12 13  1  0
 13 14  1  0
 13 21  1  0
 13 22  1  0
 14 23  1  0
 14 24  1  0
 14 25  1  0
M  RAD  1  11   2
M  END
>  <reaction>  (15) 
rmg_rxn_16463

>  <mol_properties>  (15) 
{"1": {"label": "*0", "atom_type": "Cd"}, "2": {"label": "*1", "atom_type": "N3d"}, "7": {"label": "*2", "atom_type": "H0"}, "10": {"label": "*3", "atom_type": "Cs"}, "11": {"label": "*4", "atom_type": "O2s"}}

>  <type>  (15) 
unop_11

>  <geom_source>  (15) 
Heuristics

$$$$

     RDKit          3D

 25 23  0  0  0  0  0  0  0  0999 V2000
    0.4934   -0.1732   -3.9588 C   0  0  0  0  0  0  0  0  0  0  0  0
    0.4934   -0.1732   -2.4665 C   0  0  0  0  0  0  0  0  0  0  0  0
    0.4934    0.8995   -1.7988 N   0  0  0  0  0  0  0  0  0  0  0  0
    1.3717   -0.7032   -4.3362 H   0  0  0  0  0  0  0  0  0  0  0  0
   -0.3849   -0.7032   -4.3362 H   0  0  0  0  0  0  0  0  0  0  0  0
    0.4934    0.8475   -4.3374 H   0  0  0  0  0  0  0  0  0  0  0  0
    0.4934   -1.1629   -1.9918 H   0  0  0  0  0  0  0  0  0  0  0  0
    0.4934    0.6693   -0.5992 H   0  0  0  0  0  0  0  0  0  0  0  0
    1.5188   -1.8820    0.9760 C   0  0  0  0  0  0  0  0  0  0  0  0
    1.7258   -0.3765    1.0754 C   0  0  0  0  0  0  0  0  0  0  0  0
    0.4934    0.4202    0.6990 C   0  0  0  0  0  3  0  0  0  0  0  0
   -0.5423    0.1311    1.6038 O   0  0  0  0  0  0  0  0  0  0  0  0
   -1.7411    0.8018    1.3096 C   0  0  0  0  0  0  0  0  0  0  0  0
   -2.7816    0.4210    2.3372 C   0  0  0  0  0  0  0  0  0  0  0  0
    1.2494   -2.1719   -0.0427 H   0  0  0  0  0  0  0  0  0  0  0  0
    2.4267   -2.4221    1.2486 H   0  0  0  0  0  0  0  0  0  0  0  0
    0.7170   -2.2061    1.6395 H   0  0  0  0  0  0  0  0  0  0  0  0
    2.0178   -0.1042    2.0929 H   0  0  0  0  0  0  0  0  0  0  0  0
    2.5417   -0.0647    0.4174 H   0  0  0  0  0  0  0  0  0  0  0  0
    0.7160    1.4972    0.7154 H   0  0  0  0  0  0  0  0  0  0  0  0
   -1.5741    1.8892    1.3163 H   0  0  0  0  0  0  0  0  0  0  0  0
   -2.0825    0.5332    0.2990 H   0  0  0  0  0  0  0  0  0  0  0  0
   -2.4500    0.6995    3.3381 H   0  0  0  0  0  0  0  0  0  0  0  0
   -3.7232    0.9315    2.1290 H   0  0  0  0  0  0  0  0  0  0  0  0
   -2.9593   -0.6549    2.3205 H   0  0  0  0  0  0  0  0  0  0  0  0
  1  2  1  0
  1  4  1  0
  1  5  1  0
  1  6  1  0
  2  3  2  3
  2  7  1  0
  3  8  1  0
  9 10  1  0
  9 15  1  0
  9 16  1  0
  9 17  1  0
 10 11  1  0
 10 18  1  0
 10 19  1  0
 11 12  1  0
 11 20  1  0
 12 13  1  0
 13 14  1  0
 13 21  1  0
 13 22  1  0
 14 23  1  0
 14 24  1  0
 14 25  1  0
M  RAD  1  11   2
M  END
>  <reaction>  (16) 
rmg_rxn_16463

>  <mol_properties>  (16) 
{"1": {"label": "*0", "atom_type": "Cd"}, "2": {"label": "*1", "atom_type": "N3d"}, "7": {"label": "*2", "atom_type": "H0"}, "10": {"label": "*3", "atom_type": "Cs"}, "11": {"label": "*4", "atom_type": "O2s"}}

>  <type>  (16) 
unop_12

>  <geom_source>  (16) 
Heuristics

$$$$

     RDKit          3D

 25 23  0  0  0  0  0  0  0  0999 V2000
   -0.6631   -0.8338   -3.4378 C   0  0  0  0  0  0  0  0  0  0  0  0
   -0.6631   -0.8338   -1.9455 C   0  0  0  0  0  0  0  0  0  0  0  0
   -0.6631    0.2388   -1.2778 N   0  0  0  0  0  0  0  0  0  0  0  0
    0.2152   -1.3638   -3.8152 H   0  0  0  0  0  0  0  0  0  0  0  0
   -1.5413   -1.3638   -3.8152 H   0  0  0  0  0  0  0  0  0  0  0  0
   -0.6631    0.1868   -3.8164 H   0  0  0  0  0  0  0  0  0  0  0  0
   -0.6630   -1.8235   -1.4708 H   0  0  0  0  0  0  0  0  0  0  0  0
   -0.6631    0.0086   -0.0782 H   0  0  0  0  0  0  0  0  0  0  0  0
   -1.2622    2.2227    1.2684 C   0  0  0  0  0  0  0  0  0  0  0  0
   -1.3746    0.8719    1.9627 C   0  0  0  0  0  0  0  0  0  0  0  0
   -0.6631   -0.2404    1.2200 C   0  0  0  0  0  3  0  0  0  0  0  0
    0.7140    0.0363    1.1749 O   0  0  0  0  0  0  0  0  0  0  0  0
    1.4525   -0.9293    0.4707 C   0  0  0  0  0  0  0  0  0  0  0  0
    2.9116   -0.5363    0.4826 C   0  0  0  0  0  0  0  0  0  0  0  0
   -1.6928    2.1819    0.2647 H   0  0  0  0  0  0  0  0  0  0  0  0
   -1.7898    2.9967    1.8276 H   0  0  0  0  0  0  0  0  0  0  0  0
   -0.2186    2.5222    1.1732 H   0  0  0  0  0  0  0  0  0  0  0  0
   -0.9622    0.9339    2.9731 H   0  0  0  0  0  0  0  0  0  0  0  0
   -2.4256    0.5883    2.0663 H   0  0  0  0  0  0  0  0  0  0  0  0
   -0.8357   -1.2045    1.7207 H   0  0  0  0  0  0  0  0  0  0  0  0
    1.3168   -1.9175    0.9348 H   0  0  0  0  0  0  0  0  0  0  0  0
    1.0828   -1.0037   -0.5626 H   0  0  0  0  0  0  0  0  0  0  0  0
    3.2827   -0.4757    1.5063 H   0  0  0  0  0  0  0  0  0  0  0  0
    3.5062   -1.2735   -0.0591 H   0  0  0  0  0  0  0  0  0  0  0  0
    3.0493    0.4363    0.0087 H   0  0  0  0  0  0  0  0  0  0  0  0
  1  2  1  0
  1  4  1  0
  1  5  1  0
  1  6  1  0
  2  3  2  3
  2  7  1  0
  3  8  1  0
  9 10  1  0
  9 15  1  0
  9 16  1  0
  9 17  1  0
 10 11  1  0
 10 18  1  0
 10 19  1  0
 11 12  1  0
 11 20  1  0
 12 13  1  0
 13 14  1  0
 13 21  1  0
 13 22  1  0
 14 23  1  0
 14 24  1  0
 14 25  1  0
M  RAD  1  11   2
M  END
>  <reaction>  (17) 
rmg_rxn_16463

>  <mol_properties>  (17) 
{"1": {"label": "*0", "atom_type": "Cd"}, "2": {"label": "*1", "atom_type": "N3d"}, "7": {"label": "*2", "atom_type": "H0"}, "10": {"label": "*3", "atom_type": "Cs"}, "11": {"label": "*4", "atom_type": "O2s"}}

>  <type>  (17) 
unop_13

>  <geom_source>  (17) 
Heuristics

$$$$

     RDKit          3D

 25 23  0  0  0  0  0  0  0  0999 V2000
    0.6915   -0.6631   -3.7415 C   0  0  0  0  0  0  0  0  0  0  0  0
    0.6915   -0.6631   -2.2492 C   0  0  0  0  0  0  0  0  0  0  0  0
    0.6915    0.4096   -1.5815 N   0  0  0  0  0  0  0  0  0  0  0  0
    1.5697   -1.1931   -4.1189 H   0  0  0  0  0  0  0  0  0  0  0  0
   -0.1868   -1.1931   -4.1189 H   0  0  0  0  0  0  0  0  0  0  0  0
    0.6915    0.3575   -4.1201 H   0  0  0  0  0  0  0  0  0  0  0  0
    0.6915   -1.6528   -1.7745 H   0  0  0  0  0  0  0  0  0  0  0  0
    0.6915    0.1794   -0.3819 H   0  0  0  0  0  0  0  0  0  0  0  0
   -0.4916   -2.2759    0.5149 C   0  0  0  0  0  0  0  0  0  0  0  0
    0.6915   -1.5652    1.1586 C   0  0  0  0  0  0  0  0  0  0  0  0
    0.6915   -0.0697    0.9163 C   0  0  0  0  0  3  0  0  0  0  0  0
   -0.4473    0.4986    1.5122 O   0  0  0  0  0  0  0  0  0  0  0  0
   -0.5493    1.8846    1.3070 C   0  0  0  0  0  0  0  0  0  0  0  0
   -1.8019    2.3903    1.9843 C   0  0  0  0  0  0  0  0  0  0  0  0
   -0.4933   -2.1274   -0.5679 H   0  0  0  0  0  0  0  0  0  0  0  0
   -0.4557   -3.3496    0.7053 H   0  0  0  0  0  0  0  0  0  0  0  0
   -1.4330   -1.8913    0.9071 H   0  0  0  0  0  0  0  0  0  0  0  0
    0.6939   -1.7421    2.2372 H   0  0  0  0  0  0  0  0  0  0  0  0
    1.6302   -1.9689    0.7692 H   0  0  0  0  0  0  0  0  0  0  0  0
    1.6009    0.3846    1.3363 H   0  0  0  0  0  0  0  0  0  0  0  0
    0.3388    2.3905    1.7140 H   0  0  0  0  0  0  0  0  0  0  0  0
   -0.5802    2.1026    0.2292 H   0  0  0  0  0  0  0  0  0  0  0  0
   -1.7659    2.1870    3.0551 H   0  0  0  0  0  0  0  0  0  0  0  0
   -1.9021    3.4670    1.8386 H   0  0  0  0  0  0  0  0  0  0  0  0
   -2.6843    1.9007    1.5706 H   0  0  0  0  0  0  0  0  0  0  0  0
  1  2  1  0
  1  4  1  0
  1  5  1  0
  1  6  1  0
  2  3  2  3
  2  7  1  0
  3  8  1  0
  9 10  1  0
  9 15  1  0
  9 16  1  0
  9 17  1  0
 10 11  1  0
 10 18  1  0
 10 19  1  0
 11 12  1  0
 11 20  1  0
 12 13  1  0
 13 14  1  0
 13 21  1  0
 13 22  1  0
 14 23  1  0
 14 24  1  0
 14 25  1  0
M  RAD  1  11   2
M  END
>  <reaction>  (18) 
rmg_rxn_16463

>  <mol_properties>  (18) 
{"1": {"label": "*0", "atom_type": "Cd"}, "2": {"label": "*1", "atom_type": "N3d"}, "7": {"label": "*2", "atom_type": "H0"}, "10": {"label": "*3", "atom_type": "Cs"}, "11": {"label": "*4", "atom_type": "O2s"}}

>  <type>  (18) 
unop_14

>  <geom_source>  (18) 
Heuristics

$$$$

     RDKit          3D

 25 23  0  0  0  0  0  0  0  0999 V2000
    0.6346   -0.3751   -3.8793 C   0  0  0  0  0  0  0  0  0  0  0  0
    0.6346   -0.3751   -2.3869 C   0  0  0  0  0  0  0  0  0  0  0  0
    0.6346    0.6975   -1.7192 N   0  0  0  0  0  0  0  0  0  0  0  0
    1.5128   -0.9051   -4.2567 H   0  0  0  0  0  0  0  0  0  0  0  0
   -0.2437   -0.9051   -4.2567 H   0  0  0  0  0  0  0  0  0  0  0  0
    0.6346    0.6455   -4.2579 H   0  0  0  0  0  0  0  0  0  0  0  0
    0.6346   -1.3648   -1.9123 H   0  0  0  0  0  0  0  0  0  0  0  0
    0.6346    0.4674   -0.5196 H   0  0  0  0  0  0  0  0  0  0  0  0
    0.5118   -2.3129    0.6996 C   0  0  0  0  0  0  0  0  0  0  0  0
    1.3461   -1.0900    1.0568 C   0  0  0  0  0  0  0  0  0  0  0  0
    0.6346    0.2183    0.7785 C   0  0  0  0  0  3  0  0  0  0  0  0
   -0.5115    0.3062    1.5871 O   0  0  0  0  0  0  0  0  0  0  0  0
   -1.2569    1.4770    1.3698 C   0  0  0  0  0  0  0  0  0  0  0  0
   -2.4602    1.4695    2.2838 C   0  0  0  0  0  0  0  0  0  0  0  0
    0.2510   -2.3102   -0.3617 H   0  0  0  0  0  0  0  0  0  0  0  0
    1.0570   -3.2347    0.9078 H   0  0  0  0  0  0  0  0  0  0  0  0
   -0.4154   -2.3284    1.2723 H   0  0  0  0  0  0  0  0  0  0  0  0
    1.6196   -1.1183    2.1147 H   0  0  0  0  0  0  0  0  0  0  0  0
    2.2800   -1.0924    0.4879 H   0  0  0  0  0  0  0  0  0  0  0  0
    1.3036    1.0671    0.9827 H   0  0  0  0  0  0  0  0  0  0  0  0
   -0.6319    2.3612    1.5644 H   0  0  0  0  0  0  0  0  0  0  0  0
   -1.5735    1.5298    0.3177 H   0  0  0  0  0  0  0  0  0  0  0  0
   -2.1470    1.4312    3.3277 H   0  0  0  0  0  0  0  0  0  0  0  0
   -3.0553    2.3716    2.1329 H   0  0  0  0  0  0  0  0  0  0  0  0
   -3.0887    0.6016    2.0811 H   0  0  0  0  0  0  0  0  0  0  0  0
  1  2  1  0
  1  4  1  0
  1  5  1  0
  1  6  1  0
  2  3  2  3
  2  7  1  0
  3  8  1  0
  9 10  1  0
  9 15  1  0
  9 16  1  0
  9 17  1  0
 10 11  1  0
 10 18  1  0
 10 19  1  0
 11 12  1  0
 11 20  1  0
 12 13  1  0
 13 14  1  0
 13 21  1  0
 13 22  1  0
 14 23  1  0
 14 24  1  0
 14 25  1  0
M  RAD  1  11   2
M  END
>  <reaction>  (19) 
rmg_rxn_16463

>  <mol_properties>  (19) 
{"1": {"label": "*0", "atom_type": "Cd"}, "2": {"label": "*1", "atom_type": "N3d"}, "7": {"label": "*2", "atom_type": "H0"}, "10": {"label": "*3", "atom_type": "Cs"}, "11": {"label": "*4", "atom_type": "O2s"}}

>  <type>  (19) 
unop_15

>  <geom_source>  (19) 
gaussian_log

$$$$
