
     RDKit          3D

  6  5  0  0  0  0  0  0  0  0999 V2000
    0.7119    0.0884   -0.0825 N   0  0  0  0  0  0  0  0  0  0  0  0
   -0.7119   -0.0884   -0.0825 N   0  0  0  0  0  0  0  0  0  0  0  0
    1.2024   -0.8022   -0.2114 H   0  0  0  0  0  0  0  0  0  0  0  0
    1.0692    0.4903    0.7889 H   0  0  0  0  0  0  0  0  0  0  0  0
   -1.2024    0.8022   -0.2114 H   0  0  0  0  0  0  0  0  0  0  0  0
   -1.0692   -0.4903    0.7889 H   0  0  0  0  0  0  0  0  0  0  0  0
  1  2  1  0
  1  3  1  0
  1  4  1  0
  2  5  1  0
  2  6  1  0
M  END
>  <reaction>  (1) 
rmg_rxn_16802

>  <mol_properties>  (1) 
{"1": {"label": "donator", "atom_type": "N3s"}, "4": {"label": "d_hydrogen", "atom_type": "H0"}}

>  <type>  (1) 
r1h

$$$$

     RDKit          3D

  7  6  0  0  0  0  0  0  0  0999 V2000
   -1.2010    0.1038   -0.0002 C   0  0  0  0  0  0  0  0  0  0  0  0
    0.1886   -0.4250   -0.0003 C   0  0  0  0  0  3  0  0  0  0  0  0
    1.3309    0.0272    0.0001 N   0  0  0  0  0  0  0  0  0  0  0  0
   -1.7355   -0.2512    0.8930 H   0  0  0  0  0  0  0  0  0  0  0  0
   -1.2181    1.2094   -0.0132 H   0  0  0  0  0  0  0  0  0  0  0  0
   -1.7468   -0.2736   -0.8772 H   0  0  0  0  0  0  0  0  0  0  0  0
    1.4589    1.0518   -0.0003 H   0  0  0  0  0  0  0  0  0  0  0  0
  1  2  1  0
  1  4  1  0
  1  5  1  0
  1  6  1  0
  2  3  2  3
  3  7  1  0
M  RAD  1   2   2
M  END
>  <reaction>  (2) 
rmg_rxn_16802

>  <mol_properties>  (2) 
{"1": {"label": "acceptor", "atom_type": "Cd"}}

>  <type>  (2) 
r2

$$$$

     RDKit          3D

  8  7  0  0  0  0  0  0  0  0999 V2000
    1.2099   -0.1388    0.0025 C   0  0  0  0  0  0  0  0  0  0  0  0
   -0.1788    0.4141    0.0007 C   0  0  0  0  0  0  0  0  0  0  0  0
   -1.2100   -0.3603    0.0013 N   0  0  0  0  0  0  0  0  0  0  0  0
    1.7355    0.2223   -0.8851 H   0  0  0  0  0  0  0  0  0  0  0  0
    1.7521    0.1663    0.9007 H   0  0  0  0  0  0  0  0  0  0  0  0
    1.1564   -1.2296   -0.0424 H   0  0  0  0  0  0  0  0  0  0  0  0
   -0.2911    1.5112   -0.0010 H   0  0  0  0  0  0  0  0  0  0  0  0
   -2.0699    0.2005   -0.0002 H   0  0  0  0  0  0  0  0  0  0  0  0
  1  2  1  0
  1  4  1  0
  1  5  1  0
  1  6  1  0
  2  3  2  3
  2  7  1  0
  3  8  1  0
M  END
>  <reaction>  (3) 
rmg_rxn_16802

>  <mol_properties>  (3) 
{"0": {"label": "a_hydrogen", "atom_type": "H0"}, "2": {"label": "acceptor", "atom_type": "Cd"}}

>  <type>  (3) 
r2h

$$$$

     RDKit          3D

 13 11  0  0  0  0  0  0  0  0999 V2000
    2.3094    0.4522    0.2379 N   0  0  0  0  0  0  0  0  0  0  0  0
    1.4503   -0.4560   -0.4661 N   0  0  0  0  0  0  0  0  0  0  0  0
    3.2402    0.4980   -0.1886 H   0  0  0  0  0  0  0  0  0  0  0  0
    2.4544    0.1937    1.2180 H   0  0  0  0  0  0  0  0  0  0  0  0
    0.2702   -0.2904   -0.1617 H   0  0  0  0  0  0  0  0  0  0  0  0
    1.6609   -1.4401   -0.2773 H   0  0  0  0  0  0  0  0  0  0  0  0
   -1.5998    1.2310   -0.0975 C   0  0  0  0  0  0  0  0  0  0  0  0
   -0.9996   -0.1123    0.1658 C   0  0  0  0  0  3  0  0  0  0  0  0
   -1.7082   -1.1881    0.1051 N   0  0  0  0  0  0  0  0  0  0  0  0
   -1.1289    1.7084   -0.9601 H   0  0  0  0  0  0  0  0  0  0  0  0
   -2.6702    1.1100   -0.2826 H   0  0  0  0  0  0  0  0  0  0  0  0
   -1.4667    1.8576    0.7881 H   0  0  0  0  0  0  0  0  0  0  0  0
   -1.1237   -2.0055    0.3154 H   0  0  0  0  0  0  0  0  0  0  0  0
  1  2  1  0
  1  3  1  0
  1  4  1  0
  2  5  1  0
  2  6  1  0
  7  8  1  0
  7 10  1  0
  7 11  1  0
  7 12  1  0
  8  9  2  3
  9 13  1  0
M  RAD  1   8   2
M  END
>  <reaction>  (4) 
rmg_rxn_16802

>  <mol_properties>  (4) 
{"0": {"label": "*0", "atom_type": "N3s"}, "1": {"label": "*1", "atom_type": "N3s"}, "4": {"label": "*2", "atom_type": "H0"}, "7": {"label": "*3", "atom_type": "Cd"}, "8": {"label": "*4", "atom_type": "N3d"}}

>  <type>  (4) 
ts

$$$$

     RDKit          3D

 13 11  0  0  0  0  0  0  0  0999 V2000
    2.2630   -0.2357    0.1674 N   0  0  0  0  0  0  0  0  0  0  0  0
    1.4465    0.8238   -0.1397 N   0  0  0  0  0  0  0  0  0  0  0  0
    2.1305   -0.4978    1.1378 H   0  0  0  0  0  0  0  0  0  0  0  0
    2.1863   -1.0499   -0.4431 H   0  0  0  0  0  0  0  0  0  0  0  0
    0.2113    0.4940   -0.0389 H   0  0  0  0  0  0  0  0  0  0  0  0
    1.5664    1.0396   -1.1294 H   0  0  0  0  0  0  0  0  0  0  0  0
   -2.1147    0.8313    0.1088 C   0  0  0  0  0  0  0  0  0  0  0  0
   -0.9493   -0.0854   -0.0142 C   0  0  0  0  0  3  0  0  0  0  0  0
   -0.8777   -1.3241   -0.0989 N   0  0  0  0  0  0  0  0  0  0  0  0
   -2.1189    1.5244   -0.7309 H   0  0  0  0  0  0  0  0  0  0  0  0
   -3.0605    0.2842    0.1312 H   0  0  0  0  0  0  0  0  0  0  0  0
   -2.0139    1.4174    1.0207 H   0  0  0  0  0  0  0  0  0  0  0  0
   -1.7420   -1.8720   -0.0853 H   0  0  0  0  0  0  0  0  0  0  0  0
  1  2  1  0
  1  3  1  0
  1  4  1  0
  2  5  1  0
  2  6  1  0
  7  8  1  0
  7 10  1  0
  7 11  1  0
  7 12  1  0
  8  9  2  3
  9 13  1  0
M  RAD  1   8   2
M  END
>  <reaction>  (5) 
rmg_rxn_16802

>  <mol_properties>  (5) 
{"0": {"label": "*0", "atom_type": "N3s"}, "1": {"label": "*1", "atom_type": "N3s"}, "4": {"label": "*2", "atom_type": "H0"}, "7": {"label": "*3", "atom_type": "Cd"}, "8": {"label": "*4", "atom_type": "N3d"}}

>  <type>  (5) 
unop_1

>  <geom_source>  (5) 
crest_best.xyz

$$$$

     RDKit          3D

 13 11  0  0  0  0  0  0  0  0999 V2000
   -0.0305   -1.4927   -1.8946 N   0  0  0  0  0  0  0  0  0  0  0  0
   -0.0305   -1.4927   -0.4599 N   0  0  0  0  0  0  0  0  0  0  0  0
   -0.2858   -2.4108   -2.2717 H   0  0  0  0  0  0  0  0  0  0  0  0
    0.8809   -1.2589   -2.2987 H   0  0  0  0  0  0  0  0  0  0  0  0
   -0.0305   -0.3491   -0.0074 H   0  0  0  0  0  0  0  0  0  0  0  0
    0.7849   -1.9621   -0.0558 H   0  0  0  0  0  0  0  0  0  0  0  0
   -1.1780    1.2808    1.3500 C   0  0  0  0  0  0  0  0  0  0  0  0
   -0.0305    0.8815    0.4795 C   0  0  0  0  0  3  0  0  0  0  0  0
    1.1825    1.2018    0.7784 N   0  0  0  0  0  0  0  0  0  0  0  0
   -1.6978    0.4026    1.7406 H   0  0  0  0  0  0  0  0  0  0  0  0
   -0.7998    1.8837    2.1795 H   0  0  0  0  0  0  0  0  0  0  0  0
   -1.8719    1.8886    0.7638 H   0  0  0  0  0  0  0  0  0  0  0  0
    1.8266    0.8409    0.0651 H   0  0  0  0  0  0  0  0  0  0  0  0
  1  2  1  0
  1  3  1  0
  1  4  1  0
  2  5  1  0
  2  6  1  0
  7  8  1  0
  7 10  1  0
  7 11  1  0
  7 12  1  0
  8  9  2  3
  9 13  1  0
M  RAD  1   8   2
M  END
>  <reaction>  (6) 
rmg_rxn_16802

>  <mol_properties>  (6) 
{"0": {"label": "*0", "atom_type": "N3s"}, "1": {"label": "*1", "atom_type": "N3s"}, "4": {"label": "*2", "atom_type": "H0"}, "7": {"label": "*3", "atom_type": "Cd"}, "8": {"label": "*4", "atom_type": "N3d"}}

>  <type>  (6) 
unop_2

>  <geom_source>  (6) 
Heuristics

$$$$

     RDKit          3D

 13 11  0  0  0  0  0  0  0  0999 V2000
    0.0634   -1.5974   -1.7449 N   0  0  0  0  0  0  0  0  0  0  0  0
    0.0634   -1.5974   -0.3102 N   0  0  0  0  0  0  0  0  0  0  0  0
   -0.1920   -2.5155   -2.1220 H   0  0  0  0  0  0  0  0  0  0  0  0
    0.9747   -1.3636   -2.1490 H   0  0  0  0  0  0  0  0  0  0  0  0
    0.0634   -0.4538    0.1423 H   0  0  0  0  0  0  0  0  0  0  0  0
    0.8787   -2.0668    0.0939 H   0  0  0  0  0  0  0  0  0  0  0  0
   -0.5992    1.8421   -0.1835 C   0  0  0  0  0  0  0  0  0  0  0  0
    0.0634    0.7768    0.6292 C   0  0  0  0  0  3  0  0  0  0  0  0
    0.3151    0.9472    1.8825 N   0  0  0  0  0  0  0  0  0  0  0  0
   -1.5571    1.4951   -0.5781 H   0  0  0  0  0  0  0  0  0  0  0  0
   -0.7575    2.7208    0.4469 H   0  0  0  0  0  0  0  0  0  0  0  0
    0.0607    2.1186   -1.0096 H   0  0  0  0  0  0  0  0  0  0  0  0
    0.7697    0.1103    2.2659 H   0  0  0  0  0  0  0  0  0  0  0  0
  1  2  1  0
  1  3  1  0
  1  4  1  0
  2  5  1  0
  2  6  1  0
  7  8  1  0
  7 10  1  0
  7 11  1  0
  7 12  1  0
  8  9  2  3
  9 13  1  0
M  RAD  1   8   2
M  END
>  <reaction>  (7) 
rmg_rxn_16802

>  <mol_properties>  (7) 
{"0": {"label": "*0", "atom_type": "N3s"}, "1": {"label": "*1", "atom_type": "N3s"}, "4": {"label": "*2", "atom_type": "H0"}, "7": {"label": "*3", "atom_type": "Cd"}, "8": {"label": "*4", "atom_type": "N3d"}}

>  <type>  (7) 
unop_3

>  <geom_source>  (7) 
Heuristics

$$$$

     RDKit          3D

 13 11  0  0  0  0  0  0  0  0999 V2000
   -0.0918   -1.5303   -1.8543 N   0  0  0  0  0  0  0  0  0  0  0  0
   -0.0918   -1.5303   -0.4196 N   0  0  0  0  0  0  0  0  0  0  0  0
   -0.3471   -2.4485   -2.2314 H   0  0  0  0  0  0  0  0  0  0  0  0
    0.8196   -1.2965   -2.2584 H   0  0  0  0  0  0  0  0  0  0  0  0
   -0.0918   -0.3867    0.0329 H   0  0  0  0  0  0  0  0  0  0  0  0
    0.7236   -1.9997   -0.0155 H   0  0  0  0  0  0  0  0  0  0  0  0
   -0.7543    1.0647    1.8413 C   0  0  0  0  0  0  0  0  0  0  0  0
   -0.0918    0.8439    0.5198 C   0  0  0  0  0  3  0  0  0  0  0  0
    0.9378    1.5328    0.1612 N   0  0  0  0  0  0  0  0  0  0  0  0
   -0.7088    0.1639    2.4579 H   0  0  0  0  0  0  0  0  0  0  0  0
   -0.2523    1.8883    2.3554 H   0  0  0  0  0  0  0  0  0  0  0  0
   -1.7978    1.3424    1.6718 H   0  0  0  0  0  0  0  0  0  0  0  0
    1.2489    1.2388   -0.7719 H   0  0  0  0  0  0  0  0  0  0  0  0
  1  2  1  0
  1  3  1  0
  1  4  1  0
  2  5  1  0
  2  6  1  0
  7  8  1  0
  7 10  1  0
  7 11  1  0
  7 12  1  0
  8  9  2  3
  9 13  1  0
M  RAD  1   8   2
M  END
>  <reaction>  (8) 
rmg_rxn_16802

>  <mol_properties>  (8) 
{"0": {"label": "*0", "atom_type": "N3s"}, "1": {"label": "*1", "atom_type": "N3s"}, "4": {"label": "*2", "atom_type": "H0"}, "7": {"label": "*3", "atom_type": "Cd"}, "8": {"label": "*4", "atom_type": "N3d"}}

>  <type>  (8) 
unop_4

>  <geom_source>  (8) 
Heuristics

$$$$

     RDKit          3D

 13 11  0  0  0  0  0  0  0  0999 V2000
   -0.1322   -1.5487   -1.8129 N   0  0  0  0  0  0  0  0  0  0  0  0
   -0.1322   -1.5487   -0.3782 N   0  0  0  0  0  0  0  0  0  0  0  0
   -0.3876   -2.4668   -2.1900 H   0  0  0  0  0  0  0  0  0  0  0  0
    0.7791   -1.3149   -2.2170 H   0  0  0  0  0  0  0  0  0  0  0  0
   -0.1322   -0.4051    0.0743 H   0  0  0  0  0  0  0  0  0  0  0  0
    0.6832   -2.0181    0.0259 H   0  0  0  0  0  0  0  0  0  0  0  0
    1.0154    1.7124    0.1995 C   0  0  0  0  0  0  0  0  0  0  0  0
   -0.1322    0.8256    0.5612 C   0  0  0  0  0  3  0  0  0  0  0  0
   -0.7344    0.9358    1.6962 N   0  0  0  0  0  0  0  0  0  0  0  0
    0.7830    2.3139   -0.6825 H   0  0  0  0  0  0  0  0  0  0  0  0
    1.2352    2.3689    1.0452 H   0  0  0  0  0  0  0  0  0  0  0  0
    1.8930    1.0919    0.0010 H   0  0  0  0  0  0  0  0  0  0  0  0
   -1.4911    0.2449    1.7604 H   0  0  0  0  0  0  0  0  0  0  0  0
  1  2  1  0
  1  3  1  0
  1  4  1  0
  2  5  1  0
  2  6  1  0
  7  8  1  0
  7 10  1  0
  7 11  1  0
  7 12  1  0
  8  9  2  3
  9 13  1  0
M  RAD  1   8   2
M  END
>  <reaction>  (9) 
rmg_rxn_16802

>  <mol_properties>  (9) 
{"0": {"label": "*0", "atom_type": "N3s"}, "1": {"label": "*1", "atom_type": "N3s"}, "4": {"label": "*2", "atom_type": "H0"}, "7": {"label": "*3", "atom_type": "Cd"}, "8": {"label": "*4", "atom_type": "N3d"}}

>  <type>  (9) 
unop_5

>  <geom_source>  (9) 
Heuristics

$$$$

     RDKit          3D

 13 11  0  0  0  0  0  0  0  0999 V2000
   -0.0195   -1.5841   -1.8030 N   0  0  0  0  0  0  0  0  0  0  0  0
   -0.0195   -1.5841   -0.3683 N   0  0  0  0  0  0  0  0  0  0  0  0
   -0.2749   -2.5023   -2.1801 H   0  0  0  0  0  0  0  0  0  0  0  0
    0.8918   -1.3503   -2.2071 H   0  0  0  0  0  0  0  0  0  0  0  0
   -0.0195   -0.4405    0.0842 H   0  0  0  0  0  0  0  0  0  0  0  0
    0.7958   -2.0535    0.0358 H   0  0  0  0  0  0  0  0  0  0  0  0
   -0.0195    0.9456    2.0577 C   0  0  0  0  0  0  0  0  0  0  0  0
   -0.0195    0.7901    0.5711 C   0  0  0  0  0  3  0  0  0  0  0  0
   -0.0195    1.8152   -0.2114 N   0  0  0  0  0  0  0  0  0  0  0  0
    0.8788    0.5061    2.4977 H   0  0  0  0  0  0  0  0  0  0  0  0
   -0.0660    2.0099    2.3020 H   0  0  0  0  0  0  0  0  0  0  0  0
   -0.9069    0.4543    2.4647 H   0  0  0  0  0  0  0  0  0  0  0  0
   -0.0195    1.5086   -1.1912 H   0  0  0  0  0  0  0  0  0  0  0  0
  1  2  1  0
  1  3  1  0
  1  4  1  0
  2  5  1  0
  2  6  1  0
  7  8  1  0
  7 10  1  0
  7 11  1  0
  7 12  1  0
  8  9  2  3
  9 13  1  0
M  RAD  1   8   2
M  END
>  <reaction>  (10) 
rmg_rxn_16802

>  <mol_properties>  (10) 
{"0": {"label": "*0", "atom_type": "N3s"}, "1": {"label": "*1", "atom_type": "N3s"}, "4": {"label": "*2", "atom_type": "H0"}, "7": {"label": "*3", "atom_type": "Cd"}, "8": {"label": "*4", "atom_type": "N3d"}}

>  <type>  (10) 
unop_6

>  <geom_source>  (10) 
Heuristics

$$$$

     RDKit          3D

 13 11  0  0  0  0  0  0  0  0999 V2000
   -0.0917   -1.5050   -1.8753 N   0  0  0  0  0  0  0  0  0  0  0  0
   -0.0917   -1.5050   -0.4406 N   0  0  0  0  0  0  0  0  0  0  0  0
   -0.3471   -2.4231   -2.2523 H   0  0  0  0  0  0  0  0  0  0  0  0
    0.8196   -1.2712   -2.2794 H   0  0  0  0  0  0  0  0  0  0  0  0
   -0.0917   -0.3614    0.0119 H   0  0  0  0  0  0  0  0  0  0  0  0
    0.7237   -1.9744   -0.0364 H   0  0  0  0  0  0  0  0  0  0  0  0
    1.2334    1.5123    0.7533 C   0  0  0  0  0  0  0  0  0  0  0  0
   -0.0917    0.8693    0.4988 C   0  0  0  0  0  3  0  0  0  0  0  0
   -1.0748    1.0083    1.3219 N   0  0  0  0  0  0  0  0  0  0  0  0
    1.4813    2.2251   -0.0369 H   0  0  0  0  0  0  0  0  0  0  0  0
    1.1972    2.0282    1.7161 H   0  0  0  0  0  0  0  0  0  0  0  0
    2.0003    0.7350    0.8016 H   0  0  0  0  0  0  0  0  0  0  0  0
   -1.8955    0.4964    0.9777 H   0  0  0  0  0  0  0  0  0  0  0  0
  1  2  1  0
  1  3  1  0
  1  4  1  0
  2  5  1  0
  2  6  1  0
  7  8  1  0
  7 10  1  0
  7 11  1  0
  7 12  1  0
  8  9  2  3
  9 13  1  0
M  RAD  1   8   2
M  END
>  <reaction>  (11) 
rmg_rxn_16802

>  <mol_properties>  (11) 
{"0": {"label": "*0", "atom_type": "N3s"}, "1": {"label": "*1", "atom_type": "N3s"}, "4": {"label": "*2", "atom_type": "H0"}, "7": {"label": "*3", "atom_type": "Cd"}, "8": {"label": "*4", "atom_type": "N3d"}}

>  <type>  (11) 
unop_7

>  <geom_source>  (11) 
Heuristics

$$$$

     RDKit          3D

 13 11  0  0  0  0  0  0  0  0999 V2000
   -0.0095   -1.4919   -1.8951 N   0  0  0  0  0  0  0  0  0  0  0  0
   -0.0095   -1.4919   -0.4604 N   0  0  0  0  0  0  0  0  0  0  0  0
   -0.2648   -2.4100   -2.2722 H   0  0  0  0  0  0  0  0  0  0  0  0
    0.9019   -1.2581   -2.2992 H   0  0  0  0  0  0  0  0  0  0  0  0
   -0.0095   -0.3483   -0.0079 H   0  0  0  0  0  0  0  0  0  0  0  0
    0.8059   -1.9613   -0.0563 H   0  0  0  0  0  0  0  0  0  0  0  0
    1.1381    1.2816    1.3495 C   0  0  0  0  0  0  0  0  0  0  0  0
   -0.0095    0.8824    0.4790 C   0  0  0  0  0  3  0  0  0  0  0  0
   -1.2224    1.2026    0.7779 N   0  0  0  0  0  0  0  0  0  0  0  0
    1.8319    1.9308    0.8100 H   0  0  0  0  0  0  0  0  0  0  0  0
    0.7508    1.8055    2.2271 H   0  0  0  0  0  0  0  0  0  0  0  0
    1.6600    0.3807    1.6820 H   0  0  0  0  0  0  0  0  0  0  0  0
   -1.8665    0.8417    0.0646 H   0  0  0  0  0  0  0  0  0  0  0  0
  1  2  1  0
  1  3  1  0
  1  4  1  0
  2  5  1  0
  2  6  1  0
  7  8  1  0
  7 10  1  0
  7 11  1  0
  7 12  1  0
  8  9  2  3
  9 13  1  0
M  RAD  1   8   2
M  END
>  <reaction>  (12) 
rmg_rxn_16802

>  <mol_properties>  (12) 
{"0": {"label": "*0", "atom_type": "N3s"}, "1": {"label": "*1", "atom_type": "N3s"}, "4": {"label": "*2", "atom_type": "H0"}, "7": {"label": "*3", "atom_type": "Cd"}, "8": {"label": "*4", "atom_type": "N3d"}}

>  <type>  (12) 
unop_8

>  <geom_source>  (12) 
Heuristics

$$$$

     RDKit          3D

 13 11  0  0  0  0  0  0  0  0999 V2000
    0.0514   -1.5058   -1.8748 N   0  0  0  0  0  0  0  0  0  0  0  0
    0.0514   -1.5058   -0.4401 N   0  0  0  0  0  0  0  0  0  0  0  0
   -0.2040   -2.4239   -2.2519 H   0  0  0  0  0  0  0  0  0  0  0  0
    0.9627   -1.2720   -2.2789 H   0  0  0  0  0  0  0  0  0  0  0  0
    0.0514   -0.3622    0.0124 H   0  0  0  0  0  0  0  0  0  0  0  0
    0.8668   -1.9752   -0.0360 H   0  0  0  0  0  0  0  0  0  0  0  0
   -1.2737    1.5115    0.7537 C   0  0  0  0  0  0  0  0  0  0  0  0
    0.0514    0.8685    0.4993 C   0  0  0  0  0  3  0  0  0  0  0  0
    1.0344    1.0075    1.3223 N   0  0  0  0  0  0  0  0  0  0  0  0
   -2.0608    0.7605    0.8549 H   0  0  0  0  0  0  0  0  0  0  0  0
   -1.2096    2.1032    1.6705 H   0  0  0  0  0  0  0  0  0  0  0  0
   -1.5080    2.1802   -0.0784 H   0  0  0  0  0  0  0  0  0  0  0  0
    1.8552    0.4957    0.9782 H   0  0  0  0  0  0  0  0  0  0  0  0
  1  2  1  0
  1  3  1  0
  1  4  1  0
  2  5  1  0
  2  6  1  0
  7  8  1  0
  7 10  1  0
  7 11  1  0
  7 12  1  0
  8  9  2  3
  9 13  1  0
M  RAD  1   8   2
M  END
>  <reaction>  (13) 
rmg_rxn_16802

>  <mol_properties>  (13) 
{"0": {"label": "*0", "atom_type": "N3s"}, "1": {"label": "*1", "atom_type": "N3s"}, "4": {"label": "*2", "atom_type": "H0"}, "7": {"label": "*3", "atom_type": "Cd"}, "8": {"label": "*4", "atom_type": "N3d"}}

>  <type>  (13) 
unop_9

>  <geom_source>  (13) 
Heuristics

$$$$

     RDKit          3D

 13 11  0  0  0  0  0  0  0  0999 V2000
    2.2630   -0.2357    0.1674 N   0  0  0  0  0  0  0  0  0  0  0  0
    1.4465    0.8238   -0.1397 N   0  0  0  0  0  0  0  0  0  0  0  0
    2.1305   -0.4978    1.1378 H   0  0  0  0  0  0  0  0  0  0  0  0
    2.1863   -1.0499   -0.4431 H   0  0  0  0  0  0  0  0  0  0  0  0
    0.2113    0.4940   -0.0389 H   0  0  0  0  0  0  0  0  0  0  0  0
    1.5664    1.0396   -1.1294 H   0  0  0  0  0  0  0  0  0  0  0  0
   -2.1147    0.8313    0.1088 C   0  0  0  0  0  0  0  0  0  0  0  0
   -0.9493   -0.0854   -0.0142 C   0  0  0  0  0  3  0  0  0  0  0  0
   -0.8777   -1.3241   -0.0989 N   0  0  0  0  0  0  0  0  0  0  0  0
   -2.1189    1.5244   -0.7309 H   0  0  0  0  0  0  0  0  0  0  0  0
   -3.0605    0.2842    0.1312 H   0  0  0  0  0  0  0  0  0  0  0  0
   -2.0139    1.4174    1.0207 H   0  0  0  0  0  0  0  0  0  0  0  0
   -1.7420   -1.8720   -0.0853 H   0  0  0  0  0  0  0  0  0  0  0  0
  1  2  1  0
  1  3  1  0
  1  4  1  0
  2  5  1  0
  2  6  1  0
  7  8  1  0
  7 10  1  0
  7 11  1  0
  7 12  1  0
  8  9  2  3
  9 13  1  0
M  RAD  1   8   2
M  END
>  <reaction>  (14) 
rmg_rxn_16802

>  <mol_properties>  (14) 
{"0": {"label": "*0", "atom_type": "N3s"}, "1": {"label": "*1", "atom_type": "N3s"}, "4": {"label": "*2", "atom_type": "H0"}, "7": {"label": "*3", "atom_type": "Cd"}, "8": {"label": "*4", "atom_type": "N3d"}}

>  <type>  (14) 
unop_10

>  <geom_source>  (14) 
Heuristics

$$$$

     RDKit          3D

 13 11  0  0  0  0  0  0  0  0999 V2000
   -0.1043   -1.5970   -1.7451 N   0  0  0  0  0  0  0  0  0  0  0  0
   -0.1043   -1.5970   -0.3104 N   0  0  0  0  0  0  0  0  0  0  0  0
   -0.3596   -2.5152   -2.1222 H   0  0  0  0  0  0  0  0  0  0  0  0
    0.8071   -1.3632   -2.1492 H   0  0  0  0  0  0  0  0  0  0  0  0
   -0.1043   -0.4534    0.1421 H   0  0  0  0  0  0  0  0  0  0  0  0
    0.7111   -2.0664    0.0937 H   0  0  0  0  0  0  0  0  0  0  0  0
    0.5583    1.8425   -0.1837 C   0  0  0  0  0  0  0  0  0  0  0  0
   -0.1043    0.7772    0.6290 C   0  0  0  0  0  3  0  0  0  0  0  0
   -0.3560    0.9476    1.8823 N   0  0  0  0  0  0  0  0  0  0  0  0
   -0.0925    2.1787   -0.9944 H   0  0  0  0  0  0  0  0  0  0  0  0
    0.7998    2.6859    0.4682 H   0  0  0  0  0  0  0  0  0  0  0  0
    1.4875    1.4441   -0.5989 H   0  0  0  0  0  0  0  0  0  0  0  0
   -0.8106    0.1107    2.2657 H   0  0  0  0  0  0  0  0  0  0  0  0
  1  2  1  0
  1  3  1  0
  1  4  1  0
  2  5  1  0
  2  6  1  0
  7  8  1  0
  7 10  1  0
  7 11  1  0
  7 12  1  0
  8  9  2  3
  9 13  1  0
M  RAD  1   8   2
M  END
>  <reaction>  (15) 
rmg_rxn_16802

>  <mol_properties>  (15) 
{"0": {"label": "*0", "atom_type": "N3s"}, "1": {"label": "*1", "atom_type": "N3s"}, "4": {"label": "*2", "atom_type": "H0"}, "7": {"label": "*3", "atom_type": "Cd"}, "8": {"label": "*4", "atom_type": "N3d"}}

>  <type>  (15) 
unop_11

>  <geom_source>  (15) 
Heuristics

$$$$

     RDKit          3D

 13 11  0  0  0  0  0  0  0  0999 V2000
    0.0916   -1.5493   -1.8125 N   0  0  0  0  0  0  0  0  0  0  0  0
    0.0916   -1.5493   -0.3778 N   0  0  0  0  0  0  0  0  0  0  0  0
   -0.1638   -2.4675   -2.1896 H   0  0  0  0  0  0  0  0  0  0  0  0
    1.0029   -1.3155   -2.2166 H   0  0  0  0  0  0  0  0  0  0  0  0
    0.0916   -0.4057    0.0747 H   0  0  0  0  0  0  0  0  0  0  0  0
    0.9069   -2.0187    0.0263 H   0  0  0  0  0  0  0  0  0  0  0  0
   -1.0560    1.7117    0.1999 C   0  0  0  0  0  0  0  0  0  0  0  0
    0.0916    0.8249    0.5616 C   0  0  0  0  0  3  0  0  0  0  0  0
    0.6938    0.9351    1.6966 N   0  0  0  0  0  0  0  0  0  0  0  0
   -1.9661    1.1289    0.0391 H   0  0  0  0  0  0  0  0  0  0  0  0
   -1.2168    2.4295    1.0083 H   0  0  0  0  0  0  0  0  0  0  0  0
   -0.8051    2.2612   -0.7110 H   0  0  0  0  0  0  0  0  0  0  0  0
    1.4505    0.2443    1.7608 H   0  0  0  0  0  0  0  0  0  0  0  0
  1  2  1  0
  1  3  1  0
  1  4  1  0
  2  5  1  0
  2  6  1  0
  7  8  1  0
  7 10  1  0
  7 11  1  0
  7 12  1  0
  8  9  2  3
  9 13  1  0
M  RAD  1   8   2
M  END
>  <reaction>  (16) 
rmg_rxn_16802

>  <mol_properties>  (16) 
{"0": {"label": "*0", "atom_type": "N3s"}, "1": {"label": "*1", "atom_type": "N3s"}, "4": {"label": "*2", "atom_type": "H0"}, "7": {"label": "*3", "atom_type": "Cd"}, "8": {"label": "*4", "atom_type": "N3d"}}

>  <type>  (16) 
unop_12

>  <geom_source>  (16) 
Heuristics

$$$$

     RDKit          3D

 13 11  0  0  0  0  0  0  0  0999 V2000
    0.0523   -1.5297   -1.8547 N   0  0  0  0  0  0  0  0  0  0  0  0
    0.0523   -1.5297   -0.4200 N   0  0  0  0  0  0  0  0  0  0  0  0
   -0.2031   -2.4478   -2.2318 H   0  0  0  0  0  0  0  0  0  0  0  0
    0.9636   -1.2959   -2.2588 H   0  0  0  0  0  0  0  0  0  0  0  0
    0.0523   -0.3861    0.0325 H   0  0  0  0  0  0  0  0  0  0  0  0
    0.8677   -1.9991   -0.0159 H   0  0  0  0  0  0  0  0  0  0  0  0
    0.7149    1.0654    1.8409 C   0  0  0  0  0  0  0  0  0  0  0  0
    0.0523    0.8446    0.5194 C   0  0  0  0  0  3  0  0  0  0  0  0
   -0.9772    1.5335    0.1608 N   0  0  0  0  0  0  0  0  0  0  0  0
    1.7498    1.3906    1.7109 H   0  0  0  0  0  0  0  0  0  0  0  0
    0.1570    1.8255    2.3937 H   0  0  0  0  0  0  0  0  0  0  0  0
    0.6910    0.1319    2.4089 H   0  0  0  0  0  0  0  0  0  0  0  0
   -1.2884    1.2395   -0.7723 H   0  0  0  0  0  0  0  0  0  0  0  0
  1  2  1  0
  1  3  1  0
  1  4  1  0
  2  5  1  0
  2  6  1  0
  7  8  1  0
  7 10  1  0
  7 11  1  0
  7 12  1  0
  8  9  2  3
  9 13  1  0
M  RAD  1   8   2
M  END
>  <reaction>  (17) 
rmg_rxn_16802

>  <mol_properties>  (17) 
{"0": {"label": "*0", "atom_type": "N3s"}, "1": {"label": "*1", "atom_type": "N3s"}, "4": {"label": "*2", "atom_type": "H0"}, "7": {"label": "*3", "atom_type": "Cd"}, "8": {"label": "*4", "atom_type": "N3d"}}

>  <type>  (17) 
unop_13

>  <geom_source>  (17) 
Heuristics

$$$$

     RDKit          3D

 13 11  0  0  0  0  0  0  0  0999 V2000
   -0.0205   -1.6188   -1.7153 N   0  0  0  0  0  0  0  0  0  0  0  0
   -0.0205   -1.6188   -0.2806 N   0  0  0  0  0  0  0  0  0  0  0  0
   -0.2759   -2.5370   -2.0924 H   0  0  0  0  0  0  0  0  0  0  0  0
    0.8908   -1.3850   -2.1194 H   0  0  0  0  0  0  0  0  0  0  0  0
   -0.0205   -0.4752    0.1719 H   0  0  0  0  0  0  0  0  0  0  0  0
    0.7949   -2.0882    0.1235 H   0  0  0  0  0  0  0  0  0  0  0  0
   -0.0205    1.8860   -0.3189 C   0  0  0  0  0  0  0  0  0  0  0  0
   -0.0205    0.7554    0.6588 C   0  0  0  0  0  3  0  0  0  0  0  0
   -0.0205    0.9676    1.9308 N   0  0  0  0  0  0  0  0  0  0  0  0
   -0.9188    1.8665   -0.9406 H   0  0  0  0  0  0  0  0  0  0  0  0
    0.0260    2.8293    0.2311 H   0  0  0  0  0  0  0  0  0  0  0  0
    0.8669    1.8061   -0.9520 H   0  0  0  0  0  0  0  0  0  0  0  0
   -0.0205    0.0736    2.4356 H   0  0  0  0  0  0  0  0  0  0  0  0
  1  2  1  0
  1  3  1  0
  1  4  1  0
  2  5  1  0
  2  6  1  0
  7  8  1  0
  7 10  1  0
  7 11  1  0
  7 12  1  0
  8  9  2  3
  9 13  1  0
M  RAD  1   8   2
M  END
>  <reaction>  (18) 
rmg_rxn_16802

>  <mol_properties>  (18) 
{"0": {"label": "*0", "atom_type": "N3s"}, "1": {"label": "*1", "atom_type": "N3s"}, "4": {"label": "*2", "atom_type": "H0"}, "7": {"label": "*3", "atom_type": "Cd"}, "8": {"label": "*4", "atom_type": "N3d"}}

>  <type>  (18) 
unop_14

>  <geom_source>  (18) 
Heuristics

$$$$

     RDKit          3D

 13 11  0  0  0  0  0  0  0  0999 V2000
    0.0634   -1.5974   -1.7449 N   0  0  0  0  0  0  0  0  0  0  0  0
    0.0634   -1.5974   -0.3102 N   0  0  0  0  0  0  0  0  0  0  0  0
   -0.1920   -2.5155   -2.1220 H   0  0  0  0  0  0  0  0  0  0  0  0
    0.9747   -1.3636   -2.1490 H   0  0  0  0  0  0  0  0  0  0  0  0
    0.0634   -0.4538    0.1423 H   0  0  0  0  0  0  0  0  0  0  0  0
    0.8787   -2.0668    0.0940 H   0  0  0  0  0  0  0  0  0  0  0  0
   -0.5992    1.8421   -0.1835 C   0  0  0  0  0  0  0  0  0  0  0  0
    0.0634    0.7769    0.6292 C   0  0  0  0  0  3  0  0  0  0  0  0
    0.3151    0.9472    1.8825 N   0  0  0  0  0  0  0  0  0  0  0  0
   -1.5572    1.4951   -0.5781 H   0  0  0  0  0  0  0  0  0  0  0  0
   -0.7575    2.7208    0.4469 H   0  0  0  0  0  0  0  0  0  0  0  0
    0.0607    2.1186   -1.0096 H   0  0  0  0  0  0  0  0  0  0  0  0
    0.7697    0.1103    2.2659 H   0  0  0  0  0  0  0  0  0  0  0  0
  1  2  1  0
  1  3  1  0
  1  4  1  0
  2  5  1  0
  2  6  1  0
  7  8  1  0
  7 10  1  0
  7 11  1  0
  7 12  1  0
  8  9  2  3
  9 13  1  0
M  RAD  1   8   2
M  END
>  <reaction>  (19) 
rmg_rxn_16802

>  <mol_properties>  (19) 
{"0": {"label": "*0", "atom_type": "N3s"}, "1": {"label": "*1", "atom_type": "N3s"}, "4": {"label": "*2", "atom_type": "H0"}, "7": {"label": "*3", "atom_type": "Cd"}, "8": {"label": "*4", "atom_type": "N3d"}}

>  <type>  (19) 
unop_15

>  <geom_source>  (19) 
gaussian_log

$$$$
