
     RDKit          3D

  9  8  0  0  0  0  0  0  0  0999 V2000
   -1.2461    0.5037    0.0950 C   0  0  0  0  0  0  0  0  0  0  0  0
   -0.0155   -0.3334    0.0640 C   0  0  0  0  0  0  0  0  0  0  0  0
    1.0697    0.1457   -0.3733 N   0  0  0  0  0  0  0  0  0  0  0  0
    2.1001   -0.7834   -0.3224 O   0  0  0  0  0  0  0  0  0  0  0  0
   -2.0357    0.0440   -0.5039 H   0  0  0  0  0  0  0  0  0  0  0  0
   -1.6237    0.5897    1.1166 H   0  0  0  0  0  0  0  0  0  0  0  0
   -1.0397    1.4998   -0.2929 H   0  0  0  0  0  0  0  0  0  0  0  0
   -0.0537   -1.3634    0.4205 H   0  0  0  0  0  0  0  0  0  0  0  0
    2.8478   -0.2985   -0.6758 H   0  0  0  0  0  0  0  0  0  0  0  0
  1  2  1  0
  1  5  1  0
  1  6  1  0
  1  7  1  0
  2  3  2  3
  2  8  1  0
  3  4  1  0
  4  9  1  0
M  END
>  <reaction>  (1) 
rmg_rxn_52

>  <mol_properties>  (1) 
{"3": {"label": "donator", "atom_type": "O2s"}, "8": {"label": "d_hydrogen", "atom_type": "H0"}}

>  <type>  (1) 
r1h

$$$$

     RDKit          3D

  4  3  0  0  0  0  0  0  0  0999 V2000
    1.2191   -0.0447   -0.0369 N   0  0  0  0  0  1  0  0  0  0  0  0
   -0.0876   -0.0060    0.2202 N   0  0  0  0  0  0  0  0  0  0  0  0
   -0.5966   -0.8143   -0.1273 H   0  0  0  0  0  0  0  0  0  0  0  0
   -0.5329    0.8649   -0.0563 H   0  0  0  0  0  0  0  0  0  0  0  0
  1  2  1  0
  2  3  1  0
  2  4  1  0
M  RAD  1   1   3
M  END
>  <reaction>  (2) 
rmg_rxn_52

>  <mol_properties>  (2) 
{"0": {"label": "acceptor", "atom_type": "N3s"}}

>  <type>  (2) 
r2

$$$$

     RDKit          3D

  5  4  0  0  0  0  0  0  0  0999 V2000
    0.7361   -0.2872    0.4035 N   0  0  0  0  0  2  0  0  0  0  0  0
   -0.3891   -0.1505   -0.3131 N   0  0  0  0  0  0  0  0  0  0  0  0
    1.4909    0.0686   -0.1831 H   0  0  0  0  0  0  0  0  0  0  0  0
   -1.1819   -0.6340    0.0744 H   0  0  0  0  0  0  0  0  0  0  0  0
   -0.3592   -0.1189   -1.3223 H   0  0  0  0  0  0  0  0  0  0  0  0
  1  2  1  0
  1  3  1  0
  2  4  1  0
  2  5  1  0
M  RAD  1   1   2
M  END
>  <reaction>  (3) 
rmg_rxn_52

>  <mol_properties>  (3) 
{"0": {"label": "acceptor", "atom_type": "N3s"}, "4": {"label": "a_hydrogen", "atom_type": "H0"}}

>  <type>  (3) 
r2h

$$$$

     RDKit          3D

 13 11  0  0  0  0  0  0  0  0999 V2000
   -0.0814    1.6308    1.8086 N   0  0  0  0  0  2  0  0  0  0  0  0
    0.1025    2.1360    0.6056 N   0  0  0  0  0  0  0  0  0  0  0  0
   -0.3262    3.0372    0.4433 H   0  0  0  0  0  0  0  0  0  0  0  0
    0.0201    1.4416   -0.1576 H   0  0  0  0  0  0  0  0  0  0  0  0
   -0.0359   -1.3085   -2.4093 C   0  0  0  0  0  0  0  0  0  0  0  0
   -0.0018   -1.4934   -0.9327 C   0  0  0  0  0  3  0  0  0  0  0  0
   -0.0147   -0.4920   -0.1520 N   0  0  0  0  0  2  0  0  0  0  0  0
    0.0212   -0.6866    1.1424 O   0  0  0  0  0  1  0  0  0  0  0  0
    0.8479   -1.7529   -2.8730 H   0  0  0  0  0  0  0  0  0  0  0  0
   -0.9096   -1.8037   -2.8393 H   0  0  0  0  0  0  0  0  0  0  0  0
   -0.0710   -0.2503   -2.6650 H   0  0  0  0  0  0  0  0  0  0  0  0
    0.0355   -2.4976   -0.5137 H   0  0  0  0  0  0  0  0  0  0  0  0
   -0.0555    0.4704    1.6934 H   0  0  0  0  0  0  0  0  0  0  0  0
  1  2  1  0
  1 13  1  0
  2  3  1  0
  2  4  1  0
  5 11  1  0
  5  9  1  0
  5  6  1  0
  5 10  1  0
  6  7  1  0
  6 12  1  0
  7  8  1  0
M  RAD  4   1   2   6   2   7   2   8   2
M  END
>  <reaction>  (4) 
rmg_rxn_52

>  <mol_properties>  (4) 
{"0": {"label": "*1", "atom_type": "N3s"}, "1": {"label": "*0", "atom_type": "N3s"}, "6": {"label": "*4", "atom_type": "N3s"}, "7": {"label": "*3", "atom_type": "O2s"}, "12": {"label": "*2", "atom_type": "H0"}}

>  <type>  (4) 
ts

$$$$

     RDKit          3D

 13 11  0  0  0  0  0  0  0  0999 V2000
    0.2073    1.6937    1.5390 N   0  0  0  0  0  1  0  0  0  0  0  0
   -0.9083    1.8032    2.2751 N   0  0  0  0  0  0  0  0  0  0  0  0
   -0.7505    2.1453    3.2081 H   0  0  0  0  0  0  0  0  0  0  0  0
   -1.6541    1.1275    2.1881 H   0  0  0  0  0  0  0  0  0  0  0  0
    0.2073   -1.4015   -2.8334 C   0  0  0  0  0  0  0  0  0  0  0  0
    0.2073   -1.4015   -1.3448 C   0  0  0  0  0  0  0  0  0  0  0  0
    0.2073   -0.3094   -0.7080 N   0  0  0  0  0  0  0  0  0  0  0  0
    0.2073   -0.5141    0.6652 O   0  0  0  0  0  0  0  0  0  0  0  0
    1.0867   -1.9253   -3.2152 H   0  0  0  0  0  0  0  0  0  0  0  0
   -0.6721   -1.9253   -3.2152 H   0  0  0  0  0  0  0  0  0  0  0  0
    0.2073   -0.3818   -3.2149 H   0  0  0  0  0  0  0  0  0  0  0  0
    0.2073   -2.3490   -0.8046 H   0  0  0  0  0  0  0  0  0  0  0  0
    0.2073    0.5556    1.0886 H   0  0  0  0  0  0  0  0  0  0  0  0
  1  2  1  0
  2  3  1  0
  2  4  1  0
  5  6  1  0
  5  9  1  0
  5 10  1  0
  5 11  1  0
  6  7  2  3
  6 12  1  0
  7  8  1  0
  8 13  1  0
M  RAD  1   1   3
M  END
>  <reaction>  (5) 
rmg_rxn_52

>  <mol_properties>  (5) 
{"0": {"label": "*1", "atom_type": "N3s"}, "1": {"label": "*0", "atom_type": "N3s"}, "6": {"label": "*4", "atom_type": "N3s"}, "7": {"label": "*3", "atom_type": "O2s"}, "12": {"label": "*2", "atom_type": "H0"}}

>  <type>  (5) 
unop_1

>  <geom_source>  (5) 
Heuristics

$$$$

     RDKit          3D

 13 11  0  0  0  0  0  0  0  0999 V2000
    0.1265    1.5694    1.8475 N   0  0  0  0  0  1  0  0  0  0  0  0
   -0.5176    2.3265    0.9474 N   0  0  0  0  0  0  0  0  0  0  0  0
   -1.0177    3.1021    1.3485 H   0  0  0  0  0  0  0  0  0  0  0  0
   -0.9546    1.9090    0.1380 H   0  0  0  0  0  0  0  0  0  0  0  0
    0.1264   -1.5258   -2.5250 C   0  0  0  0  0  0  0  0  0  0  0  0
    0.1264   -1.5258   -1.0363 C   0  0  0  0  0  0  0  0  0  0  0  0
    0.1264   -0.4337   -0.3995 N   0  0  0  0  0  0  0  0  0  0  0  0
    0.1264   -0.6384    0.9737 O   0  0  0  0  0  0  0  0  0  0  0  0
    1.0059   -2.0496   -2.9068 H   0  0  0  0  0  0  0  0  0  0  0  0
   -0.7530   -2.0496   -2.9068 H   0  0  0  0  0  0  0  0  0  0  0  0
    0.1265   -0.5061   -2.9064 H   0  0  0  0  0  0  0  0  0  0  0  0
    0.1264   -2.4733   -0.4962 H   0  0  0  0  0  0  0  0  0  0  0  0
    0.1265    0.4313    1.3971 H   0  0  0  0  0  0  0  0  0  0  0  0
  1  2  1  0
  2  3  1  0
  2  4  1  0
  5  6  1  0
  5  9  1  0
  5 10  1  0
  5 11  1  0
  6  7  2  3
  6 12  1  0
  7  8  1  0
  8 13  1  0
M  RAD  1   1   3
M  END
>  <reaction>  (6) 
rmg_rxn_52

>  <mol_properties>  (6) 
{"0": {"label": "*1", "atom_type": "N3s"}, "1": {"label": "*0", "atom_type": "N3s"}, "6": {"label": "*4", "atom_type": "N3s"}, "7": {"label": "*3", "atom_type": "O2s"}, "12": {"label": "*2", "atom_type": "H0"}}

>  <type>  (6) 
unop_2

>  <geom_source>  (6) 
Heuristics

$$$$

     RDKit          3D

 13 11  0  0  0  0  0  0  0  0999 V2000
    0.1159    1.7245    1.4580 N   0  0  0  0  0  1  0  0  0  0  0  0
   -0.5282    1.6606    2.6324 N   0  0  0  0  0  0  0  0  0  0  0  0
   -0.1155    2.2246    3.3563 H   0  0  0  0  0  0  0  0  0  0  0  0
   -0.9426    0.7954    2.9489 H   0  0  0  0  0  0  0  0  0  0  0  0
    0.1159   -1.3707   -2.9145 C   0  0  0  0  0  0  0  0  0  0  0  0
    0.1159   -1.3707   -1.4258 C   0  0  0  0  0  0  0  0  0  0  0  0
    0.1159   -0.2786   -0.7890 N   0  0  0  0  0  0  0  0  0  0  0  0
    0.1159   -0.4833    0.5842 O   0  0  0  0  0  0  0  0  0  0  0  0
    0.9953   -1.8945   -3.2963 H   0  0  0  0  0  0  0  0  0  0  0  0
   -0.7635   -1.8945   -3.2963 H   0  0  0  0  0  0  0  0  0  0  0  0
    0.1159   -0.3510   -3.2959 H   0  0  0  0  0  0  0  0  0  0  0  0
    0.1159   -2.3182   -0.8857 H   0  0  0  0  0  0  0  0  0  0  0  0
    0.1159    0.5864    1.0075 H   0  0  0  0  0  0  0  0  0  0  0  0
  1  2  1  0
  2  3  1  0
  2  4  1  0
  5  6  1  0
  5  9  1  0
  5 10  1  0
  5 11  1  0
  6  7  2  3
  6 12  1  0
  7  8  1  0
  8 13  1  0
M  RAD  1   1   3
M  END
>  <reaction>  (7) 
rmg_rxn_52

>  <mol_properties>  (7) 
{"0": {"label": "*1", "atom_type": "N3s"}, "1": {"label": "*0", "atom_type": "N3s"}, "6": {"label": "*4", "atom_type": "N3s"}, "7": {"label": "*3", "atom_type": "O2s"}, "12": {"label": "*2", "atom_type": "H0"}}

>  <type>  (7) 
unop_3

>  <geom_source>  (7) 
Heuristics

$$$$

     RDKit          3D

 13 11  0  0  0  0  0  0  0  0999 V2000
   -0.2060    1.5949    1.7691 N   0  0  0  0  0  1  0  0  0  0  0  0
    0.9095    2.1785    1.3074 N   0  0  0  0  0  0  0  0  0  0  0  0
    1.2129    2.9686    1.8516 H   0  0  0  0  0  0  0  0  0  0  0  0
    1.0826    2.2515    0.3149 H   0  0  0  0  0  0  0  0  0  0  0  0
   -0.2060   -1.5003   -2.6034 C   0  0  0  0  0  0  0  0  0  0  0  0
   -0.2060   -1.5003   -1.1147 C   0  0  0  0  0  0  0  0  0  0  0  0
   -0.2060   -0.4082   -0.4779 N   0  0  0  0  0  0  0  0  0  0  0  0
   -0.2060   -0.6129    0.8953 O   0  0  0  0  0  0  0  0  0  0  0  0
    0.6734   -2.0241   -2.9852 H   0  0  0  0  0  0  0  0  0  0  0  0
   -1.0855   -2.0241   -2.9852 H   0  0  0  0  0  0  0  0  0  0  0  0
   -0.2060   -0.4806   -2.9848 H   0  0  0  0  0  0  0  0  0  0  0  0
   -0.2060   -2.4478   -0.5746 H   0  0  0  0  0  0  0  0  0  0  0  0
   -0.2060    0.4567    1.3187 H   0  0  0  0  0  0  0  0  0  0  0  0
  1  2  1  0
  2  3  1  0
  2  4  1  0
  5  6  1  0
  5  9  1  0
  5 10  1  0
  5 11  1  0
  6  7  2  3
  6 12  1  0
  7  8  1  0
  8 13  1  0
M  RAD  1   1   3
M  END
>  <reaction>  (8) 
rmg_rxn_52

>  <mol_properties>  (8) 
{"0": {"label": "*1", "atom_type": "N3s"}, "1": {"label": "*0", "atom_type": "N3s"}, "6": {"label": "*4", "atom_type": "N3s"}, "7": {"label": "*3", "atom_type": "O2s"}, "12": {"label": "*2", "atom_type": "H0"}}

>  <type>  (8) 
unop_4

>  <geom_source>  (8) 
Heuristics

$$$$

     RDKit          3D

 13 11  0  0  0  0  0  0  0  0999 V2000
   -0.0062    1.7323    1.4303 N   0  0  0  0  0  1  0  0  0  0  0  0
   -0.0062    1.6048    2.7652 N   0  0  0  0  0  0  0  0  0  0  0  0
    0.1817    2.4618    3.2578 H   0  0  0  0  0  0  0  0  0  0  0  0
    0.3558    0.7708    3.2054 H   0  0  0  0  0  0  0  0  0  0  0  0
   -0.0062   -1.3629   -2.9421 C   0  0  0  0  0  0  0  0  0  0  0  0
   -0.0062   -1.3629   -1.4535 C   0  0  0  0  0  0  0  0  0  0  0  0
   -0.0062   -0.2708   -0.8167 N   0  0  0  0  0  0  0  0  0  0  0  0
   -0.0062   -0.4755    0.5565 O   0  0  0  0  0  0  0  0  0  0  0  0
    0.8732   -1.8867   -3.3239 H   0  0  0  0  0  0  0  0  0  0  0  0
   -0.8856   -1.8867   -3.3239 H   0  0  0  0  0  0  0  0  0  0  0  0
   -0.0062   -0.3432   -3.3236 H   0  0  0  0  0  0  0  0  0  0  0  0
   -0.0062   -2.3104   -0.9133 H   0  0  0  0  0  0  0  0  0  0  0  0
   -0.0062    0.5942    0.9799 H   0  0  0  0  0  0  0  0  0  0  0  0
  1  2  1  0
  2  3  1  0
  2  4  1  0
  5  6  1  0
  5  9  1  0
  5 10  1  0
  5 11  1  0
  6  7  2  3
  6 12  1  0
  7  8  1  0
  8 13  1  0
M  RAD  1   1   3
M  END
>  <reaction>  (9) 
rmg_rxn_52

>  <mol_properties>  (9) 
{"0": {"label": "*1", "atom_type": "N3s"}, "1": {"label": "*0", "atom_type": "N3s"}, "6": {"label": "*4", "atom_type": "N3s"}, "7": {"label": "*3", "atom_type": "O2s"}, "12": {"label": "*2", "atom_type": "H0"}}

>  <type>  (9) 
unop_5

>  <geom_source>  (9) 
Heuristics

$$$$

     RDKit          3D

 13 11  0  0  0  0  0  0  0  0999 V2000
   -0.2404    1.6387    1.6571 N   0  0  0  0  0  1  0  0  0  0  0  0
    1.0478    1.9852    1.7943 N   0  0  0  0  0  0  0  0  0  0  0  0
    1.2161    2.6501    2.5305 H   0  0  0  0  0  0  0  0  0  0  0  0
    1.6466    2.0815    0.9865 H   0  0  0  0  0  0  0  0  0  0  0  0
   -0.2404   -1.4565   -2.7153 C   0  0  0  0  0  0  0  0  0  0  0  0
   -0.2404   -1.4565   -1.2267 C   0  0  0  0  0  0  0  0  0  0  0  0
   -0.2404   -0.3645   -0.5899 N   0  0  0  0  0  0  0  0  0  0  0  0
   -0.2404   -0.5691    0.7833 O   0  0  0  0  0  0  0  0  0  0  0  0
    0.6390   -1.9804   -3.0971 H   0  0  0  0  0  0  0  0  0  0  0  0
   -1.1198   -1.9804   -3.0971 H   0  0  0  0  0  0  0  0  0  0  0  0
   -0.2404   -0.4368   -3.0968 H   0  0  0  0  0  0  0  0  0  0  0  0
   -0.2404   -2.4040   -0.6865 H   0  0  0  0  0  0  0  0  0  0  0  0
   -0.2404    0.5005    1.2067 H   0  0  0  0  0  0  0  0  0  0  0  0
  1  2  1  0
  2  3  1  0
  2  4  1  0
  5  6  1  0
  5  9  1  0
  5 10  1  0
  5 11  1  0
  6  7  2  3
  6 12  1  0
  7  8  1  0
  8 13  1  0
M  RAD  1   1   3
M  END
>  <reaction>  (10) 
rmg_rxn_52

>  <mol_properties>  (10) 
{"0": {"label": "*1", "atom_type": "N3s"}, "1": {"label": "*0", "atom_type": "N3s"}, "6": {"label": "*4", "atom_type": "N3s"}, "7": {"label": "*3", "atom_type": "O2s"}, "12": {"label": "*2", "atom_type": "H0"}}

>  <type>  (10) 
unop_6

>  <geom_source>  (10) 
Heuristics

$$$$

     RDKit          3D

 13 11  0  0  0  0  0  0  0  0999 V2000
   -0.2102    1.6831    1.5449 N   0  0  0  0  0  1  0  0  0  0  0  0
    0.9054    1.7927    2.2810 N   0  0  0  0  0  0  0  0  0  0  0  0
    0.8339    2.4542    3.0358 H   0  0  0  0  0  0  0  0  0  0  0  0
    1.8173    1.7323    1.8506 H   0  0  0  0  0  0  0  0  0  0  0  0
   -0.2102   -1.4121   -2.8275 C   0  0  0  0  0  0  0  0  0  0  0  0
   -0.2102   -1.4121   -1.3389 C   0  0  0  0  0  0  0  0  0  0  0  0
   -0.2102   -0.3200   -0.7021 N   0  0  0  0  0  0  0  0  0  0  0  0
   -0.2102   -0.5247    0.6711 O   0  0  0  0  0  0  0  0  0  0  0  0
    0.6692   -1.9359   -3.2093 H   0  0  0  0  0  0  0  0  0  0  0  0
   -1.0896   -1.9359   -3.2093 H   0  0  0  0  0  0  0  0  0  0  0  0
   -0.2102   -0.3924   -3.2090 H   0  0  0  0  0  0  0  0  0  0  0  0
   -0.2102   -2.3596   -0.7987 H   0  0  0  0  0  0  0  0  0  0  0  0
   -0.2102    0.5450    1.0945 H   0  0  0  0  0  0  0  0  0  0  0  0
  1  2  1  0
  2  3  1  0
  2  4  1  0
  5  6  1  0
  5  9  1  0
  5 10  1  0
  5 11  1  0
  6  7  2  3
  6 12  1  0
  7  8  1  0
  8 13  1  0
M  RAD  1   1   3
M  END
>  <reaction>  (11) 
rmg_rxn_52

>  <mol_properties>  (11) 
{"0": {"label": "*1", "atom_type": "N3s"}, "1": {"label": "*0", "atom_type": "N3s"}, "6": {"label": "*4", "atom_type": "N3s"}, "7": {"label": "*3", "atom_type": "O2s"}, "12": {"label": "*2", "atom_type": "H0"}}

>  <type>  (11) 
unop_7

>  <geom_source>  (11) 
Heuristics

$$$$

     RDKit          3D

 13 11  0  0  0  0  0  0  0  0999 V2000
    0.2426    1.6493    1.6512 N   0  0  0  0  0  1  0  0  0  0  0  0
   -1.0455    1.9959    1.7883 N   0  0  0  0  0  0  0  0  0  0  0  0
   -1.2816    2.3379    2.7047 H   0  0  0  0  0  0  0  0  0  0  0  0
   -1.7747    1.4703    1.3275 H   0  0  0  0  0  0  0  0  0  0  0  0
    0.2426   -1.4458   -2.7213 C   0  0  0  0  0  0  0  0  0  0  0  0
    0.2426   -1.4458   -1.2326 C   0  0  0  0  0  0  0  0  0  0  0  0
    0.2426   -0.3538   -0.5958 N   0  0  0  0  0  0  0  0  0  0  0  0
    0.2426   -0.5584    0.7773 O   0  0  0  0  0  0  0  0  0  0  0  0
    1.1220   -1.9697   -3.1031 H   0  0  0  0  0  0  0  0  0  0  0  0
   -0.6368   -1.9697   -3.1031 H   0  0  0  0  0  0  0  0  0  0  0  0
    0.2426   -0.4262   -3.1027 H   0  0  0  0  0  0  0  0  0  0  0  0
    0.2426   -2.3934   -0.6925 H   0  0  0  0  0  0  0  0  0  0  0  0
    0.2426    0.5112    1.2007 H   0  0  0  0  0  0  0  0  0  0  0  0
  1  2  1  0
  2  3  1  0
  2  4  1  0
  5  6  1  0
  5  9  1  0
  5 10  1  0
  5 11  1  0
  6  7  2  3
  6 12  1  0
  7  8  1  0
  8 13  1  0
M  RAD  1   1   3
M  END
>  <reaction>  (12) 
rmg_rxn_52

>  <mol_properties>  (12) 
{"0": {"label": "*1", "atom_type": "N3s"}, "1": {"label": "*0", "atom_type": "N3s"}, "6": {"label": "*4", "atom_type": "N3s"}, "7": {"label": "*3", "atom_type": "O2s"}, "12": {"label": "*2", "atom_type": "H0"}}

>  <type>  (12) 
unop_8

>  <geom_source>  (12) 
Heuristics

$$$$

     RDKit          3D

 13 11  0  0  0  0  0  0  0  0999 V2000
   -0.1157    1.5639    1.8506 N   0  0  0  0  0  1  0  0  0  0  0  0
    0.5284    2.3210    0.9505 N   0  0  0  0  0  0  0  0  0  0  0  0
    0.7040    3.2625    1.2590 H   0  0  0  0  0  0  0  0  0  0  0  0
    0.3406    2.2230   -0.0372 H   0  0  0  0  0  0  0  0  0  0  0  0
   -0.1157   -1.5313   -2.5219 C   0  0  0  0  0  0  0  0  0  0  0  0
   -0.1157   -1.5313   -1.0332 C   0  0  0  0  0  0  0  0  0  0  0  0
   -0.1157   -0.4392   -0.3964 N   0  0  0  0  0  0  0  0  0  0  0  0
   -0.1157   -0.6439    0.9768 O   0  0  0  0  0  0  0  0  0  0  0  0
    0.7637   -2.0551   -2.9037 H   0  0  0  0  0  0  0  0  0  0  0  0
   -0.9951   -2.0551   -2.9037 H   0  0  0  0  0  0  0  0  0  0  0  0
   -0.1157   -0.5116   -2.9033 H   0  0  0  0  0  0  0  0  0  0  0  0
   -0.1157   -2.4788   -0.4931 H   0  0  0  0  0  0  0  0  0  0  0  0
   -0.1157    0.4258    1.4001 H   0  0  0  0  0  0  0  0  0  0  0  0
  1  2  1  0
  2  3  1  0
  2  4  1  0
  5  6  1  0
  5  9  1  0
  5 10  1  0
  5 11  1  0
  6  7  2  3
  6 12  1  0
  7  8  1  0
  8 13  1  0
M  RAD  1   1   3
M  END
>  <reaction>  (13) 
rmg_rxn_52

>  <mol_properties>  (13) 
{"0": {"label": "*1", "atom_type": "N3s"}, "1": {"label": "*0", "atom_type": "N3s"}, "6": {"label": "*4", "atom_type": "N3s"}, "7": {"label": "*3", "atom_type": "O2s"}, "12": {"label": "*2", "atom_type": "H0"}}

>  <type>  (13) 
unop_9

>  <geom_source>  (13) 
Heuristics

$$$$

     RDKit          3D

 13 11  0  0  0  0  0  0  0  0999 V2000
    0.2129    1.6039    1.7640 N   0  0  0  0  0  1  0  0  0  0  0  0
   -0.9027    2.1876    1.3023 N   0  0  0  0  0  0  0  0  0  0  0  0
   -1.4128    2.7035    1.9995 H   0  0  0  0  0  0  0  0  0  0  0  0
   -1.4739    1.7326    0.6044 H   0  0  0  0  0  0  0  0  0  0  0  0
    0.2129   -1.4912   -2.6084 C   0  0  0  0  0  0  0  0  0  0  0  0
    0.2129   -1.4912   -1.1198 C   0  0  0  0  0  0  0  0  0  0  0  0
    0.2129   -0.3992   -0.4830 N   0  0  0  0  0  0  0  0  0  0  0  0
    0.2129   -0.6038    0.8902 O   0  0  0  0  0  0  0  0  0  0  0  0
    1.0923   -2.0151   -2.9902 H   0  0  0  0  0  0  0  0  0  0  0  0
   -0.6665   -2.0151   -2.9902 H   0  0  0  0  0  0  0  0  0  0  0  0
    0.2129   -0.4716   -2.9898 H   0  0  0  0  0  0  0  0  0  0  0  0
    0.2129   -2.4388   -0.5796 H   0  0  0  0  0  0  0  0  0  0  0  0
    0.2129    0.4658    1.3136 H   0  0  0  0  0  0  0  0  0  0  0  0
  1  2  1  0
  2  3  1  0
  2  4  1  0
  5  6  1  0
  5  9  1  0
  5 10  1  0
  5 11  1  0
  6  7  2  3
  6 12  1  0
  7  8  1  0
  8 13  1  0
M  RAD  1   1   3
M  END
>  <reaction>  (14) 
rmg_rxn_52

>  <mol_properties>  (14) 
{"0": {"label": "*1", "atom_type": "N3s"}, "1": {"label": "*0", "atom_type": "N3s"}, "6": {"label": "*4", "atom_type": "N3s"}, "7": {"label": "*3", "atom_type": "O2s"}, "12": {"label": "*2", "atom_type": "H0"}}

>  <type>  (14) 
unop_10

>  <geom_source>  (14) 
Heuristics

$$$$

     RDKit          3D

 13 11  0  0  0  0  0  0  0  0999 V2000
   -0.1246    1.7167    1.4623 N   0  0  0  0  0  1  0  0  0  0  0  0
    0.5195    1.6528    2.6368 N   0  0  0  0  0  0  0  0  0  0  0  0
    0.3693    2.4519    3.2295 H   0  0  0  0  0  0  0  0  0  0  0  0
    1.4394    1.2402    2.7007 H   0  0  0  0  0  0  0  0  0  0  0  0
   -0.1246   -1.3785   -2.9102 C   0  0  0  0  0  0  0  0  0  0  0  0
   -0.1246   -1.3785   -1.4215 C   0  0  0  0  0  0  0  0  0  0  0  0
   -0.1246   -0.2864   -0.7847 N   0  0  0  0  0  0  0  0  0  0  0  0
   -0.1246   -0.4911    0.5885 O   0  0  0  0  0  0  0  0  0  0  0  0
    0.7549   -1.9023   -3.2920 H   0  0  0  0  0  0  0  0  0  0  0  0
   -1.0040   -1.9023   -3.2920 H   0  0  0  0  0  0  0  0  0  0  0  0
   -0.1246   -0.3588   -3.2916 H   0  0  0  0  0  0  0  0  0  0  0  0
   -0.1246   -2.3260   -0.8814 H   0  0  0  0  0  0  0  0  0  0  0  0
   -0.1246    0.5786    1.0119 H   0  0  0  0  0  0  0  0  0  0  0  0
  1  2  1  0
  2  3  1  0
  2  4  1  0
  5  6  1  0
  5  9  1  0
  5 10  1  0
  5 11  1  0
  6  7  2  3
  6 12  1  0
  7  8  1  0
  8 13  1  0
M  RAD  1   1   3
M  END
>  <reaction>  (15) 
rmg_rxn_52

>  <mol_properties>  (15) 
{"0": {"label": "*1", "atom_type": "N3s"}, "1": {"label": "*0", "atom_type": "N3s"}, "6": {"label": "*4", "atom_type": "N3s"}, "7": {"label": "*3", "atom_type": "O2s"}, "12": {"label": "*2", "atom_type": "H0"}}

>  <type>  (15) 
unop_11

>  <geom_source>  (15) 
Heuristics

$$$$

     RDKit          3D

 13 11  0  0  0  0  0  0  0  0999 V2000
    0.0062    1.5546    1.8793 N   0  0  0  0  0  1  0  0  0  0  0  0
    0.0062    2.3752    0.8187 N   0  0  0  0  0  0  0  0  0  0  0  0
   -0.1817    3.3372    1.0461 H   0  0  0  0  0  0  0  0  0  0  0  0
   -0.3558    2.0684   -0.0731 H   0  0  0  0  0  0  0  0  0  0  0  0
    0.0062   -1.5406   -2.4932 C   0  0  0  0  0  0  0  0  0  0  0  0
    0.0062   -1.5406   -1.0045 C   0  0  0  0  0  0  0  0  0  0  0  0
    0.0062   -0.4485   -0.3677 N   0  0  0  0  0  0  0  0  0  0  0  0
    0.0062   -0.6532    1.0055 O   0  0  0  0  0  0  0  0  0  0  0  0
    0.8856   -2.0644   -2.8750 H   0  0  0  0  0  0  0  0  0  0  0  0
   -0.8732   -2.0644   -2.8750 H   0  0  0  0  0  0  0  0  0  0  0  0
    0.0062   -0.5209   -2.8746 H   0  0  0  0  0  0  0  0  0  0  0  0
    0.0062   -2.4881   -0.4644 H   0  0  0  0  0  0  0  0  0  0  0  0
    0.0062    0.4165    1.4288 H   0  0  0  0  0  0  0  0  0  0  0  0
  1  2  1  0
  2  3  1  0
  2  4  1  0
  5  6  1  0
  5  9  1  0
  5 10  1  0
  5 11  1  0
  6  7  2  3
  6 12  1  0
  7  8  1  0
  8 13  1  0
M  RAD  1   1   3
M  END
>  <reaction>  (16) 
rmg_rxn_52

>  <mol_properties>  (16) 
{"0": {"label": "*1", "atom_type": "N3s"}, "1": {"label": "*0", "atom_type": "N3s"}, "6": {"label": "*4", "atom_type": "N3s"}, "7": {"label": "*3", "atom_type": "O2s"}, "12": {"label": "*2", "atom_type": "H0"}}

>  <type>  (16) 
unop_12

>  <geom_source>  (16) 
Heuristics

$$$$

     RDKit          3D

 13 11  0  0  0  0  0  0  0  0999 V2000
    0.1265    1.5694    1.8475 N   0  0  0  0  0  1  0  0  0  0  0  0
   -0.5176    2.3265    0.9474 N   0  0  0  0  0  0  0  0  0  0  0  0
   -1.0177    3.1021    1.3484 H   0  0  0  0  0  0  0  0  0  0  0  0
   -0.9546    1.9090    0.1379 H   0  0  0  0  0  0  0  0  0  0  0  0
    0.1265   -1.5258   -2.5250 C   0  0  0  0  0  0  0  0  0  0  0  0
    0.1265   -1.5258   -1.0363 C   0  0  0  0  0  0  0  0  0  0  0  0
    0.1265   -0.4337   -0.3995 N   0  0  0  0  0  0  0  0  0  0  0  0
    0.1265   -0.6384    0.9737 O   0  0  0  0  0  0  0  0  0  0  0  0
    1.0059   -2.0496   -2.9068 H   0  0  0  0  0  0  0  0  0  0  0  0
   -0.7530   -2.0496   -2.9068 H   0  0  0  0  0  0  0  0  0  0  0  0
    0.1265   -0.5061   -2.9064 H   0  0  0  0  0  0  0  0  0  0  0  0
    0.1265   -2.4733   -0.4962 H   0  0  0  0  0  0  0  0  0  0  0  0
    0.1265    0.4313    1.3971 H   0  0  0  0  0  0  0  0  0  0  0  0
  1  2  1  0
  2  3  1  0
  2  4  1  0
  5  6  1  0
  5  9  1  0
  5 10  1  0
  5 11  1  0
  6  7  2  3
  6 12  1  0
  7  8  1  0
  8 13  1  0
M  RAD  1   1   3
M  END
>  <reaction>  (17) 
rmg_rxn_52

>  <mol_properties>  (17) 
{"0": {"label": "*1", "atom_type": "N3s"}, "1": {"label": "*0", "atom_type": "N3s"}, "6": {"label": "*4", "atom_type": "N3s"}, "7": {"label": "*3", "atom_type": "O2s"}, "12": {"label": "*2", "atom_type": "H0"}}

>  <type>  (17) 
unop_13

>  <geom_source>  (17) 
gaussian_log

$$$$
