
     RDKit          3D

 18 17  0  0  0  0  0  0  0  0999 V2000
    2.2026   -0.7213   -0.2612 C   0  0  0  0  0  0  0  0  0  0  0  0
    1.5384    0.2638    0.6915 C   0  0  0  0  0  0  0  0  0  0  0  0
    2.2584    1.5946    0.7694 C   0  0  0  0  0  0  0  0  0  0  0  0
    2.2212    2.2185   -0.4893 O   0  0  0  0  0  0  0  0  0  0  0  0
    2.8988    3.4488   -0.5204 C   0  0  0  0  0  0  0  0  0  0  0  0
    2.7981    4.0296   -1.9118 C   0  0  0  0  0  0  0  0  0  0  0  0
    3.2294   -0.9309    0.0486 H   0  0  0  0  0  0  0  0  0  0  0  0
    2.2338   -0.3181   -1.2734 H   0  0  0  0  0  0  0  0  0  0  0  0
    1.6610   -1.6680   -0.2875 H   0  0  0  0  0  0  0  0  0  0  0  0
    1.4990   -0.1566    1.7002 H   0  0  0  0  0  0  0  0  0  0  0  0
    0.5055    0.4455    0.3835 H   0  0  0  0  0  0  0  0  0  0  0  0
    3.3038    1.4410    1.0808 H   0  0  0  0  0  0  0  0  0  0  0  0
    1.7844    2.2410    1.5226 H   0  0  0  0  0  0  0  0  0  0  0  0
    2.4596    4.1376    0.2164 H   0  0  0  0  0  0  0  0  0  0  0  0
    3.9524    3.3035   -0.2397 H   0  0  0  0  0  0  0  0  0  0  0  0
    1.7543    4.1869   -2.1856 H   0  0  0  0  0  0  0  0  0  0  0  0
    3.2472    3.3545   -2.6411 H   0  0  0  0  0  0  0  0  0  0  0  0
    3.3178    4.9878   -1.9600 H   0  0  0  0  0  0  0  0  0  0  0  0
  1  2  1  0
  1  7  1  0
  1  8  1  0
  1  9  1  0
  2  3  1  0
  2 10  1  0
  2 11  1  0
  3  4  1  0
  3 12  1  0
  3 13  1  0
  4  5  1  0
  5  6  1  0
  5 14  1  0
  5 15  1  0
  6 16  1  0
  6 17  1  0
  6 18  1  0
M  END
>  <reaction>  (1) 
rmg_rxn_15417

>  <mol_properties>  (1) 
{"5": {"label": "donator", "atom_type": "Cs"}, "15": {"label": "d_hydrogen", "atom_type": "H0"}}

>  <type>  (1) 
r1h

$$$$

     RDKit          3D

  5  4  0  0  0  0  0  0  0  0999 V2000
    0.8934    0.3742    0.4948 O   0  0  0  0  0  0  0  0  0  0  0  0
    0.1582   -0.1610   -0.5904 N   0  0  0  0  0  0  0  0  0  0  0  0
   -1.0297   -0.3739   -0.4689 C   0  0  0  0  0  3  0  0  0  0  0  0
    1.7804    0.4382    0.1306 H   0  0  0  0  0  0  0  0  0  0  0  0
   -1.8023   -0.2775    0.2859 H   0  0  0  0  0  0  0  0  0  0  0  0
  1  2  1  0
  1  4  1  0
  2  3  2  3
  3  5  1  0
M  RAD  1   3   2
M  END
>  <reaction>  (2) 
rmg_rxn_15417

>  <mol_properties>  (2) 
{"2": {"label": "acceptor", "atom_type": "Cd"}}

>  <type>  (2) 
r2

$$$$

     RDKit          3D

  6  5  0  0  0  0  0  0  0  0999 V2000
    1.2314    0.0428    0.5088 O   0  0  0  0  0  0  0  0  0  0  0  0
    0.2987    0.2341   -0.4915 N   0  0  0  0  0  0  0  0  0  0  0  0
   -0.8599   -0.1122   -0.1290 C   0  0  0  0  0  0  0  0  0  0  0  0
    2.0507    0.3401    0.1082 H   0  0  0  0  0  0  0  0  0  0  0  0
   -1.0700   -0.5112    0.8610 H   0  0  0  0  0  0  0  0  0  0  0  0
   -1.6509    0.0064   -0.8574 H   0  0  0  0  0  0  0  0  0  0  0  0
  1  2  1  0
  1  4  1  0
  2  3  2  3
  3  5  1  0
  3  6  1  0
M  END
>  <reaction>  (3) 
rmg_rxn_15417

>  <mol_properties>  (3) 
{"2": {"label": "acceptor", "atom_type": "Cd"}, "5": {"label": "a_hydrogen", "atom_type": "H0"}}

>  <type>  (3) 
r2h

$$$$

     RDKit          3D

 23 21  0  0  0  0  0  0  0  0999 V2000
   -3.1299   -0.1349    2.3507 O   0  0  0  0  0  0  0  0  0  0  0  0
   -2.2139    0.7129    1.7132 N   0  0  0  0  0  0  0  0  0  0  0  0
   -2.2579    0.6603    0.4708 C   0  0  0  0  0  3  0  0  0  0  0  0
   -2.9637    0.0347    3.2806 H   0  0  0  0  0  0  0  0  0  0  0  0
   -2.9031    0.0386   -0.1488 H   0  0  0  0  0  0  0  0  0  0  0  0
    2.2851   -1.8243   -2.3757 C   0  0  0  0  0  0  0  0  0  0  0  0
    2.0302   -1.9600   -0.8805 C   0  0  0  0  0  0  0  0  0  0  0  0
    2.0292   -0.6319   -0.1522 C   0  0  0  0  0  0  0  0  0  0  0  0
    0.9730    0.1616   -0.6354 O   0  0  0  0  0  0  0  0  0  0  0  0
    0.9058    1.4259   -0.0299 C   0  0  0  0  0  0  0  0  0  0  0  0
   -0.2980    2.1481   -0.5498 C   0  0  0  0  0  0  0  0  0  0  0  0
    3.2534   -1.3545   -2.5652 H   0  0  0  0  0  0  0  0  0  0  0  0
    1.5170   -1.2093   -2.8447 H   0  0  0  0  0  0  0  0  0  0  0  0
    2.2854   -2.8000   -2.8637 H   0  0  0  0  0  0  0  0  0  0  0  0
    2.7971   -2.5920   -0.4242 H   0  0  0  0  0  0  0  0  0  0  0  0
    1.0698   -2.4516   -0.7057 H   0  0  0  0  0  0  0  0  0  0  0  0
    2.9883   -0.1134   -0.3081 H   0  0  0  0  0  0  0  0  0  0  0  0
    1.9120   -0.7896    0.9293 H   0  0  0  0  0  0  0  0  0  0  0  0
    0.8385    1.3234    1.0631 H   0  0  0  0  0  0  0  0  0  0  0  0
    1.8230    1.9984   -0.2470 H   0  0  0  0  0  0  0  0  0  0  0  0
   -1.3072    1.4656   -0.1419 H   0  0  0  0  0  0  0  0  0  0  0  0
   -0.3753    2.1554   -1.6355 H   0  0  0  0  0  0  0  0  0  0  0  0
   -0.4421    3.1336   -0.1121 H   0  0  0  0  0  0  0  0  0  0  0  0
  1  2  1  0
  1  4  1  0
  2  3  2  3
  3  5  1  0
  6  7  1  0
  6 12  1  0
  6 13  1  0
  6 14  1  0
  7  8  1  0
  7 15  1  0
  7 16  1  0
  8  9  1  0
  8 17  1  0
  8 18  1  0
  9 10  1  0
 10 11  1  0
 10 19  1  0
 10 20  1  0
 11 21  1  0
 11 22  1  0
 11 23  1  0
M  RAD  1   3   2
M  END
>  <reaction>  (4) 
rmg_rxn_15417

>  <mol_properties>  (4) 
{"1": {"label": "*4", "atom_type": "N3d"}, "2": {"label": "*3", "atom_type": "Cd"}, "9": {"label": "*0", "atom_type": "Cs"}, "10": {"label": "*1", "atom_type": "Cs"}, "20": {"label": "*2", "atom_type": "H0"}}

>  <type>  (4) 
ts

$$$$

     RDKit          3D

 23 21  0  0  0  0  0  0  0  0999 V2000
   -3.1410   -0.1585    0.1780 O   0  0  0  0  0  0  0  0  0  0  0  0
   -1.8432   -0.6966    0.2900 N   0  0  0  0  0  0  0  0  0  0  0  0
   -1.3533   -1.3611   -0.6288 C   0  0  0  0  0  3  0  0  0  0  0  0
   -3.2798    0.3141    1.0105 H   0  0  0  0  0  0  0  0  0  0  0  0
   -1.7644   -1.6379   -1.5915 H   0  0  0  0  0  0  0  0  0  0  0  0
   -0.3867    2.7122   -0.1962 C   0  0  0  0  0  0  0  0  0  0  0  0
    0.5260    1.6867    0.4629 C   0  0  0  0  0  0  0  0  0  0  0  0
    1.3062    0.8943   -0.5886 C   0  0  0  0  0  0  0  0  0  0  0  0
    2.2869    0.0273   -0.0561 O   0  0  0  0  0  0  0  0  0  0  0  0
    1.8196   -1.0910    0.6659 C   0  0  0  0  0  0  0  0  0  0  0  0
    1.1146   -2.1310   -0.1717 C   0  0  0  0  0  0  0  0  0  0  0  0
   -0.9230    3.2833    0.5578 H   0  0  0  0  0  0  0  0  0  0  0  0
   -1.1148    2.2161   -0.8342 H   0  0  0  0  0  0  0  0  0  0  0  0
    0.1885    3.4045   -0.8068 H   0  0  0  0  0  0  0  0  0  0  0  0
   -0.0799    1.0015    1.0581 H   0  0  0  0  0  0  0  0  0  0  0  0
    1.2364    2.1850    1.1254 H   0  0  0  0  0  0  0  0  0  0  0  0
    1.8753    1.5842   -1.2184 H   0  0  0  0  0  0  0  0  0  0  0  0
    0.6032    0.3433   -1.2284 H   0  0  0  0  0  0  0  0  0  0  0  0
    2.7349   -1.5232    1.0928 H   0  0  0  0  0  0  0  0  0  0  0  0
    1.1756   -0.7841    1.5024 H   0  0  0  0  0  0  0  0  0  0  0  0
   -0.1184   -1.7545   -0.3952 H   0  0  0  0  0  0  0  0  0  0  0  0
    1.0117   -3.0739    0.3524 H   0  0  0  0  0  0  0  0  0  0  0  0
    1.5639   -2.2568   -1.1506 H   0  0  0  0  0  0  0  0  0  0  0  0
  1  2  1  0
  1  4  1  0
  2  3  2  3
  3  5  1  0
  6  7  1  0
  6 12  1  0
  6 13  1  0
  6 14  1  0
  7  8  1  0
  7 15  1  0
  7 16  1  0
  8  9  1  0
  8 17  1  0
  8 18  1  0
  9 10  1  0
 10 11  1  0
 10 19  1  0
 10 20  1  0
 11 21  1  0
 11 22  1  0
 11 23  1  0
M  RAD  1   3   2
M  END
>  <reaction>  (5) 
rmg_rxn_15417

>  <mol_properties>  (5) 
{"1": {"label": "*4", "atom_type": "N3d"}, "2": {"label": "*3", "atom_type": "Cd"}, "9": {"label": "*0", "atom_type": "Cs"}, "10": {"label": "*1", "atom_type": "Cs"}, "20": {"label": "*2", "atom_type": "H0"}}

>  <type>  (5) 
unop_1

>  <geom_source>  (5) 
crest_best.xyz

$$$$

     RDKit          3D

 23 21  0  0  0  0  0  0  0  0999 V2000
   -4.2489    0.7581    1.0727 O   0  0  0  0  0  0  0  0  0  0  0  0
   -2.9340    1.0583    1.3694 N   0  0  0  0  0  0  0  0  0  0  0  0
   -2.1279    0.4367    0.6229 C   0  0  0  0  0  0  0  0  0  0  0  0
   -4.7446    1.2870    1.7008 H   0  0  0  0  0  0  0  0  0  0  0  0
   -2.4581   -0.2488   -0.1548 H   0  0  0  0  0  0  0  0  0  0  0  0
    2.4523   -2.1947   -2.0800 C   0  0  0  0  0  0  0  0  0  0  0  0
    2.4523   -2.1947   -0.5571 C   0  0  0  0  0  0  0  0  0  0  0  0
    2.4523   -0.8016    0.0385 C   0  0  0  0  0  0  0  0  0  0  0  0
    1.2693   -0.1380   -0.3291 O   0  0  0  0  0  0  0  0  0  0  0  0
    1.1985    1.1800    0.1517 C   0  0  0  0  0  0  0  0  0  0  0  0
   -0.1048    1.7978   -0.2991 C   0  0  0  0  0  3  0  0  0  0  0  0
    3.3343   -1.6804   -2.4696 H   0  0  0  0  0  0  0  0  0  0  0  0
    1.5695   -1.6850   -2.4660 H   0  0  0  0  0  0  0  0  0  0  0  0
    2.4577   -3.2126   -2.4726 H   0  0  0  0  0  0  0  0  0  0  0  0
    3.3338   -2.7212   -0.1808 H   0  0  0  0  0  0  0  0  0  0  0  0
    1.5779   -2.7327   -0.1818 H   0  0  0  0  0  0  0  0  0  0  0  0
    3.3265   -0.2366   -0.3219 H   0  0  0  0  0  0  0  0  0  0  0  0
    2.5270   -0.8556    1.1345 H   0  0  0  0  0  0  0  0  0  0  0  0
    1.2658    1.1829    1.2498 H   0  0  0  0  0  0  0  0  0  0  0  0
    2.0514    1.7630   -0.2261 H   0  0  0  0  0  0  0  0  0  0  0  0
   -1.1204    1.1145    0.1637 H   0  0  0  0  0  0  0  0  0  0  0  0
   -0.1656    1.8097   -1.3879 H   0  0  0  0  0  0  0  0  0  0  0  0
   -0.1824    2.8238    0.0640 H   0  0  0  0  0  0  0  0  0  0  0  0
  1  2  1  0
  1  4  1  0
  2  3  2  3
  3  5  1  0
  3 21  1  0
  6  7  1  0
  6 12  1  0
  6 13  1  0
  6 14  1  0
  7  8  1  0
  7 15  1  0
  7 16  1  0
  8  9  1  0
  8 17  1  0
  8 18  1  0
  9 10  1  0
 10 11  1  0
 10 19  1  0
 10 20  1  0
 11 22  1  0
 11 23  1  0
M  RAD  1  11   2
M  END
>  <reaction>  (6) 
rmg_rxn_15417

>  <mol_properties>  (6) 
{"1": {"label": "*4", "atom_type": "N3d"}, "2": {"label": "*3", "atom_type": "Cd"}, "9": {"label": "*0", "atom_type": "Cs"}, "10": {"label": "*1", "atom_type": "Cs"}, "20": {"label": "*2", "atom_type": "H0"}}

>  <type>  (6) 
unop_2

>  <geom_source>  (6) 
Heuristics

$$$$

     RDKit          3D

 23 21  0  0  0  0  0  0  0  0999 V2000
   -3.1393    0.1569    0.1789 O   0  0  0  0  0  0  0  0  0  0  0  0
   -1.8418    0.6958    0.2895 N   0  0  0  0  0  0  0  0  0  0  0  0
   -1.3546    1.3639   -0.6281 C   0  0  0  0  0  3  0  0  0  0  0  0
   -3.2752   -0.3197    1.0096 H   0  0  0  0  0  0  0  0  0  0  0  0
   -1.7682    1.6439   -1.5887 H   0  0  0  0  0  0  0  0  0  0  0  0
   -0.3864   -2.7128   -0.1973 C   0  0  0  0  0  0  0  0  0  0  0  0
    0.5278   -1.6890    0.4624 C   0  0  0  0  0  0  0  0  0  0  0  0
    1.3059   -0.8940   -0.5886 C   0  0  0  0  0  0  0  0  0  0  0  0
    2.2858   -0.0263   -0.0556 O   0  0  0  0  0  0  0  0  0  0  0  0
    1.8173    1.0916    0.6663 C   0  0  0  0  0  0  0  0  0  0  0  0
    1.1140    2.1322   -0.1722 C   0  0  0  0  0  0  0  0  0  0  0  0
    0.1876   -3.4037   -0.8107 H   0  0  0  0  0  0  0  0  0  0  0  0
   -1.1155   -2.2150   -0.8328 H   0  0  0  0  0  0  0  0  0  0  0  0
   -0.9213   -3.2857    0.5563 H   0  0  0  0  0  0  0  0  0  0  0  0
    1.2396   -2.1891    1.1222 H   0  0  0  0  0  0  0  0  0  0  0  0
   -0.0767   -1.0054    1.0607 H   0  0  0  0  0  0  0  0  0  0  0  0
    0.6016   -0.3430   -1.2269 H   0  0  0  0  0  0  0  0  0  0  0  0
    1.8755   -1.5821   -1.2199 H   0  0  0  0  0  0  0  0  0  0  0  0
    1.1716    0.7844    1.5013 H   0  0  0  0  0  0  0  0  0  0  0  0
    2.7318    1.5234    1.0952 H   0  0  0  0  0  0  0  0  0  0  0  0
   -0.1194    1.7568   -0.3958 H   0  0  0  0  0  0  0  0  0  0  0  0
    1.5639    2.2570   -1.1509 H   0  0  0  0  0  0  0  0  0  0  0  0
    1.0118    3.0753    0.3515 H   0  0  0  0  0  0  0  0  0  0  0  0
  1  2  1  0
  1  4  1  0
  2  3  2  3
  3  5  1  0
  6  7  1  0
  6 12  1  0
  6 13  1  0
  6 14  1  0
  7  8  1  0
  7 15  1  0
  7 16  1  0
  8  9  1  0
  8 17  1  0
  8 18  1  0
  9 10  1  0
 10 11  1  0
 10 19  1  0
 10 20  1  0
 11 21  1  0
 11 22  1  0
 11 23  1  0
M  RAD  1   3   2
M  END
>  <reaction>  (7) 
rmg_rxn_15417

>  <mol_properties>  (7) 
{"1": {"label": "*4", "atom_type": "N3d"}, "2": {"label": "*3", "atom_type": "Cd"}, "9": {"label": "*0", "atom_type": "Cs"}, "10": {"label": "*1", "atom_type": "Cs"}, "20": {"label": "*2", "atom_type": "H0"}}

>  <type>  (7) 
unop_3

>  <geom_source>  (7) 
Heuristics

$$$$

     RDKit          3D

 23 21  0  0  0  0  0  0  0  0999 V2000
   -3.1420    0.1500    0.1793 O   0  0  0  0  0  0  0  0  0  0  0  0
   -1.8445    0.6893    0.2886 N   0  0  0  0  0  0  0  0  0  0  0  0
   -1.3602    1.3612   -0.6278 C   0  0  0  0  0  3  0  0  0  0  0  0
   -3.2757   -0.3289    1.0090 H   0  0  0  0  0  0  0  0  0  0  0  0
   -1.7768    1.6446   -1.5862 H   0  0  0  0  0  0  0  0  0  0  0  0
   -0.3735   -2.7177   -0.1976 C   0  0  0  0  0  0  0  0  0  0  0  0
    0.5333   -1.6875    0.4623 C   0  0  0  0  0  0  0  0  0  0  0  0
    1.3096   -0.8903   -0.5885 C   0  0  0  0  0  0  0  0  0  0  0  0
    2.2860   -0.0190   -0.0548 O   0  0  0  0  0  0  0  0  0  0  0  0
    1.8130    1.0974    0.6664 C   0  0  0  0  0  0  0  0  0  0  0  0
    1.1067    2.1353   -0.1727 C   0  0  0  0  0  0  0  0  0  0  0  0
    0.2059   -3.4068   -0.8078 H   0  0  0  0  0  0  0  0  0  0  0  0
   -1.1035   -2.2252   -0.8363 H   0  0  0  0  0  0  0  0  0  0  0  0
   -0.9075   -3.2917    0.5559 H   0  0  0  0  0  0  0  0  0  0  0  0
    1.2463   -2.1823    1.1247 H   0  0  0  0  0  0  0  0  0  0  0  0
   -0.0764   -1.0060    1.0578 H   0  0  0  0  0  0  0  0  0  0  0  0
    0.6040   -0.3420   -1.2276 H   0  0  0  0  0  0  0  0  0  0  0  0
    1.8822   -1.5767   -1.2189 H   0  0  0  0  0  0  0  0  0  0  0  0
    1.1677    0.7879    1.5010 H   0  0  0  0  0  0  0  0  0  0  0  0
    2.7256    1.5325    1.0961 H   0  0  0  0  0  0  0  0  0  0  0  0
   -0.1254    1.7561   -0.3964 H   0  0  0  0  0  0  0  0  0  0  0  0
    1.5566    2.2610   -1.1514 H   0  0  0  0  0  0  0  0  0  0  0  0
    1.0016    3.0785    0.3504 H   0  0  0  0  0  0  0  0  0  0  0  0
  1  2  1  0
  1  4  1  0
  2  3  2  3
  3  5  1  0
  6  7  1  0
  6 12  1  0
  6 13  1  0
  6 14  1  0
  7  8  1  0
  7 15  1  0
  7 16  1  0
  8  9  1  0
  8 17  1  0
  8 18  1  0
  9 10  1  0
 10 11  1  0
 10 19  1  0
 10 20  1  0
 11 21  1  0
 11 22  1  0
 11 23  1  0
M  RAD  1   3   2
M  END
>  <reaction>  (8) 
rmg_rxn_15417

>  <mol_properties>  (8) 
{"1": {"label": "*4", "atom_type": "N3d"}, "2": {"label": "*3", "atom_type": "Cd"}, "9": {"label": "*0", "atom_type": "Cs"}, "10": {"label": "*1", "atom_type": "Cs"}, "20": {"label": "*2", "atom_type": "H0"}}

>  <type>  (8) 
unop_4

>  <geom_source>  (8) 
Heuristics

$$$$

     RDKit          3D

 23 21  0  0  0  0  0  0  0  0999 V2000
   -3.4007   -0.2100    2.1145 O   0  0  0  0  0  0  0  0  0  0  0  0
   -2.2020    0.1383    1.5239 N   0  0  0  0  0  0  0  0  0  0  0  0
   -2.3731    0.7277    0.4208 C   0  0  0  0  0  0  0  0  0  0  0  0
   -3.1305   -0.6408    2.9278 H   0  0  0  0  0  0  0  0  0  0  0  0
   -3.3601    0.9249    0.0079 H   0  0  0  0  0  0  0  0  0  0  0  0
    2.2071   -1.9037   -2.2821 C   0  0  0  0  0  0  0  0  0  0  0  0
    2.2071   -1.9037   -0.7592 C   0  0  0  0  0  0  0  0  0  0  0  0
    2.2071   -0.5106   -0.1636 C   0  0  0  0  0  0  0  0  0  0  0  0
    1.0241    0.1530   -0.5312 O   0  0  0  0  0  0  0  0  0  0  0  0
    0.9534    1.4710   -0.0504 C   0  0  0  0  0  0  0  0  0  0  0  0
   -0.3499    2.0888   -0.5012 C   0  0  0  0  0  3  0  0  0  0  0  0
    3.0892   -1.3894   -2.6717 H   0  0  0  0  0  0  0  0  0  0  0  0
    1.3244   -1.3940   -2.6681 H   0  0  0  0  0  0  0  0  0  0  0  0
    2.2126   -2.9216   -2.6747 H   0  0  0  0  0  0  0  0  0  0  0  0
    3.0886   -2.4302   -0.3829 H   0  0  0  0  0  0  0  0  0  0  0  0
    1.3327   -2.4417   -0.3839 H   0  0  0  0  0  0  0  0  0  0  0  0
    3.0813    0.0544   -0.5240 H   0  0  0  0  0  0  0  0  0  0  0  0
    2.2819   -0.5646    0.9324 H   0  0  0  0  0  0  0  0  0  0  0  0
    1.0207    1.4739    1.0477 H   0  0  0  0  0  0  0  0  0  0  0  0
    1.8063    2.0540   -0.4282 H   0  0  0  0  0  0  0  0  0  0  0  0
   -1.3655    1.4055   -0.0384 H   0  0  0  0  0  0  0  0  0  0  0  0
   -0.4107    2.1007   -1.5900 H   0  0  0  0  0  0  0  0  0  0  0  0
   -0.4275    3.1148   -0.1381 H   0  0  0  0  0  0  0  0  0  0  0  0
  1  2  1  0
  1  4  1  0
  2  3  2  3
  3  5  1  0
  3 21  1  0
  6  7  1  0
  6 12  1  0
  6 13  1  0
  6 14  1  0
  7  8  1  0
  7 15  1  0
  7 16  1  0
  8  9  1  0
  8 17  1  0
  8 18  1  0
  9 10  1  0
 10 11  1  0
 10 19  1  0
 10 20  1  0
 11 22  1  0
 11 23  1  0
M  RAD  1  11   2
M  END
>  <reaction>  (9) 
rmg_rxn_15417

>  <mol_properties>  (9) 
{"1": {"label": "*4", "atom_type": "N3d"}, "2": {"label": "*3", "atom_type": "Cd"}, "9": {"label": "*0", "atom_type": "Cs"}, "10": {"label": "*1", "atom_type": "Cs"}, "20": {"label": "*2", "atom_type": "H0"}}

>  <type>  (9) 
unop_5

>  <geom_source>  (9) 
Heuristics

$$$$

     RDKit          3D

 23 21  0  0  0  0  0  0  0  0999 V2000
   -3.1445    0.1460   -0.1782 O   0  0  0  0  0  0  0  0  0  0  0  0
   -1.8482    0.6880   -0.2890 N   0  0  0  0  0  0  0  0  0  0  0  0
   -1.3619    1.3560    0.6291 C   0  0  0  0  0  3  0  0  0  0  0  0
   -3.2805   -0.3285   -1.0100 H   0  0  0  0  0  0  0  0  0  0  0  0
   -1.7755    1.6340    1.5904 H   0  0  0  0  0  0  0  0  0  0  0  0
   -0.3652   -2.7209    0.1957 C   0  0  0  0  0  0  0  0  0  0  0  0
    0.5380   -1.6867   -0.4629 C   0  0  0  0  0  0  0  0  0  0  0  0
    1.3108   -0.8875    0.5889 C   0  0  0  0  0  0  0  0  0  0  0  0
    2.2860   -0.0141    0.0568 O   0  0  0  0  0  0  0  0  0  0  0  0
    1.8117    1.1005   -0.6664 C   0  0  0  0  0  0  0  0  0  0  0  0
    1.1019    2.1378    0.1707 C   0  0  0  0  0  0  0  0  0  0  0  0
   -0.8958   -3.2970   -0.5587 H   0  0  0  0  0  0  0  0  0  0  0  0
   -1.0982   -2.2318    0.8335 H   0  0  0  0  0  0  0  0  0  0  0  0
    0.2164   -3.4078    0.8064 H   0  0  0  0  0  0  0  0  0  0  0  0
   -0.0740   -1.0070   -1.0581 H   0  0  0  0  0  0  0  0  0  0  0  0
    1.2532   -2.1782   -1.1253 H   0  0  0  0  0  0  0  0  0  0  0  0
    1.8840   -1.5726    1.2203 H   0  0  0  0  0  0  0  0  0  0  0  0
    0.6029   -0.3408    1.2270 H   0  0  0  0  0  0  0  0  0  0  0  0
    2.7241    1.5372   -1.0949 H   0  0  0  0  0  0  0  0  0  0  0  0
    1.1684    0.7889   -1.5016 H   0  0  0  0  0  0  0  0  0  0  0  0
   -0.1288    1.7547    0.3955 H   0  0  0  0  0  0  0  0  0  0  0  0
    0.9934    3.0794   -0.3545 H   0  0  0  0  0  0  0  0  0  0  0  0
    1.5515    2.2671    1.1490 H   0  0  0  0  0  0  0  0  0  0  0  0
  1  2  1  0
  1  4  1  0
  2  3  2  3
  3  5  1  0
  6  7  1  0
  6 12  1  0
  6 13  1  0
  6 14  1  0
  7  8  1  0
  7 15  1  0
  7 16  1  0
  8  9  1  0
  8 17  1  0
  8 18  1  0
  9 10  1  0
 10 11  1  0
 10 19  1  0
 10 20  1  0
 11 21  1  0
 11 22  1  0
 11 23  1  0
M  RAD  1   3   2
M  END
>  <reaction>  (10) 
rmg_rxn_15417

>  <mol_properties>  (10) 
{"1": {"label": "*4", "atom_type": "N3d"}, "2": {"label": "*3", "atom_type": "Cd"}, "9": {"label": "*0", "atom_type": "Cs"}, "10": {"label": "*1", "atom_type": "Cs"}, "20": {"label": "*2", "atom_type": "H0"}}

>  <type>  (10) 
unop_6

>  <geom_source>  (10) 
Heuristics

$$$$

     RDKit          3D

 23 21  0  0  0  0  0  0  0  0999 V2000
   -4.2815    0.3742    0.7299 O   0  0  0  0  0  0  0  0  0  0  0  0
   -3.1546    1.1388    0.9588 N   0  0  0  0  0  0  0  0  0  0  0  0
   -2.0929    0.4929    0.7372 C   0  0  0  0  0  0  0  0  0  0  0  0
   -5.0019    0.9744    0.9322 H   0  0  0  0  0  0  0  0  0  0  0  0
   -2.0951   -0.5433    0.4055 H   0  0  0  0  0  0  0  0  0  0  0  0
    2.4873   -2.1385   -1.9657 C   0  0  0  0  0  0  0  0  0  0  0  0
    2.4873   -2.1385   -0.4428 C   0  0  0  0  0  0  0  0  0  0  0  0
    2.4873   -0.7455    0.1528 C   0  0  0  0  0  0  0  0  0  0  0  0
    1.3043   -0.0819   -0.2148 O   0  0  0  0  0  0  0  0  0  0  0  0
    1.2336    1.2362    0.2661 C   0  0  0  0  0  0  0  0  0  0  0  0
   -0.0698    1.8540   -0.1848 C   0  0  0  0  0  3  0  0  0  0  0  0
    3.3693   -1.6242   -2.3553 H   0  0  0  0  0  0  0  0  0  0  0  0
    1.6045   -1.6288   -2.3517 H   0  0  0  0  0  0  0  0  0  0  0  0
    2.4927   -3.1564   -2.3583 H   0  0  0  0  0  0  0  0  0  0  0  0
    3.3688   -2.6650   -0.0665 H   0  0  0  0  0  0  0  0  0  0  0  0
    1.6129   -2.6765   -0.0675 H   0  0  0  0  0  0  0  0  0  0  0  0
    3.3615   -0.1804   -0.2076 H   0  0  0  0  0  0  0  0  0  0  0  0
    2.5621   -0.7994    1.2488 H   0  0  0  0  0  0  0  0  0  0  0  0
    1.3008    1.2391    1.3641 H   0  0  0  0  0  0  0  0  0  0  0  0
    2.0864    1.8192   -0.1118 H   0  0  0  0  0  0  0  0  0  0  0  0
   -1.0854    1.1707    0.2781 H   0  0  0  0  0  0  0  0  0  0  0  0
   -0.1306    1.8658   -1.2736 H   0  0  0  0  0  0  0  0  0  0  0  0
   -0.1474    2.8800    0.1783 H   0  0  0  0  0  0  0  0  0  0  0  0
  1  2  1  0
  1  4  1  0
  2  3  2  3
  3  5  1  0
  3 21  1  0
  6  7  1  0
  6 12  1  0
  6 13  1  0
  6 14  1  0
  7  8  1  0
  7 15  1  0
  7 16  1  0
  8  9  1  0
  8 17  1  0
  8 18  1  0
  9 10  1  0
 10 11  1  0
 10 19  1  0
 10 20  1  0
 11 22  1  0
 11 23  1  0
M  RAD  1  11   2
M  END
>  <reaction>  (11) 
rmg_rxn_15417

>  <mol_properties>  (11) 
{"1": {"label": "*4", "atom_type": "N3d"}, "2": {"label": "*3", "atom_type": "Cd"}, "9": {"label": "*0", "atom_type": "Cs"}, "10": {"label": "*1", "atom_type": "Cs"}, "20": {"label": "*2", "atom_type": "H0"}}

>  <type>  (11) 
unop_7

>  <geom_source>  (11) 
Heuristics

$$$$

     RDKit          3D

 23 21  0  0  0  0  0  0  0  0999 V2000
   -3.6804   -0.7575    0.4011 O   0  0  0  0  0  0  0  0  0  0  0  0
   -2.3726   -0.3267    0.5076 N   0  0  0  0  0  0  0  0  0  0  0  0
   -2.3016    0.8849    0.8545 C   0  0  0  0  0  0  0  0  0  0  0  0
   -3.5909   -1.6752    0.1365 H   0  0  0  0  0  0  0  0  0  0  0  0
   -3.1833    1.4944    1.0410 H   0  0  0  0  0  0  0  0  0  0  0  0
    2.2786   -1.7465   -1.8484 C   0  0  0  0  0  0  0  0  0  0  0  0
    2.2786   -1.7465   -0.3255 C   0  0  0  0  0  0  0  0  0  0  0  0
    2.2786   -0.3534    0.2701 C   0  0  0  0  0  0  0  0  0  0  0  0
    1.0956    0.3102   -0.0975 O   0  0  0  0  0  0  0  0  0  0  0  0
    1.0248    1.6283    0.3834 C   0  0  0  0  0  0  0  0  0  0  0  0
   -0.2785    2.2461   -0.0675 C   0  0  0  0  0  3  0  0  0  0  0  0
    3.1606   -1.2321   -2.2380 H   0  0  0  0  0  0  0  0  0  0  0  0
    1.3958   -1.2368   -2.2344 H   0  0  0  0  0  0  0  0  0  0  0  0
    2.2840   -2.7643   -2.2410 H   0  0  0  0  0  0  0  0  0  0  0  0
    3.1601   -2.2729    0.0508 H   0  0  0  0  0  0  0  0  0  0  0  0
    1.4042   -2.2844    0.0498 H   0  0  0  0  0  0  0  0  0  0  0  0
    3.1527    0.2117   -0.0903 H   0  0  0  0  0  0  0  0  0  0  0  0
    2.3533   -0.4073    1.3661 H   0  0  0  0  0  0  0  0  0  0  0  0
    1.0921    1.6311    1.4814 H   0  0  0  0  0  0  0  0  0  0  0  0
    1.8777    2.2112    0.0055 H   0  0  0  0  0  0  0  0  0  0  0  0
   -1.2941    1.5628    0.3954 H   0  0  0  0  0  0  0  0  0  0  0  0
   -0.3393    2.2579   -1.1563 H   0  0  0  0  0  0  0  0  0  0  0  0
   -0.3561    3.2721    0.2956 H   0  0  0  0  0  0  0  0  0  0  0  0
  1  2  1  0
  1  4  1  0
  2  3  2  3
  3  5  1  0
  3 21  1  0
  6  7  1  0
  6 12  1  0
  6 13  1  0
  6 14  1  0
  7  8  1  0
  7 15  1  0
  7 16  1  0
  8  9  1  0
  8 17  1  0
  8 18  1  0
  9 10  1  0
 10 11  1  0
 10 19  1  0
 10 20  1  0
 11 22  1  0
 11 23  1  0
M  RAD  1  11   2
M  END
>  <reaction>  (12) 
rmg_rxn_15417

>  <mol_properties>  (12) 
{"1": {"label": "*4", "atom_type": "N3d"}, "2": {"label": "*3", "atom_type": "Cd"}, "9": {"label": "*0", "atom_type": "Cs"}, "10": {"label": "*1", "atom_type": "Cs"}, "20": {"label": "*2", "atom_type": "H0"}}

>  <type>  (12) 
unop_8

>  <geom_source>  (12) 
Heuristics

$$$$

     RDKit          3D

 23 21  0  0  0  0  0  0  0  0999 V2000
   -3.1407    0.1602   -0.1778 O   0  0  0  0  0  0  0  0  0  0  0  0
   -1.8424    0.6970   -0.2896 N   0  0  0  0  0  0  0  0  0  0  0  0
   -1.3523    1.3624    0.6283 C   0  0  0  0  0  3  0  0  0  0  0  0
   -3.2790   -0.3141   -1.0094 H   0  0  0  0  0  0  0  0  0  0  0  0
   -1.7634    1.6414    1.5904 H   0  0  0  0  0  0  0  0  0  0  0  0
   -0.3903   -2.7105    0.1955 C   0  0  0  0  0  0  0  0  0  0  0  0
    0.5260   -1.6878   -0.4629 C   0  0  0  0  0  0  0  0  0  0  0  0
    1.3050   -0.8951    0.5892 C   0  0  0  0  0  0  0  0  0  0  0  0
    2.2869   -0.0288    0.0575 O   0  0  0  0  0  0  0  0  0  0  0  0
    1.8210    1.0894   -0.6658 C   0  0  0  0  0  0  0  0  0  0  0  0
    1.1160    2.1306    0.1702 C   0  0  0  0  0  0  0  0  0  0  0  0
   -1.1187   -2.2119    0.8313 H   0  0  0  0  0  0  0  0  0  0  0  0
    0.1821   -3.4032    0.8083 H   0  0  0  0  0  0  0  0  0  0  0  0
   -0.9263   -3.2814   -0.5589 H   0  0  0  0  0  0  0  0  0  0  0  0
   -0.0771   -1.0025   -1.0609 H   0  0  0  0  0  0  0  0  0  0  0  0
    1.2371   -2.1885   -1.1228 H   0  0  0  0  0  0  0  0  0  0  0  0
    1.8730   -1.5848    1.2202 H   0  0  0  0  0  0  0  0  0  0  0  0
    0.6013   -0.3433    1.2275 H   0  0  0  0  0  0  0  0  0  0  0  0
    2.7371    1.5205   -1.0922 H   0  0  0  0  0  0  0  0  0  0  0  0
    1.1776    0.7823   -1.5026 H   0  0  0  0  0  0  0  0  0  0  0  0
   -0.1171    1.7546    0.3944 H   0  0  0  0  0  0  0  0  0  0  0  0
    1.0131    3.0726   -0.3554 H   0  0  0  0  0  0  0  0  0  0  0  0
    1.5653    2.2579    1.1490 H   0  0  0  0  0  0  0  0  0  0  0  0
  1  2  1  0
  1  4  1  0
  2  3  2  3
  3  5  1  0
  6  7  1  0
  6 12  1  0
  6 13  1  0
  6 14  1  0
  7  8  1  0
  7 15  1  0
  7 16  1  0
  8  9  1  0
  8 17  1  0
  8 18  1  0
  9 10  1  0
 10 11  1  0
 10 19  1  0
 10 20  1  0
 11 21  1  0
 11 22  1  0
 11 23  1  0
M  RAD  1   3   2
M  END
>  <reaction>  (13) 
rmg_rxn_15417

>  <mol_properties>  (13) 
{"1": {"label": "*4", "atom_type": "N3d"}, "2": {"label": "*3", "atom_type": "Cd"}, "9": {"label": "*0", "atom_type": "Cs"}, "10": {"label": "*1", "atom_type": "Cs"}, "20": {"label": "*2", "atom_type": "H0"}}

>  <type>  (13) 
unop_9

>  <geom_source>  (13) 
Heuristics

$$$$

     RDKit          3D

 23 21  0  0  0  0  0  0  0  0999 V2000
   -4.2374    0.1787    0.9878 O   0  0  0  0  0  0  0  0  0  0  0  0
   -3.2396    0.9679    0.4507 N   0  0  0  0  0  0  0  0  0  0  0  0
   -2.0893    0.5497    0.7598 C   0  0  0  0  0  0  0  0  0  0  0  0
   -5.0428    0.6001    0.6815 H   0  0  0  0  0  0  0  0  0  0  0  0
   -1.9320   -0.3315    1.3781 H   0  0  0  0  0  0  0  0  0  0  0  0
    2.4909   -2.0817   -1.9430 C   0  0  0  0  0  0  0  0  0  0  0  0
    2.4909   -2.0817   -0.4201 C   0  0  0  0  0  0  0  0  0  0  0  0
    2.4909   -0.6886    0.1754 C   0  0  0  0  0  0  0  0  0  0  0  0
    1.3079   -0.0250   -0.1922 O   0  0  0  0  0  0  0  0  0  0  0  0
    1.2372    1.2930    0.2887 C   0  0  0  0  0  0  0  0  0  0  0  0
   -0.0662    1.9108   -0.1622 C   0  0  0  0  0  3  0  0  0  0  0  0
    3.3730   -1.5674   -2.3327 H   0  0  0  0  0  0  0  0  0  0  0  0
    1.6082   -1.5720   -2.3291 H   0  0  0  0  0  0  0  0  0  0  0  0
    2.4964   -3.0996   -2.3357 H   0  0  0  0  0  0  0  0  0  0  0  0
    3.3724   -2.6082   -0.0439 H   0  0  0  0  0  0  0  0  0  0  0  0
    1.6165   -2.6197   -0.0449 H   0  0  0  0  0  0  0  0  0  0  0  0
    3.3651   -0.1236   -0.1850 H   0  0  0  0  0  0  0  0  0  0  0  0
    2.5657   -0.7426    1.2714 H   0  0  0  0  0  0  0  0  0  0  0  0
    1.3044    1.2959    1.3868 H   0  0  0  0  0  0  0  0  0  0  0  0
    2.0900    1.8760   -0.0892 H   0  0  0  0  0  0  0  0  0  0  0  0
   -1.0818    1.2275    0.3007 H   0  0  0  0  0  0  0  0  0  0  0  0
   -0.1270    1.9227   -1.2510 H   0  0  0  0  0  0  0  0  0  0  0  0
   -0.1438    2.9368    0.2009 H   0  0  0  0  0  0  0  0  0  0  0  0
  1  2  1  0
  1  4  1  0
  2  3  2  3
  3  5  1  0
  3 21  1  0
  6  7  1  0
  6 12  1  0
  6 13  1  0
  6 14  1  0
  7  8  1  0
  7 15  1  0
  7 16  1  0
  8  9  1  0
  8 17  1  0
  8 18  1  0
  9 10  1  0
 10 11  1  0
 10 19  1  0
 10 20  1  0
 11 22  1  0
 11 23  1  0
M  RAD  1  11   2
M  END
>  <reaction>  (14) 
rmg_rxn_15417

>  <mol_properties>  (14) 
{"1": {"label": "*4", "atom_type": "N3d"}, "2": {"label": "*3", "atom_type": "Cd"}, "9": {"label": "*0", "atom_type": "Cs"}, "10": {"label": "*1", "atom_type": "Cs"}, "20": {"label": "*2", "atom_type": "H0"}}

>  <type>  (14) 
unop_10

>  <geom_source>  (14) 
Heuristics

$$$$

     RDKit          3D

 23 21  0  0  0  0  0  0  0  0999 V2000
   -3.1418   -0.1522    0.1789 O   0  0  0  0  0  0  0  0  0  0  0  0
   -1.8432   -0.6889    0.2883 N   0  0  0  0  0  0  0  0  0  0  0  0
   -1.3597   -1.3648   -0.6255 C   0  0  0  0  0  3  0  0  0  0  0  0
   -3.2744    0.3313    1.0062 H   0  0  0  0  0  0  0  0  0  0  0  0
   -1.7777   -1.6540   -1.5816 H   0  0  0  0  0  0  0  0  0  0  0  0
   -0.3779    2.7156   -0.1979 C   0  0  0  0  0  0  0  0  0  0  0  0
    0.5315    1.6877    0.4621 C   0  0  0  0  0  0  0  0  0  0  0  0
    1.3088    0.8915   -0.5886 C   0  0  0  0  0  0  0  0  0  0  0  0
    2.2865    0.0217   -0.0550 O   0  0  0  0  0  0  0  0  0  0  0  0
    1.8151   -1.0954    0.6662 C   0  0  0  0  0  0  0  0  0  0  0  0
    1.1093   -2.1338   -0.1729 C   0  0  0  0  0  0  0  0  0  0  0  0
   -1.1070    2.2212   -0.8361 H   0  0  0  0  0  0  0  0  0  0  0  0
    0.1997    3.4058   -0.8086 H   0  0  0  0  0  0  0  0  0  0  0  0
   -0.9129    3.2887    0.5555 H   0  0  0  0  0  0  0  0  0  0  0  0
   -0.0764    1.0052    1.0583 H   0  0  0  0  0  0  0  0  0  0  0  0
    1.2437    2.1844    1.1238 H   0  0  0  0  0  0  0  0  0  0  0  0
    1.8803    1.5787   -1.2192 H   0  0  0  0  0  0  0  0  0  0  0  0
    0.6039    0.3421   -1.2276 H   0  0  0  0  0  0  0  0  0  0  0  0
    2.7285   -1.5298    1.0949 H   0  0  0  0  0  0  0  0  0  0  0  0
    1.1703   -0.7869    1.5013 H   0  0  0  0  0  0  0  0  0  0  0  0
   -0.1239   -1.7566   -0.3949 H   0  0  0  0  0  0  0  0  0  0  0  0
    1.0063   -3.0775    0.3496 H   0  0  0  0  0  0  0  0  0  0  0  0
    1.5581   -2.2580   -1.1522 H   0  0  0  0  0  0  0  0  0  0  0  0
  1  2  1  0
  1  4  1  0
  2  3  2  3
  3  5  1  0
  6  7  1  0
  6 12  1  0
  6 13  1  0
  6 14  1  0
  7  8  1  0
  7 15  1  0
  7 16  1  0
  8  9  1  0
  8 17  1  0
  8 18  1  0
  9 10  1  0
 10 11  1  0
 10 19  1  0
 10 20  1  0
 11 21  1  0
 11 22  1  0
 11 23  1  0
M  RAD  1   3   2
M  END
>  <reaction>  (15) 
rmg_rxn_15417

>  <mol_properties>  (15) 
{"1": {"label": "*4", "atom_type": "N3d"}, "2": {"label": "*3", "atom_type": "Cd"}, "9": {"label": "*0", "atom_type": "Cs"}, "10": {"label": "*1", "atom_type": "Cs"}, "20": {"label": "*2", "atom_type": "H0"}}

>  <type>  (15) 
unop_11

>  <geom_source>  (15) 
Heuristics

$$$$

     RDKit          3D

 23 21  0  0  0  0  0  0  0  0999 V2000
   -4.0135   -0.2307    0.1947 O   0  0  0  0  0  0  0  0  0  0  0  0
   -2.6339   -0.1695    0.2053 N   0  0  0  0  0  0  0  0  0  0  0  0
   -2.2089    0.7722    0.9306 C   0  0  0  0  0  0  0  0  0  0  0  0
   -4.1982   -0.9744   -0.3822 H   0  0  0  0  0  0  0  0  0  0  0  0
   -2.8738    1.4416    1.4723 H   0  0  0  0  0  0  0  0  0  0  0  0
    2.3713   -1.8592   -1.7722 C   0  0  0  0  0  0  0  0  0  0  0  0
    2.3713   -1.8592   -0.2493 C   0  0  0  0  0  0  0  0  0  0  0  0
    2.3713   -0.4661    0.3462 C   0  0  0  0  0  0  0  0  0  0  0  0
    1.1883    0.1975   -0.0214 O   0  0  0  0  0  0  0  0  0  0  0  0
    1.1176    1.5156    0.4595 C   0  0  0  0  0  0  0  0  0  0  0  0
   -0.1857    2.1333    0.0087 C   0  0  0  0  0  3  0  0  0  0  0  0
    3.2534   -1.3448   -2.1618 H   0  0  0  0  0  0  0  0  0  0  0  0
    1.4886   -1.3495   -2.1583 H   0  0  0  0  0  0  0  0  0  0  0  0
    2.3768   -2.8770   -2.1649 H   0  0  0  0  0  0  0  0  0  0  0  0
    3.2529   -2.3856    0.1270 H   0  0  0  0  0  0  0  0  0  0  0  0
    1.4970   -2.3971    0.1260 H   0  0  0  0  0  0  0  0  0  0  0  0
    3.2455    0.0990   -0.0142 H   0  0  0  0  0  0  0  0  0  0  0  0
    2.4461   -0.5200    1.4423 H   0  0  0  0  0  0  0  0  0  0  0  0
    1.1849    1.5184    1.5576 H   0  0  0  0  0  0  0  0  0  0  0  0
    1.9705    2.0985    0.0816 H   0  0  0  0  0  0  0  0  0  0  0  0
   -1.2013    1.4501    0.4715 H   0  0  0  0  0  0  0  0  0  0  0  0
   -0.2465    2.1452   -1.0801 H   0  0  0  0  0  0  0  0  0  0  0  0
   -0.2633    3.1594    0.3717 H   0  0  0  0  0  0  0  0  0  0  0  0
  1  2  1  0
  1  4  1  0
  2  3  2  3
  3  5  1  0
  3 21  1  0
  6  7  1  0
  6 12  1  0
  6 13  1  0
  6 14  1  0
  7  8  1  0
  7 15  1  0
  7 16  1  0
  8  9  1  0
  8 17  1  0
  8 18  1  0
  9 10  1  0
 10 11  1  0
 10 19  1  0
 10 20  1  0
 11 22  1  0
 11 23  1  0
M  RAD  1  11   2
M  END
>  <reaction>  (16) 
rmg_rxn_15417

>  <mol_properties>  (16) 
{"1": {"label": "*4", "atom_type": "N3d"}, "2": {"label": "*3", "atom_type": "Cd"}, "9": {"label": "*0", "atom_type": "Cs"}, "10": {"label": "*1", "atom_type": "Cs"}, "20": {"label": "*2", "atom_type": "H0"}}

>  <type>  (16) 
unop_12

>  <geom_source>  (16) 
Heuristics

$$$$

     RDKit          3D

 23 21  0  0  0  0  0  0  0  0999 V2000
   -3.1399   -0.1588   -0.1794 O   0  0  0  0  0  0  0  0  0  0  0  0
   -1.8419   -0.6965   -0.2898 N   0  0  0  0  0  0  0  0  0  0  0  0
   -1.3535   -1.3622    0.6288 C   0  0  0  0  0  3  0  0  0  0  0  0
   -3.2773    0.3151   -1.0115 H   0  0  0  0  0  0  0  0  0  0  0  0
   -1.7667   -1.6414    1.5899 H   0  0  0  0  0  0  0  0  0  0  0  0
   -0.3890    2.7107    0.1980 C   0  0  0  0  0  0  0  0  0  0  0  0
    0.5271    1.6891   -0.4625 C   0  0  0  0  0  0  0  0  0  0  0  0
    1.3062    0.8945    0.5881 C   0  0  0  0  0  0  0  0  0  0  0  0
    2.2865    0.0277    0.0545 O   0  0  0  0  0  0  0  0  0  0  0  0
    1.8184   -1.0912   -0.6661 C   0  0  0  0  0  0  0  0  0  0  0  0
    1.1150   -2.1310    0.1732 C   0  0  0  0  0  0  0  0  0  0  0  0
   -0.9250    3.2832   -0.5552 H   0  0  0  0  0  0  0  0  0  0  0  0
    0.1836    3.4021    0.8121 H   0  0  0  0  0  0  0  0  0  0  0  0
   -1.1174    2.2110    0.8330 H   0  0  0  0  0  0  0  0  0  0  0  0
    1.2382    2.1910   -1.1216 H   0  0  0  0  0  0  0  0  0  0  0  0
   -0.0760    1.0049   -1.0616 H   0  0  0  0  0  0  0  0  0  0  0  0
    0.6025    0.3429    1.2265 H   0  0  0  0  0  0  0  0  0  0  0  0
    1.8754    1.5830    1.2193 H   0  0  0  0  0  0  0  0  0  0  0  0
    1.1730   -0.7851   -1.5017 H   0  0  0  0  0  0  0  0  0  0  0  0
    2.7332   -1.5233   -1.0942 H   0  0  0  0  0  0  0  0  0  0  0  0
   -0.1182   -1.7550    0.3966 H   0  0  0  0  0  0  0  0  0  0  0  0
    1.5650   -2.2551    1.1520 H   0  0  0  0  0  0  0  0  0  0  0  0
    1.0127   -3.0746   -0.3497 H   0  0  0  0  0  0  0  0  0  0  0  0
  1  2  1  0
  1  4  1  0
  2  3  2  3
  3  5  1  0
  6  7  1  0
  6 12  1  0
  6 13  1  0
  6 14  1  0
  7  8  1  0
  7 15  1  0
  7 16  1  0
  8  9  1  0
  8 17  1  0
  8 18  1  0
  9 10  1  0
 10 11  1  0
 10 19  1  0
 10 20  1  0
 11 21  1  0
 11 22  1  0
 11 23  1  0
M  RAD  1   3   2
M  END
>  <reaction>  (17) 
rmg_rxn_15417

>  <mol_properties>  (17) 
{"1": {"label": "*4", "atom_type": "N3d"}, "2": {"label": "*3", "atom_type": "Cd"}, "9": {"label": "*0", "atom_type": "Cs"}, "10": {"label": "*1", "atom_type": "Cs"}, "20": {"label": "*2", "atom_type": "H0"}}

>  <type>  (17) 
unop_13

>  <geom_source>  (17) 
Heuristics

$$$$

     RDKit          3D

 23 21  0  0  0  0  0  0  0  0999 V2000
   -4.2393    0.2979    0.4143 O   0  0  0  0  0  0  0  0  0  0  0  0
   -2.9149    0.1404    0.0564 N   0  0  0  0  0  0  0  0  0  0  0  0
   -2.1321    0.6389    0.9121 C   0  0  0  0  0  0  0  0  0  0  0  0
   -4.7153   -0.1169   -0.3077 H   0  0  0  0  0  0  0  0  0  0  0  0
   -2.4868    1.1291    1.8163 H   0  0  0  0  0  0  0  0  0  0  0  0
    2.4480   -1.9925   -1.7907 C   0  0  0  0  0  0  0  0  0  0  0  0
    2.4480   -1.9925   -0.2678 C   0  0  0  0  0  0  0  0  0  0  0  0
    2.4480   -0.5994    0.3277 C   0  0  0  0  0  0  0  0  0  0  0  0
    1.2650    0.0642   -0.0399 O   0  0  0  0  0  0  0  0  0  0  0  0
    1.1943    1.3822    0.4410 C   0  0  0  0  0  0  0  0  0  0  0  0
   -0.1090    2.0000   -0.0098 C   0  0  0  0  0  3  0  0  0  0  0  0
    3.3301   -1.4782   -2.1803 H   0  0  0  0  0  0  0  0  0  0  0  0
    1.5653   -1.4828   -2.1768 H   0  0  0  0  0  0  0  0  0  0  0  0
    2.4535   -3.0104   -2.1833 H   0  0  0  0  0  0  0  0  0  0  0  0
    3.3296   -2.5190    0.1085 H   0  0  0  0  0  0  0  0  0  0  0  0
    1.5737   -2.5305    0.1075 H   0  0  0  0  0  0  0  0  0  0  0  0
    3.3222   -0.0343   -0.0326 H   0  0  0  0  0  0  0  0  0  0  0  0
    2.5228   -0.6533    1.4238 H   0  0  0  0  0  0  0  0  0  0  0  0
    1.2616    1.3851    1.5391 H   0  0  0  0  0  0  0  0  0  0  0  0
    2.0472    1.9652    0.0632 H   0  0  0  0  0  0  0  0  0  0  0  0
   -1.1246    1.3167    0.4530 H   0  0  0  0  0  0  0  0  0  0  0  0
   -0.1698    2.0119   -1.0986 H   0  0  0  0  0  0  0  0  0  0  0  0
   -0.1866    3.0260    0.3533 H   0  0  0  0  0  0  0  0  0  0  0  0
  1  2  1  0
  1  4  1  0
  2  3  2  3
  3  5  1  0
  3 21  1  0
  6  7  1  0
  6 12  1  0
  6 13  1  0
  6 14  1  0
  7  8  1  0
  7 15  1  0
  7 16  1  0
  8  9  1  0
  8 17  1  0
  8 18  1  0
  9 10  1  0
 10 11  1  0
 10 19  1  0
 10 20  1  0
 11 22  1  0
 11 23  1  0
M  RAD  1  11   2
M  END
>  <reaction>  (18) 
rmg_rxn_15417

>  <mol_properties>  (18) 
{"1": {"label": "*4", "atom_type": "N3d"}, "2": {"label": "*3", "atom_type": "Cd"}, "9": {"label": "*0", "atom_type": "Cs"}, "10": {"label": "*1", "atom_type": "Cs"}, "20": {"label": "*2", "atom_type": "H0"}}

>  <type>  (18) 
unop_14

>  <geom_source>  (18) 
Heuristics

$$$$

     RDKit          3D

 23 21  0  0  0  0  0  0  0  0999 V2000
   -3.1428    0.1482    0.1814 O   0  0  0  0  0  0  0  0  0  0  0  0
   -1.8457    0.6887    0.2887 N   0  0  0  0  0  0  0  0  0  0  0  0
   -1.3614    1.3567   -0.6306 C   0  0  0  0  0  3  0  0  0  0  0  0
   -3.2768   -0.3266    1.0134 H   0  0  0  0  0  0  0  0  0  0  0  0
   -1.7777    1.6354   -1.5905 H   0  0  0  0  0  0  0  0  0  0  0  0
   -0.3709   -2.7169   -0.1998 C   0  0  0  0  0  0  0  0  0  0  0  0
    0.5348   -1.6870    0.4621 C   0  0  0  0  0  0  0  0  0  0  0  0
    1.3132   -0.8897   -0.5870 C   0  0  0  0  0  0  0  0  0  0  0  0
    2.2869   -0.0167   -0.0514 O   0  0  0  0  0  0  0  0  0  0  0  0
    1.8103    1.1001    0.6669 C   0  0  0  0  0  0  0  0  0  0  0  0
    1.1041    2.1353   -0.1757 C   0  0  0  0  0  0  0  0  0  0  0  0
   -1.1005   -2.2243   -0.8387 H   0  0  0  0  0  0  0  0  0  0  0  0
   -0.9054   -3.2919    0.5526 H   0  0  0  0  0  0  0  0  0  0  0  0
    0.2096   -3.4053   -0.8100 H   0  0  0  0  0  0  0  0  0  0  0  0
    1.2463   -2.1819    1.1259 H   0  0  0  0  0  0  0  0  0  0  0  0
   -0.0761   -1.0055    1.0565 H   0  0  0  0  0  0  0  0  0  0  0  0
    0.6087   -0.3430   -1.2287 H   0  0  0  0  0  0  0  0  0  0  0  0
    1.8885   -1.5760   -1.2151 H   0  0  0  0  0  0  0  0  0  0  0  0
    1.1636    0.7910    1.5004 H   0  0  0  0  0  0  0  0  0  0  0  0
    2.7212    1.5374    1.0979 H   0  0  0  0  0  0  0  0  0  0  0  0
   -0.1274    1.7540   -0.3999 H   0  0  0  0  0  0  0  0  0  0  0  0
    1.5551    2.2591   -1.1541 H   0  0  0  0  0  0  0  0  0  0  0  0
    0.9972    3.0796    0.3449 H   0  0  0  0  0  0  0  0  0  0  0  0
  1  2  1  0
  1  4  1  0
  2  3  2  3
  3  5  1  0
  6  7  1  0
  6 12  1  0
  6 13  1  0
  6 14  1  0
  7  8  1  0
  7 15  1  0
  7 16  1  0
  8  9  1  0
  8 17  1  0
  8 18  1  0
  9 10  1  0
 10 11  1  0
 10 19  1  0
 10 20  1  0
 11 21  1  0
 11 22  1  0
 11 23  1  0
M  RAD  1   3   2
M  END
>  <reaction>  (19) 
rmg_rxn_15417

>  <mol_properties>  (19) 
{"1": {"label": "*4", "atom_type": "N3d"}, "2": {"label": "*3", "atom_type": "Cd"}, "9": {"label": "*0", "atom_type": "Cs"}, "10": {"label": "*1", "atom_type": "Cs"}, "20": {"label": "*2", "atom_type": "H0"}}

>  <type>  (19) 
unop_15

>  <geom_source>  (19) 
Heuristics

$$$$

     RDKit          3D

 23 21  0  0  0  0  0  0  0  0999 V2000
   -4.0347    0.7858    1.6489 O   0  0  0  0  0  0  0  0  0  0  0  0
   -2.6545    0.8157    1.6148 N   0  0  0  0  0  0  0  0  0  0  0  0
   -2.2024    0.4641    0.4898 C   0  0  0  0  0  0  0  0  0  0  0  0
   -4.2409    1.0694    2.5417 H   0  0  0  0  0  0  0  0  0  0  0  0
   -2.8474    0.1764   -0.3377 H   0  0  0  0  0  0  0  0  0  0  0  0
    2.3778   -2.1673   -2.2130 C   0  0  0  0  0  0  0  0  0  0  0  0
    2.3778   -2.1673   -0.6901 C   0  0  0  0  0  0  0  0  0  0  0  0
    2.3778   -0.7742   -0.0946 C   0  0  0  0  0  0  0  0  0  0  0  0
    1.1948   -0.1106   -0.4622 O   0  0  0  0  0  0  0  0  0  0  0  0
    1.1240    1.2074    0.0187 C   0  0  0  0  0  0  0  0  0  0  0  0
   -0.1793    1.8252   -0.4321 C   0  0  0  0  0  3  0  0  0  0  0  0
    3.2598   -1.6530   -2.6026 H   0  0  0  0  0  0  0  0  0  0  0  0
    1.4950   -1.6576   -2.5991 H   0  0  0  0  0  0  0  0  0  0  0  0
    2.3832   -3.1851   -2.6057 H   0  0  0  0  0  0  0  0  0  0  0  0
    3.2593   -2.6937   -0.3138 H   0  0  0  0  0  0  0  0  0  0  0  0
    1.5034   -2.7053   -0.3148 H   0  0  0  0  0  0  0  0  0  0  0  0
    3.2520   -0.2091   -0.4550 H   0  0  0  0  0  0  0  0  0  0  0  0
    2.4525   -0.8281    1.0015 H   0  0  0  0  0  0  0  0  0  0  0  0
    1.1913    1.2103    1.1168 H   0  0  0  0  0  0  0  0  0  0  0  0
    1.9769    1.7904   -0.3592 H   0  0  0  0  0  0  0  0  0  0  0  0
   -1.1949    1.1419    0.0307 H   0  0  0  0  0  0  0  0  0  0  0  0
   -0.2401    1.8371   -1.5209 H   0  0  0  0  0  0  0  0  0  0  0  0
   -0.2569    2.8512   -0.0691 H   0  0  0  0  0  0  0  0  0  0  0  0
  1  2  1  0
  1  4  1  0
  2  3  2  3
  3  5  1  0
  3 21  1  0
  6  7  1  0
  6 12  1  0
  6 13  1  0
  6 14  1  0
  7  8  1  0
  7 15  1  0
  7 16  1  0
  8  9  1  0
  8 17  1  0
  8 18  1  0
  9 10  1  0
 10 11  1  0
 10 19  1  0
 10 20  1  0
 11 22  1  0
 11 23  1  0
M  RAD  1  11   2
M  END
>  <reaction>  (20) 
rmg_rxn_15417

>  <mol_properties>  (20) 
{"1": {"label": "*4", "atom_type": "N3d"}, "2": {"label": "*3", "atom_type": "Cd"}, "9": {"label": "*0", "atom_type": "Cs"}, "10": {"label": "*1", "atom_type": "Cs"}, "20": {"label": "*2", "atom_type": "H0"}}

>  <type>  (20) 
unop_16

>  <geom_source>  (20) 
Heuristics

$$$$

     RDKit          3D

 23 21  0  0  0  0  0  0  0  0999 V2000
   -3.1410   -0.1585    0.1780 O   0  0  0  0  0  0  0  0  0  0  0  0
   -1.8432   -0.6966    0.2900 N   0  0  0  0  0  0  0  0  0  0  0  0
   -1.3533   -1.3611   -0.6288 C   0  0  0  0  0  3  0  0  0  0  0  0
   -3.2798    0.3141    1.0105 H   0  0  0  0  0  0  0  0  0  0  0  0
   -1.7644   -1.6379   -1.5915 H   0  0  0  0  0  0  0  0  0  0  0  0
   -0.3867    2.7122   -0.1962 C   0  0  0  0  0  0  0  0  0  0  0  0
    0.5260    1.6867    0.4629 C   0  0  0  0  0  0  0  0  0  0  0  0
    1.3062    0.8943   -0.5886 C   0  0  0  0  0  0  0  0  0  0  0  0
    2.2869    0.0273   -0.0561 O   0  0  0  0  0  0  0  0  0  0  0  0
    1.8196   -1.0910    0.6659 C   0  0  0  0  0  0  0  0  0  0  0  0
    1.1146   -2.1310   -0.1717 C   0  0  0  0  0  0  0  0  0  0  0  0
   -0.9230    3.2833    0.5578 H   0  0  0  0  0  0  0  0  0  0  0  0
   -1.1148    2.2161   -0.8342 H   0  0  0  0  0  0  0  0  0  0  0  0
    0.1885    3.4045   -0.8068 H   0  0  0  0  0  0  0  0  0  0  0  0
   -0.0799    1.0015    1.0581 H   0  0  0  0  0  0  0  0  0  0  0  0
    1.2364    2.1850    1.1254 H   0  0  0  0  0  0  0  0  0  0  0  0
    1.8753    1.5842   -1.2184 H   0  0  0  0  0  0  0  0  0  0  0  0
    0.6032    0.3433   -1.2284 H   0  0  0  0  0  0  0  0  0  0  0  0
    2.7349   -1.5232    1.0928 H   0  0  0  0  0  0  0  0  0  0  0  0
    1.1756   -0.7841    1.5024 H   0  0  0  0  0  0  0  0  0  0  0  0
   -0.1184   -1.7545   -0.3952 H   0  0  0  0  0  0  0  0  0  0  0  0
    1.0117   -3.0739    0.3524 H   0  0  0  0  0  0  0  0  0  0  0  0
    1.5639   -2.2568   -1.1506 H   0  0  0  0  0  0  0  0  0  0  0  0
  1  2  1  0
  1  4  1  0
  2  3  2  3
  3  5  1  0
  6  7  1  0
  6 12  1  0
  6 13  1  0
  6 14  1  0
  7  8  1  0
  7 15  1  0
  7 16  1  0
  8  9  1  0
  8 17  1  0
  8 18  1  0
  9 10  1  0
 10 11  1  0
 10 19  1  0
 10 20  1  0
 11 21  1  0
 11 22  1  0
 11 23  1  0
M  RAD  1   3   2
M  END
>  <reaction>  (21) 
rmg_rxn_15417

>  <mol_properties>  (21) 
{"1": {"label": "*4", "atom_type": "N3d"}, "2": {"label": "*3", "atom_type": "Cd"}, "9": {"label": "*0", "atom_type": "Cs"}, "10": {"label": "*1", "atom_type": "Cs"}, "20": {"label": "*2", "atom_type": "H0"}}

>  <type>  (21) 
unop_17

>  <geom_source>  (21) 
Heuristics

$$$$

     RDKit          3D

 23 21  0  0  0  0  0  0  0  0999 V2000
   -3.3842   -1.0014    0.9823 O   0  0  0  0  0  0  0  0  0  0  0  0
   -2.1926   -0.3107    0.8815 N   0  0  0  0  0  0  0  0  0  0  0  0
   -2.3772    0.9253    0.7035 C   0  0  0  0  0  0  0  0  0  0  0  0
   -3.1040   -1.9095    1.1129 H   0  0  0  0  0  0  0  0  0  0  0  0
   -3.3693    1.3673    0.6408 H   0  0  0  0  0  0  0  0  0  0  0  0
    2.2030   -1.7061   -1.9993 C   0  0  0  0  0  0  0  0  0  0  0  0
    2.2030   -1.7061   -0.4764 C   0  0  0  0  0  0  0  0  0  0  0  0
    2.2030   -0.3130    0.1191 C   0  0  0  0  0  0  0  0  0  0  0  0
    1.0200    0.3506   -0.2485 O   0  0  0  0  0  0  0  0  0  0  0  0
    0.9493    1.6687    0.2324 C   0  0  0  0  0  0  0  0  0  0  0  0
   -0.3540    2.2864   -0.2185 C   0  0  0  0  0  3  0  0  0  0  0  0
    3.0851   -1.1917   -2.3890 H   0  0  0  0  0  0  0  0  0  0  0  0
    1.3203   -1.1964   -2.3854 H   0  0  0  0  0  0  0  0  0  0  0  0
    2.2085   -2.7239   -2.3920 H   0  0  0  0  0  0  0  0  0  0  0  0
    3.0845   -2.2325   -0.1002 H   0  0  0  0  0  0  0  0  0  0  0  0
    1.3286   -2.2440   -0.1012 H   0  0  0  0  0  0  0  0  0  0  0  0
    3.0772    0.2521   -0.2413 H   0  0  0  0  0  0  0  0  0  0  0  0
    2.2778   -0.3669    1.2151 H   0  0  0  0  0  0  0  0  0  0  0  0
    1.0165    1.6715    1.3305 H   0  0  0  0  0  0  0  0  0  0  0  0
    1.8021    2.2516   -0.1455 H   0  0  0  0  0  0  0  0  0  0  0  0
   -1.3697    1.6031    0.2444 H   0  0  0  0  0  0  0  0  0  0  0  0
   -0.4148    2.2983   -1.3073 H   0  0  0  0  0  0  0  0  0  0  0  0
   -0.4316    3.3125    0.1446 H   0  0  0  0  0  0  0  0  0  0  0  0
  1  2  1  0
  1  4  1  0
  2  3  2  3
  3  5  1  0
  3 21  1  0
  6  7  1  0
  6 12  1  0
  6 13  1  0
  6 14  1  0
  7  8  1  0
  7 15  1  0
  7 16  1  0
  8  9  1  0
  8 17  1  0
  8 18  1  0
  9 10  1  0
 10 11  1  0
 10 19  1  0
 10 20  1  0
 11 22  1  0
 11 23  1  0
M  RAD  1  11   2
M  END
>  <reaction>  (22) 
rmg_rxn_15417

>  <mol_properties>  (22) 
{"1": {"label": "*4", "atom_type": "N3d"}, "2": {"label": "*3", "atom_type": "Cd"}, "9": {"label": "*0", "atom_type": "Cs"}, "10": {"label": "*1", "atom_type": "Cs"}, "20": {"label": "*2", "atom_type": "H0"}}

>  <type>  (22) 
unop_18

>  <geom_source>  (22) 
Heuristics

$$$$

     RDKit          3D

 23 21  0  0  0  0  0  0  0  0999 V2000
   -3.7048    0.4155    2.0793 O   0  0  0  0  0  0  0  0  0  0  0  0
   -2.3895    0.4815    1.6638 N   0  0  0  0  0  0  0  0  0  0  0  0
   -2.2951    0.5731    0.4083 C   0  0  0  0  0  0  0  0  0  0  0  0
   -3.6332    0.3499    3.0335 H   0  0  0  0  0  0  0  0  0  0  0  0
   -3.1646    0.5953   -0.2453 H   0  0  0  0  0  0  0  0  0  0  0  0
    2.2851   -2.0583   -2.2945 C   0  0  0  0  0  0  0  0  0  0  0  0
    2.2851   -2.0583   -0.7716 C   0  0  0  0  0  0  0  0  0  0  0  0
    2.2851   -0.6653   -0.1761 C   0  0  0  0  0  0  0  0  0  0  0  0
    1.1021   -0.0017   -0.5437 O   0  0  0  0  0  0  0  0  0  0  0  0
    1.0313    1.3164   -0.0628 C   0  0  0  0  0  0  0  0  0  0  0  0
   -0.2720    1.9342   -0.5136 C   0  0  0  0  0  3  0  0  0  0  0  0
    3.1671   -1.5440   -2.6841 H   0  0  0  0  0  0  0  0  0  0  0  0
    1.4023   -1.5486   -2.6806 H   0  0  0  0  0  0  0  0  0  0  0  0
    2.2905   -3.0762   -2.6872 H   0  0  0  0  0  0  0  0  0  0  0  0
    3.1666   -2.5848   -0.3953 H   0  0  0  0  0  0  0  0  0  0  0  0
    1.4107   -2.5963   -0.3963 H   0  0  0  0  0  0  0  0  0  0  0  0
    3.1592   -0.1002   -0.5365 H   0  0  0  0  0  0  0  0  0  0  0  0
    2.3598   -0.7192    0.9200 H   0  0  0  0  0  0  0  0  0  0  0  0
    1.0986    1.3193    1.0353 H   0  0  0  0  0  0  0  0  0  0  0  0
    1.8842    1.8994   -0.4407 H   0  0  0  0  0  0  0  0  0  0  0  0
   -1.2876    1.2509   -0.0508 H   0  0  0  0  0  0  0  0  0  0  0  0
   -0.3328    1.9460   -1.6025 H   0  0  0  0  0  0  0  0  0  0  0  0
   -0.3496    2.9602   -0.1506 H   0  0  0  0  0  0  0  0  0  0  0  0
  1  2  1  0
  1  4  1  0
  2  3  2  3
  3  5  1  0
  3 21  1  0
  6  7  1  0
  6 12  1  0
  6 13  1  0
  6 14  1  0
  7  8  1  0
  7 15  1  0
  7 16  1  0
  8  9  1  0
  8 17  1  0
  8 18  1  0
  9 10  1  0
 10 11  1  0
 10 19  1  0
 10 20  1  0
 11 22  1  0
 11 23  1  0
M  RAD  1  11   2
M  END
>  <reaction>  (23) 
rmg_rxn_15417

>  <mol_properties>  (23) 
{"1": {"label": "*4", "atom_type": "N3d"}, "2": {"label": "*3", "atom_type": "Cd"}, "9": {"label": "*0", "atom_type": "Cs"}, "10": {"label": "*1", "atom_type": "Cs"}, "20": {"label": "*2", "atom_type": "H0"}}

>  <type>  (23) 
unop_19

>  <geom_source>  (23) 
Heuristics

$$$$

     RDKit          3D

 23 21  0  0  0  0  0  0  0  0999 V2000
   -4.2839    0.4874    0.8919 O   0  0  0  0  0  0  0  0  0  0  0  0
   -3.1423    0.5506    0.1174 N   0  0  0  0  0  0  0  0  0  0  0  0
   -2.0941    0.5513    0.8208 C   0  0  0  0  0  0  0  0  0  0  0  0
   -4.9919    0.4939    0.2447 H   0  0  0  0  0  0  0  0  0  0  0  0
   -2.1170    0.5067    1.9076 H   0  0  0  0  0  0  0  0  0  0  0  0
    2.4860   -2.0800   -1.8820 C   0  0  0  0  0  0  0  0  0  0  0  0
    2.4860   -2.0800   -0.3591 C   0  0  0  0  0  0  0  0  0  0  0  0
    2.4860   -0.6870    0.2364 C   0  0  0  0  0  0  0  0  0  0  0  0
    1.3031   -0.0234   -0.1312 O   0  0  0  0  0  0  0  0  0  0  0  0
    1.2323    1.2947    0.3497 C   0  0  0  0  0  0  0  0  0  0  0  0
   -0.0710    1.9125   -0.1011 C   0  0  0  0  0  3  0  0  0  0  0  0
    3.3681   -1.5657   -2.2716 H   0  0  0  0  0  0  0  0  0  0  0  0
    1.6033   -1.5704   -2.2681 H   0  0  0  0  0  0  0  0  0  0  0  0
    2.4915   -3.0979   -2.2747 H   0  0  0  0  0  0  0  0  0  0  0  0
    3.3676   -2.6065    0.0172 H   0  0  0  0  0  0  0  0  0  0  0  0
    1.6117   -2.6180    0.0162 H   0  0  0  0  0  0  0  0  0  0  0  0
    3.3602   -0.1219   -0.1240 H   0  0  0  0  0  0  0  0  0  0  0  0
    2.5608   -0.7409    1.3325 H   0  0  0  0  0  0  0  0  0  0  0  0
    1.2996    1.2975    1.4478 H   0  0  0  0  0  0  0  0  0  0  0  0
    2.0852    1.8777   -0.0282 H   0  0  0  0  0  0  0  0  0  0  0  0
   -1.0866    1.2292    0.3617 H   0  0  0  0  0  0  0  0  0  0  0  0
   -0.1318    1.9243   -1.1899 H   0  0  0  0  0  0  0  0  0  0  0  0
   -0.1486    2.9385    0.2619 H   0  0  0  0  0  0  0  0  0  0  0  0
  1  2  1  0
  1  4  1  0
  2  3  2  3
  3  5  1  0
  3 21  1  0
  6  7  1  0
  6 12  1  0
  6 13  1  0
  6 14  1  0
  7  8  1  0
  7 15  1  0
  7 16  1  0
  8  9  1  0
  8 17  1  0
  8 18  1  0
  9 10  1  0
 10 11  1  0
 10 19  1  0
 10 20  1  0
 11 22  1  0
 11 23  1  0
M  RAD  1  11   2
M  END
>  <reaction>  (24) 
rmg_rxn_15417

>  <mol_properties>  (24) 
{"1": {"label": "*4", "atom_type": "N3d"}, "2": {"label": "*3", "atom_type": "Cd"}, "9": {"label": "*0", "atom_type": "Cs"}, "10": {"label": "*1", "atom_type": "Cs"}, "20": {"label": "*2", "atom_type": "H0"}}

>  <type>  (24) 
unop_20

>  <geom_source>  (24) 
Heuristics

$$$$

     RDKit          3D

 23 21  0  0  0  0  0  0  0  0999 V2000
   -3.2705   -0.7903    1.6792 O   0  0  0  0  0  0  0  0  0  0  0  0
   -2.1319   -0.1421    1.2427 N   0  0  0  0  0  0  0  0  0  0  0  0
   -2.4051    0.8661    0.5340 C   0  0  0  0  0  0  0  0  0  0  0  0
   -2.9257   -1.5215    2.1954 H   0  0  0  0  0  0  0  0  0  0  0  0
   -3.4265    1.1660    0.3095 H   0  0  0  0  0  0  0  0  0  0  0  0
    2.1751   -1.7653   -2.1688 C   0  0  0  0  0  0  0  0  0  0  0  0
    2.1751   -1.7653   -0.6459 C   0  0  0  0  0  0  0  0  0  0  0  0
    2.1751   -0.3722   -0.0504 C   0  0  0  0  0  0  0  0  0  0  0  0
    0.9921    0.2914   -0.4180 O   0  0  0  0  0  0  0  0  0  0  0  0
    0.9214    1.6094    0.0629 C   0  0  0  0  0  0  0  0  0  0  0  0
   -0.3819    2.2272   -0.3879 C   0  0  0  0  0  3  0  0  0  0  0  0
    3.0572   -1.2510   -2.5585 H   0  0  0  0  0  0  0  0  0  0  0  0
    1.2924   -1.2556   -2.5549 H   0  0  0  0  0  0  0  0  0  0  0  0
    2.1806   -2.7831   -2.5615 H   0  0  0  0  0  0  0  0  0  0  0  0
    3.0566   -2.2917   -0.2696 H   0  0  0  0  0  0  0  0  0  0  0  0
    1.3007   -2.3032   -0.2706 H   0  0  0  0  0  0  0  0  0  0  0  0
    3.0493    0.1929   -0.4108 H   0  0  0  0  0  0  0  0  0  0  0  0
    2.2499   -0.4261    1.0456 H   0  0  0  0  0  0  0  0  0  0  0  0
    0.9887    1.6123    1.1610 H   0  0  0  0  0  0  0  0  0  0  0  0
    1.7743    2.1924   -0.3150 H   0  0  0  0  0  0  0  0  0  0  0  0
   -1.3976    1.5439    0.0749 H   0  0  0  0  0  0  0  0  0  0  0  0
   -0.4427    2.2391   -1.4768 H   0  0  0  0  0  0  0  0  0  0  0  0
   -0.4595    3.2532   -0.0249 H   0  0  0  0  0  0  0  0  0  0  0  0
  1  2  1  0
  1  4  1  0
  2  3  2  3
  3  5  1  0
  3 21  1  0
  6  7  1  0
  6 12  1  0
  6 13  1  0
  6 14  1  0
  7  8  1  0
  7 15  1  0
  7 16  1  0
  8  9  1  0
  8 17  1  0
  8 18  1  0
  9 10  1  0
 10 11  1  0
 10 19  1  0
 10 20  1  0
 11 22  1  0
 11 23  1  0
M  RAD  1  11   2
M  END
>  <reaction>  (25) 
rmg_rxn_15417

>  <mol_properties>  (25) 
{"1": {"label": "*4", "atom_type": "N3d"}, "2": {"label": "*3", "atom_type": "Cd"}, "9": {"label": "*0", "atom_type": "Cs"}, "10": {"label": "*1", "atom_type": "Cs"}, "20": {"label": "*2", "atom_type": "H0"}}

>  <type>  (25) 
unop_21

>  <geom_source>  (25) 
Heuristics

$$$$

     RDKit          3D

 23 21  0  0  0  0  0  0  0  0999 V2000
   -0.8448   -0.3495   -0.0768 O   0  0  0  0  0  0  0  0  0  0  0  0
    4.6169    0.2563   -0.5654 O   0  0  0  0  0  0  0  0  0  0  0  0
    4.7419    0.2582    0.8036 N   0  0  0  0  0  0  0  0  0  0  0  0
   -2.9947   -0.2614   -1.1529 C   0  0  0  0  0  0  0  0  0  0  0  0
   -1.5571    0.2600   -1.1335 C   0  0  0  0  0  0  0  0  0  0  0  0
    0.4750    0.1498   -0.0501 C   0  0  0  0  0  0  0  0  0  0  0  0
   -3.7638    0.1433    0.1031 C   0  0  0  0  0  0  0  0  0  0  0  0
    1.2383   -0.5164    1.0813 C   0  0  0  0  0  3  0  0  0  0  0  0
    3.7467   -0.0891    1.5497 C   0  0  0  0  0  0  0  0  0  0  0  0
   -2.9868   -1.3697   -1.2396 H   0  0  0  0  0  0  0  0  0  0  0  0
   -3.5177    0.1508   -2.0428 H   0  0  0  0  0  0  0  0  0  0  0  0
   -1.5779    1.3685   -1.0180 H   0  0  0  0  0  0  0  0  0  0  0  0
   -1.0893    0.0077   -2.1125 H   0  0  0  0  0  0  0  0  0  0  0  0
    0.4813    1.2484    0.1307 H   0  0  0  0  0  0  0  0  0  0  0  0
    1.0058   -0.0744   -1.0028 H   0  0  0  0  0  0  0  0  0  0  0  0
   -3.7934    1.2497    0.1983 H   0  0  0  0  0  0  0  0  0  0  0  0
   -4.8057   -0.2348    0.0376 H   0  0  0  0  0  0  0  0  0  0  0  0
   -3.2873   -0.2904    1.0078 H   0  0  0  0  0  0  0  0  0  0  0  0
    0.7541   -0.2952    2.0561 H   0  0  0  0  0  0  0  0  0  0  0  0
    1.2780   -1.6154    0.9252 H   0  0  0  0  0  0  0  0  0  0  0  0
    3.8530   -0.0849    2.6258 H   0  0  0  0  0  0  0  0  0  0  0  0
    2.6272   -0.4408    1.0209 H   0  0  0  0  0  0  0  0  0  0  0  0
    5.4001    0.5294   -1.1455 H   0  0  0  0  0  0  0  0  0  0  0  0
  1  6  1  0
  1  5  1  0
  2  3  1  0
  2 23  1  0
  3  9  2  3
  4  7  1  0
  4  5  1  0
  4 10  1  0
  4 11  1  0
  5 12  1  0
  5 13  1  0
  6  8  1  0
  6 14  1  0
  6 15  1  0
  7 16  1  0
  7 17  1  0
  7 18  1  0
  8 19  1  0
  8 20  1  0
  9 21  1  0
  9 22  1  0
M  RAD  1   8   2
M  END
>  <reaction>  (26) 
rmg_rxn_15417

>  <mol_properties>  (26) 
{"1": {"label": "*4", "atom_type": "N3d"}, "2": {"label": "*3", "atom_type": "Cd"}, "9": {"label": "*0", "atom_type": "Cs"}, "10": {"label": "*1", "atom_type": "Cs"}, "20": {"label": "*2", "atom_type": "H0"}}

>  <type>  (26) 
unop_22

>  <geom_source>  (26) 
AutoTST

$$$$

     RDKit          3D

 23 21  0  0  0  0  0  0  0  0999 V2000
   -3.4007   -0.2100    2.1145 O   0  0  0  0  0  0  0  0  0  0  0  0
   -2.2020    0.1383    1.5239 N   0  0  0  0  0  0  0  0  0  0  0  0
   -2.3731    0.7277    0.4208 C   0  0  0  0  0  0  0  0  0  0  0  0
   -3.1305   -0.6408    2.9278 H   0  0  0  0  0  0  0  0  0  0  0  0
   -3.3601    0.9249    0.0079 H   0  0  0  0  0  0  0  0  0  0  0  0
    2.2071   -1.9037   -2.2821 C   0  0  0  0  0  0  0  0  0  0  0  0
    2.2071   -1.9037   -0.7592 C   0  0  0  0  0  0  0  0  0  0  0  0
    2.2071   -0.5106   -0.1636 C   0  0  0  0  0  0  0  0  0  0  0  0
    1.0241    0.1530   -0.5312 O   0  0  0  0  0  0  0  0  0  0  0  0
    0.9534    1.4710   -0.0503 C   0  0  0  0  0  0  0  0  0  0  0  0
   -0.3499    2.0888   -0.5012 C   0  0  0  0  0  3  0  0  0  0  0  0
    3.0892   -1.3894   -2.6717 H   0  0  0  0  0  0  0  0  0  0  0  0
    1.3244   -1.3940   -2.6681 H   0  0  0  0  0  0  0  0  0  0  0  0
    2.2126   -2.9216   -2.6747 H   0  0  0  0  0  0  0  0  0  0  0  0
    3.0886   -2.4302   -0.3829 H   0  0  0  0  0  0  0  0  0  0  0  0
    1.3327   -2.4417   -0.3839 H   0  0  0  0  0  0  0  0  0  0  0  0
    3.0813    0.0544   -0.5240 H   0  0  0  0  0  0  0  0  0  0  0  0
    2.2819   -0.5645    0.9324 H   0  0  0  0  0  0  0  0  0  0  0  0
    1.0207    1.4739    1.0477 H   0  0  0  0  0  0  0  0  0  0  0  0
    1.8063    2.0540   -0.4282 H   0  0  0  0  0  0  0  0  0  0  0  0
   -1.3656    1.4055   -0.0384 H   0  0  0  0  0  0  0  0  0  0  0  0
   -0.4107    2.1007   -1.5900 H   0  0  0  0  0  0  0  0  0  0  0  0
   -0.4275    3.1148   -0.1381 H   0  0  0  0  0  0  0  0  0  0  0  0
  1  2  1  0
  1  4  1  0
  2  3  2  3
  3  5  1  0
  3 21  1  0
  6  7  1  0
  6 12  1  0
  6 13  1  0
  6 14  1  0
  7  8  1  0
  7 15  1  0
  7 16  1  0
  8  9  1  0
  8 17  1  0
  8 18  1  0
  9 10  1  0
 10 11  1  0
 10 19  1  0
 10 20  1  0
 11 22  1  0
 11 23  1  0
M  RAD  1  11   2
M  END
>  <reaction>  (27) 
rmg_rxn_15417

>  <mol_properties>  (27) 
{"1": {"label": "*4", "atom_type": "N3d"}, "2": {"label": "*3", "atom_type": "Cd"}, "9": {"label": "*0", "atom_type": "Cs"}, "10": {"label": "*1", "atom_type": "Cs"}, "20": {"label": "*2", "atom_type": "H0"}}

>  <type>  (27) 
unop_23

>  <geom_source>  (27) 
gaussian_log

$$$$
