
     RDKit          3D

  9  8  0  0  0  0  0  0  0  0999 V2000
   -1.0314    0.2323   -0.1227 C   0  0  0  0  0  0  0  0  0  0  0  0
    0.3094   -0.4511    0.0063 C   0  0  0  0  0  0  0  0  0  0  0  0
    0.3197   -1.7698    0.6841 N   0  0  0  0  0  0  0  0  0  0  0  0
   -0.7498   -2.1455    1.0557 O   0  0  0  0  0  0  0  0  0  0  0  0
   -1.4744    0.4198    0.8552 H   0  0  0  0  0  0  0  0  0  0  0  0
   -0.9073    1.1865   -0.6350 H   0  0  0  0  0  0  0  0  0  0  0  0
   -1.7319   -0.3778   -0.6927 H   0  0  0  0  0  0  0  0  0  0  0  0
    1.0375    0.1401    0.5713 H   0  0  0  0  0  0  0  0  0  0  0  0
    0.7826   -0.6494   -0.9609 H   0  0  0  0  0  0  0  0  0  0  0  0
  1  2  1  0
  1  5  1  0
  1  6  1  0
  1  7  1  0
  2  3  1  0
  2  8  1  0
  2  9  1  0
  3  4  2  0
M  END
>  <reaction>  (1) 
rmg_rxn_15597

>  <mol_properties>  (1) 
{"1": {"label": "donator", "atom_type": "Cs"}, "7": {"label": "d_hydrogen", "atom_type": "H0"}}

>  <type>  (1) 
r1h

$$$$

     RDKit          3D

  8  7  0  0  0  0  0  0  0  0999 V2000
    1.7077   -0.1964   -0.0607 C   0  0  0  0  0  3  0  0  0  0  0  0
    0.4209   -0.4565    0.2808 O   0  0  0  0  0  0  0  0  0  0  0  0
   -0.4607    0.4385   -0.2968 N   0  0  0  0  0  0  0  0  0  0  0  0
   -1.6584    0.1416   -0.0244 C   0  0  0  0  0  0  0  0  0  0  0  0
    2.4163   -0.7685    0.5170 H   0  0  0  0  0  0  0  0  0  0  0  0
    1.9214    0.7645   -0.5045 H   0  0  0  0  0  0  0  0  0  0  0  0
   -2.4185    0.7953   -0.4307 H   0  0  0  0  0  0  0  0  0  0  0  0
   -1.9286   -0.7185    0.5831 H   0  0  0  0  0  0  0  0  0  0  0  0
  1  2  1  0
  1  5  1  0
  1  6  1  0
  2  3  1  0
  3  4  2  3
  4  7  1  0
  4  8  1  0
M  RAD  1   1   2
M  END
>  <reaction>  (2) 
rmg_rxn_15597

>  <mol_properties>  (2) 
{"0": {"label": "acceptor", "atom_type": "Cs"}}

>  <type>  (2) 
r2

$$$$

     RDKit          3D

  9  8  0  0  0  0  0  0  0  0999 V2000
   -1.5470   -0.0755   -0.1976 C   0  0  0  0  0  0  0  0  0  0  0  0
   -0.2885    0.4507    0.1749 O   0  0  0  0  0  0  0  0  0  0  0  0
   -0.1502    1.7216   -0.3294 N   0  0  0  0  0  0  0  0  0  0  0  0
    0.9626    2.2353   -0.0219 C   0  0  0  0  0  0  0  0  0  0  0  0
   -1.6392   -0.1356   -1.2844 H   0  0  0  0  0  0  0  0  0  0  0  0
   -2.3597    0.5337    0.2044 H   0  0  0  0  0  0  0  0  0  0  0  0
   -1.5879   -1.0750    0.2318 H   0  0  0  0  0  0  0  0  0  0  0  0
    1.1497    3.2381   -0.3820 H   0  0  0  0  0  0  0  0  0  0  0  0
    1.7060    1.7101    0.5739 H   0  0  0  0  0  0  0  0  0  0  0  0
  1  2  1  0
  1  5  1  0
  1  6  1  0
  1  7  1  0
  2  3  1  0
  3  4  2  3
  4  8  1  0
  4  9  1  0
M  END
>  <reaction>  (3) 
rmg_rxn_15597

>  <mol_properties>  (3) 
{"0": {"label": "acceptor", "atom_type": "Cs"}, "8": {"label": "a_hydrogen", "atom_type": "H0"}}

>  <type>  (3) 
r2h

$$$$

     RDKit          3D

 17 15  0  0  0  0  0  0  0  0999 V2000
    0.7714   -1.8927   -0.6346 C   0  0  0  0  0  3  0  0  0  0  0  0
    0.8112   -1.7166    0.7109 O   0  0  0  0  0  0  0  0  0  0  0  0
    1.4939   -0.5429    1.0378 N   0  0  0  0  0  0  0  0  0  0  0  0
    1.1437   -0.1264    2.1761 C   0  0  0  0  0  0  0  0  0  0  0  0
    1.6228   -1.4888   -1.1771 H   0  0  0  0  0  0  0  0  0  0  0  0
    0.4455   -2.8984   -0.8774 H   0  0  0  0  0  0  0  0  0  0  0  0
    1.6377    0.7688    2.5301 H   0  0  0  0  0  0  0  0  0  0  0  0
    0.3847   -0.6193    2.7765 H   0  0  0  0  0  0  0  0  0  0  0  0
   -0.4189    1.0988   -1.6211 C   0  0  0  0  0  0  0  0  0  0  0  0
   -1.1971   -0.1525   -1.3073 C   0  0  0  0  0  0  0  0  0  0  0  0
   -1.9938   -0.1964   -0.1330 N   0  0  0  0  0  0  0  0  0  0  0  0
   -1.6830    0.6026    0.7314 O   0  0  0  0  0  0  0  0  0  0  0  0
    0.2462    1.3574   -0.7987 H   0  0  0  0  0  0  0  0  0  0  0  0
    0.1751    0.9496   -2.5233 H   0  0  0  0  0  0  0  0  0  0  0  0
   -1.0931    1.9412   -1.7884 H   0  0  0  0  0  0  0  0  0  0  0  0
   -0.3343   -1.0573   -1.0736 H   0  0  0  0  0  0  0  0  0  0  0  0
   -1.7571   -0.5921   -2.1318 H   0  0  0  0  0  0  0  0  0  0  0  0
  1  2  1  0
  1  5  1  0
  1  6  1  0
  2  3  1  0
  3  4  2  3
  4  7  1  0
  4  8  1  0
  9 10  1  0
  9 13  1  0
  9 14  1  0
  9 15  1  0
 10 11  1  0
 10 16  1  0
 10 17  1  0
 11 12  2  0
M  RAD  1   1   2
M  END
>  <reaction>  (4) 
rmg_rxn_15597

>  <mol_properties>  (4) 
{"0": {"label": "*3", "atom_type": "Cs"}, "1": {"label": "*4", "atom_type": "O2s"}, "9": {"label": "*1", "atom_type": "Cs"}, "10": {"label": "*0", "atom_type": "N3d"}, "15": {"label": "*2", "atom_type": "H0"}}

>  <type>  (4) 
ts

$$$$

     RDKit          3D

 17 15  0  0  0  0  0  0  0  0999 V2000
    1.0467   -1.1628    0.9820 C   0  0  0  0  0  0  0  0  0  0  0  0
    1.6485   -0.8060   -0.2224 O   0  0  0  0  0  0  0  0  0  0  0  0
    1.6759    0.4877   -0.6401 N   0  0  0  0  0  0  0  0  0  0  0  0
    1.2915    1.4503    0.0799 C   0  0  0  0  0  0  0  0  0  0  0  0
    1.2347   -2.2245    1.1109 H   0  0  0  0  0  0  0  0  0  0  0  0
    1.3906   -0.5898    1.8446 H   0  0  0  0  0  0  0  0  0  0  0  0
    1.3720    2.4240   -0.3683 H   0  0  0  0  0  0  0  0  0  0  0  0
    0.9591    1.4059    1.1134 H   0  0  0  0  0  0  0  0  0  0  0  0
   -1.3713   -1.3557   -0.9696 C   0  0  0  0  0  0  0  0  0  0  0  0
   -1.4879   -0.6939    0.3950 C   0  0  0  0  0  0  0  0  0  0  0  0
   -1.6741    0.5858    0.4733 N   0  0  0  0  0  0  0  0  0  0  0  0
   -1.1754    1.5513   -0.1096 O   0  0  0  0  0  1  0  0  0  0  0  0
   -0.6739   -0.8001   -1.5928 H   0  0  0  0  0  0  0  0  0  0  0  0
   -1.0242   -2.3792   -0.8591 H   0  0  0  0  0  0  0  0  0  0  0  0
   -2.3453   -1.3634   -1.4561 H   0  0  0  0  0  0  0  0  0  0  0  0
   -0.1809   -0.9740    0.8546 H   0  0  0  0  0  0  0  0  0  0  0  0
   -2.0603   -1.2495    1.1353 H   0  0  0  0  0  0  0  0  0  0  0  0
  1  2  1  0
  1  5  1  0
  1  6  1  0
  1 16  1  0
  2  3  1  0
  3  4  2  3
  4  7  1  0
  4  8  1  0
  9 10  1  0
  9 13  1  0
  9 14  1  0
  9 15  1  0
 10 11  2  3
 10 17  1  0
 11 12  1  0
M  RAD  1  12   2
M  END
>  <reaction>  (5) 
rmg_rxn_15597

>  <mol_properties>  (5) 
{"0": {"label": "*3", "atom_type": "Cs"}, "1": {"label": "*4", "atom_type": "O2s"}, "9": {"label": "*1", "atom_type": "Cs"}, "10": {"label": "*0", "atom_type": "N3d"}, "15": {"label": "*2", "atom_type": "H0"}}

>  <type>  (5) 
unop_1

>  <geom_source>  (5) 
crest_best.xyz

$$$$

     RDKit          3D

 17 15  0  0  0  0  0  0  0  0999 V2000
    0.6029   -1.3921   -0.0167 C   0  0  0  0  0  0  0  0  0  0  0  0
    1.2717   -0.4175    0.7595 O   0  0  0  0  0  0  0  0  0  0  0  0
    1.7712   -0.9973    1.9010 N   0  0  0  0  0  0  0  0  0  0  0  0
    2.3795   -0.1631    2.6295 C   0  0  0  0  0  0  0  0  0  0  0  0
    1.2872   -2.1882   -0.3184 H   0  0  0  0  0  0  0  0  0  0  0  0
   -0.2366   -1.8218    0.5345 H   0  0  0  0  0  0  0  0  0  0  0  0
    2.8037   -0.5418    3.5499 H   0  0  0  0  0  0  0  0  0  0  0  0
    2.4810    0.8860    2.3601 H   0  0  0  0  0  0  0  0  0  0  0  0
   -1.4820   -0.1780   -2.5494 C   0  0  0  0  0  0  0  0  0  0  0  0
   -1.4820   -0.1780   -1.0389 C   0  0  0  0  0  0  0  0  0  0  0  0
   -1.4820    1.1480   -0.3753 N   0  0  0  0  0  0  0  0  0  0  0  0
   -1.4820    2.0775   -1.1230 O   0  0  0  0  0  1  0  0  0  0  0  0
   -0.6019    0.3294   -2.9439 H   0  0  0  0  0  0  0  0  0  0  0  0
   -1.4820   -1.2051   -2.9147 H   0  0  0  0  0  0  0  0  0  0  0  0
   -2.3621    0.3294   -2.9439 H   0  0  0  0  0  0  0  0  0  0  0  0
   -0.4365   -0.7868   -0.5263 H   0  0  0  0  0  0  0  0  0  0  0  0
   -2.3532   -0.6853   -0.6118 H   0  0  0  0  0  0  0  0  0  0  0  0
  1  2  1  0
  1  5  1  0
  1  6  1  0
  1 16  1  0
  2  3  1  0
  3  4  2  3
  4  7  1  0
  4  8  1  0
  9 10  1  0
  9 13  1  0
  9 14  1  0
  9 15  1  0
 10 11  2  3
 10 17  1  0
 11 12  1  0
M  RAD  1  12   2
M  END
>  <reaction>  (6) 
rmg_rxn_15597

>  <mol_properties>  (6) 
{"0": {"label": "*3", "atom_type": "Cs"}, "1": {"label": "*4", "atom_type": "O2s"}, "9": {"label": "*1", "atom_type": "Cs"}, "10": {"label": "*0", "atom_type": "N3d"}, "15": {"label": "*2", "atom_type": "H0"}}

>  <type>  (6) 
unop_2

>  <geom_source>  (6) 
Heuristics

$$$$

     RDKit          3D

 17 15  0  0  0  0  0  0  0  0999 V2000
    0.5724   -1.3113    0.4778 C   0  0  0  0  0  0  0  0  0  0  0  0
    1.8028   -0.9896   -0.1229 O   0  0  0  0  0  0  0  0  0  0  0  0
    2.1738    0.3118    0.1636 N   0  0  0  0  0  0  0  0  0  0  0  0
    3.2891    0.6829   -0.2852 C   0  0  0  0  0  0  0  0  0  0  0  0
    0.3562   -2.3363    0.1923 H   0  0  0  0  0  0  0  0  0  0  0  0
    0.6055   -1.1964    1.5619 H   0  0  0  0  0  0  0  0  0  0  0  0
    3.5815    1.6959   -0.0708 H   0  0  0  0  0  0  0  0  0  0  0  0
    3.9569    0.0523   -0.8641 H   0  0  0  0  0  0  0  0  0  0  0  0
   -0.9073    1.5038    0.5445 C   0  0  0  0  0  0  0  0  0  0  0  0
   -1.1916    0.4194   -0.4831 C   0  0  0  0  0  0  0  0  0  0  0  0
   -2.3614   -0.0978   -0.5823 N   0  0  0  0  0  0  0  0  0  0  0  0
   -3.2756   -0.3890    0.1865 O   0  0  0  0  0  1  0  0  0  0  0  0
    0.1660    1.5965    0.6902 H   0  0  0  0  0  0  0  0  0  0  0  0
   -1.3029    2.4541    0.1893 H   0  0  0  0  0  0  0  0  0  0  0  0
   -1.3927    1.2541    1.4852 H   0  0  0  0  0  0  0  0  0  0  0  0
   -0.3053   -0.5700    0.0360 H   0  0  0  0  0  0  0  0  0  0  0  0
   -0.6827    0.5298   -1.4377 H   0  0  0  0  0  0  0  0  0  0  0  0
  1  2  1  0
  1  5  1  0
  1  6  1  0
  1 16  1  0
  2  3  1  0
  3  4  2  3
  4  7  1  0
  4  8  1  0
  9 10  1  0
  9 13  1  0
  9 14  1  0
  9 15  1  0
 10 11  2  3
 10 17  1  0
 11 12  1  0
M  RAD  1  12   2
M  END
>  <reaction>  (7) 
rmg_rxn_15597

>  <mol_properties>  (7) 
{"0": {"label": "*3", "atom_type": "Cs"}, "1": {"label": "*4", "atom_type": "O2s"}, "9": {"label": "*1", "atom_type": "Cs"}, "10": {"label": "*0", "atom_type": "N3d"}, "15": {"label": "*2", "atom_type": "H0"}}

>  <type>  (7) 
unop_3

>  <geom_source>  (7) 
Heuristics

$$$$

     RDKit          3D

 17 15  0  0  0  0  0  0  0  0999 V2000
    1.2686    1.5756   -0.6417 C   0  0  0  0  0  0  0  0  0  0  0  0
    2.1890    0.7374    0.0098 O   0  0  0  0  0  0  0  0  0  0  0  0
    1.7618   -0.5755   -0.0056 N   0  0  0  0  0  2  0  0  0  0  0  0
    2.5210   -1.4158    0.5416 C   0  0  0  0  0  3  0  0  0  0  0  0
    1.4810    2.5898   -0.3765 H   0  0  0  0  0  0  0  0  0  0  0  0
    1.2284    1.4106   -1.7156 H   0  0  0  0  0  0  0  0  0  0  0  0
    2.1917   -2.4403    0.5342 H   0  0  0  0  0  0  0  0  0  0  0  0
    3.4691   -1.1707    1.0107 H   0  0  0  0  0  0  0  0  0  0  0  0
   -1.3680   -1.5785   -0.5978 C   0  0  0  0  0  0  0  0  0  0  0  0
   -2.5128   -0.7661   -0.0638 C   0  0  0  0  0  3  0  0  0  0  0  0
   -2.4484    0.4203    0.3297 N   0  0  0  0  0  2  0  0  0  0  0  0
   -1.6375    1.3304    0.4638 O   0  0  0  0  0  1  0  0  0  0  0  0
   -1.5055   -1.7415   -1.6663 H   0  0  0  0  0  0  0  0  0  0  0  0
   -0.4186   -1.0728   -0.4314 H   0  0  0  0  0  0  0  0  0  0  0  0
   -1.3535   -2.5478   -0.1034 H   0  0  0  0  0  0  0  0  0  0  0  0
    0.2699    1.5714   -0.1818 H   0  0  0  0  0  0  0  0  0  0  0  0
   -3.4885   -1.2289   -0.0154 H   0  0  0  0  0  0  0  0  0  0  0  0
  1  2  1  0
  1  5  1  0
  1 16  1  0
  1  6  1  0
  2  3  1  0
  3  4  1  0
  4  8  1  0
  4  7  1  0
  9 14  1  0
  9 13  1  0
  9 10  1  0
  9 15  1  0
 10 11  1  0
 10 17  1  0
 11 12  1  0
M  RAD  5   3   2   4   2  10   2  11   2  12   2
M  END
>  <reaction>  (8) 
rmg_rxn_15597

>  <mol_properties>  (8) 
{"0": {"label": "*3", "atom_type": "Cs"}, "1": {"label": "*4", "atom_type": "O2s"}, "9": {"label": "*1", "atom_type": "Cs"}, "10": {"label": "*0", "atom_type": "N3d"}, "15": {"label": "*2", "atom_type": "H0"}}

>  <type>  (8) 
unop_4

>  <geom_source>  (8) 
Heuristics

$$$$

     RDKit          3D

 17 15  0  0  0  0  0  0  0  0999 V2000
    0.2433   -1.0982    0.9401 C   0  0  0  0  0  0  0  0  0  0  0  0
    1.2882   -0.9191    0.0044 O   0  0  0  0  0  0  0  0  0  0  0  0
    2.4991   -1.1468    0.6131 N   0  0  0  0  0  0  0  0  0  0  0  0
    3.4668   -0.9984   -0.1858 C   0  0  0  0  0  0  0  0  0  0  0  0
    0.2359   -2.1197    1.3268 H   0  0  0  0  0  0  0  0  0  0  0  0
    0.3374   -0.3944    1.7703 H   0  0  0  0  0  0  0  0  0  0  0  0
    4.4576   -1.1603    0.2173 H   0  0  0  0  0  0  0  0  0  0  0  0
    3.3287   -0.7221   -1.2289 H   0  0  0  0  0  0  0  0  0  0  0  0
   -1.8416    0.1159   -1.5926 C   0  0  0  0  0  0  0  0  0  0  0  0
   -1.8416    0.1159   -0.0821 C   0  0  0  0  0  0  0  0  0  0  0  0
   -1.8416    1.4419    0.5815 N   0  0  0  0  0  0  0  0  0  0  0  0
   -1.8416    2.3714   -0.1662 O   0  0  0  0  0  1  0  0  0  0  0  0
   -0.9615    0.6233   -1.9871 H   0  0  0  0  0  0  0  0  0  0  0  0
   -1.8416   -0.9112   -1.9579 H   0  0  0  0  0  0  0  0  0  0  0  0
   -2.7217    0.6233   -1.9871 H   0  0  0  0  0  0  0  0  0  0  0  0
   -0.7962   -0.4929    0.4305 H   0  0  0  0  0  0  0  0  0  0  0  0
   -2.7128   -0.3914    0.3451 H   0  0  0  0  0  0  0  0  0  0  0  0
  1  2  1  0
  1  5  1  0
  1  6  1  0
  1 16  1  0
  2  3  1  0
  3  4  2  3
  4  7  1  0
  4  8  1  0
  9 10  1  0
  9 13  1  0
  9 14  1  0
  9 15  1  0
 10 11  2  3
 10 17  1  0
 11 12  1  0
M  RAD  1  12   2
M  END
>  <reaction>  (9) 
rmg_rxn_15597

>  <mol_properties>  (9) 
{"0": {"label": "*3", "atom_type": "Cs"}, "1": {"label": "*4", "atom_type": "O2s"}, "9": {"label": "*1", "atom_type": "Cs"}, "10": {"label": "*0", "atom_type": "N3d"}, "15": {"label": "*2", "atom_type": "H0"}}

>  <type>  (9) 
unop_5

>  <geom_source>  (9) 
Heuristics

$$$$

     RDKit          3D

 17 15  0  0  0  0  0  0  0  0999 V2000
   -1.0468    1.1626    0.9822 C   0  0  0  0  0  0  0  0  0  0  0  0
   -1.6486    0.8060   -0.2223 O   0  0  0  0  0  0  0  0  0  0  0  0
   -1.6757   -0.4877   -0.6402 N   0  0  0  0  0  0  0  0  0  0  0  0
   -1.2913   -1.4504    0.0797 C   0  0  0  0  0  0  0  0  0  0  0  0
   -1.2349    2.2242    1.1114 H   0  0  0  0  0  0  0  0  0  0  0  0
   -1.3904    0.5892    1.8447 H   0  0  0  0  0  0  0  0  0  0  0  0
   -1.3715   -2.4240   -0.3687 H   0  0  0  0  0  0  0  0  0  0  0  0
   -0.9589   -1.4062    1.1132 H   0  0  0  0  0  0  0  0  0  0  0  0
    1.3711    1.3557   -0.9698 C   0  0  0  0  0  0  0  0  0  0  0  0
    1.4878    0.6940    0.3950 C   0  0  0  0  0  0  0  0  0  0  0  0
    1.6741   -0.5857    0.4733 N   0  0  0  0  0  0  0  0  0  0  0  0
    1.1753   -1.5512   -0.1095 O   0  0  0  0  0  1  0  0  0  0  0  0
    2.3450    1.3633   -1.4564 H   0  0  0  0  0  0  0  0  0  0  0  0
    0.6737    0.8001   -1.5929 H   0  0  0  0  0  0  0  0  0  0  0  0
    1.0241    2.3792   -0.8594 H   0  0  0  0  0  0  0  0  0  0  0  0
    0.1809    0.9740    0.8547 H   0  0  0  0  0  0  0  0  0  0  0  0
    2.0603    1.2497    1.1350 H   0  0  0  0  0  0  0  0  0  0  0  0
  1  2  1  0
  1  5  1  0
  1  6  1  0
  1 16  1  0
  2  3  1  0
  3  4  2  3
  4  7  1  0
  4  8  1  0
  9 10  1  0
  9 13  1  0
  9 14  1  0
  9 15  1  0
 10 11  2  3
 10 17  1  0
 11 12  1  0
M  RAD  1  12   2
M  END
>  <reaction>  (10) 
rmg_rxn_15597

>  <mol_properties>  (10) 
{"0": {"label": "*3", "atom_type": "Cs"}, "1": {"label": "*4", "atom_type": "O2s"}, "9": {"label": "*1", "atom_type": "Cs"}, "10": {"label": "*0", "atom_type": "N3d"}, "15": {"label": "*2", "atom_type": "H0"}}

>  <type>  (10) 
unop_6

>  <geom_source>  (10) 
Heuristics

$$$$

     RDKit          3D

 17 15  0  0  0  0  0  0  0  0999 V2000
    0.7685   -1.1598   -0.1642 C   0  0  0  0  0  0  0  0  0  0  0  0
    1.0186   -0.5180    1.0707 O   0  0  0  0  0  0  0  0  0  0  0  0
    1.6600   -1.3855    1.9220 N   0  0  0  0  0  0  0  0  0  0  0  0
    1.9057   -0.8554    3.0425 C   0  0  0  0  0  0  0  0  0  0  0  0
    1.7020   -1.4667   -0.6412 H   0  0  0  0  0  0  0  0  0  0  0  0
    0.1244   -2.0315   -0.0281 H   0  0  0  0  0  0  0  0  0  0  0  0
    2.4108   -1.4749    3.7715 H   0  0  0  0  0  0  0  0  0  0  0  0
    1.6303    0.1701    3.2788 H   0  0  0  0  0  0  0  0  0  0  0  0
   -1.3164    0.0542   -2.6970 C   0  0  0  0  0  0  0  0  0  0  0  0
   -1.3164    0.0542   -1.1865 C   0  0  0  0  0  0  0  0  0  0  0  0
   -1.3164    1.3802   -0.5229 N   0  0  0  0  0  0  0  0  0  0  0  0
   -1.3164    2.3098   -1.2706 O   0  0  0  0  0  1  0  0  0  0  0  0
   -0.4363    0.5616   -3.0914 H   0  0  0  0  0  0  0  0  0  0  0  0
   -1.3164   -0.9729   -3.0622 H   0  0  0  0  0  0  0  0  0  0  0  0
   -2.1965    0.5616   -3.0914 H   0  0  0  0  0  0  0  0  0  0  0  0
   -0.2710   -0.5545   -0.6739 H   0  0  0  0  0  0  0  0  0  0  0  0
   -2.1876   -0.4531   -0.7593 H   0  0  0  0  0  0  0  0  0  0  0  0
  1  2  1  0
  1  5  1  0
  1  6  1  0
  1 16  1  0
  2  3  1  0
  3  4  2  3
  4  7  1  0
  4  8  1  0
  9 10  1  0
  9 13  1  0
  9 14  1  0
  9 15  1  0
 10 11  2  3
 10 17  1  0
 11 12  1  0
M  RAD  1  12   2
M  END
>  <reaction>  (11) 
rmg_rxn_15597

>  <mol_properties>  (11) 
{"0": {"label": "*3", "atom_type": "Cs"}, "1": {"label": "*4", "atom_type": "O2s"}, "9": {"label": "*1", "atom_type": "Cs"}, "10": {"label": "*0", "atom_type": "N3d"}, "15": {"label": "*2", "atom_type": "H0"}}

>  <type>  (11) 
unop_7

>  <geom_source>  (11) 
Heuristics

$$$$

     RDKit          3D

 17 15  0  0  0  0  0  0  0  0999 V2000
    0.9448   -0.2158    0.6368 C   0  0  0  0  0  0  0  0  0  0  0  0
    0.8861   -1.5457    0.1597 O   0  0  0  0  0  0  0  0  0  0  0  0
    1.4167   -2.3982    1.0981 N   0  0  0  0  0  0  0  0  0  0  0  0
    1.3863   -3.6022    0.7159 C   0  0  0  0  0  0  0  0  0  0  0  0
    0.3644   -0.1043    1.5555 H   0  0  0  0  0  0  0  0  0  0  0  0
    1.9779    0.0888    0.8185 H   0  0  0  0  0  0  0  0  0  0  0  0
    1.7869   -4.3383    1.4000 H   0  0  0  0  0  0  0  0  0  0  0  0
    0.9815   -3.9010   -0.2487 H   0  0  0  0  0  0  0  0  0  0  0  0
   -1.1401    0.9983   -1.8959 C   0  0  0  0  0  0  0  0  0  0  0  0
   -1.1401    0.9983   -0.3854 C   0  0  0  0  0  0  0  0  0  0  0  0
   -1.1401    2.3242    0.2782 N   0  0  0  0  0  0  0  0  0  0  0  0
   -1.1401    3.2538   -0.4695 O   0  0  0  0  0  1  0  0  0  0  0  0
   -0.2600    1.5056   -2.2904 H   0  0  0  0  0  0  0  0  0  0  0  0
   -1.1401   -0.0289   -2.2612 H   0  0  0  0  0  0  0  0  0  0  0  0
   -2.0203    1.5056   -2.2904 H   0  0  0  0  0  0  0  0  0  0  0  0
   -0.0947    0.3895    0.1272 H   0  0  0  0  0  0  0  0  0  0  0  0
   -2.0113    0.4909    0.0417 H   0  0  0  0  0  0  0  0  0  0  0  0
  1  2  1  0
  1  5  1  0
  1  6  1  0
  1 16  1  0
  2  3  1  0
  3  4  2  3
  4  7  1  0
  4  8  1  0
  9 10  1  0
  9 13  1  0
  9 14  1  0
  9 15  1  0
 10 11  2  3
 10 17  1  0
 11 12  1  0
M  RAD  1  12   2
M  END
>  <reaction>  (12) 
rmg_rxn_15597

>  <mol_properties>  (12) 
{"0": {"label": "*3", "atom_type": "Cs"}, "1": {"label": "*4", "atom_type": "O2s"}, "9": {"label": "*1", "atom_type": "Cs"}, "10": {"label": "*0", "atom_type": "N3d"}, "15": {"label": "*2", "atom_type": "H0"}}

>  <type>  (12) 
unop_8

>  <geom_source>  (12) 
Heuristics

$$$$

     RDKit          3D

 17 15  0  0  0  0  0  0  0  0999 V2000
    3.1043    1.0990    0.0039 C   0  0  0  0  0  0  0  0  0  0  0  0
    2.7630   -0.2598    0.0031 O   0  0  0  0  0  0  0  0  0  0  0  0
    1.3817   -0.4193    0.0030 N   0  0  0  0  0  2  0  0  0  0  0  0
    0.9550   -1.6011    0.0054 C   0  0  0  0  0  3  0  0  0  0  0  0
    2.7520    1.6282    0.8862 H   0  0  0  0  0  0  0  0  0  0  0  0
    4.1608    1.1846   -0.1413 H   0  0  0  0  0  0  0  0  0  0  0  0
   -0.1174   -1.7278    0.0067 H   0  0  0  0  0  0  0  0  0  0  0  0
    1.5913   -2.4810    0.0058 H   0  0  0  0  0  0  0  0  0  0  0  0
   -1.1921    1.6777    0.0112 C   0  0  0  0  0  0  0  0  0  0  0  0
   -2.5384    1.0111   -0.0038 C   0  0  0  0  0  3  0  0  0  0  0  0
   -2.7467   -0.2222   -0.0077 N   0  0  0  0  0  2  0  0  0  0  0  0
   -2.1421   -1.2877   -0.0033 O   0  0  0  0  0  1  0  0  0  0  0  0
   -0.3936    0.9377    0.0091 H   0  0  0  0  0  0  0  0  0  0  0  0
   -1.0983    2.3186   -0.8644 H   0  0  0  0  0  0  0  0  0  0  0  0
   -1.1099    2.3017    0.9002 H   0  0  0  0  0  0  0  0  0  0  0  0
    2.8262    1.6186   -0.9221 H   0  0  0  0  0  0  0  0  0  0  0  0
   -3.4171    1.6411   -0.0115 H   0  0  0  0  0  0  0  0  0  0  0  0
  1  2  1  0
  1  5  1  0
  1 16  1  0
  1  6  1  0
  2  3  1  0
  3  4  1  0
  4  8  1  0
  4  7  1  0
  9 14  1  0
  9 13  1  0
  9 10  1  0
  9 15  1  0
 10 11  1  0
 10 17  1  0
 11 12  1  0
M  RAD  5   3   2   4   2  10   2  11   2  12   2
M  END
>  <reaction>  (13) 
rmg_rxn_15597

>  <mol_properties>  (13) 
{"0": {"label": "*3", "atom_type": "Cs"}, "1": {"label": "*4", "atom_type": "O2s"}, "9": {"label": "*1", "atom_type": "Cs"}, "10": {"label": "*0", "atom_type": "N3d"}, "15": {"label": "*2", "atom_type": "H0"}}

>  <type>  (13) 
unop_9

>  <geom_source>  (13) 
Heuristics

$$$$

     RDKit          3D

 17 15  0  0  0  0  0  0  0  0999 V2000
    0.8577   -0.9574   -0.1874 C   0  0  0  0  0  0  0  0  0  0  0  0
    0.7039   -0.8678    1.2154 O   0  0  0  0  0  0  0  0  0  0  0  0
    1.7628   -1.4844    1.8378 N   0  0  0  0  0  0  0  0  0  0  0  0
    1.6698   -1.4303    3.0968 C   0  0  0  0  0  0  0  0  0  0  0  0
    1.7732   -0.4581   -0.5127 H   0  0  0  0  0  0  0  0  0  0  0  0
    0.8753   -2.0000   -0.5127 H   0  0  0  0  0  0  0  0  0  0  0  0
    2.4668   -1.8944    3.6622 H   0  0  0  0  0  0  0  0  0  0  0  0
    0.8375   -0.9457    3.6028 H   0  0  0  0  0  0  0  0  0  0  0  0
   -1.2272    0.2567   -2.7201 C   0  0  0  0  0  0  0  0  0  0  0  0
   -1.2272    0.2567   -1.2096 C   0  0  0  0  0  0  0  0  0  0  0  0
   -1.2272    1.5826   -0.5461 N   0  0  0  0  0  0  0  0  0  0  0  0
   -1.2272    2.5122   -1.2938 O   0  0  0  0  0  1  0  0  0  0  0  0
   -0.3470    0.7640   -3.1146 H   0  0  0  0  0  0  0  0  0  0  0  0
   -1.2272   -0.7705   -3.0854 H   0  0  0  0  0  0  0  0  0  0  0  0
   -2.1073    0.7640   -3.1146 H   0  0  0  0  0  0  0  0  0  0  0  0
   -0.1817   -0.3521   -0.6971 H   0  0  0  0  0  0  0  0  0  0  0  0
   -2.0984   -0.2507   -0.7825 H   0  0  0  0  0  0  0  0  0  0  0  0
  1  2  1  0
  1  5  1  0
  1  6  1  0
  1 16  1  0
  2  3  1  0
  3  4  2  3
  4  7  1  0
  4  8  1  0
  9 10  1  0
  9 13  1  0
  9 14  1  0
  9 15  1  0
 10 11  2  3
 10 17  1  0
 11 12  1  0
M  RAD  1  12   2
M  END
>  <reaction>  (14) 
rmg_rxn_15597

>  <mol_properties>  (14) 
{"0": {"label": "*3", "atom_type": "Cs"}, "1": {"label": "*4", "atom_type": "O2s"}, "9": {"label": "*1", "atom_type": "Cs"}, "10": {"label": "*0", "atom_type": "N3d"}, "15": {"label": "*2", "atom_type": "H0"}}

>  <type>  (14) 
unop_10

>  <geom_source>  (14) 
Heuristics

$$$$

     RDKit          3D

 17 15  0  0  0  0  0  0  0  0999 V2000
    1.2672   -1.5717   -0.6492 C   0  0  0  0  0  0  0  0  0  0  0  0
    2.1889   -0.7357    0.0033 O   0  0  0  0  0  0  0  0  0  0  0  0
    1.7575    0.5759    0.0002 N   0  0  0  0  0  2  0  0  0  0  0  0
    2.5165    1.4144    0.5506 C   0  0  0  0  0  3  0  0  0  0  0  0
    1.2211   -1.3997   -1.7218 H   0  0  0  0  0  0  0  0  0  0  0  0
    1.4832   -2.5871   -0.3919 H   0  0  0  0  0  0  0  0  0  0  0  0
    2.1838    2.4378    0.5528 H   0  0  0  0  0  0  0  0  0  0  0  0
    3.4675    1.1686    1.0136 H   0  0  0  0  0  0  0  0  0  0  0  0
   -1.3679    1.5727   -0.6103 C   0  0  0  0  0  0  0  0  0  0  0  0
   -2.5104    0.7646   -0.0649 C   0  0  0  0  0  3  0  0  0  0  0  0
   -2.4446   -0.4192    0.3359 N   0  0  0  0  0  2  0  0  0  0  0  0
   -1.6335   -1.3288    0.4719 O   0  0  0  0  0  1  0  0  0  0  0  0
   -1.3562    2.5489   -0.1298 H   0  0  0  0  0  0  0  0  0  0  0  0
   -0.4172    1.0719   -0.4366 H   0  0  0  0  0  0  0  0  0  0  0  0
   -1.5056    1.7200   -1.6811 H   0  0  0  0  0  0  0  0  0  0  0  0
    0.2708   -1.5728   -0.1842 H   0  0  0  0  0  0  0  0  0  0  0  0
   -3.4857    1.2281   -0.0149 H   0  0  0  0  0  0  0  0  0  0  0  0
  1  2  1  0
  1  5  1  0
  1 16  1  0
  1  6  1  0
  2  3  1  0
  3  4  1  0
  4  8  1  0
  4  7  1  0
  9 14  1  0
  9 13  1  0
  9 10  1  0
  9 15  1  0
 10 11  1  0
 10 17  1  0
 11 12  1  0
M  RAD  5   3   2   4   2  10   2  11   2  12   2
M  END
>  <reaction>  (15) 
rmg_rxn_15597

>  <mol_properties>  (15) 
{"0": {"label": "*3", "atom_type": "Cs"}, "1": {"label": "*4", "atom_type": "O2s"}, "9": {"label": "*1", "atom_type": "Cs"}, "10": {"label": "*0", "atom_type": "N3d"}, "15": {"label": "*2", "atom_type": "H0"}}

>  <type>  (15) 
unop_11

>  <geom_source>  (15) 
Heuristics

$$$$

     RDKit          3D

 17 15  0  0  0  0  0  0  0  0999 V2000
    1.1024   -0.2930    0.2772 C   0  0  0  0  0  0  0  0  0  0  0  0
    0.7225   -1.6468    0.4267 O   0  0  0  0  0  0  0  0  0  0  0  0
    1.2403   -2.1465    1.5976 N   0  0  0  0  0  0  0  0  0  0  0  0
    0.9268   -3.3575    1.7760 C   0  0  0  0  0  0  0  0  0  0  0  0
    0.7164    0.3142    1.0990 H   0  0  0  0  0  0  0  0  0  0  0  0
    2.1893   -0.1951    0.2302 H   0  0  0  0  0  0  0  0  0  0  0  0
    1.2968   -3.8263    2.6780 H   0  0  0  0  0  0  0  0  0  0  0  0
    0.3168   -3.9154    1.0688 H   0  0  0  0  0  0  0  0  0  0  0  0
   -0.9825    0.9211   -2.2556 C   0  0  0  0  0  0  0  0  0  0  0  0
   -0.9825    0.9211   -0.7451 C   0  0  0  0  0  0  0  0  0  0  0  0
   -0.9825    2.2471   -0.0815 N   0  0  0  0  0  0  0  0  0  0  0  0
   -0.9825    3.1766   -0.8292 O   0  0  0  0  0  1  0  0  0  0  0  0
   -0.1024    1.4285   -2.6501 H   0  0  0  0  0  0  0  0  0  0  0  0
   -0.9825   -0.1060   -2.6208 H   0  0  0  0  0  0  0  0  0  0  0  0
   -1.8626    1.4285   -2.6501 H   0  0  0  0  0  0  0  0  0  0  0  0
    0.0629    0.3123   -0.2325 H   0  0  0  0  0  0  0  0  0  0  0  0
   -1.8537    0.4138   -0.3179 H   0  0  0  0  0  0  0  0  0  0  0  0
  1  2  1  0
  1  5  1  0
  1  6  1  0
  1 16  1  0
  2  3  1  0
  3  4  2  3
  4  7  1  0
  4  8  1  0
  9 10  1  0
  9 13  1  0
  9 14  1  0
  9 15  1  0
 10 11  2  3
 10 17  1  0
 11 12  1  0
M  RAD  1  12   2
M  END
>  <reaction>  (16) 
rmg_rxn_15597

>  <mol_properties>  (16) 
{"0": {"label": "*3", "atom_type": "Cs"}, "1": {"label": "*4", "atom_type": "O2s"}, "9": {"label": "*1", "atom_type": "Cs"}, "10": {"label": "*0", "atom_type": "N3d"}, "15": {"label": "*2", "atom_type": "H0"}}

>  <type>  (16) 
unop_12

>  <geom_source>  (16) 
Heuristics

$$$$

     RDKit          3D

 17 15  0  0  0  0  0  0  0  0999 V2000
    0.5722    1.3114   -0.4770 C   0  0  0  0  0  0  0  0  0  0  0  0
    1.8033    0.9899    0.1224 O   0  0  0  0  0  0  0  0  0  0  0  0
    2.1730   -0.3123   -0.1625 N   0  0  0  0  0  0  0  0  0  0  0  0
    3.2893   -0.6829    0.2841 C   0  0  0  0  0  0  0  0  0  0  0  0
    0.3558    2.3362   -0.1905 H   0  0  0  0  0  0  0  0  0  0  0  0
    0.6045    1.1976   -1.5613 H   0  0  0  0  0  0  0  0  0  0  0  0
    3.5804   -1.6967    0.0717 H   0  0  0  0  0  0  0  0  0  0  0  0
    3.9586   -0.0516    0.8604 H   0  0  0  0  0  0  0  0  0  0  0  0
   -0.9073   -1.5037   -0.5444 C   0  0  0  0  0  0  0  0  0  0  0  0
   -1.1917   -0.4196    0.4834 C   0  0  0  0  0  0  0  0  0  0  0  0
   -2.3615    0.0977    0.5823 N   0  0  0  0  0  0  0  0  0  0  0  0
   -3.2752    0.3892   -0.1872 O   0  0  0  0  0  1  0  0  0  0  0  0
   -1.3913   -1.2532   -1.4855 H   0  0  0  0  0  0  0  0  0  0  0  0
    0.1661   -1.5974   -0.6888 H   0  0  0  0  0  0  0  0  0  0  0  0
   -1.3044   -2.4538   -0.1902 H   0  0  0  0  0  0  0  0  0  0  0  0
   -0.3051    0.5697   -0.0353 H   0  0  0  0  0  0  0  0  0  0  0  0
   -0.6832   -0.5302    1.4382 H   0  0  0  0  0  0  0  0  0  0  0  0
  1  2  1  0
  1  5  1  0
  1  6  1  0
  1 16  1  0
  2  3  1  0
  3  4  2  3
  4  7  1  0
  4  8  1  0
  9 10  1  0
  9 13  1  0
  9 14  1  0
  9 15  1  0
 10 11  2  3
 10 17  1  0
 11 12  1  0
M  RAD  1  12   2
M  END
>  <reaction>  (17) 
rmg_rxn_15597

>  <mol_properties>  (17) 
{"0": {"label": "*3", "atom_type": "Cs"}, "1": {"label": "*4", "atom_type": "O2s"}, "9": {"label": "*1", "atom_type": "Cs"}, "10": {"label": "*0", "atom_type": "N3d"}, "15": {"label": "*2", "atom_type": "H0"}}

>  <type>  (17) 
unop_13

>  <geom_source>  (17) 
Heuristics

$$$$

     RDKit          3D

 17 15  0  0  0  0  0  0  0  0999 V2000
    1.1100   -0.5213   -0.0167 C   0  0  0  0  0  0  0  0  0  0  0  0
    0.5924   -1.5839    0.7595 O   0  0  0  0  0  0  0  0  0  0  0  0
    1.3433   -1.7321    1.9010 N   0  0  0  0  0  0  0  0  0  0  0  0
    0.9180   -2.6730    2.6295 C   0  0  0  0  0  0  0  0  0  0  0  0
    1.0695    0.4209    0.5345 H   0  0  0  0  0  0  0  0  0  0  0  0
    2.1401   -0.7235   -0.3184 H   0  0  0  0  0  0  0  0  0  0  0  0
    1.4566   -2.8549    3.5499 H   0  0  0  0  0  0  0  0  0  0  0  0
    0.0556   -3.2790    2.3601 H   0  0  0  0  0  0  0  0  0  0  0  0
   -0.9749    0.6928   -2.5494 C   0  0  0  0  0  0  0  0  0  0  0  0
   -0.9749    0.6928   -1.0389 C   0  0  0  0  0  0  0  0  0  0  0  0
   -0.9749    2.0188   -0.3753 N   0  0  0  0  0  0  0  0  0  0  0  0
   -0.9749    2.9483   -1.1230 O   0  0  0  0  0  1  0  0  0  0  0  0
   -0.0948    1.2002   -2.9439 H   0  0  0  0  0  0  0  0  0  0  0  0
   -0.9749   -0.3343   -2.9147 H   0  0  0  0  0  0  0  0  0  0  0  0
   -1.8550    1.2002   -2.9439 H   0  0  0  0  0  0  0  0  0  0  0  0
    0.0705    0.0840   -0.5263 H   0  0  0  0  0  0  0  0  0  0  0  0
   -1.8461    0.1855   -0.6118 H   0  0  0  0  0  0  0  0  0  0  0  0
  1  2  1  0
  1  5  1  0
  1  6  1  0
  1 16  1  0
  2  3  1  0
  3  4  2  3
  4  7  1  0
  4  8  1  0
  9 10  1  0
  9 13  1  0
  9 14  1  0
  9 15  1  0
 10 11  2  3
 10 17  1  0
 11 12  1  0
M  RAD  1  12   2
M  END
>  <reaction>  (18) 
rmg_rxn_15597

>  <mol_properties>  (18) 
{"0": {"label": "*3", "atom_type": "Cs"}, "1": {"label": "*4", "atom_type": "O2s"}, "9": {"label": "*1", "atom_type": "Cs"}, "10": {"label": "*0", "atom_type": "N3d"}, "15": {"label": "*2", "atom_type": "H0"}}

>  <type>  (18) 
unop_14

>  <geom_source>  (18) 
Heuristics

$$$$

     RDKit          3D

 17 15  0  0  0  0  0  0  0  0999 V2000
    3.1007   -1.0999    0.0005 C   0  0  0  0  0  0  0  0  0  0  0  0
    2.7614    0.2594    0.0072 O   0  0  0  0  0  0  0  0  0  0  0  0
    1.3803    0.4207    0.0005 N   0  0  0  0  0  2  0  0  0  0  0  0
    0.9549    1.6029    0.0072 C   0  0  0  0  0  3  0  0  0  0  0  0
    4.1583   -1.1860   -0.1356 H   0  0  0  0  0  0  0  0  0  0  0  0
    2.7395   -1.6354    0.8753 H   0  0  0  0  0  0  0  0  0  0  0  0
   -0.1174    1.7306    0.0040 H   0  0  0  0  0  0  0  0  0  0  0  0
    1.5921    2.4821    0.0158 H   0  0  0  0  0  0  0  0  0  0  0  0
   -1.1888   -1.6772    0.0123 C   0  0  0  0  0  0  0  0  0  0  0  0
   -2.5359   -1.0120   -0.0020 C   0  0  0  0  0  3  0  0  0  0  0  0
   -2.7454    0.2211   -0.0076 N   0  0  0  0  0  2  0  0  0  0  0  0
   -2.1422    1.2873   -0.0062 O   0  0  0  0  0  1  0  0  0  0  0  0
   -1.1037   -2.2976    0.9035 H   0  0  0  0  0  0  0  0  0  0  0  0
   -1.0964   -2.3213   -0.8610 H   0  0  0  0  0  0  0  0  0  0  0  0
   -0.3912   -0.9363    0.0056 H   0  0  0  0  0  0  0  0  0  0  0  0
    2.8304   -1.6118   -0.9321 H   0  0  0  0  0  0  0  0  0  0  0  0
   -3.4138   -1.6431   -0.0069 H   0  0  0  0  0  0  0  0  0  0  0  0
  1  2  1  0
  1  5  1  0
  1 16  1  0
  1  6  1  0
  2  3  1  0
  3  4  1  0
  4  8  1  0
  4  7  1  0
  9 14  1  0
  9 13  1  0
  9 10  1  0
  9 15  1  0
 10 11  1  0
 10 17  1  0
 11 12  1  0
M  RAD  5   3   2   4   2  10   2  11   2  12   2
M  END
>  <reaction>  (19) 
rmg_rxn_15597

>  <mol_properties>  (19) 
{"0": {"label": "*3", "atom_type": "Cs"}, "1": {"label": "*4", "atom_type": "O2s"}, "9": {"label": "*1", "atom_type": "Cs"}, "10": {"label": "*0", "atom_type": "N3d"}, "15": {"label": "*2", "atom_type": "H0"}}

>  <type>  (19) 
unop_15

>  <geom_source>  (19) 
Heuristics

$$$$

     RDKit          3D

 17 15  0  0  0  0  0  0  0  0999 V2000
    0.4006   -1.4981    0.2772 C   0  0  0  0  0  0  0  0  0  0  0  0
    1.3906   -0.4995    0.4267 O   0  0  0  0  0  0  0  0  0  0  0  0
    2.0808   -0.7033    1.5976 N   0  0  0  0  0  0  0  0  0  0  0  0
    2.9793    0.1670    1.7760 C   0  0  0  0  0  0  0  0  0  0  0  0
    0.8519   -2.4918    0.2303 H   0  0  0  0  0  0  0  0  0  0  0  0
   -0.3180   -1.4621    1.0990 H   0  0  0  0  0  0  0  0  0  0  0  0
    3.5696    0.0766    2.6780 H   0  0  0  0  0  0  0  0  0  0  0  0
    3.1634    0.9730    1.0688 H   0  0  0  0  0  0  0  0  0  0  0  0
   -1.6843   -0.2840   -2.2556 C   0  0  0  0  0  0  0  0  0  0  0  0
   -1.6843   -0.2840   -0.7451 C   0  0  0  0  0  0  0  0  0  0  0  0
   -1.6843    1.0419   -0.0815 N   0  0  0  0  0  0  0  0  0  0  0  0
   -1.6843    1.9715   -0.8292 O   0  0  0  0  0  1  0  0  0  0  0  0
   -0.8042    0.2233   -2.6500 H   0  0  0  0  0  0  0  0  0  0  0  0
   -1.6843   -1.3112   -2.6208 H   0  0  0  0  0  0  0  0  0  0  0  0
   -2.5644    0.2233   -2.6500 H   0  0  0  0  0  0  0  0  0  0  0  0
   -0.6389   -0.8928   -0.2325 H   0  0  0  0  0  0  0  0  0  0  0  0
   -2.5555   -0.7914   -0.3179 H   0  0  0  0  0  0  0  0  0  0  0  0
  1  2  1  0
  1  5  1  0
  1  6  1  0
  1 16  1  0
  2  3  1  0
  3  4  2  3
  4  7  1  0
  4  8  1  0
  9 10  1  0
  9 13  1  0
  9 14  1  0
  9 15  1  0
 10 11  2  3
 10 17  1  0
 11 12  1  0
M  RAD  1  12   2
M  END
>  <reaction>  (20) 
rmg_rxn_15597

>  <mol_properties>  (20) 
{"0": {"label": "*3", "atom_type": "Cs"}, "1": {"label": "*4", "atom_type": "O2s"}, "9": {"label": "*1", "atom_type": "Cs"}, "10": {"label": "*0", "atom_type": "N3d"}, "15": {"label": "*2", "atom_type": "H0"}}

>  <type>  (20) 
unop_16

>  <geom_source>  (20) 
Heuristics

$$$$

     RDKit          3D

 17 15  0  0  0  0  0  0  0  0999 V2000
    1.0467   -1.1628    0.9820 C   0  0  0  0  0  0  0  0  0  0  0  0
    1.6485   -0.8060   -0.2224 O   0  0  0  0  0  0  0  0  0  0  0  0
    1.6759    0.4877   -0.6401 N   0  0  0  0  0  0  0  0  0  0  0  0
    1.2915    1.4503    0.0799 C   0  0  0  0  0  0  0  0  0  0  0  0
    1.2347   -2.2245    1.1109 H   0  0  0  0  0  0  0  0  0  0  0  0
    1.3906   -0.5898    1.8446 H   0  0  0  0  0  0  0  0  0  0  0  0
    1.3720    2.4240   -0.3683 H   0  0  0  0  0  0  0  0  0  0  0  0
    0.9591    1.4059    1.1134 H   0  0  0  0  0  0  0  0  0  0  0  0
   -1.3713   -1.3557   -0.9696 C   0  0  0  0  0  0  0  0  0  0  0  0
   -1.4879   -0.6939    0.3950 C   0  0  0  0  0  0  0  0  0  0  0  0
   -1.6741    0.5858    0.4733 N   0  0  0  0  0  0  0  0  0  0  0  0
   -1.1754    1.5513   -0.1096 O   0  0  0  0  0  1  0  0  0  0  0  0
   -0.6739   -0.8001   -1.5928 H   0  0  0  0  0  0  0  0  0  0  0  0
   -1.0242   -2.3792   -0.8591 H   0  0  0  0  0  0  0  0  0  0  0  0
   -2.3453   -1.3634   -1.4561 H   0  0  0  0  0  0  0  0  0  0  0  0
   -0.1809   -0.9740    0.8546 H   0  0  0  0  0  0  0  0  0  0  0  0
   -2.0603   -1.2495    1.1353 H   0  0  0  0  0  0  0  0  0  0  0  0
  1  2  1  0
  1  5  1  0
  1  6  1  0
  1 16  1  0
  2  3  1  0
  3  4  2  3
  4  7  1  0
  4  8  1  0
  9 10  1  0
  9 13  1  0
  9 14  1  0
  9 15  1  0
 10 11  2  3
 10 17  1  0
 11 12  1  0
M  RAD  1  12   2
M  END
>  <reaction>  (21) 
rmg_rxn_15597

>  <mol_properties>  (21) 
{"0": {"label": "*3", "atom_type": "Cs"}, "1": {"label": "*4", "atom_type": "O2s"}, "9": {"label": "*1", "atom_type": "Cs"}, "10": {"label": "*0", "atom_type": "N3d"}, "15": {"label": "*2", "atom_type": "H0"}}

>  <type>  (21) 
unop_17

>  <geom_source>  (21) 
Heuristics

$$$$

     RDKit          3D

 17 15  0  0  0  0  0  0  0  0999 V2000
    0.6769   -0.3536    0.9401 C   0  0  0  0  0  0  0  0  0  0  0  0
    1.0369   -1.3507    0.0044 O   0  0  0  0  0  0  0  0  0  0  0  0
    1.8325   -2.2915    0.6131 N   0  0  0  0  0  0  0  0  0  0  0  0
    2.1810   -3.2064   -0.1858 C   0  0  0  0  0  0  0  0  0  0  0  0
    0.1113   -0.7827    1.7703 H   0  0  0  0  0  0  0  0  0  0  0  0
    1.5618    0.1571    1.3268 H   0  0  0  0  0  0  0  0  0  0  0  0
    2.8108   -3.9882    0.2173 H   0  0  0  0  0  0  0  0  0  0  0  0
    1.8726   -3.2225   -1.2290 H   0  0  0  0  0  0  0  0  0  0  0  0
   -1.4080    0.8605   -1.5926 C   0  0  0  0  0  0  0  0  0  0  0  0
   -1.4080    0.8605   -0.0821 C   0  0  0  0  0  0  0  0  0  0  0  0
   -1.4080    2.1865    0.5815 N   0  0  0  0  0  0  0  0  0  0  0  0
   -1.4080    3.1160   -0.1662 O   0  0  0  0  0  1  0  0  0  0  0  0
   -0.5278    1.3679   -1.9871 H   0  0  0  0  0  0  0  0  0  0  0  0
   -1.4080   -0.1666   -1.9579 H   0  0  0  0  0  0  0  0  0  0  0  0
   -2.2881    1.3679   -1.9871 H   0  0  0  0  0  0  0  0  0  0  0  0
   -0.3625    0.2517    0.4305 H   0  0  0  0  0  0  0  0  0  0  0  0
   -2.2792    0.3532    0.3451 H   0  0  0  0  0  0  0  0  0  0  0  0
  1  2  1  0
  1  5  1  0
  1  6  1  0
  1 16  1  0
  2  3  1  0
  3  4  2  3
  4  7  1  0
  4  8  1  0
  9 10  1  0
  9 13  1  0
  9 14  1  0
  9 15  1  0
 10 11  2  3
 10 17  1  0
 11 12  1  0
M  RAD  1  12   2
M  END
>  <reaction>  (22) 
rmg_rxn_15597

>  <mol_properties>  (22) 
{"0": {"label": "*3", "atom_type": "Cs"}, "1": {"label": "*4", "atom_type": "O2s"}, "9": {"label": "*1", "atom_type": "Cs"}, "10": {"label": "*0", "atom_type": "N3d"}, "15": {"label": "*2", "atom_type": "H0"}}

>  <type>  (22) 
unop_18

>  <geom_source>  (22) 
Heuristics

$$$$

     RDKit          3D

 17 15  0  0  0  0  0  0  0  0999 V2000
    0.2557   -1.3991    0.6368 C   0  0  0  0  0  0  0  0  0  0  0  0
    1.3834   -0.6917    0.1597 O   0  0  0  0  0  0  0  0  0  0  0  0
    2.3867   -0.7325    1.0981 N   0  0  0  0  0  0  0  0  0  0  0  0
    3.4189   -0.1118    0.7159 C   0  0  0  0  0  0  0  0  0  0  0  0
    0.5006   -2.4480    0.8185 H   0  0  0  0  0  0  0  0  0  0  0  0
   -0.1277   -0.9494    1.5555 H   0  0  0  0  0  0  0  0  0  0  0  0
    4.2568   -0.0970    1.4000 H   0  0  0  0  0  0  0  0  0  0  0  0
    3.4789    0.3877   -0.2487 H   0  0  0  0  0  0  0  0  0  0  0  0
   -1.8292   -0.1850   -1.8959 C   0  0  0  0  0  0  0  0  0  0  0  0
   -1.8292   -0.1850   -0.3854 C   0  0  0  0  0  0  0  0  0  0  0  0
   -1.8292    1.1409    0.2782 N   0  0  0  0  0  0  0  0  0  0  0  0
   -1.8292    2.0705   -0.4695 O   0  0  0  0  0  1  0  0  0  0  0  0
   -0.9491    0.3224   -2.2904 H   0  0  0  0  0  0  0  0  0  0  0  0
   -1.8292   -1.2122   -2.2612 H   0  0  0  0  0  0  0  0  0  0  0  0
   -2.7093    0.3223   -2.2904 H   0  0  0  0  0  0  0  0  0  0  0  0
   -0.7837   -0.7938    0.1272 H   0  0  0  0  0  0  0  0  0  0  0  0
   -2.7004   -0.6923    0.0417 H   0  0  0  0  0  0  0  0  0  0  0  0
  1  2  1  0
  1  5  1  0
  1  6  1  0
  1 16  1  0
  2  3  1  0
  3  4  2  3
  4  7  1  0
  4  8  1  0
  9 10  1  0
  9 13  1  0
  9 14  1  0
  9 15  1  0
 10 11  2  3
 10 17  1  0
 11 12  1  0
M  RAD  1  12   2
M  END
>  <reaction>  (23) 
rmg_rxn_15597

>  <mol_properties>  (23) 
{"0": {"label": "*3", "atom_type": "Cs"}, "1": {"label": "*4", "atom_type": "O2s"}, "9": {"label": "*1", "atom_type": "Cs"}, "10": {"label": "*0", "atom_type": "N3d"}, "15": {"label": "*2", "atom_type": "H0"}}

>  <type>  (23) 
unop_19

>  <geom_source>  (23) 
Heuristics

$$$$

     RDKit          3D

 17 15  0  0  0  0  0  0  0  0999 V2000
    0.9897   -0.7799   -0.1642 C   0  0  0  0  0  0  0  0  0  0  0  0
    0.5549   -1.3142    1.0707 O   0  0  0  0  0  0  0  0  0  0  0  0
    1.6260   -1.4439    1.9220 N   0  0  0  0  0  0  0  0  0  0  0  0
    1.2863   -1.9192    3.0425 C   0  0  0  0  0  0  0  0  0  0  0  0
    1.4300    0.2105   -0.0281 H   0  0  0  0  0  0  0  0  0  0  0  0
    1.7174   -1.4404   -0.6412 H   0  0  0  0  0  0  0  0  0  0  0  0
    2.0743   -2.0527    3.7715 H   0  0  0  0  0  0  0  0  0  0  0  0
    0.2584   -2.1859    3.2787 H   0  0  0  0  0  0  0  0  0  0  0  0
   -1.0952    0.4342   -2.6970 C   0  0  0  0  0  0  0  0  0  0  0  0
   -1.0952    0.4342   -1.1865 C   0  0  0  0  0  0  0  0  0  0  0  0
   -1.0952    1.7601   -0.5229 N   0  0  0  0  0  0  0  0  0  0  0  0
   -1.0952    2.6897   -1.2706 O   0  0  0  0  0  1  0  0  0  0  0  0
   -0.2150    0.9416   -3.0915 H   0  0  0  0  0  0  0  0  0  0  0  0
   -1.0952   -0.5930   -3.0622 H   0  0  0  0  0  0  0  0  0  0  0  0
   -1.9753    0.9416   -3.0915 H   0  0  0  0  0  0  0  0  0  0  0  0
   -0.0497   -0.1746   -0.6739 H   0  0  0  0  0  0  0  0  0  0  0  0
   -1.9664   -0.0731   -0.7593 H   0  0  0  0  0  0  0  0  0  0  0  0
  1  2  1  0
  1  5  1  0
  1  6  1  0
  1 16  1  0
  2  3  1  0
  3  4  2  3
  4  7  1  0
  4  8  1  0
  9 10  1  0
  9 13  1  0
  9 14  1  0
  9 15  1  0
 10 11  2  3
 10 17  1  0
 11 12  1  0
M  RAD  1  12   2
M  END
>  <reaction>  (24) 
rmg_rxn_15597

>  <mol_properties>  (24) 
{"0": {"label": "*3", "atom_type": "Cs"}, "1": {"label": "*4", "atom_type": "O2s"}, "9": {"label": "*1", "atom_type": "Cs"}, "10": {"label": "*0", "atom_type": "N3d"}, "15": {"label": "*2", "atom_type": "H0"}}

>  <type>  (24) 
unop_20

>  <geom_source>  (24) 
Heuristics

$$$$

     RDKit          3D

 17 15  0  0  0  0  0  0  0  0999 V2000
    0.4005   -0.6911    1.0614 C   0  0  0  0  0  0  0  0  0  0  0  0
    1.1644   -1.1360   -0.0423 O   0  0  0  0  0  0  0  0  0  0  0  0
    2.2873   -1.7899    0.4051 N   0  0  0  0  0  0  0  0  0  0  0  0
    3.0043   -2.2074   -0.5479 C   0  0  0  0  0  0  0  0  0  0  0  0
    0.0741   -1.5334    1.6755 H   0  0  0  0  0  0  0  0  0  0  0  0
    0.9720    0.0085    1.6755 H   0  0  0  0  0  0  0  0  0  0  0  0
    3.9097   -2.7347   -0.2787 H   0  0  0  0  0  0  0  0  0  0  0  0
    2.7395   -2.0532   -1.5918 H   0  0  0  0  0  0  0  0  0  0  0  0
   -1.6844    0.5229   -1.4713 C   0  0  0  0  0  0  0  0  0  0  0  0
   -1.6844    0.5229    0.0392 C   0  0  0  0  0  0  0  0  0  0  0  0
   -1.6844    1.8489    0.7027 N   0  0  0  0  0  0  0  0  0  0  0  0
   -1.6844    2.7784   -0.0450 O   0  0  0  0  0  1  0  0  0  0  0  0
   -0.8043    1.0303   -1.8658 H   0  0  0  0  0  0  0  0  0  0  0  0
   -1.6844   -0.5042   -1.8366 H   0  0  0  0  0  0  0  0  0  0  0  0
   -2.5645    1.0303   -1.8658 H   0  0  0  0  0  0  0  0  0  0  0  0
   -0.6390   -0.0858    0.5517 H   0  0  0  0  0  0  0  0  0  0  0  0
   -2.5556    0.0156    0.4663 H   0  0  0  0  0  0  0  0  0  0  0  0
  1  2  1  0
  1  5  1  0
  1  6  1  0
  1 16  1  0
  2  3  1  0
  3  4  2  3
  4  7  1  0
  4  8  1  0
  9 10  1  0
  9 13  1  0
  9 14  1  0
  9 15  1  0
 10 11  2  3
 10 17  1  0
 11 12  1  0
M  RAD  1  12   2
M  END
>  <reaction>  (25) 
rmg_rxn_15597

>  <mol_properties>  (25) 
{"0": {"label": "*3", "atom_type": "Cs"}, "1": {"label": "*4", "atom_type": "O2s"}, "9": {"label": "*1", "atom_type": "Cs"}, "10": {"label": "*0", "atom_type": "N3d"}, "15": {"label": "*2", "atom_type": "H0"}}

>  <type>  (25) 
unop_21

>  <geom_source>  (25) 
Heuristics

$$$$

     RDKit          3D

 17 15  0  0  0  0  0  0  0  0999 V2000
   -1.0645   -0.8489   -1.1494 C   0  0  0  0  0  0  0  0  0  0  0  0
   -1.9584   -0.6463   -0.0843 O   0  0  0  0  0  0  0  0  0  0  0  0
   -2.0500    0.5611    0.5216 N   0  0  0  0  0  0  0  0  0  0  0  0
   -1.3478    1.5515    0.1913 C   0  0  0  0  0  0  0  0  0  0  0  0
   -1.2839   -1.8435   -1.5268 H   0  0  0  0  0  0  0  0  0  0  0  0
   -1.1656   -0.0995   -1.9372 H   0  0  0  0  0  0  0  0  0  0  0  0
   -1.5214    2.4512    0.7560 H   0  0  0  0  0  0  0  0  0  0  0  0
   -0.5884    1.5926   -0.5847 H   0  0  0  0  0  0  0  0  0  0  0  0
    0.9277   -1.1111    1.3157 C   0  0  0  0  0  0  0  0  0  0  0  0
    1.3818   -0.9239   -0.1232 C   0  0  0  0  0  0  0  0  0  0  0  0
    2.0590    0.1152   -0.4642 N   0  0  0  0  0  0  0  0  0  0  0  0
    2.0467    1.3086   -0.1634 O   0  0  0  0  0  1  0  0  0  0  0  0
    1.7371   -1.5459    1.8996 H   0  0  0  0  0  0  0  0  0  0  0  0
    0.6599   -0.1490    1.7473 H   0  0  0  0  0  0  0  0  0  0  0  0
    0.0684   -1.7758    1.3572 H   0  0  0  0  0  0  0  0  0  0  0  0
    0.0975   -0.8378   -0.7330 H   0  0  0  0  0  0  0  0  0  0  0  0
    1.6952   -1.8285   -0.6394 H   0  0  0  0  0  0  0  0  0  0  0  0
  1  2  1  0
  1  5  1  0
  1  6  1  0
  1 16  1  0
  2  3  1  0
  3  4  2  3
  4  7  1  0
  4  8  1  0
  9 10  1  0
  9 13  1  0
  9 14  1  0
  9 15  1  0
 10 11  2  3
 10 17  1  0
 11 12  1  0
M  RAD  1  12   2
M  END
>  <reaction>  (26) 
rmg_rxn_15597

>  <mol_properties>  (26) 
{"0": {"label": "*3", "atom_type": "Cs"}, "1": {"label": "*4", "atom_type": "O2s"}, "9": {"label": "*1", "atom_type": "Cs"}, "10": {"label": "*0", "atom_type": "N3d"}, "15": {"label": "*2", "atom_type": "H0"}}

>  <type>  (26) 
unop_22

>  <geom_source>  (26) 
Heuristics

$$$$

     RDKit          3D

 17 15  0  0  0  0  0  0  0  0999 V2000
    1.6854    0.0390   -0.0244 O   0  0  0  0  0  0  0  0  0  0  0  0
   -2.2654   -1.0258   -2.2397 O   0  0  0  0  0  1  0  0  0  0  0  0
    2.9593   -0.4688    0.0914 N   0  0  0  0  0  0  0  0  0  0  0  0
   -2.5196   -0.1638   -1.4550 N   0  0  0  0  0  0  0  0  0  0  0  0
   -2.3400    1.0574    0.6319 C   0  0  0  0  0  0  0  0  0  0  0  0
    0.5613   -0.8219    0.0488 C   0  0  0  0  0  0  0  0  0  0  0  0
   -1.9371   -0.1884   -0.1394 C   0  0  0  0  0  0  0  0  0  0  0  0
    3.9857    0.3130    0.0252 C   0  0  0  0  0  0  0  0  0  0  0  0
   -1.8769    1.0326    1.6402 H   0  0  0  0  0  0  0  0  0  0  0  0
   -3.4446    1.1009    0.7415 H   0  0  0  0  0  0  0  0  0  0  0  0
   -1.9857    1.9641    0.0978 H   0  0  0  0  0  0  0  0  0  0  0  0
    0.6118   -1.5763   -0.7642 H   0  0  0  0  0  0  0  0  0  0  0  0
    0.5445   -1.3356    1.0328 H   0  0  0  0  0  0  0  0  0  0  0  0
   -0.5424   -0.1110   -0.0878 H   0  0  0  0  0  0  0  0  0  0  0  0
   -2.2768   -1.0957    0.4054 H   0  0  0  0  0  0  0  0  0  0  0  0
    3.8589    1.3782   -0.1222 H   0  0  0  0  0  0  0  0  0  0  0  0
    4.9816   -0.0980    0.1176 H   0  0  0  0  0  0  0  0  0  0  0  0
  1  6  1  0
  1  3  1  0
  2  4  1  0
  3  8  2  3
  4  7  2  3
  5  7  1  0
  5  9  1  0
  5 10  1  0
  5 11  1  0
  6 12  1  0
  6 13  1  0
  6 14  1  0
  7 15  1  0
  8 16  1  0
  8 17  1  0
M  RAD  1   2   2
M  END
>  <reaction>  (27) 
rmg_rxn_15597

>  <mol_properties>  (27) 
{"0": {"label": "*3", "atom_type": "Cs"}, "1": {"label": "*4", "atom_type": "O2s"}, "9": {"label": "*1", "atom_type": "Cs"}, "10": {"label": "*0", "atom_type": "N3d"}, "15": {"label": "*2", "atom_type": "H0"}}

>  <type>  (27) 
unop_23

>  <geom_source>  (27) 
AutoTST

$$$$

     RDKit          3D

 17 15  0  0  0  0  0  0  0  0999 V2000
    0.2433   -1.0982    0.9402 C   0  0  0  0  0  0  0  0  0  0  0  0
    1.2882   -0.9191    0.0044 O   0  0  0  0  0  0  0  0  0  0  0  0
    2.4991   -1.1468    0.6131 N   0  0  0  0  0  0  0  0  0  0  0  0
    3.4668   -0.9984   -0.1858 C   0  0  0  0  0  0  0  0  0  0  0  0
    0.2359   -2.1197    1.3268 H   0  0  0  0  0  0  0  0  0  0  0  0
    0.3374   -0.3944    1.7703 H   0  0  0  0  0  0  0  0  0  0  0  0
    4.4576   -1.1603    0.2173 H   0  0  0  0  0  0  0  0  0  0  0  0
    3.3287   -0.7221   -1.2289 H   0  0  0  0  0  0  0  0  0  0  0  0
   -1.8416    0.1159   -1.5926 C   0  0  0  0  0  0  0  0  0  0  0  0
   -1.8416    0.1159   -0.0821 C   0  0  0  0  0  0  0  0  0  0  0  0
   -1.8416    1.4419    0.5815 N   0  0  0  0  0  0  0  0  0  0  0  0
   -1.8416    2.3714   -0.1662 O   0  0  0  0  0  1  0  0  0  0  0  0
   -0.9615    0.6233   -1.9871 H   0  0  0  0  0  0  0  0  0  0  0  0
   -1.8416   -0.9112   -1.9579 H   0  0  0  0  0  0  0  0  0  0  0  0
   -2.7217    0.6233   -1.9871 H   0  0  0  0  0  0  0  0  0  0  0  0
   -0.7962   -0.4929    0.4305 H   0  0  0  0  0  0  0  0  0  0  0  0
   -2.7128   -0.3914    0.3451 H   0  0  0  0  0  0  0  0  0  0  0  0
  1  2  1  0
  1  5  1  0
  1  6  1  0
  1 16  1  0
  2  3  1  0
  3  4  2  3
  4  7  1  0
  4  8  1  0
  9 10  1  0
  9 13  1  0
  9 14  1  0
  9 15  1  0
 10 11  2  3
 10 17  1  0
 11 12  1  0
M  RAD  1  12   2
M  END
>  <reaction>  (28) 
rmg_rxn_15597

>  <mol_properties>  (28) 
{"0": {"label": "*3", "atom_type": "Cs"}, "1": {"label": "*4", "atom_type": "O2s"}, "9": {"label": "*1", "atom_type": "Cs"}, "10": {"label": "*0", "atom_type": "N3d"}, "15": {"label": "*2", "atom_type": "H0"}}

>  <type>  (28) 
unop_24

>  <geom_source>  (28) 
gaussian_log

$$$$
