
     RDKit          3D

  9  8  0  0  0  0  0  0  0  0999 V2000
   -1.0314    0.2323   -0.1227 C   0  0  0  0  0  0  0  0  0  0  0  0
    0.3094   -0.4511    0.0063 C   0  0  0  0  0  0  0  0  0  0  0  0
    0.3197   -1.7698    0.6841 N   0  0  0  0  0  0  0  0  0  0  0  0
   -0.7498   -2.1455    1.0557 O   0  0  0  0  0  0  0  0  0  0  0  0
   -1.4744    0.4198    0.8552 H   0  0  0  0  0  0  0  0  0  0  0  0
   -0.9073    1.1865   -0.6350 H   0  0  0  0  0  0  0  0  0  0  0  0
   -1.7319   -0.3778   -0.6927 H   0  0  0  0  0  0  0  0  0  0  0  0
    1.0375    0.1401    0.5713 H   0  0  0  0  0  0  0  0  0  0  0  0
    0.7826   -0.6494   -0.9609 H   0  0  0  0  0  0  0  0  0  0  0  0
  1  2  1  0
  1  5  1  0
  1  6  1  0
  1  7  1  0
  2  3  1  0
  2  8  1  0
  2  9  1  0
  3  4  2  0
M  END
>  <reaction>  (1) 
rmg_rxn_157

>  <mol_properties>  (1) 
{"1": {"label": "donator", "atom_type": "Cs"}, "7": {"label": "d_hydrogen", "atom_type": "H0"}}

>  <type>  (1) 
r1h

$$$$

     RDKit          3D

 17 16  0  0  0  0  0  0  0  0999 V2000
    3.3619    0.3511   -1.0290 C   0  0  0  0  0  3  0  0  0  0  0  0
    2.1806    1.0643   -0.5073 C   0  0  0  0  0  0  0  0  0  0  0  0
    1.4028    0.1998    0.2757 O   0  0  0  0  0  0  0  0  0  0  0  0
    0.2433    0.8081    0.7885 C   0  0  0  0  0  0  0  0  0  0  0  0
   -0.5040   -0.1878    1.6510 C   0  0  0  0  0  0  0  0  0  0  0  0
    0.2852   -0.6298    2.8762 C   0  0  0  0  0  0  0  0  0  0  0  0
    4.1174    0.8902   -1.5820 H   0  0  0  0  0  0  0  0  0  0  0  0
    3.4399   -0.7198   -0.9141 H   0  0  0  0  0  0  0  0  0  0  0  0
    1.5724    1.4684   -1.3398 H   0  0  0  0  0  0  0  0  0  0  0  0
    2.4896    1.9442    0.0856 H   0  0  0  0  0  0  0  0  0  0  0  0
    0.5169    1.6937    1.3835 H   0  0  0  0  0  0  0  0  0  0  0  0
   -0.3954    1.1528   -0.0379 H   0  0  0  0  0  0  0  0  0  0  0  0
   -0.7611   -1.0545    1.0367 H   0  0  0  0  0  0  0  0  0  0  0  0
   -1.4466    0.2743    1.9571 H   0  0  0  0  0  0  0  0  0  0  0  0
    0.5263    0.2245    3.5136 H   0  0  0  0  0  0  0  0  0  0  0  0
    1.2220   -1.1033    2.5825 H   0  0  0  0  0  0  0  0  0  0  0  0
   -0.2849   -1.3427    3.4737 H   0  0  0  0  0  0  0  0  0  0  0  0
  1  2  1  0
  1  7  1  0
  1  8  1  0
  2  3  1  0
  2  9  1  0
  2 10  1  0
  3  4  1  0
  4  5  1  0
  4 11  1  0
  4 12  1  0
  5  6  1  0
  5 13  1  0
  5 14  1  0
  6 15  1  0
  6 16  1  0
  6 17  1  0
M  RAD  1   1   2
M  END
>  <reaction>  (2) 
rmg_rxn_157

>  <mol_properties>  (2) 
{"0": {"label": "acceptor", "atom_type": "Cs"}}

>  <type>  (2) 
r2

$$$$

     RDKit          3D

 18 17  0  0  0  0  0  0  0  0999 V2000
    2.2026   -0.7213   -0.2612 C   0  0  0  0  0  0  0  0  0  0  0  0
    1.5384    0.2638    0.6915 C   0  0  0  0  0  0  0  0  0  0  0  0
    2.2584    1.5946    0.7694 C   0  0  0  0  0  0  0  0  0  0  0  0
    2.2212    2.2185   -0.4893 O   0  0  0  0  0  0  0  0  0  0  0  0
    2.8988    3.4488   -0.5204 C   0  0  0  0  0  0  0  0  0  0  0  0
    2.7981    4.0296   -1.9118 C   0  0  0  0  0  0  0  0  0  0  0  0
    3.2294   -0.9309    0.0486 H   0  0  0  0  0  0  0  0  0  0  0  0
    2.2338   -0.3181   -1.2734 H   0  0  0  0  0  0  0  0  0  0  0  0
    1.6610   -1.6680   -0.2875 H   0  0  0  0  0  0  0  0  0  0  0  0
    1.4990   -0.1566    1.7002 H   0  0  0  0  0  0  0  0  0  0  0  0
    0.5055    0.4455    0.3835 H   0  0  0  0  0  0  0  0  0  0  0  0
    3.3038    1.4410    1.0808 H   0  0  0  0  0  0  0  0  0  0  0  0
    1.7844    2.2410    1.5226 H   0  0  0  0  0  0  0  0  0  0  0  0
    2.4596    4.1376    0.2164 H   0  0  0  0  0  0  0  0  0  0  0  0
    3.9524    3.3035   -0.2397 H   0  0  0  0  0  0  0  0  0  0  0  0
    1.7543    4.1869   -2.1856 H   0  0  0  0  0  0  0  0  0  0  0  0
    3.2472    3.3545   -2.6411 H   0  0  0  0  0  0  0  0  0  0  0  0
    3.3178    4.9878   -1.9600 H   0  0  0  0  0  0  0  0  0  0  0  0
  1  2  1  0
  1  7  1  0
  1  8  1  0
  1  9  1  0
  2  3  1  0
  2 10  1  0
  2 11  1  0
  3  4  1  0
  3 12  1  0
  3 13  1  0
  4  5  1  0
  5  6  1  0
  5 14  1  0
  5 15  1  0
  6 16  1  0
  6 17  1  0
  6 18  1  0
M  END
>  <reaction>  (3) 
rmg_rxn_157

>  <mol_properties>  (3) 
{"0": {"label": "a_hydrogen", "atom_type": "H0"}, "1": {"label": "acceptor", "atom_type": "Cs"}}

>  <type>  (3) 
r2h

$$$$

     RDKit          3D

 26 24  0  0  0  0  0  0  0  0999 V2000
   -3.3029   -0.1279   -1.4977 C   0  0  0  0  0  0  0  0  0  0  0  0
   -2.7768    0.8419   -0.4713 C   0  0  0  0  0  0  0  0  0  0  0  0
   -2.0855    2.0141   -0.9314 N   0  0  0  0  0  0  0  0  0  0  0  0
   -1.5945    1.9153   -2.0312 O   0  0  0  0  0  0  0  0  0  0  0  0
   -2.5045   -0.4725   -2.1534 H   0  0  0  0  0  0  0  0  0  0  0  0
   -3.7474   -0.9883   -0.9976 H   0  0  0  0  0  0  0  0  0  0  0  0
   -4.0674    0.3421   -2.1192 H   0  0  0  0  0  0  0  0  0  0  0  0
   -1.8958    0.2565    0.1625 H   0  0  0  0  0  0  0  0  0  0  0  0
   -3.4801    1.1386    0.3057 H   0  0  0  0  0  0  0  0  0  0  0  0
   -0.8279   -0.6117    0.7700 C   0  0  0  0  0  3  0  0  0  0  0  0
    0.4152   -0.0374    0.1693 C   0  0  0  0  0  0  0  0  0  0  0  0
    1.5272   -0.7173    0.7047 O   0  0  0  0  0  0  0  0  0  0  0  0
    2.7549   -0.2399    0.2012 C   0  0  0  0  0  0  0  0  0  0  0  0
    3.8866   -1.0523    0.7949 C   0  0  0  0  0  0  0  0  0  0  0  0
    3.8409   -2.5225    0.4004 C   0  0  0  0  0  0  0  0  0  0  0  0
   -1.1271   -1.5977    0.4289 H   0  0  0  0  0  0  0  0  0  0  0  0
   -0.9820   -0.4313    1.8293 H   0  0  0  0  0  0  0  0  0  0  0  0
    0.4840    1.0367    0.3920 H   0  0  0  0  0  0  0  0  0  0  0  0
    0.3959   -0.1414   -0.9242 H   0  0  0  0  0  0  0  0  0  0  0  0
    2.7636   -0.3211   -0.8964 H   0  0  0  0  0  0  0  0  0  0  0  0
    2.8723    0.8233    0.4534 H   0  0  0  0  0  0  0  0  0  0  0  0
    3.8525   -0.9535    1.8829 H   0  0  0  0  0  0  0  0  0  0  0  0
    4.8280   -0.6038    0.4657 H   0  0  0  0  0  0  0  0  0  0  0  0
    3.8974   -2.6367   -0.6849 H   0  0  0  0  0  0  0  0  0  0  0  0
    2.9137   -2.9853    0.7385 H   0  0  0  0  0  0  0  0  0  0  0  0
    4.6753   -3.0720    0.8385 H   0  0  0  0  0  0  0  0  0  0  0  0
  1  2  1  0
  1  5  1  0
  1  6  1  0
  1  7  1  0
  2  3  1  0
  2  8  1  0
  2  9  1  0
  3  4  2  0
 10 11  1  0
 10 16  1  0
 10 17  1  0
 11 12  1  0
 11 18  1  0
 11 19  1  0
 12 13  1  0
 13 14  1  0
 13 20  1  0
 13 21  1  0
 14 15  1  0
 14 22  1  0
 14 23  1  0
 15 24  1  0
 15 25  1  0
 15 26  1  0
M  RAD  1  10   2
M  END
>  <reaction>  (4) 
rmg_rxn_157

>  <mol_properties>  (4) 
{"1": {"label": "*1", "atom_type": "Cs"}, "2": {"label": "*0", "atom_type": "N3d"}, "7": {"label": "*2", "atom_type": "H0"}, "9": {"label": "*3", "atom_type": "Cs"}, "10": {"label": "*4", "atom_type": "Cs"}}

>  <type>  (4) 
ts

$$$$

     RDKit          3D

 26 24  0  0  0  0  0  0  0  0999 V2000
   -2.2427    0.1917   -3.3608 C   0  0  0  0  0  0  0  0  0  0  0  0
   -2.2427    0.1917   -1.8503 C   0  0  0  0  0  0  0  0  0  0  0  0
   -2.2427    1.5176   -1.1867 N   0  0  0  0  0  0  0  0  0  0  0  0
   -2.2427    2.4472   -1.9344 O   0  0  0  0  0  1  0  0  0  0  0  0
   -1.3626    0.6990   -3.7553 H   0  0  0  0  0  0  0  0  0  0  0  0
   -2.2427   -0.8355   -3.7261 H   0  0  0  0  0  0  0  0  0  0  0  0
   -3.1229    0.6990   -3.7553 H   0  0  0  0  0  0  0  0  0  0  0  0
   -1.1973   -0.4171   -1.3377 H   0  0  0  0  0  0  0  0  0  0  0  0
   -3.1139   -0.3157   -1.4232 H   0  0  0  0  0  0  0  0  0  0  0  0
   -0.1555   -1.0238   -0.8269 C   0  0  0  0  0  0  0  0  0  0  0  0
    0.6400   -0.0664    0.0300 C   0  0  0  0  0  0  0  0  0  0  0  0
    1.0927   -0.7456    1.1733 O   0  0  0  0  0  0  0  0  0  0  0  0
    1.8482    0.0640    2.0386 C   0  0  0  0  0  0  0  0  0  0  0  0
    2.3215   -0.7642    3.2156 C   0  0  0  0  0  0  0  0  0  0  0  0
    3.2559   -1.8974    2.8130 C   0  0  0  0  0  0  0  0  0  0  0  0
    0.4639   -1.8677   -1.1329 H   0  0  0  0  0  0  0  0  0  0  0  0
   -1.0131   -1.4090   -0.2743 H   0  0  0  0  0  0  0  0  0  0  0  0
    0.0189    0.7923    0.3250 H   0  0  0  0  0  0  0  0  0  0  0  0
    1.4969    0.3323   -0.5329 H   0  0  0  0  0  0  0  0  0  0  0  0
    2.7125    0.4837    1.4999 H   0  0  0  0  0  0  0  0  0  0  0  0
    1.2387    0.9101    2.3884 H   0  0  0  0  0  0  0  0  0  0  0  0
    1.4458   -1.1655    3.7322 H   0  0  0  0  0  0  0  0  0  0  0  0
    2.8242   -0.0936    3.9181 H   0  0  0  0  0  0  0  0  0  0  0  0
    4.1483   -1.5086    2.3161 H   0  0  0  0  0  0  0  0  0  0  0  0
    2.7596   -2.5807    2.1239 H   0  0  0  0  0  0  0  0  0  0  0  0
    3.5800   -2.4676    3.6848 H   0  0  0  0  0  0  0  0  0  0  0  0
  1  2  1  0
  1  5  1  0
  1  6  1  0
  1  7  1  0
  2  3  2  3
  2  9  1  0
  3  4  1  0
  8 10  1  0
 10 11  1  0
 10 16  1  0
 10 17  1  0
 11 12  1  0
 11 18  1  0
 11 19  1  0
 12 13  1  0
 13 14  1  0
 13 20  1  0
 13 21  1  0
 14 15  1  0
 14 22  1  0
 14 23  1  0
 15 24  1  0
 15 25  1  0
 15 26  1  0
M  RAD  1   4   2
M  END
>  <reaction>  (5) 
rmg_rxn_157

>  <mol_properties>  (5) 
{"1": {"label": "*1", "atom_type": "Cs"}, "2": {"label": "*0", "atom_type": "N3d"}, "7": {"label": "*2", "atom_type": "H0"}, "9": {"label": "*3", "atom_type": "Cs"}, "10": {"label": "*4", "atom_type": "Cs"}}

>  <type>  (5) 
unop_1

>  <geom_source>  (5) 
Heuristics

$$$$

     RDKit          3D

 26 24  0  0  0  0  0  0  0  0999 V2000
   -2.8996    0.5933   -1.8347 C   0  0  0  0  0  0  0  0  0  0  0  0
   -2.8996    0.5933   -0.3242 C   0  0  0  0  0  0  0  0  0  0  0  0
   -2.8996    1.9193    0.3394 N   0  0  0  0  0  0  0  0  0  0  0  0
   -2.8996    2.8488   -0.4083 O   0  0  0  0  0  1  0  0  0  0  0  0
   -2.0195    1.1007   -2.2291 H   0  0  0  0  0  0  0  0  0  0  0  0
   -2.8996   -0.4338   -2.1999 H   0  0  0  0  0  0  0  0  0  0  0  0
   -3.7797    1.1007   -2.2291 H   0  0  0  0  0  0  0  0  0  0  0  0
   -1.8541   -0.0155    0.1884 H   0  0  0  0  0  0  0  0  0  0  0  0
   -3.7708    0.0860    0.1030 H   0  0  0  0  0  0  0  0  0  0  0  0
   -0.8123   -0.6222    0.6992 C   0  0  0  0  0  0  0  0  0  0  0  0
    0.3748   -0.4933   -0.2268 C   0  0  0  0  0  0  0  0  0  0  0  0
    1.5485   -0.7674    0.4949 O   0  0  0  0  0  0  0  0  0  0  0  0
    2.7149   -0.6741   -0.2834 C   0  0  0  0  0  0  0  0  0  0  0  0
    3.9171   -1.0237    0.5697 C   0  0  0  0  0  0  0  0  0  0  0  0
    3.8923   -2.4584    1.0797 C   0  0  0  0  0  0  0  0  0  0  0  0
   -0.8703   -1.6316    1.1080 H   0  0  0  0  0  0  0  0  0  0  0  0
   -0.7279    0.0806    1.5288 H   0  0  0  0  0  0  0  0  0  0  0  0
    0.4234    0.5207   -0.6509 H   0  0  0  0  0  0  0  0  0  0  0  0
    0.2819   -1.1928   -1.0707 H   0  0  0  0  0  0  0  0  0  0  0  0
    2.6483   -1.3607   -1.1422 H   0  0  0  0  0  0  0  0  0  0  0  0
    2.8165    0.3443   -0.6863 H   0  0  0  0  0  0  0  0  0  0  0  0
    3.9602   -0.3271    1.4109 H   0  0  0  0  0  0  0  0  0  0  0  0
    4.8157   -0.8528   -0.0296 H   0  0  0  0  0  0  0  0  0  0  0  0
    3.8733   -3.1673    0.2481 H   0  0  0  0  0  0  0  0  0  0  0  0
    3.0075   -2.6356    1.6911 H   0  0  0  0  0  0  0  0  0  0  0  0
    4.7741   -2.6755    1.6843 H   0  0  0  0  0  0  0  0  0  0  0  0
  1  2  1  0
  1  5  1  0
  1  6  1  0
  1  7  1  0
  2  3  2  3
  2  9  1  0
  3  4  1  0
  8 10  1  0
 10 11  1  0
 10 16  1  0
 10 17  1  0
 11 12  1  0
 11 18  1  0
 11 19  1  0
 12 13  1  0
 13 14  1  0
 13 20  1  0
 13 21  1  0
 14 15  1  0
 14 22  1  0
 14 23  1  0
 15 24  1  0
 15 25  1  0
 15 26  1  0
M  RAD  1   4   2
M  END
>  <reaction>  (6) 
rmg_rxn_157

>  <mol_properties>  (6) 
{"1": {"label": "*1", "atom_type": "Cs"}, "2": {"label": "*0", "atom_type": "N3d"}, "7": {"label": "*2", "atom_type": "H0"}, "9": {"label": "*3", "atom_type": "Cs"}, "10": {"label": "*4", "atom_type": "Cs"}}

>  <type>  (6) 
unop_2

>  <geom_source>  (6) 
Heuristics

$$$$

     RDKit          3D

 26 24  0  0  0  0  0  0  0  0999 V2000
   -2.0563    0.5740   -3.4745 C   0  0  0  0  0  0  0  0  0  0  0  0
   -2.0563    0.5740   -1.9640 C   0  0  0  0  0  0  0  0  0  0  0  0
   -2.0563    1.9000   -1.3004 N   0  0  0  0  0  0  0  0  0  0  0  0
   -2.0564    2.8296   -2.0481 O   0  0  0  0  0  1  0  0  0  0  0  0
   -1.1762    1.0814   -3.8690 H   0  0  0  0  0  0  0  0  0  0  0  0
   -2.0563   -0.4531   -3.8398 H   0  0  0  0  0  0  0  0  0  0  0  0
   -2.9365    1.0814   -3.8690 H   0  0  0  0  0  0  0  0  0  0  0  0
   -1.0109   -0.0347   -1.4514 H   0  0  0  0  0  0  0  0  0  0  0  0
   -2.9275    0.0667   -1.5369 H   0  0  0  0  0  0  0  0  0  0  0  0
    0.0309   -0.6414   -0.9406 C   0  0  0  0  0  0  0  0  0  0  0  0
    0.3903   -0.0306    0.3940 C   0  0  0  0  0  0  0  0  0  0  0  0
    1.0068   -1.0084    1.1923 O   0  0  0  0  0  0  0  0  0  0  0  0
    1.3818   -0.5353    2.4613 C   0  0  0  0  0  0  0  0  0  0  0  0
    2.0696   -1.6462    3.2282 C   0  0  0  0  0  0  0  0  0  0  0  0
    3.3658   -2.1097    2.5769 C   0  0  0  0  0  0  0  0  0  0  0  0
    0.9252   -1.0063   -1.4471 H   0  0  0  0  0  0  0  0  0  0  0  0
   -0.6539   -1.4793   -0.8054 H   0  0  0  0  0  0  0  0  0  0  0  0
   -0.5104    0.3513    0.8971 H   0  0  0  0  0  0  0  0  0  0  0  0
    1.0701    0.8232    0.2555 H   0  0  0  0  0  0  0  0  0  0  0  0
    2.0598    0.3263    2.3547 H   0  0  0  0  0  0  0  0  0  0  0  0
    0.4940   -0.1868    3.0092 H   0  0  0  0  0  0  0  0  0  0  0  0
    1.3753   -2.4853    3.3212 H   0  0  0  0  0  0  0  0  0  0  0  0
    2.2661   -1.2838    4.2411 H   0  0  0  0  0  0  0  0  0  0  0  0
    4.0792   -1.2855    2.4992 H   0  0  0  0  0  0  0  0  0  0  0  0
    3.1792   -2.4871    1.5715 H   0  0  0  0  0  0  0  0  0  0  0  0
    3.8349   -2.9048    3.1583 H   0  0  0  0  0  0  0  0  0  0  0  0
  1  2  1  0
  1  5  1  0
  1  6  1  0
  1  7  1  0
  2  3  2  3
  2  9  1  0
  3  4  1  0
  8 10  1  0
 10 11  1  0
 10 16  1  0
 10 17  1  0
 11 12  1  0
 11 18  1  0
 11 19  1  0
 12 13  1  0
 13 14  1  0
 13 20  1  0
 13 21  1  0
 14 15  1  0
 14 22  1  0
 14 23  1  0
 15 24  1  0
 15 25  1  0
 15 26  1  0
M  RAD  1   4   2
M  END
>  <reaction>  (7) 
rmg_rxn_157

>  <mol_properties>  (7) 
{"1": {"label": "*1", "atom_type": "Cs"}, "2": {"label": "*0", "atom_type": "N3d"}, "7": {"label": "*2", "atom_type": "H0"}, "9": {"label": "*3", "atom_type": "Cs"}, "10": {"label": "*4", "atom_type": "Cs"}}

>  <type>  (7) 
unop_3

>  <geom_source>  (7) 
Heuristics

$$$$

     RDKit          3D

 26 24  0  0  0  0  0  0  0  0999 V2000
   -1.5543    1.9481   -2.4681 C   0  0  0  0  0  0  0  0  0  0  0  0
   -1.5543    1.9481   -0.9576 C   0  0  0  0  0  0  0  0  0  0  0  0
   -1.5543    3.2741   -0.2940 N   0  0  0  0  0  0  0  0  0  0  0  0
   -1.5543    4.2037   -1.0417 O   0  0  0  0  0  1  0  0  0  0  0  0
   -0.6741    2.4555   -2.8626 H   0  0  0  0  0  0  0  0  0  0  0  0
   -1.5543    0.9210   -2.8334 H   0  0  0  0  0  0  0  0  0  0  0  0
   -2.4344    2.4555   -2.8626 H   0  0  0  0  0  0  0  0  0  0  0  0
   -0.5088    1.3394   -0.4450 H   0  0  0  0  0  0  0  0  0  0  0  0
   -2.4255    1.4408   -0.5304 H   0  0  0  0  0  0  0  0  0  0  0  0
    0.5330    0.7327    0.0658 C   0  0  0  0  0  0  0  0  0  0  0  0
    0.5708   -0.7099   -0.3825 C   0  0  0  0  0  0  0  0  0  0  0  0
    1.1516   -1.4882    0.6326 O   0  0  0  0  0  0  0  0  0  0  0  0
    1.2316   -2.8537    0.3099 C   0  0  0  0  0  0  0  0  0  0  0  0
    1.8325   -3.6109    1.4764 C   0  0  0  0  0  0  0  0  0  0  0  0
    0.9773   -3.5485    2.7349 C   0  0  0  0  0  0  0  0  0  0  0  0
   -0.0570    0.8342    0.9774 H   0  0  0  0  0  0  0  0  0  0  0  0
    1.5411    1.0971    0.2661 H   0  0  0  0  0  0  0  0  0  0  0  0
    1.1531   -0.8089   -1.3107 H   0  0  0  0  0  0  0  0  0  0  0  0
   -0.4452   -1.0725   -0.5977 H   0  0  0  0  0  0  0  0  0  0  0  0
    0.2271   -3.2446    0.0827 H   0  0  0  0  0  0  0  0  0  0  0  0
    1.8472   -2.9906   -0.5913 H   0  0  0  0  0  0  0  0  0  0  0  0
    2.8272   -3.2052    1.6782 H   0  0  0  0  0  0  0  0  0  0  0  0
    1.9711   -4.6505    1.1668 H   0  0  0  0  0  0  0  0  0  0  0  0
   -0.0134   -3.9732    2.5543 H   0  0  0  0  0  0  0  0  0  0  0  0
    0.8450   -2.5169    3.0611 H   0  0  0  0  0  0  0  0  0  0  0  0
    1.4375   -4.1080    3.5506 H   0  0  0  0  0  0  0  0  0  0  0  0
  1  2  1  0
  1  5  1  0
  1  6  1  0
  1  7  1  0
  2  3  2  3
  2  9  1  0
  3  4  1  0
  8 10  1  0
 10 11  1  0
 10 16  1  0
 10 17  1  0
 11 12  1  0
 11 18  1  0
 11 19  1  0
 12 13  1  0
 13 14  1  0
 13 20  1  0
 13 21  1  0
 14 15  1  0
 14 22  1  0
 14 23  1  0
 15 24  1  0
 15 25  1  0
 15 26  1  0
M  RAD  1   4   2
M  END
>  <reaction>  (8) 
rmg_rxn_157

>  <mol_properties>  (8) 
{"1": {"label": "*1", "atom_type": "Cs"}, "2": {"label": "*0", "atom_type": "N3d"}, "7": {"label": "*2", "atom_type": "H0"}, "9": {"label": "*3", "atom_type": "Cs"}, "10": {"label": "*4", "atom_type": "Cs"}}

>  <type>  (8) 
unop_4

>  <geom_source>  (8) 
Heuristics

$$$$

     RDKit          3D

 26 24  0  0  0  0  0  0  0  0999 V2000
   -2.0630    0.6747   -3.4523 C   0  0  0  0  0  0  0  0  0  0  0  0
   -2.0630    0.6747   -1.9418 C   0  0  0  0  0  0  0  0  0  0  0  0
   -2.0630    2.0006   -1.2782 N   0  0  0  0  0  0  0  0  0  0  0  0
   -2.0630    2.9302   -2.0259 O   0  0  0  0  0  1  0  0  0  0  0  0
   -1.1828    1.1820   -3.8467 H   0  0  0  0  0  0  0  0  0  0  0  0
   -2.0630   -0.3525   -3.8175 H   0  0  0  0  0  0  0  0  0  0  0  0
   -2.9431    1.1820   -3.8467 H   0  0  0  0  0  0  0  0  0  0  0  0
   -1.0175    0.0659   -1.4292 H   0  0  0  0  0  0  0  0  0  0  0  0
   -2.9342    0.1674   -1.5146 H   0  0  0  0  0  0  0  0  0  0  0  0
    0.0243   -0.5408   -0.9184 C   0  0  0  0  0  0  0  0  0  0  0  0
   -0.0369   -0.5051    0.5911 C   0  0  0  0  0  0  0  0  0  0  0  0
    1.0911   -1.1629    1.1093 O   0  0  0  0  0  0  0  0  0  0  0  0
    1.1270   -1.1828    2.5140 C   0  0  0  0  0  0  0  0  0  0  0  0
    2.3934   -1.8754    2.9741 C   0  0  0  0  0  0  0  0  0  0  0  0
    3.6618   -1.1450    2.5534 C   0  0  0  0  0  0  0  0  0  0  0  0
    0.9259   -0.0422   -1.2761 H   0  0  0  0  0  0  0  0  0  0  0  0
    0.0358   -1.5709   -1.2761 H   0  0  0  0  0  0  0  0  0  0  0  0
   -0.9545   -0.9944    0.9503 H   0  0  0  0  0  0  0  0  0  0  0  0
   -0.0626    0.5342    0.9504 H   0  0  0  0  0  0  0  0  0  0  0  0
    1.0962   -0.1532    2.9043 H   0  0  0  0  0  0  0  0  0  0  0  0
    0.2424   -1.7070    2.9045 H   0  0  0  0  0  0  0  0  0  0  0  0
    2.3968   -2.8933    2.5755 H   0  0  0  0  0  0  0  0  0  0  0  0
    2.3526   -1.9618    4.0634 H   0  0  0  0  0  0  0  0  0  0  0  0
    3.6833   -0.1329    2.9651 H   0  0  0  0  0  0  0  0  0  0  0  0
    3.7201   -1.0664    1.4679 H   0  0  0  0  0  0  0  0  0  0  0  0
    4.5517   -1.6686    2.9060 H   0  0  0  0  0  0  0  0  0  0  0  0
  1  2  1  0
  1  5  1  0
  1  6  1  0
  1  7  1  0
  2  3  2  3
  2  9  1  0
  3  4  1  0
  8 10  1  0
 10 11  1  0
 10 16  1  0
 10 17  1  0
 11 12  1  0
 11 18  1  0
 11 19  1  0
 12 13  1  0
 13 14  1  0
 13 20  1  0
 13 21  1  0
 14 15  1  0
 14 22  1  0
 14 23  1  0
 15 24  1  0
 15 25  1  0
 15 26  1  0
M  RAD  1   4   2
M  END
>  <reaction>  (9) 
rmg_rxn_157

>  <mol_properties>  (9) 
{"1": {"label": "*1", "atom_type": "Cs"}, "2": {"label": "*0", "atom_type": "N3d"}, "7": {"label": "*2", "atom_type": "H0"}, "9": {"label": "*3", "atom_type": "Cs"}, "10": {"label": "*4", "atom_type": "Cs"}}

>  <type>  (9) 
unop_5

>  <geom_source>  (9) 
Heuristics

$$$$

     RDKit          3D

 26 24  0  0  0  0  0  0  0  0999 V2000
   -1.3227    1.6595   -3.0794 C   0  0  0  0  0  0  0  0  0  0  0  0
   -1.3227    1.6595   -1.5690 C   0  0  0  0  0  0  0  0  0  0  0  0
   -1.3227    2.9855   -0.9054 N   0  0  0  0  0  0  0  0  0  0  0  0
   -1.3227    3.9150   -1.6531 O   0  0  0  0  0  1  0  0  0  0  0  0
   -0.4426    2.1669   -3.4739 H   0  0  0  0  0  0  0  0  0  0  0  0
   -1.3227    0.6324   -3.4447 H   0  0  0  0  0  0  0  0  0  0  0  0
   -2.2029    2.1669   -3.4739 H   0  0  0  0  0  0  0  0  0  0  0  0
   -0.2773    1.0507   -1.0564 H   0  0  0  0  0  0  0  0  0  0  0  0
   -2.1939    1.1522   -1.1418 H   0  0  0  0  0  0  0  0  0  0  0  0
    0.7645    0.4440   -0.5455 C   0  0  0  0  0  0  0  0  0  0  0  0
    0.4679   -1.0235   -0.3413 C   0  0  0  0  0  0  0  0  0  0  0  0
    1.0448   -1.4416    0.8695 O   0  0  0  0  0  0  0  0  0  0  0  0
    0.8225   -2.8002    1.1519 C   0  0  0  0  0  0  0  0  0  0  0  0
    1.4461   -3.1436    2.4892 C   0  0  0  0  0  0  0  0  0  0  0  0
    0.8202   -2.3872    3.6534 C   0  0  0  0  0  0  0  0  0  0  0  0
    0.3501    1.0351    0.2720 H   0  0  0  0  0  0  0  0  0  0  0  0
    1.8410    0.6148   -0.5823 H   0  0  0  0  0  0  0  0  0  0  0  0
    0.8726   -1.6172   -1.1744 H   0  0  0  0  0  0  0  0  0  0  0  0
   -0.6182   -1.1967   -0.3183 H   0  0  0  0  0  0  0  0  0  0  0  0
   -0.2594   -3.0059    1.1754 H   0  0  0  0  0  0  0  0  0  0  0  0
    1.2568   -3.4244    0.3572 H   0  0  0  0  0  0  0  0  0  0  0  0
    2.5173   -2.9326    2.4371 H   0  0  0  0  0  0  0  0  0  0  0  0
    1.3425   -4.2215    2.6416 H   0  0  0  0  0  0  0  0  0  0  0  0
   -0.2473   -2.6075    3.7324 H   0  0  0  0  0  0  0  0  0  0  0  0
    0.9311   -1.3112    3.5190 H   0  0  0  0  0  0  0  0  0  0  0  0
    1.2897   -2.6632    4.5988 H   0  0  0  0  0  0  0  0  0  0  0  0
  1  2  1  0
  1  5  1  0
  1  6  1  0
  1  7  1  0
  2  3  2  3
  2  9  1  0
  3  4  1  0
  8 10  1  0
 10 11  1  0
 10 16  1  0
 10 17  1  0
 11 12  1  0
 11 18  1  0
 11 19  1  0
 12 13  1  0
 13 14  1  0
 13 20  1  0
 13 21  1  0
 14 15  1  0
 14 22  1  0
 14 23  1  0
 15 24  1  0
 15 25  1  0
 15 26  1  0
M  RAD  1   4   2
M  END
>  <reaction>  (10) 
rmg_rxn_157

>  <mol_properties>  (10) 
{"1": {"label": "*1", "atom_type": "Cs"}, "2": {"label": "*0", "atom_type": "N3d"}, "7": {"label": "*2", "atom_type": "H0"}, "9": {"label": "*3", "atom_type": "Cs"}, "10": {"label": "*4", "atom_type": "Cs"}}

>  <type>  (10) 
unop_6

>  <geom_source>  (10) 
Heuristics

$$$$

     RDKit          3D

 26 24  0  0  0  0  0  0  0  0999 V2000
   -1.4166    1.1429   -3.4948 C   0  0  0  0  0  0  0  0  0  0  0  0
   -1.4166    1.1429   -1.9843 C   0  0  0  0  0  0  0  0  0  0  0  0
   -1.4166    2.4688   -1.3207 N   0  0  0  0  0  0  0  0  0  0  0  0
   -1.4166    3.3984   -2.0684 O   0  0  0  0  0  1  0  0  0  0  0  0
   -0.5365    1.6502   -3.8893 H   0  0  0  0  0  0  0  0  0  0  0  0
   -1.4166    0.1157   -3.8601 H   0  0  0  0  0  0  0  0  0  0  0  0
   -2.2967    1.6502   -3.8893 H   0  0  0  0  0  0  0  0  0  0  0  0
   -0.3712    0.5341   -1.4717 H   0  0  0  0  0  0  0  0  0  0  0  0
   -2.2878    0.6355   -1.5572 H   0  0  0  0  0  0  0  0  0  0  0  0
    0.6707   -0.0726   -0.9609 C   0  0  0  0  0  0  0  0  0  0  0  0
    0.2306   -1.2369   -0.1041 C   0  0  0  0  0  0  0  0  0  0  0  0
    1.0457   -1.2964    1.0386 O   0  0  0  0  0  0  0  0  0  0  0  0
    0.7133   -2.3520    1.9047 C   0  0  0  0  0  0  0  0  0  0  0  0
    1.6178   -2.3086    3.1193 C   0  0  0  0  0  0  0  0  0  0  0  0
    1.4456   -1.0432    3.9490 C   0  0  0  0  0  0  0  0  0  0  0  0
    0.5823    0.8634   -0.4083 H   0  0  0  0  0  0  0  0  0  0  0  0
    1.7103   -0.1947   -1.2668 H   0  0  0  0  0  0  0  0  0  0  0  0
    0.3052   -2.1788   -0.6676 H   0  0  0  0  0  0  0  0  0  0  0  0
   -0.8222   -1.1198    0.1924 H   0  0  0  0  0  0  0  0  0  0  0  0
   -0.3401   -2.2649    2.2147 H   0  0  0  0  0  0  0  0  0  0  0  0
    0.8220   -3.3140    1.3827 H   0  0  0  0  0  0  0  0  0  0  0  0
    2.6542   -2.3992    2.7838 H   0  0  0  0  0  0  0  0  0  0  0  0
    1.4040   -3.1905    3.7294 H   0  0  0  0  0  0  0  0  0  0  0  0
    0.4187   -0.9518    4.3116 H   0  0  0  0  0  0  0  0  0  0  0  0
    1.6708   -0.1579    3.3543 H   0  0  0  0  0  0  0  0  0  0  0  0
    2.1074   -1.0492    4.8163 H   0  0  0  0  0  0  0  0  0  0  0  0
  1  2  1  0
  1  5  1  0
  1  6  1  0
  1  7  1  0
  2  3  2  3
  2  9  1  0
  3  4  1  0
  8 10  1  0
 10 11  1  0
 10 16  1  0
 10 17  1  0
 11 12  1  0
 11 18  1  0
 11 19  1  0
 12 13  1  0
 13 14  1  0
 13 20  1  0
 13 21  1  0
 14 15  1  0
 14 22  1  0
 14 23  1  0
 15 24  1  0
 15 25  1  0
 15 26  1  0
M  RAD  1   4   2
M  END
>  <reaction>  (11) 
rmg_rxn_157

>  <mol_properties>  (11) 
{"1": {"label": "*1", "atom_type": "Cs"}, "2": {"label": "*0", "atom_type": "N3d"}, "7": {"label": "*2", "atom_type": "H0"}, "9": {"label": "*3", "atom_type": "Cs"}, "10": {"label": "*4", "atom_type": "Cs"}}

>  <type>  (11) 
unop_7

>  <geom_source>  (11) 
Heuristics

$$$$

     RDKit          3D

 26 24  0  0  0  0  0  0  0  0999 V2000
   -2.5871   -0.0466   -2.9461 C   0  0  0  0  0  0  0  0  0  0  0  0
   -2.5871   -0.0466   -1.4356 C   0  0  0  0  0  0  0  0  0  0  0  0
   -2.5871    1.2794   -0.7720 N   0  0  0  0  0  0  0  0  0  0  0  0
   -2.5871    2.2089   -1.5197 O   0  0  0  0  0  1  0  0  0  0  0  0
   -1.7070    0.4608   -3.3406 H   0  0  0  0  0  0  0  0  0  0  0  0
   -2.5871   -1.0737   -3.3114 H   0  0  0  0  0  0  0  0  0  0  0  0
   -3.4672    0.4608   -3.3406 H   0  0  0  0  0  0  0  0  0  0  0  0
   -1.5417   -0.6554   -0.9230 H   0  0  0  0  0  0  0  0  0  0  0  0
   -3.4583   -0.5539   -1.0085 H   0  0  0  0  0  0  0  0  0  0  0  0
   -0.4999   -1.2620   -0.4122 C   0  0  0  0  0  0  0  0  0  0  0  0
    0.6301   -0.2797   -0.2079 C   0  0  0  0  0  0  0  0  0  0  0  0
    1.2774   -0.5742    1.0036 O   0  0  0  0  0  0  0  0  0  0  0  0
    2.3505    0.2885    1.2851 C   0  0  0  0  0  0  0  0  0  0  0  0
    3.0051   -0.1321    2.5850 C   0  0  0  0  0  0  0  0  0  0  0  0
    3.6191   -1.5243    2.5230 C   0  0  0  0  0  0  0  0  0  0  0  0
   -0.1170   -2.2826   -0.4491 H   0  0  0  0  0  0  0  0  0  0  0  0
   -1.2183   -1.1934    0.4053 H   0  0  0  0  0  0  0  0  0  0  0  0
    0.2448    0.7505   -0.1866 H   0  0  0  0  0  0  0  0  0  0  0  0
    1.3470   -0.3398   -1.0401 H   0  0  0  0  0  0  0  0  0  0  0  0
    3.0841    0.2544    0.4641 H   0  0  0  0  0  0  0  0  0  0  0  0
    1.9893    1.3249    1.3579 H   0  0  0  0  0  0  0  0  0  0  0  0
    2.2572   -0.0868    3.3809 H   0  0  0  0  0  0  0  0  0  0  0  0
    3.7729    0.6073    2.8293 H   0  0  0  0  0  0  0  0  0  0  0  0
    4.3865   -1.5775    1.7467 H   0  0  0  0  0  0  0  0  0  0  0  0
    2.8592   -2.2716    2.2946 H   0  0  0  0  0  0  0  0  0  0  0  0
    4.0851   -1.7907    3.4729 H   0  0  0  0  0  0  0  0  0  0  0  0
  1  2  1  0
  1  5  1  0
  1  6  1  0
  1  7  1  0
  2  3  2  3
  2  9  1  0
  3  4  1  0
  8 10  1  0
 10 11  1  0
 10 16  1  0
 10 17  1  0
 11 12  1  0
 11 18  1  0
 11 19  1  0
 12 13  1  0
 13 14  1  0
 13 20  1  0
 13 21  1  0
 14 15  1  0
 14 22  1  0
 14 23  1  0
 15 24  1  0
 15 25  1  0
 15 26  1  0
M  RAD  1   4   2
M  END
>  <reaction>  (12) 
rmg_rxn_157

>  <mol_properties>  (12) 
{"1": {"label": "*1", "atom_type": "Cs"}, "2": {"label": "*0", "atom_type": "N3d"}, "7": {"label": "*2", "atom_type": "H0"}, "9": {"label": "*3", "atom_type": "Cs"}, "10": {"label": "*4", "atom_type": "Cs"}}

>  <type>  (12) 
unop_8

>  <geom_source>  (12) 
Heuristics

$$$$

     RDKit          3D

 26 24  0  0  0  0  0  0  0  0999 V2000
   -2.0447    1.8323   -1.9003 C   0  0  0  0  0  0  0  0  0  0  0  0
   -2.0447    1.8323   -0.3898 C   0  0  0  0  0  0  0  0  0  0  0  0
   -2.0447    3.1582    0.2737 N   0  0  0  0  0  0  0  0  0  0  0  0
   -2.0447    4.0878   -0.4740 O   0  0  0  0  0  1  0  0  0  0  0  0
   -1.1646    2.3397   -2.2948 H   0  0  0  0  0  0  0  0  0  0  0  0
   -2.0447    0.8051   -2.2656 H   0  0  0  0  0  0  0  0  0  0  0  0
   -2.9248    2.3397   -2.2948 H   0  0  0  0  0  0  0  0  0  0  0  0
   -0.9992    1.2235    0.1227 H   0  0  0  0  0  0  0  0  0  0  0  0
   -2.9159    1.3250    0.0373 H   0  0  0  0  0  0  0  0  0  0  0  0
    0.0426    0.6168    0.6336 C   0  0  0  0  0  0  0  0  0  0  0  0
    0.5164   -0.4793   -0.2925 C   0  0  0  0  0  0  0  0  0  0  0  0
    1.3353   -1.3639    0.4289 O   0  0  0  0  0  0  0  0  0  0  0  0
    1.8283   -2.4254   -0.3490 C   0  0  0  0  0  0  0  0  0  0  0  0
    2.6636   -3.3409    0.5225 C   0  0  0  0  0  0  0  0  0  0  0  0
    1.8626   -4.0018    1.6364 C   0  0  0  0  0  0  0  0  0  0  0  0
   -0.5271    0.1965    1.4631 H   0  0  0  0  0  0  0  0  0  0  0  0
    0.8918    1.1653    1.0424 H   0  0  0  0  0  0  0  0  0  0  0  0
    1.0775   -0.0530   -1.1373 H   0  0  0  0  0  0  0  0  0  0  0  0
   -0.3413   -1.0230   -0.7152 H   0  0  0  0  0  0  0  0  0  0  0  0
    0.9901   -2.9863   -0.7919 H   0  0  0  0  0  0  0  0  0  0  0  0
    2.4336   -2.0325   -1.1792 H   0  0  0  0  0  0  0  0  0  0  0  0
    3.4873   -2.7605    0.9461 H   0  0  0  0  0  0  0  0  0  0  0  0
    3.1111   -4.1025   -0.1220 H   0  0  0  0  0  0  0  0  0  0  0  0
    1.0492   -4.6054    1.2260 H   0  0  0  0  0  0  0  0  0  0  0  0
    1.4239   -3.2514    2.2941 H   0  0  0  0  0  0  0  0  0  0  0  0
    2.4940   -4.6565    2.2388 H   0  0  0  0  0  0  0  0  0  0  0  0
  1  2  1  0
  1  5  1  0
  1  6  1  0
  1  7  1  0
  2  3  2  3
  2  9  1  0
  3  4  1  0
  8 10  1  0
 10 11  1  0
 10 16  1  0
 10 17  1  0
 11 12  1  0
 11 18  1  0
 11 19  1  0
 12 13  1  0
 13 14  1  0
 13 20  1  0
 13 21  1  0
 14 15  1  0
 14 22  1  0
 14 23  1  0
 15 24  1  0
 15 25  1  0
 15 26  1  0
M  RAD  1   4   2
M  END
>  <reaction>  (13) 
rmg_rxn_157

>  <mol_properties>  (13) 
{"1": {"label": "*1", "atom_type": "Cs"}, "2": {"label": "*0", "atom_type": "N3d"}, "7": {"label": "*2", "atom_type": "H0"}, "9": {"label": "*3", "atom_type": "Cs"}, "10": {"label": "*4", "atom_type": "Cs"}}

>  <type>  (13) 
unop_9

>  <geom_source>  (13) 
Heuristics

$$$$

     RDKit          3D

 26 24  0  0  0  0  0  0  0  0999 V2000
   -2.8679    0.0795   -2.3571 C   0  0  0  0  0  0  0  0  0  0  0  0
   -2.8679    0.0795   -0.8466 C   0  0  0  0  0  0  0  0  0  0  0  0
   -2.8679    1.4055   -0.1830 N   0  0  0  0  0  0  0  0  0  0  0  0
   -2.8679    2.3351   -0.9307 O   0  0  0  0  0  1  0  0  0  0  0  0
   -1.9878    0.5869   -2.7515 H   0  0  0  0  0  0  0  0  0  0  0  0
   -2.8679   -0.9476   -2.7223 H   0  0  0  0  0  0  0  0  0  0  0  0
   -3.7481    0.5869   -2.7515 H   0  0  0  0  0  0  0  0  0  0  0  0
   -1.8225   -0.5292   -0.3340 H   0  0  0  0  0  0  0  0  0  0  0  0
   -3.7391   -0.4278   -0.4194 H   0  0  0  0  0  0  0  0  0  0  0  0
   -0.7807   -1.1359    0.1768 C   0  0  0  0  0  0  0  0  0  0  0  0
    0.4927   -0.4568   -0.2715 C   0  0  0  0  0  0  0  0  0  0  0  0
    1.4557   -0.5765    0.7443 O   0  0  0  0  0  0  0  0  0  0  0  0
    2.6833    0.0263    0.4208 C   0  0  0  0  0  0  0  0  0  0  0  0
    3.6630   -0.1892    1.5562 C   0  0  0  0  0  0  0  0  0  0  0  0
    3.9904   -1.6574    1.7938 C   0  0  0  0  0  0  0  0  0  0  0  0
   -0.6001   -2.1927    0.3770 H   0  0  0  0  0  0  0  0  0  0  0  0
   -1.1601   -0.6730    1.0884 H   0  0  0  0  0  0  0  0  0  0  0  0
    0.3060    0.6054   -0.4883 H   0  0  0  0  0  0  0  0  0  0  0  0
    0.8671   -0.9154   -1.1987 H   0  0  0  0  0  0  0  0  0  0  0  0
    3.0811   -0.4094   -0.5094 H   0  0  0  0  0  0  0  0  0  0  0  0
    2.5376    1.1017    0.2420 H   0  0  0  0  0  0  0  0  0  0  0  0
    3.2452    0.2538    2.4640 H   0  0  0  0  0  0  0  0  0  0  0  0
    4.5753    0.3668    1.3231 H   0  0  0  0  0  0  0  0  0  0  0  0
    4.4316   -2.1076    0.9010 H   0  0  0  0  0  0  0  0  0  0  0  0
    3.0896   -2.2187    2.0417 H   0  0  0  0  0  0  0  0  0  0  0  0
    4.7013   -1.7735    2.6132 H   0  0  0  0  0  0  0  0  0  0  0  0
  1  2  1  0
  1  5  1  0
  1  6  1  0
  1  7  1  0
  2  3  2  3
  2  9  1  0
  3  4  1  0
  8 10  1  0
 10 11  1  0
 10 16  1  0
 10 17  1  0
 11 12  1  0
 11 18  1  0
 11 19  1  0
 12 13  1  0
 13 14  1  0
 13 20  1  0
 13 21  1  0
 14 15  1  0
 14 22  1  0
 14 23  1  0
 15 24  1  0
 15 25  1  0
 15 26  1  0
M  RAD  1   4   2
M  END
>  <reaction>  (14) 
rmg_rxn_157

>  <mol_properties>  (14) 
{"1": {"label": "*1", "atom_type": "Cs"}, "2": {"label": "*0", "atom_type": "N3d"}, "7": {"label": "*2", "atom_type": "H0"}, "9": {"label": "*3", "atom_type": "Cs"}, "10": {"label": "*4", "atom_type": "Cs"}}

>  <type>  (14) 
unop_10

>  <geom_source>  (14) 
Heuristics

$$$$

     RDKit          3D

 26 24  0  0  0  0  0  0  0  0999 V2000
   -1.7758    0.7064   -3.5747 C   0  0  0  0  0  0  0  0  0  0  0  0
   -1.7758    0.7064   -2.0642 C   0  0  0  0  0  0  0  0  0  0  0  0
   -1.7758    2.0323   -1.4006 N   0  0  0  0  0  0  0  0  0  0  0  0
   -1.7758    2.9619   -2.1483 O   0  0  0  0  0  1  0  0  0  0  0  0
   -0.8957    1.2138   -3.9692 H   0  0  0  0  0  0  0  0  0  0  0  0
   -1.7758   -0.3208   -3.9400 H   0  0  0  0  0  0  0  0  0  0  0  0
   -2.6559    1.2138   -3.9692 H   0  0  0  0  0  0  0  0  0  0  0  0
   -0.7304    0.0976   -1.5516 H   0  0  0  0  0  0  0  0  0  0  0  0
   -2.6470    0.1991   -1.6370 H   0  0  0  0  0  0  0  0  0  0  0  0
    0.3115   -0.5091   -1.0408 C   0  0  0  0  0  0  0  0  0  0  0  0
   -0.0424   -1.1232    0.2938 C   0  0  0  0  0  0  0  0  0  0  0  0
    1.1126   -1.1781    1.0916 O   0  0  0  0  0  0  0  0  0  0  0  0
    0.8858   -1.7361    2.3612 C   0  0  0  0  0  0  0  0  0  0  0  0
    2.1753   -1.7157    3.1563 C   0  0  0  0  0  0  0  0  0  0  0  0
    2.6900   -0.3080    3.4260 C   0  0  0  0  0  0  0  0  0  0  0  0
    0.7021    0.5001   -0.9055 H   0  0  0  0  0  0  0  0  0  0  0  0
    1.0702   -1.1067   -1.5472 H   0  0  0  0  0  0  0  0  0  0  0  0
   -0.4510   -2.1351    0.1551 H   0  0  0  0  0  0  0  0  0  0  0  0
   -0.8178   -0.5274    0.7977 H   0  0  0  0  0  0  0  0  0  0  0  0
    0.1073   -1.1628    2.8890 H   0  0  0  0  0  0  0  0  0  0  0  0
    0.5183   -2.7676    2.2574 H   0  0  0  0  0  0  0  0  0  0  0  0
    2.9277   -2.2925    2.6123 H   0  0  0  0  0  0  0  0  0  0  0  0
    1.9967   -2.2383    4.1001 H   0  0  0  0  0  0  0  0  0  0  0  0
    1.9568    0.2733    3.9908 H   0  0  0  0  0  0  0  0  0  0  0  0
    2.8856    0.2173    2.4912 H   0  0  0  0  0  0  0  0  0  0  0  0
    3.6149   -0.3321    4.0041 H   0  0  0  0  0  0  0  0  0  0  0  0
  1  2  1  0
  1  5  1  0
  1  6  1  0
  1  7  1  0
  2  3  2  3
  2  9  1  0
  3  4  1  0
  8 10  1  0
 10 11  1  0
 10 16  1  0
 10 17  1  0
 11 12  1  0
 11 18  1  0
 11 19  1  0
 12 13  1  0
 13 14  1  0
 13 20  1  0
 13 21  1  0
 14 15  1  0
 14 22  1  0
 14 23  1  0
 15 24  1  0
 15 25  1  0
 15 26  1  0
M  RAD  1   4   2
M  END
>  <reaction>  (15) 
rmg_rxn_157

>  <mol_properties>  (15) 
{"1": {"label": "*1", "atom_type": "Cs"}, "2": {"label": "*0", "atom_type": "N3d"}, "7": {"label": "*2", "atom_type": "H0"}, "9": {"label": "*3", "atom_type": "Cs"}, "10": {"label": "*4", "atom_type": "Cs"}}

>  <type>  (15) 
unop_11

>  <geom_source>  (15) 
Heuristics

$$$$

     RDKit          3D

 26 24  0  0  0  0  0  0  0  0999 V2000
   -2.5867    1.2991   -1.6425 C   0  0  0  0  0  0  0  0  0  0  0  0
   -2.5867    1.2991   -0.1320 C   0  0  0  0  0  0  0  0  0  0  0  0
   -2.5867    2.6251    0.5316 N   0  0  0  0  0  0  0  0  0  0  0  0
   -2.5867    3.5547   -0.2161 O   0  0  0  0  0  1  0  0  0  0  0  0
   -1.7065    1.8065   -2.0370 H   0  0  0  0  0  0  0  0  0  0  0  0
   -2.5867    0.2720   -2.0078 H   0  0  0  0  0  0  0  0  0  0  0  0
   -3.4668    1.8065   -2.0370 H   0  0  0  0  0  0  0  0  0  0  0  0
   -1.5412    0.6904    0.3806 H   0  0  0  0  0  0  0  0  0  0  0  0
   -3.4579    0.7918    0.2952 H   0  0  0  0  0  0  0  0  0  0  0  0
   -0.4994    0.0837    0.8914 C   0  0  0  0  0  0  0  0  0  0  0  0
    0.3951   -0.4372   -0.2095 C   0  0  0  0  0  0  0  0  0  0  0  0
    1.5021   -1.0810    0.3681 O   0  0  0  0  0  0  0  0  0  0  0  0
    2.3985   -1.6040   -0.5795 C   0  0  0  0  0  0  0  0  0  0  0  0
    3.5320   -2.3089    0.1372 C   0  0  0  0  0  0  0  0  0  0  0  0
    3.0699   -3.5088    0.9532 C   0  0  0  0  0  0  0  0  0  0  0  0
   -0.8491   -0.7363    1.5197 H   0  0  0  0  0  0  0  0  0  0  0  0
    0.0411    0.7923    1.5198 H   0  0  0  0  0  0  0  0  0  0  0  0
    0.7346    0.3887   -0.8521 H   0  0  0  0  0  0  0  0  0  0  0  0
   -0.1550   -1.1413   -0.8511 H   0  0  0  0  0  0  0  0  0  0  0  0
    1.8734   -2.3099   -1.2423 H   0  0  0  0  0  0  0  0  0  0  0  0
    2.7919   -0.7938   -1.2108 H   0  0  0  0  0  0  0  0  0  0  0  0
    4.0359   -1.5865    0.7845 H   0  0  0  0  0  0  0  0  0  0  0  0
    4.2611   -2.6233   -0.6147 H   0  0  0  0  0  0  0  0  0  0  0  0
    2.5849   -4.2511    0.3142 H   0  0  0  0  0  0  0  0  0  0  0  0
    2.3535   -3.2042    1.7160 H   0  0  0  0  0  0  0  0  0  0  0  0
    3.9117   -3.9937    1.4497 H   0  0  0  0  0  0  0  0  0  0  0  0
  1  2  1  0
  1  5  1  0
  1  6  1  0
  1  7  1  0
  2  3  2  3
  2  9  1  0
  3  4  1  0
  8 10  1  0
 10 11  1  0
 10 16  1  0
 10 17  1  0
 11 12  1  0
 11 18  1  0
 11 19  1  0
 12 13  1  0
 13 14  1  0
 13 20  1  0
 13 21  1  0
 14 15  1  0
 14 22  1  0
 14 23  1  0
 15 24  1  0
 15 25  1  0
 15 26  1  0
M  RAD  1   4   2
M  END
>  <reaction>  (16) 
rmg_rxn_157

>  <mol_properties>  (16) 
{"1": {"label": "*1", "atom_type": "Cs"}, "2": {"label": "*0", "atom_type": "N3d"}, "7": {"label": "*2", "atom_type": "H0"}, "9": {"label": "*3", "atom_type": "Cs"}, "10": {"label": "*4", "atom_type": "Cs"}}

>  <type>  (16) 
unop_12

>  <geom_source>  (16) 
Heuristics

$$$$

     RDKit          3D

 26 24  0  0  0  0  0  0  0  0999 V2000
    0.7194   -0.2661   -0.2840 O   0  0  0  0  0  0  0  0  0  0  0  0
   -4.2677    1.5394    1.2022 O   0  0  0  0  0  1  0  0  0  0  0  0
   -3.9713    0.4143    1.4678 N   0  0  0  0  0  0  0  0  0  0  0  0
    3.0227    0.1944   -0.8513 C   0  0  0  0  0  0  0  0  0  0  0  0
    2.0478   -0.7204   -0.1039 C   0  0  0  0  0  0  0  0  0  0  0  0
    0.3117    0.5221    0.8146 C   0  0  0  0  0  0  0  0  0  0  0  0
    4.4563   -0.3175   -0.7448 C   0  0  0  0  0  0  0  0  0  0  0  0
   -1.0600    1.1088    0.5243 C   0  0  0  0  0  0  0  0  0  0  0  0
   -4.0416   -0.7529   -0.6708 C   0  0  0  0  0  0  0  0  0  0  0  0
   -3.2009   -0.3754    0.5416 C   0  0  0  0  0  0  0  0  0  0  0  0
    2.7337    0.2445   -1.9236 H   0  0  0  0  0  0  0  0  0  0  0  0
    2.9748    1.2205   -0.4285 H   0  0  0  0  0  0  0  0  0  0  0  0
    0.2355   -0.1042    1.7318 H   0  0  0  0  0  0  0  0  0  0  0  0
    1.0202    1.3623    0.9949 H   0  0  0  0  0  0  0  0  0  0  0  0
    2.1161   -1.7407   -0.5383 H   0  0  0  0  0  0  0  0  0  0  0  0
    2.3463   -0.8140    0.9682 H   0  0  0  0  0  0  0  0  0  0  0  0
   -1.0147    1.7512   -0.3807 H   0  0  0  0  0  0  0  0  0  0  0  0
   -1.3971    1.7225    1.3862 H   0  0  0  0  0  0  0  0  0  0  0  0
   -1.8941    0.1752    0.3314 H   0  0  0  0  0  0  0  0  0  0  0  0
    5.1366    0.3653   -1.2960 H   0  0  0  0  0  0  0  0  0  0  0  0
    4.5377   -1.3332   -1.1874 H   0  0  0  0  0  0  0  0  0  0  0  0
    4.7748   -0.3538    0.3189 H   0  0  0  0  0  0  0  0  0  0  0  0
   -3.4340   -1.3742   -1.3612 H   0  0  0  0  0  0  0  0  0  0  0  0
   -4.3669    0.1622   -1.2089 H   0  0  0  0  0  0  0  0  0  0  0  0
   -4.9345   -1.3324   -0.3535 H   0  0  0  0  0  0  0  0  0  0  0  0
   -2.8508   -1.2979    1.0510 H   0  0  0  0  0  0  0  0  0  0  0  0
  1  6  1  0
  1  5  1  0
  2  3  1  0
  3 10  2  3
  4  7  1  0
  4  5  1  0
  4 11  1  0
  4 12  1  0
  5 15  1  0
  5 16  1  0
  6  8  1  0
  6 13  1  0
  6 14  1  0
  7 20  1  0
  7 21  1  0
  7 22  1  0
  8 17  1  0
  8 18  1  0
  8 19  1  0
  9 10  1  0
  9 23  1  0
  9 24  1  0
  9 25  1  0
 10 26  1  0
M  RAD  1   2   2
M  END
>  <reaction>  (17) 
rmg_rxn_157

>  <mol_properties>  (17) 
{"1": {"label": "*1", "atom_type": "Cs"}, "2": {"label": "*0", "atom_type": "N3d"}, "7": {"label": "*2", "atom_type": "H0"}, "9": {"label": "*3", "atom_type": "Cs"}, "10": {"label": "*4", "atom_type": "Cs"}}

>  <type>  (17) 
unop_13

>  <geom_source>  (17) 
AutoTST

$$$$

     RDKit          3D

 26 24  0  0  0  0  0  0  0  0999 V2000
   -2.8996    0.5933   -1.8347 C   0  0  0  0  0  0  0  0  0  0  0  0
   -2.8996    0.5933   -0.3242 C   0  0  0  0  0  0  0  0  0  0  0  0
   -2.8996    1.9193    0.3394 N   0  0  0  0  0  0  0  0  0  0  0  0
   -2.8996    2.8488   -0.4083 O   0  0  0  0  0  1  0  0  0  0  0  0
   -2.0195    1.1007   -2.2291 H   0  0  0  0  0  0  0  0  0  0  0  0
   -2.8996   -0.4339   -2.1999 H   0  0  0  0  0  0  0  0  0  0  0  0
   -3.7797    1.1007   -2.2291 H   0  0  0  0  0  0  0  0  0  0  0  0
   -1.8541   -0.0155    0.1884 H   0  0  0  0  0  0  0  0  0  0  0  0
   -3.7708    0.0860    0.1030 H   0  0  0  0  0  0  0  0  0  0  0  0
   -0.8123   -0.6222    0.6992 C   0  0  0  0  0  0  0  0  0  0  0  0
    0.3749   -0.4933   -0.2268 C   0  0  0  0  0  0  0  0  0  0  0  0
    1.5485   -0.7674    0.4949 O   0  0  0  0  0  0  0  0  0  0  0  0
    2.7149   -0.6741   -0.2834 C   0  0  0  0  0  0  0  0  0  0  0  0
    3.9171   -1.0237    0.5697 C   0  0  0  0  0  0  0  0  0  0  0  0
    3.8923   -2.4584    1.0797 C   0  0  0  0  0  0  0  0  0  0  0  0
   -0.8703   -1.6316    1.1080 H   0  0  0  0  0  0  0  0  0  0  0  0
   -0.7279    0.0806    1.5288 H   0  0  0  0  0  0  0  0  0  0  0  0
    0.4234    0.5207   -0.6509 H   0  0  0  0  0  0  0  0  0  0  0  0
    0.2819   -1.1928   -1.0707 H   0  0  0  0  0  0  0  0  0  0  0  0
    2.6483   -1.3607   -1.1422 H   0  0  0  0  0  0  0  0  0  0  0  0
    2.8165    0.3443   -0.6863 H   0  0  0  0  0  0  0  0  0  0  0  0
    3.9602   -0.3271    1.4109 H   0  0  0  0  0  0  0  0  0  0  0  0
    4.8157   -0.8528   -0.0296 H   0  0  0  0  0  0  0  0  0  0  0  0
    3.8733   -3.1673    0.2481 H   0  0  0  0  0  0  0  0  0  0  0  0
    3.0075   -2.6356    1.6911 H   0  0  0  0  0  0  0  0  0  0  0  0
    4.7741   -2.6755    1.6844 H   0  0  0  0  0  0  0  0  0  0  0  0
  1  2  1  0
  1  5  1  0
  1  6  1  0
  1  7  1  0
  2  3  2  3
  2  9  1  0
  3  4  1  0
  8 10  1  0
 10 11  1  0
 10 16  1  0
 10 17  1  0
 11 12  1  0
 11 18  1  0
 11 19  1  0
 12 13  1  0
 13 14  1  0
 13 20  1  0
 13 21  1  0
 14 15  1  0
 14 22  1  0
 14 23  1  0
 15 24  1  0
 15 25  1  0
 15 26  1  0
M  RAD  1   4   2
M  END
>  <reaction>  (18) 
rmg_rxn_157

>  <mol_properties>  (18) 
{"1": {"label": "*1", "atom_type": "Cs"}, "2": {"label": "*0", "atom_type": "N3d"}, "7": {"label": "*2", "atom_type": "H0"}, "9": {"label": "*3", "atom_type": "Cs"}, "10": {"label": "*4", "atom_type": "Cs"}}

>  <type>  (18) 
unop_14

>  <geom_source>  (18) 
gaussian_log

$$$$
