
     RDKit          3D

  9  8  0  0  0  0  0  0  0  0999 V2000
   -1.0434   -0.0834    0.0221 C   0  0  0  0  0  0  0  0  0  0  0  0
    0.4680   -0.2131    0.0785 C   0  0  0  0  0  0  0  0  0  0  0  0
    0.9450   -1.3136   -0.7058 N   0  0  0  0  0  2  0  0  0  0  0  0
   -1.5170   -0.9919    0.3960 H   0  0  0  0  0  0  0  0  0  0  0  0
   -1.3864    0.7592    0.6249 H   0  0  0  0  0  0  0  0  0  0  0  0
   -1.3736    0.0696   -1.0061 H   0  0  0  0  0  0  0  0  0  0  0  0
    0.8045   -0.3309    1.1214 H   0  0  0  0  0  0  0  0  0  0  0  0
    0.9463    0.7186   -0.2648 H   0  0  0  0  0  0  0  0  0  0  0  0
    1.9638   -1.3321   -0.6157 H   0  0  0  0  0  0  0  0  0  0  0  0
  1  2  1  0
  1  4  1  0
  1  5  1  0
  1  6  1  0
  2  3  1  0
  2  7  1  0
  2  8  1  0
  3  9  1  0
M  RAD  1   3   2
M  END
>  <reaction>  (1) 
rmg_rxn_171

>  <mol_properties>  (1) 
{"2": {"label": "donator", "atom_type": "N3s"}, "8": {"label": "d_hydrogen", "atom_type": "H0"}}

>  <type>  (1) 
r1h

$$$$

     RDKit          3D

  8  7  0  0  0  0  0  0  0  0999 V2000
   -1.0336    0.3440   -0.0356 C   0  0  0  0  0  3  0  0  0  0  0  0
    0.1991   -0.4326   -0.0698 C   0  0  0  0  0  0  0  0  0  0  0  0
    0.9631   -0.0368    1.2269 N   0  0  0  0  0  0  0  0  0  0  0  0
    0.8138   -0.8074    2.1160 O   0  0  0  0  0  0  0  0  0  0  0  0
   -1.0668    1.3490   -0.4321 H   0  0  0  0  0  0  0  0  0  0  0  0
   -1.8598    0.0102    0.5774 H   0  0  0  0  0  0  0  0  0  0  0  0
    0.0447   -1.5108   -0.0264 H   0  0  0  0  0  0  0  0  0  0  0  0
    0.8639   -0.1518   -0.8851 H   0  0  0  0  0  0  0  0  0  0  0  0
  1  2  1  0
  1  5  1  0
  1  6  1  0
  2  3  1  0
  2  7  1  0
  2  8  1  0
  3  4  2  0
M  RAD  1   1   2
M  END
>  <reaction>  (2) 
rmg_rxn_171

>  <mol_properties>  (2) 
{"0": {"label": "acceptor", "atom_type": "Cs"}}

>  <type>  (2) 
r2

$$$$

     RDKit          3D

  9  8  0  0  0  0  0  0  0  0999 V2000
   -1.0314    0.2323   -0.1227 C   0  0  0  0  0  0  0  0  0  0  0  0
    0.3094   -0.4511    0.0063 C   0  0  0  0  0  0  0  0  0  0  0  0
    0.3197   -1.7698    0.6841 N   0  0  0  0  0  0  0  0  0  0  0  0
   -0.7498   -2.1455    1.0557 O   0  0  0  0  0  0  0  0  0  0  0  0
   -1.4744    0.4198    0.8552 H   0  0  0  0  0  0  0  0  0  0  0  0
   -0.9073    1.1865   -0.6350 H   0  0  0  0  0  0  0  0  0  0  0  0
   -1.7319   -0.3778   -0.6927 H   0  0  0  0  0  0  0  0  0  0  0  0
    1.0375    0.1401    0.5713 H   0  0  0  0  0  0  0  0  0  0  0  0
    0.7826   -0.6494   -0.9609 H   0  0  0  0  0  0  0  0  0  0  0  0
  1  2  1  0
  1  5  1  0
  1  6  1  0
  1  7  1  0
  2  3  1  0
  2  8  1  0
  2  9  1  0
  3  4  2  0
M  END
>  <reaction>  (3) 
rmg_rxn_171

>  <mol_properties>  (3) 
{"0": {"label": "acceptor", "atom_type": "Cs"}, "8": {"label": "a_hydrogen", "atom_type": "H0"}}

>  <type>  (3) 
r2h

$$$$

     RDKit          3D

 17 15  0  0  0  0  0  0  0  0999 V2000
   -0.8538   -0.5810    0.8944 C   0  0  0  0  0  3  0  0  0  0  0  0
   -0.8160    0.8454    1.3210 C   0  0  0  0  0  0  0  0  0  0  0  0
    0.4688    1.5677    1.1508 N   0  0  0  0  0  0  0  0  0  0  0  0
    1.3608    0.9061    0.7154 O   0  0  0  0  0  0  0  0  0  0  0  0
    0.0072   -1.1849    1.1635 H   0  0  0  0  0  0  0  0  0  0  0  0
   -1.8094   -1.0736    1.0468 H   0  0  0  0  0  0  0  0  0  0  0  0
   -1.5467    1.4675    0.7932 H   0  0  0  0  0  0  0  0  0  0  0  0
   -1.0425    0.9822    2.3880 H   0  0  0  0  0  0  0  0  0  0  0  0
    0.8832   -1.2363   -3.4623 C   0  0  0  0  0  0  0  0  0  0  0  0
    0.5426   -1.2275   -1.9793 C   0  0  0  0  0  0  0  0  0  0  0  0
   -0.6438   -0.4796   -1.7111 N   0  0  0  0  0  2  0  0  0  0  0  0
    1.0440   -0.2198   -3.8226 H   0  0  0  0  0  0  0  0  0  0  0  0
    1.7911   -1.8140   -3.6434 H   0  0  0  0  0  0  0  0  0  0  0  0
    0.0711   -1.6775   -4.0411 H   0  0  0  0  0  0  0  0  0  0  0  0
    1.3729   -0.8107   -1.3897 H   0  0  0  0  0  0  0  0  0  0  0  0
    0.4143   -2.2568   -1.6076 H   0  0  0  0  0  0  0  0  0  0  0  0
   -0.7930   -0.5264   -0.5499 H   0  0  0  0  0  0  0  0  0  0  0  0
  1  2  1  0
  1  5  1  0
  1  6  1  0
  2  3  1  0
  2  7  1  0
  2  8  1  0
  3  4  2  0
  9 10  1  0
  9 12  1  0
  9 13  1  0
  9 14  1  0
 10 11  1  0
 10 15  1  0
 10 16  1  0
 11 17  1  0
M  RAD  2   1   2  11   2
M  END
>  <reaction>  (4) 
rmg_rxn_171

>  <mol_properties>  (4) 
{"0": {"label": "*3", "atom_type": "Cs"}, "1": {"label": "*4", "atom_type": "Cs"}, "9": {"label": "*0", "atom_type": "Cs"}, "10": {"label": "*1", "atom_type": "N3s"}, "16": {"label": "*2", "atom_type": "H0"}}

>  <type>  (4) 
ts

$$$$

     RDKit          3D

 17 15  0  0  0  0  0  0  0  0999 V2000
   -0.3061   -0.2139    0.7777 C   0  0  0  0  0  3  0  0  0  0  0  0
    0.9264    0.4525    1.3420 C   0  0  0  0  0  0  0  0  0  0  0  0
    0.7511    1.2136    2.6023 N   0  0  0  0  0  0  0  0  0  0  0  0
   -0.3615    1.2121    3.0327 O   0  0  0  0  0  0  0  0  0  0  0  0
   -0.7219   -0.9348    1.4813 H   0  0  0  0  0  0  0  0  0  0  0  0
   -1.0826    0.5174    0.5541 H   0  0  0  0  0  0  0  0  0  0  0  0
    1.7277   -0.2570    1.5731 H   0  0  0  0  0  0  0  0  0  0  0  0
    1.3707    1.1805    0.6553 H   0  0  0  0  0  0  0  0  0  0  0  0
   -0.3061   -1.3275   -3.8068 C   0  0  0  0  0  0  0  0  0  0  0  0
   -0.3061   -1.3275   -2.2889 C   0  0  0  0  0  0  0  0  0  0  0  0
   -0.3061    0.0000   -1.7491 N   0  0  0  0  0  2  0  0  0  0  0  0
    0.5761   -0.8111   -4.1869 H   0  0  0  0  0  0  0  0  0  0  0  0
   -0.3061   -2.3464   -4.1979 H   0  0  0  0  0  0  0  0  0  0  0  0
   -1.1883   -0.8111   -4.1869 H   0  0  0  0  0  0  0  0  0  0  0  0
    0.5661   -1.8812   -1.9049 H   0  0  0  0  0  0  0  0  0  0  0  0
   -1.1783   -1.8812   -1.9049 H   0  0  0  0  0  0  0  0  0  0  0  0
   -0.3061   -0.1035   -0.5259 H   0  0  0  0  0  0  0  0  0  0  0  0
  1  2  1  0
  1  5  1  0
  1  6  1  0
  2  3  1  0
  2  7  1  0
  2  8  1  0
  3  4  2  0
  9 10  1  0
  9 12  1  0
  9 13  1  0
  9 14  1  0
 10 11  1  0
 10 15  1  0
 10 16  1  0
 11 17  1  0
M  RAD  2   1   2  11   2
M  END
>  <reaction>  (5) 
rmg_rxn_171

>  <mol_properties>  (5) 
{"0": {"label": "*3", "atom_type": "Cs"}, "1": {"label": "*4", "atom_type": "Cs"}, "9": {"label": "*0", "atom_type": "Cs"}, "10": {"label": "*1", "atom_type": "N3s"}, "16": {"label": "*2", "atom_type": "H0"}}

>  <type>  (5) 
unop_1

>  <geom_source>  (5) 
Heuristics

$$$$

     RDKit          3D

 17 15  0  0  0  0  0  0  0  0999 V2000
   -0.4032    0.7213    0.7686 C   0  0  0  0  0  3  0  0  0  0  0  0
    0.3084   -0.5495    1.1690 C   0  0  0  0  0  0  0  0  0  0  0  0
    0.7682   -0.6375    2.5759 N   0  0  0  0  0  0  0  0  0  0  0  0
    0.5191    0.3212    3.2407 O   0  0  0  0  0  0  0  0  0  0  0  0
   -1.3029    0.8741    1.3643 H   0  0  0  0  0  0  0  0  0  0  0  0
    0.2374    1.5922    0.9059 H   0  0  0  0  0  0  0  0  0  0  0  0
   -0.3091   -1.4442    1.0381 H   0  0  0  0  0  0  0  0  0  0  0  0
    1.2157   -0.7334    0.5843 H   0  0  0  0  0  0  0  0  0  0  0  0
   -0.4032   -0.3924   -3.8159 C   0  0  0  0  0  0  0  0  0  0  0  0
   -0.4032   -0.3924   -2.2979 C   0  0  0  0  0  0  0  0  0  0  0  0
   -0.4032    0.9352   -1.7581 N   0  0  0  0  0  2  0  0  0  0  0  0
    0.4790    0.1241   -4.1959 H   0  0  0  0  0  0  0  0  0  0  0  0
   -0.4032   -1.4113   -4.2069 H   0  0  0  0  0  0  0  0  0  0  0  0
   -1.2854    0.1241   -4.1959 H   0  0  0  0  0  0  0  0  0  0  0  0
    0.4690   -0.9461   -1.9140 H   0  0  0  0  0  0  0  0  0  0  0  0
   -1.2754   -0.9461   -1.9140 H   0  0  0  0  0  0  0  0  0  0  0  0
   -0.4032    0.8316   -0.5349 H   0  0  0  0  0  0  0  0  0  0  0  0
  1  2  1  0
  1  5  1  0
  1  6  1  0
  2  3  1  0
  2  7  1  0
  2  8  1  0
  3  4  2  0
  9 10  1  0
  9 12  1  0
  9 13  1  0
  9 14  1  0
 10 11  1  0
 10 15  1  0
 10 16  1  0
 11 17  1  0
M  RAD  2   1   2  11   2
M  END
>  <reaction>  (6) 
rmg_rxn_171

>  <mol_properties>  (6) 
{"0": {"label": "*3", "atom_type": "Cs"}, "1": {"label": "*4", "atom_type": "Cs"}, "9": {"label": "*0", "atom_type": "Cs"}, "10": {"label": "*1", "atom_type": "N3s"}, "16": {"label": "*2", "atom_type": "H0"}}

>  <type>  (6) 
unop_2

>  <geom_source>  (6) 
Heuristics

$$$$

     RDKit          3D

 17 15  0  0  0  0  0  0  0  0999 V2000
   -0.0473   -0.2262    0.7222 C   0  0  0  0  0  3  0  0  0  0  0  0
    0.6643    0.9592    1.3304 C   0  0  0  0  0  0  0  0  0  0  0  0
    0.2425    1.3578    2.6949 N   0  0  0  0  0  0  0  0  0  0  0  0
   -0.6246    0.6854    3.1630 O   0  0  0  0  0  0  0  0  0  0  0  0
    0.0901   -1.1220    1.3276 H   0  0  0  0  0  0  0  0  0  0  0  0
   -1.1184   -0.0432    0.6388 H   0  0  0  0  0  0  0  0  0  0  0  0
    1.7446    0.8072    1.4235 H   0  0  0  0  0  0  0  0  0  0  0  0
    0.5484    1.8751    0.7418 H   0  0  0  0  0  0  0  0  0  0  0  0
   -0.0473   -1.3399   -3.8623 C   0  0  0  0  0  0  0  0  0  0  0  0
   -0.0473   -1.3399   -2.3443 C   0  0  0  0  0  0  0  0  0  0  0  0
   -0.0473   -0.0124   -1.8046 N   0  0  0  0  0  2  0  0  0  0  0  0
    0.8349   -0.8235   -4.2424 H   0  0  0  0  0  0  0  0  0  0  0  0
   -0.0473   -2.3588   -4.2534 H   0  0  0  0  0  0  0  0  0  0  0  0
   -0.9295   -0.8235   -4.2424 H   0  0  0  0  0  0  0  0  0  0  0  0
    0.8249   -1.8936   -1.9604 H   0  0  0  0  0  0  0  0  0  0  0  0
   -0.9195   -1.8936   -1.9604 H   0  0  0  0  0  0  0  0  0  0  0  0
   -0.0473   -0.1159   -0.5813 H   0  0  0  0  0  0  0  0  0  0  0  0
  1  2  1  0
  1  5  1  0
  1  6  1  0
  2  3  1  0
  2  7  1  0
  2  8  1  0
  3  4  2  0
  9 10  1  0
  9 12  1  0
  9 13  1  0
  9 14  1  0
 10 11  1  0
 10 15  1  0
 10 16  1  0
 11 17  1  0
M  RAD  2   1   2  11   2
M  END
>  <reaction>  (7) 
rmg_rxn_171

>  <mol_properties>  (7) 
{"0": {"label": "*3", "atom_type": "Cs"}, "1": {"label": "*4", "atom_type": "Cs"}, "9": {"label": "*0", "atom_type": "Cs"}, "10": {"label": "*1", "atom_type": "N3s"}, "16": {"label": "*2", "atom_type": "H0"}}

>  <type>  (7) 
unop_3

>  <geom_source>  (7) 
Heuristics

$$$$

     RDKit          3D

 17 15  0  0  0  0  0  0  0  0999 V2000
    0.6042    0.3776    0.7900 C   0  0  0  0  0  3  0  0  0  0  0  0
   -0.6283   -0.3742    1.2343 C   0  0  0  0  0  0  0  0  0  0  0  0
   -1.1913   -0.0039    2.5550 N   0  0  0  0  0  0  0  0  0  0  0  0
   -0.5963    0.8593    3.1242 O   0  0  0  0  0  0  0  0  0  0  0  0
    0.4092    1.4474    0.7181 H   0  0  0  0  0  0  0  0  0  0  0  0
    1.4264    0.2365    1.4912 H   0  0  0  0  0  0  0  0  0  0  0  0
   -1.4721   -0.2555    0.5466 H   0  0  0  0  0  0  0  0  0  0  0  0
   -0.4652   -1.4541    1.3119 H   0  0  0  0  0  0  0  0  0  0  0  0
    0.6042   -0.7361   -3.7945 C   0  0  0  0  0  0  0  0  0  0  0  0
    0.6042   -0.7361   -2.2766 C   0  0  0  0  0  0  0  0  0  0  0  0
    0.6042    0.5914   -1.7368 N   0  0  0  0  0  2  0  0  0  0  0  0
    1.4864   -0.2197   -4.1746 H   0  0  0  0  0  0  0  0  0  0  0  0
    0.6042   -1.7550   -4.1856 H   0  0  0  0  0  0  0  0  0  0  0  0
   -0.2781   -0.2197   -4.1746 H   0  0  0  0  0  0  0  0  0  0  0  0
    1.4764   -1.2898   -1.8926 H   0  0  0  0  0  0  0  0  0  0  0  0
   -0.2681   -1.2898   -1.8926 H   0  0  0  0  0  0  0  0  0  0  0  0
    0.6042    0.4879   -0.5136 H   0  0  0  0  0  0  0  0  0  0  0  0
  1  2  1  0
  1  5  1  0
  1  6  1  0
  2  3  1  0
  2  7  1  0
  2  8  1  0
  3  4  2  0
  9 10  1  0
  9 12  1  0
  9 13  1  0
  9 14  1  0
 10 11  1  0
 10 15  1  0
 10 16  1  0
 11 17  1  0
M  RAD  2   1   2  11   2
M  END
>  <reaction>  (8) 
rmg_rxn_171

>  <mol_properties>  (8) 
{"0": {"label": "*3", "atom_type": "Cs"}, "1": {"label": "*4", "atom_type": "Cs"}, "9": {"label": "*0", "atom_type": "Cs"}, "10": {"label": "*1", "atom_type": "N3s"}, "16": {"label": "*2", "atom_type": "H0"}}

>  <type>  (8) 
unop_4

>  <geom_source>  (8) 
Heuristics

$$$$

     RDKit          3D

 17 15  0  0  0  0  0  0  0  0999 V2000
    0.0000   -0.1461    0.6699 C   0  0  0  0  0  3  0  0  0  0  0  0
    0.0000    1.2293    1.2943 C   0  0  0  0  0  0  0  0  0  0  0  0
    0.0000    1.2855    2.7759 N   0  0  0  0  0  0  0  0  0  0  0  0
    0.0000    0.2205    3.3133 O   0  0  0  0  0  0  0  0  0  0  0  0
    0.8801   -0.7150    0.9689 H   0  0  0  0  0  0  0  0  0  0  0  0
   -0.8801   -0.7150    0.9689 H   0  0  0  0  0  0  0  0  0  0  0  0
    0.8712    1.8280    1.0089 H   0  0  0  0  0  0  0  0  0  0  0  0
   -0.8712    1.8280    1.0089 H   0  0  0  0  0  0  0  0  0  0  0  0
   -0.0000   -1.2598   -3.9145 C   0  0  0  0  0  0  0  0  0  0  0  0
   -0.0000   -1.2598   -2.3966 C   0  0  0  0  0  0  0  0  0  0  0  0
   -0.0000    0.0678   -1.8568 N   0  0  0  0  0  2  0  0  0  0  0  0
    0.8822   -0.7433   -4.2946 H   0  0  0  0  0  0  0  0  0  0  0  0
   -0.0000   -2.2786   -4.3056 H   0  0  0  0  0  0  0  0  0  0  0  0
   -0.8822   -0.7433   -4.2946 H   0  0  0  0  0  0  0  0  0  0  0  0
    0.8722   -1.8135   -2.0126 H   0  0  0  0  0  0  0  0  0  0  0  0
   -0.8722   -1.8135   -2.0126 H   0  0  0  0  0  0  0  0  0  0  0  0
   -0.0000   -0.0357   -0.6336 H   0  0  0  0  0  0  0  0  0  0  0  0
  1  2  1  0
  1  5  1  0
  1  6  1  0
  2  3  1  0
  2  7  1  0
  2  8  1  0
  3  4  2  0
  9 10  1  0
  9 12  1  0
  9 13  1  0
  9 14  1  0
 10 11  1  0
 10 15  1  0
 10 16  1  0
 11 17  1  0
M  RAD  2   1   2  11   2
M  END
>  <reaction>  (9) 
rmg_rxn_171

>  <mol_properties>  (9) 
{"0": {"label": "*3", "atom_type": "Cs"}, "1": {"label": "*4", "atom_type": "Cs"}, "9": {"label": "*0", "atom_type": "Cs"}, "10": {"label": "*1", "atom_type": "N3s"}, "16": {"label": "*2", "atom_type": "H0"}}

>  <type>  (9) 
unop_5

>  <geom_source>  (9) 
Heuristics

$$$$

     RDKit          3D

 17 15  0  0  0  0  0  0  0  0999 V2000
    0.5483    0.0148    0.7967 C   0  0  0  0  0  3  0  0  0  0  0  0
   -0.8749   -0.0279    1.3010 C   0  0  0  0  0  0  0  0  0  0  0  0
   -1.1551    0.7039    2.5597 N   0  0  0  0  0  0  0  0  0  0  0  0
   -0.2087    1.2513    3.0372 O   0  0  0  0  0  0  0  0  0  0  0  0
    0.8662    1.0382    0.5989 H   0  0  0  0  0  0  0  0  0  0  0  0
    1.2378   -0.4120    1.5248 H   0  0  0  0  0  0  0  0  0  0  0  0
   -1.5933    0.3906    0.5885 H   0  0  0  0  0  0  0  0  0  0  0  0
   -1.2254   -1.0449    1.5050 H   0  0  0  0  0  0  0  0  0  0  0  0
    0.5483   -1.0989   -3.7878 C   0  0  0  0  0  0  0  0  0  0  0  0
    0.5483   -1.0989   -2.2699 C   0  0  0  0  0  0  0  0  0  0  0  0
    0.5483    0.2286   -1.7301 N   0  0  0  0  0  2  0  0  0  0  0  0
    1.4305   -0.5824   -4.1679 H   0  0  0  0  0  0  0  0  0  0  0  0
    0.5483   -2.1178   -4.1789 H   0  0  0  0  0  0  0  0  0  0  0  0
   -0.3339   -0.5824   -4.1679 H   0  0  0  0  0  0  0  0  0  0  0  0
    1.4205   -1.6526   -1.8859 H   0  0  0  0  0  0  0  0  0  0  0  0
   -0.3239   -1.6526   -1.8859 H   0  0  0  0  0  0  0  0  0  0  0  0
    0.5483    0.1251   -0.5069 H   0  0  0  0  0  0  0  0  0  0  0  0
  1  2  1  0
  1  5  1  0
  1  6  1  0
  2  3  1  0
  2  7  1  0
  2  8  1  0
  3  4  2  0
  9 10  1  0
  9 12  1  0
  9 13  1  0
  9 14  1  0
 10 11  1  0
 10 15  1  0
 10 16  1  0
 11 17  1  0
M  RAD  2   1   2  11   2
M  END
>  <reaction>  (10) 
rmg_rxn_171

>  <mol_properties>  (10) 
{"0": {"label": "*3", "atom_type": "Cs"}, "1": {"label": "*4", "atom_type": "Cs"}, "9": {"label": "*0", "atom_type": "Cs"}, "10": {"label": "*1", "atom_type": "N3s"}, "16": {"label": "*2", "atom_type": "H0"}}

>  <type>  (10) 
unop_6

>  <geom_source>  (10) 
Heuristics

$$$$

     RDKit          3D

 17 15  0  0  0  0  0  0  0  0999 V2000
    0.3061   -0.2139    0.7777 C   0  0  0  0  0  3  0  0  0  0  0  0
   -0.9264    0.4525    1.3420 C   0  0  0  0  0  0  0  0  0  0  0  0
   -0.7511    1.2136    2.6023 N   0  0  0  0  0  0  0  0  0  0  0  0
    0.3615    1.2121    3.0327 O   0  0  0  0  0  0  0  0  0  0  0  0
    1.0826    0.5174    0.5541 H   0  0  0  0  0  0  0  0  0  0  0  0
    0.7219   -0.9348    1.4812 H   0  0  0  0  0  0  0  0  0  0  0  0
   -1.3707    1.1805    0.6553 H   0  0  0  0  0  0  0  0  0  0  0  0
   -1.7277   -0.2570    1.5731 H   0  0  0  0  0  0  0  0  0  0  0  0
    0.3061   -1.3275   -3.8068 C   0  0  0  0  0  0  0  0  0  0  0  0
    0.3061   -1.3275   -2.2889 C   0  0  0  0  0  0  0  0  0  0  0  0
    0.3061    0.0000   -1.7491 N   0  0  0  0  0  2  0  0  0  0  0  0
    1.1883   -0.8111   -4.1869 H   0  0  0  0  0  0  0  0  0  0  0  0
    0.3061   -2.3464   -4.1979 H   0  0  0  0  0  0  0  0  0  0  0  0
   -0.5761   -0.8111   -4.1869 H   0  0  0  0  0  0  0  0  0  0  0  0
    1.1783   -1.8812   -1.9049 H   0  0  0  0  0  0  0  0  0  0  0  0
   -0.5661   -1.8812   -1.9049 H   0  0  0  0  0  0  0  0  0  0  0  0
    0.3061   -0.1035   -0.5259 H   0  0  0  0  0  0  0  0  0  0  0  0
  1  2  1  0
  1  5  1  0
  1  6  1  0
  2  3  1  0
  2  7  1  0
  2  8  1  0
  3  4  2  0
  9 10  1  0
  9 12  1  0
  9 13  1  0
  9 14  1  0
 10 11  1  0
 10 15  1  0
 10 16  1  0
 11 17  1  0
M  RAD  2   1   2  11   2
M  END
>  <reaction>  (11) 
rmg_rxn_171

>  <mol_properties>  (11) 
{"0": {"label": "*3", "atom_type": "Cs"}, "1": {"label": "*4", "atom_type": "Cs"}, "9": {"label": "*0", "atom_type": "Cs"}, "10": {"label": "*1", "atom_type": "N3s"}, "16": {"label": "*2", "atom_type": "H0"}}

>  <type>  (11) 
unop_7

>  <geom_source>  (11) 
Heuristics

$$$$

     RDKit          3D

 17 15  0  0  0  0  0  0  0  0999 V2000
   -0.5483    0.0148    0.7967 C   0  0  0  0  0  3  0  0  0  0  0  0
    0.8749   -0.0279    1.3010 C   0  0  0  0  0  0  0  0  0  0  0  0
    1.1551    0.7039    2.5597 N   0  0  0  0  0  0  0  0  0  0  0  0
    0.2087    1.2513    3.0372 O   0  0  0  0  0  0  0  0  0  0  0  0
   -1.2378   -0.4120    1.5248 H   0  0  0  0  0  0  0  0  0  0  0  0
   -0.8662    1.0382    0.5989 H   0  0  0  0  0  0  0  0  0  0  0  0
    1.2254   -1.0449    1.5050 H   0  0  0  0  0  0  0  0  0  0  0  0
    1.5933    0.3906    0.5885 H   0  0  0  0  0  0  0  0  0  0  0  0
   -0.5483   -1.0989   -3.7878 C   0  0  0  0  0  0  0  0  0  0  0  0
   -0.5483   -1.0989   -2.2699 C   0  0  0  0  0  0  0  0  0  0  0  0
   -0.5483    0.2286   -1.7301 N   0  0  0  0  0  2  0  0  0  0  0  0
    0.3339   -0.5824   -4.1679 H   0  0  0  0  0  0  0  0  0  0  0  0
   -0.5483   -2.1178   -4.1789 H   0  0  0  0  0  0  0  0  0  0  0  0
   -1.4305   -0.5824   -4.1679 H   0  0  0  0  0  0  0  0  0  0  0  0
    0.3239   -1.6526   -1.8859 H   0  0  0  0  0  0  0  0  0  0  0  0
   -1.4205   -1.6526   -1.8859 H   0  0  0  0  0  0  0  0  0  0  0  0
   -0.5483    0.1251   -0.5069 H   0  0  0  0  0  0  0  0  0  0  0  0
  1  2  1  0
  1  5  1  0
  1  6  1  0
  2  3  1  0
  2  7  1  0
  2  8  1  0
  3  4  2  0
  9 10  1  0
  9 12  1  0
  9 13  1  0
  9 14  1  0
 10 11  1  0
 10 15  1  0
 10 16  1  0
 11 17  1  0
M  RAD  2   1   2  11   2
M  END
>  <reaction>  (12) 
rmg_rxn_171

>  <mol_properties>  (12) 
{"0": {"label": "*3", "atom_type": "Cs"}, "1": {"label": "*4", "atom_type": "Cs"}, "9": {"label": "*0", "atom_type": "Cs"}, "10": {"label": "*1", "atom_type": "N3s"}, "16": {"label": "*2", "atom_type": "H0"}}

>  <type>  (12) 
unop_8

>  <geom_source>  (12) 
Heuristics

$$$$

     RDKit          3D

 17 15  0  0  0  0  0  0  0  0999 V2000
    0.4032    0.7213    0.7686 C   0  0  0  0  0  3  0  0  0  0  0  0
   -0.3084   -0.5495    1.1690 C   0  0  0  0  0  0  0  0  0  0  0  0
   -0.7682   -0.6375    2.5759 N   0  0  0  0  0  0  0  0  0  0  0  0
   -0.5191    0.3212    3.2407 O   0  0  0  0  0  0  0  0  0  0  0  0
   -0.2374    1.5922    0.9059 H   0  0  0  0  0  0  0  0  0  0  0  0
    1.3029    0.8741    1.3643 H   0  0  0  0  0  0  0  0  0  0  0  0
   -1.2157   -0.7334    0.5843 H   0  0  0  0  0  0  0  0  0  0  0  0
    0.3091   -1.4442    1.0381 H   0  0  0  0  0  0  0  0  0  0  0  0
    0.4032   -0.3924   -3.8159 C   0  0  0  0  0  0  0  0  0  0  0  0
    0.4032   -0.3924   -2.2979 C   0  0  0  0  0  0  0  0  0  0  0  0
    0.4032    0.9352   -1.7581 N   0  0  0  0  0  2  0  0  0  0  0  0
    1.2854    0.1241   -4.1959 H   0  0  0  0  0  0  0  0  0  0  0  0
    0.4032   -1.4113   -4.2069 H   0  0  0  0  0  0  0  0  0  0  0  0
   -0.4790    0.1241   -4.1959 H   0  0  0  0  0  0  0  0  0  0  0  0
    1.2754   -0.9461   -1.9140 H   0  0  0  0  0  0  0  0  0  0  0  0
   -0.4690   -0.9461   -1.9140 H   0  0  0  0  0  0  0  0  0  0  0  0
    0.4032    0.8316   -0.5349 H   0  0  0  0  0  0  0  0  0  0  0  0
  1  2  1  0
  1  5  1  0
  1  6  1  0
  2  3  1  0
  2  7  1  0
  2  8  1  0
  3  4  2  0
  9 10  1  0
  9 12  1  0
  9 13  1  0
  9 14  1  0
 10 11  1  0
 10 15  1  0
 10 16  1  0
 11 17  1  0
M  RAD  2   1   2  11   2
M  END
>  <reaction>  (13) 
rmg_rxn_171

>  <mol_properties>  (13) 
{"0": {"label": "*3", "atom_type": "Cs"}, "1": {"label": "*4", "atom_type": "Cs"}, "9": {"label": "*0", "atom_type": "Cs"}, "10": {"label": "*1", "atom_type": "N3s"}, "16": {"label": "*2", "atom_type": "H0"}}

>  <type>  (13) 
unop_9

>  <geom_source>  (13) 
Heuristics

$$$$

     RDKit          3D

 17 15  0  0  0  0  0  0  0  0999 V2000
   -0.6042    0.3776    0.7900 C   0  0  0  0  0  3  0  0  0  0  0  0
    0.6283   -0.3742    1.2342 C   0  0  0  0  0  0  0  0  0  0  0  0
    1.1913   -0.0039    2.5550 N   0  0  0  0  0  0  0  0  0  0  0  0
    0.5963    0.8593    3.1242 O   0  0  0  0  0  0  0  0  0  0  0  0
   -1.4264    0.2365    1.4912 H   0  0  0  0  0  0  0  0  0  0  0  0
   -0.4092    1.4474    0.7181 H   0  0  0  0  0  0  0  0  0  0  0  0
    0.4652   -1.4541    1.3119 H   0  0  0  0  0  0  0  0  0  0  0  0
    1.4721   -0.2555    0.5466 H   0  0  0  0  0  0  0  0  0  0  0  0
   -0.6042   -0.7361   -3.7945 C   0  0  0  0  0  0  0  0  0  0  0  0
   -0.6042   -0.7361   -2.2766 C   0  0  0  0  0  0  0  0  0  0  0  0
   -0.6042    0.5914   -1.7368 N   0  0  0  0  0  2  0  0  0  0  0  0
    0.2781   -0.2197   -4.1746 H   0  0  0  0  0  0  0  0  0  0  0  0
   -0.6042   -1.7550   -4.1856 H   0  0  0  0  0  0  0  0  0  0  0  0
   -1.4864   -0.2197   -4.1746 H   0  0  0  0  0  0  0  0  0  0  0  0
    0.2681   -1.2898   -1.8926 H   0  0  0  0  0  0  0  0  0  0  0  0
   -1.4764   -1.2898   -1.8926 H   0  0  0  0  0  0  0  0  0  0  0  0
   -0.6042    0.4879   -0.5136 H   0  0  0  0  0  0  0  0  0  0  0  0
  1  2  1  0
  1  5  1  0
  1  6  1  0
  2  3  1  0
  2  7  1  0
  2  8  1  0
  3  4  2  0
  9 10  1  0
  9 12  1  0
  9 13  1  0
  9 14  1  0
 10 11  1  0
 10 15  1  0
 10 16  1  0
 11 17  1  0
M  RAD  2   1   2  11   2
M  END
>  <reaction>  (14) 
rmg_rxn_171

>  <mol_properties>  (14) 
{"0": {"label": "*3", "atom_type": "Cs"}, "1": {"label": "*4", "atom_type": "Cs"}, "9": {"label": "*0", "atom_type": "Cs"}, "10": {"label": "*1", "atom_type": "N3s"}, "16": {"label": "*2", "atom_type": "H0"}}

>  <type>  (14) 
unop_10

>  <geom_source>  (14) 
Heuristics

$$$$

     RDKit          3D

 17 15  0  0  0  0  0  0  0  0999 V2000
    0.0473   -0.2262    0.7222 C   0  0  0  0  0  3  0  0  0  0  0  0
   -0.6643    0.9592    1.3304 C   0  0  0  0  0  0  0  0  0  0  0  0
   -0.2425    1.3578    2.6949 N   0  0  0  0  0  0  0  0  0  0  0  0
    0.6246    0.6854    3.1630 O   0  0  0  0  0  0  0  0  0  0  0  0
    1.1184   -0.0432    0.6388 H   0  0  0  0  0  0  0  0  0  0  0  0
   -0.0901   -1.1220    1.3276 H   0  0  0  0  0  0  0  0  0  0  0  0
   -0.5484    1.8751    0.7418 H   0  0  0  0  0  0  0  0  0  0  0  0
   -1.7446    0.8072    1.4235 H   0  0  0  0  0  0  0  0  0  0  0  0
    0.0473   -1.3399   -3.8623 C   0  0  0  0  0  0  0  0  0  0  0  0
    0.0473   -1.3399   -2.3443 C   0  0  0  0  0  0  0  0  0  0  0  0
    0.0473   -0.0124   -1.8046 N   0  0  0  0  0  2  0  0  0  0  0  0
    0.9295   -0.8235   -4.2424 H   0  0  0  0  0  0  0  0  0  0  0  0
    0.0473   -2.3588   -4.2534 H   0  0  0  0  0  0  0  0  0  0  0  0
   -0.8349   -0.8234   -4.2424 H   0  0  0  0  0  0  0  0  0  0  0  0
    0.9195   -1.8936   -1.9604 H   0  0  0  0  0  0  0  0  0  0  0  0
   -0.8249   -1.8936   -1.9604 H   0  0  0  0  0  0  0  0  0  0  0  0
    0.0473   -0.1159   -0.5813 H   0  0  0  0  0  0  0  0  0  0  0  0
  1  2  1  0
  1  5  1  0
  1  6  1  0
  2  3  1  0
  2  7  1  0
  2  8  1  0
  3  4  2  0
  9 10  1  0
  9 12  1  0
  9 13  1  0
  9 14  1  0
 10 11  1  0
 10 15  1  0
 10 16  1  0
 11 17  1  0
M  RAD  2   1   2  11   2
M  END
>  <reaction>  (15) 
rmg_rxn_171

>  <mol_properties>  (15) 
{"0": {"label": "*3", "atom_type": "Cs"}, "1": {"label": "*4", "atom_type": "Cs"}, "9": {"label": "*0", "atom_type": "Cs"}, "10": {"label": "*1", "atom_type": "N3s"}, "16": {"label": "*2", "atom_type": "H0"}}

>  <type>  (15) 
unop_11

>  <geom_source>  (15) 
Heuristics

$$$$

     RDKit          3D

 17 15  0  0  0  0  0  0  0  0999 V2000
   -0.0000    0.8668    0.7557 C   0  0  0  0  0  3  0  0  0  0  0  0
    0.0000   -0.5940    1.1399 C   0  0  0  0  0  0  0  0  0  0  0  0
    0.0000   -0.8984    2.5911 N   0  0  0  0  0  0  0  0  0  0  0  0
    0.0000    0.0611    3.2998 O   0  0  0  0  0  0  0  0  0  0  0  0
   -0.8801    1.3773    1.1460 H   0  0  0  0  0  0  0  0  0  0  0  0
    0.8801    1.3773    1.1460 H   0  0  0  0  0  0  0  0  0  0  0  0
   -0.8712   -1.1362    0.7580 H   0  0  0  0  0  0  0  0  0  0  0  0
    0.8712   -1.1362    0.7580 H   0  0  0  0  0  0  0  0  0  0  0  0
   -0.0000   -0.2469   -3.8288 C   0  0  0  0  0  0  0  0  0  0  0  0
   -0.0000   -0.2469   -2.3108 C   0  0  0  0  0  0  0  0  0  0  0  0
   -0.0000    1.0806   -1.7711 N   0  0  0  0  0  2  0  0  0  0  0  0
    0.8822    0.2695   -4.2089 H   0  0  0  0  0  0  0  0  0  0  0  0
   -0.0000   -1.2658   -4.2199 H   0  0  0  0  0  0  0  0  0  0  0  0
   -0.8822    0.2695   -4.2089 H   0  0  0  0  0  0  0  0  0  0  0  0
    0.8722   -0.8006   -1.9269 H   0  0  0  0  0  0  0  0  0  0  0  0
   -0.8722   -0.8006   -1.9269 H   0  0  0  0  0  0  0  0  0  0  0  0
   -0.0000    0.9771   -0.5479 H   0  0  0  0  0  0  0  0  0  0  0  0
  1  2  1  0
  1  5  1  0
  1  6  1  0
  2  3  1  0
  2  7  1  0
  2  8  1  0
  3  4  2  0
  9 10  1  0
  9 12  1  0
  9 13  1  0
  9 14  1  0
 10 11  1  0
 10 15  1  0
 10 16  1  0
 11 17  1  0
M  RAD  2   1   2  11   2
M  END
>  <reaction>  (16) 
rmg_rxn_171

>  <mol_properties>  (16) 
{"0": {"label": "*3", "atom_type": "Cs"}, "1": {"label": "*4", "atom_type": "Cs"}, "9": {"label": "*0", "atom_type": "Cs"}, "10": {"label": "*1", "atom_type": "N3s"}, "16": {"label": "*2", "atom_type": "H0"}}

>  <type>  (16) 
unop_12

>  <geom_source>  (16) 
Heuristics

$$$$

     RDKit          3D

 17 15  0  0  0  0  0  0  0  0999 V2000
   -0.4032    0.7213    0.7686 C   0  0  0  0  0  3  0  0  0  0  0  0
    0.3084   -0.5495    1.1690 C   0  0  0  0  0  0  0  0  0  0  0  0
    0.7682   -0.6375    2.5759 N   0  0  0  0  0  0  0  0  0  0  0  0
    0.5191    0.3212    3.2407 O   0  0  0  0  0  0  0  0  0  0  0  0
   -1.3029    0.8741    1.3643 H   0  0  0  0  0  0  0  0  0  0  0  0
    0.2374    1.5922    0.9059 H   0  0  0  0  0  0  0  0  0  0  0  0
   -0.3091   -1.4442    1.0381 H   0  0  0  0  0  0  0  0  0  0  0  0
    1.2156   -0.7334    0.5843 H   0  0  0  0  0  0  0  0  0  0  0  0
   -0.4032   -0.3924   -3.8159 C   0  0  0  0  0  0  0  0  0  0  0  0
   -0.4032   -0.3924   -2.2979 C   0  0  0  0  0  0  0  0  0  0  0  0
   -0.4032    0.9352   -1.7581 N   0  0  0  0  0  2  0  0  0  0  0  0
    0.4790    0.1241   -4.1959 H   0  0  0  0  0  0  0  0  0  0  0  0
   -0.4032   -1.4113   -4.2069 H   0  0  0  0  0  0  0  0  0  0  0  0
   -1.2854    0.1241   -4.1959 H   0  0  0  0  0  0  0  0  0  0  0  0
    0.4690   -0.9461   -1.9140 H   0  0  0  0  0  0  0  0  0  0  0  0
   -1.2754   -0.9461   -1.9140 H   0  0  0  0  0  0  0  0  0  0  0  0
   -0.4032    0.8316   -0.5349 H   0  0  0  0  0  0  0  0  0  0  0  0
  1  2  1  0
  1  5  1  0
  1  6  1  0
  2  3  1  0
  2  7  1  0
  2  8  1  0
  3  4  2  0
  9 10  1  0
  9 12  1  0
  9 13  1  0
  9 14  1  0
 10 11  1  0
 10 15  1  0
 10 16  1  0
 11 17  1  0
M  RAD  2   1   2  11   2
M  END
>  <reaction>  (17) 
rmg_rxn_171

>  <mol_properties>  (17) 
{"0": {"label": "*3", "atom_type": "Cs"}, "1": {"label": "*4", "atom_type": "Cs"}, "9": {"label": "*0", "atom_type": "Cs"}, "10": {"label": "*1", "atom_type": "N3s"}, "16": {"label": "*2", "atom_type": "H0"}}

>  <type>  (17) 
unop_13

>  <geom_source>  (17) 
gaussian_log

$$$$
