
     RDKit          3D

  5  4  0  0  0  0  0  0  0  0999 V2000
   -0.4583    0.0384    0.1517 N   0  0  0  0  0  0  0  0  0  0  0  0
    0.7454   -0.3487    0.5322 N   0  0  0  0  0  0  0  0  0  0  0  0
    0.7566   -1.0388    1.5193 O   0  0  0  0  0  0  0  0  0  0  0  0
   -1.2688   -0.2521    0.6850 H   0  0  0  0  0  0  0  0  0  0  0  0
   -0.5137    0.6154   -0.6670 H   0  0  0  0  0  0  0  0  0  0  0  0
  1  2  1  0
  1  4  1  0
  1  5  1  0
  2  3  2  0
M  END
>  <reaction>  (1) 
rmg_rxn_1561

>  <mol_properties>  (1) 
{"0": {"label": "donator", "atom_type": "N3s"}, "3": {"label": "d_hydrogen", "atom_type": "H0"}}

>  <type>  (1) 
r1h

$$$$

     RDKit          3D

 13 12  0  0  0  0  0  0  0  0999 V2000
    2.2389    0.7017    0.3130 C   0  0  0  0  0  3  0  0  0  0  0  0
    0.9433    0.8223   -0.0376 O   0  0  0  0  0  0  0  0  0  0  0  0
    0.4736    2.1521   -0.1615 C   0  0  0  0  0  0  0  0  0  0  0  0
   -0.9782    2.0920   -0.5770 C   0  0  0  0  0  0  0  0  0  0  0  0
   -1.6070    3.4420   -0.7601 C   0  0  0  0  0  0  0  0  0  0  0  0
   -1.0369    4.4869   -0.6064 O   0  0  0  0  0  0  0  0  0  0  0  0
    2.5950   -0.3170    0.3352 H   0  0  0  0  0  0  0  0  0  0  0  0
    2.9060    1.5360    0.1249 H   0  0  0  0  0  0  0  0  0  0  0  0
    1.0668    2.6899   -0.9083 H   0  0  0  0  0  0  0  0  0  0  0  0
    0.5827    2.6771    0.7919 H   0  0  0  0  0  0  0  0  0  0  0  0
   -1.0904    1.5380   -1.5153 H   0  0  0  0  0  0  0  0  0  0  0  0
   -1.5701    1.5405    0.1613 H   0  0  0  0  0  0  0  0  0  0  0  0
   -2.6749    3.4222   -1.0597 H   0  0  0  0  0  0  0  0  0  0  0  0
  1  2  1  0
  1  7  1  0
  1  8  1  0
  2  3  1  0
  3  4  1  0
  3  9  1  0
  3 10  1  0
  4  5  1  0
  4 11  1  0
  4 12  1  0
  5  6  2  0
  5 13  1  0
M  RAD  1   1   2
M  END
>  <reaction>  (2) 
rmg_rxn_1561

>  <mol_properties>  (2) 
{"0": {"label": "acceptor", "atom_type": "Cs"}}

>  <type>  (2) 
r2

$$$$

     RDKit          3D

 14 13  0  0  0  0  0  0  0  0999 V2000
   -2.1430    0.4492    0.2556 C   0  0  0  0  0  0  0  0  0  0  0  0
   -0.8980   -0.1952    0.2757 O   0  0  0  0  0  0  0  0  0  0  0  0
   -0.3667   -0.3041    1.5713 C   0  0  0  0  0  0  0  0  0  0  0  0
    0.9667   -1.0099    1.4715 C   0  0  0  0  0  0  0  0  0  0  0  0
    1.6584   -1.1995    2.7884 C   0  0  0  0  0  0  0  0  0  0  0  0
    1.2262   -0.8381    3.8485 O   0  0  0  0  0  0  0  0  0  0  0  0
   -2.0716    1.4724    0.6470 H   0  0  0  0  0  0  0  0  0  0  0  0
   -2.8872   -0.0973    0.8495 H   0  0  0  0  0  0  0  0  0  0  0  0
   -2.4755    0.4883   -0.7805 H   0  0  0  0  0  0  0  0  0  0  0  0
   -0.2382    0.6884    2.0233 H   0  0  0  0  0  0  0  0  0  0  0  0
   -1.0467   -0.8675    2.2240 H   0  0  0  0  0  0  0  0  0  0  0  0
    1.6454   -0.4596    0.8107 H   0  0  0  0  0  0  0  0  0  0  0  0
    0.8471   -1.9957    1.0089 H   0  0  0  0  0  0  0  0  0  0  0  0
    2.6387   -1.7165    2.7294 H   0  0  0  0  0  0  0  0  0  0  0  0
  1  2  1  0
  1  7  1  0
  1  8  1  0
  1  9  1  0
  2  3  1  0
  3  4  1  0
  3 10  1  0
  3 11  1  0
  4  5  1  0
  4 12  1  0
  4 13  1  0
  5  6  2  0
  5 14  1  0
M  END
>  <reaction>  (3) 
rmg_rxn_1561

>  <mol_properties>  (3) 
{"0": {"label": "a_hydrogen", "atom_type": "H0"}, "1": {"label": "acceptor", "atom_type": "Cs"}}

>  <type>  (3) 
r2h

$$$$

     RDKit          3D

 18 16  0  0  0  0  0  0  0  0999 V2000
   -0.2036   -2.5163    0.9219 N   0  0  0  0  0  0  0  0  0  0  0  0
   -1.3849   -2.2458    1.3352 N   0  0  0  0  0  0  0  0  0  0  0  0
   -1.8731   -1.1672    1.0852 O   0  0  0  0  0  0  0  0  0  0  0  0
    0.2878   -1.7737   -0.0500 H   0  0  0  0  0  0  0  0  0  0  0  0
    0.0368   -3.4913    1.0590 H   0  0  0  0  0  0  0  0  0  0  0  0
    0.7379   -1.0139   -1.0443 C   0  0  0  0  0  3  0  0  0  0  0  0
    1.1256    0.1865   -0.5407 O   0  0  0  0  0  0  0  0  0  0  0  0
    0.0709    1.1156   -0.3374 C   0  0  0  0  0  0  0  0  0  0  0  0
    0.6401    2.3033    0.4024 C   0  0  0  0  0  0  0  0  0  0  0  0
   -0.3282    3.4421    0.5457 C   0  0  0  0  0  0  0  0  0  0  0  0
   -1.4238    3.4733    0.0583 O   0  0  0  0  0  0  0  0  0  0  0  0
   -0.0982   -0.9706   -1.7480 H   0  0  0  0  0  0  0  0  0  0  0  0
    1.6009   -1.5667   -1.4126 H   0  0  0  0  0  0  0  0  0  0  0  0
   -0.7307    0.6354    0.2340 H   0  0  0  0  0  0  0  0  0  0  0  0
   -0.3406    1.4190   -1.3051 H   0  0  0  0  0  0  0  0  0  0  0  0
    0.9805    2.0155    1.4020 H   0  0  0  0  0  0  0  0  0  0  0  0
    1.5270    2.6908   -0.1121 H   0  0  0  0  0  0  0  0  0  0  0  0
    0.0457    4.2962    1.1471 H   0  0  0  0  0  0  0  0  0  0  0  0
  1  2  1  0
  1  4  1  0
  1  5  1  0
  2  3  2  0
  6  7  1  0
  6 12  1  0
  6 13  1  0
  7  8  1  0
  8  9  1  0
  8 14  1  0
  8 15  1  0
  9 10  1  0
  9 16  1  0
  9 17  1  0
 10 11  2  0
 10 18  1  0
M  RAD  1   6   2
M  END
>  <reaction>  (4) 
rmg_rxn_1561

>  <mol_properties>  (4) 
{"0": {"label": "*1", "atom_type": "N3s"}, "1": {"label": "*0", "atom_type": "N3d"}, "3": {"label": "*2", "atom_type": "H0"}, "5": {"label": "*3", "atom_type": "Cs"}, "6": {"label": "*4", "atom_type": "O2s"}}

>  <type>  (4) 
ts

$$$$

     RDKit          3D

 18 16  0  0  0  0  0  0  0  0999 V2000
    2.3057   -0.0619    0.8974 N   0  0  0  0  0  0  0  0  0  0  0  0
    2.6015   -0.7369   -0.1214 N   0  0  0  0  0  0  0  0  0  0  0  0
    1.7875   -1.0614   -0.9662 O   0  0  0  0  0  0  0  0  0  0  0  0
    1.2524    0.5536    1.0539 H   0  0  0  0  0  0  0  0  0  0  0  0
    3.1024    0.1751    1.4798 H   0  0  0  0  0  0  0  0  0  0  0  0
    0.1185    1.1867    1.1516 C   0  0  0  0  0  3  0  0  0  0  0  0
   -0.1967    1.7822   -0.0568 O   0  0  0  0  0  0  0  0  0  0  0  0
   -0.5879    0.9304   -1.1040 C   0  0  0  0  0  0  0  0  0  0  0  0
   -1.9196    0.2080   -0.8585 C   0  0  0  0  0  0  0  0  0  0  0  0
   -1.7978   -0.9756    0.0581 C   0  0  0  0  0  0  0  0  0  0  0  0
   -2.5985   -1.2889    0.8961 O   0  0  0  0  0  0  0  0  0  0  0  0
    0.2487    1.9751    1.8879 H   0  0  0  0  0  0  0  0  0  0  0  0
   -0.6005    0.4316    1.4764 H   0  0  0  0  0  0  0  0  0  0  0  0
    0.1980    0.1790   -1.3006 H   0  0  0  0  0  0  0  0  0  0  0  0
   -0.6785    1.5868   -1.9724 H   0  0  0  0  0  0  0  0  0  0  0  0
   -2.6713    0.9025   -0.4772 H   0  0  0  0  0  0  0  0  0  0  0  0
   -2.2641   -0.1827   -1.8193 H   0  0  0  0  0  0  0  0  0  0  0  0
   -0.8910   -1.5843   -0.1289 H   0  0  0  0  0  0  0  0  0  0  0  0
  1  2  1  0
  1  4  1  0
  1  5  1  0
  2  3  2  0
  6  7  1  0
  6 12  1  0
  6 13  1  0
  7  8  1  0
  8  9  1  0
  8 14  1  0
  8 15  1  0
  9 10  1  0
  9 16  1  0
  9 17  1  0
 10 11  2  0
 10 18  1  0
M  RAD  1   6   2
M  END
>  <reaction>  (5) 
rmg_rxn_1561

>  <mol_properties>  (5) 
{"0": {"label": "*1", "atom_type": "N3s"}, "1": {"label": "*0", "atom_type": "N3d"}, "3": {"label": "*2", "atom_type": "H0"}, "5": {"label": "*3", "atom_type": "Cs"}, "6": {"label": "*4", "atom_type": "O2s"}}

>  <type>  (5) 
unop_1

>  <geom_source>  (5) 
crest_best.xyz

$$$$

     RDKit          3D

 18 16  0  0  0  0  0  0  0  0999 V2000
    0.8243   -2.6998    1.0019 N   0  0  0  0  0  0  0  0  0  0  0  0
    0.8243   -3.9026    0.4572 N   0  0  0  0  0  0  0  0  0  0  0  0
    0.8243   -3.9026   -0.7474 O   0  0  0  0  0  0  0  0  0  0  0  0
    0.8243   -1.7172    0.2867 H   0  0  0  0  0  0  0  0  0  0  0  0
    0.8243   -2.6535    2.0040 H   0  0  0  0  0  0  0  0  0  0  0  0
    0.8243   -0.6607   -0.4823 C   0  0  0  0  0  3  0  0  0  0  0  0
   -0.3336    0.0742   -0.1904 O   0  0  0  0  0  0  0  0  0  0  0  0
   -0.1124    1.4610   -0.2094 C   0  0  0  0  0  0  0  0  0  0  0  0
   -1.4199    2.1469    0.1168 C   0  0  0  0  0  0  0  0  0  0  0  0
   -1.3376    3.6441    0.1333 C   0  0  0  0  0  0  0  0  0  0  0  0
   -0.3427    4.2789   -0.0870 O   0  0  0  0  0  0  0  0  0  0  0  0
    1.2087   -0.4231   -1.4827 H   0  0  0  0  0  0  0  0  0  0  0  0
    1.6189   -0.4648    0.2494 H   0  0  0  0  0  0  0  0  0  0  0  0
    0.2501    1.7833   -1.1945 H   0  0  0  0  0  0  0  0  0  0  0  0
    0.6567    1.7419    0.5223 H   0  0  0  0  0  0  0  0  0  0  0  0
   -2.1952    1.8601   -0.6021 H   0  0  0  0  0  0  0  0  0  0  0  0
   -1.7937    1.8193    1.0931 H   0  0  0  0  0  0  0  0  0  0  0  0
   -2.2908    4.1603    0.3715 H   0  0  0  0  0  0  0  0  0  0  0  0
  1  2  1  0
  1  4  1  0
  1  5  1  0
  2  3  2  0
  6  7  1  0
  6 12  1  0
  6 13  1  0
  7  8  1  0
  8  9  1  0
  8 14  1  0
  8 15  1  0
  9 10  1  0
  9 16  1  0
  9 17  1  0
 10 11  2  0
 10 18  1  0
M  RAD  1   6   2
M  END
>  <reaction>  (6) 
rmg_rxn_1561

>  <mol_properties>  (6) 
{"0": {"label": "*1", "atom_type": "N3s"}, "1": {"label": "*0", "atom_type": "N3d"}, "3": {"label": "*2", "atom_type": "H0"}, "5": {"label": "*3", "atom_type": "Cs"}, "6": {"label": "*4", "atom_type": "O2s"}}

>  <type>  (6) 
unop_2

>  <geom_source>  (6) 
Heuristics

$$$$

     RDKit          3D

 18 16  0  0  0  0  0  0  0  0999 V2000
    0.8768   -1.5976    2.7668 N   0  0  0  0  0  0  0  0  0  0  0  0
    0.8768   -2.8004    2.2220 N   0  0  0  0  0  0  0  0  0  0  0  0
    0.8768   -2.8004    1.0175 O   0  0  0  0  0  0  0  0  0  0  0  0
    0.8768   -0.6150    2.0516 H   0  0  0  0  0  0  0  0  0  0  0  0
    0.8768   -1.5512    3.7689 H   0  0  0  0  0  0  0  0  0  0  0  0
    0.8768    0.4415    1.2826 C   0  0  0  0  0  3  0  0  0  0  0  0
    0.2083    0.1016    0.0979 O   0  0  0  0  0  0  0  0  0  0  0  0
   -0.2175    1.2283   -0.6245 C   0  0  0  0  0  0  0  0  0  0  0  0
   -0.9202    0.7444   -1.8728 C   0  0  0  0  0  0  0  0  0  0  0  0
   -1.4343    1.8458   -2.7511 C   0  0  0  0  0  0  0  0  0  0  0  0
   -1.3188    3.0182   -2.5197 O   0  0  0  0  0  0  0  0  0  0  0  0
    1.7769    1.0360    1.0790 H   0  0  0  0  0  0  0  0  0  0  0  0
    0.2290    1.0148    1.9585 H   0  0  0  0  0  0  0  0  0  0  0  0
    0.6368    1.8642   -0.8918 H   0  0  0  0  0  0  0  0  0  0  0  0
   -0.8975    1.8433   -0.0201 H   0  0  0  0  0  0  0  0  0  0  0  0
   -0.2509    0.1191   -2.4737 H   0  0  0  0  0  0  0  0  0  0  0  0
   -1.7659    0.0983   -1.6130 H   0  0  0  0  0  0  0  0  0  0  0  0
   -1.9524    1.5043   -3.6712 H   0  0  0  0  0  0  0  0  0  0  0  0
  1  2  1  0
  1  4  1  0
  1  5  1  0
  2  3  2  0
  6  7  1  0
  6 12  1  0
  6 13  1  0
  7  8  1  0
  8  9  1  0
  8 14  1  0
  8 15  1  0
  9 10  1  0
  9 16  1  0
  9 17  1  0
 10 11  2  0
 10 18  1  0
M  RAD  1   6   2
M  END
>  <reaction>  (7) 
rmg_rxn_1561

>  <mol_properties>  (7) 
{"0": {"label": "*1", "atom_type": "N3s"}, "1": {"label": "*0", "atom_type": "N3d"}, "3": {"label": "*2", "atom_type": "H0"}, "5": {"label": "*3", "atom_type": "Cs"}, "6": {"label": "*4", "atom_type": "O2s"}}

>  <type>  (7) 
unop_3

>  <geom_source>  (7) 
Heuristics

$$$$

     RDKit          3D

 18 16  0  0  0  0  0  0  0  0999 V2000
    0.2608   -2.8677    0.9345 N   0  0  0  0  0  0  0  0  0  0  0  0
    0.2608   -4.0705    0.3897 N   0  0  0  0  0  0  0  0  0  0  0  0
    0.2608   -4.0705   -0.8148 O   0  0  0  0  0  0  0  0  0  0  0  0
    0.2608   -1.8851    0.2192 H   0  0  0  0  0  0  0  0  0  0  0  0
    0.2608   -2.8213    1.9365 H   0  0  0  0  0  0  0  0  0  0  0  0
    0.2608   -0.8286   -0.5497 C   0  0  0  0  0  3  0  0  0  0  0  0
   -0.4077    0.1943    0.1378 O   0  0  0  0  0  0  0  0  0  0  0  0
    0.0170    1.4749   -0.2525 C   0  0  0  0  0  0  0  0  0  0  0  0
   -0.7659    2.4907    0.5483 C   0  0  0  0  0  0  0  0  0  0  0  0
   -0.4170    3.9155    0.2366 C   0  0  0  0  0  0  0  0  0  0  0  0
    0.4036    4.2603   -0.5689 O   0  0  0  0  0  0  0  0  0  0  0  0
    0.0893   -0.7631   -1.6321 H   0  0  0  0  0  0  0  0  0  0  0  0
    1.3429   -0.7935   -0.3680 H   0  0  0  0  0  0  0  0  0  0  0  0
   -0.1491    1.6286   -1.3270 H   0  0  0  0  0  0  0  0  0  0  0  0
    1.0934    1.5984   -0.0741 H   0  0  0  0  0  0  0  0  0  0  0  0
   -1.8417    2.3639    0.3849 H   0  0  0  0  0  0  0  0  0  0  0  0
   -0.6148    2.3341    1.6220 H   0  0  0  0  0  0  0  0  0  0  0  0
   -0.9847    4.6717    0.8178 H   0  0  0  0  0  0  0  0  0  0  0  0
  1  2  1  0
  1  4  1  0
  1  5  1  0
  2  3  2  0
  6  7  1  0
  6 12  1  0
  6 13  1  0
  7  8  1  0
  8  9  1  0
  8 14  1  0
  8 15  1  0
  9 10  1  0
  9 16  1  0
  9 17  1  0
 10 11  2  0
 10 18  1  0
M  RAD  1   6   2
M  END
>  <reaction>  (8) 
rmg_rxn_1561

>  <mol_properties>  (8) 
{"0": {"label": "*1", "atom_type": "N3s"}, "1": {"label": "*0", "atom_type": "N3d"}, "3": {"label": "*2", "atom_type": "H0"}, "5": {"label": "*3", "atom_type": "Cs"}, "6": {"label": "*4", "atom_type": "O2s"}}

>  <type>  (8) 
unop_4

>  <geom_source>  (8) 
Heuristics

$$$$

     RDKit          3D

 18 16  0  0  0  0  0  0  0  0999 V2000
   -1.3468   -1.9501    2.1315 N   0  0  0  0  0  0  0  0  0  0  0  0
   -1.3468   -3.1529    1.5868 N   0  0  0  0  0  0  0  0  0  0  0  0
   -1.3468   -3.1529    0.3823 O   0  0  0  0  0  0  0  0  0  0  0  0
   -1.3468   -0.9674    1.4163 H   0  0  0  0  0  0  0  0  0  0  0  0
   -1.3468   -1.9037    3.1336 H   0  0  0  0  0  0  0  0  0  0  0  0
   -1.3468    0.0890    0.6474 C   0  0  0  0  0  3  0  0  0  0  0  0
   -0.1890    0.0372   -0.1417 O   0  0  0  0  0  0  0  0  0  0  0  0
    0.3114    1.3124   -0.4514 C   0  0  0  0  0  0  0  0  0  0  0  0
    1.5508    1.1345   -1.2990 C   0  0  0  0  0  0  0  0  0  0  0  0
    2.2005    2.4220   -1.7101 C   0  0  0  0  0  0  0  0  0  0  0  0
    1.8038    3.5157   -1.4139 O   0  0  0  0  0  0  0  0  0  0  0  0
   -1.1565    0.5874    1.6069 H   0  0  0  0  0  0  0  0  0  0  0  0
   -2.1579    0.6228    0.1351 H   0  0  0  0  0  0  0  0  0  0  0  0
    0.5540    1.8676    0.4644 H   0  0  0  0  0  0  0  0  0  0  0  0
   -0.4386    1.9027   -0.9944 H   0  0  0  0  0  0  0  0  0  0  0  0
    2.2980    0.5348   -0.7678 H   0  0  0  0  0  0  0  0  0  0  0  0
    1.3179    0.5695   -2.2082 H   0  0  0  0  0  0  0  0  0  0  0  0
    3.1118    2.3057   -2.3329 H   0  0  0  0  0  0  0  0  0  0  0  0
  1  2  1  0
  1  4  1  0
  1  5  1  0
  2  3  2  0
  6  7  1  0
  6 12  1  0
  6 13  1  0
  7  8  1  0
  8  9  1  0
  8 14  1  0
  8 15  1  0
  9 10  1  0
  9 16  1  0
  9 17  1  0
 10 11  2  0
 10 18  1  0
M  RAD  1   6   2
M  END
>  <reaction>  (9) 
rmg_rxn_1561

>  <mol_properties>  (9) 
{"0": {"label": "*1", "atom_type": "N3s"}, "1": {"label": "*0", "atom_type": "N3d"}, "3": {"label": "*2", "atom_type": "H0"}, "5": {"label": "*3", "atom_type": "Cs"}, "6": {"label": "*4", "atom_type": "O2s"}}

>  <type>  (9) 
unop_5

>  <geom_source>  (9) 
Heuristics

$$$$

     RDKit          3D

 18 16  0  0  0  0  0  0  0  0999 V2000
    0.0000   -2.9022    1.0519 N   0  0  0  0  0  0  0  0  0  0  0  0
    0.0000   -4.1050    0.5071 N   0  0  0  0  0  0  0  0  0  0  0  0
    0.0000   -4.1050   -0.6974 O   0  0  0  0  0  0  0  0  0  0  0  0
    0.0000   -1.9195    0.3366 H   0  0  0  0  0  0  0  0  0  0  0  0
    0.0000   -2.8558    2.0539 H   0  0  0  0  0  0  0  0  0  0  0  0
   -0.0000   -0.8631   -0.4323 C   0  0  0  0  0  3  0  0  0  0  0  0
   -0.0000    0.2652    0.4001 O   0  0  0  0  0  0  0  0  0  0  0  0
   -0.0000    1.4697   -0.3224 C   0  0  0  0  0  0  0  0  0  0  0  0
   -0.0000    2.6098    0.6707 C   0  0  0  0  0  0  0  0  0  0  0  0
    0.0000    3.9702    0.0398 C   0  0  0  0  0  0  0  0  0  0  0  0
   -0.0000    4.1781   -1.1426 O   0  0  0  0  0  0  0  0  0  0  0  0
   -0.8902   -0.8881   -1.0742 H   0  0  0  0  0  0  0  0  0  0  0  0
    0.8902   -0.8881   -1.0742 H   0  0  0  0  0  0  0  0  0  0  0  0
   -0.8824    1.5326   -0.9729 H   0  0  0  0  0  0  0  0  0  0  0  0
    0.8824    1.5326   -0.9729 H   0  0  0  0  0  0  0  0  0  0  0  0
   -0.8713    2.5451    1.3316 H   0  0  0  0  0  0  0  0  0  0  0  0
    0.8713    2.5451    1.3316 H   0  0  0  0  0  0  0  0  0  0  0  0
    0.0000    4.8166    0.7579 H   0  0  0  0  0  0  0  0  0  0  0  0
  1  2  1  0
  1  4  1  0
  1  5  1  0
  2  3  2  0
  6  7  1  0
  6 12  1  0
  6 13  1  0
  7  8  1  0
  8  9  1  0
  8 14  1  0
  8 15  1  0
  9 10  1  0
  9 16  1  0
  9 17  1  0
 10 11  2  0
 10 18  1  0
M  RAD  1   6   2
M  END
>  <reaction>  (10) 
rmg_rxn_1561

>  <mol_properties>  (10) 
{"0": {"label": "*1", "atom_type": "N3s"}, "1": {"label": "*0", "atom_type": "N3d"}, "3": {"label": "*2", "atom_type": "H0"}, "5": {"label": "*3", "atom_type": "Cs"}, "6": {"label": "*4", "atom_type": "O2s"}}

>  <type>  (10) 
unop_6

>  <geom_source>  (10) 
Heuristics

$$$$

     RDKit          3D

 18 16  0  0  0  0  0  0  0  0999 V2000
   -1.2893   -2.3666    1.4528 N   0  0  0  0  0  0  0  0  0  0  0  0
   -1.2893   -3.5694    0.9080 N   0  0  0  0  0  0  0  0  0  0  0  0
   -1.2893   -3.5694   -0.2965 O   0  0  0  0  0  0  0  0  0  0  0  0
   -1.2893   -1.3840    0.7376 H   0  0  0  0  0  0  0  0  0  0  0  0
   -1.2893   -2.3203    2.4549 H   0  0  0  0  0  0  0  0  0  0  0  0
   -1.2893   -0.3275   -0.0314 C   0  0  0  0  0  3  0  0  0  0  0  0
    0.0477    0.0140   -0.2800 O   0  0  0  0  0  0  0  0  0  0  0  0
    0.2583    1.4026   -0.2870 C   0  0  0  0  0  0  0  0  0  0  0  0
    1.7241    1.6511   -0.5626 C   0  0  0  0  0  0  0  0  0  0  0  0
    2.1018    3.1019   -0.6002 C   0  0  0  0  0  0  0  0  0  0  0  0
    1.3394    4.0138   -0.4318 O   0  0  0  0  0  0  0  0  0  0  0  0
   -1.6218    0.0402    0.9481 H   0  0  0  0  0  0  0  0  0  0  0  0
   -1.9576    0.0822   -0.7999 H   0  0  0  0  0  0  0  0  0  0  0  0
   -0.0270    1.8438    0.6772 H   0  0  0  0  0  0  0  0  0  0  0  0
   -0.3598    1.8855   -1.0554 H   0  0  0  0  0  0  0  0  0  0  0  0
    2.3468    1.1605    0.1935 H   0  0  0  0  0  0  0  0  0  0  0  0
    2.0182    1.2016   -1.5173 H   0  0  0  0  0  0  0  0  0  0  0  0
    3.1754    3.2985   -0.8017 H   0  0  0  0  0  0  0  0  0  0  0  0
  1  2  1  0
  1  4  1  0
  1  5  1  0
  2  3  2  0
  6  7  1  0
  6 12  1  0
  6 13  1  0
  7  8  1  0
  8  9  1  0
  8 14  1  0
  8 15  1  0
  9 10  1  0
  9 16  1  0
  9 17  1  0
 10 11  2  0
 10 18  1  0
M  RAD  1   6   2
M  END
>  <reaction>  (11) 
rmg_rxn_1561

>  <mol_properties>  (11) 
{"0": {"label": "*1", "atom_type": "N3s"}, "1": {"label": "*0", "atom_type": "N3d"}, "3": {"label": "*2", "atom_type": "H0"}, "5": {"label": "*3", "atom_type": "Cs"}, "6": {"label": "*4", "atom_type": "O2s"}}

>  <type>  (11) 
unop_7

>  <geom_source>  (11) 
Heuristics

$$$$

     RDKit          3D

 18 16  0  0  0  0  0  0  0  0999 V2000
    2.3045   -0.0627   -0.8971 N   0  0  0  0  0  0  0  0  0  0  0  0
    2.5999   -0.7374    0.1220 N   0  0  0  0  0  0  0  0  0  0  0  0
    1.7858   -1.0605    0.9673 O   0  0  0  0  0  0  0  0  0  0  0  0
    1.2519    0.5538   -1.0538 H   0  0  0  0  0  0  0  0  0  0  0  0
    3.1012    0.1729   -1.4800 H   0  0  0  0  0  0  0  0  0  0  0  0
    0.1182    1.1872   -1.1523 C   0  0  0  0  0  3  0  0  0  0  0  0
   -0.1973    1.7835    0.0558 O   0  0  0  0  0  0  0  0  0  0  0  0
   -0.5886    0.9324    1.1034 C   0  0  0  0  0  0  0  0  0  0  0  0
   -1.9194    0.2084    0.8574 C   0  0  0  0  0  0  0  0  0  0  0  0
   -1.7954   -0.9763   -0.0575 C   0  0  0  0  0  0  0  0  0  0  0  0
   -2.5951   -1.2919   -0.8956 O   0  0  0  0  0  0  0  0  0  0  0  0
   -0.6009    0.4324   -1.4771 H   0  0  0  0  0  0  0  0  0  0  0  0
    0.2493    1.9754   -1.8888 H   0  0  0  0  0  0  0  0  0  0  0  0
   -0.6806    1.5895    1.9711 H   0  0  0  0  0  0  0  0  0  0  0  0
    0.1979    0.1819    1.3015 H   0  0  0  0  0  0  0  0  0  0  0  0
   -2.2645   -0.1814    1.8183 H   0  0  0  0  0  0  0  0  0  0  0  0
   -2.6714    0.9016    0.4743 H   0  0  0  0  0  0  0  0  0  0  0  0
   -0.8879   -1.5836    0.1311 H   0  0  0  0  0  0  0  0  0  0  0  0
  1  2  1  0
  1  4  1  0
  1  5  1  0
  2  3  2  0
  6  7  1  0
  6 12  1  0
  6 13  1  0
  7  8  1  0
  8  9  1  0
  8 14  1  0
  8 15  1  0
  9 10  1  0
  9 16  1  0
  9 17  1  0
 10 11  2  0
 10 18  1  0
M  RAD  1   6   2
M  END
>  <reaction>  (12) 
rmg_rxn_1561

>  <mol_properties>  (12) 
{"0": {"label": "*1", "atom_type": "N3s"}, "1": {"label": "*0", "atom_type": "N3d"}, "3": {"label": "*2", "atom_type": "H0"}, "5": {"label": "*3", "atom_type": "Cs"}, "6": {"label": "*4", "atom_type": "O2s"}}

>  <type>  (12) 
unop_8

>  <geom_source>  (12) 
Heuristics

$$$$

     RDKit          3D

 18 16  0  0  0  0  0  0  0  0999 V2000
   -0.8243   -2.6998    1.0019 N   0  0  0  0  0  0  0  0  0  0  0  0
   -0.8243   -3.9026    0.4572 N   0  0  0  0  0  0  0  0  0  0  0  0
   -0.8243   -3.9026   -0.7473 O   0  0  0  0  0  0  0  0  0  0  0  0
   -0.8243   -1.7172    0.2867 H   0  0  0  0  0  0  0  0  0  0  0  0
   -0.8243   -2.6535    2.0040 H   0  0  0  0  0  0  0  0  0  0  0  0
   -0.8243   -0.6607   -0.4822 C   0  0  0  0  0  3  0  0  0  0  0  0
    0.3336    0.0742   -0.1904 O   0  0  0  0  0  0  0  0  0  0  0  0
    0.1124    1.4610   -0.2094 C   0  0  0  0  0  0  0  0  0  0  0  0
    1.4199    2.1469    0.1168 C   0  0  0  0  0  0  0  0  0  0  0  0
    1.3376    3.6441    0.1333 C   0  0  0  0  0  0  0  0  0  0  0  0
    0.3427    4.2789   -0.0870 O   0  0  0  0  0  0  0  0  0  0  0  0
   -1.6189   -0.4648    0.2494 H   0  0  0  0  0  0  0  0  0  0  0  0
   -1.2087   -0.4231   -1.4827 H   0  0  0  0  0  0  0  0  0  0  0  0
   -0.6567    1.7419    0.5223 H   0  0  0  0  0  0  0  0  0  0  0  0
   -0.2501    1.7833   -1.1945 H   0  0  0  0  0  0  0  0  0  0  0  0
    1.7937    1.8193    1.0931 H   0  0  0  0  0  0  0  0  0  0  0  0
    2.1952    1.8601   -0.6021 H   0  0  0  0  0  0  0  0  0  0  0  0
    2.2908    4.1603    0.3715 H   0  0  0  0  0  0  0  0  0  0  0  0
  1  2  1  0
  1  4  1  0
  1  5  1  0
  2  3  2  0
  6  7  1  0
  6 12  1  0
  6 13  1  0
  7  8  1  0
  8  9  1  0
  8 14  1  0
  8 15  1  0
  9 10  1  0
  9 16  1  0
  9 17  1  0
 10 11  2  0
 10 18  1  0
M  RAD  1   6   2
M  END
>  <reaction>  (13) 
rmg_rxn_1561

>  <mol_properties>  (13) 
{"0": {"label": "*1", "atom_type": "N3s"}, "1": {"label": "*0", "atom_type": "N3d"}, "3": {"label": "*2", "atom_type": "H0"}, "5": {"label": "*3", "atom_type": "Cs"}, "6": {"label": "*4", "atom_type": "O2s"}}

>  <type>  (13) 
unop_9

>  <geom_source>  (13) 
Heuristics

$$$$

     RDKit          3D

 18 16  0  0  0  0  0  0  0  0999 V2000
    1.2893   -2.3666    1.4528 N   0  0  0  0  0  0  0  0  0  0  0  0
    1.2893   -3.5694    0.9080 N   0  0  0  0  0  0  0  0  0  0  0  0
    1.2893   -3.5694   -0.2965 O   0  0  0  0  0  0  0  0  0  0  0  0
    1.2893   -1.3840    0.7376 H   0  0  0  0  0  0  0  0  0  0  0  0
    1.2893   -2.3203    2.4549 H   0  0  0  0  0  0  0  0  0  0  0  0
    1.2893   -0.3275   -0.0314 C   0  0  0  0  0  3  0  0  0  0  0  0
   -0.0477    0.0140   -0.2800 O   0  0  0  0  0  0  0  0  0  0  0  0
   -0.2583    1.4026   -0.2870 C   0  0  0  0  0  0  0  0  0  0  0  0
   -1.7241    1.6511   -0.5626 C   0  0  0  0  0  0  0  0  0  0  0  0
   -2.1018    3.1019   -0.6002 C   0  0  0  0  0  0  0  0  0  0  0  0
   -1.3394    4.0138   -0.4318 O   0  0  0  0  0  0  0  0  0  0  0  0
    1.9576    0.0822   -0.7999 H   0  0  0  0  0  0  0  0  0  0  0  0
    1.6218    0.0402    0.9481 H   0  0  0  0  0  0  0  0  0  0  0  0
    0.3598    1.8855   -1.0554 H   0  0  0  0  0  0  0  0  0  0  0  0
    0.0270    1.8438    0.6772 H   0  0  0  0  0  0  0  0  0  0  0  0
   -2.0183    1.2016   -1.5173 H   0  0  0  0  0  0  0  0  0  0  0  0
   -2.3468    1.1605    0.1935 H   0  0  0  0  0  0  0  0  0  0  0  0
   -3.1754    3.2985   -0.8017 H   0  0  0  0  0  0  0  0  0  0  0  0
  1  2  1  0
  1  4  1  0
  1  5  1  0
  2  3  2  0
  6  7  1  0
  6 12  1  0
  6 13  1  0
  7  8  1  0
  8  9  1  0
  8 14  1  0
  8 15  1  0
  9 10  1  0
  9 16  1  0
  9 17  1  0
 10 11  2  0
 10 18  1  0
M  RAD  1   6   2
M  END
>  <reaction>  (14) 
rmg_rxn_1561

>  <mol_properties>  (14) 
{"0": {"label": "*1", "atom_type": "N3s"}, "1": {"label": "*0", "atom_type": "N3d"}, "3": {"label": "*2", "atom_type": "H0"}, "5": {"label": "*3", "atom_type": "Cs"}, "6": {"label": "*4", "atom_type": "O2s"}}

>  <type>  (14) 
unop_10

>  <geom_source>  (14) 
Heuristics

$$$$

     RDKit          3D

 18 16  0  0  0  0  0  0  0  0999 V2000
    2.3057   -0.0619    0.8974 N   0  0  0  0  0  0  0  0  0  0  0  0
    2.6015   -0.7369   -0.1214 N   0  0  0  0  0  0  0  0  0  0  0  0
    1.7875   -1.0614   -0.9662 O   0  0  0  0  0  0  0  0  0  0  0  0
    1.2524    0.5536    1.0539 H   0  0  0  0  0  0  0  0  0  0  0  0
    3.1024    0.1751    1.4798 H   0  0  0  0  0  0  0  0  0  0  0  0
    0.1185    1.1867    1.1516 C   0  0  0  0  0  3  0  0  0  0  0  0
   -0.1967    1.7822   -0.0568 O   0  0  0  0  0  0  0  0  0  0  0  0
   -0.5879    0.9304   -1.1040 C   0  0  0  0  0  0  0  0  0  0  0  0
   -1.9196    0.2080   -0.8585 C   0  0  0  0  0  0  0  0  0  0  0  0
   -1.7978   -0.9756    0.0581 C   0  0  0  0  0  0  0  0  0  0  0  0
   -2.5985   -1.2889    0.8961 O   0  0  0  0  0  0  0  0  0  0  0  0
    0.2487    1.9751    1.8879 H   0  0  0  0  0  0  0  0  0  0  0  0
   -0.6005    0.4316    1.4764 H   0  0  0  0  0  0  0  0  0  0  0  0
    0.1980    0.1790   -1.3006 H   0  0  0  0  0  0  0  0  0  0  0  0
   -0.6785    1.5868   -1.9724 H   0  0  0  0  0  0  0  0  0  0  0  0
   -2.6713    0.9025   -0.4772 H   0  0  0  0  0  0  0  0  0  0  0  0
   -2.2641   -0.1827   -1.8193 H   0  0  0  0  0  0  0  0  0  0  0  0
   -0.8910   -1.5843   -0.1289 H   0  0  0  0  0  0  0  0  0  0  0  0
  1  2  1  0
  1  4  1  0
  1  5  1  0
  2  3  2  0
  6  7  1  0
  6 12  1  0
  6 13  1  0
  7  8  1  0
  8  9  1  0
  8 14  1  0
  8 15  1  0
  9 10  1  0
  9 16  1  0
  9 17  1  0
 10 11  2  0
 10 18  1  0
M  RAD  1   6   2
M  END
>  <reaction>  (15) 
rmg_rxn_1561

>  <mol_properties>  (15) 
{"0": {"label": "*1", "atom_type": "N3s"}, "1": {"label": "*0", "atom_type": "N3d"}, "3": {"label": "*2", "atom_type": "H0"}, "5": {"label": "*3", "atom_type": "Cs"}, "6": {"label": "*4", "atom_type": "O2s"}}

>  <type>  (15) 
unop_11

>  <geom_source>  (15) 
Heuristics

$$$$

     RDKit          3D

 18 16  0  0  0  0  0  0  0  0999 V2000
   -0.8768   -1.5976    2.7668 N   0  0  0  0  0  0  0  0  0  0  0  0
   -0.8768   -2.8004    2.2220 N   0  0  0  0  0  0  0  0  0  0  0  0
   -0.8768   -2.8004    1.0175 O   0  0  0  0  0  0  0  0  0  0  0  0
   -0.8768   -0.6150    2.0516 H   0  0  0  0  0  0  0  0  0  0  0  0
   -0.8768   -1.5512    3.7689 H   0  0  0  0  0  0  0  0  0  0  0  0
   -0.8768    0.4415    1.2826 C   0  0  0  0  0  3  0  0  0  0  0  0
   -0.2083    0.1016    0.0979 O   0  0  0  0  0  0  0  0  0  0  0  0
    0.2175    1.2283   -0.6245 C   0  0  0  0  0  0  0  0  0  0  0  0
    0.9202    0.7444   -1.8728 C   0  0  0  0  0  0  0  0  0  0  0  0
    1.4343    1.8458   -2.7511 C   0  0  0  0  0  0  0  0  0  0  0  0
    1.3188    3.0182   -2.5197 O   0  0  0  0  0  0  0  0  0  0  0  0
   -0.2290    1.0148    1.9585 H   0  0  0  0  0  0  0  0  0  0  0  0
   -1.7769    1.0360    1.0790 H   0  0  0  0  0  0  0  0  0  0  0  0
    0.8975    1.8433   -0.0201 H   0  0  0  0  0  0  0  0  0  0  0  0
   -0.6368    1.8642   -0.8918 H   0  0  0  0  0  0  0  0  0  0  0  0
    1.7659    0.0983   -1.6130 H   0  0  0  0  0  0  0  0  0  0  0  0
    0.2509    0.1191   -2.4737 H   0  0  0  0  0  0  0  0  0  0  0  0
    1.9524    1.5043   -3.6712 H   0  0  0  0  0  0  0  0  0  0  0  0
  1  2  1  0
  1  4  1  0
  1  5  1  0
  2  3  2  0
  6  7  1  0
  6 12  1  0
  6 13  1  0
  7  8  1  0
  8  9  1  0
  8 14  1  0
  8 15  1  0
  9 10  1  0
  9 16  1  0
  9 17  1  0
 10 11  2  0
 10 18  1  0
M  RAD  1   6   2
M  END
>  <reaction>  (16) 
rmg_rxn_1561

>  <mol_properties>  (16) 
{"0": {"label": "*1", "atom_type": "N3s"}, "1": {"label": "*0", "atom_type": "N3d"}, "3": {"label": "*2", "atom_type": "H0"}, "5": {"label": "*3", "atom_type": "Cs"}, "6": {"label": "*4", "atom_type": "O2s"}}

>  <type>  (16) 
unop_12

>  <geom_source>  (16) 
Heuristics

$$$$

     RDKit          3D

 18 16  0  0  0  0  0  0  0  0999 V2000
    1.3468   -1.9501    2.1315 N   0  0  0  0  0  0  0  0  0  0  0  0
    1.3468   -3.1529    1.5868 N   0  0  0  0  0  0  0  0  0  0  0  0
    1.3468   -3.1529    0.3823 O   0  0  0  0  0  0  0  0  0  0  0  0
    1.3468   -0.9674    1.4163 H   0  0  0  0  0  0  0  0  0  0  0  0
    1.3468   -1.9037    3.1336 H   0  0  0  0  0  0  0  0  0  0  0  0
    1.3468    0.0890    0.6474 C   0  0  0  0  0  3  0  0  0  0  0  0
    0.1890    0.0372   -0.1417 O   0  0  0  0  0  0  0  0  0  0  0  0
   -0.3114    1.3124   -0.4514 C   0  0  0  0  0  0  0  0  0  0  0  0
   -1.5508    1.1345   -1.2990 C   0  0  0  0  0  0  0  0  0  0  0  0
   -2.2005    2.4220   -1.7101 C   0  0  0  0  0  0  0  0  0  0  0  0
   -1.8038    3.5157   -1.4139 O   0  0  0  0  0  0  0  0  0  0  0  0
    2.1579    0.6228    0.1351 H   0  0  0  0  0  0  0  0  0  0  0  0
    1.1565    0.5874    1.6069 H   0  0  0  0  0  0  0  0  0  0  0  0
    0.4386    1.9027   -0.9944 H   0  0  0  0  0  0  0  0  0  0  0  0
   -0.5540    1.8676    0.4644 H   0  0  0  0  0  0  0  0  0  0  0  0
   -1.3179    0.5695   -2.2082 H   0  0  0  0  0  0  0  0  0  0  0  0
   -2.2980    0.5348   -0.7678 H   0  0  0  0  0  0  0  0  0  0  0  0
   -3.1118    2.3057   -2.3329 H   0  0  0  0  0  0  0  0  0  0  0  0
  1  2  1  0
  1  4  1  0
  1  5  1  0
  2  3  2  0
  6  7  1  0
  6 12  1  0
  6 13  1  0
  7  8  1  0
  8  9  1  0
  8 14  1  0
  8 15  1  0
  9 10  1  0
  9 16  1  0
  9 17  1  0
 10 11  2  0
 10 18  1  0
M  RAD  1   6   2
M  END
>  <reaction>  (17) 
rmg_rxn_1561

>  <mol_properties>  (17) 
{"0": {"label": "*1", "atom_type": "N3s"}, "1": {"label": "*0", "atom_type": "N3d"}, "3": {"label": "*2", "atom_type": "H0"}, "5": {"label": "*3", "atom_type": "Cs"}, "6": {"label": "*4", "atom_type": "O2s"}}

>  <type>  (17) 
unop_13

>  <geom_source>  (17) 
Heuristics

$$$$

     RDKit          3D

 18 16  0  0  0  0  0  0  0  0999 V2000
   -0.2608   -2.8677    0.9345 N   0  0  0  0  0  0  0  0  0  0  0  0
   -0.2608   -4.0705    0.3897 N   0  0  0  0  0  0  0  0  0  0  0  0
   -0.2608   -4.0705   -0.8148 O   0  0  0  0  0  0  0  0  0  0  0  0
   -0.2608   -1.8851    0.2192 H   0  0  0  0  0  0  0  0  0  0  0  0
   -0.2608   -2.8213    1.9366 H   0  0  0  0  0  0  0  0  0  0  0  0
   -0.2608   -0.8286   -0.5497 C   0  0  0  0  0  3  0  0  0  0  0  0
    0.4077    0.1943    0.1379 O   0  0  0  0  0  0  0  0  0  0  0  0
   -0.0170    1.4749   -0.2525 C   0  0  0  0  0  0  0  0  0  0  0  0
    0.7659    2.4907    0.5483 C   0  0  0  0  0  0  0  0  0  0  0  0
    0.4170    3.9155    0.2366 C   0  0  0  0  0  0  0  0  0  0  0  0
   -0.4036    4.2603   -0.5689 O   0  0  0  0  0  0  0  0  0  0  0  0
   -1.3429   -0.7935   -0.3680 H   0  0  0  0  0  0  0  0  0  0  0  0
   -0.0893   -0.7631   -1.6321 H   0  0  0  0  0  0  0  0  0  0  0  0
   -1.0934    1.5984   -0.0741 H   0  0  0  0  0  0  0  0  0  0  0  0
    0.1491    1.6286   -1.3270 H   0  0  0  0  0  0  0  0  0  0  0  0
    0.6148    2.3342    1.6220 H   0  0  0  0  0  0  0  0  0  0  0  0
    1.8417    2.3639    0.3849 H   0  0  0  0  0  0  0  0  0  0  0  0
    0.9847    4.6717    0.8178 H   0  0  0  0  0  0  0  0  0  0  0  0
  1  2  1  0
  1  4  1  0
  1  5  1  0
  2  3  2  0
  6  7  1  0
  6 12  1  0
  6 13  1  0
  7  8  1  0
  8  9  1  0
  8 14  1  0
  8 15  1  0
  9 10  1  0
  9 16  1  0
  9 17  1  0
 10 11  2  0
 10 18  1  0
M  RAD  1   6   2
M  END
>  <reaction>  (18) 
rmg_rxn_1561

>  <mol_properties>  (18) 
{"0": {"label": "*1", "atom_type": "N3s"}, "1": {"label": "*0", "atom_type": "N3d"}, "3": {"label": "*2", "atom_type": "H0"}, "5": {"label": "*3", "atom_type": "Cs"}, "6": {"label": "*4", "atom_type": "O2s"}}

>  <type>  (18) 
unop_14

>  <geom_source>  (18) 
Heuristics

$$$$

     RDKit          3D

 18 16  0  0  0  0  0  0  0  0999 V2000
    0.0000   -1.4580    3.0360 N   0  0  0  0  0  0  0  0  0  0  0  0
    0.0000   -2.6608    2.4912 N   0  0  0  0  0  0  0  0  0  0  0  0
    0.0000   -2.6608    1.2867 O   0  0  0  0  0  0  0  0  0  0  0  0
    0.0000   -0.4754    2.3208 H   0  0  0  0  0  0  0  0  0  0  0  0
    0.0000   -1.4117    4.0381 H   0  0  0  0  0  0  0  0  0  0  0  0
    0.0000    0.5811    1.5518 C   0  0  0  0  0  3  0  0  0  0  0  0
    0.0000    0.1358    0.2223 O   0  0  0  0  0  0  0  0  0  0  0  0
   -0.0000    1.1935   -0.7018 C   0  0  0  0  0  0  0  0  0  0  0  0
   -0.0000    0.5990   -2.0920 C   0  0  0  0  0  0  0  0  0  0  0  0
   -0.0000    1.6175   -3.1926 C   0  0  0  0  0  0  0  0  0  0  0  0
   -0.0000    2.8065   -3.0269 O   0  0  0  0  0  0  0  0  0  0  0  0
    0.8902    1.1842    1.7729 H   0  0  0  0  0  0  0  0  0  0  0  0
   -0.8902    1.1842    1.7729 H   0  0  0  0  0  0  0  0  0  0  0  0
    0.8824    1.8319   -0.5617 H   0  0  0  0  0  0  0  0  0  0  0  0
   -0.8824    1.8319   -0.5617 H   0  0  0  0  0  0  0  0  0  0  0  0
    0.8713   -0.0498   -2.2335 H   0  0  0  0  0  0  0  0  0  0  0  0
   -0.8713   -0.0498   -2.2335 H   0  0  0  0  0  0  0  0  0  0  0  0
   -0.0000    1.1943   -4.2187 H   0  0  0  0  0  0  0  0  0  0  0  0
  1  2  1  0
  1  4  1  0
  1  5  1  0
  2  3  2  0
  6  7  1  0
  6 12  1  0
  6 13  1  0
  7  8  1  0
  8  9  1  0
  8 14  1  0
  8 15  1  0
  9 10  1  0
  9 16  1  0
  9 17  1  0
 10 11  2  0
 10 18  1  0
M  RAD  1   6   2
M  END
>  <reaction>  (19) 
rmg_rxn_1561

>  <mol_properties>  (19) 
{"0": {"label": "*1", "atom_type": "N3s"}, "1": {"label": "*0", "atom_type": "N3d"}, "3": {"label": "*2", "atom_type": "H0"}, "5": {"label": "*3", "atom_type": "Cs"}, "6": {"label": "*4", "atom_type": "O2s"}}

>  <type>  (19) 
unop_15

>  <geom_source>  (19) 
Heuristics

$$$$

     RDKit          3D

 18 16  0  0  0  0  0  0  0  0999 V2000
    0.8768   -1.5976    2.7668 N   0  0  0  0  0  0  0  0  0  0  0  0
    0.8768   -2.8004    2.2220 N   0  0  0  0  0  0  0  0  0  0  0  0
    0.8768   -2.8004    1.0175 O   0  0  0  0  0  0  0  0  0  0  0  0
    0.8768   -0.6150    2.0516 H   0  0  0  0  0  0  0  0  0  0  0  0
    0.8768   -1.5513    3.7689 H   0  0  0  0  0  0  0  0  0  0  0  0
    0.8768    0.4415    1.2826 C   0  0  0  0  0  3  0  0  0  0  0  0
    0.2083    0.1017    0.0979 O   0  0  0  0  0  0  0  0  0  0  0  0
   -0.2175    1.2284   -0.6245 C   0  0  0  0  0  0  0  0  0  0  0  0
   -0.9202    0.7444   -1.8728 C   0  0  0  0  0  0  0  0  0  0  0  0
   -1.4343    1.8458   -2.7511 C   0  0  0  0  0  0  0  0  0  0  0  0
   -1.3188    3.0182   -2.5197 O   0  0  0  0  0  0  0  0  0  0  0  0
    1.7769    1.0360    1.0790 H   0  0  0  0  0  0  0  0  0  0  0  0
    0.2290    1.0148    1.9585 H   0  0  0  0  0  0  0  0  0  0  0  0
    0.6368    1.8642   -0.8918 H   0  0  0  0  0  0  0  0  0  0  0  0
   -0.8975    1.8433   -0.0200 H   0  0  0  0  0  0  0  0  0  0  0  0
   -0.2509    0.1191   -2.4737 H   0  0  0  0  0  0  0  0  0  0  0  0
   -1.7659    0.0983   -1.6130 H   0  0  0  0  0  0  0  0  0  0  0  0
   -1.9524    1.5043   -3.6712 H   0  0  0  0  0  0  0  0  0  0  0  0
  1  2  1  0
  1  4  1  0
  1  5  1  0
  2  3  2  0
  6  7  1  0
  6 12  1  0
  6 13  1  0
  7  8  1  0
  8  9  1  0
  8 14  1  0
  8 15  1  0
  9 10  1  0
  9 16  1  0
  9 17  1  0
 10 11  2  0
 10 18  1  0
M  RAD  1   6   2
M  END
>  <reaction>  (20) 
rmg_rxn_1561

>  <mol_properties>  (20) 
{"0": {"label": "*1", "atom_type": "N3s"}, "1": {"label": "*0", "atom_type": "N3d"}, "3": {"label": "*2", "atom_type": "H0"}, "5": {"label": "*3", "atom_type": "Cs"}, "6": {"label": "*4", "atom_type": "O2s"}}

>  <type>  (20) 
unop_16

>  <geom_source>  (20) 
gaussian_log

$$$$
