
     RDKit          3D

 18 17  0  0  0  0  0  0  0  0999 V2000
    2.2026   -0.7213   -0.2612 C   0  0  0  0  0  0  0  0  0  0  0  0
    1.5384    0.2638    0.6915 C   0  0  0  0  0  0  0  0  0  0  0  0
    2.2584    1.5946    0.7694 C   0  0  0  0  0  0  0  0  0  0  0  0
    2.2212    2.2185   -0.4893 O   0  0  0  0  0  0  0  0  0  0  0  0
    2.8988    3.4488   -0.5204 C   0  0  0  0  0  0  0  0  0  0  0  0
    2.7981    4.0296   -1.9118 C   0  0  0  0  0  0  0  0  0  0  0  0
    3.2294   -0.9309    0.0486 H   0  0  0  0  0  0  0  0  0  0  0  0
    2.2338   -0.3181   -1.2734 H   0  0  0  0  0  0  0  0  0  0  0  0
    1.6610   -1.6680   -0.2875 H   0  0  0  0  0  0  0  0  0  0  0  0
    1.4990   -0.1566    1.7002 H   0  0  0  0  0  0  0  0  0  0  0  0
    0.5055    0.4455    0.3835 H   0  0  0  0  0  0  0  0  0  0  0  0
    3.3038    1.4410    1.0808 H   0  0  0  0  0  0  0  0  0  0  0  0
    1.7844    2.2410    1.5226 H   0  0  0  0  0  0  0  0  0  0  0  0
    2.4596    4.1376    0.2164 H   0  0  0  0  0  0  0  0  0  0  0  0
    3.9524    3.3035   -0.2397 H   0  0  0  0  0  0  0  0  0  0  0  0
    1.7543    4.1869   -2.1856 H   0  0  0  0  0  0  0  0  0  0  0  0
    3.2472    3.3545   -2.6411 H   0  0  0  0  0  0  0  0  0  0  0  0
    3.3178    4.9878   -1.9600 H   0  0  0  0  0  0  0  0  0  0  0  0
  1  2  1  0
  1  7  1  0
  1  8  1  0
  1  9  1  0
  2  3  1  0
  2 10  1  0
  2 11  1  0
  3  4  1  0
  3 12  1  0
  3 13  1  0
  4  5  1  0
  5  6  1  0
  5 14  1  0
  5 15  1  0
  6 16  1  0
  6 17  1  0
  6 18  1  0
M  END
>  <reaction>  (1) 
rmg_rxn_339

>  <mol_properties>  (1) 
{"2": {"label": "donator", "atom_type": "Cs"}, "11": {"label": "d_hydrogen", "atom_type": "H0"}}

>  <type>  (1) 
r1h

$$$$

     RDKit          3D

 17 16  0  0  0  0  0  0  0  0999 V2000
    2.3128   -0.1525    1.1777 C   0  0  0  0  0  3  0  0  0  0  0  0
    1.7469    0.7266    0.1254 C   0  0  0  0  0  0  0  0  0  0  0  0
    1.6374    2.1830    0.5408 C   0  0  0  0  0  0  0  0  0  0  0  0
    2.9245    2.6874    0.7877 O   0  0  0  0  0  0  0  0  0  0  0  0
    2.9227    4.0197    1.2361 C   0  0  0  0  0  0  0  0  0  0  0  0
    4.3491    4.4603    1.4693 C   0  0  0  0  0  0  0  0  0  0  0  0
    2.1393   -1.2196    1.1557 H   0  0  0  0  0  0  0  0  0  0  0  0
    3.0313    0.2400    1.8838 H   0  0  0  0  0  0  0  0  0  0  0  0
    0.7555    0.3746   -0.1764 H   0  0  0  0  0  0  0  0  0  0  0  0
    2.3678    0.6841   -0.7826 H   0  0  0  0  0  0  0  0  0  0  0  0
    1.0170    2.2718    1.4449 H   0  0  0  0  0  0  0  0  0  0  0  0
    1.1499    2.7653   -0.2546 H   0  0  0  0  0  0  0  0  0  0  0  0
    2.4379    4.6655    0.4891 H   0  0  0  0  0  0  0  0  0  0  0  0
    2.3377    4.1015    2.1638 H   0  0  0  0  0  0  0  0  0  0  0  0
    4.9261    4.3920    0.5465 H   0  0  0  0  0  0  0  0  0  0  0  0
    4.3728    5.4939    1.8180 H   0  0  0  0  0  0  0  0  0  0  0  0
    4.8260    3.8299    2.2206 H   0  0  0  0  0  0  0  0  0  0  0  0
  1  2  1  0
  1  7  1  0
  1  8  1  0
  2  3  1  0
  2  9  1  0
  2 10  1  0
  3  4  1  0
  3 11  1  0
  3 12  1  0
  4  5  1  0
  5  6  1  0
  5 13  1  0
  5 14  1  0
  6 15  1  0
  6 16  1  0
  6 17  1  0
M  RAD  1   1   2
M  END
>  <reaction>  (2) 
rmg_rxn_339

>  <mol_properties>  (2) 
{"0": {"label": "acceptor", "atom_type": "Cs"}}

>  <type>  (2) 
r2

$$$$

     RDKit          3D

 18 17  0  0  0  0  0  0  0  0999 V2000
    2.2026   -0.7213   -0.2612 C   0  0  0  0  0  0  0  0  0  0  0  0
    1.5384    0.2638    0.6915 C   0  0  0  0  0  0  0  0  0  0  0  0
    2.2584    1.5946    0.7694 C   0  0  0  0  0  0  0  0  0  0  0  0
    2.2212    2.2185   -0.4893 O   0  0  0  0  0  0  0  0  0  0  0  0
    2.8988    3.4488   -0.5204 C   0  0  0  0  0  0  0  0  0  0  0  0
    2.7981    4.0296   -1.9118 C   0  0  0  0  0  0  0  0  0  0  0  0
    3.2294   -0.9309    0.0486 H   0  0  0  0  0  0  0  0  0  0  0  0
    2.2338   -0.3181   -1.2734 H   0  0  0  0  0  0  0  0  0  0  0  0
    1.6610   -1.6680   -0.2875 H   0  0  0  0  0  0  0  0  0  0  0  0
    1.4990   -0.1566    1.7002 H   0  0  0  0  0  0  0  0  0  0  0  0
    0.5055    0.4455    0.3835 H   0  0  0  0  0  0  0  0  0  0  0  0
    3.3038    1.4410    1.0808 H   0  0  0  0  0  0  0  0  0  0  0  0
    1.7844    2.2410    1.5226 H   0  0  0  0  0  0  0  0  0  0  0  0
    2.4596    4.1376    0.2164 H   0  0  0  0  0  0  0  0  0  0  0  0
    3.9524    3.3035   -0.2397 H   0  0  0  0  0  0  0  0  0  0  0  0
    1.7543    4.1869   -2.1856 H   0  0  0  0  0  0  0  0  0  0  0  0
    3.2472    3.3545   -2.6411 H   0  0  0  0  0  0  0  0  0  0  0  0
    3.3178    4.9878   -1.9600 H   0  0  0  0  0  0  0  0  0  0  0  0
  1  2  1  0
  1  7  1  0
  1  8  1  0
  1  9  1  0
  2  3  1  0
  2 10  1  0
  2 11  1  0
  3  4  1  0
  3 12  1  0
  3 13  1  0
  4  5  1  0
  5  6  1  0
  5 14  1  0
  5 15  1  0
  6 16  1  0
  6 17  1  0
  6 18  1  0
M  END
>  <reaction>  (3) 
rmg_rxn_339

>  <mol_properties>  (3) 
{"0": {"label": "acceptor", "atom_type": "Cs"}, "17": {"label": "a_hydrogen", "atom_type": "H0"}}

>  <type>  (3) 
r2h

$$$$

     RDKit          3D

 35 33  0  0  0  0  0  0  0  0999 V2000
    0.4141    0.6641    1.4396 C   0  0  0  0  0  3  0  0  0  0  0  0
   -0.0156    1.3887    0.1878 C   0  0  0  0  0  0  0  0  0  0  0  0
    1.1290    2.0701   -0.5432 C   0  0  0  0  0  0  0  0  0  0  0  0
    2.0211    1.0843   -0.9995 O   0  0  0  0  0  0  0  0  0  0  0  0
    3.1488    1.6062   -1.6542 C   0  0  0  0  0  0  0  0  0  0  0  0
    4.0280    0.4608   -2.0999 C   0  0  0  0  0  0  0  0  0  0  0  0
    1.3769    0.1645    1.3573 H   0  0  0  0  0  0  0  0  0  0  0  0
    0.3166    1.2211    2.3691 H   0  0  0  0  0  0  0  0  0  0  0  0
   -0.7713    2.1430    0.4218 H   0  0  0  0  0  0  0  0  0  0  0  0
   -0.4833    0.6873   -0.5113 H   0  0  0  0  0  0  0  0  0  0  0  0
    1.6514    2.7701    0.1263 H   0  0  0  0  0  0  0  0  0  0  0  0
    0.7438    2.6501   -1.3951 H   0  0  0  0  0  0  0  0  0  0  0  0
    2.8350    2.2092   -2.5191 H   0  0  0  0  0  0  0  0  0  0  0  0
    3.7003    2.2741   -0.9763 H   0  0  0  0  0  0  0  0  0  0  0  0
    3.4846   -0.1947   -2.7814 H   0  0  0  0  0  0  0  0  0  0  0  0
    4.9126    0.8401   -2.6138 H   0  0  0  0  0  0  0  0  0  0  0  0
    4.3519   -0.1285   -1.2412 H   0  0  0  0  0  0  0  0  0  0  0  0
    0.0976   -2.2782   -0.5307 C   0  0  0  0  0  0  0  0  0  0  0  0
   -0.4775   -2.5888    0.8474 C   0  0  0  0  0  0  0  0  0  0  0  0
   -1.2658   -1.4555    1.4472 C   0  0  0  0  0  0  0  0  0  0  0  0
   -2.3059   -1.0635    0.6223 O   0  0  0  0  0  0  0  0  0  0  0  0
   -3.1427   -0.0798    1.1874 C   0  0  0  0  0  0  0  0  0  0  0  0
   -4.1468    0.3608    0.1491 C   0  0  0  0  0  0  0  0  0  0  0  0
    0.7862   -1.4321   -0.4968 H   0  0  0  0  0  0  0  0  0  0  0  0
   -0.6985   -2.0340   -1.2345 H   0  0  0  0  0  0  0  0  0  0  0  0
    0.6418   -3.1392   -0.9218 H   0  0  0  0  0  0  0  0  0  0  0  0
    0.3292   -2.8320    1.5446 H   0  0  0  0  0  0  0  0  0  0  0  0
   -1.1180   -3.4762    0.7882 H   0  0  0  0  0  0  0  0  0  0  0  0
   -0.4526   -0.4321    1.5634 H   0  0  0  0  0  0  0  0  0  0  0  0
   -1.6041   -1.6528    2.4733 H   0  0  0  0  0  0  0  0  0  0  0  0
   -3.6489   -0.4916    2.0716 H   0  0  0  0  0  0  0  0  0  0  0  0
   -2.5366    0.7709    1.5238 H   0  0  0  0  0  0  0  0  0  0  0  0
   -4.7433   -0.4862   -0.1915 H   0  0  0  0  0  0  0  0  0  0  0  0
   -3.6379    0.7929   -0.7134 H   0  0  0  0  0  0  0  0  0  0  0  0
   -4.8181    1.1117    0.5684 H   0  0  0  0  0  0  0  0  0  0  0  0
  1  2  1  0
  1  7  1  0
  1  8  1  0
  2  3  1  0
  2  9  1  0
  2 10  1  0
  3  4  1  0
  3 11  1  0
  3 12  1  0
  4  5  1  0
  5  6  1  0
  5 13  1  0
  5 14  1  0
  6 15  1  0
  6 16  1  0
  6 17  1  0
 18 19  1  0
 18 24  1  0
 18 25  1  0
 18 26  1  0
 19 20  1  0
 19 27  1  0
 19 28  1  0
 20 21  1  0
 20 29  1  0
 20 30  1  0
 21 22  1  0
 22 23  1  0
 22 31  1  0
 22 32  1  0
 23 33  1  0
 23 34  1  0
 23 35  1  0
M  RAD  1   1   2
M  END
>  <reaction>  (4) 
rmg_rxn_339

>  <mol_properties>  (4) 
{"0": {"label": "*3", "atom_type": "Cs"}, "1": {"label": "*4", "atom_type": "Cs"}, "19": {"label": "*1", "atom_type": "Cs"}, "20": {"label": "*0", "atom_type": "O2s"}, "28": {"label": "*2", "atom_type": "H0"}}

>  <type>  (4) 
ts

$$$$

     RDKit          3D

 35 33  0  0  0  0  0  0  0  0999 V2000
    0.7526   -0.5514    0.1628 C   0  0  0  0  0  0  0  0  0  0  0  0
    0.3234    0.7008   -0.5903 C   0  0  0  0  0  0  0  0  0  0  0  0
    1.1933    1.9041   -0.2894 C   0  0  0  0  0  0  0  0  0  0  0  0
    2.5066    1.6486   -0.7194 O   0  0  0  0  0  0  0  0  0  0  0  0
    3.3957    2.7018   -0.4474 C   0  0  0  0  0  0  0  0  0  0  0  0
    4.7711    2.3245   -0.9469 C   0  0  0  0  0  0  0  0  0  0  0  0
    1.7749   -0.8265   -0.0966 H   0  0  0  0  0  0  0  0  0  0  0  0
    0.7121   -0.3896    1.2428 H   0  0  0  0  0  0  0  0  0  0  0  0
   -0.7079    0.9590   -0.3342 H   0  0  0  0  0  0  0  0  0  0  0  0
    0.3457    0.5169   -1.6676 H   0  0  0  0  0  0  0  0  0  0  0  0
    1.1871    2.1140    0.7919 H   0  0  0  0  0  0  0  0  0  0  0  0
    0.7990    2.7962   -0.7979 H   0  0  0  0  0  0  0  0  0  0  0  0
    3.0477    3.6228   -0.9383 H   0  0  0  0  0  0  0  0  0  0  0  0
    3.4207    2.9012    0.6341 H   0  0  0  0  0  0  0  0  0  0  0  0
    4.7501    2.1401   -2.0216 H   0  0  0  0  0  0  0  0  0  0  0  0
    5.4800    3.1294   -0.7467 H   0  0  0  0  0  0  0  0  0  0  0  0
    5.1235    1.4202   -0.4495 H   0  0  0  0  0  0  0  0  0  0  0  0
   -1.3354   -3.2942   -1.0949 C   0  0  0  0  0  0  0  0  0  0  0  0
   -1.3354   -3.2942    0.4280 C   0  0  0  0  0  0  0  0  0  0  0  0
   -1.3354   -1.9011    1.0236 C   0  0  0  0  0  3  0  0  0  0  0  0
   -2.5184   -1.2375    0.6560 O   0  0  0  0  0  0  0  0  0  0  0  0
   -2.5891    0.0806    1.1369 C   0  0  0  0  0  0  0  0  0  0  0  0
   -3.8924    0.6983    0.6860 C   0  0  0  0  0  0  0  0  0  0  0  0
   -0.4533   -2.7798   -1.4845 H   0  0  0  0  0  0  0  0  0  0  0  0
   -2.2181   -2.7845   -1.4809 H   0  0  0  0  0  0  0  0  0  0  0  0
   -1.3299   -4.3120   -1.4875 H   0  0  0  0  0  0  0  0  0  0  0  0
   -0.4539   -3.8206    0.8043 H   0  0  0  0  0  0  0  0  0  0  0  0
   -2.2098   -3.8321    0.8033 H   0  0  0  0  0  0  0  0  0  0  0  0
   -0.2863   -1.2230    0.5911 H   0  0  0  0  0  0  0  0  0  0  0  0
   -1.2606   -1.9550    2.1196 H   0  0  0  0  0  0  0  0  0  0  0  0
   -2.5218    0.0834    2.2349 H   0  0  0  0  0  0  0  0  0  0  0  0
   -1.7362    0.6635    0.7590 H   0  0  0  0  0  0  0  0  0  0  0  0
   -4.7388    0.1289    1.0717 H   0  0  0  0  0  0  0  0  0  0  0  0
   -3.9532    0.7102   -0.4028 H   0  0  0  0  0  0  0  0  0  0  0  0
   -3.9700    1.7244    1.0491 H   0  0  0  0  0  0  0  0  0  0  0  0
  1  2  1  0
  1  7  1  0
  1  8  1  0
  1 29  1  0
  2  3  1  0
  2  9  1  0
  2 10  1  0
  3  4  1  0
  3 11  1  0
  3 12  1  0
  4  5  1  0
  5  6  1  0
  5 13  1  0
  5 14  1  0
  6 15  1  0
  6 16  1  0
  6 17  1  0
 18 19  1  0
 18 24  1  0
 18 25  1  0
 18 26  1  0
 19 20  1  0
 19 27  1  0
 19 28  1  0
 20 21  1  0
 20 30  1  0
 21 22  1  0
 22 23  1  0
 22 31  1  0
 22 32  1  0
 23 33  1  0
 23 34  1  0
 23 35  1  0
M  RAD  1  20   2
M  END
>  <reaction>  (5) 
rmg_rxn_339

>  <mol_properties>  (5) 
{"0": {"label": "*3", "atom_type": "Cs"}, "1": {"label": "*4", "atom_type": "Cs"}, "19": {"label": "*1", "atom_type": "Cs"}, "20": {"label": "*0", "atom_type": "O2s"}, "28": {"label": "*2", "atom_type": "H0"}}

>  <type>  (5) 
unop_1

>  <geom_source>  (5) 
Heuristics

$$$$

     RDKit          3D

 35 33  0  0  0  0  0  0  0  0999 V2000
    0.4395    0.1064    0.5209 C   0  0  0  0  0  0  0  0  0  0  0  0
    0.8511   -0.3505   -0.8723 C   0  0  0  0  0  0  0  0  0  0  0  0
    1.7318    0.6508   -1.5914 C   0  0  0  0  0  0  0  0  0  0  0  0
    2.9363    0.8041   -0.8840 O   0  0  0  0  0  0  0  0  0  0  0  0
    3.8047    1.7452   -1.4617 C   0  0  0  0  0  0  0  0  0  0  0  0
    5.0609    1.8319   -0.6262 C   0  0  0  0  0  0  0  0  0  0  0  0
    1.3156    0.2666    1.1492 H   0  0  0  0  0  0  0  0  0  0  0  0
   -0.1167    1.0460    0.4743 H   0  0  0  0  0  0  0  0  0  0  0  0
   -0.0353   -0.5225   -1.4891 H   0  0  0  0  0  0  0  0  0  0  0  0
    1.3850   -1.3024   -0.8126 H   0  0  0  0  0  0  0  0  0  0  0  0
    1.2160    1.6212   -1.6681 H   0  0  0  0  0  0  0  0  0  0  0  0
    1.9394    0.3092   -2.6161 H   0  0  0  0  0  0  0  0  0  0  0  0
    4.0483    1.4477   -2.4925 H   0  0  0  0  0  0  0  0  0  0  0  0
    3.3108    2.7266   -1.5164 H   0  0  0  0  0  0  0  0  0  0  0  0
    5.5586    0.8625   -0.5828 H   0  0  0  0  0  0  0  0  0  0  0  0
    5.7521    2.5580   -1.0569 H   0  0  0  0  0  0  0  0  0  0  0  0
    4.8221    2.1419    0.3918 H   0  0  0  0  0  0  0  0  0  0  0  0
   -1.6485   -2.6364   -0.7367 C   0  0  0  0  0  0  0  0  0  0  0  0
   -1.6485   -2.6364    0.7862 C   0  0  0  0  0  0  0  0  0  0  0  0
   -1.6485   -1.2433    1.3817 C   0  0  0  0  0  3  0  0  0  0  0  0
   -2.8315   -0.5797    1.0141 O   0  0  0  0  0  0  0  0  0  0  0  0
   -2.9022    0.7383    1.4950 C   0  0  0  0  0  0  0  0  0  0  0  0
   -4.2056    1.3561    1.0442 C   0  0  0  0  0  0  0  0  0  0  0  0
   -0.7664   -2.1220   -1.1264 H   0  0  0  0  0  0  0  0  0  0  0  0
   -2.5312   -2.1267   -1.1228 H   0  0  0  0  0  0  0  0  0  0  0  0
   -1.6430   -3.6542   -1.1294 H   0  0  0  0  0  0  0  0  0  0  0  0
   -0.7670   -3.1628    1.1624 H   0  0  0  0  0  0  0  0  0  0  0  0
   -2.5229   -3.1743    1.1614 H   0  0  0  0  0  0  0  0  0  0  0  0
   -0.5995   -0.5652    0.9492 H   0  0  0  0  0  0  0  0  0  0  0  0
   -1.5737   -1.2972    2.4777 H   0  0  0  0  0  0  0  0  0  0  0  0
   -2.8350    0.7412    2.5931 H   0  0  0  0  0  0  0  0  0  0  0  0
   -2.0494    1.3213    1.1171 H   0  0  0  0  0  0  0  0  0  0  0  0
   -5.0519    0.7867    1.4298 H   0  0  0  0  0  0  0  0  0  0  0  0
   -4.2664    1.3680   -0.0447 H   0  0  0  0  0  0  0  0  0  0  0  0
   -4.2832    2.3822    1.4072 H   0  0  0  0  0  0  0  0  0  0  0  0
  1  2  1  0
  1  7  1  0
  1  8  1  0
  1 29  1  0
  2  3  1  0
  2  9  1  0
  2 10  1  0
  3  4  1  0
  3 11  1  0
  3 12  1  0
  4  5  1  0
  5  6  1  0
  5 13  1  0
  5 14  1  0
  6 15  1  0
  6 16  1  0
  6 17  1  0
 18 19  1  0
 18 24  1  0
 18 25  1  0
 18 26  1  0
 19 20  1  0
 19 27  1  0
 19 28  1  0
 20 21  1  0
 20 30  1  0
 21 22  1  0
 22 23  1  0
 22 31  1  0
 22 32  1  0
 23 33  1  0
 23 34  1  0
 23 35  1  0
M  RAD  1  20   2
M  END
>  <reaction>  (6) 
rmg_rxn_339

>  <mol_properties>  (6) 
{"0": {"label": "*3", "atom_type": "Cs"}, "1": {"label": "*4", "atom_type": "Cs"}, "19": {"label": "*1", "atom_type": "Cs"}, "20": {"label": "*0", "atom_type": "O2s"}, "28": {"label": "*2", "atom_type": "H0"}}

>  <type>  (6) 
unop_2

>  <geom_source>  (6) 
Heuristics

$$$$

     RDKit          3D

 35 33  0  0  0  0  0  0  0  0999 V2000
    0.6667   -0.4906    0.1446 C   0  0  0  0  0  0  0  0  0  0  0  0
    0.3650    1.0005    0.0754 C   0  0  0  0  0  0  0  0  0  0  0  0
    1.5910    1.8664    0.2809 C   0  0  0  0  0  0  0  0  0  0  0  0
    2.5085    1.6284   -0.7567 O   0  0  0  0  0  0  0  0  0  0  0  0
    3.6971    2.3660   -0.6282 C   0  0  0  0  0  0  0  0  0  0  0  0
    4.6076    2.0360   -1.7882 C   0  0  0  0  0  0  0  0  0  0  0  0
    1.3874   -0.7747   -0.6221 H   0  0  0  0  0  0  0  0  0  0  0  0
    1.0878   -0.7582    1.1170 H   0  0  0  0  0  0  0  0  0  0  0  0
   -0.3698    1.2716    0.8386 H   0  0  0  0  0  0  0  0  0  0  0  0
   -0.0774    1.2493   -0.8927 H   0  0  0  0  0  0  0  0  0  0  0  0
    2.0567    1.6376    1.2526 H   0  0  0  0  0  0  0  0  0  0  0  0
    1.3090    2.9294    0.2957 H   0  0  0  0  0  0  0  0  0  0  0  0
    3.4707    3.4425   -0.6114 H   0  0  0  0  0  0  0  0  0  0  0  0
    4.1872    2.1236    0.3264 H   0  0  0  0  0  0  0  0  0  0  0  0
    4.1280    2.2889   -2.7344 H   0  0  0  0  0  0  0  0  0  0  0  0
    5.5390    2.5989   -1.7098 H   0  0  0  0  0  0  0  0  0  0  0  0
    4.8453    0.9716   -1.7966 H   0  0  0  0  0  0  0  0  0  0  0  0
   -1.4213   -3.2334   -1.1130 C   0  0  0  0  0  0  0  0  0  0  0  0
   -1.4213   -3.2334    0.4099 C   0  0  0  0  0  0  0  0  0  0  0  0
   -1.4213   -1.8403    1.0054 C   0  0  0  0  0  3  0  0  0  0  0  0
   -2.6043   -1.1767    0.6378 O   0  0  0  0  0  0  0  0  0  0  0  0
   -2.6750    0.1414    1.1187 C   0  0  0  0  0  0  0  0  0  0  0  0
   -3.9784    0.7591    0.6679 C   0  0  0  0  0  0  0  0  0  0  0  0
   -0.5392   -2.7190   -1.5026 H   0  0  0  0  0  0  0  0  0  0  0  0
   -2.3040   -2.7237   -1.4991 H   0  0  0  0  0  0  0  0  0  0  0  0
   -1.4158   -4.2512   -1.5057 H   0  0  0  0  0  0  0  0  0  0  0  0
   -0.5398   -3.7598    0.7862 H   0  0  0  0  0  0  0  0  0  0  0  0
   -2.2957   -3.7713    0.7852 H   0  0  0  0  0  0  0  0  0  0  0  0
   -0.3723   -1.1622    0.5729 H   0  0  0  0  0  0  0  0  0  0  0  0
   -1.3465   -1.8942    2.1015 H   0  0  0  0  0  0  0  0  0  0  0  0
   -2.6078    0.1442    2.2168 H   0  0  0  0  0  0  0  0  0  0  0  0
   -1.8222    0.7243    0.7408 H   0  0  0  0  0  0  0  0  0  0  0  0
   -4.8247    0.1897    1.0536 H   0  0  0  0  0  0  0  0  0  0  0  0
   -4.0392    0.7710   -0.4209 H   0  0  0  0  0  0  0  0  0  0  0  0
   -4.0560    1.7852    1.0309 H   0  0  0  0  0  0  0  0  0  0  0  0
  1  2  1  0
  1  7  1  0
  1  8  1  0
  1 29  1  0
  2  3  1  0
  2  9  1  0
  2 10  1  0
  3  4  1  0
  3 11  1  0
  3 12  1  0
  4  5  1  0
  5  6  1  0
  5 13  1  0
  5 14  1  0
  6 15  1  0
  6 16  1  0
  6 17  1  0
 18 19  1  0
 18 24  1  0
 18 25  1  0
 18 26  1  0
 19 20  1  0
 19 27  1  0
 19 28  1  0
 20 21  1  0
 20 30  1  0
 21 22  1  0
 22 23  1  0
 22 31  1  0
 22 32  1  0
 23 33  1  0
 23 34  1  0
 23 35  1  0
M  RAD  1  20   2
M  END
>  <reaction>  (7) 
rmg_rxn_339

>  <mol_properties>  (7) 
{"0": {"label": "*3", "atom_type": "Cs"}, "1": {"label": "*4", "atom_type": "Cs"}, "19": {"label": "*1", "atom_type": "Cs"}, "20": {"label": "*0", "atom_type": "O2s"}, "28": {"label": "*2", "atom_type": "H0"}}

>  <type>  (7) 
unop_3

>  <geom_source>  (7) 
Heuristics

$$$$

     RDKit          3D

 35 33  0  0  0  0  0  0  0  0999 V2000
    0.4899   -0.0249   -0.8211 C   0  0  0  0  0  0  0  0  0  0  0  0
    1.7890   -0.7147   -0.4267 C   0  0  0  0  0  0  0  0  0  0  0  0
    2.9291    0.2542   -0.1880 C   0  0  0  0  0  0  0  0  0  0  0  0
    2.6116    1.0885    0.8974 O   0  0  0  0  0  0  0  0  0  0  0  0
    3.6016    2.0472    1.1701 C   0  0  0  0  0  0  0  0  0  0  0  0
    3.1614    2.8864    2.3472 C   0  0  0  0  0  0  0  0  0  0  0  0
    0.1642    0.6612   -0.0392 H   0  0  0  0  0  0  0  0  0  0  0  0
    0.6182    0.5509   -1.7411 H   0  0  0  0  0  0  0  0  0  0  0  0
    2.0984   -1.4112   -1.2109 H   0  0  0  0  0  0  0  0  0  0  0  0
    1.6398   -1.3055    0.4808 H   0  0  0  0  0  0  0  0  0  0  0  0
    3.1033    0.8623   -1.0898 H   0  0  0  0  0  0  0  0  0  0  0  0
    3.8589   -0.2952    0.0205 H   0  0  0  0  0  0  0  0  0  0  0  0
    4.5570    1.5479    1.3898 H   0  0  0  0  0  0  0  0  0  0  0  0
    3.7635    2.6806    0.2854 H   0  0  0  0  0  0  0  0  0  0  0  0
    3.0139    2.2611    3.2284 H   0  0  0  0  0  0  0  0  0  0  0  0
    3.9166    3.6393    2.5782 H   0  0  0  0  0  0  0  0  0  0  0  0
    2.2222    3.3941    2.1245 H   0  0  0  0  0  0  0  0  0  0  0  0
   -1.5981   -2.7676   -2.0787 C   0  0  0  0  0  0  0  0  0  0  0  0
   -1.5981   -2.7676   -0.5558 C   0  0  0  0  0  0  0  0  0  0  0  0
   -1.5981   -1.3746    0.0397 C   0  0  0  0  0  3  0  0  0  0  0  0
   -2.7811   -0.7110   -0.3279 O   0  0  0  0  0  0  0  0  0  0  0  0
   -2.8518    0.6071    0.1530 C   0  0  0  0  0  0  0  0  0  0  0  0
   -4.1552    1.2249   -0.2978 C   0  0  0  0  0  0  0  0  0  0  0  0
   -0.7161   -2.2533   -2.4683 H   0  0  0  0  0  0  0  0  0  0  0  0
   -2.4809   -2.2579   -2.4648 H   0  0  0  0  0  0  0  0  0  0  0  0
   -1.5927   -3.7855   -2.4714 H   0  0  0  0  0  0  0  0  0  0  0  0
   -0.7166   -3.2941   -0.1795 H   0  0  0  0  0  0  0  0  0  0  0  0
   -2.4725   -3.3056   -0.1805 H   0  0  0  0  0  0  0  0  0  0  0  0
   -0.5491   -0.6965   -0.3928 H   0  0  0  0  0  0  0  0  0  0  0  0
   -1.5233   -1.4285    1.1357 H   0  0  0  0  0  0  0  0  0  0  0  0
   -2.7846    0.6099    1.2511 H   0  0  0  0  0  0  0  0  0  0  0  0
   -1.9990    1.1901   -0.2249 H   0  0  0  0  0  0  0  0  0  0  0  0
   -5.0015    0.6555    0.0879 H   0  0  0  0  0  0  0  0  0  0  0  0
   -4.2160    1.2367   -1.3867 H   0  0  0  0  0  0  0  0  0  0  0  0
   -4.2328    2.2509    0.0652 H   0  0  0  0  0  0  0  0  0  0  0  0
  1  2  1  0
  1  7  1  0
  1  8  1  0
  1 29  1  0
  2  3  1  0
  2  9  1  0
  2 10  1  0
  3  4  1  0
  3 11  1  0
  3 12  1  0
  4  5  1  0
  5  6  1  0
  5 13  1  0
  5 14  1  0
  6 15  1  0
  6 16  1  0
  6 17  1  0
 18 19  1  0
 18 24  1  0
 18 25  1  0
 18 26  1  0
 19 20  1  0
 19 27  1  0
 19 28  1  0
 20 21  1  0
 20 30  1  0
 21 22  1  0
 22 23  1  0
 22 31  1  0
 22 32  1  0
 23 33  1  0
 23 34  1  0
 23 35  1  0
M  RAD  1  20   2
M  END
>  <reaction>  (8) 
rmg_rxn_339

>  <mol_properties>  (8) 
{"0": {"label": "*3", "atom_type": "Cs"}, "1": {"label": "*4", "atom_type": "Cs"}, "19": {"label": "*1", "atom_type": "Cs"}, "20": {"label": "*0", "atom_type": "O2s"}, "28": {"label": "*2", "atom_type": "H0"}}

>  <type>  (8) 
unop_4

>  <geom_source>  (8) 
Heuristics

$$$$

     RDKit          3D

 35 33  0  0  0  0  0  0  0  0999 V2000
    0.9034   -0.5816    0.3280 C   0  0  0  0  0  0  0  0  0  0  0  0
    0.9265    0.8243    0.9130 C   0  0  0  0  0  0  0  0  0  0  0  0
    2.1164    1.6414    0.4527 C   0  0  0  0  0  0  0  0  0  0  0  0
    2.0458    1.8235   -0.9390 O   0  0  0  0  0  0  0  0  0  0  0  0
    3.1328    2.5440   -1.4614 C   0  0  0  0  0  0  0  0  0  0  0  0
    2.9583    2.6806   -2.9562 C   0  0  0  0  0  0  0  0  0  0  0  0
    0.8614   -0.5461   -0.7606 H   0  0  0  0  0  0  0  0  0  0  0  0
    1.8013   -1.1364    0.6115 H   0  0  0  0  0  0  0  0  0  0  0  0
    0.9536    0.7769    2.0052 H   0  0  0  0  0  0  0  0  0  0  0  0
    0.0125    1.3587    0.6417 H   0  0  0  0  0  0  0  0  0  0  0  0
    3.0535    1.1259    0.7162 H   0  0  0  0  0  0  0  0  0  0  0  0
    2.1270    2.6179    0.9587 H   0  0  0  0  0  0  0  0  0  0  0  0
    3.1876    3.5358   -0.9885 H   0  0  0  0  0  0  0  0  0  0  0  0
    4.0736    2.0229   -1.2301 H   0  0  0  0  0  0  0  0  0  0  0  0
    2.0326    3.2093   -3.1862 H   0  0  0  0  0  0  0  0  0  0  0  0
    3.7923    3.2385   -3.3848 H   0  0  0  0  0  0  0  0  0  0  0  0
    2.9196    1.6980   -3.4278 H   0  0  0  0  0  0  0  0  0  0  0  0
   -1.1846   -3.3243   -0.9297 C   0  0  0  0  0  0  0  0  0  0  0  0
   -1.1846   -3.3243    0.5933 C   0  0  0  0  0  0  0  0  0  0  0  0
   -1.1846   -1.9313    1.1888 C   0  0  0  0  0  3  0  0  0  0  0  0
   -2.3676   -1.2677    0.8212 O   0  0  0  0  0  0  0  0  0  0  0  0
   -2.4383    0.0504    1.3021 C   0  0  0  0  0  0  0  0  0  0  0  0
   -3.7416    0.6682    0.8512 C   0  0  0  0  0  0  0  0  0  0  0  0
   -0.3025   -2.8100   -1.3193 H   0  0  0  0  0  0  0  0  0  0  0  0
   -2.0673   -2.8146   -1.3157 H   0  0  0  0  0  0  0  0  0  0  0  0
   -1.1791   -4.3422   -1.3223 H   0  0  0  0  0  0  0  0  0  0  0  0
   -0.3031   -3.8508    0.9695 H   0  0  0  0  0  0  0  0  0  0  0  0
   -2.0590   -3.8623    0.9685 H   0  0  0  0  0  0  0  0  0  0  0  0
   -0.1356   -1.2532    0.7563 H   0  0  0  0  0  0  0  0  0  0  0  0
   -1.1098   -1.9852    2.2848 H   0  0  0  0  0  0  0  0  0  0  0  0
   -2.3711    0.0532    2.4001 H   0  0  0  0  0  0  0  0  0  0  0  0
   -1.5855    0.6334    0.9242 H   0  0  0  0  0  0  0  0  0  0  0  0
   -4.5880    0.0988    1.2369 H   0  0  0  0  0  0  0  0  0  0  0  0
   -3.8024    0.6800   -0.2376 H   0  0  0  0  0  0  0  0  0  0  0  0
   -3.8193    1.6942    1.2143 H   0  0  0  0  0  0  0  0  0  0  0  0
  1  2  1  0
  1  7  1  0
  1  8  1  0
  1 29  1  0
  2  3  1  0
  2  9  1  0
  2 10  1  0
  3  4  1  0
  3 11  1  0
  3 12  1  0
  4  5  1  0
  5  6  1  0
  5 13  1  0
  5 14  1  0
  6 15  1  0
  6 16  1  0
  6 17  1  0
 18 19  1  0
 18 24  1  0
 18 25  1  0
 18 26  1  0
 19 20  1  0
 19 27  1  0
 19 28  1  0
 20 21  1  0
 20 30  1  0
 21 22  1  0
 22 23  1  0
 22 31  1  0
 22 32  1  0
 23 33  1  0
 23 34  1  0
 23 35  1  0
M  RAD  1  20   2
M  END
>  <reaction>  (9) 
rmg_rxn_339

>  <mol_properties>  (9) 
{"0": {"label": "*3", "atom_type": "Cs"}, "1": {"label": "*4", "atom_type": "Cs"}, "19": {"label": "*1", "atom_type": "Cs"}, "20": {"label": "*0", "atom_type": "O2s"}, "28": {"label": "*2", "atom_type": "H0"}}

>  <type>  (9) 
unop_5

>  <geom_source>  (9) 
Heuristics

$$$$

     RDKit          3D

 35 33  0  0  0  0  0  0  0  0999 V2000
    0.8693   -0.4245   -0.8580 C   0  0  0  0  0  0  0  0  0  0  0  0
    2.0644   -0.6152    0.0665 C   0  0  0  0  0  0  0  0  0  0  0  0
    2.8708    0.6517    0.2665 C   0  0  0  0  0  0  0  0  0  0  0  0
    2.0694    1.6192    0.8964 O   0  0  0  0  0  0  0  0  0  0  0  0
    2.7272    2.8452    1.0911 C   0  0  0  0  0  0  0  0  0  0  0  0
    1.7808    3.8077    1.7704 C   0  0  0  0  0  0  0  0  0  0  0  0
    0.1872    0.3254   -0.4575 H   0  0  0  0  0  0  0  0  0  0  0  0
    1.1916   -0.0910   -1.8476 H   0  0  0  0  0  0  0  0  0  0  0  0
    2.7341   -1.3797   -0.3370 H   0  0  0  0  0  0  0  0  0  0  0  0
    1.7295   -0.9715    1.0441 H   0  0  0  0  0  0  0  0  0  0  0  0
    3.2238    1.0323   -0.7051 H   0  0  0  0  0  0  0  0  0  0  0  0
    3.7604    0.4447    0.8793 H   0  0  0  0  0  0  0  0  0  0  0  0
    3.6280    2.6944    1.7045 H   0  0  0  0  0  0  0  0  0  0  0  0
    3.0588    3.2503    0.1236 H   0  0  0  0  0  0  0  0  0  0  0  0
    1.4624    3.4131    2.7359 H   0  0  0  0  0  0  0  0  0  0  0  0
    2.2712    4.7688    1.9328 H   0  0  0  0  0  0  0  0  0  0  0  0
    0.8946    3.9700    1.1558 H   0  0  0  0  0  0  0  0  0  0  0  0
   -1.2187   -3.1672   -2.1156 C   0  0  0  0  0  0  0  0  0  0  0  0
   -1.2187   -3.1672   -0.5927 C   0  0  0  0  0  0  0  0  0  0  0  0
   -1.2187   -1.7742    0.0028 C   0  0  0  0  0  3  0  0  0  0  0  0
   -2.4017   -1.1106   -0.3648 O   0  0  0  0  0  0  0  0  0  0  0  0
   -2.4724    0.2075    0.1161 C   0  0  0  0  0  0  0  0  0  0  0  0
   -3.7757    0.8253   -0.3347 C   0  0  0  0  0  0  0  0  0  0  0  0
   -0.3366   -2.6529   -2.5052 H   0  0  0  0  0  0  0  0  0  0  0  0
   -2.1014   -2.6575   -2.5017 H   0  0  0  0  0  0  0  0  0  0  0  0
   -1.2132   -4.1851   -2.5083 H   0  0  0  0  0  0  0  0  0  0  0  0
   -0.3372   -3.6937   -0.2164 H   0  0  0  0  0  0  0  0  0  0  0  0
   -2.0931   -3.7052   -0.2174 H   0  0  0  0  0  0  0  0  0  0  0  0
   -0.1696   -1.0961   -0.4296 H   0  0  0  0  0  0  0  0  0  0  0  0
   -1.1439   -1.8281    1.0989 H   0  0  0  0  0  0  0  0  0  0  0  0
   -2.4051    0.2103    1.2142 H   0  0  0  0  0  0  0  0  0  0  0  0
   -1.6195    0.7905   -0.2617 H   0  0  0  0  0  0  0  0  0  0  0  0
   -4.6221    0.2559    0.0510 H   0  0  0  0  0  0  0  0  0  0  0  0
   -3.8365    0.8371   -1.4235 H   0  0  0  0  0  0  0  0  0  0  0  0
   -3.8533    1.8513    0.0284 H   0  0  0  0  0  0  0  0  0  0  0  0
  1  2  1  0
  1  7  1  0
  1  8  1  0
  1 29  1  0
  2  3  1  0
  2  9  1  0
  2 10  1  0
  3  4  1  0
  3 11  1  0
  3 12  1  0
  4  5  1  0
  5  6  1  0
  5 13  1  0
  5 14  1  0
  6 15  1  0
  6 16  1  0
  6 17  1  0
 18 19  1  0
 18 24  1  0
 18 25  1  0
 18 26  1  0
 19 20  1  0
 19 27  1  0
 19 28  1  0
 20 21  1  0
 20 30  1  0
 21 22  1  0
 22 23  1  0
 22 31  1  0
 22 32  1  0
 23 33  1  0
 23 34  1  0
 23 35  1  0
M  RAD  1  20   2
M  END
>  <reaction>  (10) 
rmg_rxn_339

>  <mol_properties>  (10) 
{"0": {"label": "*3", "atom_type": "Cs"}, "1": {"label": "*4", "atom_type": "Cs"}, "19": {"label": "*1", "atom_type": "Cs"}, "20": {"label": "*0", "atom_type": "O2s"}, "28": {"label": "*2", "atom_type": "H0"}}

>  <type>  (10) 
unop_6

>  <geom_source>  (10) 
Heuristics

$$$$

     RDKit          3D

 35 33  0  0  0  0  0  0  0  0999 V2000
    1.2073   -0.7316   -0.5394 C   0  0  0  0  0  0  0  0  0  0  0  0
    2.0946   -0.2967    0.6194 C   0  0  0  0  0  0  0  0  0  0  0  0
    2.6561    1.0999    0.4480 C   0  0  0  0  0  0  0  0  0  0  0  0
    1.6001    2.0269    0.4256 O   0  0  0  0  0  0  0  0  0  0  0  0
    2.0268    3.3515    0.2338 C   0  0  0  0  0  0  0  0  0  0  0  0
    0.8192    4.2599    0.2251 C   0  0  0  0  0  0  0  0  0  0  0  0
    0.3564   -0.0590   -0.6477 H   0  0  0  0  0  0  0  0  0  0  0  0
    1.7634   -0.7237   -1.4802 H   0  0  0  0  0  0  0  0  0  0  0  0
    2.9363   -0.9864    0.7283 H   0  0  0  0  0  0  0  0  0  0  0  0
    1.5327   -0.3324    1.5563 H   0  0  0  0  0  0  0  0  0  0  0  0
    3.2308    1.1638   -0.4896 H   0  0  0  0  0  0  0  0  0  0  0  0
    3.3461    1.3371    1.2711 H   0  0  0  0  0  0  0  0  0  0  0  0
    2.7207    3.6421    1.0365 H   0  0  0  0  0  0  0  0  0  0  0  0
    2.5770    3.4342   -0.7152 H   0  0  0  0  0  0  0  0  0  0  0  0
    0.2808    4.1889    1.1708 H   0  0  0  0  0  0  0  0  0  0  0  0
    1.1268    5.2964    0.0777 H   0  0  0  0  0  0  0  0  0  0  0  0
    0.1381    3.9825   -0.5802 H   0  0  0  0  0  0  0  0  0  0  0  0
   -0.8807   -3.4743   -1.7970 C   0  0  0  0  0  0  0  0  0  0  0  0
   -0.8807   -3.4743   -0.2741 C   0  0  0  0  0  0  0  0  0  0  0  0
   -0.8807   -2.0813    0.3214 C   0  0  0  0  0  3  0  0  0  0  0  0
   -2.0637   -1.4177   -0.0462 O   0  0  0  0  0  0  0  0  0  0  0  0
   -2.1344   -0.0996    0.4347 C   0  0  0  0  0  0  0  0  0  0  0  0
   -3.4377    0.5182   -0.0161 C   0  0  0  0  0  0  0  0  0  0  0  0
    0.0014   -2.9600   -2.1867 H   0  0  0  0  0  0  0  0  0  0  0  0
   -1.7634   -2.9646   -2.1831 H   0  0  0  0  0  0  0  0  0  0  0  0
   -0.8752   -4.4922   -2.1897 H   0  0  0  0  0  0  0  0  0  0  0  0
    0.0008   -4.0008    0.1021 H   0  0  0  0  0  0  0  0  0  0  0  0
   -1.7551   -4.0123    0.1011 H   0  0  0  0  0  0  0  0  0  0  0  0
    0.1684   -1.4032   -0.1111 H   0  0  0  0  0  0  0  0  0  0  0  0
   -0.8059   -2.1352    1.4174 H   0  0  0  0  0  0  0  0  0  0  0  0
   -2.0671   -0.0968    1.5328 H   0  0  0  0  0  0  0  0  0  0  0  0
   -1.2815    0.4834    0.0568 H   0  0  0  0  0  0  0  0  0  0  0  0
   -4.2841   -0.0512    0.3695 H   0  0  0  0  0  0  0  0  0  0  0  0
   -3.4985    0.5300   -1.1050 H   0  0  0  0  0  0  0  0  0  0  0  0
   -3.5153    1.5442    0.3469 H   0  0  0  0  0  0  0  0  0  0  0  0
  1  2  1  0
  1  7  1  0
  1  8  1  0
  1 29  1  0
  2  3  1  0
  2  9  1  0
  2 10  1  0
  3  4  1  0
  3 11  1  0
  3 12  1  0
  4  5  1  0
  5  6  1  0
  5 13  1  0
  5 14  1  0
  6 15  1  0
  6 16  1  0
  6 17  1  0
 18 19  1  0
 18 24  1  0
 18 25  1  0
 18 26  1  0
 19 20  1  0
 19 27  1  0
 19 28  1  0
 20 21  1  0
 20 30  1  0
 21 22  1  0
 22 23  1  0
 22 31  1  0
 22 32  1  0
 23 33  1  0
 23 34  1  0
 23 35  1  0
M  RAD  1  20   2
M  END
>  <reaction>  (11) 
rmg_rxn_339

>  <mol_properties>  (11) 
{"0": {"label": "*3", "atom_type": "Cs"}, "1": {"label": "*4", "atom_type": "Cs"}, "19": {"label": "*1", "atom_type": "Cs"}, "20": {"label": "*0", "atom_type": "O2s"}, "28": {"label": "*2", "atom_type": "H0"}}

>  <type>  (11) 
unop_7

>  <geom_source>  (11) 
Heuristics

$$$$

     RDKit          3D

 35 33  0  0  0  0  0  0  0  0999 V2000
    0.8028   -0.4843    0.3953 C   0  0  0  0  0  0  0  0  0  0  0  0
    0.4777    0.2687   -0.8878 C   0  0  0  0  0  0  0  0  0  0  0  0
    1.0943    1.6516   -0.9392 C   0  0  0  0  0  0  0  0  0  0  0  0
    2.4949    1.5379   -0.9245 O   0  0  0  0  0  0  0  0  0  0  0  0
    3.1538    2.7786   -0.9341 C   0  0  0  0  0  0  0  0  0  0  0  0
    4.6462    2.5420   -0.9159 C   0  0  0  0  0  0  0  0  0  0  0  0
    1.8795   -0.6131    0.5052 H   0  0  0  0  0  0  0  0  0  0  0  0
    0.4388    0.0608    1.2699 H   0  0  0  0  0  0  0  0  0  0  0  0
   -0.6049    0.3791   -0.9953 H   0  0  0  0  0  0  0  0  0  0  0  0
    0.8258   -0.2990   -1.7546 H   0  0  0  0  0  0  0  0  0  0  0  0
    0.7576    2.2478   -0.0763 H   0  0  0  0  0  0  0  0  0  0  0  0
    0.7703    2.1800   -1.8479 H   0  0  0  0  0  0  0  0  0  0  0  0
    2.8659    3.3494   -1.8294 H   0  0  0  0  0  0  0  0  0  0  0  0
    2.8479    3.3720   -0.0598 H   0  0  0  0  0  0  0  0  0  0  0  0
    4.9524    1.9656   -1.7896 H   0  0  0  0  0  0  0  0  0  0  0  0
    5.1799    3.4937   -0.9235 H   0  0  0  0  0  0  0  0  0  0  0  0
    4.9347    1.9897   -0.0209 H   0  0  0  0  0  0  0  0  0  0  0  0
   -1.2852   -3.2271   -0.8623 C   0  0  0  0  0  0  0  0  0  0  0  0
   -1.2852   -3.2271    0.6606 C   0  0  0  0  0  0  0  0  0  0  0  0
   -1.2852   -1.8340    1.2561 C   0  0  0  0  0  3  0  0  0  0  0  0
   -2.4682   -1.1704    0.8885 O   0  0  0  0  0  0  0  0  0  0  0  0
   -2.5390    0.1476    1.3694 C   0  0  0  0  0  0  0  0  0  0  0  0
   -3.8423    0.7654    0.9186 C   0  0  0  0  0  0  0  0  0  0  0  0
   -0.4032   -2.7128   -1.2519 H   0  0  0  0  0  0  0  0  0  0  0  0
   -2.1680   -2.7174   -1.2484 H   0  0  0  0  0  0  0  0  0  0  0  0
   -1.2798   -4.2450   -1.2550 H   0  0  0  0  0  0  0  0  0  0  0  0
   -0.4037   -3.7536    1.0369 H   0  0  0  0  0  0  0  0  0  0  0  0
   -2.1596   -3.7651    1.0359 H   0  0  0  0  0  0  0  0  0  0  0  0
   -0.2362   -1.1559    0.8237 H   0  0  0  0  0  0  0  0  0  0  0  0
   -1.2104   -1.8880    2.3522 H   0  0  0  0  0  0  0  0  0  0  0  0
   -2.4717    0.1505    2.4675 H   0  0  0  0  0  0  0  0  0  0  0  0
   -1.6861    0.7306    0.9916 H   0  0  0  0  0  0  0  0  0  0  0  0
   -4.6886    0.1960    1.3043 H   0  0  0  0  0  0  0  0  0  0  0  0
   -3.9031    0.7773   -0.1702 H   0  0  0  0  0  0  0  0  0  0  0  0
   -3.9199    1.7914    1.2817 H   0  0  0  0  0  0  0  0  0  0  0  0
  1  2  1  0
  1  7  1  0
  1  8  1  0
  1 29  1  0
  2  3  1  0
  2  9  1  0
  2 10  1  0
  3  4  1  0
  3 11  1  0
  3 12  1  0
  4  5  1  0
  5  6  1  0
  5 13  1  0
  5 14  1  0
  6 15  1  0
  6 16  1  0
  6 17  1  0
 18 19  1  0
 18 24  1  0
 18 25  1  0
 18 26  1  0
 19 20  1  0
 19 27  1  0
 19 28  1  0
 20 21  1  0
 20 30  1  0
 21 22  1  0
 22 23  1  0
 22 31  1  0
 22 32  1  0
 23 33  1  0
 23 34  1  0
 23 35  1  0
M  RAD  1  20   2
M  END
>  <reaction>  (12) 
rmg_rxn_339

>  <mol_properties>  (12) 
{"0": {"label": "*3", "atom_type": "Cs"}, "1": {"label": "*4", "atom_type": "Cs"}, "19": {"label": "*1", "atom_type": "Cs"}, "20": {"label": "*0", "atom_type": "O2s"}, "28": {"label": "*2", "atom_type": "H0"}}

>  <type>  (12) 
unop_8

>  <geom_source>  (12) 
Heuristics

$$$$

     RDKit          3D

 35 33  0  0  0  0  0  0  0  0999 V2000
    0.2330    0.2841   -0.4397 C   0  0  0  0  0  0  0  0  0  0  0  0
    1.4047   -0.6447   -0.7291 C   0  0  0  0  0  0  0  0  0  0  0  0
    2.7329    0.0797   -0.8102 C   0  0  0  0  0  0  0  0  0  0  0  0
    3.0233    0.6606    0.4361 O   0  0  0  0  0  0  0  0  0  0  0  0
    4.2260    1.3867    0.4445 C   0  0  0  0  0  0  0  0  0  0  0  0
    4.4399    1.9662    1.8236 C   0  0  0  0  0  0  0  0  0  0  0  0
    0.3728    0.7970    0.5118 H   0  0  0  0  0  0  0  0  0  0  0  0
    0.1360    1.0435   -1.2196 H   0  0  0  0  0  0  0  0  0  0  0  0
    1.2471   -1.1649   -1.6779 H   0  0  0  0  0  0  0  0  0  0  0  0
    1.4749   -1.4128    0.0454 H   0  0  0  0  0  0  0  0  0  0  0  0
    2.6911    0.8599   -1.5867 H   0  0  0  0  0  0  0  0  0  0  0  0
    3.5325   -0.6206   -1.0931 H   0  0  0  0  0  0  0  0  0  0  0  0
    5.0636    0.7284    0.1699 H   0  0  0  0  0  0  0  0  0  0  0  0
    4.1847    2.1886   -0.3074 H   0  0  0  0  0  0  0  0  0  0  0  0
    4.4948    1.1710    2.5679 H   0  0  0  0  0  0  0  0  0  0  0  0
    5.3704    2.5352    1.8544 H   0  0  0  0  0  0  0  0  0  0  0  0
    3.6178    2.6311    2.0905 H   0  0  0  0  0  0  0  0  0  0  0  0
   -1.8550   -2.4587   -1.6973 C   0  0  0  0  0  0  0  0  0  0  0  0
   -1.8550   -2.4587   -0.1744 C   0  0  0  0  0  0  0  0  0  0  0  0
   -1.8550   -1.0656    0.4211 C   0  0  0  0  0  3  0  0  0  0  0  0
   -3.0380   -0.4020    0.0535 O   0  0  0  0  0  0  0  0  0  0  0  0
   -3.1087    0.9161    0.5344 C   0  0  0  0  0  0  0  0  0  0  0  0
   -4.4120    1.5338    0.0836 C   0  0  0  0  0  0  0  0  0  0  0  0
   -0.9729   -1.9443   -2.0869 H   0  0  0  0  0  0  0  0  0  0  0  0
   -2.7377   -1.9490   -2.0834 H   0  0  0  0  0  0  0  0  0  0  0  0
   -1.8495   -3.4765   -2.0900 H   0  0  0  0  0  0  0  0  0  0  0  0
   -0.9735   -2.9851    0.2019 H   0  0  0  0  0  0  0  0  0  0  0  0
   -2.7294   -2.9966    0.2009 H   0  0  0  0  0  0  0  0  0  0  0  0
   -0.8060   -0.3875   -0.0114 H   0  0  0  0  0  0  0  0  0  0  0  0
   -1.7802   -1.1195    1.5171 H   0  0  0  0  0  0  0  0  0  0  0  0
   -3.0415    0.9189    1.6325 H   0  0  0  0  0  0  0  0  0  0  0  0
   -2.2558    1.4990    0.1565 H   0  0  0  0  0  0  0  0  0  0  0  0
   -5.2584    0.9644    0.4692 H   0  0  0  0  0  0  0  0  0  0  0  0
   -4.4728    1.5457   -1.0053 H   0  0  0  0  0  0  0  0  0  0  0  0
   -4.4896    2.5599    0.4466 H   0  0  0  0  0  0  0  0  0  0  0  0
  1  2  1  0
  1  7  1  0
  1  8  1  0
  1 29  1  0
  2  3  1  0
  2  9  1  0
  2 10  1  0
  3  4  1  0
  3 11  1  0
  3 12  1  0
  4  5  1  0
  5  6  1  0
  5 13  1  0
  5 14  1  0
  6 15  1  0
  6 16  1  0
  6 17  1  0
 18 19  1  0
 18 24  1  0
 18 25  1  0
 18 26  1  0
 19 20  1  0
 19 27  1  0
 19 28  1  0
 20 21  1  0
 20 30  1  0
 21 22  1  0
 22 23  1  0
 22 31  1  0
 22 32  1  0
 23 33  1  0
 23 34  1  0
 23 35  1  0
M  RAD  1  20   2
M  END
>  <reaction>  (13) 
rmg_rxn_339

>  <mol_properties>  (13) 
{"0": {"label": "*3", "atom_type": "Cs"}, "1": {"label": "*4", "atom_type": "Cs"}, "19": {"label": "*1", "atom_type": "Cs"}, "20": {"label": "*0", "atom_type": "O2s"}, "28": {"label": "*2", "atom_type": "H0"}}

>  <type>  (13) 
unop_9

>  <geom_source>  (13) 
Heuristics

$$$$

     RDKit          3D

 35 33  0  0  0  0  0  0  0  0999 V2000
    0.6890   -0.2325    0.5883 C   0  0  0  0  0  0  0  0  0  0  0  0
    0.6717   -0.1050   -0.9291 C   0  0  0  0  0  0  0  0  0  0  0  0
    1.2917    1.1852   -1.4254 C   0  0  0  0  0  0  0  0  0  0  0  0
    2.6509    1.2158   -1.0695 O   0  0  0  0  0  0  0  0  0  0  0  0
    3.3016    2.3979   -1.4602 C   0  0  0  0  0  0  0  0  0  0  0  0
    4.7485    2.3269   -1.0302 C   0  0  0  0  0  0  0  0  0  0  0  0
    1.7110   -0.2060    0.9664 H   0  0  0  0  0  0  0  0  0  0  0  0
    0.1372    0.5876    1.0546 H   0  0  0  0  0  0  0  0  0  0  0  0
   -0.3567   -0.1477   -1.2986 H   0  0  0  0  0  0  0  0  0  0  0  0
    1.2062   -0.9438   -1.3823 H   0  0  0  0  0  0  0  0  0  0  0  0
    0.7694    2.0494   -0.9852 H   0  0  0  0  0  0  0  0  0  0  0  0
    1.1882    1.2624   -2.5177 H   0  0  0  0  0  0  0  0  0  0  0  0
    3.2304    2.5225   -2.5509 H   0  0  0  0  0  0  0  0  0  0  0  0
    2.8066    3.2670   -1.0023 H   0  0  0  0  0  0  0  0  0  0  0  0
    5.2437    1.4735   -1.4947 H   0  0  0  0  0  0  0  0  0  0  0  0
    5.2754    3.2361   -1.3242 H   0  0  0  0  0  0  0  0  0  0  0  0
    4.8206    2.2191    0.0526 H   0  0  0  0  0  0  0  0  0  0  0  0
   -1.3990   -2.9752   -0.6693 C   0  0  0  0  0  0  0  0  0  0  0  0
   -1.3990   -2.9752    0.8536 C   0  0  0  0  0  0  0  0  0  0  0  0
   -1.3990   -1.5822    1.4491 C   0  0  0  0  0  3  0  0  0  0  0  0
   -2.5820   -0.9186    1.0815 O   0  0  0  0  0  0  0  0  0  0  0  0
   -2.6527    0.3995    1.5624 C   0  0  0  0  0  0  0  0  0  0  0  0
   -3.9560    1.0173    1.1116 C   0  0  0  0  0  0  0  0  0  0  0  0
   -0.5169   -2.4609   -1.0589 H   0  0  0  0  0  0  0  0  0  0  0  0
   -2.2817   -2.4655   -1.0554 H   0  0  0  0  0  0  0  0  0  0  0  0
   -1.3935   -3.9931   -1.0619 H   0  0  0  0  0  0  0  0  0  0  0  0
   -0.5175   -3.5017    1.2299 H   0  0  0  0  0  0  0  0  0  0  0  0
   -2.2734   -3.5132    1.2289 H   0  0  0  0  0  0  0  0  0  0  0  0
   -0.3500   -0.9041    1.0167 H   0  0  0  0  0  0  0  0  0  0  0  0
   -1.3242   -1.6361    2.5452 H   0  0  0  0  0  0  0  0  0  0  0  0
   -2.5855    0.4024    2.6605 H   0  0  0  0  0  0  0  0  0  0  0  0
   -1.7999    0.9825    1.1846 H   0  0  0  0  0  0  0  0  0  0  0  0
   -4.8024    0.4479    1.4973 H   0  0  0  0  0  0  0  0  0  0  0  0
   -4.0169    1.0291    0.0228 H   0  0  0  0  0  0  0  0  0  0  0  0
   -4.0337    2.0433    1.4747 H   0  0  0  0  0  0  0  0  0  0  0  0
  1  2  1  0
  1  7  1  0
  1  8  1  0
  1 29  1  0
  2  3  1  0
  2  9  1  0
  2 10  1  0
  3  4  1  0
  3 11  1  0
  3 12  1  0
  4  5  1  0
  5  6  1  0
  5 13  1  0
  5 14  1  0
  6 15  1  0
  6 16  1  0
  6 17  1  0
 18 19  1  0
 18 24  1  0
 18 25  1  0
 18 26  1  0
 19 20  1  0
 19 27  1  0
 19 28  1  0
 20 21  1  0
 20 30  1  0
 21 22  1  0
 22 23  1  0
 22 31  1  0
 22 32  1  0
 23 33  1  0
 23 34  1  0
 23 35  1  0
M  RAD  1  20   2
M  END
>  <reaction>  (14) 
rmg_rxn_339

>  <mol_properties>  (14) 
{"0": {"label": "*3", "atom_type": "Cs"}, "1": {"label": "*4", "atom_type": "Cs"}, "19": {"label": "*1", "atom_type": "Cs"}, "20": {"label": "*0", "atom_type": "O2s"}, "28": {"label": "*2", "atom_type": "H0"}}

>  <type>  (14) 
unop_10

>  <geom_source>  (14) 
Heuristics

$$$$

     RDKit          3D

 35 33  0  0  0  0  0  0  0  0999 V2000
    1.2807   -0.7949    0.0099 C   0  0  0  0  0  0  0  0  0  0  0  0
    1.7391    0.2243    1.0445 C   0  0  0  0  0  0  0  0  0  0  0  0
    2.4135    1.4340    0.4305 C   0  0  0  0  0  0  0  0  0  0  0  0
    1.4920    2.1204   -0.3786 O   0  0  0  0  0  0  0  0  0  0  0  0
    2.0427    3.2424   -1.0200 C   0  0  0  0  0  0  0  0  0  0  0  0
    0.9734    3.9020   -1.8596 C   0  0  0  0  0  0  0  0  0  0  0  0
    0.5646   -0.3491   -0.6803 H   0  0  0  0  0  0  0  0  0  0  0  0
    2.1268   -1.1633   -0.5755 H   0  0  0  0  0  0  0  0  0  0  0  0
    2.4452   -0.2372    1.7403 H   0  0  0  0  0  0  0  0  0  0  0  0
    0.8870    0.5658    1.6379 H   0  0  0  0  0  0  0  0  0  0  0  0
    3.2795    1.1184   -0.1727 H   0  0  0  0  0  0  0  0  0  0  0  0
    2.7904    2.1017    1.2192 H   0  0  0  0  0  0  0  0  0  0  0  0
    2.4338    3.9479   -0.2719 H   0  0  0  0  0  0  0  0  0  0  0  0
    2.8910    2.9353   -1.6495 H   0  0  0  0  0  0  0  0  0  0  0  0
    0.1381    4.2192   -1.2344 H   0  0  0  0  0  0  0  0  0  0  0  0
    1.3787    4.7782   -2.3681 H   0  0  0  0  0  0  0  0  0  0  0  0
    0.5961    3.2082   -2.6118 H   0  0  0  0  0  0  0  0  0  0  0  0
   -0.8073   -3.5376   -1.2477 C   0  0  0  0  0  0  0  0  0  0  0  0
   -0.8073   -3.5376    0.2752 C   0  0  0  0  0  0  0  0  0  0  0  0
   -0.8073   -2.1446    0.8707 C   0  0  0  0  0  3  0  0  0  0  0  0
   -1.9903   -1.4810    0.5031 O   0  0  0  0  0  0  0  0  0  0  0  0
   -2.0610   -0.1629    0.9840 C   0  0  0  0  0  0  0  0  0  0  0  0
   -3.3643    0.4549    0.5332 C   0  0  0  0  0  0  0  0  0  0  0  0
    0.0748   -3.0233   -1.6373 H   0  0  0  0  0  0  0  0  0  0  0  0
   -1.6900   -3.0280   -1.6338 H   0  0  0  0  0  0  0  0  0  0  0  0
   -0.8018   -4.5555   -1.6404 H   0  0  0  0  0  0  0  0  0  0  0  0
    0.0742   -4.0641    0.6515 H   0  0  0  0  0  0  0  0  0  0  0  0
   -1.6817   -4.0756    0.6505 H   0  0  0  0  0  0  0  0  0  0  0  0
    0.2418   -1.4665    0.4382 H   0  0  0  0  0  0  0  0  0  0  0  0
   -0.7325   -2.1985    1.9668 H   0  0  0  0  0  0  0  0  0  0  0  0
   -1.9937   -0.1601    2.0821 H   0  0  0  0  0  0  0  0  0  0  0  0
   -1.2081    0.4201    0.6061 H   0  0  0  0  0  0  0  0  0  0  0  0
   -4.2107   -0.1145    0.9189 H   0  0  0  0  0  0  0  0  0  0  0  0
   -3.4251    0.4667   -0.5556 H   0  0  0  0  0  0  0  0  0  0  0  0
   -3.4419    1.4809    0.8962 H   0  0  0  0  0  0  0  0  0  0  0  0
  1  2  1  0
  1  7  1  0
  1  8  1  0
  1 29  1  0
  2  3  1  0
  2  9  1  0
  2 10  1  0
  3  4  1  0
  3 11  1  0
  3 12  1  0
  4  5  1  0
  5  6  1  0
  5 13  1  0
  5 14  1  0
  6 15  1  0
  6 16  1  0
  6 17  1  0
 18 19  1  0
 18 24  1  0
 18 25  1  0
 18 26  1  0
 19 20  1  0
 19 27  1  0
 19 28  1  0
 20 21  1  0
 20 30  1  0
 21 22  1  0
 22 23  1  0
 22 31  1  0
 22 32  1  0
 23 33  1  0
 23 34  1  0
 23 35  1  0
M  RAD  1  20   2
M  END
>  <reaction>  (15) 
rmg_rxn_339

>  <mol_properties>  (15) 
{"0": {"label": "*3", "atom_type": "Cs"}, "1": {"label": "*4", "atom_type": "Cs"}, "19": {"label": "*1", "atom_type": "Cs"}, "20": {"label": "*0", "atom_type": "O2s"}, "28": {"label": "*2", "atom_type": "H0"}}

>  <type>  (15) 
unop_11

>  <geom_source>  (15) 
Heuristics

$$$$

     RDKit          3D

 35 33  0  0  0  0  0  0  0  0999 V2000
    0.2225    0.3351    0.1137 C   0  0  0  0  0  0  0  0  0  0  0  0
    1.0694   -0.5084   -0.8300 C   0  0  0  0  0  0  0  0  0  0  0  0
    2.2826    0.2278   -1.3603 C   0  0  0  0  0  0  0  0  0  0  0  0
    3.1353    0.5512   -0.2911 O   0  0  0  0  0  0  0  0  0  0  0  0
    4.2754    1.2704   -0.6868 C   0  0  0  0  0  0  0  0  0  0  0  0
    5.1175    1.5654    0.5328 C   0  0  0  0  0  0  0  0  0  0  0  0
    0.8058    0.6494    0.9792 H   0  0  0  0  0  0  0  0  0  0  0  0
   -0.1433    1.2338   -0.3891 H   0  0  0  0  0  0  0  0  0  0  0  0
    0.4707   -0.8306   -1.6865 H   0  0  0  0  0  0  0  0  0  0  0  0
    1.4082   -1.4148   -0.3215 H   0  0  0  0  0  0  0  0  0  0  0  0
    1.9694    1.1466   -1.8811 H   0  0  0  0  0  0  0  0  0  0  0  0
    2.8177   -0.3960   -2.0914 H   0  0  0  0  0  0  0  0  0  0  0  0
    4.8516    0.6865   -1.4198 H   0  0  0  0  0  0  0  0  0  0  0  0
    3.9752    2.2056   -1.1822 H   0  0  0  0  0  0  0  0  0  0  0  0
    5.4271    0.6384    1.0167 H   0  0  0  0  0  0  0  0  0  0  0  0
    6.0109    2.1240    0.2492 H   0  0  0  0  0  0  0  0  0  0  0  0
    4.5523    2.1576    1.2533 H   0  0  0  0  0  0  0  0  0  0  0  0
   -1.8655   -2.4077   -1.1439 C   0  0  0  0  0  0  0  0  0  0  0  0
   -1.8655   -2.4077    0.3790 C   0  0  0  0  0  0  0  0  0  0  0  0
   -1.8655   -1.0146    0.9745 C   0  0  0  0  0  3  0  0  0  0  0  0
   -3.0485   -0.3510    0.6069 O   0  0  0  0  0  0  0  0  0  0  0  0
   -3.1192    0.9670    1.0878 C   0  0  0  0  0  0  0  0  0  0  0  0
   -4.4225    1.5848    0.6370 C   0  0  0  0  0  0  0  0  0  0  0  0
   -0.9834   -1.8934   -1.5335 H   0  0  0  0  0  0  0  0  0  0  0  0
   -2.7482   -1.8980   -1.5300 H   0  0  0  0  0  0  0  0  0  0  0  0
   -1.8600   -3.4256   -1.5366 H   0  0  0  0  0  0  0  0  0  0  0  0
   -0.9839   -2.9342    0.7553 H   0  0  0  0  0  0  0  0  0  0  0  0
   -2.7398   -2.9457    0.7543 H   0  0  0  0  0  0  0  0  0  0  0  0
   -0.8164   -0.3365    0.5420 H   0  0  0  0  0  0  0  0  0  0  0  0
   -1.7907   -1.0685    2.0706 H   0  0  0  0  0  0  0  0  0  0  0  0
   -3.0519    0.9699    2.1859 H   0  0  0  0  0  0  0  0  0  0  0  0
   -2.2663    1.5500    0.7099 H   0  0  0  0  0  0  0  0  0  0  0  0
   -5.2689    1.0154    1.0227 H   0  0  0  0  0  0  0  0  0  0  0  0
   -4.4833    1.5967   -0.4519 H   0  0  0  0  0  0  0  0  0  0  0  0
   -4.5001    2.6108    1.0000 H   0  0  0  0  0  0  0  0  0  0  0  0
  1  2  1  0
  1  7  1  0
  1  8  1  0
  1 29  1  0
  2  3  1  0
  2  9  1  0
  2 10  1  0
  3  4  1  0
  3 11  1  0
  3 12  1  0
  4  5  1  0
  5  6  1  0
  5 13  1  0
  5 14  1  0
  6 15  1  0
  6 16  1  0
  6 17  1  0
 18 19  1  0
 18 24  1  0
 18 25  1  0
 18 26  1  0
 19 20  1  0
 19 27  1  0
 19 28  1  0
 20 21  1  0
 20 30  1  0
 21 22  1  0
 22 23  1  0
 22 31  1  0
 22 32  1  0
 23 33  1  0
 23 34  1  0
 23 35  1  0
M  RAD  1  20   2
M  END
>  <reaction>  (16) 
rmg_rxn_339

>  <mol_properties>  (16) 
{"0": {"label": "*3", "atom_type": "Cs"}, "1": {"label": "*4", "atom_type": "Cs"}, "19": {"label": "*1", "atom_type": "Cs"}, "20": {"label": "*0", "atom_type": "O2s"}, "28": {"label": "*2", "atom_type": "H0"}}

>  <type>  (16) 
unop_12

>  <geom_source>  (16) 
Heuristics

$$$$

     RDKit          3D

 35 33  0  0  0  0  0  0  0  0999 V2000
    3.0467   -0.9306   -0.9054 O   0  0  0  0  0  0  0  0  0  0  0  0
   -3.2274   -0.1201   -0.2660 O   0  0  0  0  0  0  0  0  0  0  0  0
    1.1560   -0.9960    0.6012 C   0  0  0  0  0  0  0  0  0  0  0  0
   -2.4021    2.1119    0.1336 C   0  0  0  0  0  0  0  0  0  0  0  0
    2.0020   -0.1496   -0.3544 C   0  0  0  0  0  0  0  0  0  0  0  0
    4.2354   -0.8147   -0.1449 C   0  0  0  0  0  0  0  0  0  0  0  0
   -3.1229   -1.1830    0.6555 C   0  0  0  0  0  0  0  0  0  0  0  0
   -0.0181   -0.1954    1.1541 C   0  0  0  0  0  0  0  0  0  0  0  0
   -3.1726    2.7709   -1.0078 C   0  0  0  0  0  0  0  0  0  0  0  0
    5.1264    0.2827   -0.7166 C   0  0  0  0  0  0  0  0  0  0  0  0
   -2.3497   -2.3529    0.0516 C   0  0  0  0  0  0  0  0  0  0  0  0
   -2.0594    0.6572   -0.1786 C   0  0  0  0  0  3  0  0  0  0  0  0
    1.7822   -1.3502    1.4477 H   0  0  0  0  0  0  0  0  0  0  0  0
    0.7649   -1.8839    0.0592 H   0  0  0  0  0  0  0  0  0  0  0  0
   -3.0059    2.1566    1.0652 H   0  0  0  0  0  0  0  0  0  0  0  0
   -1.4580    2.6711    0.3056 H   0  0  0  0  0  0  0  0  0  0  0  0
    1.3569    0.1891   -1.1931 H   0  0  0  0  0  0  0  0  0  0  0  0
    2.3655    0.7742    0.1550 H   0  0  0  0  0  0  0  0  0  0  0  0
    4.0538   -0.6363    0.9409 H   0  0  0  0  0  0  0  0  0  0  0  0
    4.7835   -1.7777   -0.2171 H   0  0  0  0  0  0  0  0  0  0  0  0
   -2.6678   -0.8733    1.6271 H   0  0  0  0  0  0  0  0  0  0  0  0
   -4.1502   -1.5341    0.8893 H   0  0  0  0  0  0  0  0  0  0  0  0
    6.0832    0.3184   -0.1543 H   0  0  0  0  0  0  0  0  0  0  0  0
    5.3452    0.0755   -1.7856 H   0  0  0  0  0  0  0  0  0  0  0  0
    4.6264    1.2701   -0.6327 H   0  0  0  0  0  0  0  0  0  0  0  0
   -0.6171   -0.8353    1.8356 H   0  0  0  0  0  0  0  0  0  0  0  0
    0.3490    0.6851    1.7234 H   0  0  0  0  0  0  0  0  0  0  0  0
   -0.7745    0.2042    0.1914 H   0  0  0  0  0  0  0  0  0  0  0  0
   -2.8246   -2.6713   -0.9005 H   0  0  0  0  0  0  0  0  0  0  0  0
   -2.3535   -3.2085    0.7593 H   0  0  0  0  0  0  0  0  0  0  0  0
   -1.2973   -2.0592   -0.1457 H   0  0  0  0  0  0  0  0  0  0  0  0
   -3.3814    3.8307   -0.7506 H   0  0  0  0  0  0  0  0  0  0  0  0
   -2.5745    2.7439   -1.9435 H   0  0  0  0  0  0  0  0  0  0  0  0
   -4.1396    2.2507   -1.1747 H   0  0  0  0  0  0  0  0  0  0  0  0
   -1.4803    0.5796   -1.1239 H   0  0  0  0  0  0  0  0  0  0  0  0
  1  6  1  0
  1  5  1  0
  2  7  1  0
  2 12  1  0
  3  8  1  0
  3  5  1  0
  3 13  1  0
  3 14  1  0
  4  9  1  0
  4 12  1  0
  4 15  1  0
  4 16  1  0
  5 17  1  0
  5 18  1  0
  6 10  1  0
  6 19  1  0
  6 20  1  0
  7 11  1  0
  7 21  1  0
  7 22  1  0
  8 26  1  0
  8 27  1  0
  8 28  1  0
  9 32  1  0
  9 33  1  0
  9 34  1  0
 10 23  1  0
 10 24  1  0
 10 25  1  0
 11 29  1  0
 11 30  1  0
 11 31  1  0
 12 35  1  0
M  RAD  1  12   2
M  END
>  <reaction>  (17) 
rmg_rxn_339

>  <mol_properties>  (17) 
{"0": {"label": "*3", "atom_type": "Cs"}, "1": {"label": "*4", "atom_type": "Cs"}, "19": {"label": "*1", "atom_type": "Cs"}, "20": {"label": "*0", "atom_type": "O2s"}, "28": {"label": "*2", "atom_type": "H0"}}

>  <type>  (17) 
unop_13

>  <geom_source>  (17) 
AutoTST

$$$$

     RDKit          3D

 35 33  0  0  0  0  0  0  0  0999 V2000
    0.4395    0.1064    0.5209 C   0  0  0  0  0  0  0  0  0  0  0  0
    0.8511   -0.3505   -0.8723 C   0  0  0  0  0  0  0  0  0  0  0  0
    1.7318    0.6508   -1.5914 C   0  0  0  0  0  0  0  0  0  0  0  0
    2.9363    0.8041   -0.8840 O   0  0  0  0  0  0  0  0  0  0  0  0
    3.8047    1.7452   -1.4617 C   0  0  0  0  0  0  0  0  0  0  0  0
    5.0609    1.8319   -0.6262 C   0  0  0  0  0  0  0  0  0  0  0  0
    1.3156    0.2666    1.1492 H   0  0  0  0  0  0  0  0  0  0  0  0
   -0.1168    1.0460    0.4743 H   0  0  0  0  0  0  0  0  0  0  0  0
   -0.0353   -0.5225   -1.4891 H   0  0  0  0  0  0  0  0  0  0  0  0
    1.3850   -1.3024   -0.8126 H   0  0  0  0  0  0  0  0  0  0  0  0
    1.2160    1.6212   -1.6681 H   0  0  0  0  0  0  0  0  0  0  0  0
    1.9394    0.3092   -2.6161 H   0  0  0  0  0  0  0  0  0  0  0  0
    4.0483    1.4478   -2.4924 H   0  0  0  0  0  0  0  0  0  0  0  0
    3.3108    2.7266   -1.5164 H   0  0  0  0  0  0  0  0  0  0  0  0
    5.5586    0.8625   -0.5828 H   0  0  0  0  0  0  0  0  0  0  0  0
    5.7521    2.5580   -1.0569 H   0  0  0  0  0  0  0  0  0  0  0  0
    4.8221    2.1419    0.3918 H   0  0  0  0  0  0  0  0  0  0  0  0
   -1.6485   -2.6364   -0.7367 C   0  0  0  0  0  0  0  0  0  0  0  0
   -1.6485   -2.6364    0.7862 C   0  0  0  0  0  0  0  0  0  0  0  0
   -1.6485   -1.2433    1.3817 C   0  0  0  0  0  3  0  0  0  0  0  0
   -2.8315   -0.5797    1.0141 O   0  0  0  0  0  0  0  0  0  0  0  0
   -2.9022    0.7383    1.4950 C   0  0  0  0  0  0  0  0  0  0  0  0
   -4.2056    1.3561    1.0442 C   0  0  0  0  0  0  0  0  0  0  0  0
   -0.7664   -2.1221   -1.1264 H   0  0  0  0  0  0  0  0  0  0  0  0
   -2.5312   -2.1267   -1.1228 H   0  0  0  0  0  0  0  0  0  0  0  0
   -1.6430   -3.6542   -1.1294 H   0  0  0  0  0  0  0  0  0  0  0  0
   -0.7670   -3.1628    1.1624 H   0  0  0  0  0  0  0  0  0  0  0  0
   -2.5229   -3.1744    1.1614 H   0  0  0  0  0  0  0  0  0  0  0  0
   -0.5995   -0.5652    0.9492 H   0  0  0  0  0  0  0  0  0  0  0  0
   -1.5737   -1.2972    2.4777 H   0  0  0  0  0  0  0  0  0  0  0  0
   -2.8350    0.7412    2.5931 H   0  0  0  0  0  0  0  0  0  0  0  0
   -2.0494    1.3213    1.1171 H   0  0  0  0  0  0  0  0  0  0  0  0
   -5.0519    0.7867    1.4298 H   0  0  0  0  0  0  0  0  0  0  0  0
   -4.2664    1.3680   -0.0447 H   0  0  0  0  0  0  0  0  0  0  0  0
   -4.2832    2.3822    1.4072 H   0  0  0  0  0  0  0  0  0  0  0  0
  1  2  1  0
  1  7  1  0
  1  8  1  0
  1 29  1  0
  2  3  1  0
  2  9  1  0
  2 10  1  0
  3  4  1  0
  3 11  1  0
  3 12  1  0
  4  5  1  0
  5  6  1  0
  5 13  1  0
  5 14  1  0
  6 15  1  0
  6 16  1  0
  6 17  1  0
 18 19  1  0
 18 24  1  0
 18 25  1  0
 18 26  1  0
 19 20  1  0
 19 27  1  0
 19 28  1  0
 20 21  1  0
 20 30  1  0
 21 22  1  0
 22 23  1  0
 22 31  1  0
 22 32  1  0
 23 33  1  0
 23 34  1  0
 23 35  1  0
M  RAD  1  20   2
M  END
>  <reaction>  (18) 
rmg_rxn_339

>  <mol_properties>  (18) 
{"0": {"label": "*3", "atom_type": "Cs"}, "1": {"label": "*4", "atom_type": "Cs"}, "19": {"label": "*1", "atom_type": "Cs"}, "20": {"label": "*0", "atom_type": "O2s"}, "28": {"label": "*2", "atom_type": "H0"}}

>  <type>  (18) 
unop_14

>  <geom_source>  (18) 
gaussian_log

$$$$
