
     RDKit          3D

  5  4  0  0  0  0  0  0  0  0999 V2000
   -1.2140    0.4407   -0.1412 O   0  0  0  0  0  0  0  0  0  0  0  0
    0.1185    0.5703   -0.2937 N   0  0  0  0  0  0  0  0  0  0  0  0
    0.7309   -0.3922    0.1486 N   0  0  0  0  0  0  0  0  0  0  0  0
   -1.3561   -0.4179    0.2986 H   0  0  0  0  0  0  0  0  0  0  0  0
    1.7208   -0.2009   -0.0123 H   0  0  0  0  0  0  0  0  0  0  0  0
  1  2  1  0
  1  4  1  0
  2  3  2  3
  3  5  1  0
M  END
>  <reaction>  (1) 
rmg_rxn_15383

>  <mol_properties>  (1) 
{"0": {"label": "donator", "atom_type": "O2s"}, "3": {"label": "d_hydrogen", "atom_type": "H0"}}

>  <type>  (1) 
r1h

$$$$

     RDKit          3D

  5  4  0  0  0  0  0  0  0  0999 V2000
    0.8934    0.3742    0.4948 O   0  0  0  0  0  0  0  0  0  0  0  0
    0.1582   -0.1610   -0.5904 N   0  0  0  0  0  0  0  0  0  0  0  0
   -1.0297   -0.3739   -0.4689 C   0  0  0  0  0  3  0  0  0  0  0  0
    1.7804    0.4382    0.1306 H   0  0  0  0  0  0  0  0  0  0  0  0
   -1.8023   -0.2775    0.2859 H   0  0  0  0  0  0  0  0  0  0  0  0
  1  2  1  0
  1  4  1  0
  2  3  2  3
  3  5  1  0
M  RAD  1   3   2
M  END
>  <reaction>  (2) 
rmg_rxn_15383

>  <mol_properties>  (2) 
{"2": {"label": "acceptor", "atom_type": "Cd"}}

>  <type>  (2) 
r2

$$$$

     RDKit          3D

  6  5  0  0  0  0  0  0  0  0999 V2000
    1.2314    0.0428    0.5088 O   0  0  0  0  0  0  0  0  0  0  0  0
    0.2987    0.2341   -0.4915 N   0  0  0  0  0  0  0  0  0  0  0  0
   -0.8599   -0.1122   -0.1290 C   0  0  0  0  0  0  0  0  0  0  0  0
    2.0507    0.3401    0.1082 H   0  0  0  0  0  0  0  0  0  0  0  0
   -1.0700   -0.5112    0.8610 H   0  0  0  0  0  0  0  0  0  0  0  0
   -1.6509    0.0064   -0.8574 H   0  0  0  0  0  0  0  0  0  0  0  0
  1  2  1  0
  1  4  1  0
  2  3  2  3
  3  5  1  0
  3  6  1  0
M  END
>  <reaction>  (3) 
rmg_rxn_15383

>  <mol_properties>  (3) 
{"0": {"label": "a_hydrogen", "atom_type": "H0"}, "3": {"label": "acceptor", "atom_type": "Cd"}}

>  <type>  (3) 
r2h

$$$$

     RDKit          3D

 10  8  0  0  0  0  0  0  0  0999 V2000
   -1.2251   -1.1273    0.7202 O   0  0  0  0  0  0  0  0  0  0  0  0
   -0.3566   -1.5202    1.5981 N   0  0  0  0  0  0  0  0  0  0  0  0
    0.8105   -1.1864    1.4112 N   0  0  0  0  0  0  0  0  0  0  0  0
   -0.7016   -0.5074   -0.0647 H   0  0  0  0  0  0  0  0  0  0  0  0
    1.3524   -1.5700    2.1860 H   0  0  0  0  0  0  0  0  0  0  0  0
    0.1376    2.3016   -2.0218 O   0  0  0  0  0  0  0  0  0  0  0  0
   -0.4180    1.4596   -1.0633 N   0  0  0  0  0  0  0  0  0  0  0  0
   -0.0253    0.2947   -1.0454 C   0  0  0  0  0  3  0  0  0  0  0  0
   -0.3007    3.1395   -1.8524 H   0  0  0  0  0  0  0  0  0  0  0  0
    0.7269   -0.2302   -1.6294 H   0  0  0  0  0  0  0  0  0  0  0  0
  1  2  1  0
  1  4  1  0
  2  3  2  3
  3  5  1  0
  6  7  1  0
  6  9  1  0
  7  8  2  3
  8 10  1  0
M  RAD  1   8   2
M  END
>  <reaction>  (4) 
rmg_rxn_15383

>  <mol_properties>  (4) 
{"0": {"label": "*1", "atom_type": "O2s"}, "1": {"label": "*0", "atom_type": "N3d"}, "3": {"label": "*2", "atom_type": "H0"}, "6": {"label": "*4", "atom_type": "N3d"}, "7": {"label": "*3", "atom_type": "Cd"}}

>  <type>  (4) 
ts

$$$$

     RDKit          3D

 10  8  0  0  0  0  0  0  0  0999 V2000
    1.5256    0.9988   -0.0001 O   0  0  0  0  0  1  0  0  0  0  0  0
    2.1288   -0.0818    0.0002 N   0  0  0  0  0  0  0  0  0  0  0  0
    1.8159   -1.2327   -0.0000 N   0  0  0  0  0  0  0  0  0  0  0  0
    0.2389    1.0553   -0.0002 H   0  0  0  0  0  0  0  0  0  0  0  0
    0.8180   -1.4957   -0.0004 H   0  0  0  0  0  0  0  0  0  0  0  0
   -2.7545   -0.4890    0.0002 O   0  0  0  0  0  0  0  0  0  0  0  0
   -1.4184   -0.2142   -0.0003 N   0  0  0  0  0  0  0  0  0  0  0  0
   -0.9889    0.9561   -0.0000 C   0  0  0  0  0  0  0  0  0  0  0  0
   -3.2940    0.3249    0.0004 H   0  0  0  0  0  0  0  0  0  0  0  0
   -1.5790    1.8726    0.0006 H   0  0  0  0  0  0  0  0  0  0  0  0
  1  2  1  0
  2  3  2  3
  3  5  1  0
  4  8  1  0
  6  7  1  0
  6  9  1  0
  7  8  2  3
  8 10  1  0
M  RAD  1   1   2
M  END
>  <reaction>  (5) 
rmg_rxn_15383

>  <mol_properties>  (5) 
{"0": {"label": "*1", "atom_type": "O2s"}, "1": {"label": "*0", "atom_type": "N3d"}, "3": {"label": "*2", "atom_type": "H0"}, "6": {"label": "*4", "atom_type": "N3d"}, "7": {"label": "*3", "atom_type": "Cd"}}

>  <type>  (5) 
unop_1

>  <geom_source>  (5) 
crest_best.xyz

$$$$

     RDKit          3D

 10  8  0  0  0  0  0  0  0  0999 V2000
    0.2590   -0.8688    1.4278 O   0  0  0  0  0  0  0  0  0  0  0  0
    0.2590   -2.1160    0.9178 N   0  0  0  0  0  0  0  0  0  0  0  0
    0.2590   -2.1160   -0.3058 N   0  0  0  0  0  0  0  0  0  0  0  0
    0.2590   -0.1405    0.5119 H   0  0  0  0  0  0  0  0  0  0  0  0
    0.2590   -3.0959   -0.5926 H   0  0  0  0  0  0  0  0  0  0  0  0
   -0.3192    2.7334   -0.9533 O   0  0  0  0  0  0  0  0  0  0  0  0
   -0.7186    1.4609   -0.5953 N   0  0  0  0  0  0  0  0  0  0  0  0
    0.2590    0.6674   -0.5043 C   0  0  0  0  0  3  0  0  0  0  0  0
   -1.1429    3.2237   -0.9859 H   0  0  0  0  0  0  0  0  0  0  0  0
    1.2850    0.9768   -0.6915 H   0  0  0  0  0  0  0  0  0  0  0  0
  1  2  1  0
  1  4  1  0
  2  3  2  3
  3  5  1  0
  6  7  1  0
  6  9  1  0
  7  8  2  3
  8 10  1  0
M  RAD  1   8   2
M  END
>  <reaction>  (6) 
rmg_rxn_15383

>  <mol_properties>  (6) 
{"0": {"label": "*1", "atom_type": "O2s"}, "1": {"label": "*0", "atom_type": "N3d"}, "3": {"label": "*2", "atom_type": "H0"}, "6": {"label": "*4", "atom_type": "N3d"}, "7": {"label": "*3", "atom_type": "Cd"}}

>  <type>  (6) 
unop_2

>  <geom_source>  (6) 
Heuristics

$$$$

     RDKit          3D

 10  8  0  0  0  0  0  0  0  0999 V2000
    1.5262    0.9988   -0.0006 O   0  0  0  0  0  1  0  0  0  0  0  0
    2.1275   -0.0828   -0.0003 N   0  0  0  0  0  0  0  0  0  0  0  0
    1.8128   -1.2332    0.0006 N   0  0  0  0  0  0  0  0  0  0  0  0
    0.2396    1.0568    0.0003 H   0  0  0  0  0  0  0  0  0  0  0  0
    0.8145   -1.4944    0.0014 H   0  0  0  0  0  0  0  0  0  0  0  0
   -2.7529   -0.4891   -0.0003 O   0  0  0  0  0  0  0  0  0  0  0  0
   -1.4169   -0.2136   -0.0005 N   0  0  0  0  0  0  0  0  0  0  0  0
   -0.9882    0.9570    0.0010 C   0  0  0  0  0  0  0  0  0  0  0  0
   -3.2928    0.3247    0.0010 H   0  0  0  0  0  0  0  0  0  0  0  0
   -1.5791    1.8730    0.0027 H   0  0  0  0  0  0  0  0  0  0  0  0
  1  2  1  0
  2  3  2  3
  3  5  1  0
  4  8  1  0
  6  7  1  0
  6  9  1  0
  7  8  2  3
  8 10  1  0
M  RAD  1   1   2
M  END
>  <reaction>  (7) 
rmg_rxn_15383

>  <mol_properties>  (7) 
{"0": {"label": "*1", "atom_type": "O2s"}, "1": {"label": "*0", "atom_type": "N3d"}, "3": {"label": "*2", "atom_type": "H0"}, "6": {"label": "*4", "atom_type": "N3d"}, "7": {"label": "*3", "atom_type": "Cd"}}

>  <type>  (7) 
unop_3

>  <geom_source>  (7) 
Heuristics

$$$$

     RDKit          3D

 10  8  0  0  0  0  0  0  0  0999 V2000
    0.2531   -0.4058    1.8581 O   0  0  0  0  0  0  0  0  0  0  0  0
    0.2531   -1.6530    1.3481 N   0  0  0  0  0  0  0  0  0  0  0  0
    0.2531   -1.6530    0.1246 N   0  0  0  0  0  0  0  0  0  0  0  0
    0.2531    0.3225    0.9422 H   0  0  0  0  0  0  0  0  0  0  0  0
    0.2531   -2.6328   -0.1622 H   0  0  0  0  0  0  0  0  0  0  0  0
   -0.6102    1.7501   -1.9909 O   0  0  0  0  0  0  0  0  0  0  0  0
   -0.3113    0.7170   -1.1246 N   0  0  0  0  0  0  0  0  0  0  0  0
    0.2531    1.1305   -0.0739 C   0  0  0  0  0  3  0  0  0  0  0  0
   -1.0267    1.3052   -2.7316 H   0  0  0  0  0  0  0  0  0  0  0  0
    0.4667    2.1826    0.1021 H   0  0  0  0  0  0  0  0  0  0  0  0
  1  2  1  0
  1  4  1  0
  2  3  2  3
  3  5  1  0
  6  7  1  0
  6  9  1  0
  7  8  2  3
  8 10  1  0
M  RAD  1   8   2
M  END
>  <reaction>  (8) 
rmg_rxn_15383

>  <mol_properties>  (8) 
{"0": {"label": "*1", "atom_type": "O2s"}, "1": {"label": "*0", "atom_type": "N3d"}, "3": {"label": "*2", "atom_type": "H0"}, "6": {"label": "*4", "atom_type": "N3d"}, "7": {"label": "*3", "atom_type": "Cd"}}

>  <type>  (8) 
unop_4

>  <geom_source>  (8) 
Heuristics

$$$$

     RDKit          3D

 10  8  0  0  0  0  0  0  0  0999 V2000
    1.5108    0.9865   -0.0003 O   0  0  0  0  0  1  0  0  0  0  0  0
    2.1942   -0.0496   -0.0007 N   0  0  0  0  0  2  0  0  0  0  0  0
    1.9457   -1.2186    0.0005 N   0  0  0  0  0  2  0  0  0  0  0  0
    0.2304    0.9815    0.0007 H   0  0  0  0  0  0  0  0  0  0  0  0
    0.9609   -1.5271    0.0022 H   0  0  0  0  0  0  0  0  0  0  0  0
   -2.8703   -0.3866   -0.0004 O   0  0  0  0  0  0  0  0  0  0  0  0
   -1.4835   -0.2159   -0.0000 N   0  0  0  0  0  2  0  0  0  0  0  0
   -1.0060    0.9325    0.0008 C   0  0  0  0  0  3  0  0  0  0  0  0
   -3.0045   -1.3448   -0.0012 H   0  0  0  0  0  0  0  0  0  0  0  0
   -1.5326    1.8788    0.0013 H   0  0  0  0  0  0  0  0  0  0  0  0
  1  2  1  0
  2  3  1  0
  3  5  1  0
  4  8  1  0
  6  7  1  0
  6  9  1  0
  7  8  1  0
  8 10  1  0
M  RAD  5   1   2   2   2   3   2   7   2   8   2
M  END
>  <reaction>  (9) 
rmg_rxn_15383

>  <mol_properties>  (9) 
{"0": {"label": "*1", "atom_type": "O2s"}, "1": {"label": "*0", "atom_type": "N3d"}, "3": {"label": "*2", "atom_type": "H0"}, "6": {"label": "*4", "atom_type": "N3d"}, "7": {"label": "*3", "atom_type": "Cd"}}

>  <type>  (9) 
unop_5

>  <geom_source>  (9) 
Heuristics

$$$$

     RDKit          3D

 10  8  0  0  0  0  0  0  0  0999 V2000
    0.0749   -0.9273    1.4114 O   0  0  0  0  0  0  0  0  0  0  0  0
    0.0749   -2.1745    0.9015 N   0  0  0  0  0  0  0  0  0  0  0  0
    0.0749   -2.1745   -0.3221 N   0  0  0  0  0  0  0  0  0  0  0  0
    0.0749   -0.1990    0.4955 H   0  0  0  0  0  0  0  0  0  0  0  0
    0.0749   -3.1543   -0.6089 H   0  0  0  0  0  0  0  0  0  0  0  0
    0.1227    2.7271   -1.0823 O   0  0  0  0  0  0  0  0  0  0  0  0
   -0.4895    1.7258   -0.3545 N   0  0  0  0  0  0  0  0  0  0  0  0
    0.0749    0.6090   -0.5206 C   0  0  0  0  0  3  0  0  0  0  0  0
   -0.3955    3.5054   -0.8687 H   0  0  0  0  0  0  0  0  0  0  0  0
    0.9402    0.4794   -1.1671 H   0  0  0  0  0  0  0  0  0  0  0  0
  1  2  1  0
  1  4  1  0
  2  3  2  3
  3  5  1  0
  6  7  1  0
  6  9  1  0
  7  8  2  3
  8 10  1  0
M  RAD  1   8   2
M  END
>  <reaction>  (10) 
rmg_rxn_15383

>  <mol_properties>  (10) 
{"0": {"label": "*1", "atom_type": "O2s"}, "1": {"label": "*0", "atom_type": "N3d"}, "3": {"label": "*2", "atom_type": "H0"}, "6": {"label": "*4", "atom_type": "N3d"}, "7": {"label": "*3", "atom_type": "Cd"}}

>  <type>  (10) 
unop_6

>  <geom_source>  (10) 
Heuristics

$$$$

     RDKit          3D

 10  8  0  0  0  0  0  0  0  0999 V2000
   -0.3994   -0.5535    1.7110 O   0  0  0  0  0  0  0  0  0  0  0  0
   -0.3994   -1.8007    1.2010 N   0  0  0  0  0  0  0  0  0  0  0  0
   -0.3994   -1.8007   -0.0226 N   0  0  0  0  0  0  0  0  0  0  0  0
   -0.3994    0.1748    0.7951 H   0  0  0  0  0  0  0  0  0  0  0  0
   -0.3994   -2.7805   -0.3094 H   0  0  0  0  0  0  0  0  0  0  0  0
    0.8966    2.1108   -1.5819 O   0  0  0  0  0  0  0  0  0  0  0  0
    0.5782    0.8927   -1.0146 N   0  0  0  0  0  0  0  0  0  0  0  0
   -0.3994    0.9827   -0.2211 C   0  0  0  0  0  3  0  0  0  0  0  0
    1.6402    1.9030   -2.1511 H   0  0  0  0  0  0  0  0  0  0  0  0
   -0.9119    1.9223   -0.0259 H   0  0  0  0  0  0  0  0  0  0  0  0
  1  2  1  0
  1  4  1  0
  2  3  2  3
  3  5  1  0
  6  7  1  0
  6  9  1  0
  7  8  2  3
  8 10  1  0
M  RAD  1   8   2
M  END
>  <reaction>  (11) 
rmg_rxn_15383

>  <mol_properties>  (11) 
{"0": {"label": "*1", "atom_type": "O2s"}, "1": {"label": "*0", "atom_type": "N3d"}, "3": {"label": "*2", "atom_type": "H0"}, "6": {"label": "*4", "atom_type": "N3d"}, "7": {"label": "*3", "atom_type": "Cd"}}

>  <type>  (11) 
unop_7

>  <geom_source>  (11) 
Heuristics

$$$$

     RDKit          3D

 10  8  0  0  0  0  0  0  0  0999 V2000
    1.5105    0.9863    0.0002 O   0  0  0  0  0  1  0  0  0  0  0  0
    2.1949   -0.0491    0.0001 N   0  0  0  0  0  2  0  0  0  0  0  0
    1.9471   -1.2183   -0.0002 N   0  0  0  0  0  2  0  0  0  0  0  0
    0.2302    0.9805   -0.0000 H   0  0  0  0  0  0  0  0  0  0  0  0
    0.9624   -1.5275   -0.0005 H   0  0  0  0  0  0  0  0  0  0  0  0
   -2.8711   -0.3864    0.0001 O   0  0  0  0  0  0  0  0  0  0  0  0
   -1.4843   -0.2162    0.0001 N   0  0  0  0  0  2  0  0  0  0  0  0
   -1.0063    0.9319   -0.0003 C   0  0  0  0  0  3  0  0  0  0  0  0
   -3.0056   -1.3445    0.0004 H   0  0  0  0  0  0  0  0  0  0  0  0
   -1.5323    1.8785   -0.0009 H   0  0  0  0  0  0  0  0  0  0  0  0
  1  2  1  0
  2  3  1  0
  3  5  1  0
  4  8  1  0
  6  7  1  0
  6  9  1  0
  7  8  1  0
  8 10  1  0
M  RAD  5   1   2   2   2   3   2   7   2   8   2
M  END
>  <reaction>  (12) 
rmg_rxn_15383

>  <mol_properties>  (12) 
{"0": {"label": "*1", "atom_type": "O2s"}, "1": {"label": "*0", "atom_type": "N3d"}, "3": {"label": "*2", "atom_type": "H0"}, "6": {"label": "*4", "atom_type": "N3d"}, "7": {"label": "*3", "atom_type": "Cd"}}

>  <type>  (12) 
unop_8

>  <geom_source>  (12) 
Heuristics

$$$$

     RDKit          3D

 10  8  0  0  0  0  0  0  0  0999 V2000
   -0.0000   -0.9227    1.4609 O   0  0  0  0  0  0  0  0  0  0  0  0
   -0.0000   -2.1699    0.9510 N   0  0  0  0  0  0  0  0  0  0  0  0
   -0.0000   -2.1699   -0.2726 N   0  0  0  0  0  0  0  0  0  0  0  0
   -0.0000   -0.1945    0.5450 H   0  0  0  0  0  0  0  0  0  0  0  0
    0.0000   -3.1498   -0.5594 H   0  0  0  0  0  0  0  0  0  0  0  0
    0.0000    2.6180   -1.3577 O   0  0  0  0  0  0  0  0  0  0  0  0
    0.0000    1.8487   -0.2108 N   0  0  0  0  0  0  0  0  0  0  0  0
    0.0000    0.6135   -0.4711 C   0  0  0  0  0  3  0  0  0  0  0  0
    0.0000    3.5167   -1.0222 H   0  0  0  0  0  0  0  0  0  0  0  0
   -0.0000    0.2284   -1.4886 H   0  0  0  0  0  0  0  0  0  0  0  0
  1  2  1  0
  1  4  1  0
  2  3  2  3
  3  5  1  0
  6  7  1  0
  6  9  1  0
  7  8  2  3
  8 10  1  0
M  RAD  1   8   2
M  END
>  <reaction>  (13) 
rmg_rxn_15383

>  <mol_properties>  (13) 
{"0": {"label": "*1", "atom_type": "O2s"}, "1": {"label": "*0", "atom_type": "N3d"}, "3": {"label": "*2", "atom_type": "H0"}, "6": {"label": "*4", "atom_type": "N3d"}, "7": {"label": "*3", "atom_type": "Cd"}}

>  <type>  (13) 
unop_9

>  <geom_source>  (13) 
Heuristics

$$$$

     RDKit          3D

 10  8  0  0  0  0  0  0  0  0999 V2000
    1.5106   -0.9864   -0.0006 O   0  0  0  0  0  1  0  0  0  0  0  0
    2.1946    0.0493   -0.0004 N   0  0  0  0  0  2  0  0  0  0  0  0
    1.9463    1.2184    0.0006 N   0  0  0  0  0  2  0  0  0  0  0  0
    0.2303   -0.9811    0.0003 H   0  0  0  0  0  0  0  0  0  0  0  0
    0.9616    1.5273    0.0015 H   0  0  0  0  0  0  0  0  0  0  0  0
   -2.8706    0.3865   -0.0001 O   0  0  0  0  0  0  0  0  0  0  0  0
   -1.4838    0.2160   -0.0005 N   0  0  0  0  0  2  0  0  0  0  0  0
   -1.0062   -0.9323    0.0010 C   0  0  0  0  0  3  0  0  0  0  0  0
   -3.0051    1.3446   -0.0019 H   0  0  0  0  0  0  0  0  0  0  0  0
   -1.5326   -1.8786    0.0028 H   0  0  0  0  0  0  0  0  0  0  0  0
  1  2  1  0
  2  3  1  0
  3  5  1  0
  4  8  1  0
  6  7  1  0
  6  9  1  0
  7  8  1  0
  8 10  1  0
M  RAD  5   1   2   2   2   3   2   7   2   8   2
M  END
>  <reaction>  (14) 
rmg_rxn_15383

>  <mol_properties>  (14) 
{"0": {"label": "*1", "atom_type": "O2s"}, "1": {"label": "*0", "atom_type": "N3d"}, "3": {"label": "*2", "atom_type": "H0"}, "6": {"label": "*4", "atom_type": "N3d"}, "7": {"label": "*3", "atom_type": "Cd"}}

>  <type>  (14) 
unop_10

>  <geom_source>  (14) 
Heuristics

$$$$

     RDKit          3D

 10  8  0  0  0  0  0  0  0  0999 V2000
   -0.3946   -0.7294    1.5453 O   0  0  0  0  0  0  0  0  0  0  0  0
   -0.3946   -1.9765    1.0354 N   0  0  0  0  0  0  0  0  0  0  0  0
   -0.3946   -1.9765   -0.1882 N   0  0  0  0  0  0  0  0  0  0  0  0
   -0.3946   -0.0011    0.6294 H   0  0  0  0  0  0  0  0  0  0  0  0
   -0.3946   -2.9564   -0.4750 H   0  0  0  0  0  0  0  0  0  0  0  0
    0.7615    2.4968   -1.1688 O   0  0  0  0  0  0  0  0  0  0  0  0
    0.7342    1.1586   -0.8290 N   0  0  0  0  0  0  0  0  0  0  0  0
   -0.3946    0.8069   -0.3867 C   0  0  0  0  0  3  0  0  0  0  0  0
    1.6582    2.6277   -1.4834 H   0  0  0  0  0  0  0  0  0  0  0  0
   -1.2299    1.4979   -0.2948 H   0  0  0  0  0  0  0  0  0  0  0  0
  1  2  1  0
  1  4  1  0
  2  3  2  3
  3  5  1  0
  6  7  1  0
  6  9  1  0
  7  8  2  3
  8 10  1  0
M  RAD  1   8   2
M  END
>  <reaction>  (15) 
rmg_rxn_15383

>  <mol_properties>  (15) 
{"0": {"label": "*1", "atom_type": "O2s"}, "1": {"label": "*0", "atom_type": "N3d"}, "3": {"label": "*2", "atom_type": "H0"}, "6": {"label": "*4", "atom_type": "N3d"}, "7": {"label": "*3", "atom_type": "Cd"}}

>  <type>  (15) 
unop_11

>  <geom_source>  (15) 
Heuristics

$$$$

     RDKit          3D

 10  8  0  0  0  0  0  0  0  0999 V2000
    1.5115    0.9865   -0.0011 O   0  0  0  0  0  1  0  0  0  0  0  0
    2.1938   -0.0502   -0.0004 N   0  0  0  0  0  2  0  0  0  0  0  0
    1.9436   -1.2189    0.0011 N   0  0  0  0  0  2  0  0  0  0  0  0
    0.2311    0.9817    0.0003 H   0  0  0  0  0  0  0  0  0  0  0  0
    0.9582   -1.5258    0.0022 H   0  0  0  0  0  0  0  0  0  0  0  0
   -2.8698   -0.3860   -0.0001 O   0  0  0  0  0  0  0  0  0  0  0  0
   -1.4829   -0.2158   -0.0012 N   0  0  0  0  0  2  0  0  0  0  0  0
   -1.0053    0.9325    0.0018 C   0  0  0  0  0  3  0  0  0  0  0  0
   -3.0043   -1.3441   -0.0032 H   0  0  0  0  0  0  0  0  0  0  0  0
   -1.5320    1.8788    0.0056 H   0  0  0  0  0  0  0  0  0  0  0  0
  1  2  1  0
  2  3  1  0
  3  5  1  0
  4  8  1  0
  6  7  1  0
  6  9  1  0
  7  8  1  0
  8 10  1  0
M  RAD  5   1   2   2   2   3   2   7   2   8   2
M  END
>  <reaction>  (16) 
rmg_rxn_15383

>  <mol_properties>  (16) 
{"0": {"label": "*1", "atom_type": "O2s"}, "1": {"label": "*0", "atom_type": "N3d"}, "3": {"label": "*2", "atom_type": "H0"}, "6": {"label": "*4", "atom_type": "N3d"}, "7": {"label": "*3", "atom_type": "Cd"}}

>  <type>  (16) 
unop_12

>  <geom_source>  (16) 
Heuristics

$$$$

     RDKit          3D

 10  8  0  0  0  0  0  0  0  0999 V2000
   -0.2590   -0.8688    1.4278 O   0  0  0  0  0  0  0  0  0  0  0  0
   -0.2590   -2.1160    0.9178 N   0  0  0  0  0  0  0  0  0  0  0  0
   -0.2590   -2.1160   -0.3058 N   0  0  0  0  0  0  0  0  0  0  0  0
   -0.2590   -0.1405    0.5119 H   0  0  0  0  0  0  0  0  0  0  0  0
   -0.2590   -3.0959   -0.5926 H   0  0  0  0  0  0  0  0  0  0  0  0
    0.3192    2.7334   -0.9533 O   0  0  0  0  0  0  0  0  0  0  0  0
    0.7186    1.4609   -0.5953 N   0  0  0  0  0  0  0  0  0  0  0  0
   -0.2590    0.6674   -0.5043 C   0  0  0  0  0  3  0  0  0  0  0  0
    1.1429    3.2237   -0.9859 H   0  0  0  0  0  0  0  0  0  0  0  0
   -1.2850    0.9768   -0.6915 H   0  0  0  0  0  0  0  0  0  0  0  0
  1  2  1  0
  1  4  1  0
  2  3  2  3
  3  5  1  0
  6  7  1  0
  6  9  1  0
  7  8  2  3
  8 10  1  0
M  RAD  1   8   2
M  END
>  <reaction>  (17) 
rmg_rxn_15383

>  <mol_properties>  (17) 
{"0": {"label": "*1", "atom_type": "O2s"}, "1": {"label": "*0", "atom_type": "N3d"}, "3": {"label": "*2", "atom_type": "H0"}, "6": {"label": "*4", "atom_type": "N3d"}, "7": {"label": "*3", "atom_type": "Cd"}}

>  <type>  (17) 
unop_13

>  <geom_source>  (17) 
Heuristics

$$$$

     RDKit          3D

 10  8  0  0  0  0  0  0  0  0999 V2000
    0.3946   -0.7294    1.5453 O   0  0  0  0  0  0  0  0  0  0  0  0
    0.3946   -1.9765    1.0354 N   0  0  0  0  0  0  0  0  0  0  0  0
    0.3946   -1.9765   -0.1882 N   0  0  0  0  0  0  0  0  0  0  0  0
    0.3946   -0.0011    0.6294 H   0  0  0  0  0  0  0  0  0  0  0  0
    0.3946   -2.9564   -0.4750 H   0  0  0  0  0  0  0  0  0  0  0  0
   -0.7615    2.4968   -1.1688 O   0  0  0  0  0  0  0  0  0  0  0  0
   -0.7342    1.1586   -0.8290 N   0  0  0  0  0  0  0  0  0  0  0  0
    0.3946    0.8069   -0.3867 C   0  0  0  0  0  3  0  0  0  0  0  0
   -1.6582    2.6277   -1.4834 H   0  0  0  0  0  0  0  0  0  0  0  0
    1.2299    1.4979   -0.2948 H   0  0  0  0  0  0  0  0  0  0  0  0
  1  2  1  0
  1  4  1  0
  2  3  2  3
  3  5  1  0
  6  7  1  0
  6  9  1  0
  7  8  2  3
  8 10  1  0
M  RAD  1   8   2
M  END
>  <reaction>  (18) 
rmg_rxn_15383

>  <mol_properties>  (18) 
{"0": {"label": "*1", "atom_type": "O2s"}, "1": {"label": "*0", "atom_type": "N3d"}, "3": {"label": "*2", "atom_type": "H0"}, "6": {"label": "*4", "atom_type": "N3d"}, "7": {"label": "*3", "atom_type": "Cd"}}

>  <type>  (18) 
unop_14

>  <geom_source>  (18) 
Heuristics

$$$$

     RDKit          3D

 10  8  0  0  0  0  0  0  0  0999 V2000
    1.5256    0.9988   -0.0001 O   0  0  0  0  0  1  0  0  0  0  0  0
    2.1288   -0.0818    0.0002 N   0  0  0  0  0  0  0  0  0  0  0  0
    1.8159   -1.2327   -0.0000 N   0  0  0  0  0  0  0  0  0  0  0  0
    0.2389    1.0553   -0.0002 H   0  0  0  0  0  0  0  0  0  0  0  0
    0.8180   -1.4957   -0.0004 H   0  0  0  0  0  0  0  0  0  0  0  0
   -2.7545   -0.4890    0.0002 O   0  0  0  0  0  0  0  0  0  0  0  0
   -1.4184   -0.2142   -0.0003 N   0  0  0  0  0  0  0  0  0  0  0  0
   -0.9889    0.9561   -0.0000 C   0  0  0  0  0  0  0  0  0  0  0  0
   -3.2940    0.3249    0.0004 H   0  0  0  0  0  0  0  0  0  0  0  0
   -1.5790    1.8726    0.0006 H   0  0  0  0  0  0  0  0  0  0  0  0
  1  2  1  0
  2  3  2  3
  3  5  1  0
  4  8  1  0
  6  7  1  0
  6  9  1  0
  7  8  2  3
  8 10  1  0
M  RAD  1   1   2
M  END
>  <reaction>  (19) 
rmg_rxn_15383

>  <mol_properties>  (19) 
{"0": {"label": "*1", "atom_type": "O2s"}, "1": {"label": "*0", "atom_type": "N3d"}, "3": {"label": "*2", "atom_type": "H0"}, "6": {"label": "*4", "atom_type": "N3d"}, "7": {"label": "*3", "atom_type": "Cd"}}

>  <type>  (19) 
unop_15

>  <geom_source>  (19) 
Heuristics

$$$$

     RDKit          3D

 10  8  0  0  0  0  0  0  0  0999 V2000
   -0.2531   -0.4058    1.8581 O   0  0  0  0  0  0  0  0  0  0  0  0
   -0.2531   -1.6530    1.3481 N   0  0  0  0  0  0  0  0  0  0  0  0
   -0.2531   -1.6530    0.1246 N   0  0  0  0  0  0  0  0  0  0  0  0
   -0.2531    0.3225    0.9422 H   0  0  0  0  0  0  0  0  0  0  0  0
   -0.2531   -2.6328   -0.1622 H   0  0  0  0  0  0  0  0  0  0  0  0
    0.6102    1.7501   -1.9909 O   0  0  0  0  0  0  0  0  0  0  0  0
    0.3113    0.7170   -1.1246 N   0  0  0  0  0  0  0  0  0  0  0  0
   -0.2531    1.1305   -0.0739 C   0  0  0  0  0  3  0  0  0  0  0  0
    1.0267    1.3052   -2.7316 H   0  0  0  0  0  0  0  0  0  0  0  0
   -0.4667    2.1826    0.1021 H   0  0  0  0  0  0  0  0  0  0  0  0
  1  2  1  0
  1  4  1  0
  2  3  2  3
  3  5  1  0
  6  7  1  0
  6  9  1  0
  7  8  2  3
  8 10  1  0
M  RAD  1   8   2
M  END
>  <reaction>  (20) 
rmg_rxn_15383

>  <mol_properties>  (20) 
{"0": {"label": "*1", "atom_type": "O2s"}, "1": {"label": "*0", "atom_type": "N3d"}, "3": {"label": "*2", "atom_type": "H0"}, "6": {"label": "*4", "atom_type": "N3d"}, "7": {"label": "*3", "atom_type": "Cd"}}

>  <type>  (20) 
unop_16

>  <geom_source>  (20) 
Heuristics

$$$$

     RDKit          3D

 10  8  0  0  0  0  0  0  0  0999 V2000
    0.3994   -0.5535    1.7110 O   0  0  0  0  0  0  0  0  0  0  0  0
    0.3994   -1.8007    1.2010 N   0  0  0  0  0  0  0  0  0  0  0  0
    0.3994   -1.8007   -0.0226 N   0  0  0  0  0  0  0  0  0  0  0  0
    0.3994    0.1748    0.7951 H   0  0  0  0  0  0  0  0  0  0  0  0
    0.3994   -2.7805   -0.3094 H   0  0  0  0  0  0  0  0  0  0  0  0
   -0.8966    2.1108   -1.5819 O   0  0  0  0  0  0  0  0  0  0  0  0
   -0.5782    0.8927   -1.0146 N   0  0  0  0  0  0  0  0  0  0  0  0
    0.3994    0.9827   -0.2211 C   0  0  0  0  0  3  0  0  0  0  0  0
   -1.6402    1.9030   -2.1511 H   0  0  0  0  0  0  0  0  0  0  0  0
    0.9119    1.9223   -0.0259 H   0  0  0  0  0  0  0  0  0  0  0  0
  1  2  1  0
  1  4  1  0
  2  3  2  3
  3  5  1  0
  6  7  1  0
  6  9  1  0
  7  8  2  3
  8 10  1  0
M  RAD  1   8   2
M  END
>  <reaction>  (21) 
rmg_rxn_15383

>  <mol_properties>  (21) 
{"0": {"label": "*1", "atom_type": "O2s"}, "1": {"label": "*0", "atom_type": "N3d"}, "3": {"label": "*2", "atom_type": "H0"}, "6": {"label": "*4", "atom_type": "N3d"}, "7": {"label": "*3", "atom_type": "Cd"}}

>  <type>  (21) 
unop_17

>  <geom_source>  (21) 
Heuristics

$$$$

     RDKit          3D

 10  8  0  0  0  0  0  0  0  0999 V2000
   -0.0749   -0.9273    1.4114 O   0  0  0  0  0  0  0  0  0  0  0  0
   -0.0749   -2.1745    0.9015 N   0  0  0  0  0  0  0  0  0  0  0  0
   -0.0749   -2.1745   -0.3221 N   0  0  0  0  0  0  0  0  0  0  0  0
   -0.0749   -0.1990    0.4955 H   0  0  0  0  0  0  0  0  0  0  0  0
   -0.0749   -3.1543   -0.6089 H   0  0  0  0  0  0  0  0  0  0  0  0
   -0.1227    2.7271   -1.0823 O   0  0  0  0  0  0  0  0  0  0  0  0
    0.4895    1.7258   -0.3545 N   0  0  0  0  0  0  0  0  0  0  0  0
   -0.0749    0.6090   -0.5206 C   0  0  0  0  0  3  0  0  0  0  0  0
    0.3955    3.5054   -0.8687 H   0  0  0  0  0  0  0  0  0  0  0  0
   -0.9402    0.4794   -1.1671 H   0  0  0  0  0  0  0  0  0  0  0  0
  1  2  1  0
  1  4  1  0
  2  3  2  3
  3  5  1  0
  6  7  1  0
  6  9  1  0
  7  8  2  3
  8 10  1  0
M  RAD  1   8   2
M  END
>  <reaction>  (22) 
rmg_rxn_15383

>  <mol_properties>  (22) 
{"0": {"label": "*1", "atom_type": "O2s"}, "1": {"label": "*0", "atom_type": "N3d"}, "3": {"label": "*2", "atom_type": "H0"}, "6": {"label": "*4", "atom_type": "N3d"}, "7": {"label": "*3", "atom_type": "Cd"}}

>  <type>  (22) 
unop_18

>  <geom_source>  (22) 
Heuristics

$$$$

     RDKit          3D

 10  8  0  0  0  0  0  0  0  0999 V2000
   -0.0000   -0.3476    1.9183 O   0  0  0  0  0  0  0  0  0  0  0  0
   -0.0000   -1.5947    1.4083 N   0  0  0  0  0  0  0  0  0  0  0  0
   -0.0000   -1.5947    0.1848 N   0  0  0  0  0  0  0  0  0  0  0  0
   -0.0000    0.3807    1.0024 H   0  0  0  0  0  0  0  0  0  0  0  0
    0.0000   -2.5746   -0.1021 H   0  0  0  0  0  0  0  0  0  0  0  0
    0.0000    1.6009   -2.1665 O   0  0  0  0  0  0  0  0  0  0  0  0
    0.0000    0.6569   -1.1586 N   0  0  0  0  0  0  0  0  0  0  0  0
    0.0000    1.1887   -0.0138 C   0  0  0  0  0  3  0  0  0  0  0  0
   -0.0000    1.0716   -2.9664 H   0  0  0  0  0  0  0  0  0  0  0  0
    0.0000    2.2668    0.1323 H   0  0  0  0  0  0  0  0  0  0  0  0
  1  2  1  0
  1  4  1  0
  2  3  2  3
  3  5  1  0
  6  7  1  0
  6  9  1  0
  7  8  2  3
  8 10  1  0
M  RAD  1   8   2
M  END
>  <reaction>  (23) 
rmg_rxn_15383

>  <mol_properties>  (23) 
{"0": {"label": "*1", "atom_type": "O2s"}, "1": {"label": "*0", "atom_type": "N3d"}, "3": {"label": "*2", "atom_type": "H0"}, "6": {"label": "*4", "atom_type": "N3d"}, "7": {"label": "*3", "atom_type": "Cd"}}

>  <type>  (23) 
unop_19

>  <geom_source>  (23) 
Heuristics

$$$$

     RDKit          3D

 10  8  0  0  0  0  0  0  0  0999 V2000
    2.0066    0.5260    2.3368 O   0  0  0  0  0  0  0  0  0  0  0  0
   -0.6940   -1.0167   -1.1675 O   0  0  0  0  0  1  0  0  0  0  0  0
    1.6505   -0.3150    1.3087 N   0  0  0  0  0  2  0  0  0  0  0  0
   -1.7113   -0.6095   -1.9967 N   0  0  0  0  0  2  0  0  0  0  0  0
   -1.9407    0.6279   -2.1591 N   0  0  0  0  0  2  0  0  0  0  0  0
    0.4936   -0.2073    0.7439 C   0  0  0  0  0  3  0  0  0  0  0  0
   -0.2121    0.5459    1.0713 H   0  0  0  0  0  0  0  0  0  0  0  0
    0.2056   -0.9230   -0.1223 H   0  0  0  0  0  0  0  0  0  0  0  0
    2.9150    0.4348    2.7737 H   0  0  0  0  0  0  0  0  0  0  0  0
   -2.7132    0.9370   -2.7888 H   0  0  0  0  0  0  0  0  0  0  0  0
  1  3  1  0
  1  9  1  0
  2  4  1  0
  3  6  1  0
  4  5  1  0
  5 10  1  0
  6  8  1  0
  6  7  1  0
M  RAD  5   2   2   3   2   4   2   5   2   6   2
M  END
>  <reaction>  (24) 
rmg_rxn_15383

>  <mol_properties>  (24) 
{"0": {"label": "*1", "atom_type": "O2s"}, "1": {"label": "*0", "atom_type": "N3d"}, "3": {"label": "*2", "atom_type": "H0"}, "6": {"label": "*4", "atom_type": "N3d"}, "7": {"label": "*3", "atom_type": "Cd"}}

>  <type>  (24) 
unop_20

>  <geom_source>  (24) 
AutoTST

$$$$

     RDKit          3D

 10  8  0  0  0  0  0  0  0  0999 V2000
    0.2531   -0.4058    1.8581 O   0  0  0  0  0  0  0  0  0  0  0  0
    0.2531   -1.6530    1.3481 N   0  0  0  0  0  0  0  0  0  0  0  0
    0.2531   -1.6530    0.1246 N   0  0  0  0  0  0  0  0  0  0  0  0
    0.2531    0.3225    0.9422 H   0  0  0  0  0  0  0  0  0  0  0  0
    0.2531   -2.6328   -0.1622 H   0  0  0  0  0  0  0  0  0  0  0  0
   -0.6102    1.7501   -1.9909 O   0  0  0  0  0  0  0  0  0  0  0  0
   -0.3113    0.7170   -1.1246 N   0  0  0  0  0  0  0  0  0  0  0  0
    0.2531    1.1305   -0.0739 C   0  0  0  0  0  3  0  0  0  0  0  0
   -1.0267    1.3052   -2.7317 H   0  0  0  0  0  0  0  0  0  0  0  0
    0.4667    2.1826    0.1021 H   0  0  0  0  0  0  0  0  0  0  0  0
  1  2  1  0
  1  4  1  0
  2  3  2  3
  3  5  1  0
  6  7  1  0
  6  9  1  0
  7  8  2  3
  8 10  1  0
M  RAD  1   8   2
M  END
>  <reaction>  (25) 
rmg_rxn_15383

>  <mol_properties>  (25) 
{"0": {"label": "*1", "atom_type": "O2s"}, "1": {"label": "*0", "atom_type": "N3d"}, "3": {"label": "*2", "atom_type": "H0"}, "6": {"label": "*4", "atom_type": "N3d"}, "7": {"label": "*3", "atom_type": "Cd"}}

>  <type>  (25) 
unop_21

>  <geom_source>  (25) 
gaussian_log

$$$$
