
     RDKit          3D

 14 14  0  0  0  0  0  0  0  0999 V2000
   -1.1778    0.2241    0.1818 C   0  0  0  0  0  0  0  0  0  0  0  0
   -0.5633   -1.1636    0.0678 C   0  0  0  0  0  0  0  0  0  0  0  0
    0.6943   -1.1996    0.7146 O   0  0  0  0  0  0  0  0  0  0  0  0
    1.5547   -0.2288    0.2011 C   0  0  0  0  0  0  0  0  0  0  0  0
    1.0729    1.0696    0.3698 O   0  0  0  0  0  0  0  0  0  0  0  0
   -0.1607    1.2493   -0.2989 C   0  0  0  0  0  0  0  0  0  0  0  0
   -2.0927    0.2866   -0.4117 H   0  0  0  0  0  0  0  0  0  0  0  0
   -1.4303    0.4248    1.2248 H   0  0  0  0  0  0  0  0  0  0  0  0
   -1.1822   -1.9235    0.5431 H   0  0  0  0  0  0  0  0  0  0  0  0
   -0.4389   -1.4347   -0.9919 H   0  0  0  0  0  0  0  0  0  0  0  0
    1.7250   -0.4207   -0.8742 H   0  0  0  0  0  0  0  0  0  0  0  0
    2.4896   -0.3010    0.7524 H   0  0  0  0  0  0  0  0  0  0  0  0
   -0.0080    1.1481   -1.3844 H   0  0  0  0  0  0  0  0  0  0  0  0
   -0.4826    2.2695   -0.0942 H   0  0  0  0  0  0  0  0  0  0  0  0
  1  2  1  0
  1  6  1  0
  1  7  1  0
  1  8  1  0
  2  3  1  0
  2  9  1  0
  2 10  1  0
  3  4  1  0
  4  5  1  0
  4 11  1  0
  4 12  1  0
  5  6  1  0
  6 13  1  0
  6 14  1  0
M  END
>  <reaction>  (1) 
rmg_rxn_179

>  <mol_properties>  (1) 
{"3": {"label": "donator", "atom_type": "Cs"}, "10": {"label": "d_hydrogen", "atom_type": "H0"}}

>  <type>  (1) 
r1h

$$$$

     RDKit          3D

  8  7  0  0  0  0  0  0  0  0999 V2000
   -1.0336    0.3440   -0.0356 C   0  0  0  0  0  3  0  0  0  0  0  0
    0.1991   -0.4326   -0.0698 C   0  0  0  0  0  0  0  0  0  0  0  0
    0.9631   -0.0368    1.2269 N   0  0  0  0  0  0  0  0  0  0  0  0
    0.8138   -0.8074    2.1160 O   0  0  0  0  0  0  0  0  0  0  0  0
   -1.0668    1.3490   -0.4321 H   0  0  0  0  0  0  0  0  0  0  0  0
   -1.8598    0.0102    0.5774 H   0  0  0  0  0  0  0  0  0  0  0  0
    0.0447   -1.5108   -0.0264 H   0  0  0  0  0  0  0  0  0  0  0  0
    0.8639   -0.1518   -0.8851 H   0  0  0  0  0  0  0  0  0  0  0  0
  1  2  1  0
  1  5  1  0
  1  6  1  0
  2  3  1  0
  2  7  1  0
  2  8  1  0
  3  4  2  0
M  RAD  1   1   2
M  END
>  <reaction>  (2) 
rmg_rxn_179

>  <mol_properties>  (2) 
{"0": {"label": "acceptor", "atom_type": "Cs"}}

>  <type>  (2) 
r2

$$$$

     RDKit          3D

  9  8  0  0  0  0  0  0  0  0999 V2000
   -1.0314    0.2323   -0.1227 C   0  0  0  0  0  0  0  0  0  0  0  0
    0.3094   -0.4511    0.0063 C   0  0  0  0  0  0  0  0  0  0  0  0
    0.3197   -1.7698    0.6841 N   0  0  0  0  0  0  0  0  0  0  0  0
   -0.7498   -2.1455    1.0557 O   0  0  0  0  0  0  0  0  0  0  0  0
   -1.4744    0.4198    0.8552 H   0  0  0  0  0  0  0  0  0  0  0  0
   -0.9073    1.1865   -0.6350 H   0  0  0  0  0  0  0  0  0  0  0  0
   -1.7319   -0.3778   -0.6927 H   0  0  0  0  0  0  0  0  0  0  0  0
    1.0375    0.1401    0.5713 H   0  0  0  0  0  0  0  0  0  0  0  0
    0.7826   -0.6494   -0.9609 H   0  0  0  0  0  0  0  0  0  0  0  0
  1  2  1  0
  1  5  1  0
  1  6  1  0
  1  7  1  0
  2  3  1  0
  2  8  1  0
  2  9  1  0
  3  4  2  0
M  END
>  <reaction>  (3) 
rmg_rxn_179

>  <mol_properties>  (3) 
{"0": {"label": "acceptor", "atom_type": "Cs"}, "8": {"label": "a_hydrogen", "atom_type": "H0"}}

>  <type>  (3) 
r2h

$$$$

     RDKit          3D

 22 21  0  0  0  0  0  0  0  0999 V2000
    0.2917    1.6370    0.8563 C   0  0  0  0  0  3  0  0  0  0  0  0
    1.2467    0.8231    1.6619 C   0  0  0  0  0  0  0  0  0  0  0  0
    2.3249    0.1090    0.9417 N   0  0  0  0  0  0  0  0  0  0  0  0
    2.3958    0.3465   -0.2274 O   0  0  0  0  0  0  0  0  0  0  0  0
   -0.3375    2.2855    1.4603 H   0  0  0  0  0  0  0  0  0  0  0  0
    0.7225    2.1456   -0.0008 H   0  0  0  0  0  0  0  0  0  0  0  0
    1.8100    1.4159    2.3976 H   0  0  0  0  0  0  0  0  0  0  0  0
    0.7571    0.0416    2.2547 H   0  0  0  0  0  0  0  0  0  0  0  0
   -0.4912   -1.8826   -1.7218 C   0  0  0  0  0  0  0  0  0  0  0  0
   -0.5600   -1.9515   -0.2054 C   0  0  0  0  0  0  0  0  0  0  0  0
   -1.6593   -1.1984    0.2856 O   0  0  0  0  0  0  0  0  0  0  0  0
   -1.7016    0.0921   -0.1991 C   0  0  0  0  0  0  0  0  0  0  0  0
   -1.6701    0.2132   -1.5685 O   0  0  0  0  0  0  0  0  0  0  0  0
   -0.5387   -0.4248   -2.1468 C   0  0  0  0  0  0  0  0  0  0  0  0
    0.4290   -2.3511   -2.0762 H   0  0  0  0  0  0  0  0  0  0  0  0
   -1.3391   -2.4183   -2.1536 H   0  0  0  0  0  0  0  0  0  0  0  0
   -0.7078   -2.9699    0.1500 H   0  0  0  0  0  0  0  0  0  0  0  0
    0.3694   -1.5682    0.2320 H   0  0  0  0  0  0  0  0  0  0  0  0
   -0.6994    0.7724    0.2851 H   0  0  0  0  0  0  0  0  0  0  0  0
   -2.5995    0.5768    0.1794 H   0  0  0  0  0  0  0  0  0  0  0  0
    0.3719    0.0974   -1.8293 H   0  0  0  0  0  0  0  0  0  0  0  0
   -0.6457   -0.3173   -3.2246 H   0  0  0  0  0  0  0  0  0  0  0  0
  1  2  1  0
  1  5  1  0
  1  6  1  0
  2  3  1  0
  2  7  1  0
  2  8  1  0
  3  4  2  0
  9 10  1  0
  9 14  1  0
  9 15  1  0
  9 16  1  0
 10 11  1  0
 10 17  1  0
 10 18  1  0
 11 12  1  0
 12 13  1  0
 12 19  1  0
 12 20  1  0
 13 14  1  0
 14 21  1  0
 14 22  1  0
M  RAD  1   1   2
M  END
>  <reaction>  (4) 
rmg_rxn_179

>  <mol_properties>  (4) 
{"0": {"label": "*3", "atom_type": "Cs"}, "1": {"label": "*4", "atom_type": "Cs"}, "10": {"label": "*0", "atom_type": "O2s"}, "11": {"label": "*1", "atom_type": "Cs"}, "18": {"label": "*2", "atom_type": "H0"}}

>  <type>  (4) 
ts

$$$$

     RDKit          3D

 22 21  0  0  0  0  0  0  0  0999 V2000
    0.7178    0.8140    1.1376 C   0  0  0  0  0  0  0  0  0  0  0  0
    1.5359    1.1921   -0.0745 C   0  0  0  0  0  0  0  0  0  0  0  0
    2.2842    2.4699    0.0022 N   0  0  0  0  0  0  0  0  0  0  0  0
    2.1519    3.0620    1.0293 O   0  0  0  0  0  0  0  0  0  0  0  0
    1.3463    0.7145    2.0224 H   0  0  0  0  0  0  0  0  0  0  0  0
   -0.0404    1.5668    1.3523 H   0  0  0  0  0  0  0  0  0  0  0  0
    2.3048    0.4519   -0.3187 H   0  0  0  0  0  0  0  0  0  0  0  0
    0.9322    1.2956   -0.9820 H   0  0  0  0  0  0  0  0  0  0  0  0
   -0.6017   -2.3755   -1.1499 C   0  0  0  0  0  0  0  0  0  0  0  0
   -0.6017   -2.3755    0.3721 C   0  0  0  0  0  0  0  0  0  0  0  0
   -1.6500   -1.5629    0.8642 O   0  0  0  0  0  0  0  0  0  0  0  0
   -1.5591   -0.2634    0.3649 C   0  0  0  0  0  3  0  0  0  0  0  0
   -1.6500   -0.2072   -1.0261 O   0  0  0  0  0  0  0  0  0  0  0  0
   -0.6017   -0.9339   -1.6380 C   0  0  0  0  0  0  0  0  0  0  0  0
    0.2723   -2.9080   -1.5318 H   0  0  0  0  0  0  0  0  0  0  0  0
   -1.4983   -2.8817   -1.5129 H   0  0  0  0  0  0  0  0  0  0  0  0
   -0.7607   -3.3731    0.7795 H   0  0  0  0  0  0  0  0  0  0  0  0
    0.3619   -1.9996    0.7489 H   0  0  0  0  0  0  0  0  0  0  0  0
   -0.4127    0.2791    0.7540 H   0  0  0  0  0  0  0  0  0  0  0  0
   -2.4002    0.2971    0.7669 H   0  0  0  0  0  0  0  0  0  0  0  0
    0.3619   -0.4565   -1.4027 H   0  0  0  0  0  0  0  0  0  0  0  0
   -0.7607   -0.8680   -2.7135 H   0  0  0  0  0  0  0  0  0  0  0  0
  1  2  1  0
  1  5  1  0
  1  6  1  0
  1 19  1  0
  2  3  1  0
  2  7  1  0
  2  8  1  0
  3  4  2  0
  9 10  1  0
  9 14  1  0
  9 15  1  0
  9 16  1  0
 10 11  1  0
 10 17  1  0
 10 18  1  0
 11 12  1  0
 12 13  1  0
 12 20  1  0
 13 14  1  0
 14 21  1  0
 14 22  1  0
M  RAD  1  12   2
M  END
>  <reaction>  (5) 
rmg_rxn_179

>  <mol_properties>  (5) 
{"0": {"label": "*3", "atom_type": "Cs"}, "1": {"label": "*4", "atom_type": "Cs"}, "10": {"label": "*0", "atom_type": "O2s"}, "11": {"label": "*1", "atom_type": "Cs"}, "18": {"label": "*2", "atom_type": "H0"}}

>  <type>  (5) 
unop_1

>  <geom_source>  (5) 
Heuristics

$$$$

     RDKit          3D

 22 21  0  0  0  0  0  0  0  0999 V2000
    0.4815    1.3614    0.8615 C   0  0  0  0  0  0  0  0  0  0  0  0
    1.5254    0.2809    1.0178 C   0  0  0  0  0  0  0  0  0  0  0  0
    2.9405    0.7232    1.0368 N   0  0  0  0  0  0  0  0  0  0  0  0
    3.0943    1.9009    0.9246 O   0  0  0  0  0  0  0  0  0  0  0  0
    0.5354    2.0829    1.6765 H   0  0  0  0  0  0  0  0  0  0  0  0
    0.6142    1.9060   -0.0731 H   0  0  0  0  0  0  0  0  0  0  0  0
    1.4156   -0.2879    1.9469 H   0  0  0  0  0  0  0  0  0  0  0  0
    1.4936   -0.4630    0.2151 H   0  0  0  0  0  0  0  0  0  0  0  0
   -0.8381   -1.8282   -1.4260 C   0  0  0  0  0  0  0  0  0  0  0  0
   -0.8381   -1.8282    0.0960 C   0  0  0  0  0  0  0  0  0  0  0  0
   -1.8864   -1.0156    0.5882 O   0  0  0  0  0  0  0  0  0  0  0  0
   -1.7955    0.2840    0.0888 C   0  0  0  0  0  3  0  0  0  0  0  0
   -1.8864    0.3401   -1.3022 O   0  0  0  0  0  0  0  0  0  0  0  0
   -0.8381   -0.3866   -1.9141 C   0  0  0  0  0  0  0  0  0  0  0  0
    0.0359   -2.3607   -1.8079 H   0  0  0  0  0  0  0  0  0  0  0  0
   -1.7347   -2.3344   -1.7890 H   0  0  0  0  0  0  0  0  0  0  0  0
   -0.9970   -2.8257    0.5034 H   0  0  0  0  0  0  0  0  0  0  0  0
    0.1255   -1.4522    0.4728 H   0  0  0  0  0  0  0  0  0  0  0  0
   -0.6490    0.8264    0.4779 H   0  0  0  0  0  0  0  0  0  0  0  0
   -2.6365    0.8445    0.4908 H   0  0  0  0  0  0  0  0  0  0  0  0
    0.1255    0.0908   -1.6788 H   0  0  0  0  0  0  0  0  0  0  0  0
   -0.9970   -0.3206   -2.9896 H   0  0  0  0  0  0  0  0  0  0  0  0
  1  2  1  0
  1  5  1  0
  1  6  1  0
  1 19  1  0
  2  3  1  0
  2  7  1  0
  2  8  1  0
  3  4  2  0
  9 10  1  0
  9 14  1  0
  9 15  1  0
  9 16  1  0
 10 11  1  0
 10 17  1  0
 10 18  1  0
 11 12  1  0
 12 13  1  0
 12 20  1  0
 13 14  1  0
 14 21  1  0
 14 22  1  0
M  RAD  1  12   2
M  END
>  <reaction>  (6) 
rmg_rxn_179

>  <mol_properties>  (6) 
{"0": {"label": "*3", "atom_type": "Cs"}, "1": {"label": "*4", "atom_type": "Cs"}, "10": {"label": "*0", "atom_type": "O2s"}, "11": {"label": "*1", "atom_type": "Cs"}, "18": {"label": "*2", "atom_type": "H0"}}

>  <type>  (6) 
unop_2

>  <geom_source>  (6) 
Heuristics

$$$$

     RDKit          3D

 22 21  0  0  0  0  0  0  0  0999 V2000
    0.7683    0.7256    0.9830 C   0  0  0  0  0  0  0  0  0  0  0  0
    1.2321    1.7244   -0.0507 C   0  0  0  0  0  0  0  0  0  0  0  0
    2.0698    2.8456    0.4389 N   0  0  0  0  0  0  0  0  0  0  0  0
    2.2846    2.8296    1.6122 O   0  0  0  0  0  0  0  0  0  0  0  0
    1.6140    0.2455    1.4750 H   0  0  0  0  0  0  0  0  0  0  0  0
    0.1655    1.2061    1.7533 H   0  0  0  0  0  0  0  0  0  0  0  0
    1.8377    1.2704   -0.8419 H   0  0  0  0  0  0  0  0  0  0  0  0
    0.4039    2.2213   -0.5664 H   0  0  0  0  0  0  0  0  0  0  0  0
   -0.5512   -2.4640   -1.3045 C   0  0  0  0  0  0  0  0  0  0  0  0
   -0.5512   -2.4640    0.2175 C   0  0  0  0  0  0  0  0  0  0  0  0
   -1.5995   -1.6514    0.7097 O   0  0  0  0  0  0  0  0  0  0  0  0
   -1.5086   -0.3519    0.2103 C   0  0  0  0  0  3  0  0  0  0  0  0
   -1.5995   -0.2957   -1.1807 O   0  0  0  0  0  0  0  0  0  0  0  0
   -0.5512   -1.0224   -1.7926 C   0  0  0  0  0  0  0  0  0  0  0  0
    0.3228   -2.9965   -1.6864 H   0  0  0  0  0  0  0  0  0  0  0  0
   -1.4478   -2.9702   -1.6675 H   0  0  0  0  0  0  0  0  0  0  0  0
   -0.7102   -3.4615    0.6249 H   0  0  0  0  0  0  0  0  0  0  0  0
    0.4124   -2.0881    0.5943 H   0  0  0  0  0  0  0  0  0  0  0  0
   -0.3622    0.1906    0.5994 H   0  0  0  0  0  0  0  0  0  0  0  0
   -2.3497    0.2086    0.6123 H   0  0  0  0  0  0  0  0  0  0  0  0
    0.4124   -0.5450   -1.5573 H   0  0  0  0  0  0  0  0  0  0  0  0
   -0.7102   -0.9565   -2.8681 H   0  0  0  0  0  0  0  0  0  0  0  0
  1  2  1  0
  1  5  1  0
  1  6  1  0
  1 19  1  0
  2  3  1  0
  2  7  1  0
  2  8  1  0
  3  4  2  0
  9 10  1  0
  9 14  1  0
  9 15  1  0
  9 16  1  0
 10 11  1  0
 10 17  1  0
 10 18  1  0
 11 12  1  0
 12 13  1  0
 12 20  1  0
 13 14  1  0
 14 21  1  0
 14 22  1  0
M  RAD  1  12   2
M  END
>  <reaction>  (7) 
rmg_rxn_179

>  <mol_properties>  (7) 
{"0": {"label": "*3", "atom_type": "Cs"}, "1": {"label": "*4", "atom_type": "Cs"}, "10": {"label": "*0", "atom_type": "O2s"}, "11": {"label": "*1", "atom_type": "Cs"}, "18": {"label": "*2", "atom_type": "H0"}}

>  <type>  (7) 
unop_3

>  <geom_source>  (7) 
Heuristics

$$$$

     RDKit          3D

 22 21  0  0  0  0  0  0  0  0999 V2000
    0.8809    0.9298    0.4059 C   0  0  0  0  0  0  0  0  0  0  0  0
    0.9375    0.9656    1.9149 C   0  0  0  0  0  0  0  0  0  0  0  0
    1.6844    2.0923    2.5244 N   0  0  0  0  0  0  0  0  0  0  0  0
    2.1625    2.8533    1.7399 O   0  0  0  0  0  0  0  0  0  0  0  0
    0.4049    1.8256    0.0076 H   0  0  0  0  0  0  0  0  0  0  0  0
    1.8799    0.8654   -0.0249 H   0  0  0  0  0  0  0  0  0  0  0  0
   -0.0527    1.0260    2.3782 H   0  0  0  0  0  0  0  0  0  0  0  0
    1.4073    0.0755    2.3460 H   0  0  0  0  0  0  0  0  0  0  0  0
   -0.4386   -2.2598   -1.8816 C   0  0  0  0  0  0  0  0  0  0  0  0
   -0.4386   -2.2598   -0.3596 C   0  0  0  0  0  0  0  0  0  0  0  0
   -1.4869   -1.4472    0.1325 O   0  0  0  0  0  0  0  0  0  0  0  0
   -1.3960   -0.1476   -0.3668 C   0  0  0  0  0  3  0  0  0  0  0  0
   -1.4869   -0.0914   -1.7578 O   0  0  0  0  0  0  0  0  0  0  0  0
   -0.4386   -0.8181   -2.3697 C   0  0  0  0  0  0  0  0  0  0  0  0
    0.4354   -2.7922   -2.2635 H   0  0  0  0  0  0  0  0  0  0  0  0
   -1.3352   -2.7659   -2.2446 H   0  0  0  0  0  0  0  0  0  0  0  0
   -0.5975   -3.2573    0.0478 H   0  0  0  0  0  0  0  0  0  0  0  0
    0.5250   -1.8838    0.0171 H   0  0  0  0  0  0  0  0  0  0  0  0
   -0.2496    0.3949    0.0223 H   0  0  0  0  0  0  0  0  0  0  0  0
   -2.2370    0.4129    0.0352 H   0  0  0  0  0  0  0  0  0  0  0  0
    0.5250   -0.3407   -2.1344 H   0  0  0  0  0  0  0  0  0  0  0  0
   -0.5975   -0.7522   -3.4452 H   0  0  0  0  0  0  0  0  0  0  0  0
  1  2  1  0
  1  5  1  0
  1  6  1  0
  1 19  1  0
  2  3  1  0
  2  7  1  0
  2  8  1  0
  3  4  2  0
  9 10  1  0
  9 14  1  0
  9 15  1  0
  9 16  1  0
 10 11  1  0
 10 17  1  0
 10 18  1  0
 11 12  1  0
 12 13  1  0
 12 20  1  0
 13 14  1  0
 14 21  1  0
 14 22  1  0
M  RAD  1  12   2
M  END
>  <reaction>  (8) 
rmg_rxn_179

>  <mol_properties>  (8) 
{"0": {"label": "*3", "atom_type": "Cs"}, "1": {"label": "*4", "atom_type": "Cs"}, "10": {"label": "*0", "atom_type": "O2s"}, "11": {"label": "*1", "atom_type": "Cs"}, "18": {"label": "*2", "atom_type": "H0"}}

>  <type>  (8) 
unop_4

>  <geom_source>  (8) 
Heuristics

$$$$

     RDKit          3D

 22 21  0  0  0  0  0  0  0  0999 V2000
    0.7351    0.7417    0.9183 C   0  0  0  0  0  0  0  0  0  0  0  0
    0.8375    2.1492    0.3796 C   0  0  0  0  0  0  0  0  0  0  0  0
    2.0667    2.9036    0.7239 N   0  0  0  0  0  0  0  0  0  0  0  0
    2.8461    2.3023    1.3977 O   0  0  0  0  0  0  0  0  0  0  0  0
    1.5529    0.1198    0.5549 H   0  0  0  0  0  0  0  0  0  0  0  0
    0.7699    0.7327    2.0075 H   0  0  0  0  0  0  0  0  0  0  0  0
    0.8009    2.1918   -0.7138 H   0  0  0  0  0  0  0  0  0  0  0  0
    0.0259    2.7985    0.7240 H   0  0  0  0  0  0  0  0  0  0  0  0
   -0.5845   -2.4479   -1.3693 C   0  0  0  0  0  0  0  0  0  0  0  0
   -0.5845   -2.4479    0.1528 C   0  0  0  0  0  0  0  0  0  0  0  0
   -1.6327   -1.6352    0.6449 O   0  0  0  0  0  0  0  0  0  0  0  0
   -1.5418   -0.3357    0.1455 C   0  0  0  0  0  3  0  0  0  0  0  0
   -1.6327   -0.2795   -1.2455 O   0  0  0  0  0  0  0  0  0  0  0  0
   -0.5845   -1.0062   -1.8574 C   0  0  0  0  0  0  0  0  0  0  0  0
    0.2895   -2.9803   -1.7511 H   0  0  0  0  0  0  0  0  0  0  0  0
   -1.4810   -2.9540   -1.7323 H   0  0  0  0  0  0  0  0  0  0  0  0
   -0.7434   -3.4454    0.5601 H   0  0  0  0  0  0  0  0  0  0  0  0
    0.3792   -2.0719    0.5295 H   0  0  0  0  0  0  0  0  0  0  0  0
   -0.3954    0.2068    0.5346 H   0  0  0  0  0  0  0  0  0  0  0  0
   -2.3829    0.2248    0.5475 H   0  0  0  0  0  0  0  0  0  0  0  0
    0.3792   -0.5288   -1.6221 H   0  0  0  0  0  0  0  0  0  0  0  0
   -0.7434   -0.9403   -2.9328 H   0  0  0  0  0  0  0  0  0  0  0  0
  1  2  1  0
  1  5  1  0
  1  6  1  0
  1 19  1  0
  2  3  1  0
  2  7  1  0
  2  8  1  0
  3  4  2  0
  9 10  1  0
  9 14  1  0
  9 15  1  0
  9 16  1  0
 10 11  1  0
 10 17  1  0
 10 18  1  0
 11 12  1  0
 12 13  1  0
 12 20  1  0
 13 14  1  0
 14 21  1  0
 14 22  1  0
M  RAD  1  12   2
M  END
>  <reaction>  (9) 
rmg_rxn_179

>  <mol_properties>  (9) 
{"0": {"label": "*3", "atom_type": "Cs"}, "1": {"label": "*4", "atom_type": "Cs"}, "10": {"label": "*0", "atom_type": "O2s"}, "11": {"label": "*1", "atom_type": "Cs"}, "18": {"label": "*2", "atom_type": "H0"}}

>  <type>  (9) 
unop_5

>  <geom_source>  (9) 
Heuristics

$$$$

     RDKit          3D

 22 21  0  0  0  0  0  0  0  0999 V2000
    0.9454    0.7413    0.5675 C   0  0  0  0  0  0  0  0  0  0  0  0
    0.7498    1.4438    1.8903 C   0  0  0  0  0  0  0  0  0  0  0  0
    1.4591    2.7337    2.0680 N   0  0  0  0  0  0  0  0  0  0  0  0
    2.1134    3.0739    1.1303 O   0  0  0  0  0  0  0  0  0  0  0  0
    0.6059    1.3609   -0.2622 H   0  0  0  0  0  0  0  0  0  0  0  0
    1.9958    0.5057    0.3975 H   0  0  0  0  0  0  0  0  0  0  0  0
   -0.2978    1.6902    2.0923 H   0  0  0  0  0  0  0  0  0  0  0  0
    1.0781    0.8437    2.7453 H   0  0  0  0  0  0  0  0  0  0  0  0
   -0.3741   -2.4483   -1.7200 C   0  0  0  0  0  0  0  0  0  0  0  0
   -0.3741   -2.4483   -0.1980 C   0  0  0  0  0  0  0  0  0  0  0  0
   -1.4224   -1.6357    0.2941 O   0  0  0  0  0  0  0  0  0  0  0  0
   -1.3315   -0.3361   -0.2052 C   0  0  0  0  0  3  0  0  0  0  0  0
   -1.4224   -0.2799   -1.5962 O   0  0  0  0  0  0  0  0  0  0  0  0
   -0.3741   -1.0066   -2.2081 C   0  0  0  0  0  0  0  0  0  0  0  0
    0.4999   -2.9807   -2.1019 H   0  0  0  0  0  0  0  0  0  0  0  0
   -1.2707   -2.9544   -2.0830 H   0  0  0  0  0  0  0  0  0  0  0  0
   -0.5330   -3.4458    0.2094 H   0  0  0  0  0  0  0  0  0  0  0  0
    0.5895   -2.0723    0.1787 H   0  0  0  0  0  0  0  0  0  0  0  0
   -0.1851    0.2064    0.1839 H   0  0  0  0  0  0  0  0  0  0  0  0
   -2.1725    0.2244    0.1968 H   0  0  0  0  0  0  0  0  0  0  0  0
    0.5895   -0.5292   -1.9728 H   0  0  0  0  0  0  0  0  0  0  0  0
   -0.5330   -0.9407   -3.2836 H   0  0  0  0  0  0  0  0  0  0  0  0
  1  2  1  0
  1  5  1  0
  1  6  1  0
  1 19  1  0
  2  3  1  0
  2  7  1  0
  2  8  1  0
  3  4  2  0
  9 10  1  0
  9 14  1  0
  9 15  1  0
  9 16  1  0
 10 11  1  0
 10 17  1  0
 10 18  1  0
 11 12  1  0
 12 13  1  0
 12 20  1  0
 13 14  1  0
 14 21  1  0
 14 22  1  0
M  RAD  1  12   2
M  END
>  <reaction>  (10) 
rmg_rxn_179

>  <mol_properties>  (10) 
{"0": {"label": "*3", "atom_type": "Cs"}, "1": {"label": "*4", "atom_type": "Cs"}, "10": {"label": "*0", "atom_type": "O2s"}, "11": {"label": "*1", "atom_type": "Cs"}, "18": {"label": "*2", "atom_type": "H0"}}

>  <type>  (10) 
unop_6

>  <geom_source>  (10) 
Heuristics

$$$$

     RDKit          3D

 22 21  0  0  0  0  0  0  0  0999 V2000
    0.9081    0.6651    0.7846 C   0  0  0  0  0  0  0  0  0  0  0  0
    0.6298    1.9014    1.6066 C   0  0  0  0  0  0  0  0  0  0  0  0
    1.5340    3.0571    1.3939 N   0  0  0  0  0  0  0  0  0  0  0  0
    2.3915    2.8745    0.5848 O   0  0  0  0  0  0  0  0  0  0  0  0
    0.8406    0.8772   -0.2822 H   0  0  0  0  0  0  0  0  0  0  0  0
    1.9065    0.2760    0.9831 H   0  0  0  0  0  0  0  0  0  0  0  0
   -0.3692    2.3143    1.4323 H   0  0  0  0  0  0  0  0  0  0  0  0
    0.6859    1.7191    2.6848 H   0  0  0  0  0  0  0  0  0  0  0  0
   -0.4114   -2.5245   -1.5029 C   0  0  0  0  0  0  0  0  0  0  0  0
   -0.4114   -2.5245    0.0192 C   0  0  0  0  0  0  0  0  0  0  0  0
   -1.4597   -1.7119    0.5113 O   0  0  0  0  0  0  0  0  0  0  0  0
   -1.3688   -0.4123    0.0119 C   0  0  0  0  0  3  0  0  0  0  0  0
   -1.4597   -0.3561   -1.3791 O   0  0  0  0  0  0  0  0  0  0  0  0
   -0.4114   -1.0828   -1.9910 C   0  0  0  0  0  0  0  0  0  0  0  0
    0.4626   -3.0569   -1.8848 H   0  0  0  0  0  0  0  0  0  0  0  0
   -1.3080   -3.0307   -1.8659 H   0  0  0  0  0  0  0  0  0  0  0  0
   -0.5704   -3.5220    0.4265 H   0  0  0  0  0  0  0  0  0  0  0  0
    0.5522   -2.1485    0.3959 H   0  0  0  0  0  0  0  0  0  0  0  0
   -0.2224    0.1302    0.4010 H   0  0  0  0  0  0  0  0  0  0  0  0
   -2.2099    0.1482    0.4139 H   0  0  0  0  0  0  0  0  0  0  0  0
    0.5522   -0.6054   -1.7557 H   0  0  0  0  0  0  0  0  0  0  0  0
   -0.5704   -1.0169   -3.0665 H   0  0  0  0  0  0  0  0  0  0  0  0
  1  2  1  0
  1  5  1  0
  1  6  1  0
  1 19  1  0
  2  3  1  0
  2  7  1  0
  2  8  1  0
  3  4  2  0
  9 10  1  0
  9 14  1  0
  9 15  1  0
  9 16  1  0
 10 11  1  0
 10 17  1  0
 10 18  1  0
 11 12  1  0
 12 13  1  0
 12 20  1  0
 13 14  1  0
 14 21  1  0
 14 22  1  0
M  RAD  1  12   2
M  END
>  <reaction>  (11) 
rmg_rxn_179

>  <mol_properties>  (11) 
{"0": {"label": "*3", "atom_type": "Cs"}, "1": {"label": "*4", "atom_type": "Cs"}, "10": {"label": "*0", "atom_type": "O2s"}, "11": {"label": "*1", "atom_type": "Cs"}, "18": {"label": "*2", "atom_type": "H0"}}

>  <type>  (11) 
unop_7

>  <geom_source>  (11) 
Heuristics

$$$$

     RDKit          3D

 22 21  0  0  0  0  0  0  0  0999 V2000
    0.6046    1.0081    1.1998 C   0  0  0  0  0  0  0  0  0  0  0  0
    1.6750    0.7196    0.1739 C   0  0  0  0  0  0  0  0  0  0  0  0
    2.6335    1.8143   -0.1109 N   0  0  0  0  0  0  0  0  0  0  0  0
    2.4460    2.8135    0.5133 O   0  0  0  0  0  0  0  0  0  0  0  0
    1.0416    1.2527    2.1678 H   0  0  0  0  0  0  0  0  0  0  0  0
   -0.0178    1.8491    0.8948 H   0  0  0  0  0  0  0  0  0  0  0  0
    2.3151   -0.1246    0.4503 H   0  0  0  0  0  0  0  0  0  0  0  0
    1.2665    0.4658   -0.8098 H   0  0  0  0  0  0  0  0  0  0  0  0
   -0.7149   -2.1815   -1.0877 C   0  0  0  0  0  0  0  0  0  0  0  0
   -0.7149   -2.1815    0.4343 C   0  0  0  0  0  0  0  0  0  0  0  0
   -1.7632   -1.3689    0.9264 O   0  0  0  0  0  0  0  0  0  0  0  0
   -1.6723   -0.0693    0.4271 C   0  0  0  0  0  3  0  0  0  0  0  0
   -1.7632   -0.0131   -0.9639 O   0  0  0  0  0  0  0  0  0  0  0  0
   -0.7149   -0.7398   -1.5758 C   0  0  0  0  0  0  0  0  0  0  0  0
    0.1591   -2.7139   -1.4696 H   0  0  0  0  0  0  0  0  0  0  0  0
   -1.6115   -2.6876   -1.4507 H   0  0  0  0  0  0  0  0  0  0  0  0
   -0.8739   -3.1790    0.8417 H   0  0  0  0  0  0  0  0  0  0  0  0
    0.2487   -1.8055    0.8111 H   0  0  0  0  0  0  0  0  0  0  0  0
   -0.5259    0.4732    0.8162 H   0  0  0  0  0  0  0  0  0  0  0  0
   -2.5134    0.4912    0.8291 H   0  0  0  0  0  0  0  0  0  0  0  0
    0.2487   -0.2624   -1.3405 H   0  0  0  0  0  0  0  0  0  0  0  0
   -0.8739   -0.6739   -2.6513 H   0  0  0  0  0  0  0  0  0  0  0  0
  1  2  1  0
  1  5  1  0
  1  6  1  0
  1 19  1  0
  2  3  1  0
  2  7  1  0
  2  8  1  0
  3  4  2  0
  9 10  1  0
  9 14  1  0
  9 15  1  0
  9 16  1  0
 10 11  1  0
 10 17  1  0
 10 18  1  0
 11 12  1  0
 12 13  1  0
 12 20  1  0
 13 14  1  0
 14 21  1  0
 14 22  1  0
M  RAD  1  12   2
M  END
>  <reaction>  (12) 
rmg_rxn_179

>  <mol_properties>  (12) 
{"0": {"label": "*3", "atom_type": "Cs"}, "1": {"label": "*4", "atom_type": "Cs"}, "10": {"label": "*0", "atom_type": "O2s"}, "11": {"label": "*1", "atom_type": "Cs"}, "18": {"label": "*2", "atom_type": "H0"}}

>  <type>  (12) 
unop_8

>  <geom_source>  (12) 
Heuristics

$$$$

     RDKit          3D

 22 21  0  0  0  0  0  0  0  0999 V2000
    0.7321    1.1652    0.3965 C   0  0  0  0  0  0  0  0  0  0  0  0
    1.1430    0.5802    1.7272 C   0  0  0  0  0  0  0  0  0  0  0  0
    2.1491    1.3427    2.5050 N   0  0  0  0  0  0  0  0  0  0  0  0
    2.5244    2.3469    1.9818 O   0  0  0  0  0  0  0  0  0  0  0  0
    0.2949    2.1559    0.5193 H   0  0  0  0  0  0  0  0  0  0  0  0
    1.5865    1.2602   -0.2733 H   0  0  0  0  0  0  0  0  0  0  0  0
    0.3041    0.4681    2.4218 H   0  0  0  0  0  0  0  0  0  0  0  0
    1.5825   -0.4185    1.6373 H   0  0  0  0  0  0  0  0  0  0  0  0
   -0.5874   -2.0244   -1.8910 C   0  0  0  0  0  0  0  0  0  0  0  0
   -0.5874   -2.0244   -0.3690 C   0  0  0  0  0  0  0  0  0  0  0  0
   -1.6357   -1.2118    0.1231 O   0  0  0  0  0  0  0  0  0  0  0  0
   -1.5448    0.0878   -0.3762 C   0  0  0  0  0  3  0  0  0  0  0  0
   -1.6357    0.1439   -1.7672 O   0  0  0  0  0  0  0  0  0  0  0  0
   -0.5874   -0.5828   -2.3791 C   0  0  0  0  0  0  0  0  0  0  0  0
    0.2866   -2.5569   -2.2729 H   0  0  0  0  0  0  0  0  0  0  0  0
   -1.4840   -2.5306   -2.2540 H   0  0  0  0  0  0  0  0  0  0  0  0
   -0.7464   -3.0219    0.0384 H   0  0  0  0  0  0  0  0  0  0  0  0
    0.3762   -1.6484    0.0078 H   0  0  0  0  0  0  0  0  0  0  0  0
   -0.3984    0.6302    0.0129 H   0  0  0  0  0  0  0  0  0  0  0  0
   -2.3859    0.6483    0.0258 H   0  0  0  0  0  0  0  0  0  0  0  0
    0.3762   -0.1054   -2.1438 H   0  0  0  0  0  0  0  0  0  0  0  0
   -0.7464   -0.5168   -3.4546 H   0  0  0  0  0  0  0  0  0  0  0  0
  1  2  1  0
  1  5  1  0
  1  6  1  0
  1 19  1  0
  2  3  1  0
  2  7  1  0
  2  8  1  0
  3  4  2  0
  9 10  1  0
  9 14  1  0
  9 15  1  0
  9 16  1  0
 10 11  1  0
 10 17  1  0
 10 18  1  0
 11 12  1  0
 12 13  1  0
 12 20  1  0
 13 14  1  0
 14 21  1  0
 14 22  1  0
M  RAD  1  12   2
M  END
>  <reaction>  (13) 
rmg_rxn_179

>  <mol_properties>  (13) 
{"0": {"label": "*3", "atom_type": "Cs"}, "1": {"label": "*4", "atom_type": "Cs"}, "10": {"label": "*0", "atom_type": "O2s"}, "11": {"label": "*1", "atom_type": "Cs"}, "18": {"label": "*2", "atom_type": "H0"}}

>  <type>  (13) 
unop_9

>  <geom_source>  (13) 
Heuristics

$$$$

     RDKit          3D

 22 21  0  0  0  0  0  0  0  0999 V2000
    0.5054    1.2238    1.1027 C   0  0  0  0  0  0  0  0  0  0  0  0
    1.6584    0.4014    0.5776 C   0  0  0  0  0  0  0  0  0  0  0  0
    2.9061    1.1360    0.2579 N   0  0  0  0  0  0  0  0  0  0  0  0
    2.8549    2.3113    0.4554 O   0  0  0  0  0  0  0  0  0  0  0  0
    0.7729    1.7320    2.0289 H   0  0  0  0  0  0  0  0  0  0  0  0
    0.2028    1.9838    0.3826 H   0  0  0  0  0  0  0  0  0  0  0  0
    1.9830   -0.3751    1.2779 H   0  0  0  0  0  0  0  0  0  0  0  0
    1.4188   -0.1259   -0.3516 H   0  0  0  0  0  0  0  0  0  0  0  0
   -0.8142   -1.9658   -1.1849 C   0  0  0  0  0  0  0  0  0  0  0  0
   -0.8142   -1.9658    0.3372 C   0  0  0  0  0  0  0  0  0  0  0  0
   -1.8624   -1.1532    0.8293 O   0  0  0  0  0  0  0  0  0  0  0  0
   -1.7715    0.1464    0.3299 C   0  0  0  0  0  3  0  0  0  0  0  0
   -1.8624    0.2026   -1.0611 O   0  0  0  0  0  0  0  0  0  0  0  0
   -0.8142   -0.5242   -1.6730 C   0  0  0  0  0  0  0  0  0  0  0  0
    0.0598   -2.4983   -1.5667 H   0  0  0  0  0  0  0  0  0  0  0  0
   -1.7107   -2.4720   -1.5479 H   0  0  0  0  0  0  0  0  0  0  0  0
   -0.9731   -2.9633    0.7445 H   0  0  0  0  0  0  0  0  0  0  0  0
    0.1495   -1.5898    0.7139 H   0  0  0  0  0  0  0  0  0  0  0  0
   -0.6251    0.6888    0.7190 H   0  0  0  0  0  0  0  0  0  0  0  0
   -2.6126    0.7069    0.7319 H   0  0  0  0  0  0  0  0  0  0  0  0
    0.1495   -0.0468   -1.4377 H   0  0  0  0  0  0  0  0  0  0  0  0
   -0.9731   -0.4582   -2.7484 H   0  0  0  0  0  0  0  0  0  0  0  0
  1  2  1  0
  1  5  1  0
  1  6  1  0
  1 19  1  0
  2  3  1  0
  2  7  1  0
  2  8  1  0
  3  4  2  0
  9 10  1  0
  9 14  1  0
  9 15  1  0
  9 16  1  0
 10 11  1  0
 10 17  1  0
 10 18  1  0
 11 12  1  0
 12 13  1  0
 12 20  1  0
 13 14  1  0
 14 21  1  0
 14 22  1  0
M  RAD  1  12   2
M  END
>  <reaction>  (14) 
rmg_rxn_179

>  <mol_properties>  (14) 
{"0": {"label": "*3", "atom_type": "Cs"}, "1": {"label": "*4", "atom_type": "Cs"}, "10": {"label": "*0", "atom_type": "O2s"}, "11": {"label": "*1", "atom_type": "Cs"}, "18": {"label": "*2", "atom_type": "H0"}}

>  <type>  (14) 
unop_10

>  <geom_source>  (14) 
Heuristics

$$$$

     RDKit          3D

 22 21  0  0  0  0  0  0  0  0999 V2000
    0.7977    0.7025    0.9285 C   0  0  0  0  0  0  0  0  0  0  0  0
    0.6285    2.1969    1.0691 C   0  0  0  0  0  0  0  0  0  0  0  0
    1.8414    3.0244    0.8626 N   0  0  0  0  0  0  0  0  0  0  0  0
    2.8276    2.4046    0.6049 O   0  0  0  0  0  0  0  0  0  0  0  0
    1.1477    0.4373   -0.0689 H   0  0  0  0  0  0  0  0  0  0  0  0
    1.5212    0.3181    1.6471 H   0  0  0  0  0  0  0  0  0  0  0  0
   -0.0967    2.6131    0.3622 H   0  0  0  0  0  0  0  0  0  0  0  0
    0.2730    2.4951    2.0608 H   0  0  0  0  0  0  0  0  0  0  0  0
   -0.5218   -2.4870   -1.3590 C   0  0  0  0  0  0  0  0  0  0  0  0
   -0.5218   -2.4870    0.1630 C   0  0  0  0  0  0  0  0  0  0  0  0
   -1.5701   -1.6744    0.6551 O   0  0  0  0  0  0  0  0  0  0  0  0
   -1.4792   -0.3749    0.1558 C   0  0  0  0  0  3  0  0  0  0  0  0
   -1.5701   -0.3187   -1.2353 O   0  0  0  0  0  0  0  0  0  0  0  0
   -0.5218   -1.0454   -1.8471 C   0  0  0  0  0  0  0  0  0  0  0  0
    0.3522   -3.0195   -1.7409 H   0  0  0  0  0  0  0  0  0  0  0  0
   -1.4184   -2.9932   -1.7220 H   0  0  0  0  0  0  0  0  0  0  0  0
   -0.6808   -3.4846    0.5703 H   0  0  0  0  0  0  0  0  0  0  0  0
    0.4418   -2.1111    0.5397 H   0  0  0  0  0  0  0  0  0  0  0  0
   -0.3328    0.1676    0.5448 H   0  0  0  0  0  0  0  0  0  0  0  0
   -2.3203    0.1856    0.5578 H   0  0  0  0  0  0  0  0  0  0  0  0
    0.4418   -0.5680   -1.6118 H   0  0  0  0  0  0  0  0  0  0  0  0
   -0.6808   -0.9795   -2.9226 H   0  0  0  0  0  0  0  0  0  0  0  0
  1  2  1  0
  1  5  1  0
  1  6  1  0
  1 19  1  0
  2  3  1  0
  2  7  1  0
  2  8  1  0
  3  4  2  0
  9 10  1  0
  9 14  1  0
  9 15  1  0
  9 16  1  0
 10 11  1  0
 10 17  1  0
 10 18  1  0
 11 12  1  0
 12 13  1  0
 12 20  1  0
 13 14  1  0
 14 21  1  0
 14 22  1  0
M  RAD  1  12   2
M  END
>  <reaction>  (15) 
rmg_rxn_179

>  <mol_properties>  (15) 
{"0": {"label": "*3", "atom_type": "Cs"}, "1": {"label": "*4", "atom_type": "Cs"}, "10": {"label": "*0", "atom_type": "O2s"}, "11": {"label": "*1", "atom_type": "Cs"}, "18": {"label": "*2", "atom_type": "H0"}}

>  <type>  (15) 
unop_11

>  <geom_source>  (15) 
Heuristics

$$$$

     RDKit          3D

 22 21  0  0  0  0  0  0  0  0999 V2000
    0.5679    1.3409    0.5754 C   0  0  0  0  0  0  0  0  0  0  0  0
    1.3402    0.3473    1.4108 C   0  0  0  0  0  0  0  0  0  0  0  0
    2.6545    0.7965    1.9298 N   0  0  0  0  0  0  0  0  0  0  0  0
    2.9558    1.9092    1.6227 O   0  0  0  0  0  0  0  0  0  0  0  0
    0.3479    2.2457    1.1416 H   0  0  0  0  0  0  0  0  0  0  0  0
    1.1308    1.6328   -0.3110 H   0  0  0  0  0  0  0  0  0  0  0  0
    0.7980    0.0308    2.3079 H   0  0  0  0  0  0  0  0  0  0  0  0
    1.5730   -0.5758    0.8701 H   0  0  0  0  0  0  0  0  0  0  0  0
   -0.7516   -1.8487   -1.7122 C   0  0  0  0  0  0  0  0  0  0  0  0
   -0.7516   -1.8487   -0.1901 C   0  0  0  0  0  0  0  0  0  0  0  0
   -1.7999   -1.0361    0.3020 O   0  0  0  0  0  0  0  0  0  0  0  0
   -1.7090    0.2634   -0.1974 C   0  0  0  0  0  3  0  0  0  0  0  0
   -1.7999    0.3196   -1.5884 O   0  0  0  0  0  0  0  0  0  0  0  0
   -0.7516   -0.4071   -2.2003 C   0  0  0  0  0  0  0  0  0  0  0  0
    0.1224   -2.3812   -2.0940 H   0  0  0  0  0  0  0  0  0  0  0  0
   -1.6482   -2.3549   -2.0752 H   0  0  0  0  0  0  0  0  0  0  0  0
   -0.9105   -2.8462    0.2172 H   0  0  0  0  0  0  0  0  0  0  0  0
    0.2120   -1.4727    0.1866 H   0  0  0  0  0  0  0  0  0  0  0  0
   -0.5626    0.8059    0.1917 H   0  0  0  0  0  0  0  0  0  0  0  0
   -2.5500    0.8240    0.2046 H   0  0  0  0  0  0  0  0  0  0  0  0
    0.2120    0.0703   -1.9650 H   0  0  0  0  0  0  0  0  0  0  0  0
   -0.9105   -0.3411   -3.2757 H   0  0  0  0  0  0  0  0  0  0  0  0
  1  2  1  0
  1  5  1  0
  1  6  1  0
  1 19  1  0
  2  3  1  0
  2  7  1  0
  2  8  1  0
  3  4  2  0
  9 10  1  0
  9 14  1  0
  9 15  1  0
  9 16  1  0
 10 11  1  0
 10 17  1  0
 10 18  1  0
 11 12  1  0
 12 13  1  0
 12 20  1  0
 13 14  1  0
 14 21  1  0
 14 22  1  0
M  RAD  1  12   2
M  END
>  <reaction>  (16) 
rmg_rxn_179

>  <mol_properties>  (16) 
{"0": {"label": "*3", "atom_type": "Cs"}, "1": {"label": "*4", "atom_type": "Cs"}, "10": {"label": "*0", "atom_type": "O2s"}, "11": {"label": "*1", "atom_type": "Cs"}, "18": {"label": "*2", "atom_type": "H0"}}

>  <type>  (16) 
unop_12

>  <geom_source>  (16) 
Heuristics

$$$$

     RDKit          3D

 22 21  0  0  0  0  0  0  0  0999 V2000
   -0.9087   -1.4958   -0.6955 O   0  0  0  0  0  0  0  0  0  0  0  0
   -1.2576    0.6634   -1.5775 O   0  0  0  0  0  0  0  0  0  0  0  0
    4.2230    0.7184    1.7116 O   0  0  0  0  0  0  0  0  0  0  0  0
    4.0118   -0.0856    0.8544 N   0  0  0  0  0  0  0  0  0  0  0  0
   -2.2802    0.1140    0.5705 C   0  0  0  0  0  0  0  0  0  0  0  0
   -2.1861   -1.2499   -0.1268 C   0  0  0  0  0  0  0  0  0  0  0  0
   -1.7681    1.2102   -0.3809 C   0  0  0  0  0  0  0  0  0  0  0  0
    2.6702   -0.5421    0.5865 C   0  0  0  0  0  0  0  0  0  0  0  0
    1.8304    0.5792   -0.0133 C   0  0  0  0  0  0  0  0  0  0  0  0
   -0.3096   -0.3177   -1.2198 C   0  0  0  0  0  3  0  0  0  0  0  0
   -1.6549    0.0960    1.4898 H   0  0  0  0  0  0  0  0  0  0  0  0
   -3.3327    0.3141    0.8671 H   0  0  0  0  0  0  0  0  0  0  0  0
    2.2003   -0.9046    1.5262 H   0  0  0  0  0  0  0  0  0  0  0  0
    2.7140   -1.3861   -0.1334 H   0  0  0  0  0  0  0  0  0  0  0  0
   -2.4066   -2.0482    0.6129 H   0  0  0  0  0  0  0  0  0  0  0  0
   -2.9584   -1.3151   -0.9247 H   0  0  0  0  0  0  0  0  0  0  0  0
   -2.6092    1.8875   -0.6409 H   0  0  0  0  0  0  0  0  0  0  0  0
   -0.9913    1.8312    0.1206 H   0  0  0  0  0  0  0  0  0  0  0  0
    2.2965    0.9461   -0.9524 H   0  0  0  0  0  0  0  0  0  0  0  0
    1.7414    1.4210    0.7058 H   0  0  0  0  0  0  0  0  0  0  0  0
    0.6704    0.1426   -0.2750 H   0  0  0  0  0  0  0  0  0  0  0  0
    0.3056   -0.5786   -2.1052 H   0  0  0  0  0  0  0  0  0  0  0  0
  1  6  1  0
  1 10  1  0
  2  7  1  0
  2 10  1  0
  3  4  2  0
  4  8  1  0
  5  6  1  0
  5  7  1  0
  5 11  1  0
  5 12  1  0
  6 15  1  0
  6 16  1  0
  7 17  1  0
  7 18  1  0
  8  9  1  0
  8 13  1  0
  8 14  1  0
  9 19  1  0
  9 20  1  0
  9 21  1  0
 10 22  1  0
M  RAD  1  10   2
M  END
>  <reaction>  (17) 
rmg_rxn_179

>  <mol_properties>  (17) 
{"0": {"label": "*3", "atom_type": "Cs"}, "1": {"label": "*4", "atom_type": "Cs"}, "10": {"label": "*0", "atom_type": "O2s"}, "11": {"label": "*1", "atom_type": "Cs"}, "18": {"label": "*2", "atom_type": "H0"}}

>  <type>  (17) 
unop_13

>  <geom_source>  (17) 
AutoTST

$$$$

     RDKit          3D

 22 21  0  0  0  0  0  0  0  0999 V2000
    0.4814    1.3614    0.8616 C   0  0  0  0  0  0  0  0  0  0  0  0
    1.5254    0.2809    1.0178 C   0  0  0  0  0  0  0  0  0  0  0  0
    2.9405    0.7232    1.0368 N   0  0  0  0  0  0  0  0  0  0  0  0
    3.0943    1.9009    0.9246 O   0  0  0  0  0  0  0  0  0  0  0  0
    0.5354    2.0829    1.6765 H   0  0  0  0  0  0  0  0  0  0  0  0
    0.6142    1.9060   -0.0731 H   0  0  0  0  0  0  0  0  0  0  0  0
    1.4156   -0.2879    1.9469 H   0  0  0  0  0  0  0  0  0  0  0  0
    1.4936   -0.4630    0.2151 H   0  0  0  0  0  0  0  0  0  0  0  0
   -0.8381   -1.8282   -1.4260 C   0  0  0  0  0  0  0  0  0  0  0  0
   -0.8381   -1.8282    0.0960 C   0  0  0  0  0  0  0  0  0  0  0  0
   -1.8864   -1.0156    0.5881 O   0  0  0  0  0  0  0  0  0  0  0  0
   -1.7955    0.2840    0.0888 C   0  0  0  0  0  3  0  0  0  0  0  0
   -1.8864    0.3402   -1.3022 O   0  0  0  0  0  0  0  0  0  0  0  0
   -0.8381   -0.3866   -1.9141 C   0  0  0  0  0  0  0  0  0  0  0  0
    0.0359   -2.3607   -1.8079 H   0  0  0  0  0  0  0  0  0  0  0  0
   -1.7347   -2.3344   -1.7890 H   0  0  0  0  0  0  0  0  0  0  0  0
   -0.9970   -2.8257    0.5034 H   0  0  0  0  0  0  0  0  0  0  0  0
    0.1255   -1.4522    0.4728 H   0  0  0  0  0  0  0  0  0  0  0  0
   -0.6491    0.8264    0.4779 H   0  0  0  0  0  0  0  0  0  0  0  0
   -2.6365    0.8445    0.4908 H   0  0  0  0  0  0  0  0  0  0  0  0
    0.1255    0.0908   -1.6788 H   0  0  0  0  0  0  0  0  0  0  0  0
   -0.9970   -0.3206   -2.9895 H   0  0  0  0  0  0  0  0  0  0  0  0
  1  2  1  0
  1  5  1  0
  1  6  1  0
  1 19  1  0
  2  3  1  0
  2  7  1  0
  2  8  1  0
  3  4  2  0
  9 10  1  0
  9 14  1  0
  9 15  1  0
  9 16  1  0
 10 11  1  0
 10 17  1  0
 10 18  1  0
 11 12  1  0
 12 13  1  0
 12 20  1  0
 13 14  1  0
 14 21  1  0
 14 22  1  0
M  RAD  1  12   2
M  END
>  <reaction>  (18) 
rmg_rxn_179

>  <mol_properties>  (18) 
{"0": {"label": "*3", "atom_type": "Cs"}, "1": {"label": "*4", "atom_type": "Cs"}, "10": {"label": "*0", "atom_type": "O2s"}, "11": {"label": "*1", "atom_type": "Cs"}, "18": {"label": "*2", "atom_type": "H0"}}

>  <type>  (18) 
unop_14

>  <geom_source>  (18) 
gaussian_log

$$$$
