
     RDKit          3D

 11 10  0  0  0  0  0  0  0  0999 V2000
   -1.2710    0.1907   -0.2084 C   0  0  0  0  0  0  0  0  0  0  0  0
    0.0202   -0.6130   -0.2928 C   0  0  0  0  0  0  0  0  0  0  0  0
    0.1086   -1.6953    0.7756 C   0  0  0  0  0  0  0  0  0  0  0  0
   -1.3607    0.6851    0.7620 H   0  0  0  0  0  0  0  0  0  0  0  0
   -2.1429   -0.4567   -0.3299 H   0  0  0  0  0  0  0  0  0  0  0  0
   -1.3158    0.9602   -0.9809 H   0  0  0  0  0  0  0  0  0  0  0  0
    0.8757    0.0616   -0.1992 H   0  0  0  0  0  0  0  0  0  0  0  0
    0.0997   -1.0712   -1.2825 H   0  0  0  0  0  0  0  0  0  0  0  0
   -0.7198   -2.4022    0.6850 H   0  0  0  0  0  0  0  0  0  0  0  0
    1.0395   -2.2596    0.6989 H   0  0  0  0  0  0  0  0  0  0  0  0
    0.0624   -1.2603    1.7770 H   0  0  0  0  0  0  0  0  0  0  0  0
  1  2  1  0
  1  4  1  0
  1  5  1  0
  1  6  1  0
  2  3  1  0
  2  7  1  0
  2  8  1  0
  3  9  1  0
  3 10  1  0
  3 11  1  0
M  END
>  <reaction>  (1) 
rmg_rxn_508

>  <mol_properties>  (1) 
{"0": {"label": "donator", "atom_type": "Cs"}, "3": {"label": "d_hydrogen", "atom_type": "H0"}}

>  <type>  (1) 
r1h

$$$$

     RDKit          3D

  9  8  0  0  0  0  0  0  0  0999 V2000
    1.3246   -0.8124   -0.0809 C   0  0  0  0  0  2  0  0  0  0  0  0
    0.4082    0.3080    0.1518 C   0  0  0  0  0  0  0  0  0  0  0  0
   -1.0545   -0.0277   -0.1520 C   0  0  0  0  0  0  0  0  0  0  0  0
    2.3933   -0.9471    0.0203 H   0  0  0  0  0  0  0  0  0  0  0  0
    0.4898    0.6406    1.1970 H   0  0  0  0  0  0  0  0  0  0  0  0
    0.7134    1.1680   -0.4624 H   0  0  0  0  0  0  0  0  0  0  0  0
   -1.4014   -0.8515    0.4727 H   0  0  0  0  0  0  0  0  0  0  0  0
   -1.1767   -0.3214   -1.1952 H   0  0  0  0  0  0  0  0  0  0  0  0
   -1.6915    0.8372    0.0370 H   0  0  0  0  0  0  0  0  0  0  0  0
  1  2  1  0
  1  4  1  0
  2  3  1  0
  2  5  1  0
  2  6  1  0
  3  7  1  0
  3  8  1  0
  3  9  1  0
M  RAD  1   1   3
M  END
>  <reaction>  (2) 
rmg_rxn_508

>  <mol_properties>  (2) 
{"0": {"label": "acceptor", "atom_type": "Cs"}}

>  <type>  (2) 
r2

$$$$

     RDKit          3D

 10  9  0  0  0  0  0  0  0  0999 V2000
    1.4352    0.2660   -0.1351 C   0  0  0  0  0  3  0  0  0  0  0  0
    0.2236   -0.3243    0.4850 C   0  0  0  0  0  0  0  0  0  0  0  0
   -0.8893    0.6872    0.7364 C   0  0  0  0  0  0  0  0  0  0  0  0
    2.3577   -0.2958   -0.1940 H   0  0  0  0  0  0  0  0  0  0  0  0
    1.3935    1.2286   -0.6287 H   0  0  0  0  0  0  0  0  0  0  0  0
   -0.1633   -1.1318   -0.1556 H   0  0  0  0  0  0  0  0  0  0  0  0
    0.4945   -0.8215    1.4240 H   0  0  0  0  0  0  0  0  0  0  0  0
   -1.1991    1.1627   -0.1967 H   0  0  0  0  0  0  0  0  0  0  0  0
   -1.7660    0.2103    1.1768 H   0  0  0  0  0  0  0  0  0  0  0  0
   -0.5545    1.4732    1.4159 H   0  0  0  0  0  0  0  0  0  0  0  0
  1  2  1  0
  1  4  1  0
  1  5  1  0
  2  3  1  0
  2  6  1  0
  2  7  1  0
  3  8  1  0
  3  9  1  0
  3 10  1  0
M  RAD  1   1   2
M  END
>  <reaction>  (3) 
rmg_rxn_508

>  <mol_properties>  (3) 
{"0": {"label": "acceptor", "atom_type": "Cs"}, "9": {"label": "a_hydrogen", "atom_type": "H0"}}

>  <type>  (3) 
r2h

$$$$

     RDKit          3D

 20 18  0  0  0  0  0  0  0  0999 V2000
   -0.1002    1.5388   -0.8400 C   0  0  0  0  0  2  0  0  0  0  0  0
   -1.5490    1.3219   -1.0410 C   0  0  0  0  0  0  0  0  0  0  0  0
   -2.1197    0.1623   -0.2279 C   0  0  0  0  0  0  0  0  0  0  0  0
    0.5035    2.2182   -1.4320 H   0  0  0  0  0  0  0  0  0  0  0  0
   -2.0974    2.2416   -0.7880 H   0  0  0  0  0  0  0  0  0  0  0  0
   -1.7511    1.1515   -2.1074 H   0  0  0  0  0  0  0  0  0  0  0  0
   -1.9499    0.3158    0.8395 H   0  0  0  0  0  0  0  0  0  0  0  0
   -1.6451   -0.7792   -0.5098 H   0  0  0  0  0  0  0  0  0  0  0  0
   -3.1938    0.0620   -0.3895 H   0  0  0  0  0  0  0  0  0  0  0  0
    1.2410    0.3092    1.1177 C   0  0  0  0  0  0  0  0  0  0  0  0
    1.0504   -1.1791    0.9655 C   0  0  0  0  0  0  0  0  0  0  0  0
    1.4748   -1.6935   -0.4047 C   0  0  0  0  0  0  0  0  0  0  0  0
    0.5634    0.9137    0.1759 H   0  0  0  0  0  0  0  0  0  0  0  0
    2.2613    0.6486    0.9362 H   0  0  0  0  0  0  0  0  0  0  0  0
    0.8441    0.7299    2.0405 H   0  0  0  0  0  0  0  0  0  0  0  0
    0.0025   -1.4331    1.1453 H   0  0  0  0  0  0  0  0  0  0  0  0
    1.6233   -1.6986    1.7429 H   0  0  0  0  0  0  0  0  0  0  0  0
    2.5293   -1.4782   -0.5927 H   0  0  0  0  0  0  0  0  0  0  0  0
    1.3320   -2.7720   -0.4878 H   0  0  0  0  0  0  0  0  0  0  0  0
    0.8949   -1.2097   -1.1941 H   0  0  0  0  0  0  0  0  0  0  0  0
  1  2  1  0
  1  4  1  0
  2  3  1  0
  2  5  1  0
  2  6  1  0
  3  7  1  0
  3  8  1  0
  3  9  1  0
 10 11  1  0
 10 13  1  0
 10 14  1  0
 10 15  1  0
 11 12  1  0
 11 16  1  0
 11 17  1  0
 12 18  1  0
 12 19  1  0
 12 20  1  0
M  RAD  1   1   3
M  END
>  <reaction>  (4) 
rmg_rxn_508

>  <mol_properties>  (4) 
{"0": {"label": "*3", "atom_type": "Cs"}, "1": {"label": "*4", "atom_type": "Cs"}, "9": {"label": "*1", "atom_type": "Cs"}, "10": {"label": "*0", "atom_type": "Cs"}, "12": {"label": "*2", "atom_type": "H0"}}

>  <type>  (4) 
ts

$$$$

     RDKit          3D

 20 18  0  0  0  0  0  0  0  0999 V2000
   -0.7039    0.7034   -0.2480 C   0  0  0  0  0  3  0  0  0  0  0  0
   -1.6765    1.2298    0.7409 C   0  0  0  0  0  0  0  0  0  0  0  0
   -1.8880    2.7370    0.6478 C   0  0  0  0  0  0  0  0  0  0  0  0
   -0.4316    1.2821   -1.1214 H   0  0  0  0  0  0  0  0  0  0  0  0
   -2.6452    0.7228    0.6124 H   0  0  0  0  0  0  0  0  0  0  0  0
   -1.3552    0.9604    1.7540 H   0  0  0  0  0  0  0  0  0  0  0  0
   -2.2476    3.0175   -0.3446 H   0  0  0  0  0  0  0  0  0  0  0  0
   -0.9541    3.2728    0.8277 H   0  0  0  0  0  0  0  0  0  0  0  0
   -2.6210    3.0801    1.3793 H   0  0  0  0  0  0  0  0  0  0  0  0
    1.4010   -0.6305    0.5261 C   0  0  0  0  0  3  0  0  0  0  0  0
    1.4010   -2.0363   -0.0606 C   0  0  0  0  0  0  0  0  0  0  0  0
    1.4010   -2.0363   -1.5840 C   0  0  0  0  0  0  0  0  0  0  0  0
    0.3433    0.0398    0.1371 H   0  0  0  0  0  0  0  0  0  0  0  0
    2.2825   -0.0719    0.2019 H   0  0  0  0  0  0  0  0  0  0  0  0
    1.4010   -0.6512    1.6172 H   0  0  0  0  0  0  0  0  0  0  0  0
    0.5265   -2.5826    0.3034 H   0  0  0  0  0  0  0  0  0  0  0  0
    2.2755   -2.5826    0.3034 H   0  0  0  0  0  0  0  0  0  0  0  0
    2.2825   -1.5220   -1.9746 H   0  0  0  0  0  0  0  0  0  0  0  0
    1.4010   -3.0512   -1.9851 H   0  0  0  0  0  0  0  0  0  0  0  0
    0.5196   -1.5220   -1.9746 H   0  0  0  0  0  0  0  0  0  0  0  0
  1 13  1  0
  1  4  1  0
  1  2  1  0
  2  3  1  0
  2  6  1  0
  2  5  1  0
  3  7  1  0
  3  8  1  0
  3  9  1  0
 10 15  1  0
 10 14  1  0
 10 11  1  0
 11 12  1  0
 11 17  1  0
 11 16  1  0
 12 18  1  0
 12 20  1  0
 12 19  1  0
M  RAD  2   1   2  10   2
M  END
>  <reaction>  (5) 
rmg_rxn_508

>  <mol_properties>  (5) 
{"0": {"label": "*3", "atom_type": "Cs"}, "1": {"label": "*4", "atom_type": "Cs"}, "9": {"label": "*1", "atom_type": "Cs"}, "10": {"label": "*0", "atom_type": "Cs"}, "12": {"label": "*2", "atom_type": "H0"}}

>  <type>  (5) 
unop_1

>  <geom_source>  (5) 
Heuristics

$$$$

     RDKit          3D

 20 18  0  0  0  0  0  0  0  0999 V2000
   -0.4177    1.2359    0.1264 C   0  0  0  0  0  3  0  0  0  0  0  0
   -1.6927    0.5384   -0.1717 C   0  0  0  0  0  0  0  0  0  0  0  0
   -2.9305    1.3909    0.0851 C   0  0  0  0  0  0  0  0  0  0  0  0
   -0.3813    2.3146    0.2101 H   0  0  0  0  0  0  0  0  0  0  0  0
   -1.6962    0.2076   -1.2217 H   0  0  0  0  0  0  0  0  0  0  0  0
   -1.7512   -0.3886    0.4109 H   0  0  0  0  0  0  0  0  0  0  0  0
   -2.9072    2.3003   -0.5193 H   0  0  0  0  0  0  0  0  0  0  0  0
   -2.9871    1.6889    1.1337 H   0  0  0  0  0  0  0  0  0  0  0  0
   -3.8438    0.8477   -0.1618 H   0  0  0  0  0  0  0  0  0  0  0  0
    1.6872   -0.0979    0.9004 C   0  0  0  0  0  3  0  0  0  0  0  0
    1.6872   -1.5037    0.3137 C   0  0  0  0  0  0  0  0  0  0  0  0
    1.6872   -1.5037   -1.2097 C   0  0  0  0  0  0  0  0  0  0  0  0
    0.6294    0.5724    0.5114 H   0  0  0  0  0  0  0  0  0  0  0  0
    2.5686    0.4606    0.5762 H   0  0  0  0  0  0  0  0  0  0  0  0
    1.6872   -0.1186    1.9915 H   0  0  0  0  0  0  0  0  0  0  0  0
    0.8126   -2.0501    0.6777 H   0  0  0  0  0  0  0  0  0  0  0  0
    2.5617   -2.0501    0.6777 H   0  0  0  0  0  0  0  0  0  0  0  0
    2.5686   -0.9895   -1.6003 H   0  0  0  0  0  0  0  0  0  0  0  0
    1.6872   -2.5186   -1.6108 H   0  0  0  0  0  0  0  0  0  0  0  0
    0.8057   -0.9895   -1.6003 H   0  0  0  0  0  0  0  0  0  0  0  0
  1 13  1  0
  1  4  1  0
  1  2  1  0
  2  3  1  0
  2  6  1  0
  2  5  1  0
  3  7  1  0
  3  8  1  0
  3  9  1  0
 10 15  1  0
 10 14  1  0
 10 11  1  0
 11 12  1  0
 11 17  1  0
 11 16  1  0
 12 18  1  0
 12 20  1  0
 12 19  1  0
M  RAD  2   1   2  10   2
M  END
>  <reaction>  (6) 
rmg_rxn_508

>  <mol_properties>  (6) 
{"0": {"label": "*3", "atom_type": "Cs"}, "1": {"label": "*4", "atom_type": "Cs"}, "9": {"label": "*1", "atom_type": "Cs"}, "10": {"label": "*0", "atom_type": "Cs"}, "12": {"label": "*2", "atom_type": "H0"}}

>  <type>  (6) 
unop_2

>  <geom_source>  (6) 
Heuristics

$$$$

     RDKit          3D

 20 18  0  0  0  0  0  0  0  0999 V2000
   -0.8197    0.5622   -0.0903 C   0  0  0  0  0  3  0  0  0  0  0  0
   -1.4133    1.6133    0.7721 C   0  0  0  0  0  0  0  0  0  0  0  0
   -1.6921    2.9207    0.0386 C   0  0  0  0  0  0  0  0  0  0  0  0
   -0.8801    0.6294   -1.1691 H   0  0  0  0  0  0  0  0  0  0  0  0
   -2.3510    1.2427    1.2140 H   0  0  0  0  0  0  0  0  0  0  0  0
   -0.7575    1.8002    1.6307 H   0  0  0  0  0  0  0  0  0  0  0  0
   -2.3773    2.7583   -0.7962 H   0  0  0  0  0  0  0  0  0  0  0  0
   -0.7706    3.3451   -0.3641 H   0  0  0  0  0  0  0  0  0  0  0  0
   -2.1425    3.6594    0.7031 H   0  0  0  0  0  0  0  0  0  0  0  0
    1.2852   -0.7716    0.6837 C   0  0  0  0  0  3  0  0  0  0  0  0
    1.2852   -2.1775    0.0970 C   0  0  0  0  0  0  0  0  0  0  0  0
    1.2852   -2.1775   -1.4263 C   0  0  0  0  0  0  0  0  0  0  0  0
    0.2275   -0.1014    0.2948 H   0  0  0  0  0  0  0  0  0  0  0  0
    2.1667   -0.2131    0.3596 H   0  0  0  0  0  0  0  0  0  0  0  0
    1.2852   -0.7923    1.7749 H   0  0  0  0  0  0  0  0  0  0  0  0
    0.4107   -2.7238    0.4610 H   0  0  0  0  0  0  0  0  0  0  0  0
    2.1598   -2.7238    0.4610 H   0  0  0  0  0  0  0  0  0  0  0  0
    2.1667   -1.6632   -1.8169 H   0  0  0  0  0  0  0  0  0  0  0  0
    1.2852   -3.1924   -1.8275 H   0  0  0  0  0  0  0  0  0  0  0  0
    0.4038   -1.6632   -1.8169 H   0  0  0  0  0  0  0  0  0  0  0  0
  1 13  1  0
  1  4  1  0
  1  2  1  0
  2  3  1  0
  2  6  1  0
  2  5  1  0
  3  7  1  0
  3  8  1  0
  3  9  1  0
 10 15  1  0
 10 14  1  0
 10 11  1  0
 11 12  1  0
 11 17  1  0
 11 16  1  0
 12 18  1  0
 12 20  1  0
 12 19  1  0
M  RAD  2   1   2  10   2
M  END
>  <reaction>  (7) 
rmg_rxn_508

>  <mol_properties>  (7) 
{"0": {"label": "*3", "atom_type": "Cs"}, "1": {"label": "*4", "atom_type": "Cs"}, "9": {"label": "*1", "atom_type": "Cs"}, "10": {"label": "*0", "atom_type": "Cs"}, "12": {"label": "*2", "atom_type": "H0"}}

>  <type>  (7) 
unop_3

>  <geom_source>  (7) 
Heuristics

$$$$

     RDKit          3D

 20 18  0  0  0  0  0  0  0  0999 V2000
   -0.8203    0.8554    0.6044 C   0  0  0  0  0  3  0  0  0  0  0  0
   -1.0744    1.1064   -0.8355 C   0  0  0  0  0  0  0  0  0  0  0  0
   -2.0176    2.2760   -1.0952 C   0  0  0  0  0  0  0  0  0  0  0  0
   -1.0335    1.6144    1.3464 H   0  0  0  0  0  0  0  0  0  0  0  0
   -0.1204    1.2931   -1.3521 H   0  0  0  0  0  0  0  0  0  0  0  0
   -1.4699    0.1975   -1.3043 H   0  0  0  0  0  0  0  0  0  0  0  0
   -1.6177    3.1985   -0.6690 H   0  0  0  0  0  0  0  0  0  0  0  0
   -2.9946    2.0959   -0.6429 H   0  0  0  0  0  0  0  0  0  0  0  0
   -2.1644    2.4366   -2.1642 H   0  0  0  0  0  0  0  0  0  0  0  0
    1.2845   -0.4784    1.3785 C   0  0  0  0  0  3  0  0  0  0  0  0
    1.2845   -1.8842    0.7918 C   0  0  0  0  0  0  0  0  0  0  0  0
    1.2845   -1.8842   -0.7316 C   0  0  0  0  0  0  0  0  0  0  0  0
    0.2268    0.1919    0.9895 H   0  0  0  0  0  0  0  0  0  0  0  0
    2.1660    0.0802    1.0543 H   0  0  0  0  0  0  0  0  0  0  0  0
    1.2845   -0.4991    2.4696 H   0  0  0  0  0  0  0  0  0  0  0  0
    0.4100   -2.4306    1.1558 H   0  0  0  0  0  0  0  0  0  0  0  0
    2.1591   -2.4306    1.1558 H   0  0  0  0  0  0  0  0  0  0  0  0
    2.1660   -1.3700   -1.1222 H   0  0  0  0  0  0  0  0  0  0  0  0
    1.2845   -2.8991   -1.1327 H   0  0  0  0  0  0  0  0  0  0  0  0
    0.4031   -1.3700   -1.1222 H   0  0  0  0  0  0  0  0  0  0  0  0
  1 13  1  0
  1  4  1  0
  1  2  1  0
  2  6  1  0
  2  3  1  0
  2  5  1  0
  3  7  1  0
  3  8  1  0
  3  9  1  0
 10 15  1  0
 10 14  1  0
 10 11  1  0
 11 12  1  0
 11 17  1  0
 11 16  1  0
 12 18  1  0
 12 20  1  0
 12 19  1  0
M  RAD  2   1   2  10   2
M  END
>  <reaction>  (8) 
rmg_rxn_508

>  <mol_properties>  (8) 
{"0": {"label": "*3", "atom_type": "Cs"}, "1": {"label": "*4", "atom_type": "Cs"}, "9": {"label": "*1", "atom_type": "Cs"}, "10": {"label": "*0", "atom_type": "Cs"}, "12": {"label": "*2", "atom_type": "H0"}}

>  <type>  (8) 
unop_4

>  <geom_source>  (8) 
Heuristics

$$$$

     RDKit          3D

 20 18  0  0  0  0  0  0  0  0999 V2000
   -0.7960    0.5519    0.0529 C   0  0  0  0  0  3  0  0  0  0  0  0
   -1.0160    1.9501    0.4974 C   0  0  0  0  0  0  0  0  0  0  0  0
   -2.1289    2.6649   -0.2613 C   0  0  0  0  0  0  0  0  0  0  0  0
   -1.5505    0.0253   -0.5174 H   0  0  0  0  0  0  0  0  0  0  0  0
   -1.2489    1.9636    1.5732 H   0  0  0  0  0  0  0  0  0  0  0  0
   -0.0814    2.5168    0.4092 H   0  0  0  0  0  0  0  0  0  0  0  0
   -3.0769    2.1342   -0.1497 H   0  0  0  0  0  0  0  0  0  0  0  0
   -1.9006    2.7191   -1.3273 H   0  0  0  0  0  0  0  0  0  0  0  0
   -2.2690    3.6823    0.1067 H   0  0  0  0  0  0  0  0  0  0  0  0
    1.3089   -0.7819    0.8269 C   0  0  0  0  0  3  0  0  0  0  0  0
    1.3089   -2.1877    0.2402 C   0  0  0  0  0  0  0  0  0  0  0  0
    1.3089   -2.1877   -1.2831 C   0  0  0  0  0  0  0  0  0  0  0  0
    0.2512   -0.1116    0.4380 H   0  0  0  0  0  0  0  0  0  0  0  0
    2.1904   -0.2234    0.5028 H   0  0  0  0  0  0  0  0  0  0  0  0
    1.3089   -0.8026    1.9180 H   0  0  0  0  0  0  0  0  0  0  0  0
    0.4344   -2.7341    0.6042 H   0  0  0  0  0  0  0  0  0  0  0  0
    2.1835   -2.7341    0.6042 H   0  0  0  0  0  0  0  0  0  0  0  0
    2.1904   -1.6735   -1.6737 H   0  0  0  0  0  0  0  0  0  0  0  0
    1.3089   -3.2026   -1.6843 H   0  0  0  0  0  0  0  0  0  0  0  0
    0.4275   -1.6735   -1.6737 H   0  0  0  0  0  0  0  0  0  0  0  0
  1 13  1  0
  1  4  1  0
  1  2  1  0
  2  3  1  0
  2  6  1  0
  2  5  1  0
  3  7  1  0
  3  8  1  0
  3  9  1  0
 10 15  1  0
 10 14  1  0
 10 11  1  0
 11 12  1  0
 11 17  1  0
 11 16  1  0
 12 18  1  0
 12 20  1  0
 12 19  1  0
M  RAD  2   1   2  10   2
M  END
>  <reaction>  (9) 
rmg_rxn_508

>  <mol_properties>  (9) 
{"0": {"label": "*3", "atom_type": "Cs"}, "1": {"label": "*4", "atom_type": "Cs"}, "9": {"label": "*1", "atom_type": "Cs"}, "10": {"label": "*0", "atom_type": "Cs"}, "12": {"label": "*2", "atom_type": "H0"}}

>  <type>  (9) 
unop_5

>  <geom_source>  (9) 
Heuristics

$$$$

     RDKit          3D

 20 18  0  0  0  0  0  0  0  0999 V2000
   -0.9207    0.6566    0.4803 C   0  0  0  0  0  3  0  0  0  0  0  0
   -0.8921    1.4690   -0.7607 C   0  0  0  0  0  0  0  0  0  0  0  0
   -1.8102    2.6856   -0.7163 C   0  0  0  0  0  0  0  0  0  0  0  0
   -1.3076    1.0673    1.4041 H   0  0  0  0  0  0  0  0  0  0  0  0
    0.1376    1.8035   -0.9598 H   0  0  0  0  0  0  0  0  0  0  0  0
   -1.1497    0.8390   -1.6203 H   0  0  0  0  0  0  0  0  0  0  0  0
   -1.5403    3.3450    0.1115 H   0  0  0  0  0  0  0  0  0  0  0  0
   -2.8499    2.3837   -0.5767 H   0  0  0  0  0  0  0  0  0  0  0  0
   -1.7470    3.2635   -1.6394 H   0  0  0  0  0  0  0  0  0  0  0  0
    1.1842   -0.6773    1.2543 C   0  0  0  0  0  3  0  0  0  0  0  0
    1.1842   -2.0831    0.6676 C   0  0  0  0  0  0  0  0  0  0  0  0
    1.1842   -2.0831   -0.8557 C   0  0  0  0  0  0  0  0  0  0  0  0
    0.1264   -0.0070    0.8653 H   0  0  0  0  0  0  0  0  0  0  0  0
    2.0656   -0.1187    0.9302 H   0  0  0  0  0  0  0  0  0  0  0  0
    1.1842   -0.6980    2.3454 H   0  0  0  0  0  0  0  0  0  0  0  0
    0.3096   -2.6294    1.0316 H   0  0  0  0  0  0  0  0  0  0  0  0
    2.0587   -2.6294    1.0316 H   0  0  0  0  0  0  0  0  0  0  0  0
    2.0656   -1.5688   -1.2464 H   0  0  0  0  0  0  0  0  0  0  0  0
    1.1842   -3.0980   -1.2569 H   0  0  0  0  0  0  0  0  0  0  0  0
    0.3027   -1.5688   -1.2464 H   0  0  0  0  0  0  0  0  0  0  0  0
  1 13  1  0
  1  4  1  0
  1  2  1  0
  2  6  1  0
  2  3  1  0
  2  5  1  0
  3  7  1  0
  3  8  1  0
  3  9  1  0
 10 15  1  0
 10 14  1  0
 10 11  1  0
 11 12  1  0
 11 17  1  0
 11 16  1  0
 12 18  1  0
 12 20  1  0
 12 19  1  0
M  RAD  2   1   2  10   2
M  END
>  <reaction>  (10) 
rmg_rxn_508

>  <mol_properties>  (10) 
{"0": {"label": "*3", "atom_type": "Cs"}, "1": {"label": "*4", "atom_type": "Cs"}, "9": {"label": "*1", "atom_type": "Cs"}, "10": {"label": "*0", "atom_type": "Cs"}, "12": {"label": "*2", "atom_type": "H0"}}

>  <type>  (10) 
unop_6

>  <geom_source>  (10) 
Heuristics

$$$$

     RDKit          3D

 20 18  0  0  0  0  0  0  0  0999 V2000
   -0.9267    0.5400    0.2724 C   0  0  0  0  0  3  0  0  0  0  0  0
   -0.7874    1.8005   -0.4975 C   0  0  0  0  0  0  0  0  0  0  0  0
   -1.8760    2.8247   -0.1958 C   0  0  0  0  0  0  0  0  0  0  0  0
   -1.5437    0.4973    1.1609 H   0  0  0  0  0  0  0  0  0  0  0  0
    0.1960    2.2513   -0.2937 H   0  0  0  0  0  0  0  0  0  0  0  0
   -0.7728    1.5775   -1.5710 H   0  0  0  0  0  0  0  0  0  0  0  0
   -1.8772    3.0884    0.8641 H   0  0  0  0  0  0  0  0  0  0  0  0
   -2.8627    2.4279   -0.4417 H   0  0  0  0  0  0  0  0  0  0  0  0
   -1.7276    3.7410   -0.7690 H   0  0  0  0  0  0  0  0  0  0  0  0
    1.1782   -0.7938    1.0465 C   0  0  0  0  0  3  0  0  0  0  0  0
    1.1782   -2.1996    0.4597 C   0  0  0  0  0  0  0  0  0  0  0  0
    1.1782   -2.1996   -1.0636 C   0  0  0  0  0  0  0  0  0  0  0  0
    0.1204   -0.1235    0.6575 H   0  0  0  0  0  0  0  0  0  0  0  0
    2.0596   -0.2353    0.7223 H   0  0  0  0  0  0  0  0  0  0  0  0
    1.1782   -0.8145    2.1376 H   0  0  0  0  0  0  0  0  0  0  0  0
    0.3037   -2.7460    0.8237 H   0  0  0  0  0  0  0  0  0  0  0  0
    2.0527   -2.7460    0.8237 H   0  0  0  0  0  0  0  0  0  0  0  0
    2.0596   -1.6854   -1.4542 H   0  0  0  0  0  0  0  0  0  0  0  0
    1.1782   -3.2145   -1.4648 H   0  0  0  0  0  0  0  0  0  0  0  0
    0.2967   -1.6854   -1.4542 H   0  0  0  0  0  0  0  0  0  0  0  0
  1 13  1  0
  1  4  1  0
  1  2  1  0
  2  6  1  0
  2  3  1  0
  2  5  1  0
  3  7  1  0
  3  8  1  0
  3  9  1  0
 10 15  1  0
 10 14  1  0
 10 11  1  0
 11 12  1  0
 11 17  1  0
 11 16  1  0
 12 18  1  0
 12 20  1  0
 12 19  1  0
M  RAD  2   1   2  10   2
M  END
>  <reaction>  (11) 
rmg_rxn_508

>  <mol_properties>  (11) 
{"0": {"label": "*3", "atom_type": "Cs"}, "1": {"label": "*4", "atom_type": "Cs"}, "9": {"label": "*1", "atom_type": "Cs"}, "10": {"label": "*0", "atom_type": "Cs"}, "12": {"label": "*2", "atom_type": "H0"}}

>  <type>  (11) 
unop_7

>  <geom_source>  (11) 
Heuristics

$$$$

     RDKit          3D

 20 18  0  0  0  0  0  0  0  0999 V2000
   -0.5506    0.9162   -0.2630 C   0  0  0  0  0  3  0  0  0  0  0  0
   -1.8059    0.8811    0.5269 C   0  0  0  0  0  0  0  0  0  0  0  0
   -2.3371    2.2628    0.8925 C   0  0  0  0  0  0  0  0  0  0  0  0
   -0.2414    1.8188   -0.7744 H   0  0  0  0  0  0  0  0  0  0  0  0
   -2.5804    0.3357   -0.0341 H   0  0  0  0  0  0  0  0  0  0  0  0
   -1.6533    0.2879    1.4363 H   0  0  0  0  0  0  0  0  0  0  0  0
   -2.5332    2.8528   -0.0054 H   0  0  0  0  0  0  0  0  0  0  0  0
   -1.6134    2.8098    1.4995 H   0  0  0  0  0  0  0  0  0  0  0  0
   -3.2678    2.1927    1.4573 H   0  0  0  0  0  0  0  0  0  0  0  0
    1.5543   -0.4177    0.5110 C   0  0  0  0  0  3  0  0  0  0  0  0
    1.5543   -1.8235   -0.0757 C   0  0  0  0  0  0  0  0  0  0  0  0
    1.5543   -1.8235   -1.5990 C   0  0  0  0  0  0  0  0  0  0  0  0
    0.4965    0.2526    0.1221 H   0  0  0  0  0  0  0  0  0  0  0  0
    2.4357    0.1409    0.1869 H   0  0  0  0  0  0  0  0  0  0  0  0
    1.5542   -0.4384    1.6021 H   0  0  0  0  0  0  0  0  0  0  0  0
    0.6797   -2.3699    0.2883 H   0  0  0  0  0  0  0  0  0  0  0  0
    2.4288   -2.3699    0.2883 H   0  0  0  0  0  0  0  0  0  0  0  0
    2.4357   -1.3092   -1.9897 H   0  0  0  0  0  0  0  0  0  0  0  0
    1.5543   -2.8384   -2.0002 H   0  0  0  0  0  0  0  0  0  0  0  0
    0.6728   -1.3092   -1.9897 H   0  0  0  0  0  0  0  0  0  0  0  0
  1 13  1  0
  1  4  1  0
  1  2  1  0
  2  3  1  0
  2  6  1  0
  2  5  1  0
  3  7  1  0
  3  8  1  0
  3  9  1  0
 10 15  1  0
 10 14  1  0
 10 11  1  0
 11 12  1  0
 11 17  1  0
 11 16  1  0
 12 18  1  0
 12 20  1  0
 12 19  1  0
M  RAD  2   1   2  10   2
M  END
>  <reaction>  (12) 
rmg_rxn_508

>  <mol_properties>  (12) 
{"0": {"label": "*3", "atom_type": "Cs"}, "1": {"label": "*4", "atom_type": "Cs"}, "9": {"label": "*1", "atom_type": "Cs"}, "10": {"label": "*0", "atom_type": "Cs"}, "12": {"label": "*2", "atom_type": "H0"}}

>  <type>  (12) 
unop_8

>  <geom_source>  (12) 
Heuristics

$$$$

     RDKit          3D

 20 18  0  0  0  0  0  0  0  0999 V2000
   -0.6586    1.0699    0.5796 C   0  0  0  0  0  3  0  0  0  0  0  0
   -1.2916    0.7962   -0.7339 C   0  0  0  0  0  0  0  0  0  0  0  0
   -2.4150    1.7656   -1.0851 C   0  0  0  0  0  0  0  0  0  0  0  0
   -0.7794    2.0300    1.0650 H   0  0  0  0  0  0  0  0  0  0  0  0
   -0.5281    0.8294   -1.5262 H   0  0  0  0  0  0  0  0  0  0  0  0
   -1.6678   -0.2335   -0.7548 H   0  0  0  0  0  0  0  0  0  0  0  0
   -2.0468    2.7936   -1.1084 H   0  0  0  0  0  0  0  0  0  0  0  0
   -3.2173    1.7154   -0.3467 H   0  0  0  0  0  0  0  0  0  0  0  0
   -2.8414    1.5400   -2.0636 H   0  0  0  0  0  0  0  0  0  0  0  0
    1.4463   -0.2639    1.3536 C   0  0  0  0  0  3  0  0  0  0  0  0
    1.4463   -1.6698    0.7669 C   0  0  0  0  0  0  0  0  0  0  0  0
    1.4463   -1.6698   -0.7564 C   0  0  0  0  0  0  0  0  0  0  0  0
    0.3886    0.4063    0.9647 H   0  0  0  0  0  0  0  0  0  0  0  0
    2.3277    0.2946    1.0295 H   0  0  0  0  0  0  0  0  0  0  0  0
    1.4463   -0.2846    2.4447 H   0  0  0  0  0  0  0  0  0  0  0  0
    0.5718   -2.2161    1.1309 H   0  0  0  0  0  0  0  0  0  0  0  0
    2.3208   -2.2161    1.1309 H   0  0  0  0  0  0  0  0  0  0  0  0
    2.3277   -1.1555   -1.1470 H   0  0  0  0  0  0  0  0  0  0  0  0
    1.4463   -2.6847   -1.1576 H   0  0  0  0  0  0  0  0  0  0  0  0
    0.5648   -1.1555   -1.1470 H   0  0  0  0  0  0  0  0  0  0  0  0
  1 13  1  0
  1  4  1  0
  1  2  1  0
  2  3  1  0
  2  6  1  0
  2  5  1  0
  3  7  1  0
  3  8  1  0
  3  9  1  0
 10 15  1  0
 10 14  1  0
 10 11  1  0
 11 12  1  0
 11 17  1  0
 11 16  1  0
 12 18  1  0
 12 20  1  0
 12 19  1  0
M  RAD  2   1   2  10   2
M  END
>  <reaction>  (13) 
rmg_rxn_508

>  <mol_properties>  (13) 
{"0": {"label": "*3", "atom_type": "Cs"}, "1": {"label": "*4", "atom_type": "Cs"}, "9": {"label": "*1", "atom_type": "Cs"}, "10": {"label": "*0", "atom_type": "Cs"}, "12": {"label": "*2", "atom_type": "H0"}}

>  <type>  (13) 
unop_9

>  <geom_source>  (13) 
Heuristics

$$$$

     RDKit          3D

 20 18  0  0  0  0  0  0  0  0999 V2000
   -0.4397    1.1189   -0.1239 C   0  0  0  0  0  3  0  0  0  0  0  0
   -1.8057    0.6358    0.1949 C   0  0  0  0  0  0  0  0  0  0  0  0
   -2.7460    1.7351    0.6770 C   0  0  0  0  0  0  0  0  0  0  0  0
   -0.2476    2.1713   -0.2902 H   0  0  0  0  0  0  0  0  0  0  0  0
   -2.2433    0.1528   -0.6923 H   0  0  0  0  0  0  0  0  0  0  0  0
   -1.7493   -0.1618    0.9451 H   0  0  0  0  0  0  0  0  0  0  0  0
   -2.8450    2.5189   -0.0771 H   0  0  0  0  0  0  0  0  0  0  0  0
   -2.3681    2.1975    1.5908 H   0  0  0  0  0  0  0  0  0  0  0  0
   -3.7421    1.3416    0.8842 H   0  0  0  0  0  0  0  0  0  0  0  0
    1.6652   -0.2149    0.6501 C   0  0  0  0  0  3  0  0  0  0  0  0
    1.6652   -1.6207    0.0634 C   0  0  0  0  0  0  0  0  0  0  0  0
    1.6652   -1.6207   -1.4599 C   0  0  0  0  0  0  0  0  0  0  0  0
    0.6074    0.4554    0.2611 H   0  0  0  0  0  0  0  0  0  0  0  0
    2.5466    0.3437    0.3260 H   0  0  0  0  0  0  0  0  0  0  0  0
    1.6652   -0.2356    1.7412 H   0  0  0  0  0  0  0  0  0  0  0  0
    0.7906   -2.1671    0.4274 H   0  0  0  0  0  0  0  0  0  0  0  0
    2.5397   -2.1671    0.4274 H   0  0  0  0  0  0  0  0  0  0  0  0
    2.5466   -1.1065   -1.8506 H   0  0  0  0  0  0  0  0  0  0  0  0
    1.6652   -2.6356   -1.8611 H   0  0  0  0  0  0  0  0  0  0  0  0
    0.7837   -1.1065   -1.8506 H   0  0  0  0  0  0  0  0  0  0  0  0
  1 13  1  0
  1  4  1  0
  1  2  1  0
  2  3  1  0
  2  6  1  0
  2  5  1  0
  3  7  1  0
  3  8  1  0
  3  9  1  0
 10 15  1  0
 10 14  1  0
 10 11  1  0
 11 12  1  0
 11 17  1  0
 11 16  1  0
 12 18  1  0
 12 20  1  0
 12 19  1  0
M  RAD  2   1   2  10   2
M  END
>  <reaction>  (14) 
rmg_rxn_508

>  <mol_properties>  (14) 
{"0": {"label": "*3", "atom_type": "Cs"}, "1": {"label": "*4", "atom_type": "Cs"}, "9": {"label": "*1", "atom_type": "Cs"}, "10": {"label": "*0", "atom_type": "Cs"}, "12": {"label": "*2", "atom_type": "H0"}}

>  <type>  (14) 
unop_10

>  <geom_source>  (14) 
Heuristics

$$$$

     RDKit          3D

 20 18  0  0  0  0  0  0  0  0999 V2000
   -0.8450    0.5318    0.0911 C   0  0  0  0  0  3  0  0  0  0  0  0
   -0.7968    2.0066   -0.0619 C   0  0  0  0  0  0  0  0  0  0  0  0
   -2.1570    2.6809    0.0801 C   0  0  0  0  0  0  0  0  0  0  0  0
   -1.6940    0.0495    0.5586 H   0  0  0  0  0  0  0  0  0  0  0  0
   -0.1056    2.4329    0.6814 H   0  0  0  0  0  0  0  0  0  0  0  0
   -0.3532    2.2627   -1.0314 H   0  0  0  0  0  0  0  0  0  0  0  0
   -2.5947    2.4686    1.0578 H   0  0  0  0  0  0  0  0  0  0  0  0
   -2.8513    2.3207   -0.6814 H   0  0  0  0  0  0  0  0  0  0  0  0
   -2.0749    3.7639   -0.0224 H   0  0  0  0  0  0  0  0  0  0  0  0
    1.2599   -0.8021    0.8652 C   0  0  0  0  0  3  0  0  0  0  0  0
    1.2599   -2.2079    0.2785 C   0  0  0  0  0  0  0  0  0  0  0  0
    1.2599   -2.2079   -1.2449 C   0  0  0  0  0  0  0  0  0  0  0  0
    0.2021   -0.1318    0.4762 H   0  0  0  0  0  0  0  0  0  0  0  0
    2.1413   -0.2435    0.5410 H   0  0  0  0  0  0  0  0  0  0  0  0
    1.2598   -0.8227    1.9563 H   0  0  0  0  0  0  0  0  0  0  0  0
    0.3853   -2.7542    0.6425 H   0  0  0  0  0  0  0  0  0  0  0  0
    2.1344   -2.7542    0.6425 H   0  0  0  0  0  0  0  0  0  0  0  0
    2.1413   -1.6936   -1.6355 H   0  0  0  0  0  0  0  0  0  0  0  0
    1.2599   -3.2228   -1.6460 H   0  0  0  0  0  0  0  0  0  0  0  0
    0.3784   -1.6936   -1.6355 H   0  0  0  0  0  0  0  0  0  0  0  0
  1 13  1  0
  1  4  1  0
  1  2  1  0
  2  3  1  0
  2  6  1  0
  2  5  1  0
  3  7  1  0
  3  8  1  0
  3  9  1  0
 10 15  1  0
 10 14  1  0
 10 11  1  0
 11 12  1  0
 11 17  1  0
 11 16  1  0
 12 18  1  0
 12 20  1  0
 12 19  1  0
M  RAD  2   1   2  10   2
M  END
>  <reaction>  (15) 
rmg_rxn_508

>  <mol_properties>  (15) 
{"0": {"label": "*3", "atom_type": "Cs"}, "1": {"label": "*4", "atom_type": "Cs"}, "9": {"label": "*1", "atom_type": "Cs"}, "10": {"label": "*0", "atom_type": "Cs"}, "12": {"label": "*2", "atom_type": "H0"}}

>  <type>  (15) 
unop_11

>  <geom_source>  (15) 
Heuristics

$$$$

     RDKit          3D

 20 18  0  0  0  0  0  0  0  0999 V2000
   -0.5009    1.2177    0.3977 C   0  0  0  0  0  3  0  0  0  0  0  0
   -1.5076    0.5968   -0.4978 C   0  0  0  0  0  0  0  0  0  0  0  0
   -2.7956    1.4035   -0.6221 C   0  0  0  0  0  0  0  0  0  0  0  0
   -0.5670    2.2643    0.6663 H   0  0  0  0  0  0  0  0  0  0  0  0
   -1.0741    0.4562   -1.4999 H   0  0  0  0  0  0  0  0  0  0  0  0
   -1.7354   -0.4177   -0.1498 H   0  0  0  0  0  0  0  0  0  0  0  0
   -2.5903    2.4048   -1.0068 H   0  0  0  0  0  0  0  0  0  0  0  0
   -3.2816    1.5126    0.3492 H   0  0  0  0  0  0  0  0  0  0  0  0
   -3.5008    0.9217   -1.3008 H   0  0  0  0  0  0  0  0  0  0  0  0
    1.6040   -0.1162    1.1718 C   0  0  0  0  0  3  0  0  0  0  0  0
    1.6040   -1.5220    0.5851 C   0  0  0  0  0  0  0  0  0  0  0  0
    1.6040   -1.5220   -0.9383 C   0  0  0  0  0  0  0  0  0  0  0  0
    0.5462    0.5541    0.7828 H   0  0  0  0  0  0  0  0  0  0  0  0
    2.4854    0.4424    0.8476 H   0  0  0  0  0  0  0  0  0  0  0  0
    1.6040   -0.1369    2.2629 H   0  0  0  0  0  0  0  0  0  0  0  0
    0.7294   -2.0684    0.9491 H   0  0  0  0  0  0  0  0  0  0  0  0
    2.4785   -2.0684    0.9491 H   0  0  0  0  0  0  0  0  0  0  0  0
    2.4854   -1.0077   -1.3289 H   0  0  0  0  0  0  0  0  0  0  0  0
    1.6040   -2.5369   -1.3394 H   0  0  0  0  0  0  0  0  0  0  0  0
    0.7225   -1.0077   -1.3289 H   0  0  0  0  0  0  0  0  0  0  0  0
  1 13  1  0
  1  4  1  0
  1  2  1  0
  2  3  1  0
  2  6  1  0
  2  5  1  0
  3  7  1  0
  3  8  1  0
  3  9  1  0
 10 15  1  0
 10 14  1  0
 10 11  1  0
 11 12  1  0
 11 17  1  0
 11 16  1  0
 12 18  1  0
 12 20  1  0
 12 19  1  0
M  RAD  2   1   2  10   2
M  END
>  <reaction>  (16) 
rmg_rxn_508

>  <mol_properties>  (16) 
{"0": {"label": "*3", "atom_type": "Cs"}, "1": {"label": "*4", "atom_type": "Cs"}, "9": {"label": "*1", "atom_type": "Cs"}, "10": {"label": "*0", "atom_type": "Cs"}, "12": {"label": "*2", "atom_type": "H0"}}

>  <type>  (16) 
unop_12

>  <geom_source>  (16) 
Heuristics

$$$$

     RDKit          3D

 20 18  0  0  0  0  0  0  0  0999 V2000
   -2.0953    0.2677   -1.0585 C   0  0  0  0  0  0  0  0  0  0  0  0
    2.2666   -0.5100    0.4159 C   0  0  0  0  0  0  0  0  0  0  0  0
   -2.7399    0.2827    0.3215 C   0  0  0  0  0  0  0  0  0  0  0  0
    2.4585    0.9994    0.3321 C   0  0  0  0  0  0  0  0  0  0  0  0
   -1.0252   -0.8102   -1.1374 C   0  0  0  0  0  2  0  0  0  0  0  0
    0.8074   -0.8545    0.6792 C   0  0  0  0  0  0  0  0  0  0  0  0
   -2.8737    0.0657   -1.8250 H   0  0  0  0  0  0  0  0  0  0  0  0
   -1.6370    1.2583   -1.2663 H   0  0  0  0  0  0  0  0  0  0  0  0
    2.8987   -0.9214    1.2323 H   0  0  0  0  0  0  0  0  0  0  0  0
    2.5812   -0.9718   -0.5443 H   0  0  0  0  0  0  0  0  0  0  0  0
   -1.9805    0.5091    1.1002 H   0  0  0  0  0  0  0  0  0  0  0  0
   -3.5270    1.0652    0.3553 H   0  0  0  0  0  0  0  0  0  0  0  0
   -3.2069   -0.7017    0.5390 H   0  0  0  0  0  0  0  0  0  0  0  0
    3.5250    1.2275    0.1236 H   0  0  0  0  0  0  0  0  0  0  0  0
    1.8372    1.4214   -0.4866 H   0  0  0  0  0  0  0  0  0  0  0  0
    2.1741    1.4787    1.2932 H   0  0  0  0  0  0  0  0  0  0  0  0
   -0.6026   -0.8507   -2.1634 H   0  0  0  0  0  0  0  0  0  0  0  0
   -0.0173   -0.5403   -0.2448 H   0  0  0  0  0  0  0  0  0  0  0  0
    0.4869   -0.4588    1.6666 H   0  0  0  0  0  0  0  0  0  0  0  0
    0.6701   -1.9563    0.6673 H   0  0  0  0  0  0  0  0  0  0  0  0
  1  5  1  0
  1  3  1  0
  1  7  1  0
  1  8  1  0
  2  4  1  0
  2  6  1  0
  2  9  1  0
  2 10  1  0
  3 11  1  0
  3 12  1  0
  3 13  1  0
  4 14  1  0
  4 15  1  0
  4 16  1  0
  5 17  1  0
  6 18  1  0
  6 19  1  0
  6 20  1  0
M  RAD  1   5   3
M  END
>  <reaction>  (17) 
rmg_rxn_508

>  <mol_properties>  (17) 
{"0": {"label": "*3", "atom_type": "Cs"}, "1": {"label": "*4", "atom_type": "Cs"}, "9": {"label": "*1", "atom_type": "Cs"}, "10": {"label": "*0", "atom_type": "Cs"}, "12": {"label": "*2", "atom_type": "H0"}}

>  <type>  (17) 
unop_13

>  <geom_source>  (17) 
AutoTST

$$$$

     RDKit          3D

 20 18  0  0  0  0  0  0  0  0999 V2000
   -0.4177    1.2359    0.1263 C   0  0  0  0  0  3  0  0  0  0  0  0
   -1.6927    0.5384   -0.1717 C   0  0  0  0  0  0  0  0  0  0  0  0
   -2.9305    1.3909    0.0851 C   0  0  0  0  0  0  0  0  0  0  0  0
   -0.3813    2.3146    0.2101 H   0  0  0  0  0  0  0  0  0  0  0  0
   -1.6962    0.2076   -1.2217 H   0  0  0  0  0  0  0  0  0  0  0  0
   -1.7512   -0.3886    0.4109 H   0  0  0  0  0  0  0  0  0  0  0  0
   -2.9072    2.3003   -0.5193 H   0  0  0  0  0  0  0  0  0  0  0  0
   -2.9871    1.6889    1.1337 H   0  0  0  0  0  0  0  0  0  0  0  0
   -3.8438    0.8477   -0.1618 H   0  0  0  0  0  0  0  0  0  0  0  0
    1.6872   -0.0979    0.9004 C   0  0  0  0  0  3  0  0  0  0  0  0
    1.6872   -1.5037    0.3137 C   0  0  0  0  0  0  0  0  0  0  0  0
    1.6872   -1.5037   -1.2097 C   0  0  0  0  0  0  0  0  0  0  0  0
    0.6294    0.5724    0.5114 H   0  0  0  0  0  0  0  0  0  0  0  0
    2.5686    0.4606    0.5763 H   0  0  0  0  0  0  0  0  0  0  0  0
    1.6872   -0.1186    1.9915 H   0  0  0  0  0  0  0  0  0  0  0  0
    0.8126   -2.0501    0.6777 H   0  0  0  0  0  0  0  0  0  0  0  0
    2.5617   -2.0501    0.6777 H   0  0  0  0  0  0  0  0  0  0  0  0
    2.5686   -0.9895   -1.6003 H   0  0  0  0  0  0  0  0  0  0  0  0
    1.6872   -2.5186   -1.6108 H   0  0  0  0  0  0  0  0  0  0  0  0
    0.8057   -0.9895   -1.6003 H   0  0  0  0  0  0  0  0  0  0  0  0
  1 13  1  0
  1  4  1  0
  1  2  1  0
  2  3  1  0
  2  6  1  0
  2  5  1  0
  3  7  1  0
  3  8  1  0
  3  9  1  0
 10 15  1  0
 10 14  1  0
 10 11  1  0
 11 12  1  0
 11 17  1  0
 11 16  1  0
 12 18  1  0
 12 20  1  0
 12 19  1  0
M  RAD  2   1   2  10   2
M  END
>  <reaction>  (18) 
rmg_rxn_508

>  <mol_properties>  (18) 
{"0": {"label": "*3", "atom_type": "Cs"}, "1": {"label": "*4", "atom_type": "Cs"}, "9": {"label": "*1", "atom_type": "Cs"}, "10": {"label": "*0", "atom_type": "Cs"}, "12": {"label": "*2", "atom_type": "H0"}}

>  <type>  (18) 
unop_14

>  <geom_source>  (18) 
gaussian_log

$$$$
