
     RDKit          3D

  9  8  0  0  0  0  0  0  0  0999 V2000
   -0.8818   -0.3578    0.1297 C   0  0  0  0  0  0  0  0  0  0  0  0
    0.6153   -0.3021   -0.1188 C   0  0  0  0  0  0  0  0  0  0  0  0
    1.5354   -1.7170    0.5545 S   0  0  0  0  0  0  0  0  0  0  0  0
   -1.1018   -0.3317    1.1984 H   0  0  0  0  0  0  0  0  0  0  0  0
   -1.3114   -1.2723   -0.2799 H   0  0  0  0  0  0  0  0  0  0  0  0
   -1.3767    0.4976   -0.3363 H   0  0  0  0  0  0  0  0  0  0  0  0
    1.0467    0.6194    0.2718 H   0  0  0  0  0  0  0  0  0  0  0  0
    0.8295   -0.3275   -1.1882 H   0  0  0  0  0  0  0  0  0  0  0  0
    1.2306   -1.5077    1.8423 H   0  0  0  0  0  0  0  0  0  0  0  0
  1  2  1  0
  1  4  1  0
  1  5  1  0
  1  6  1  0
  2  3  1  0
  2  7  1  0
  2  8  1  0
  3  9  1  0
M  END
>  <reaction>  (1) 
rmg_rxn_13

>  <mol_properties>  (1) 
{"2": {"label": "donator", "atom_type": "S2s"}, "8": {"label": "d_hydrogen", "atom_type": "H0"}}

>  <type>  (1) 
r1h

$$$$

     RDKit          3D

  4  3  0  0  0  0  0  0  0  0999 V2000
    1.2191   -0.0447   -0.0369 N   0  0  0  0  0  1  0  0  0  0  0  0
   -0.0876   -0.0060    0.2202 N   0  0  0  0  0  0  0  0  0  0  0  0
   -0.5966   -0.8143   -0.1273 H   0  0  0  0  0  0  0  0  0  0  0  0
   -0.5329    0.8649   -0.0563 H   0  0  0  0  0  0  0  0  0  0  0  0
  1  2  1  0
  2  3  1  0
  2  4  1  0
M  RAD  1   1   3
M  END
>  <reaction>  (2) 
rmg_rxn_13

>  <mol_properties>  (2) 
{"0": {"label": "acceptor", "atom_type": "N3s"}}

>  <type>  (2) 
r2

$$$$

     RDKit          3D

  5  4  0  0  0  0  0  0  0  0999 V2000
    0.7361   -0.2872    0.4035 N   0  0  0  0  0  2  0  0  0  0  0  0
   -0.3891   -0.1505   -0.3131 N   0  0  0  0  0  0  0  0  0  0  0  0
    1.4909    0.0686   -0.1831 H   0  0  0  0  0  0  0  0  0  0  0  0
   -1.1819   -0.6340    0.0744 H   0  0  0  0  0  0  0  0  0  0  0  0
   -0.3592   -0.1189   -1.3223 H   0  0  0  0  0  0  0  0  0  0  0  0
  1  2  1  0
  1  3  1  0
  2  4  1  0
  2  5  1  0
M  RAD  1   1   2
M  END
>  <reaction>  (3) 
rmg_rxn_13

>  <mol_properties>  (3) 
{"0": {"label": "acceptor", "atom_type": "N3s"}, "4": {"label": "a_hydrogen", "atom_type": "H0"}}

>  <type>  (3) 
r2h

$$$$

     RDKit          3D

 13 11  0  0  0  0  0  0  0  0999 V2000
    2.0694    0.2106    0.1265 N   0  0  0  0  0  2  0  0  0  0  0  0
    2.0177    0.6456   -1.1301 N   0  0  0  0  0  0  0  0  0  0  0  0
    2.9022    0.9805   -1.4875 H   0  0  0  0  0  0  0  0  0  0  0  0
    1.2062    1.1971   -1.3895 H   0  0  0  0  0  0  0  0  0  0  0  0
   -0.9121   -1.5005   -1.2261 C   0  0  0  0  0  0  0  0  0  0  0  0
   -1.1178   -1.1582    0.2398 C   0  0  0  0  0  0  0  0  0  0  0  0
   -0.6565    0.5365    0.6954 S   0  0  0  0  0  1  0  0  0  0  0  0
    0.1427   -1.4376   -1.4970 H   0  0  0  0  0  0  0  0  0  0  0  0
   -1.4705   -0.8168   -1.8671 H   0  0  0  0  0  0  0  0  0  0  0  0
   -1.2532   -2.5185   -1.4298 H   0  0  0  0  0  0  0  0  0  0  0  0
   -0.5705   -1.8463    0.8845 H   0  0  0  0  0  0  0  0  0  0  0  0
   -2.1722   -1.2422    0.5117 H   0  0  0  0  0  0  0  0  0  0  0  0
    0.8501    0.3218    0.5952 H   0  0  0  0  0  0  0  0  0  0  0  0
  1  2  1  0
  1 13  1  0
  2  3  1  0
  2  4  1  0
  5  6  1  0
  5  8  1  0
  5  9  1  0
  5 10  1  0
  6  7  1  0
  6 11  1  0
  6 12  1  0
M  RAD  2   1   2   7   2
M  END
>  <reaction>  (4) 
rmg_rxn_13

>  <mol_properties>  (4) 
{"0": {"label": "*1", "atom_type": "N3s"}, "1": {"label": "*0", "atom_type": "N3s"}, "5": {"label": "*4", "atom_type": "Cs"}, "6": {"label": "*3", "atom_type": "S2s"}, "12": {"label": "*2", "atom_type": "H0"}}

>  <type>  (4) 
ts

$$$$

     RDKit          3D

 13 11  0  0  0  0  0  0  0  0999 V2000
    1.7084    0.9013   -0.0934 N   0  0  0  0  0  2  0  0  0  0  0  0
    1.4440    1.9854   -0.8370 N   0  0  0  0  0  0  0  0  0  0  0  0
    2.0198    2.7812   -0.6187 H   0  0  0  0  0  0  0  0  0  0  0  0
    0.4975    2.2056   -1.1127 H   0  0  0  0  0  0  0  0  0  0  0  0
   -0.7747   -1.6051   -1.2927 C   0  0  0  0  0  0  0  0  0  0  0  0
   -0.7747   -1.6051    0.2259 C   0  0  0  0  0  0  0  0  0  0  0  0
   -0.7747    0.0523    0.9709 S   0  0  0  0  0  1  0  0  0  0  0  0
    0.1320   -1.1397   -1.6835 H   0  0  0  0  0  0  0  0  0  0  0  0
   -1.6306   -1.0539   -1.6828 H   0  0  0  0  0  0  0  0  0  0  0  0
   -0.8177   -2.6284   -1.6730 H   0  0  0  0  0  0  0  0  0  0  0  0
    0.0686   -2.1712    0.6210 H   0  0  0  0  0  0  0  0  0  0  0  0
   -1.6823   -2.0721    0.6111 H   0  0  0  0  0  0  0  0  0  0  0  0
    0.6351    0.5343    0.3667 H   0  0  0  0  0  0  0  0  0  0  0  0
  1  2  1  0
  1 13  1  0
  2  3  1  0
  2  4  1  0
  5  6  1  0
  5  8  1  0
  5  9  1  0
  5 10  1  0
  6  7  1  0
  6 11  1  0
  6 12  1  0
M  RAD  2   1   2   7   2
M  END
>  <reaction>  (5) 
rmg_rxn_13

>  <mol_properties>  (5) 
{"0": {"label": "*1", "atom_type": "N3s"}, "1": {"label": "*0", "atom_type": "N3s"}, "5": {"label": "*4", "atom_type": "Cs"}, "6": {"label": "*3", "atom_type": "S2s"}, "12": {"label": "*2", "atom_type": "H0"}}

>  <type>  (5) 
unop_1

>  <geom_source>  (5) 
Heuristics

$$$$

     RDKit          3D

 13 11  0  0  0  0  0  0  0  0999 V2000
    1.6360    1.2130   -0.0082 N   0  0  0  0  0  2  0  0  0  0  0  0
    1.7783    0.5734   -1.1782 N   0  0  0  0  0  0  0  0  0  0  0  0
    2.2963    1.0921   -1.8674 H   0  0  0  0  0  0  0  0  0  0  0  0
    1.0350   -0.0028   -1.5467 H   0  0  0  0  0  0  0  0  0  0  0  0
   -0.8470   -1.2933   -1.2076 C   0  0  0  0  0  0  0  0  0  0  0  0
   -0.8470   -1.2933    0.3111 C   0  0  0  0  0  0  0  0  0  0  0  0
   -0.8470    0.3640    1.0561 S   0  0  0  0  0  1  0  0  0  0  0  0
    0.0596   -0.8279   -1.5983 H   0  0  0  0  0  0  0  0  0  0  0  0
   -1.7030   -0.7421   -1.5977 H   0  0  0  0  0  0  0  0  0  0  0  0
   -0.8901   -2.3167   -1.5879 H   0  0  0  0  0  0  0  0  0  0  0  0
   -0.0038   -1.8594    0.7062 H   0  0  0  0  0  0  0  0  0  0  0  0
   -1.7546   -1.7604    0.6962 H   0  0  0  0  0  0  0  0  0  0  0  0
    0.5627    0.8461    0.4518 H   0  0  0  0  0  0  0  0  0  0  0  0
  1  2  1  0
  1 13  1  0
  2  3  1  0
  2  4  1  0
  5  6  1  0
  5  8  1  0
  5  9  1  0
  5 10  1  0
  6  7  1  0
  6 11  1  0
  6 12  1  0
M  RAD  2   1   2   7   2
M  END
>  <reaction>  (6) 
rmg_rxn_13

>  <mol_properties>  (6) 
{"0": {"label": "*1", "atom_type": "N3s"}, "1": {"label": "*0", "atom_type": "N3s"}, "5": {"label": "*4", "atom_type": "Cs"}, "6": {"label": "*3", "atom_type": "S2s"}, "12": {"label": "*2", "atom_type": "H0"}}

>  <type>  (6) 
unop_2

>  <geom_source>  (6) 
Heuristics

$$$$

     RDKit          3D

 13 11  0  0  0  0  0  0  0  0999 V2000
    1.6747    0.8589   -0.2026 N   0  0  0  0  0  2  0  0  0  0  0  0
    1.5819    2.1885   -0.3505 N   0  0  0  0  0  0  0  0  0  0  0  0
    2.4198    2.6870   -0.1020 H   0  0  0  0  0  0  0  0  0  0  0  0
    0.7196    2.6730   -0.1451 H   0  0  0  0  0  0  0  0  0  0  0  0
   -0.8083   -1.6474   -1.4020 C   0  0  0  0  0  0  0  0  0  0  0  0
   -0.8083   -1.6474    0.1166 C   0  0  0  0  0  0  0  0  0  0  0  0
   -0.8083    0.0099    0.8616 S   0  0  0  0  0  1  0  0  0  0  0  0
    0.0983   -1.1820   -1.7928 H   0  0  0  0  0  0  0  0  0  0  0  0
   -1.6643   -1.0962   -1.7921 H   0  0  0  0  0  0  0  0  0  0  0  0
   -0.8514   -2.6708   -1.7823 H   0  0  0  0  0  0  0  0  0  0  0  0
    0.0350   -2.2136    0.5117 H   0  0  0  0  0  0  0  0  0  0  0  0
   -1.7159   -2.1145    0.5018 H   0  0  0  0  0  0  0  0  0  0  0  0
    0.6015    0.4919    0.2574 H   0  0  0  0  0  0  0  0  0  0  0  0
  1  2  1  0
  1 13  1  0
  2  3  1  0
  2  4  1  0
  5  6  1  0
  5  8  1  0
  5  9  1  0
  5 10  1  0
  6  7  1  0
  6 11  1  0
  6 12  1  0
M  RAD  2   1   2   7   2
M  END
>  <reaction>  (7) 
rmg_rxn_13

>  <mol_properties>  (7) 
{"0": {"label": "*1", "atom_type": "N3s"}, "1": {"label": "*0", "atom_type": "N3s"}, "5": {"label": "*4", "atom_type": "Cs"}, "6": {"label": "*3", "atom_type": "S2s"}, "12": {"label": "*2", "atom_type": "H0"}}

>  <type>  (7) 
unop_3

>  <geom_source>  (7) 
Heuristics

$$$$

     RDKit          3D

 13 11  0  0  0  0  0  0  0  0999 V2000
    1.4891    1.2578   -0.3020 N   0  0  0  0  0  2  0  0  0  0  0  0
    2.4071    0.3971    0.1615 N   0  0  0  0  0  0  0  0  0  0  0  0
    3.3465    0.7575    0.1531 H   0  0  0  0  0  0  0  0  0  0  0  0
    2.3277   -0.5930   -0.0224 H   0  0  0  0  0  0  0  0  0  0  0  0
   -0.9939   -1.2486   -1.5013 C   0  0  0  0  0  0  0  0  0  0  0  0
   -0.9939   -1.2486    0.0173 C   0  0  0  0  0  0  0  0  0  0  0  0
   -0.9939    0.4088    0.7623 S   0  0  0  0  0  1  0  0  0  0  0  0
   -0.0873   -0.7832   -1.8921 H   0  0  0  0  0  0  0  0  0  0  0  0
   -1.8499   -0.6974   -1.8914 H   0  0  0  0  0  0  0  0  0  0  0  0
   -1.0370   -2.2720   -1.8816 H   0  0  0  0  0  0  0  0  0  0  0  0
   -0.1507   -1.8147    0.4124 H   0  0  0  0  0  0  0  0  0  0  0  0
   -1.9015   -1.7156    0.4025 H   0  0  0  0  0  0  0  0  0  0  0  0
    0.4158    0.8908    0.1581 H   0  0  0  0  0  0  0  0  0  0  0  0
  1  2  1  0
  1 13  1  0
  2  3  1  0
  2  4  1  0
  5  6  1  0
  5  8  1  0
  5  9  1  0
  5 10  1  0
  6  7  1  0
  6 11  1  0
  6 12  1  0
M  RAD  2   1   2   7   2
M  END
>  <reaction>  (8) 
rmg_rxn_13

>  <mol_properties>  (8) 
{"0": {"label": "*1", "atom_type": "N3s"}, "1": {"label": "*0", "atom_type": "N3s"}, "5": {"label": "*4", "atom_type": "Cs"}, "6": {"label": "*3", "atom_type": "S2s"}, "12": {"label": "*2", "atom_type": "H0"}}

>  <type>  (8) 
unop_4

>  <geom_source>  (8) 
Heuristics

$$$$

     RDKit          3D

 13 11  0  0  0  0  0  0  0  0999 V2000
    1.6197    0.8764   -0.3094 N   0  0  0  0  0  2  0  0  0  0  0  0
    1.8108    2.1251    0.1407 N   0  0  0  0  0  0  0  0  0  0  0  0
    2.7416    2.4762   -0.0102 H   0  0  0  0  0  0  0  0  0  0  0  0
    1.3671    2.4423    0.9909 H   0  0  0  0  0  0  0  0  0  0  0  0
   -0.8633   -1.6299   -1.5088 C   0  0  0  0  0  0  0  0  0  0  0  0
   -0.8633   -1.6299    0.0099 C   0  0  0  0  0  0  0  0  0  0  0  0
   -0.8633    0.0274    0.7549 S   0  0  0  0  0  1  0  0  0  0  0  0
    0.0433   -1.1645   -1.8995 H   0  0  0  0  0  0  0  0  0  0  0  0
   -1.7193   -1.0787   -1.8989 H   0  0  0  0  0  0  0  0  0  0  0  0
   -0.9064   -2.6533   -1.8891 H   0  0  0  0  0  0  0  0  0  0  0  0
   -0.0201   -2.1960    0.4050 H   0  0  0  0  0  0  0  0  0  0  0  0
   -1.7709   -2.0970    0.3950 H   0  0  0  0  0  0  0  0  0  0  0  0
    0.5465    0.5095    0.1506 H   0  0  0  0  0  0  0  0  0  0  0  0
  1  2  1  0
  1 13  1  0
  2  3  1  0
  2  4  1  0
  5  6  1  0
  5  8  1  0
  5  9  1  0
  5 10  1  0
  6  7  1  0
  6 11  1  0
  6 12  1  0
M  RAD  2   1   2   7   2
M  END
>  <reaction>  (9) 
rmg_rxn_13

>  <mol_properties>  (9) 
{"0": {"label": "*1", "atom_type": "N3s"}, "1": {"label": "*0", "atom_type": "N3s"}, "5": {"label": "*4", "atom_type": "Cs"}, "6": {"label": "*3", "atom_type": "S2s"}, "12": {"label": "*2", "atom_type": "H0"}}

>  <type>  (9) 
unop_5

>  <geom_source>  (9) 
Heuristics

$$$$

     RDKit          3D

 13 11  0  0  0  0  0  0  0  0999 V2000
    1.4854    1.1670   -0.3818 N   0  0  0  0  0  2  0  0  0  0  0  0
    2.4164    0.8123    0.5157 N   0  0  0  0  0  0  0  0  0  0  0  0
    3.2287    1.4062    0.5187 H   0  0  0  0  0  0  0  0  0  0  0  0
    2.5981   -0.1610    0.7159 H   0  0  0  0  0  0  0  0  0  0  0  0
   -0.9977   -1.3394   -1.5812 C   0  0  0  0  0  0  0  0  0  0  0  0
   -0.9977   -1.3394   -0.0626 C   0  0  0  0  0  0  0  0  0  0  0  0
   -0.9977    0.3180    0.6824 S   0  0  0  0  0  1  0  0  0  0  0  0
   -0.0910   -0.8740   -1.9720 H   0  0  0  0  0  0  0  0  0  0  0  0
   -1.8536   -0.7882   -1.9713 H   0  0  0  0  0  0  0  0  0  0  0  0
   -1.0407   -2.3628   -1.9615 H   0  0  0  0  0  0  0  0  0  0  0  0
   -0.1544   -1.9055    0.3325 H   0  0  0  0  0  0  0  0  0  0  0  0
   -1.9053   -1.8064    0.3226 H   0  0  0  0  0  0  0  0  0  0  0  0
    0.4121    0.8000    0.0782 H   0  0  0  0  0  0  0  0  0  0  0  0
  1  2  1  0
  1 13  1  0
  2  3  1  0
  2  4  1  0
  5  6  1  0
  5  8  1  0
  5  9  1  0
  5 10  1  0
  6  7  1  0
  6 11  1  0
  6 12  1  0
M  RAD  2   1   2   7   2
M  END
>  <reaction>  (10) 
rmg_rxn_13

>  <mol_properties>  (10) 
{"0": {"label": "*1", "atom_type": "N3s"}, "1": {"label": "*0", "atom_type": "N3s"}, "5": {"label": "*4", "atom_type": "Cs"}, "6": {"label": "*3", "atom_type": "S2s"}, "12": {"label": "*2", "atom_type": "H0"}}

>  <type>  (10) 
unop_6

>  <geom_source>  (10) 
Heuristics

$$$$

     RDKit          3D

 13 11  0  0  0  0  0  0  0  0999 V2000
    1.5114    1.0533   -0.4118 N   0  0  0  0  0  2  0  0  0  0  0  0
    2.2936    1.3296    0.6418 N   0  0  0  0  0  0  0  0  0  0  0  0
    2.9947    2.0277    0.4586 H   0  0  0  0  0  0  0  0  0  0  0  0
    2.5732    0.6016    1.2839 H   0  0  0  0  0  0  0  0  0  0  0  0
   -0.9716   -1.4530   -1.6112 C   0  0  0  0  0  0  0  0  0  0  0  0
   -0.9716   -1.4530   -0.0925 C   0  0  0  0  0  0  0  0  0  0  0  0
   -0.9716    0.2043    0.6525 S   0  0  0  0  0  1  0  0  0  0  0  0
   -0.0650   -0.9876   -2.0019 H   0  0  0  0  0  0  0  0  0  0  0  0
   -1.8276   -0.9018   -2.0013 H   0  0  0  0  0  0  0  0  0  0  0  0
   -1.0147   -2.4764   -1.9915 H   0  0  0  0  0  0  0  0  0  0  0  0
   -0.1283   -2.0191    0.3026 H   0  0  0  0  0  0  0  0  0  0  0  0
   -1.8792   -1.9201    0.2926 H   0  0  0  0  0  0  0  0  0  0  0  0
    0.4382    0.6863    0.0482 H   0  0  0  0  0  0  0  0  0  0  0  0
  1  2  1  0
  1 13  1  0
  2  3  1  0
  2  4  1  0
  5  6  1  0
  5  8  1  0
  5  9  1  0
  5 10  1  0
  6  7  1  0
  6 11  1  0
  6 12  1  0
M  RAD  2   1   2   7   2
M  END
>  <reaction>  (11) 
rmg_rxn_13

>  <mol_properties>  (11) 
{"0": {"label": "*1", "atom_type": "N3s"}, "1": {"label": "*0", "atom_type": "N3s"}, "5": {"label": "*4", "atom_type": "Cs"}, "6": {"label": "*3", "atom_type": "S2s"}, "12": {"label": "*2", "atom_type": "H0"}}

>  <type>  (11) 
unop_7

>  <geom_source>  (11) 
Heuristics

$$$$

     RDKit          3D

 13 11  0  0  0  0  0  0  0  0999 V2000
    1.7121    0.9919   -0.0124 N   0  0  0  0  0  2  0  0  0  0  0  0
    1.4348    1.5701   -1.1901 N   0  0  0  0  0  0  0  0  0  0  0  0
    1.8220    2.4930   -1.2938 H   0  0  0  0  0  0  0  0  0  0  0  0
    0.5402    1.4293   -1.6378 H   0  0  0  0  0  0  0  0  0  0  0  0
   -0.7709   -1.5145   -1.2118 C   0  0  0  0  0  0  0  0  0  0  0  0
   -0.7709   -1.5145    0.3069 C   0  0  0  0  0  0  0  0  0  0  0  0
   -0.7709    0.1429    1.0519 S   0  0  0  0  0  1  0  0  0  0  0  0
    0.1357   -1.0490   -1.6025 H   0  0  0  0  0  0  0  0  0  0  0  0
   -1.6269   -0.9633   -1.6019 H   0  0  0  0  0  0  0  0  0  0  0  0
   -0.8140   -2.5378   -1.5921 H   0  0  0  0  0  0  0  0  0  0  0  0
    0.0724   -2.0806    0.7020 H   0  0  0  0  0  0  0  0  0  0  0  0
   -1.6785   -1.9815    0.6920 H   0  0  0  0  0  0  0  0  0  0  0  0
    0.6389    0.6249    0.4476 H   0  0  0  0  0  0  0  0  0  0  0  0
  1  2  1  0
  1 13  1  0
  2  3  1  0
  2  4  1  0
  5  6  1  0
  5  8  1  0
  5  9  1  0
  5 10  1  0
  6  7  1  0
  6 11  1  0
  6 12  1  0
M  RAD  2   1   2   7   2
M  END
>  <reaction>  (12) 
rmg_rxn_13

>  <mol_properties>  (12) 
{"0": {"label": "*1", "atom_type": "N3s"}, "1": {"label": "*0", "atom_type": "N3s"}, "5": {"label": "*4", "atom_type": "Cs"}, "6": {"label": "*3", "atom_type": "S2s"}, "12": {"label": "*2", "atom_type": "H0"}}

>  <type>  (12) 
unop_8

>  <geom_source>  (12) 
Heuristics

$$$$

     RDKit          3D

 13 11  0  0  0  0  0  0  0  0999 V2000
    1.5222    1.3009   -0.1933 N   0  0  0  0  0  2  0  0  0  0  0  0
    2.2688    0.1948   -0.3257 N   0  0  0  0  0  0  0  0  0  0  0  0
    3.2246    0.3751   -0.5832 H   0  0  0  0  0  0  0  0  0  0  0  0
    1.8751   -0.6523   -0.7103 H   0  0  0  0  0  0  0  0  0  0  0  0
   -0.9608   -1.2055   -1.3927 C   0  0  0  0  0  0  0  0  0  0  0  0
   -0.9608   -1.2055    0.1259 C   0  0  0  0  0  0  0  0  0  0  0  0
   -0.9608    0.4519    0.8709 S   0  0  0  0  0  1  0  0  0  0  0  0
   -0.0542   -0.7400   -1.7835 H   0  0  0  0  0  0  0  0  0  0  0  0
   -1.8168   -0.6543   -1.7828 H   0  0  0  0  0  0  0  0  0  0  0  0
   -1.0039   -2.2288   -1.7730 H   0  0  0  0  0  0  0  0  0  0  0  0
   -0.1176   -1.7716    0.5210 H   0  0  0  0  0  0  0  0  0  0  0  0
   -1.8684   -1.6725    0.5111 H   0  0  0  0  0  0  0  0  0  0  0  0
    0.4489    0.9339    0.2667 H   0  0  0  0  0  0  0  0  0  0  0  0
  1  2  1  0
  1 13  1  0
  2  3  1  0
  2  4  1  0
  5  6  1  0
  5  8  1  0
  5  9  1  0
  5 10  1  0
  6  7  1  0
  6 11  1  0
  6 12  1  0
M  RAD  2   1   2   7   2
M  END
>  <reaction>  (13) 
rmg_rxn_13

>  <mol_properties>  (13) 
{"0": {"label": "*1", "atom_type": "N3s"}, "1": {"label": "*0", "atom_type": "N3s"}, "5": {"label": "*4", "atom_type": "Cs"}, "6": {"label": "*3", "atom_type": "S2s"}, "12": {"label": "*2", "atom_type": "H0"}}

>  <type>  (13) 
unop_9

>  <geom_source>  (13) 
Heuristics

$$$$

     RDKit          3D

 13 11  0  0  0  0  0  0  0  0999 V2000
    1.6857    1.1060    0.0186 N   0  0  0  0  0  2  0  0  0  0  0  0
    1.5571    1.0532   -1.3152 N   0  0  0  0  0  0  0  0  0  0  0  0
    1.9152    1.8633   -1.7928 H   0  0  0  0  0  0  0  0  0  0  0  0
    0.7438    0.6312   -1.7404 H   0  0  0  0  0  0  0  0  0  0  0  0
   -0.7974   -1.4003   -1.1808 C   0  0  0  0  0  0  0  0  0  0  0  0
   -0.7974   -1.4003    0.3379 C   0  0  0  0  0  0  0  0  0  0  0  0
   -0.7974    0.2570    1.0829 S   0  0  0  0  0  1  0  0  0  0  0  0
    0.1093   -0.9349   -1.5715 H   0  0  0  0  0  0  0  0  0  0  0  0
   -1.6533   -0.8491   -1.5709 H   0  0  0  0  0  0  0  0  0  0  0  0
   -0.8404   -2.4237   -1.5611 H   0  0  0  0  0  0  0  0  0  0  0  0
    0.0459   -1.9665    0.7330 H   0  0  0  0  0  0  0  0  0  0  0  0
   -1.7050   -1.8674    0.7230 H   0  0  0  0  0  0  0  0  0  0  0  0
    0.6124    0.7390    0.4786 H   0  0  0  0  0  0  0  0  0  0  0  0
  1  2  1  0
  1 13  1  0
  2  3  1  0
  2  4  1  0
  5  6  1  0
  5  8  1  0
  5  9  1  0
  5 10  1  0
  6  7  1  0
  6 11  1  0
  6 12  1  0
M  RAD  2   1   2   7   2
M  END
>  <reaction>  (14) 
rmg_rxn_13

>  <mol_properties>  (14) 
{"0": {"label": "*1", "atom_type": "N3s"}, "1": {"label": "*0", "atom_type": "N3s"}, "5": {"label": "*4", "atom_type": "Cs"}, "6": {"label": "*3", "atom_type": "S2s"}, "12": {"label": "*2", "atom_type": "H0"}}

>  <type>  (14) 
unop_10

>  <geom_source>  (14) 
Heuristics

$$$$

     RDKit          3D

 13 11  0  0  0  0  0  0  0  0999 V2000
    1.5601    0.9474   -0.3849 N   0  0  0  0  0  2  0  0  0  0  0  0
    2.0715    1.8106    0.5049 N   0  0  0  0  0  0  0  0  0  0  0  0
    2.8167    2.3800    0.1404 H   0  0  0  0  0  0  0  0  0  0  0  0
    2.1650    1.5560    1.4780 H   0  0  0  0  0  0  0  0  0  0  0  0
   -0.9229   -1.5589   -1.5843 C   0  0  0  0  0  0  0  0  0  0  0  0
   -0.9229   -1.5589   -0.0657 C   0  0  0  0  0  0  0  0  0  0  0  0
   -0.9229    0.0984    0.6793 S   0  0  0  0  0  1  0  0  0  0  0  0
   -0.0163   -1.0935   -1.9751 H   0  0  0  0  0  0  0  0  0  0  0  0
   -1.7789   -1.0077   -1.9744 H   0  0  0  0  0  0  0  0  0  0  0  0
   -0.9660   -2.5823   -1.9646 H   0  0  0  0  0  0  0  0  0  0  0  0
   -0.0797   -2.1251    0.3295 H   0  0  0  0  0  0  0  0  0  0  0  0
   -1.8305   -2.0260    0.3195 H   0  0  0  0  0  0  0  0  0  0  0  0
    0.4869    0.5804    0.0751 H   0  0  0  0  0  0  0  0  0  0  0  0
  1  2  1  0
  1 13  1  0
  2  3  1  0
  2  4  1  0
  5  6  1  0
  5  8  1  0
  5  9  1  0
  5 10  1  0
  6  7  1  0
  6 11  1  0
  6 12  1  0
M  RAD  2   1   2   7   2
M  END
>  <reaction>  (15) 
rmg_rxn_13

>  <mol_properties>  (15) 
{"0": {"label": "*1", "atom_type": "N3s"}, "1": {"label": "*0", "atom_type": "N3s"}, "5": {"label": "*4", "atom_type": "Cs"}, "6": {"label": "*3", "atom_type": "S2s"}, "12": {"label": "*2", "atom_type": "H0"}}

>  <type>  (15) 
unop_11

>  <geom_source>  (15) 
Heuristics

$$$$

     RDKit          3D

 13 11  0  0  0  0  0  0  0  0999 V2000
    1.5761    1.2844   -0.0857 N   0  0  0  0  0  2  0  0  0  0  0  0
    2.0388    0.2592   -0.8159 N   0  0  0  0  0  0  0  0  0  0  0  0
    2.8233    0.4947   -1.4002 H   0  0  0  0  0  0  0  0  0  0  0  0
    1.4065   -0.4258   -1.2050 H   0  0  0  0  0  0  0  0  0  0  0  0
   -0.9069   -1.2219   -1.2850 C   0  0  0  0  0  0  0  0  0  0  0  0
   -0.9069   -1.2219    0.2336 C   0  0  0  0  0  0  0  0  0  0  0  0
   -0.9069    0.4354    0.9786 S   0  0  0  0  0  1  0  0  0  0  0  0
   -0.0003   -0.7565   -1.6758 H   0  0  0  0  0  0  0  0  0  0  0  0
   -1.7629   -0.6707   -1.6751 H   0  0  0  0  0  0  0  0  0  0  0  0
   -0.9500   -2.2453   -1.6653 H   0  0  0  0  0  0  0  0  0  0  0  0
   -0.0637   -1.7880    0.6287 H   0  0  0  0  0  0  0  0  0  0  0  0
   -1.8145   -1.6890    0.6188 H   0  0  0  0  0  0  0  0  0  0  0  0
    0.5028    0.9175    0.3744 H   0  0  0  0  0  0  0  0  0  0  0  0
  1  2  1  0
  1 13  1  0
  2  3  1  0
  2  4  1  0
  5  6  1  0
  5  8  1  0
  5  9  1  0
  5 10  1  0
  6  7  1  0
  6 11  1  0
  6 12  1  0
M  RAD  2   1   2   7   2
M  END
>  <reaction>  (16) 
rmg_rxn_13

>  <mol_properties>  (16) 
{"0": {"label": "*1", "atom_type": "N3s"}, "1": {"label": "*0", "atom_type": "N3s"}, "5": {"label": "*4", "atom_type": "Cs"}, "6": {"label": "*3", "atom_type": "S2s"}, "12": {"label": "*2", "atom_type": "H0"}}

>  <type>  (16) 
unop_12

>  <geom_source>  (16) 
Heuristics

$$$$

     RDKit          3D

 13 11  0  0  0  0  0  0  0  0999 V2000
    1.6360    1.2130   -0.0082 N   0  0  0  0  0  2  0  0  0  0  0  0
    1.7784    0.5734   -1.1782 N   0  0  0  0  0  0  0  0  0  0  0  0
    2.2963    1.0921   -1.8674 H   0  0  0  0  0  0  0  0  0  0  0  0
    1.0350   -0.0028   -1.5467 H   0  0  0  0  0  0  0  0  0  0  0  0
   -0.8470   -1.2933   -1.2076 C   0  0  0  0  0  0  0  0  0  0  0  0
   -0.8470   -1.2933    0.3111 C   0  0  0  0  0  0  0  0  0  0  0  0
   -0.8470    0.3640    1.0561 S   0  0  0  0  0  1  0  0  0  0  0  0
    0.0596   -0.8279   -1.5983 H   0  0  0  0  0  0  0  0  0  0  0  0
   -1.7030   -0.7421   -1.5977 H   0  0  0  0  0  0  0  0  0  0  0  0
   -0.8901   -2.3167   -1.5879 H   0  0  0  0  0  0  0  0  0  0  0  0
   -0.0038   -1.8594    0.7062 H   0  0  0  0  0  0  0  0  0  0  0  0
   -1.7546   -1.7604    0.6962 H   0  0  0  0  0  0  0  0  0  0  0  0
    0.5627    0.8461    0.4518 H   0  0  0  0  0  0  0  0  0  0  0  0
  1  2  1  0
  1 13  1  0
  2  3  1  0
  2  4  1  0
  5  6  1  0
  5  8  1  0
  5  9  1  0
  5 10  1  0
  6  7  1  0
  6 11  1  0
  6 12  1  0
M  RAD  2   1   2   7   2
M  END
>  <reaction>  (17) 
rmg_rxn_13

>  <mol_properties>  (17) 
{"0": {"label": "*1", "atom_type": "N3s"}, "1": {"label": "*0", "atom_type": "N3s"}, "5": {"label": "*4", "atom_type": "Cs"}, "6": {"label": "*3", "atom_type": "S2s"}, "12": {"label": "*2", "atom_type": "H0"}}

>  <type>  (17) 
unop_13

>  <geom_source>  (17) 
gaussian_log

$$$$
