
     RDKit          3D

 14 13  0  0  0  0  0  0  0  0999 V2000
   -2.6591   -0.0450    0.7000 C   0  0  0  0  0  0  0  0  0  0  0  0
   -1.3737    0.0499    0.9953 C   0  0  0  0  0  0  0  0  0  0  0  0
   -0.2409   -0.3751    0.1081 C   0  0  0  0  0  0  0  0  0  0  0  0
   -0.6541   -1.0253   -1.0741 O   0  0  0  0  0  0  0  0  0  0  0  0
   -0.8556   -2.4003   -0.9287 C   0  0  0  0  0  0  0  0  0  0  0  0
    0.3393   -3.1125   -0.7901 O   0  0  0  0  0  0  0  0  0  0  0  0
   -2.9891   -0.4550   -0.2467 H   0  0  0  0  0  0  0  0  0  0  0  0
   -3.4198    0.2910    1.3925 H   0  0  0  0  0  0  0  0  0  0  0  0
   -1.0669    0.4739    1.9478 H   0  0  0  0  0  0  0  0  0  0  0  0
    0.4535   -1.0117    0.6689 H   0  0  0  0  0  0  0  0  0  0  0  0
    0.3247    0.5078   -0.2023 H   0  0  0  0  0  0  0  0  0  0  0  0
   -1.4079   -2.7062   -1.8216 H   0  0  0  0  0  0  0  0  0  0  0  0
   -1.4388   -2.6266   -0.0318 H   0  0  0  0  0  0  0  0  0  0  0  0
    0.8543   -2.9921   -1.5911 H   0  0  0  0  0  0  0  0  0  0  0  0
  1  2  2  3
  1  7  1  0
  1  8  1  0
  2  3  1  0
  2  9  1  0
  3  4  1  0
  3 10  1  0
  3 11  1  0
  4  5  1  0
  5  6  1  0
  5 12  1  0
  5 13  1  0
  6 14  1  0
M  END
>  <reaction>  (1) 
rmg_rxn_16646

>  <mol_properties>  (1) 
{"5": {"label": "donator", "atom_type": "O2s"}, "13": {"label": "d_hydrogen", "atom_type": "H0"}}

>  <type>  (1) 
r1h

$$$$

     RDKit          3D

  7  6  0  0  0  0  0  0  0  0999 V2000
   -0.8793   -0.0517   -0.1112 C   0  0  0  0  0  0  0  0  0  0  0  0
    0.2561    0.5032    0.6662 C   0  0  0  0  0  3  0  0  0  0  0  0
    1.4646    0.2961    0.5535 N   0  0  0  0  0  0  0  0  0  0  0  0
   -0.5271   -0.7405   -0.8845 H   0  0  0  0  0  0  0  0  0  0  0  0
   -1.5620   -0.5740    0.5603 H   0  0  0  0  0  0  0  0  0  0  0  0
   -1.4387    0.7624   -0.5738 H   0  0  0  0  0  0  0  0  0  0  0  0
    2.0855    0.7832    1.1950 H   0  0  0  0  0  0  0  0  0  0  0  0
  1  2  1  0
  1  4  1  0
  1  5  1  0
  1  6  1  0
  2  3  2  3
  3  7  1  0
M  RAD  1   2   2
M  END
>  <reaction>  (2) 
rmg_rxn_16646

>  <mol_properties>  (2) 
{"1": {"label": "acceptor", "atom_type": "Cd"}}

>  <type>  (2) 
r2

$$$$

     RDKit          3D

  8  7  0  0  0  0  0  0  0  0999 V2000
    0.9548    0.1194   -0.0790 C   0  0  0  0  0  0  0  0  0  0  0  0
   -0.4838   -0.2649    0.0193 C   0  0  0  0  0  0  0  0  0  0  0  0
   -0.8933   -1.1081    0.8664 N   0  0  0  0  0  0  0  0  0  0  0  0
    1.3360   -0.0983   -1.0800 H   0  0  0  0  0  0  0  0  0  0  0  0
    1.0698    1.1948    0.0786 H   0  0  0  0  0  0  0  0  0  0  0  0
    1.5426   -0.4219    0.6602 H   0  0  0  0  0  0  0  0  0  0  0  0
   -1.1575    0.2324   -0.6905 H   0  0  0  0  0  0  0  0  0  0  0  0
   -1.8989   -1.2455    0.7886 H   0  0  0  0  0  0  0  0  0  0  0  0
  1  2  1  0
  1  4  1  0
  1  5  1  0
  1  6  1  0
  2  3  2  3
  2  7  1  0
  3  8  1  0
M  END
>  <reaction>  (3) 
rmg_rxn_16646

>  <mol_properties>  (3) 
{"1": {"label": "acceptor", "atom_type": "Cd"}, "7": {"label": "a_hydrogen", "atom_type": "H0"}}

>  <type>  (3) 
r2h

$$$$

     RDKit          3D

 21 19  0  0  0  0  0  0  0  0999 V2000
   -3.5133   -0.7307    0.3644 C   0  0  0  0  0  0  0  0  0  0  0  0
   -2.2767   -0.0997   -0.1794 C   0  0  0  0  0  0  0  0  0  0  0  0
   -2.1541    0.4642   -1.2815 N   0  0  0  0  0  0  0  0  0  0  0  0
   -3.3245   -1.7846    0.5762 H   0  0  0  0  0  0  0  0  0  0  0  0
   -3.7828   -0.2550    1.3089 H   0  0  0  0  0  0  0  0  0  0  0  0
   -4.3321   -0.6357   -0.3477 H   0  0  0  0  0  0  0  0  0  0  0  0
   -1.2142    0.8201   -1.4591 H   0  0  0  0  0  0  0  0  0  0  0  0
    2.8814   -1.8016    0.2211 C   0  0  0  0  0  0  0  0  0  0  0  0
    2.0039   -1.0890   -0.4650 C   0  0  0  0  0  0  0  0  0  0  0  0
    2.0940    0.3956   -0.6476 C   0  0  0  0  0  0  0  0  0  0  0  0
    0.8698    1.0845   -0.4685 O   0  0  0  0  0  0  0  0  0  0  0  0
    0.3879    1.1345    0.8517 C   0  0  0  0  0  0  0  0  0  0  0  0
   -0.1711   -0.0210    1.3062 O   0  0  0  0  0  1  0  0  0  0  0  0
    3.7093   -1.3313    0.7413 H   0  0  0  0  0  0  0  0  0  0  0  0
    2.8063   -2.8789    0.2923 H   0  0  0  0  0  0  0  0  0  0  0  0
    1.1725   -1.5746   -0.9663 H   0  0  0  0  0  0  0  0  0  0  0  0
    2.3926    0.6205   -1.6742 H   0  0  0  0  0  0  0  0  0  0  0  0
    2.8595    0.8112    0.0210 H   0  0  0  0  0  0  0  0  0  0  0  0
   -0.3248    1.9695    0.8565 H   0  0  0  0  0  0  0  0  0  0  0  0
    1.2063    1.3721    1.5533 H   0  0  0  0  0  0  0  0  0  0  0  0
   -1.3377   -0.1703    0.5624 H   0  0  0  0  0  0  0  0  0  0  0  0
  1  2  1  0
  1  4  1  0
  1  5  1  0
  1  6  1  0
  2  3  2  3
  2 21  1  0
  3  7  1  0
  8  9  2  3
  8 14  1  0
  8 15  1  0
  9 10  1  0
  9 16  1  0
 10 11  1  0
 10 17  1  0
 10 18  1  0
 11 12  1  0
 12 13  1  0
 12 19  1  0
 12 20  1  0
M  RAD  1  13   2
M  END
>  <reaction>  (4) 
rmg_rxn_16646

>  <mol_properties>  (4) 
{"1": {"label": "*1", "atom_type": "Cd"}, "2": {"label": "*0", "atom_type": "N3d"}, "11": {"label": "*4", "atom_type": "Cs"}, "12": {"label": "*3", "atom_type": "O2s"}, "20": {"label": "*2", "atom_type": "H0"}}

>  <type>  (4) 
ts

$$$$

     RDKit          3D

 21 19  0  0  0  0  0  0  0  0999 V2000
   -3.0869   -1.0062    0.3232 C   0  0  0  0  0  0  0  0  0  0  0  0
   -1.9949   -0.1570   -0.1777 C   0  0  0  0  0  3  0  0  0  0  0  0
   -1.8934    0.3790   -1.2848 N   0  0  0  0  0  0  0  0  0  0  0  0
   -2.6799   -1.9727    0.6165 H   0  0  0  0  0  0  0  0  0  0  0  0
   -3.5157   -0.5475    1.2128 H   0  0  0  0  0  0  0  0  0  0  0  0
   -3.8646   -1.1464   -0.4286 H   0  0  0  0  0  0  0  0  0  0  0  0
   -1.0750    0.9399   -1.5038 H   0  0  0  0  0  0  0  0  0  0  0  0
    2.2741   -1.8807    0.2099 C   0  0  0  0  0  0  0  0  0  0  0  0
    1.5830   -1.0205   -0.5124 C   0  0  0  0  0  0  0  0  0  0  0  0
    1.9513    0.4239   -0.6799 C   0  0  0  0  0  0  0  0  0  0  0  0
    0.8735    1.3126   -0.4304 O   0  0  0  0  0  0  0  0  0  0  0  0
    0.4816    1.3850    0.9236 C   0  0  0  0  0  0  0  0  0  0  0  0
   -0.1153    0.2629    1.4023 O   0  0  0  0  0  0  0  0  0  0  0  0
    3.1621   -1.5870    0.7452 H   0  0  0  0  0  0  0  0  0  0  0  0
    1.9832   -2.9133    0.2974 H   0  0  0  0  0  0  0  0  0  0  0  0
    0.6882   -1.3260   -1.0384 H   0  0  0  0  0  0  0  0  0  0  0  0
    2.2299    0.6182   -1.7219 H   0  0  0  0  0  0  0  0  0  0  0  0
    2.7990    0.6775   -0.0284 H   0  0  0  0  0  0  0  0  0  0  0  0
   -0.1834    2.2676    0.9584 H   0  0  0  0  0  0  0  0  0  0  0  0
    1.3631    1.5797    1.5606 H   0  0  0  0  0  0  0  0  0  0  0  0
   -1.0275    0.0107    0.7222 H   0  0  0  0  0  0  0  0  0  0  0  0
  1  2  1  0
  1  4  1  0
  1  5  1  0
  1  6  1  0
  2  3  2  3
  3  7  1  0
  8  9  2  3
  8 14  1  0
  8 15  1  0
  9 10  1  0
  9 16  1  0
 10 11  1  0
 10 17  1  0
 10 18  1  0
 11 12  1  0
 12 13  1  0
 12 19  1  0
 12 20  1  0
 13 21  1  0
M  RAD  1   2   2
M  END
>  <reaction>  (5) 
rmg_rxn_16646

>  <mol_properties>  (5) 
{"1": {"label": "*1", "atom_type": "Cd"}, "2": {"label": "*0", "atom_type": "N3d"}, "11": {"label": "*4", "atom_type": "Cs"}, "12": {"label": "*3", "atom_type": "O2s"}, "20": {"label": "*2", "atom_type": "H0"}}

>  <type>  (5) 
unop_1

>  <geom_source>  (5) 
crest_best.xyz

$$$$

     RDKit          3D

 21 19  0  0  0  0  0  0  0  0999 V2000
   -0.3323    2.1932    2.4579 C   0  0  0  0  0  0  0  0  0  0  0  0
    0.2060    2.2958    1.0699 C   0  0  0  0  0  3  0  0  0  0  0  0
    0.7900    3.3367    0.6554 N   0  0  0  0  0  0  0  0  0  0  0  0
   -0.1425    3.1140    3.0066 H   0  0  0  0  0  0  0  0  0  0  0  0
   -1.4074    1.9979    2.4323 H   0  0  0  0  0  0  0  0  0  0  0  0
    0.1314    1.3533    2.9815 H   0  0  0  0  0  0  0  0  0  0  0  0
    1.0893    3.2275   -0.3114 H   0  0  0  0  0  0  0  0  0  0  0  0
   -0.7656   -2.9617   -2.1419 C   0  0  0  0  0  0  0  0  0  0  0  0
   -0.7656   -2.9617   -0.8196 C   0  0  0  0  0  0  0  0  0  0  0  0
   -0.7656   -1.7412    0.0530 C   0  0  0  0  0  0  0  0  0  0  0  0
   -0.6396   -0.5297   -0.6593 O   0  0  0  0  0  0  0  0  0  0  0  0
    0.6811   -0.1563   -0.9214 C   0  0  0  0  0  0  0  0  0  0  0  0
    1.3575    0.2840    0.2200 O   0  0  0  0  0  0  0  0  0  0  0  0
   -0.7658   -2.0355   -2.7035 H   0  0  0  0  0  0  0  0  0  0  0  0
   -0.7726   -3.8873   -2.7026 H   0  0  0  0  0  0  0  0  0  0  0  0
   -0.7750   -3.9041   -0.2782 H   0  0  0  0  0  0  0  0  0  0  0  0
    0.0256   -1.8222    0.8076 H   0  0  0  0  0  0  0  0  0  0  0  0
   -1.7127   -1.6869    0.5969 H   0  0  0  0  0  0  0  0  0  0  0  0
    0.6131    0.6288   -1.6796 H   0  0  0  0  0  0  0  0  0  0  0  0
    1.2661   -0.9970   -1.3043 H   0  0  0  0  0  0  0  0  0  0  0  0
    0.8204    1.2225    0.6165 H   0  0  0  0  0  0  0  0  0  0  0  0
  1  2  1  0
  1  4  1  0
  1  5  1  0
  1  6  1  0
  2  3  2  3
  3  7  1  0
  8  9  2  3
  8 14  1  0
  8 15  1  0
  9 10  1  0
  9 16  1  0
 10 11  1  0
 10 17  1  0
 10 18  1  0
 11 12  1  0
 12 13  1  0
 12 19  1  0
 12 20  1  0
 13 21  1  0
M  RAD  1   2   2
M  END
>  <reaction>  (6) 
rmg_rxn_16646

>  <mol_properties>  (6) 
{"1": {"label": "*1", "atom_type": "Cd"}, "2": {"label": "*0", "atom_type": "N3d"}, "11": {"label": "*4", "atom_type": "Cs"}, "12": {"label": "*3", "atom_type": "O2s"}, "20": {"label": "*2", "atom_type": "H0"}}

>  <type>  (6) 
unop_2

>  <geom_source>  (6) 
Heuristics

$$$$

     RDKit          3D

 21 19  0  0  0  0  0  0  0  0999 V2000
   -1.1504    2.3767    0.8492 C   0  0  0  0  0  0  0  0  0  0  0  0
    0.3169    2.3130    1.1136 C   0  0  0  0  0  3  0  0  0  0  0  0
    0.8690    3.0340    1.9920 N   0  0  0  0  0  0  0  0  0  0  0  0
   -1.6220    3.1061    1.5054 H   0  0  0  0  0  0  0  0  0  0  0  0
   -1.3346    2.6496   -0.1931 H   0  0  0  0  0  0  0  0  0  0  0  0
   -1.6053    1.3954    1.0066 H   0  0  0  0  0  0  0  0  0  0  0  0
    1.8706    2.8572    2.0331 H   0  0  0  0  0  0  0  0  0  0  0  0
   -0.6547   -2.9446   -2.0982 C   0  0  0  0  0  0  0  0  0  0  0  0
   -0.6547   -2.9446   -0.7758 C   0  0  0  0  0  0  0  0  0  0  0  0
   -0.6547   -1.7240    0.0968 C   0  0  0  0  0  0  0  0  0  0  0  0
   -0.5287   -0.5125   -0.6156 O   0  0  0  0  0  0  0  0  0  0  0  0
    0.7919   -0.1391   -0.8777 C   0  0  0  0  0  0  0  0  0  0  0  0
    1.4684    0.3012    0.2638 O   0  0  0  0  0  0  0  0  0  0  0  0
   -0.6550   -2.0183   -2.6598 H   0  0  0  0  0  0  0  0  0  0  0  0
   -0.6617   -3.8701   -2.6589 H   0  0  0  0  0  0  0  0  0  0  0  0
   -0.6642   -3.8869   -0.2345 H   0  0  0  0  0  0  0  0  0  0  0  0
    0.1365   -1.8050    0.8513 H   0  0  0  0  0  0  0  0  0  0  0  0
   -1.6018   -1.6697    0.6406 H   0  0  0  0  0  0  0  0  0  0  0  0
    0.7239    0.6459   -1.6359 H   0  0  0  0  0  0  0  0  0  0  0  0
    1.3770   -0.9798   -1.2605 H   0  0  0  0  0  0  0  0  0  0  0  0
    0.9312    1.2397    0.6602 H   0  0  0  0  0  0  0  0  0  0  0  0
  1  2  1  0
  1  4  1  0
  1  5  1  0
  1  6  1  0
  2  3  2  3
  3  7  1  0
  8  9  2  3
  8 14  1  0
  8 15  1  0
  9 10  1  0
  9 16  1  0
 10 11  1  0
 10 17  1  0
 10 18  1  0
 11 12  1  0
 12 13  1  0
 12 19  1  0
 12 20  1  0
 13 21  1  0
M  RAD  1   2   2
M  END
>  <reaction>  (7) 
rmg_rxn_16646

>  <mol_properties>  (7) 
{"1": {"label": "*1", "atom_type": "Cd"}, "2": {"label": "*0", "atom_type": "N3d"}, "11": {"label": "*4", "atom_type": "Cs"}, "12": {"label": "*3", "atom_type": "O2s"}, "20": {"label": "*2", "atom_type": "H0"}}

>  <type>  (7) 
unop_3

>  <geom_source>  (7) 
Heuristics

$$$$

     RDKit          3D

 21 19  0  0  0  0  0  0  0  0999 V2000
    0.2847    2.4806    2.5801 C   0  0  0  0  0  0  0  0  0  0  0  0
    0.2081    2.2679    1.1050 C   0  0  0  0  0  3  0  0  0  0  0  0
    0.1500    3.2343    0.2932 N   0  0  0  0  0  0  0  0  0  0  0  0
    0.2815    3.5446    2.8099 H   0  0  0  0  0  0  0  0  0  0  0  0
   -0.5611    1.9969    3.0756 H   0  0  0  0  0  0  0  0  0  0  0  0
    1.1927    2.0227    2.9808 H   0  0  0  0  0  0  0  0  0  0  0  0
    0.1029    2.9020   -0.6678 H   0  0  0  0  0  0  0  0  0  0  0  0
   -0.7635   -2.9897   -2.1068 C   0  0  0  0  0  0  0  0  0  0  0  0
   -0.7635   -2.9897   -0.7844 C   0  0  0  0  0  0  0  0  0  0  0  0
   -0.7635   -1.7691    0.0882 C   0  0  0  0  0  0  0  0  0  0  0  0
   -0.6376   -0.5576   -0.6242 O   0  0  0  0  0  0  0  0  0  0  0  0
    0.6831   -0.1842   -0.8863 C   0  0  0  0  0  0  0  0  0  0  0  0
    1.3595    0.2561    0.2552 O   0  0  0  0  0  0  0  0  0  0  0  0
   -0.7638   -2.0634   -2.6684 H   0  0  0  0  0  0  0  0  0  0  0  0
   -0.7706   -3.9152   -2.6675 H   0  0  0  0  0  0  0  0  0  0  0  0
   -0.7730   -3.9320   -0.2431 H   0  0  0  0  0  0  0  0  0  0  0  0
    0.0277   -1.8501    0.8427 H   0  0  0  0  0  0  0  0  0  0  0  0
   -1.7107   -1.7148    0.6320 H   0  0  0  0  0  0  0  0  0  0  0  0
    0.6151    0.6009   -1.6444 H   0  0  0  0  0  0  0  0  0  0  0  0
    1.2681   -1.0249   -1.2691 H   0  0  0  0  0  0  0  0  0  0  0  0
    0.8224    1.1946    0.6516 H   0  0  0  0  0  0  0  0  0  0  0  0
  1  2  1  0
  1  4  1  0
  1  5  1  0
  1  6  1  0
  2  3  2  3
  3  7  1  0
  8  9  2  3
  8 14  1  0
  8 15  1  0
  9 10  1  0
  9 16  1  0
 10 11  1  0
 10 17  1  0
 10 18  1  0
 11 12  1  0
 12 13  1  0
 12 19  1  0
 12 20  1  0
 13 21  1  0
M  RAD  1   2   2
M  END
>  <reaction>  (8) 
rmg_rxn_16646

>  <mol_properties>  (8) 
{"1": {"label": "*1", "atom_type": "Cd"}, "2": {"label": "*0", "atom_type": "N3d"}, "11": {"label": "*4", "atom_type": "Cs"}, "12": {"label": "*3", "atom_type": "O2s"}, "20": {"label": "*2", "atom_type": "H0"}}

>  <type>  (8) 
unop_4

>  <geom_source>  (8) 
Heuristics

$$$$

     RDKit          3D

 21 19  0  0  0  0  0  0  0  0999 V2000
    0.1469    3.4047    0.2058 C   0  0  0  0  0  0  0  0  0  0  0  0
    0.2105    2.2505    1.1496 C   0  0  0  0  0  3  0  0  0  0  0  0
    0.2735    2.4138    2.4009 N   0  0  0  0  0  0  0  0  0  0  0  0
    0.1636    4.3444    0.7552 H   0  0  0  0  0  0  0  0  0  0  0  0
    0.9907    3.3718   -0.4881 H   0  0  0  0  0  0  0  0  0  0  0  0
   -0.7633    3.3497   -0.3969 H   0  0  0  0  0  0  0  0  0  0  0  0
    0.3099    1.5191    2.8848 H   0  0  0  0  0  0  0  0  0  0  0  0
   -0.7611   -3.0070   -2.0621 C   0  0  0  0  0  0  0  0  0  0  0  0
   -0.7611   -3.0070   -0.7398 C   0  0  0  0  0  0  0  0  0  0  0  0
   -0.7611   -1.7865    0.1328 C   0  0  0  0  0  0  0  0  0  0  0  0
   -0.6352   -0.5750   -0.5795 O   0  0  0  0  0  0  0  0  0  0  0  0
    0.6855   -0.2015   -0.8417 C   0  0  0  0  0  0  0  0  0  0  0  0
    1.3620    0.2387    0.2998 O   0  0  0  0  0  0  0  0  0  0  0  0
   -0.7614   -2.0807   -2.6237 H   0  0  0  0  0  0  0  0  0  0  0  0
   -0.7682   -3.9325   -2.6228 H   0  0  0  0  0  0  0  0  0  0  0  0
   -0.7706   -3.9493   -0.1985 H   0  0  0  0  0  0  0  0  0  0  0  0
    0.0301   -1.8675    0.8873 H   0  0  0  0  0  0  0  0  0  0  0  0
   -1.7083   -1.7322    0.6766 H   0  0  0  0  0  0  0  0  0  0  0  0
    0.6175    0.5835   -1.5998 H   0  0  0  0  0  0  0  0  0  0  0  0
    1.2705   -1.0423   -1.2245 H   0  0  0  0  0  0  0  0  0  0  0  0
    0.8248    1.1772    0.6962 H   0  0  0  0  0  0  0  0  0  0  0  0
  1  2  1  0
  1  4  1  0
  1  5  1  0
  1  6  1  0
  2  3  2  3
  3  7  1  0
  8  9  2  3
  8 14  1  0
  8 15  1  0
  9 10  1  0
  9 16  1  0
 10 11  1  0
 10 17  1  0
 10 18  1  0
 11 12  1  0
 12 13  1  0
 12 19  1  0
 12 20  1  0
 13 21  1  0
M  RAD  1   2   2
M  END
>  <reaction>  (9) 
rmg_rxn_16646

>  <mol_properties>  (9) 
{"1": {"label": "*1", "atom_type": "Cd"}, "2": {"label": "*0", "atom_type": "N3d"}, "11": {"label": "*4", "atom_type": "Cs"}, "12": {"label": "*3", "atom_type": "O2s"}, "20": {"label": "*2", "atom_type": "H0"}}

>  <type>  (9) 
unop_5

>  <geom_source>  (9) 
Heuristics

$$$$

     RDKit          3D

 21 19  0  0  0  0  0  0  0  0999 V2000
    0.8488    2.8884    2.3317 C   0  0  0  0  0  0  0  0  0  0  0  0
    0.2584    2.2766    1.1053 C   0  0  0  0  0  3  0  0  0  0  0  0
   -0.7641    2.7613    0.5433 N   0  0  0  0  0  0  0  0  0  0  0  0
    0.2770    3.7653    2.6302 H   0  0  0  0  0  0  0  0  0  0  0  0
    0.8581    2.1624    3.1487 H   0  0  0  0  0  0  0  0  0  0  0  0
    1.8877    3.1744    2.1482 H   0  0  0  0  0  0  0  0  0  0  0  0
   -1.0240    2.2158   -0.2759 H   0  0  0  0  0  0  0  0  0  0  0  0
   -0.7132   -2.9810   -2.1065 C   0  0  0  0  0  0  0  0  0  0  0  0
   -0.7132   -2.9810   -0.7841 C   0  0  0  0  0  0  0  0  0  0  0  0
   -0.7132   -1.7604    0.0885 C   0  0  0  0  0  0  0  0  0  0  0  0
   -0.5872   -0.5489   -0.6239 O   0  0  0  0  0  0  0  0  0  0  0  0
    0.7335   -0.1755   -0.8860 C   0  0  0  0  0  0  0  0  0  0  0  0
    1.4099    0.2648    0.2555 O   0  0  0  0  0  0  0  0  0  0  0  0
   -0.7134   -2.0547   -2.6681 H   0  0  0  0  0  0  0  0  0  0  0  0
   -0.7202   -3.9065   -2.6672 H   0  0  0  0  0  0  0  0  0  0  0  0
   -0.7226   -3.9233   -0.2428 H   0  0  0  0  0  0  0  0  0  0  0  0
    0.0780   -1.8414    0.8430 H   0  0  0  0  0  0  0  0  0  0  0  0
   -1.6603   -1.7061    0.6323 H   0  0  0  0  0  0  0  0  0  0  0  0
    0.6655    0.6096   -1.6441 H   0  0  0  0  0  0  0  0  0  0  0  0
    1.3185   -1.0162   -1.2688 H   0  0  0  0  0  0  0  0  0  0  0  0
    0.8728    1.2033    0.6519 H   0  0  0  0  0  0  0  0  0  0  0  0
  1  2  1  0
  1  4  1  0
  1  5  1  0
  1  6  1  0
  2  3  2  3
  3  7  1  0
  8  9  2  3
  8 14  1  0
  8 15  1  0
  9 10  1  0
  9 16  1  0
 10 11  1  0
 10 17  1  0
 10 18  1  0
 11 12  1  0
 12 13  1  0
 12 19  1  0
 12 20  1  0
 13 21  1  0
M  RAD  1   2   2
M  END
>  <reaction>  (10) 
rmg_rxn_16646

>  <mol_properties>  (10) 
{"1": {"label": "*1", "atom_type": "Cd"}, "2": {"label": "*0", "atom_type": "N3d"}, "11": {"label": "*4", "atom_type": "Cs"}, "12": {"label": "*3", "atom_type": "O2s"}, "20": {"label": "*2", "atom_type": "H0"}}

>  <type>  (10) 
unop_6

>  <geom_source>  (10) 
Heuristics

$$$$

     RDKit          3D

 21 19  0  0  0  0  0  0  0  0999 V2000
    0.6774    3.5691    0.5632 C   0  0  0  0  0  0  0  0  0  0  0  0
    0.1897    2.2680    1.1075 C   0  0  0  0  0  3  0  0  0  0  0  0
   -0.1239    2.1284    2.3234 N   0  0  0  0  0  0  0  0  0  0  0  0
    0.7104    4.3203    1.3503 H   0  0  0  0  0  0  0  0  0  0  0  0
    1.6742    3.4477    0.1316 H   0  0  0  0  0  0  0  0  0  0  0  0
    0.0216    3.9112   -0.2415 H   0  0  0  0  0  0  0  0  0  0  0  0
   -0.4336    1.1777    2.5142 H   0  0  0  0  0  0  0  0  0  0  0  0
   -0.7819   -2.9895   -2.1042 C   0  0  0  0  0  0  0  0  0  0  0  0
   -0.7819   -2.9895   -0.7819 C   0  0  0  0  0  0  0  0  0  0  0  0
   -0.7819   -1.7690    0.0907 C   0  0  0  0  0  0  0  0  0  0  0  0
   -0.6560   -0.5575   -0.6216 O   0  0  0  0  0  0  0  0  0  0  0  0
    0.6647   -0.1840   -0.8838 C   0  0  0  0  0  0  0  0  0  0  0  0
    1.3411    0.2562    0.2577 O   0  0  0  0  0  0  0  0  0  0  0  0
   -0.7822   -2.0632   -2.6658 H   0  0  0  0  0  0  0  0  0  0  0  0
   -0.7890   -3.9150   -2.6649 H   0  0  0  0  0  0  0  0  0  0  0  0
   -0.7914   -3.9318   -0.2406 H   0  0  0  0  0  0  0  0  0  0  0  0
    0.0093   -1.8500    0.8452 H   0  0  0  0  0  0  0  0  0  0  0  0
   -1.7291   -1.7147    0.6345 H   0  0  0  0  0  0  0  0  0  0  0  0
    0.5967    0.6010   -1.6419 H   0  0  0  0  0  0  0  0  0  0  0  0
    1.2497   -1.0248   -1.2666 H   0  0  0  0  0  0  0  0  0  0  0  0
    0.8040    1.1947    0.6541 H   0  0  0  0  0  0  0  0  0  0  0  0
  1  2  1  0
  1  4  1  0
  1  5  1  0
  1  6  1  0
  2  3  2  3
  3  7  1  0
  8  9  2  3
  8 14  1  0
  8 15  1  0
  9 10  1  0
  9 16  1  0
 10 11  1  0
 10 17  1  0
 10 18  1  0
 11 12  1  0
 12 13  1  0
 12 19  1  0
 12 20  1  0
 13 21  1  0
M  RAD  1   2   2
M  END
>  <reaction>  (11) 
rmg_rxn_16646

>  <mol_properties>  (11) 
{"1": {"label": "*1", "atom_type": "Cd"}, "2": {"label": "*0", "atom_type": "N3d"}, "11": {"label": "*4", "atom_type": "Cs"}, "12": {"label": "*3", "atom_type": "O2s"}, "20": {"label": "*2", "atom_type": "H0"}}

>  <type>  (11) 
unop_7

>  <geom_source>  (11) 
Heuristics

$$$$

     RDKit          3D

 21 19  0  0  0  0  0  0  0  0999 V2000
    1.0332    3.5354    1.1310 C   0  0  0  0  0  0  0  0  0  0  0  0
    0.2054    2.2951    1.0705 C   0  0  0  0  0  3  0  0  0  0  0  0
   -0.5918    1.9786    1.9981 N   0  0  0  0  0  0  0  0  0  0  0  0
    0.8371    4.0768    2.0548 H   0  0  0  0  0  0  0  0  0  0  0  0
    2.0952    3.2835    1.0732 H   0  0  0  0  0  0  0  0  0  0  0  0
    0.8117    4.1791    0.2758 H   0  0  0  0  0  0  0  0  0  0  0  0
   -1.0700    1.1052    1.7869 H   0  0  0  0  0  0  0  0  0  0  0  0
   -0.7662   -2.9624   -2.1413 C   0  0  0  0  0  0  0  0  0  0  0  0
   -0.7662   -2.9624   -0.8189 C   0  0  0  0  0  0  0  0  0  0  0  0
   -0.7662   -1.7418    0.0536 C   0  0  0  0  0  0  0  0  0  0  0  0
   -0.6402   -0.5303   -0.6587 O   0  0  0  0  0  0  0  0  0  0  0  0
    0.6804   -0.1569   -0.9208 C   0  0  0  0  0  0  0  0  0  0  0  0
    1.3569    0.2834    0.2207 O   0  0  0  0  0  0  0  0  0  0  0  0
   -0.7665   -2.0361   -2.7029 H   0  0  0  0  0  0  0  0  0  0  0  0
   -0.7732   -3.8879   -2.7020 H   0  0  0  0  0  0  0  0  0  0  0  0
   -0.7757   -3.9047   -0.2776 H   0  0  0  0  0  0  0  0  0  0  0  0
    0.0250   -1.8228    0.8082 H   0  0  0  0  0  0  0  0  0  0  0  0
   -1.7133   -1.6875    0.5975 H   0  0  0  0  0  0  0  0  0  0  0  0
    0.6124    0.6281   -1.6790 H   0  0  0  0  0  0  0  0  0  0  0  0
    1.2655   -0.9977   -1.3036 H   0  0  0  0  0  0  0  0  0  0  0  0
    0.8197    1.2219    0.6171 H   0  0  0  0  0  0  0  0  0  0  0  0
  1  2  1  0
  1  4  1  0
  1  5  1  0
  1  6  1  0
  2  3  2  3
  3  7  1  0
  8  9  2  3
  8 14  1  0
  8 15  1  0
  9 10  1  0
  9 16  1  0
 10 11  1  0
 10 17  1  0
 10 18  1  0
 11 12  1  0
 12 13  1  0
 12 19  1  0
 12 20  1  0
 13 21  1  0
M  RAD  1   2   2
M  END
>  <reaction>  (12) 
rmg_rxn_16646

>  <mol_properties>  (12) 
{"1": {"label": "*1", "atom_type": "Cd"}, "2": {"label": "*0", "atom_type": "N3d"}, "11": {"label": "*4", "atom_type": "Cs"}, "12": {"label": "*3", "atom_type": "O2s"}, "20": {"label": "*2", "atom_type": "H0"}}

>  <type>  (12) 
unop_8

>  <geom_source>  (12) 
Heuristics

$$$$

     RDKit          3D

 21 19  0  0  0  0  0  0  0  0999 V2000
   -0.8456    2.0722    2.0431 C   0  0  0  0  0  0  0  0  0  0  0  0
    0.2442    2.3216    1.0545 C   0  0  0  0  0  3  0  0  0  0  0  0
    1.0524    3.2846    1.1804 N   0  0  0  0  0  0  0  0  0  0  0  0
   -0.8169    2.8191    2.8345 H   0  0  0  0  0  0  0  0  0  0  0  0
   -1.8191    2.1021    1.5472 H   0  0  0  0  0  0  0  0  0  0  0  0
   -0.7400    1.0748    2.4776 H   0  0  0  0  0  0  0  0  0  0  0  0
    1.7250    3.2994    0.4166 H   0  0  0  0  0  0  0  0  0  0  0  0
   -0.7274   -2.9359   -2.1572 C   0  0  0  0  0  0  0  0  0  0  0  0
   -0.7274   -2.9359   -0.8349 C   0  0  0  0  0  0  0  0  0  0  0  0
   -0.7274   -1.7154    0.0377 C   0  0  0  0  0  0  0  0  0  0  0  0
   -0.6014   -0.5039   -0.6746 O   0  0  0  0  0  0  0  0  0  0  0  0
    0.7192   -0.1304   -0.9367 C   0  0  0  0  0  0  0  0  0  0  0  0
    1.3957    0.3098    0.2047 O   0  0  0  0  0  0  0  0  0  0  0  0
   -0.7277   -2.0096   -2.7188 H   0  0  0  0  0  0  0  0  0  0  0  0
   -0.7344   -3.8614   -2.7179 H   0  0  0  0  0  0  0  0  0  0  0  0
   -0.7369   -3.8782   -0.2935 H   0  0  0  0  0  0  0  0  0  0  0  0
    0.0638   -1.7964    0.7922 H   0  0  0  0  0  0  0  0  0  0  0  0
   -1.6746   -1.6611    0.5815 H   0  0  0  0  0  0  0  0  0  0  0  0
    0.6512    0.6546   -1.6949 H   0  0  0  0  0  0  0  0  0  0  0  0
    1.3043   -0.9712   -1.3196 H   0  0  0  0  0  0  0  0  0  0  0  0
    0.8585    1.2483    0.6011 H   0  0  0  0  0  0  0  0  0  0  0  0
  1  2  1  0
  1  4  1  0
  1  5  1  0
  1  6  1  0
  2  3  2  3
  3  7  1  0
  8  9  2  3
  8 14  1  0
  8 15  1  0
  9 10  1  0
  9 16  1  0
 10 11  1  0
 10 17  1  0
 10 18  1  0
 11 12  1  0
 12 13  1  0
 12 19  1  0
 12 20  1  0
 13 21  1  0
M  RAD  1   2   2
M  END
>  <reaction>  (13) 
rmg_rxn_16646

>  <mol_properties>  (13) 
{"1": {"label": "*1", "atom_type": "Cd"}, "2": {"label": "*0", "atom_type": "N3d"}, "11": {"label": "*4", "atom_type": "Cs"}, "12": {"label": "*3", "atom_type": "O2s"}, "20": {"label": "*2", "atom_type": "H0"}}

>  <type>  (13) 
unop_9

>  <geom_source>  (13) 
Heuristics

$$$$

     RDKit          3D

 21 19  0  0  0  0  0  0  0  0999 V2000
   -3.0869   -1.0062    0.3232 C   0  0  0  0  0  0  0  0  0  0  0  0
   -1.9949   -0.1570   -0.1777 C   0  0  0  0  0  3  0  0  0  0  0  0
   -1.8934    0.3790   -1.2848 N   0  0  0  0  0  0  0  0  0  0  0  0
   -2.6799   -1.9727    0.6165 H   0  0  0  0  0  0  0  0  0  0  0  0
   -3.5157   -0.5475    1.2128 H   0  0  0  0  0  0  0  0  0  0  0  0
   -3.8646   -1.1464   -0.4286 H   0  0  0  0  0  0  0  0  0  0  0  0
   -1.0750    0.9399   -1.5038 H   0  0  0  0  0  0  0  0  0  0  0  0
    2.2741   -1.8807    0.2099 C   0  0  0  0  0  0  0  0  0  0  0  0
    1.5830   -1.0205   -0.5124 C   0  0  0  0  0  0  0  0  0  0  0  0
    1.9513    0.4239   -0.6799 C   0  0  0  0  0  0  0  0  0  0  0  0
    0.8735    1.3126   -0.4304 O   0  0  0  0  0  0  0  0  0  0  0  0
    0.4816    1.3850    0.9236 C   0  0  0  0  0  0  0  0  0  0  0  0
   -0.1153    0.2629    1.4023 O   0  0  0  0  0  0  0  0  0  0  0  0
    3.1621   -1.5870    0.7452 H   0  0  0  0  0  0  0  0  0  0  0  0
    1.9832   -2.9133    0.2974 H   0  0  0  0  0  0  0  0  0  0  0  0
    0.6882   -1.3260   -1.0384 H   0  0  0  0  0  0  0  0  0  0  0  0
    2.2299    0.6182   -1.7219 H   0  0  0  0  0  0  0  0  0  0  0  0
    2.7990    0.6775   -0.0284 H   0  0  0  0  0  0  0  0  0  0  0  0
   -0.1834    2.2676    0.9584 H   0  0  0  0  0  0  0  0  0  0  0  0
    1.3631    1.5797    1.5606 H   0  0  0  0  0  0  0  0  0  0  0  0
   -1.0275    0.0107    0.7222 H   0  0  0  0  0  0  0  0  0  0  0  0
  1  2  1  0
  1  4  1  0
  1  5  1  0
  1  6  1  0
  2  3  2  3
  3  7  1  0
  8  9  2  3
  8 14  1  0
  8 15  1  0
  9 10  1  0
  9 16  1  0
 10 11  1  0
 10 17  1  0
 10 18  1  0
 11 12  1  0
 12 13  1  0
 12 19  1  0
 12 20  1  0
 13 21  1  0
M  RAD  1   2   2
M  END
>  <reaction>  (14) 
rmg_rxn_16646

>  <mol_properties>  (14) 
{"1": {"label": "*1", "atom_type": "Cd"}, "2": {"label": "*0", "atom_type": "N3d"}, "11": {"label": "*4", "atom_type": "Cs"}, "12": {"label": "*3", "atom_type": "O2s"}, "20": {"label": "*2", "atom_type": "H0"}}

>  <type>  (14) 
unop_10

>  <geom_source>  (14) 
Heuristics

$$$$

     RDKit          3D

 21 19  0  0  0  0  0  0  0  0999 V2000
   -0.4209    3.0938    0.1403 C   0  0  0  0  0  0  0  0  0  0  0  0
    0.2577    2.2547    1.1711 C   0  0  0  0  0  3  0  0  0  0  0  0
    0.5299    2.7007    2.3215 N   0  0  0  0  0  0  0  0  0  0  0  0
   -0.6229    4.0881    0.5345 H   0  0  0  0  0  0  0  0  0  0  0  0
    0.2047    3.1744   -0.7523 H   0  0  0  0  0  0  0  0  0  0  0  0
   -1.3588    2.6258   -0.1695 H   0  0  0  0  0  0  0  0  0  0  0  0
    0.9901    1.9918    2.8888 H   0  0  0  0  0  0  0  0  0  0  0  0
   -0.7139   -3.0028   -2.0406 C   0  0  0  0  0  0  0  0  0  0  0  0
   -0.7139   -3.0028   -0.7183 C   0  0  0  0  0  0  0  0  0  0  0  0
   -0.7139   -1.7823    0.1543 C   0  0  0  0  0  0  0  0  0  0  0  0
   -0.5880   -0.5707   -0.5580 O   0  0  0  0  0  0  0  0  0  0  0  0
    0.7327   -0.1973   -0.8201 C   0  0  0  0  0  0  0  0  0  0  0  0
    1.4092    0.2430    0.3213 O   0  0  0  0  0  0  0  0  0  0  0  0
   -0.7142   -2.0765   -2.6022 H   0  0  0  0  0  0  0  0  0  0  0  0
   -0.7210   -3.9283   -2.6013 H   0  0  0  0  0  0  0  0  0  0  0  0
   -0.7234   -3.9451   -0.1769 H   0  0  0  0  0  0  0  0  0  0  0  0
    0.0773   -1.8632    0.9088 H   0  0  0  0  0  0  0  0  0  0  0  0
   -1.6611   -1.7279    0.6981 H   0  0  0  0  0  0  0  0  0  0  0  0
    0.6647    0.5877   -1.5783 H   0  0  0  0  0  0  0  0  0  0  0  0
    1.3177   -1.0381   -1.2030 H   0  0  0  0  0  0  0  0  0  0  0  0
    0.8720    1.1815    0.7177 H   0  0  0  0  0  0  0  0  0  0  0  0
  1  2  1  0
  1  4  1  0
  1  5  1  0
  1  6  1  0
  2  3  2  3
  3  7  1  0
  8  9  2  3
  8 14  1  0
  8 15  1  0
  9 10  1  0
  9 16  1  0
 10 11  1  0
 10 17  1  0
 10 18  1  0
 11 12  1  0
 12 13  1  0
 12 19  1  0
 12 20  1  0
 13 21  1  0
M  RAD  1   2   2
M  END
>  <reaction>  (15) 
rmg_rxn_16646

>  <mol_properties>  (15) 
{"1": {"label": "*1", "atom_type": "Cd"}, "2": {"label": "*0", "atom_type": "N3d"}, "11": {"label": "*4", "atom_type": "Cs"}, "12": {"label": "*3", "atom_type": "O2s"}, "20": {"label": "*2", "atom_type": "H0"}}

>  <type>  (15) 
unop_11

>  <geom_source>  (15) 
Heuristics

$$$$

     RDKit          3D

 21 19  0  0  0  0  0  0  0  0999 V2000
   -1.1391    2.1408    1.4555 C   0  0  0  0  0  0  0  0  0  0  0  0
    0.2906    2.3293    1.0717 C   0  0  0  0  0  3  0  0  0  0  0  0
    1.0356    3.1629    1.6603 N   0  0  0  0  0  0  0  0  0  0  0  0
   -1.4017    2.8058    2.2763 H   0  0  0  0  0  0  0  0  0  0  0  0
   -1.7892    2.3415    0.6000 H   0  0  0  0  0  0  0  0  0  0  0  0
   -1.3164    1.1043    1.7537 H   0  0  0  0  0  0  0  0  0  0  0  0
    1.9745    3.1552    1.2673 H   0  0  0  0  0  0  0  0  0  0  0  0
   -0.6810   -2.9282   -2.1400 C   0  0  0  0  0  0  0  0  0  0  0  0
   -0.6810   -2.9282   -0.8177 C   0  0  0  0  0  0  0  0  0  0  0  0
   -0.6810   -1.7077    0.0549 C   0  0  0  0  0  0  0  0  0  0  0  0
   -0.5550   -0.4962   -0.6574 O   0  0  0  0  0  0  0  0  0  0  0  0
    0.7657   -0.1227   -0.9196 C   0  0  0  0  0  0  0  0  0  0  0  0
    1.4421    0.3175    0.2219 O   0  0  0  0  0  0  0  0  0  0  0  0
   -0.6812   -2.0020   -2.7016 H   0  0  0  0  0  0  0  0  0  0  0  0
   -0.6880   -3.8537   -2.7007 H   0  0  0  0  0  0  0  0  0  0  0  0
   -0.6904   -3.8706   -0.2764 H   0  0  0  0  0  0  0  0  0  0  0  0
    0.1102   -1.7887    0.8094 H   0  0  0  0  0  0  0  0  0  0  0  0
   -1.6281   -1.6534    0.5987 H   0  0  0  0  0  0  0  0  0  0  0  0
    0.6977    0.6623   -1.6777 H   0  0  0  0  0  0  0  0  0  0  0  0
    1.3507   -0.9635   -1.3024 H   0  0  0  0  0  0  0  0  0  0  0  0
    0.9050    1.2560    0.6183 H   0  0  0  0  0  0  0  0  0  0  0  0
  1  2  1  0
  1  4  1  0
  1  5  1  0
  1  6  1  0
  2  3  2  3
  3  7  1  0
  8  9  2  3
  8 14  1  0
  8 15  1  0
  9 10  1  0
  9 16  1  0
 10 11  1  0
 10 17  1  0
 10 18  1  0
 11 12  1  0
 12 13  1  0
 12 19  1  0
 12 20  1  0
 13 21  1  0
M  RAD  1   2   2
M  END
>  <reaction>  (16) 
rmg_rxn_16646

>  <mol_properties>  (16) 
{"1": {"label": "*1", "atom_type": "Cd"}, "2": {"label": "*0", "atom_type": "N3d"}, "11": {"label": "*4", "atom_type": "Cs"}, "12": {"label": "*3", "atom_type": "O2s"}, "20": {"label": "*2", "atom_type": "H0"}}

>  <type>  (16) 
unop_12

>  <geom_source>  (16) 
Heuristics

$$$$

     RDKit          3D

 21 19  0  0  0  0  0  0  0  0999 V2000
    1.1137    3.2954    1.7745 C   0  0  0  0  0  0  0  0  0  0  0  0
    0.2484    2.3075    1.0658 C   0  0  0  0  0  3  0  0  0  0  0  0
   -0.9647    2.1387    1.3763 N   0  0  0  0  0  0  0  0  0  0  0  0
    0.5474    3.8060    2.5514 H   0  0  0  0  0  0  0  0  0  0  0  0
    1.9746    2.7912    2.2210 H   0  0  0  0  0  0  0  0  0  0  0  0
    1.5067    4.0293    1.0662 H   0  0  0  0  0  0  0  0  0  0  0  0
   -1.3967    1.4281    0.7894 H   0  0  0  0  0  0  0  0  0  0  0  0
   -0.7232   -2.9501   -2.1459 C   0  0  0  0  0  0  0  0  0  0  0  0
   -0.7232   -2.9501   -0.8236 C   0  0  0  0  0  0  0  0  0  0  0  0
   -0.7232   -1.7295    0.0490 C   0  0  0  0  0  0  0  0  0  0  0  0
   -0.5973   -0.5180   -0.6633 O   0  0  0  0  0  0  0  0  0  0  0  0
    0.7234   -0.1446   -0.9254 C   0  0  0  0  0  0  0  0  0  0  0  0
    1.3998    0.2957    0.2160 O   0  0  0  0  0  0  0  0  0  0  0  0
   -0.7235   -2.0238   -2.7075 H   0  0  0  0  0  0  0  0  0  0  0  0
   -0.7303   -3.8756   -2.7066 H   0  0  0  0  0  0  0  0  0  0  0  0
   -0.7327   -3.8924   -0.2822 H   0  0  0  0  0  0  0  0  0  0  0  0
    0.0680   -1.8105    0.8036 H   0  0  0  0  0  0  0  0  0  0  0  0
   -1.6704   -1.6752    0.5929 H   0  0  0  0  0  0  0  0  0  0  0  0
    0.6554    0.6405   -1.6836 H   0  0  0  0  0  0  0  0  0  0  0  0
    1.3084   -0.9853   -1.3083 H   0  0  0  0  0  0  0  0  0  0  0  0
    0.8627    1.2342    0.6125 H   0  0  0  0  0  0  0  0  0  0  0  0
  1  2  1  0
  1  4  1  0
  1  5  1  0
  1  6  1  0
  2  3  2  3
  3  7  1  0
  8  9  2  3
  8 14  1  0
  8 15  1  0
  9 10  1  0
  9 16  1  0
 10 11  1  0
 10 17  1  0
 10 18  1  0
 11 12  1  0
 12 13  1  0
 12 19  1  0
 12 20  1  0
 13 21  1  0
M  RAD  1   2   2
M  END
>  <reaction>  (17) 
rmg_rxn_16646

>  <mol_properties>  (17) 
{"1": {"label": "*1", "atom_type": "Cd"}, "2": {"label": "*0", "atom_type": "N3d"}, "11": {"label": "*4", "atom_type": "Cs"}, "12": {"label": "*3", "atom_type": "O2s"}, "20": {"label": "*2", "atom_type": "H0"}}

>  <type>  (17) 
unop_13

>  <geom_source>  (17) 
Heuristics

$$$$

     RDKit          3D

 21 19  0  0  0  0  0  0  0  0999 V2000
   -0.8888    2.7208    0.3741 C   0  0  0  0  0  0  0  0  0  0  0  0
    0.3036    2.2809    1.1562 C   0  0  0  0  0  3  0  0  0  0  0  0
    0.6933    2.9018    2.1853 N   0  0  0  0  0  0  0  0  0  0  0  0
   -1.3281    3.6105    0.8218 H   0  0  0  0  0  0  0  0  0  0  0  0
   -0.6044    2.9340   -0.6596 H   0  0  0  0  0  0  0  0  0  0  0  0
   -1.6341    1.9220    0.3410 H   0  0  0  0  0  0  0  0  0  0  0  0
    1.5178    2.4610    2.5878 H   0  0  0  0  0  0  0  0  0  0  0  0
   -0.6680   -2.9766   -2.0555 C   0  0  0  0  0  0  0  0  0  0  0  0
   -0.6680   -2.9766   -0.7332 C   0  0  0  0  0  0  0  0  0  0  0  0
   -0.6680   -1.7561    0.1394 C   0  0  0  0  0  0  0  0  0  0  0  0
   -0.5420   -0.5446   -0.5729 O   0  0  0  0  0  0  0  0  0  0  0  0
    0.7787   -0.1711   -0.8350 C   0  0  0  0  0  0  0  0  0  0  0  0
    1.4551    0.2692    0.3064 O   0  0  0  0  0  0  0  0  0  0  0  0
   -0.6682   -2.0503   -2.6171 H   0  0  0  0  0  0  0  0  0  0  0  0
   -0.6750   -3.9021   -2.6162 H   0  0  0  0  0  0  0  0  0  0  0  0
   -0.6774   -3.9189   -0.1919 H   0  0  0  0  0  0  0  0  0  0  0  0
    0.1232   -1.8371    0.8939 H   0  0  0  0  0  0  0  0  0  0  0  0
   -1.6151   -1.7017    0.6832 H   0  0  0  0  0  0  0  0  0  0  0  0
    0.7107    0.6139   -1.5932 H   0  0  0  0  0  0  0  0  0  0  0  0
    1.3637   -1.0119   -1.2179 H   0  0  0  0  0  0  0  0  0  0  0  0
    0.9180    1.2076    0.7028 H   0  0  0  0  0  0  0  0  0  0  0  0
  1  2  1  0
  1  4  1  0
  1  5  1  0
  1  6  1  0
  2  3  2  3
  3  7  1  0
  8  9  2  3
  8 14  1  0
  8 15  1  0
  9 10  1  0
  9 16  1  0
 10 11  1  0
 10 17  1  0
 10 18  1  0
 11 12  1  0
 12 13  1  0
 12 19  1  0
 12 20  1  0
 13 21  1  0
M  RAD  1   2   2
M  END
>  <reaction>  (18) 
rmg_rxn_16646

>  <mol_properties>  (18) 
{"1": {"label": "*1", "atom_type": "Cd"}, "2": {"label": "*0", "atom_type": "N3d"}, "11": {"label": "*4", "atom_type": "Cs"}, "12": {"label": "*3", "atom_type": "O2s"}, "20": {"label": "*2", "atom_type": "H0"}}

>  <type>  (18) 
unop_14

>  <geom_source>  (18) 
Heuristics

$$$$

     RDKit          3D

 21 19  0  0  0  0  0  0  0  0999 V2000
    0.7584    0.4975   -0.0089 O   0  0  0  0  0  0  0  0  0  0  0  0
   -0.3337   -1.2980   -0.9008 O   0  0  0  0  0  1  0  0  0  0  0  0
   -2.4087   -1.0196    1.3061 N   0  0  0  0  0  0  0  0  0  0  0  0
    1.8099    0.9170    0.8404 C   0  0  0  0  0  0  0  0  0  0  0  0
   -3.7288   -0.4406   -0.6418 C   0  0  0  0  0  0  0  0  0  0  0  0
    0.6296   -0.9078    0.0278 C   0  0  0  0  0  0  0  0  0  0  0  0
    3.1274    0.8805    0.1165 C   0  0  0  0  0  0  0  0  0  0  0  0
   -2.5067   -0.9887    0.0261 C   0  0  0  0  0  0  0  0  0  0  0  0
    3.3454    1.6225   -0.9724 C   0  0  0  0  0  0  0  0  0  0  0  0
    1.8730    0.3190    1.7796 H   0  0  0  0  0  0  0  0  0  0  0  0
    1.6090    1.9638    1.1526 H   0  0  0  0  0  0  0  0  0  0  0  0
   -3.8704    0.6225   -0.3547 H   0  0  0  0  0  0  0  0  0  0  0  0
   -3.6119   -0.5054   -1.7434 H   0  0  0  0  0  0  0  0  0  0  0  0
   -4.6202   -1.0281   -0.3371 H   0  0  0  0  0  0  0  0  0  0  0  0
    0.2975   -1.2425    1.0353 H   0  0  0  0  0  0  0  0  0  0  0  0
    1.5886   -1.4080   -0.2348 H   0  0  0  0  0  0  0  0  0  0  0  0
    3.9211    0.2428    0.4939 H   0  0  0  0  0  0  0  0  0  0  0  0
   -1.5918   -1.4115   -0.6533 H   0  0  0  0  0  0  0  0  0  0  0  0
    2.5713    2.2730   -1.3685 H   0  0  0  0  0  0  0  0  0  0  0  0
    4.3065    1.5810   -1.4744 H   0  0  0  0  0  0  0  0  0  0  0  0
   -3.1658   -0.6692    1.9118 H   0  0  0  0  0  0  0  0  0  0  0  0
  1  4  1  0
  1  6  1  0
  2  6  1  0
  3  8  2  3
  3 21  1  0
  4  7  1  0
  4 10  1  0
  4 11  1  0
  5  8  1  0
  5 12  1  0
  5 13  1  0
  5 14  1  0
  6 15  1  0
  6 16  1  0
  7  9  2  3
  7 17  1  0
  8 18  1  0
  9 19  1  0
  9 20  1  0
M  RAD  1   2   2
M  END
>  <reaction>  (19) 
rmg_rxn_16646

>  <mol_properties>  (19) 
{"1": {"label": "*1", "atom_type": "Cd"}, "2": {"label": "*0", "atom_type": "N3d"}, "11": {"label": "*4", "atom_type": "Cs"}, "12": {"label": "*3", "atom_type": "O2s"}, "20": {"label": "*2", "atom_type": "H0"}}

>  <type>  (19) 
unop_15

>  <geom_source>  (19) 
AutoTST

$$$$

     RDKit          3D

 21 19  0  0  0  0  0  0  0  0999 V2000
   -1.1504    2.3767    0.8492 C   0  0  0  0  0  0  0  0  0  0  0  0
    0.3169    2.3129    1.1136 C   0  0  0  0  0  3  0  0  0  0  0  0
    0.8690    3.0340    1.9920 N   0  0  0  0  0  0  0  0  0  0  0  0
   -1.6220    3.1061    1.5054 H   0  0  0  0  0  0  0  0  0  0  0  0
   -1.3346    2.6496   -0.1931 H   0  0  0  0  0  0  0  0  0  0  0  0
   -1.6053    1.3954    1.0066 H   0  0  0  0  0  0  0  0  0  0  0  0
    1.8706    2.8572    2.0332 H   0  0  0  0  0  0  0  0  0  0  0  0
   -0.6547   -2.9446   -2.0982 C   0  0  0  0  0  0  0  0  0  0  0  0
   -0.6547   -2.9446   -0.7758 C   0  0  0  0  0  0  0  0  0  0  0  0
   -0.6547   -1.7240    0.0968 C   0  0  0  0  0  0  0  0  0  0  0  0
   -0.5287   -0.5125   -0.6156 O   0  0  0  0  0  0  0  0  0  0  0  0
    0.7919   -0.1391   -0.8777 C   0  0  0  0  0  0  0  0  0  0  0  0
    1.4684    0.3012    0.2638 O   0  0  0  0  0  0  0  0  0  0  0  0
   -0.6550   -2.0183   -2.6598 H   0  0  0  0  0  0  0  0  0  0  0  0
   -0.6617   -3.8701   -2.6589 H   0  0  0  0  0  0  0  0  0  0  0  0
   -0.6642   -3.8869   -0.2345 H   0  0  0  0  0  0  0  0  0  0  0  0
    0.1365   -1.8050    0.8513 H   0  0  0  0  0  0  0  0  0  0  0  0
   -1.6018   -1.6697    0.6406 H   0  0  0  0  0  0  0  0  0  0  0  0
    0.7239    0.6460   -1.6359 H   0  0  0  0  0  0  0  0  0  0  0  0
    1.3770   -0.9798   -1.2605 H   0  0  0  0  0  0  0  0  0  0  0  0
    0.9312    1.2397    0.6602 H   0  0  0  0  0  0  0  0  0  0  0  0
  1  2  1  0
  1  4  1  0
  1  5  1  0
  1  6  1  0
  2  3  2  3
  3  7  1  0
  8  9  2  3
  8 14  1  0
  8 15  1  0
  9 10  1  0
  9 16  1  0
 10 11  1  0
 10 17  1  0
 10 18  1  0
 11 12  1  0
 12 13  1  0
 12 19  1  0
 12 20  1  0
 13 21  1  0
M  RAD  1   2   2
M  END
>  <reaction>  (20) 
rmg_rxn_16646

>  <mol_properties>  (20) 
{"1": {"label": "*1", "atom_type": "Cd"}, "2": {"label": "*0", "atom_type": "N3d"}, "11": {"label": "*4", "atom_type": "Cs"}, "12": {"label": "*3", "atom_type": "O2s"}, "20": {"label": "*2", "atom_type": "H0"}}

>  <type>  (20) 
unop_16

>  <geom_source>  (20) 
gaussian_log

$$$$
