
     RDKit          3D

  8  7  0  0  0  0  0  0  0  0999 V2000
    0.9548    0.1194   -0.0790 C   0  0  0  0  0  0  0  0  0  0  0  0
   -0.4838   -0.2649    0.0193 C   0  0  0  0  0  0  0  0  0  0  0  0
   -0.8933   -1.1081    0.8664 N   0  0  0  0  0  0  0  0  0  0  0  0
    1.3360   -0.0983   -1.0800 H   0  0  0  0  0  0  0  0  0  0  0  0
    1.0698    1.1948    0.0786 H   0  0  0  0  0  0  0  0  0  0  0  0
    1.5426   -0.4219    0.6602 H   0  0  0  0  0  0  0  0  0  0  0  0
   -1.1575    0.2324   -0.6905 H   0  0  0  0  0  0  0  0  0  0  0  0
   -1.8989   -1.2455    0.7886 H   0  0  0  0  0  0  0  0  0  0  0  0
  1  2  1  0
  1  4  1  0
  1  5  1  0
  1  6  1  0
  2  3  2  3
  2  7  1  0
  3  8  1  0
M  END
>  <reaction>  (1) 
rmg_rxn_16513

>  <mol_properties>  (1) 
{"2": {"label": "donator", "atom_type": "N3d"}, "7": {"label": "d_hydrogen", "atom_type": "H0"}}

>  <type>  (1) 
r1h

$$$$

     RDKit          3D

  8  7  0  0  0  0  0  0  0  0999 V2000
   -0.7743    0.1523   -0.1359 C   0  0  0  0  0  0  0  0  0  0  0  0
    0.7184   -0.1277   -0.1761 C   0  0  0  0  0  0  0  0  0  0  0  0
    1.1848   -0.6820   -1.3242 O   0  0  0  0  0  1  0  0  0  0  0  0
   -1.3380   -0.7717   -0.2694 H   0  0  0  0  0  0  0  0  0  0  0  0
   -1.0579    0.5956    0.8207 H   0  0  0  0  0  0  0  0  0  0  0  0
   -1.0531    0.8424   -0.9329 H   0  0  0  0  0  0  0  0  0  0  0  0
    1.3095    0.7895    0.0049 H   0  0  0  0  0  0  0  0  0  0  0  0
    1.0309   -0.7888    0.6537 H   0  0  0  0  0  0  0  0  0  0  0  0
  1  2  1  0
  1  4  1  0
  1  5  1  0
  1  6  1  0
  2  3  1  0
  2  7  1  0
  2  8  1  0
M  RAD  1   3   2
M  END
>  <reaction>  (2) 
rmg_rxn_16513

>  <mol_properties>  (2) 
{"2": {"label": "acceptor", "atom_type": "O2s"}}

>  <type>  (2) 
r2

$$$$

     RDKit          3D

  9  8  0  0  0  0  0  0  0  0999 V2000
   -0.9895    0.3048    0.1041 C   0  0  0  0  0  0  0  0  0  0  0  0
    0.3761   -0.3562    0.0721 C   0  0  0  0  0  0  0  0  0  0  0  0
    0.3441   -1.6564   -0.4834 O   0  0  0  0  0  0  0  0  0  0  0  0
   -1.6997   -0.3114    0.6572 H   0  0  0  0  0  0  0  0  0  0  0  0
   -0.9320    1.2848    0.5822 H   0  0  0  0  0  0  0  0  0  0  0  0
   -1.3774    0.4507   -0.9077 H   0  0  0  0  0  0  0  0  0  0  0  0
    0.7581   -0.4813    1.0862 H   0  0  0  0  0  0  0  0  0  0  0  0
    1.0900    0.2787   -0.4681 H   0  0  0  0  0  0  0  0  0  0  0  0
    0.0089   -1.5959   -1.3792 H   0  0  0  0  0  0  0  0  0  0  0  0
  1  2  1  0
  1  4  1  0
  1  5  1  0
  1  6  1  0
  2  3  1  0
  2  7  1  0
  2  8  1  0
  3  9  1  0
M  END
>  <reaction>  (3) 
rmg_rxn_16513

>  <mol_properties>  (3) 
{"2": {"label": "acceptor", "atom_type": "O2s"}, "8": {"label": "a_hydrogen", "atom_type": "H0"}}

>  <type>  (3) 
r2h

$$$$

     RDKit          3D

 16 14  0  0  0  0  0  0  0  0999 V2000
    1.9393   -0.6334    1.4784 C   0  0  0  0  0  0  0  0  0  0  0  0
    0.4381   -0.8110    1.6301 C   0  0  0  0  0  0  0  0  0  0  0  0
   -0.2908    0.3546    1.5056 O   0  0  0  0  0  1  0  0  0  0  0  0
    2.3095    0.0948    2.2008 H   0  0  0  0  0  0  0  0  0  0  0  0
    2.4586   -1.5807    1.6378 H   0  0  0  0  0  0  0  0  0  0  0  0
    2.1803   -0.2734    0.4767 H   0  0  0  0  0  0  0  0  0  0  0  0
    0.0653   -1.5831    0.9340 H   0  0  0  0  0  0  0  0  0  0  0  0
    0.1960   -1.1971    2.6323 H   0  0  0  0  0  0  0  0  0  0  0  0
   -0.9276   -0.0736   -2.9000 C   0  0  0  0  0  0  0  0  0  0  0  0
   -0.7659   -0.0024   -1.4144 C   0  0  0  0  0  0  0  0  0  0  0  0
   -0.1870    0.9508   -0.8440 N   0  0  0  0  0  0  0  0  0  0  0  0
   -0.4598   -0.9849   -3.2791 H   0  0  0  0  0  0  0  0  0  0  0  0
   -1.9890   -0.1241   -3.1524 H   0  0  0  0  0  0  0  0  0  0  0  0
   -0.4794    0.7942   -3.3794 H   0  0  0  0  0  0  0  0  0  0  0  0
   -1.1849   -0.8371   -0.8365 H   0  0  0  0  0  0  0  0  0  0  0  0
   -0.1595    0.8575    0.2732 H   0  0  0  0  0  0  0  0  0  0  0  0
  1  2  1  0
  1  4  1  0
  1  5  1  0
  1  6  1  0
  2  3  1  0
  2  7  1  0
  2  8  1  0
  9 10  1  0
  9 12  1  0
  9 13  1  0
  9 14  1  0
 10 11  2  3
 10 15  1  0
 11 16  1  0
M  RAD  1   3   2
M  END
>  <reaction>  (4) 
rmg_rxn_16513

>  <mol_properties>  (4) 
{"1": {"label": "*4", "atom_type": "Cs"}, "2": {"label": "*3", "atom_type": "O2s"}, "9": {"label": "*0", "atom_type": "Cd"}, "10": {"label": "*1", "atom_type": "N3d"}, "15": {"label": "*2", "atom_type": "H0"}}

>  <type>  (4) 
ts

$$$$

     RDKit          3D

 16 14  0  0  0  0  0  0  0  0999 V2000
    2.5252   -0.6307   -0.4710 C   0  0  0  0  0  0  0  0  0  0  0  0
    1.9479    0.4894    0.3934 C   0  0  0  0  0  0  0  0  0  0  0  0
    0.6744    0.8663    0.0357 O   0  0  0  0  0  0  0  0  0  0  0  0
    3.5486   -0.8446   -0.1749 H   0  0  0  0  0  0  0  0  0  0  0  0
    1.9226   -1.5280   -0.3490 H   0  0  0  0  0  0  0  0  0  0  0  0
    2.5096   -0.3421   -1.5193 H   0  0  0  0  0  0  0  0  0  0  0  0
    1.9928    0.2022    1.4583 H   0  0  0  0  0  0  0  0  0  0  0  0
    2.5620    1.3960    0.2767 H   0  0  0  0  0  0  0  0  0  0  0  0
   -2.5418    0.7048   -0.2999 C   0  0  0  0  0  0  0  0  0  0  0  0
   -2.0037   -0.6373    0.0862 C   0  0  0  0  0  0  0  0  0  0  0  0
   -0.8306   -0.9630    0.2914 N   0  0  0  0  0  2  0  0  0  0  0  0
   -3.0620    0.6239   -1.2528 H   0  0  0  0  0  0  0  0  0  0  0  0
   -3.2572    1.0368    0.4505 H   0  0  0  0  0  0  0  0  0  0  0  0
   -1.7277    1.4201   -0.3804 H   0  0  0  0  0  0  0  0  0  0  0  0
   -2.7698   -1.4136    0.1937 H   0  0  0  0  0  0  0  0  0  0  0  0
   -0.0197   -0.0385    0.1514 H   0  0  0  0  0  0  0  0  0  0  0  0
  1  2  1  0
  1  4  1  0
  1  5  1  0
  1  6  1  0
  2  3  1  0
  2  7  1  0
  2  8  1  0
  3 16  1  0
  9 10  1  0
  9 12  1  0
  9 13  1  0
  9 14  1  0
 10 11  2  0
 10 15  1  0
M  RAD  1  11   2
M  END
>  <reaction>  (5) 
rmg_rxn_16513

>  <mol_properties>  (5) 
{"1": {"label": "*4", "atom_type": "Cs"}, "2": {"label": "*3", "atom_type": "O2s"}, "9": {"label": "*0", "atom_type": "Cd"}, "10": {"label": "*1", "atom_type": "N3d"}, "15": {"label": "*2", "atom_type": "H0"}}

>  <type>  (5) 
unop_1

>  <geom_source>  (5) 
crest_best.xyz

$$$$

     RDKit          3D

 16 14  0  0  0  0  0  0  0  0999 V2000
    1.3110    1.3667    1.2198 C   0  0  0  0  0  0  0  0  0  0  0  0
    0.6567    0.3421    2.1281 C   0  0  0  0  0  0  0  0  0  0  0  0
   -0.5049   -0.2321    1.5614 O   0  0  0  0  0  0  0  0  0  0  0  0
    0.6031    2.1550    0.9604 H   0  0  0  0  0  0  0  0  0  0  0  0
    2.1743    1.8209    1.7104 H   0  0  0  0  0  0  0  0  0  0  0  0
    1.6611    0.9019    0.2941 H   0  0  0  0  0  0  0  0  0  0  0  0
    1.3803   -0.4366    2.4012 H   0  0  0  0  0  0  0  0  0  0  0  0
    0.3266    0.8154    3.0538 H   0  0  0  0  0  0  0  0  0  0  0  0
   -0.5049   -0.8578   -2.9277 C   0  0  0  0  0  0  0  0  0  0  0  0
   -0.5049   -0.8578   -1.4354 C   0  0  0  0  0  0  0  0  0  0  0  0
   -0.5049    0.2148   -0.7677 N   0  0  0  0  0  2  0  0  0  0  0  0
    0.3734   -1.3878   -3.3051 H   0  0  0  0  0  0  0  0  0  0  0  0
   -1.3831   -1.3878   -3.3051 H   0  0  0  0  0  0  0  0  0  0  0  0
   -0.5049    0.1628   -3.3063 H   0  0  0  0  0  0  0  0  0  0  0  0
   -0.5049   -1.8475   -0.9607 H   0  0  0  0  0  0  0  0  0  0  0  0
   -0.5049   -0.0154    0.4319 H   0  0  0  0  0  0  0  0  0  0  0  0
  1  2  1  0
  1  4  1  0
  1  5  1  0
  1  6  1  0
  2  3  1  0
  2  7  1  0
  2  8  1  0
  3 16  1  0
  9 10  1  0
  9 12  1  0
  9 13  1  0
  9 14  1  0
 10 11  2  0
 10 15  1  0
M  RAD  1  11   2
M  END
>  <reaction>  (6) 
rmg_rxn_16513

>  <mol_properties>  (6) 
{"1": {"label": "*4", "atom_type": "Cs"}, "2": {"label": "*3", "atom_type": "O2s"}, "9": {"label": "*0", "atom_type": "Cd"}, "10": {"label": "*1", "atom_type": "N3d"}, "15": {"label": "*2", "atom_type": "H0"}}

>  <type>  (6) 
unop_2

>  <geom_source>  (6) 
Heuristics

$$$$

     RDKit          3D

 16 14  0  0  0  0  0  0  0  0999 V2000
    1.4529   -0.8178    1.0071 C   0  0  0  0  0  0  0  0  0  0  0  0
    0.2358   -0.6430    1.8965 C   0  0  0  0  0  0  0  0  0  0  0  0
   -0.4349    0.5823    1.6751 O   0  0  0  0  0  0  0  0  0  0  0  0
    2.1495    0.0101    1.1453 H   0  0  0  0  0  0  0  0  0  0  0  0
    1.9697   -1.7510    1.2405 H   0  0  0  0  0  0  0  0  0  0  0  0
    1.1653   -0.8517   -0.0472 H   0  0  0  0  0  0  0  0  0  0  0  0
   -0.4507   -1.4895    1.7672 H   0  0  0  0  0  0  0  0  0  0  0  0
    0.5347   -0.6268    2.9455 H   0  0  0  0  0  0  0  0  0  0  0  0
   -0.4349   -0.0434   -2.8140 C   0  0  0  0  0  0  0  0  0  0  0  0
   -0.4349   -0.0434   -1.3217 C   0  0  0  0  0  0  0  0  0  0  0  0
   -0.4349    1.0292   -0.6540 N   0  0  0  0  0  2  0  0  0  0  0  0
    0.4434   -0.5734   -3.1915 H   0  0  0  0  0  0  0  0  0  0  0  0
   -1.3131   -0.5734   -3.1915 H   0  0  0  0  0  0  0  0  0  0  0  0
   -0.4349    0.9772   -3.1926 H   0  0  0  0  0  0  0  0  0  0  0  0
   -0.4349   -1.0331   -0.8471 H   0  0  0  0  0  0  0  0  0  0  0  0
   -0.4349    0.7990    0.5456 H   0  0  0  0  0  0  0  0  0  0  0  0
  1  2  1  0
  1  4  1  0
  1  5  1  0
  1  6  1  0
  2  3  1  0
  2  7  1  0
  2  8  1  0
  3 16  1  0
  9 10  1  0
  9 12  1  0
  9 13  1  0
  9 14  1  0
 10 11  2  0
 10 15  1  0
M  RAD  1  11   2
M  END
>  <reaction>  (7) 
rmg_rxn_16513

>  <mol_properties>  (7) 
{"1": {"label": "*4", "atom_type": "Cs"}, "2": {"label": "*3", "atom_type": "O2s"}, "9": {"label": "*0", "atom_type": "Cd"}, "10": {"label": "*1", "atom_type": "N3d"}, "15": {"label": "*2", "atom_type": "H0"}}

>  <type>  (7) 
unop_3

>  <geom_source>  (7) 
Heuristics

$$$$

     RDKit          3D

 16 14  0  0  0  0  0  0  0  0999 V2000
    0.3688    1.9269    1.4111 C   0  0  0  0  0  0  0  0  0  0  0  0
    0.4591    0.6115    2.1624 C   0  0  0  0  0  0  0  0  0  0  0  0
   -0.2115   -0.4448    1.5033 O   0  0  0  0  0  0  0  0  0  0  0  0
   -0.6737    2.2024    1.2466 H   0  0  0  0  0  0  0  0  0  0  0  0
    0.8560    2.7261    1.9735 H   0  0  0  0  0  0  0  0  0  0  0  0
    0.8625    1.8563    0.4381 H   0  0  0  0  0  0  0  0  0  0  0  0
    1.5101    0.3511    2.3422 H   0  0  0  0  0  0  0  0  0  0  0  0
   -0.0229    0.7003    3.1370 H   0  0  0  0  0  0  0  0  0  0  0  0
   -0.2115   -1.0705   -2.9858 C   0  0  0  0  0  0  0  0  0  0  0  0
   -0.2115   -1.0705   -1.4935 C   0  0  0  0  0  0  0  0  0  0  0  0
   -0.2115    0.0021   -0.8258 N   0  0  0  0  0  2  0  0  0  0  0  0
    0.6667   -1.6005   -3.3632 H   0  0  0  0  0  0  0  0  0  0  0  0
   -1.0898   -1.6005   -3.3632 H   0  0  0  0  0  0  0  0  0  0  0  0
   -0.2115   -0.0499   -3.3644 H   0  0  0  0  0  0  0  0  0  0  0  0
   -0.2115   -2.0602   -1.0189 H   0  0  0  0  0  0  0  0  0  0  0  0
   -0.2115   -0.2280    0.3738 H   0  0  0  0  0  0  0  0  0  0  0  0
  1  2  1  0
  1  4  1  0
  1  5  1  0
  1  6  1  0
  2  3  1  0
  2  7  1  0
  2  8  1  0
  3 16  1  0
  9 10  1  0
  9 12  1  0
  9 13  1  0
  9 14  1  0
 10 11  2  0
 10 15  1  0
M  RAD  1  11   2
M  END
>  <reaction>  (8) 
rmg_rxn_16513

>  <mol_properties>  (8) 
{"1": {"label": "*4", "atom_type": "Cs"}, "2": {"label": "*3", "atom_type": "O2s"}, "9": {"label": "*0", "atom_type": "Cd"}, "10": {"label": "*1", "atom_type": "N3d"}, "15": {"label": "*2", "atom_type": "H0"}}

>  <type>  (8) 
unop_4

>  <geom_source>  (8) 
Heuristics

$$$$

     RDKit          3D

 16 14  0  0  0  0  0  0  0  0999 V2000
   -0.5683   -1.5970    1.8050 C   0  0  0  0  0  0  0  0  0  0  0  0
   -0.8089   -0.0987    1.8063 C   0  0  0  0  0  0  0  0  0  0  0  0
    0.3527    0.6444    1.4923 O   0  0  0  0  0  0  0  0  0  0  0  0
    0.2305   -1.8566    2.5009 H   0  0  0  0  0  0  0  0  0  0  0  0
   -1.4736   -2.1328    2.0979 H   0  0  0  0  0  0  0  0  0  0  0  0
   -0.2826   -1.9465    0.8091 H   0  0  0  0  0  0  0  0  0  0  0  0
   -1.6273    0.1526    1.1194 H   0  0  0  0  0  0  0  0  0  0  0  0
   -1.1084    0.2340    2.8011 H   0  0  0  0  0  0  0  0  0  0  0  0
    0.3527    0.0187   -2.9968 C   0  0  0  0  0  0  0  0  0  0  0  0
    0.3527    0.0187   -1.5044 C   0  0  0  0  0  0  0  0  0  0  0  0
    0.3527    1.0913   -0.8367 N   0  0  0  0  0  2  0  0  0  0  0  0
    1.2309   -0.5113   -3.3742 H   0  0  0  0  0  0  0  0  0  0  0  0
   -0.5256   -0.5113   -3.3742 H   0  0  0  0  0  0  0  0  0  0  0  0
    0.3527    1.0393   -3.3753 H   0  0  0  0  0  0  0  0  0  0  0  0
    0.3527   -0.9710   -1.0298 H   0  0  0  0  0  0  0  0  0  0  0  0
    0.3527    0.8611    0.3629 H   0  0  0  0  0  0  0  0  0  0  0  0
  1  2  1  0
  1  4  1  0
  1  5  1  0
  1  6  1  0
  2  3  1  0
  2  7  1  0
  2  8  1  0
  3 16  1  0
  9 10  1  0
  9 12  1  0
  9 13  1  0
  9 14  1  0
 10 11  2  0
 10 15  1  0
M  RAD  1  11   2
M  END
>  <reaction>  (9) 
rmg_rxn_16513

>  <mol_properties>  (9) 
{"1": {"label": "*4", "atom_type": "Cs"}, "2": {"label": "*3", "atom_type": "O2s"}, "9": {"label": "*0", "atom_type": "Cd"}, "10": {"label": "*1", "atom_type": "N3d"}, "15": {"label": "*2", "atom_type": "H0"}}

>  <type>  (9) 
unop_5

>  <geom_source>  (9) 
Heuristics

$$$$

     RDKit          3D

 16 14  0  0  0  0  0  0  0  0999 V2000
   -0.9978    1.6687    1.7807 C   0  0  0  0  0  0  0  0  0  0  0  0
    0.2051    0.8055    2.1134 C   0  0  0  0  0  0  0  0  0  0  0  0
    0.2051   -0.4273    1.4204 O   0  0  0  0  0  0  0  0  0  0  0  0
   -1.9237    1.1316    1.9908 H   0  0  0  0  0  0  0  0  0  0  0  0
   -0.9869    2.5882    2.3697 H   0  0  0  0  0  0  0  0  0  0  0  0
   -0.9970    1.9505    0.7243 H   0  0  0  0  0  0  0  0  0  0  0  0
    1.1324    1.3596    1.9190 H   0  0  0  0  0  0  0  0  0  0  0  0
    0.2006    0.5450    3.1727 H   0  0  0  0  0  0  0  0  0  0  0  0
    0.2051   -1.0530   -3.0687 C   0  0  0  0  0  0  0  0  0  0  0  0
    0.2051   -1.0530   -1.5764 C   0  0  0  0  0  0  0  0  0  0  0  0
    0.2051    0.0196   -0.9087 N   0  0  0  0  0  2  0  0  0  0  0  0
    1.0833   -1.5830   -3.4461 H   0  0  0  0  0  0  0  0  0  0  0  0
   -0.6732   -1.5830   -3.4461 H   0  0  0  0  0  0  0  0  0  0  0  0
    0.2051   -0.0324   -3.4473 H   0  0  0  0  0  0  0  0  0  0  0  0
    0.2051   -2.0427   -1.1018 H   0  0  0  0  0  0  0  0  0  0  0  0
    0.2051   -0.2105    0.2909 H   0  0  0  0  0  0  0  0  0  0  0  0
  1  2  1  0
  1  4  1  0
  1  5  1  0
  1  6  1  0
  2  3  1  0
  2  7  1  0
  2  8  1  0
  3 16  1  0
  9 10  1  0
  9 12  1  0
  9 13  1  0
  9 14  1  0
 10 11  2  0
 10 15  1  0
M  RAD  1  11   2
M  END
>  <reaction>  (10) 
rmg_rxn_16513

>  <mol_properties>  (10) 
{"1": {"label": "*4", "atom_type": "Cs"}, "2": {"label": "*3", "atom_type": "O2s"}, "9": {"label": "*0", "atom_type": "Cd"}, "10": {"label": "*1", "atom_type": "N3d"}, "15": {"label": "*2", "atom_type": "H0"}}

>  <type>  (10) 
unop_6

>  <geom_source>  (10) 
Heuristics

$$$$

     RDKit          3D

 16 14  0  0  0  0  0  0  0  0999 V2000
   -1.2750   -1.1055    2.0500 C   0  0  0  0  0  0  0  0  0  0  0  0
   -0.8071    0.3251    1.8567 C   0  0  0  0  0  0  0  0  0  0  0  0
    0.5342    0.4096    1.4164 O   0  0  0  0  0  0  0  0  0  0  0  0
   -0.6260   -1.6283    2.7537 H   0  0  0  0  0  0  0  0  0  0  0  0
   -2.2966   -1.1279    2.4351 H   0  0  0  0  0  0  0  0  0  0  0  0
   -1.2646   -1.6518    1.1029 H   0  0  0  0  0  0  0  0  0  0  0  0
   -1.4765    0.8506    1.1636 H   0  0  0  0  0  0  0  0  0  0  0  0
   -0.8374    0.8629    2.8053 H   0  0  0  0  0  0  0  0  0  0  0  0
    0.5342   -0.2162   -3.0727 C   0  0  0  0  0  0  0  0  0  0  0  0
    0.5342   -0.2162   -1.5804 C   0  0  0  0  0  0  0  0  0  0  0  0
    0.5342    0.8565   -0.9127 N   0  0  0  0  0  2  0  0  0  0  0  0
    1.4125   -0.7461   -3.4501 H   0  0  0  0  0  0  0  0  0  0  0  0
   -0.3441   -0.7461   -3.4501 H   0  0  0  0  0  0  0  0  0  0  0  0
    0.5342    0.8045   -3.4513 H   0  0  0  0  0  0  0  0  0  0  0  0
    0.5342   -1.2058   -1.1057 H   0  0  0  0  0  0  0  0  0  0  0  0
    0.5342    0.6263    0.2869 H   0  0  0  0  0  0  0  0  0  0  0  0
  1  2  1  0
  1  4  1  0
  1  5  1  0
  1  6  1  0
  2  3  1  0
  2  7  1  0
  2  8  1  0
  3 16  1  0
  9 10  1  0
  9 12  1  0
  9 13  1  0
  9 14  1  0
 10 11  2  0
 10 15  1  0
M  RAD  1  11   2
M  END
>  <reaction>  (11) 
rmg_rxn_16513

>  <mol_properties>  (11) 
{"1": {"label": "*4", "atom_type": "Cs"}, "2": {"label": "*3", "atom_type": "O2s"}, "9": {"label": "*0", "atom_type": "Cd"}, "10": {"label": "*1", "atom_type": "N3d"}, "15": {"label": "*2", "atom_type": "H0"}}

>  <type>  (11) 
unop_7

>  <geom_source>  (11) 
Heuristics

$$$$

     RDKit          3D

 16 14  0  0  0  0  0  0  0  0999 V2000
   -1.6692   -0.3311    2.2057 C   0  0  0  0  0  0  0  0  0  0  0  0
   -0.5831    0.6910    1.9254 C   0  0  0  0  0  0  0  0  0  0  0  0
    0.5785    0.1169    1.3587 O   0  0  0  0  0  0  0  0  0  0  0  0
   -1.2937   -1.1180    2.8612 H   0  0  0  0  0  0  0  0  0  0  0  0
   -2.5286    0.1417    2.6856 H   0  0  0  0  0  0  0  0  0  0  0  0
   -2.0189   -0.7944    1.2792 H   0  0  0  0  0  0  0  0  0  0  0  0
   -0.9739    1.4900    1.2823 H   0  0  0  0  0  0  0  0  0  0  0  0
   -0.2546    1.1566    2.8557 H   0  0  0  0  0  0  0  0  0  0  0  0
    0.5785   -0.5089   -3.1304 C   0  0  0  0  0  0  0  0  0  0  0  0
    0.5785   -0.5089   -1.6380 C   0  0  0  0  0  0  0  0  0  0  0  0
    0.5785    0.5637   -0.9703 N   0  0  0  0  0  2  0  0  0  0  0  0
    1.4568   -1.0389   -3.5078 H   0  0  0  0  0  0  0  0  0  0  0  0
   -0.2998   -1.0389   -3.5078 H   0  0  0  0  0  0  0  0  0  0  0  0
    0.5785    0.5117   -3.5089 H   0  0  0  0  0  0  0  0  0  0  0  0
    0.5785   -1.4986   -1.1634 H   0  0  0  0  0  0  0  0  0  0  0  0
    0.5785    0.3336    0.2293 H   0  0  0  0  0  0  0  0  0  0  0  0
  1  2  1  0
  1  4  1  0
  1  5  1  0
  1  6  1  0
  2  3  1  0
  2  7  1  0
  2  8  1  0
  3 16  1  0
  9 10  1  0
  9 12  1  0
  9 13  1  0
  9 14  1  0
 10 11  2  0
 10 15  1  0
M  RAD  1  11   2
M  END
>  <reaction>  (12) 
rmg_rxn_16513

>  <mol_properties>  (12) 
{"1": {"label": "*4", "atom_type": "Cs"}, "2": {"label": "*3", "atom_type": "O2s"}, "9": {"label": "*0", "atom_type": "Cd"}, "10": {"label": "*1", "atom_type": "N3d"}, "15": {"label": "*2", "atom_type": "H0"}}

>  <type>  (12) 
unop_8

>  <geom_source>  (12) 
Heuristics

$$$$

     RDKit          3D

 16 14  0  0  0  0  0  0  0  0999 V2000
    1.7026    0.5802    1.0710 C   0  0  0  0  0  0  0  0  0  0  0  0
    0.7192   -0.0214    2.0579 C   0  0  0  0  0  0  0  0  0  0  0  0
   -0.6221    0.0631    1.6176 O   0  0  0  0  0  0  0  0  0  0  0  0
    1.4502    1.6215    0.8664 H   0  0  0  0  0  0  0  0  0  0  0  0
    2.7194    0.5393    1.4668 H   0  0  0  0  0  0  0  0  0  0  0  0
    1.6918    0.0325    0.1248 H   0  0  0  0  0  0  0  0  0  0  0  0
    0.9913   -1.0624    2.2745 H   0  0  0  0  0  0  0  0  0  0  0  0
    0.7515    0.5241    3.0020 H   0  0  0  0  0  0  0  0  0  0  0  0
   -0.6221   -0.5626   -2.8715 C   0  0  0  0  0  0  0  0  0  0  0  0
   -0.6221   -0.5626   -1.3792 C   0  0  0  0  0  0  0  0  0  0  0  0
   -0.6221    0.5100   -0.7115 N   0  0  0  0  0  2  0  0  0  0  0  0
    0.2562   -1.0926   -3.2489 H   0  0  0  0  0  0  0  0  0  0  0  0
   -1.5003   -1.0926   -3.2489 H   0  0  0  0  0  0  0  0  0  0  0  0
   -0.6221    0.4580   -3.2501 H   0  0  0  0  0  0  0  0  0  0  0  0
   -0.6221   -1.5523   -0.9045 H   0  0  0  0  0  0  0  0  0  0  0  0
   -0.6221    0.2798    0.4881 H   0  0  0  0  0  0  0  0  0  0  0  0
  1  2  1  0
  1  4  1  0
  1  5  1  0
  1  6  1  0
  2  3  1  0
  2  7  1  0
  2  8  1  0
  3 16  1  0
  9 10  1  0
  9 12  1  0
  9 13  1  0
  9 14  1  0
 10 11  2  0
 10 15  1  0
M  RAD  1  11   2
M  END
>  <reaction>  (13) 
rmg_rxn_16513

>  <mol_properties>  (13) 
{"1": {"label": "*4", "atom_type": "Cs"}, "2": {"label": "*3", "atom_type": "O2s"}, "9": {"label": "*0", "atom_type": "Cd"}, "10": {"label": "*1", "atom_type": "N3d"}, "15": {"label": "*2", "atom_type": "H0"}}

>  <type>  (13) 
unop_9

>  <geom_source>  (13) 
Heuristics

$$$$

     RDKit          3D

 16 14  0  0  0  0  0  0  0  0999 V2000
    2.5252   -0.6307   -0.4710 C   0  0  0  0  0  0  0  0  0  0  0  0
    1.9479    0.4894    0.3934 C   0  0  0  0  0  0  0  0  0  0  0  0
    0.6744    0.8663    0.0357 O   0  0  0  0  0  0  0  0  0  0  0  0
    3.5486   -0.8446   -0.1749 H   0  0  0  0  0  0  0  0  0  0  0  0
    1.9226   -1.5280   -0.3490 H   0  0  0  0  0  0  0  0  0  0  0  0
    2.5096   -0.3421   -1.5193 H   0  0  0  0  0  0  0  0  0  0  0  0
    1.9928    0.2022    1.4583 H   0  0  0  0  0  0  0  0  0  0  0  0
    2.5620    1.3960    0.2767 H   0  0  0  0  0  0  0  0  0  0  0  0
   -2.5418    0.7048   -0.2999 C   0  0  0  0  0  0  0  0  0  0  0  0
   -2.0037   -0.6373    0.0862 C   0  0  0  0  0  0  0  0  0  0  0  0
   -0.8306   -0.9630    0.2914 N   0  0  0  0  0  2  0  0  0  0  0  0
   -3.0620    0.6239   -1.2528 H   0  0  0  0  0  0  0  0  0  0  0  0
   -3.2572    1.0368    0.4505 H   0  0  0  0  0  0  0  0  0  0  0  0
   -1.7277    1.4201   -0.3804 H   0  0  0  0  0  0  0  0  0  0  0  0
   -2.7698   -1.4136    0.1937 H   0  0  0  0  0  0  0  0  0  0  0  0
   -0.0197   -0.0385    0.1514 H   0  0  0  0  0  0  0  0  0  0  0  0
  1  2  1  0
  1  4  1  0
  1  5  1  0
  1  6  1  0
  2  3  1  0
  2  7  1  0
  2  8  1  0
  3 16  1  0
  9 10  1  0
  9 12  1  0
  9 13  1  0
  9 14  1  0
 10 11  2  0
 10 15  1  0
M  RAD  1  11   2
M  END
>  <reaction>  (14) 
rmg_rxn_16513

>  <mol_properties>  (14) 
{"1": {"label": "*4", "atom_type": "Cs"}, "2": {"label": "*3", "atom_type": "O2s"}, "9": {"label": "*0", "atom_type": "Cd"}, "10": {"label": "*1", "atom_type": "N3d"}, "15": {"label": "*2", "atom_type": "H0"}}

>  <type>  (14) 
unop_10

>  <geom_source>  (14) 
Heuristics

$$$$

     RDKit          3D

 16 14  0  0  0  0  0  0  0  0999 V2000
    0.2788   -1.6757    1.5053 C   0  0  0  0  0  0  0  0  0  0  0  0
   -0.5917   -0.4667    1.7941 C   0  0  0  0  0  0  0  0  0  0  0  0
    0.0790    0.7586    1.5727 O   0  0  0  0  0  0  0  0  0  0  0  0
    1.1889   -1.6437    2.1057 H   0  0  0  0  0  0  0  0  0  0  0  0
   -0.2570   -2.5994    1.7332 H   0  0  0  0  0  0  0  0  0  0  0  0
    0.5649   -1.7088    0.4505 H   0  0  0  0  0  0  0  0  0  0  0  0
   -1.5144   -0.5161    1.2019 H   0  0  0  0  0  0  0  0  0  0  0  0
   -0.8828   -0.4544    2.8453 H   0  0  0  0  0  0  0  0  0  0  0  0
    0.0790    0.1329   -2.9164 C   0  0  0  0  0  0  0  0  0  0  0  0
    0.0790    0.1329   -1.4241 C   0  0  0  0  0  0  0  0  0  0  0  0
    0.0790    1.2055   -0.7564 N   0  0  0  0  0  2  0  0  0  0  0  0
    0.9572   -0.3971   -3.2938 H   0  0  0  0  0  0  0  0  0  0  0  0
   -0.7993   -0.3971   -3.2938 H   0  0  0  0  0  0  0  0  0  0  0  0
    0.0790    1.1535   -3.2950 H   0  0  0  0  0  0  0  0  0  0  0  0
    0.0790   -0.8568   -0.9495 H   0  0  0  0  0  0  0  0  0  0  0  0
    0.0790    0.9753    0.4432 H   0  0  0  0  0  0  0  0  0  0  0  0
  1  2  1  0
  1  4  1  0
  1  5  1  0
  1  6  1  0
  2  3  1  0
  2  7  1  0
  2  8  1  0
  3 16  1  0
  9 10  1  0
  9 12  1  0
  9 13  1  0
  9 14  1  0
 10 11  2  0
 10 15  1  0
M  RAD  1  11   2
M  END
>  <reaction>  (15) 
rmg_rxn_16513

>  <mol_properties>  (15) 
{"1": {"label": "*4", "atom_type": "Cs"}, "2": {"label": "*3", "atom_type": "O2s"}, "9": {"label": "*0", "atom_type": "Cd"}, "10": {"label": "*1", "atom_type": "N3d"}, "15": {"label": "*2", "atom_type": "H0"}}

>  <type>  (15) 
unop_11

>  <geom_source>  (15) 
Heuristics

$$$$

     RDKit          3D

 16 14  0  0  0  0  0  0  0  0999 V2000
    1.7006   -0.1759    0.9797 C   0  0  0  0  0  0  0  0  0  0  0  0
    0.5762   -0.3908    1.9759 C   0  0  0  0  0  0  0  0  0  0  0  0
   -0.5854    0.3523    1.6620 O   0  0  0  0  0  0  0  0  0  0  0  0
    1.9522    0.8832    0.9098 H   0  0  0  0  0  0  0  0  0  0  0  0
    2.5934   -0.7272    1.2816 H   0  0  0  0  0  0  0  0  0  0  0  0
    1.4138   -0.5266   -0.0155 H   0  0  0  0  0  0  0  0  0  0  0  0
    0.3424   -1.4602    2.0560 H   0  0  0  0  0  0  0  0  0  0  0  0
    0.8808   -0.0516    2.9669 H   0  0  0  0  0  0  0  0  0  0  0  0
   -0.5854   -0.2734   -2.8271 C   0  0  0  0  0  0  0  0  0  0  0  0
   -0.5854   -0.2734   -1.3348 C   0  0  0  0  0  0  0  0  0  0  0  0
   -0.5854    0.7992   -0.6671 N   0  0  0  0  0  2  0  0  0  0  0  0
    0.2929   -0.8034   -3.2045 H   0  0  0  0  0  0  0  0  0  0  0  0
   -1.4637   -0.8034   -3.2045 H   0  0  0  0  0  0  0  0  0  0  0  0
   -0.5854    0.7472   -3.2057 H   0  0  0  0  0  0  0  0  0  0  0  0
   -0.5854   -1.2631   -0.8601 H   0  0  0  0  0  0  0  0  0  0  0  0
   -0.5854    0.5690    0.5325 H   0  0  0  0  0  0  0  0  0  0  0  0
  1  2  1  0
  1  4  1  0
  1  5  1  0
  1  6  1  0
  2  3  1  0
  2  7  1  0
  2  8  1  0
  3 16  1  0
  9 10  1  0
  9 12  1  0
  9 13  1  0
  9 14  1  0
 10 11  2  0
 10 15  1  0
M  RAD  1  11   2
M  END
>  <reaction>  (16) 
rmg_rxn_16513

>  <mol_properties>  (16) 
{"1": {"label": "*4", "atom_type": "Cs"}, "2": {"label": "*3", "atom_type": "O2s"}, "9": {"label": "*0", "atom_type": "Cd"}, "10": {"label": "*1", "atom_type": "N3d"}, "15": {"label": "*2", "atom_type": "H0"}}

>  <type>  (16) 
unop_12

>  <geom_source>  (16) 
Heuristics

$$$$

     RDKit          3D

 16 14  0  0  0  0  0  0  0  0999 V2000
   -1.6774    0.6239    2.1678 C   0  0  0  0  0  0  0  0  0  0  0  0
   -0.1902    0.8793    2.0069 C   0  0  0  0  0  0  0  0  0  0  0  0
    0.4805   -0.1770    1.3477 O   0  0  0  0  0  0  0  0  0  0  0  0
   -1.8490   -0.3096    2.7054 H   0  0  0  0  0  0  0  0  0  0  0  0
   -2.1502    1.4373    2.7220 H   0  0  0  0  0  0  0  0  0  0  0  0
   -2.1699    0.5545    1.1942 H   0  0  0  0  0  0  0  0  0  0  0  0
   -0.0251    1.8298    1.4835 H   0  0  0  0  0  0  0  0  0  0  0  0
    0.2859    0.9622    2.9849 H   0  0  0  0  0  0  0  0  0  0  0  0
    0.4805   -0.8027   -3.1414 C   0  0  0  0  0  0  0  0  0  0  0  0
    0.4805   -0.8027   -1.6490 C   0  0  0  0  0  0  0  0  0  0  0  0
    0.4805    0.2699   -0.9813 N   0  0  0  0  0  2  0  0  0  0  0  0
    1.3587   -1.3327   -3.5188 H   0  0  0  0  0  0  0  0  0  0  0  0
   -0.3978   -1.3327   -3.5188 H   0  0  0  0  0  0  0  0  0  0  0  0
    0.4805    0.2179   -3.5200 H   0  0  0  0  0  0  0  0  0  0  0  0
    0.4805   -1.7924   -1.1744 H   0  0  0  0  0  0  0  0  0  0  0  0
    0.4805    0.0398    0.2182 H   0  0  0  0  0  0  0  0  0  0  0  0
  1  2  1  0
  1  4  1  0
  1  5  1  0
  1  6  1  0
  2  3  1  0
  2  7  1  0
  2  8  1  0
  3 16  1  0
  9 10  1  0
  9 12  1  0
  9 13  1  0
  9 14  1  0
 10 11  2  0
 10 15  1  0
M  RAD  1  11   2
M  END
>  <reaction>  (17) 
rmg_rxn_16513

>  <mol_properties>  (17) 
{"1": {"label": "*4", "atom_type": "Cs"}, "2": {"label": "*3", "atom_type": "O2s"}, "9": {"label": "*0", "atom_type": "Cd"}, "10": {"label": "*1", "atom_type": "N3d"}, "15": {"label": "*2", "atom_type": "H0"}}

>  <type>  (17) 
unop_13

>  <geom_source>  (17) 
Heuristics

$$$$

     RDKit          3D

 16 14  0  0  0  0  0  0  0  0999 V2000
    0.9978   -1.3524    1.2011 C   0  0  0  0  0  0  0  0  0  0  0  0
   -0.2051   -0.6737    1.8296 C   0  0  0  0  0  0  0  0  0  0  0  0
   -0.2051    0.7281    1.6420 O   0  0  0  0  0  0  0  0  0  0  0  0
    1.9237   -0.9312    1.5950 H   0  0  0  0  0  0  0  0  0  0  0  0
    0.9869   -2.4246    1.4078 H   0  0  0  0  0  0  0  0  0  0  0  0
    0.9970   -1.2232    0.1153 H   0  0  0  0  0  0  0  0  0  0  0  0
   -1.1324   -1.1164    1.4439 H   0  0  0  0  0  0  0  0  0  0  0  0
   -0.2006   -0.8237    2.9101 H   0  0  0  0  0  0  0  0  0  0  0  0
   -0.2051    0.1023   -2.8471 C   0  0  0  0  0  0  0  0  0  0  0  0
   -0.2051    0.1023   -1.3547 C   0  0  0  0  0  0  0  0  0  0  0  0
   -0.2051    1.1750   -0.6870 N   0  0  0  0  0  2  0  0  0  0  0  0
    0.6732   -0.4276   -3.2245 H   0  0  0  0  0  0  0  0  0  0  0  0
   -1.0833   -0.4276   -3.2245 H   0  0  0  0  0  0  0  0  0  0  0  0
   -0.2051    1.1230   -3.2256 H   0  0  0  0  0  0  0  0  0  0  0  0
   -0.2051   -0.8873   -0.8801 H   0  0  0  0  0  0  0  0  0  0  0  0
   -0.2051    0.9448    0.5126 H   0  0  0  0  0  0  0  0  0  0  0  0
  1  2  1  0
  1  4  1  0
  1  5  1  0
  1  6  1  0
  2  3  1  0
  2  7  1  0
  2  8  1  0
  3 16  1  0
  9 10  1  0
  9 12  1  0
  9 13  1  0
  9 14  1  0
 10 11  2  0
 10 15  1  0
M  RAD  1  11   2
M  END
>  <reaction>  (18) 
rmg_rxn_16513

>  <mol_properties>  (18) 
{"1": {"label": "*4", "atom_type": "Cs"}, "2": {"label": "*3", "atom_type": "O2s"}, "9": {"label": "*0", "atom_type": "Cd"}, "10": {"label": "*1", "atom_type": "N3d"}, "15": {"label": "*2", "atom_type": "H0"}}

>  <type>  (18) 
unop_14

>  <geom_source>  (18) 
Heuristics

$$$$

     RDKit          3D

 16 14  0  0  0  0  0  0  0  0999 V2000
    1.4529   -0.8178    1.0071 C   0  0  0  0  0  0  0  0  0  0  0  0
    0.2358   -0.6430    1.8965 C   0  0  0  0  0  0  0  0  0  0  0  0
   -0.4349    0.5823    1.6751 O   0  0  0  0  0  0  0  0  0  0  0  0
    2.1495    0.0101    1.1454 H   0  0  0  0  0  0  0  0  0  0  0  0
    1.9697   -1.7510    1.2405 H   0  0  0  0  0  0  0  0  0  0  0  0
    1.1653   -0.8517   -0.0472 H   0  0  0  0  0  0  0  0  0  0  0  0
   -0.4507   -1.4895    1.7672 H   0  0  0  0  0  0  0  0  0  0  0  0
    0.5347   -0.6268    2.9455 H   0  0  0  0  0  0  0  0  0  0  0  0
   -0.4349   -0.0435   -2.8140 C   0  0  0  0  0  0  0  0  0  0  0  0
   -0.4349   -0.0435   -1.3217 C   0  0  0  0  0  0  0  0  0  0  0  0
   -0.4349    1.0292   -0.6540 N   0  0  0  0  0  2  0  0  0  0  0  0
    0.4434   -0.5734   -3.1915 H   0  0  0  0  0  0  0  0  0  0  0  0
   -1.3131   -0.5734   -3.1915 H   0  0  0  0  0  0  0  0  0  0  0  0
   -0.4349    0.9772   -3.1926 H   0  0  0  0  0  0  0  0  0  0  0  0
   -0.4349   -1.0331   -0.8471 H   0  0  0  0  0  0  0  0  0  0  0  0
   -0.4349    0.7990    0.5456 H   0  0  0  0  0  0  0  0  0  0  0  0
  1  2  1  0
  1  4  1  0
  1  5  1  0
  1  6  1  0
  2  3  1  0
  2  7  1  0
  2  8  1  0
  3 16  1  0
  9 10  1  0
  9 12  1  0
  9 13  1  0
  9 14  1  0
 10 11  2  0
 10 15  1  0
M  RAD  1  11   2
M  END
>  <reaction>  (19) 
rmg_rxn_16513

>  <mol_properties>  (19) 
{"1": {"label": "*4", "atom_type": "Cs"}, "2": {"label": "*3", "atom_type": "O2s"}, "9": {"label": "*0", "atom_type": "Cd"}, "10": {"label": "*1", "atom_type": "N3d"}, "15": {"label": "*2", "atom_type": "H0"}}

>  <type>  (19) 
unop_15

>  <geom_source>  (19) 
gaussian_log

$$$$
