
     RDKit          3D

 18 17  0  0  0  0  0  0  0  0999 V2000
    2.2026   -0.7213   -0.2612 C   0  0  0  0  0  0  0  0  0  0  0  0
    1.5384    0.2638    0.6915 C   0  0  0  0  0  0  0  0  0  0  0  0
    2.2584    1.5946    0.7694 C   0  0  0  0  0  0  0  0  0  0  0  0
    2.2212    2.2185   -0.4893 O   0  0  0  0  0  0  0  0  0  0  0  0
    2.8988    3.4488   -0.5204 C   0  0  0  0  0  0  0  0  0  0  0  0
    2.7981    4.0296   -1.9118 C   0  0  0  0  0  0  0  0  0  0  0  0
    3.2294   -0.9309    0.0486 H   0  0  0  0  0  0  0  0  0  0  0  0
    2.2338   -0.3181   -1.2734 H   0  0  0  0  0  0  0  0  0  0  0  0
    1.6610   -1.6680   -0.2875 H   0  0  0  0  0  0  0  0  0  0  0  0
    1.4990   -0.1566    1.7002 H   0  0  0  0  0  0  0  0  0  0  0  0
    0.5055    0.4455    0.3835 H   0  0  0  0  0  0  0  0  0  0  0  0
    3.3038    1.4410    1.0808 H   0  0  0  0  0  0  0  0  0  0  0  0
    1.7844    2.2410    1.5226 H   0  0  0  0  0  0  0  0  0  0  0  0
    2.4596    4.1376    0.2164 H   0  0  0  0  0  0  0  0  0  0  0  0
    3.9524    3.3035   -0.2397 H   0  0  0  0  0  0  0  0  0  0  0  0
    1.7543    4.1869   -2.1856 H   0  0  0  0  0  0  0  0  0  0  0  0
    3.2472    3.3545   -2.6411 H   0  0  0  0  0  0  0  0  0  0  0  0
    3.3178    4.9878   -1.9600 H   0  0  0  0  0  0  0  0  0  0  0  0
  1  2  1  0
  1  7  1  0
  1  8  1  0
  1  9  1  0
  2  3  1  0
  2 10  1  0
  2 11  1  0
  3  4  1  0
  3 12  1  0
  3 13  1  0
  4  5  1  0
  5  6  1  0
  5 14  1  0
  5 15  1  0
  6 16  1  0
  6 17  1  0
  6 18  1  0
M  END
>  <reaction>  (1) 
rmg_rxn_214

>  <mol_properties>  (1) 
{"1": {"label": "donator", "atom_type": "Cs"}, "9": {"label": "d_hydrogen", "atom_type": "H0"}}

>  <type>  (1) 
r1h

$$$$

     RDKit          3D

 14 13  0  0  0  0  0  0  0  0999 V2000
    2.5796   -0.5432    0.2329 C   0  0  0  0  0  3  0  0  0  0  0  0
    1.2594    0.0982    0.3029 C   0  0  0  0  0  0  0  0  0  0  0  0
   -0.0483   -1.0244    0.9576 S   0  0  0  0  0  0  0  0  0  0  0  0
   -0.0049   -2.3732   -0.2491 C   0  0  0  0  0  0  0  0  0  0  0  0
   -0.3891   -1.9781   -1.6653 C   0  0  0  0  0  0  0  0  0  0  0  0
    2.9359   -0.9798   -0.6903 H   0  0  0  0  0  0  0  0  0  0  0  0
    3.1327   -0.7454    1.1400 H   0  0  0  0  0  0  0  0  0  0  0  0
    0.9347    0.4858   -0.6621 H   0  0  0  0  0  0  0  0  0  0  0  0
    1.2442    0.9220    1.0193 H   0  0  0  0  0  0  0  0  0  0  0  0
    0.9819   -2.8380   -0.2257 H   0  0  0  0  0  0  0  0  0  0  0  0
   -0.7110   -3.1037    0.1493 H   0  0  0  0  0  0  0  0  0  0  0  0
    0.3274   -1.2737   -2.0913 H   0  0  0  0  0  0  0  0  0  0  0  0
   -0.4075   -2.8581   -2.3121 H   0  0  0  0  0  0  0  0  0  0  0  0
   -1.3749   -1.5123   -1.6865 H   0  0  0  0  0  0  0  0  0  0  0  0
  1  2  1  0
  1  6  1  0
  1  7  1  0
  2  3  1  0
  2  8  1  0
  2  9  1  0
  3  4  1  0
  4  5  1  0
  4 10  1  0
  4 11  1  0
  5 12  1  0
  5 13  1  0
  5 14  1  0
M  RAD  1   1   2
M  END
>  <reaction>  (2) 
rmg_rxn_214

>  <mol_properties>  (2) 
{"0": {"label": "acceptor", "atom_type": "Cs"}}

>  <type>  (2) 
r2

$$$$

     RDKit          3D

 15 14  0  0  0  0  0  0  0  0999 V2000
   -2.0554    0.0723   -0.4910 C   0  0  0  0  0  0  0  0  0  0  0  0
   -0.7461   -0.6266   -0.8178 C   0  0  0  0  0  0  0  0  0  0  0  0
    0.3249    0.2591   -1.9782 S   0  0  0  0  0  0  0  0  0  0  0  0
   -0.7172    0.3642   -3.4551 C   0  0  0  0  0  0  0  0  0  0  0  0
   -1.1375   -0.9737   -4.0409 C   0  0  0  0  0  0  0  0  0  0  0  0
   -2.7005    0.1427   -1.3684 H   0  0  0  0  0  0  0  0  0  0  0  0
   -2.6016   -0.4848    0.2733 H   0  0  0  0  0  0  0  0  0  0  0  0
   -1.8758    1.0825   -0.1213 H   0  0  0  0  0  0  0  0  0  0  0  0
   -0.1320   -0.7246    0.0789 H   0  0  0  0  0  0  0  0  0  0  0  0
   -0.9254   -1.6374   -1.1879 H   0  0  0  0  0  0  0  0  0  0  0  0
   -1.5873    0.9874   -3.2422 H   0  0  0  0  0  0  0  0  0  0  0  0
   -0.1021    0.9161   -4.1678 H   0  0  0  0  0  0  0  0  0  0  0  0
   -1.7876   -1.5224   -3.3574 H   0  0  0  0  0  0  0  0  0  0  0  0
   -0.2676   -1.5962   -4.2534 H   0  0  0  0  0  0  0  0  0  0  0  0
   -1.6916   -0.8229   -4.9700 H   0  0  0  0  0  0  0  0  0  0  0  0
  1  2  1  0
  1  6  1  0
  1  7  1  0
  1  8  1  0
  2  3  1  0
  2  9  1  0
  2 10  1  0
  3  4  1  0
  4  5  1  0
  4 11  1  0
  4 12  1  0
  5 13  1  0
  5 14  1  0
  5 15  1  0
M  END
>  <reaction>  (3) 
rmg_rxn_214

>  <mol_properties>  (3) 
{"0": {"label": "acceptor", "atom_type": "Cs"}, "14": {"label": "a_hydrogen", "atom_type": "H0"}}

>  <type>  (3) 
r2h

$$$$

     RDKit          3D

 32 30  0  0  0  0  0  0  0  0999 V2000
    2.0567   -0.3501   -0.5637 C   0  0  0  0  0  3  0  0  0  0  0  0
    1.8005   -1.7244   -1.1125 C   0  0  0  0  0  0  0  0  0  0  0  0
    0.2777   -2.5272   -0.5359 S   0  0  0  0  0  0  0  0  0  0  0  0
    0.4879   -2.4849    1.2611 C   0  0  0  0  0  0  0  0  0  0  0  0
    1.7179   -3.2098    1.7815 C   0  0  0  0  0  0  0  0  0  0  0  0
    2.1688   -0.2956    0.5177 H   0  0  0  0  0  0  0  0  0  0  0  0
    2.8553    0.1867   -1.0733 H   0  0  0  0  0  0  0  0  0  0  0  0
    2.6452   -2.3913   -0.9146 H   0  0  0  0  0  0  0  0  0  0  0  0
    1.6817   -1.6871   -2.1970 H   0  0  0  0  0  0  0  0  0  0  0  0
    0.4726   -1.4479    1.6025 H   0  0  0  0  0  0  0  0  0  0  0  0
   -0.4217   -2.9537    1.6406 H   0  0  0  0  0  0  0  0  0  0  0  0
    2.6366   -2.7302    1.4395 H   0  0  0  0  0  0  0  0  0  0  0  0
    1.7291   -3.2003    2.8735 H   0  0  0  0  0  0  0  0  0  0  0  0
    1.7310   -4.2467    1.4441 H   0  0  0  0  0  0  0  0  0  0  0  0
    0.4603    2.5598   -1.3333 C   0  0  0  0  0  0  0  0  0  0  0  0
   -0.0927    1.1914   -1.0351 C   0  0  0  0  0  0  0  0  0  0  0  0
   -0.8959    1.0652    0.2267 C   0  0  0  0  0  0  0  0  0  0  0  0
   -2.0472    1.8758    0.1437 O   0  0  0  0  0  0  0  0  0  0  0  0
   -2.8585    1.7958    1.2882 C   0  0  0  0  0  0  0  0  0  0  0  0
   -4.0588    2.6950    1.1028 C   0  0  0  0  0  0  0  0  0  0  0  0
    1.0513    2.9336   -0.4927 H   0  0  0  0  0  0  0  0  0  0  0  0
   -0.3462    3.2755   -1.5120 H   0  0  0  0  0  0  0  0  0  0  0  0
    1.0999    2.5452   -2.2176 H   0  0  0  0  0  0  0  0  0  0  0  0
    0.9495    0.4133   -0.8189 H   0  0  0  0  0  0  0  0  0  0  0  0
   -0.5841    0.7187   -1.8855 H   0  0  0  0  0  0  0  0  0  0  0  0
   -0.2871    1.3769    1.0917 H   0  0  0  0  0  0  0  0  0  0  0  0
   -1.1825    0.0158    0.3801 H   0  0  0  0  0  0  0  0  0  0  0  0
   -3.1782    0.7556    1.4491 H   0  0  0  0  0  0  0  0  0  0  0  0
   -2.2845    2.0993    2.1766 H   0  0  0  0  0  0  0  0  0  0  0  0
   -4.6356    2.3862    0.2303 H   0  0  0  0  0  0  0  0  0  0  0  0
   -3.7431    3.7289    0.9583 H   0  0  0  0  0  0  0  0  0  0  0  0
   -4.7053    2.6490    1.9806 H   0  0  0  0  0  0  0  0  0  0  0  0
  1  2  1  0
  1  6  1  0
  1  7  1  0
  2  3  1  0
  2  8  1  0
  2  9  1  0
  3  4  1  0
  4  5  1  0
  4 10  1  0
  4 11  1  0
  5 12  1  0
  5 13  1  0
  5 14  1  0
 15 16  1  0
 15 21  1  0
 15 22  1  0
 15 23  1  0
 16 17  1  0
 16 24  1  0
 16 25  1  0
 17 18  1  0
 17 26  1  0
 17 27  1  0
 18 19  1  0
 19 20  1  0
 19 28  1  0
 19 29  1  0
 20 30  1  0
 20 31  1  0
 20 32  1  0
M  RAD  1   1   2
M  END
>  <reaction>  (4) 
rmg_rxn_214

>  <mol_properties>  (4) 
{"0": {"label": "*3", "atom_type": "Cs"}, "1": {"label": "*4", "atom_type": "Cs"}, "15": {"label": "*1", "atom_type": "Cs"}, "16": {"label": "*0", "atom_type": "Cs"}, "23": {"label": "*2", "atom_type": "H0"}}

>  <type>  (4) 
ts

$$$$

     RDKit          3D

 32 30  0  0  0  0  0  0  0  0999 V2000
    0.4289   -1.8831    0.3654 C   0  0  0  0  0  0  0  0  0  0  0  0
    1.2870   -0.9637    1.2186 C   0  0  0  0  0  0  0  0  0  0  0  0
    2.6455   -0.1514    0.3394 S   0  0  0  0  0  0  0  0  0  0  0  0
    3.6211   -1.5616   -0.2418 C   0  0  0  0  0  0  0  0  0  0  0  0
    4.1658   -2.4612    0.8553 C   0  0  0  0  0  0  0  0  0  0  0  0
    0.9982   -2.7427    0.0077 H   0  0  0  0  0  0  0  0  0  0  0  0
   -0.4111   -2.2663    0.9488 H   0  0  0  0  0  0  0  0  0  0  0  0
    1.6817   -1.4933    2.0872 H   0  0  0  0  0  0  0  0  0  0  0  0
    0.6919   -0.1327    1.6008 H   0  0  0  0  0  0  0  0  0  0  0  0
    3.0363   -2.1357   -0.9624 H   0  0  0  0  0  0  0  0  0  0  0  0
    4.4390   -1.0999   -0.7974 H   0  0  0  0  0  0  0  0  0  0  0  0
    3.3618   -2.9638    1.3956 H   0  0  0  0  0  0  0  0  0  0  0  0
    4.8065   -3.2353    0.4271 H   0  0  0  0  0  0  0  0  0  0  0  0
    4.7500   -1.8872    1.5753 H   0  0  0  0  0  0  0  0  0  0  0  0
   -1.6838   -0.6213   -2.0593 C   0  0  0  0  0  0  0  0  0  0  0  0
   -1.6838   -0.6213   -0.5364 C   0  0  0  0  0  3  0  0  0  0  0  0
   -1.6838    0.7717    0.0591 C   0  0  0  0  0  0  0  0  0  0  0  0
   -2.8668    1.4353   -0.3085 O   0  0  0  0  0  0  0  0  0  0  0  0
   -2.9375    2.7534    0.1724 C   0  0  0  0  0  0  0  0  0  0  0  0
   -4.2409    3.3712   -0.2785 C   0  0  0  0  0  0  0  0  0  0  0  0
   -0.8018   -0.1070   -2.4490 H   0  0  0  0  0  0  0  0  0  0  0  0
   -2.5665   -0.1116   -2.4454 H   0  0  0  0  0  0  0  0  0  0  0  0
   -1.6783   -1.6392   -2.4520 H   0  0  0  0  0  0  0  0  0  0  0  0
   -0.6260   -1.2531   -0.0849 H   0  0  0  0  0  0  0  0  0  0  0  0
   -2.5582   -1.1593   -0.1612 H   0  0  0  0  0  0  0  0  0  0  0  0
   -0.8096    1.3368   -0.3013 H   0  0  0  0  0  0  0  0  0  0  0  0
   -1.6090    0.7178    1.1551 H   0  0  0  0  0  0  0  0  0  0  0  0
   -2.8703    2.7563    1.2704 H   0  0  0  0  0  0  0  0  0  0  0  0
   -2.0847    3.3364   -0.2055 H   0  0  0  0  0  0  0  0  0  0  0  0
   -5.0872    2.8018    0.1072 H   0  0  0  0  0  0  0  0  0  0  0  0
   -4.3017    3.3830   -1.3673 H   0  0  0  0  0  0  0  0  0  0  0  0
   -4.3185    4.3972    0.0846 H   0  0  0  0  0  0  0  0  0  0  0  0
  1  2  1  0
  1  6  1  0
  1  7  1  0
  1 24  1  0
  2  3  1  0
  2  8  1  0
  2  9  1  0
  3  4  1  0
  4  5  1  0
  4 10  1  0
  4 11  1  0
  5 12  1  0
  5 13  1  0
  5 14  1  0
 15 16  1  0
 15 21  1  0
 15 22  1  0
 15 23  1  0
 16 17  1  0
 16 25  1  0
 17 18  1  0
 17 26  1  0
 17 27  1  0
 18 19  1  0
 19 20  1  0
 19 28  1  0
 19 29  1  0
 20 30  1  0
 20 31  1  0
 20 32  1  0
M  RAD  1  16   2
M  END
>  <reaction>  (5) 
rmg_rxn_214

>  <mol_properties>  (5) 
{"0": {"label": "*3", "atom_type": "Cs"}, "1": {"label": "*4", "atom_type": "Cs"}, "15": {"label": "*1", "atom_type": "Cs"}, "16": {"label": "*0", "atom_type": "Cs"}, "23": {"label": "*2", "atom_type": "H0"}}

>  <type>  (5) 
unop_1

>  <geom_source>  (5) 
Heuristics

$$$$

     RDKit          3D

 32 30  0  0  0  0  0  0  0  0999 V2000
    0.9328   -0.9308    1.1756 C   0  0  0  0  0  0  0  0  0  0  0  0
    2.0973   -0.7995    0.2080 C   0  0  0  0  0  0  0  0  0  0  0  0
    1.9476   -1.7802   -1.3066 S   0  0  0  0  0  0  0  0  0  0  0  0
    1.8546   -3.4689   -0.6602 C   0  0  0  0  0  0  0  0  0  0  0  0
    3.0657   -3.9172    0.1410 C   0  0  0  0  0  0  0  0  0  0  0  0
    0.8615   -1.9419    1.5800 H   0  0  0  0  0  0  0  0  0  0  0  0
    1.0626   -0.2490    2.0190 H   0  0  0  0  0  0  0  0  0  0  0  0
    3.0423   -1.0343    0.7009 H   0  0  0  0  0  0  0  0  0  0  0  0
    2.1783    0.2266   -0.1543 H   0  0  0  0  0  0  0  0  0  0  0  0
    0.9379   -3.5858   -0.0799 H   0  0  0  0  0  0  0  0  0  0  0  0
    1.7406   -4.0831   -1.5549 H   0  0  0  0  0  0  0  0  0  0  0  0
    3.1718   -3.3401    1.0611 H   0  0  0  0  0  0  0  0  0  0  0  0
    2.9655   -4.9677    0.4228 H   0  0  0  0  0  0  0  0  0  0  0  0
    3.9816   -3.8001   -0.4393 H   0  0  0  0  0  0  0  0  0  0  0  0
   -1.1800    0.3310   -1.2491 C   0  0  0  0  0  0  0  0  0  0  0  0
   -1.1800    0.3310    0.2738 C   0  0  0  0  0  3  0  0  0  0  0  0
   -1.1800    1.7241    0.8693 C   0  0  0  0  0  0  0  0  0  0  0  0
   -2.3630    2.3877    0.5017 O   0  0  0  0  0  0  0  0  0  0  0  0
   -2.4337    3.7057    0.9826 C   0  0  0  0  0  0  0  0  0  0  0  0
   -3.7370    4.3235    0.5318 C   0  0  0  0  0  0  0  0  0  0  0  0
   -0.2979    0.8454   -1.6388 H   0  0  0  0  0  0  0  0  0  0  0  0
   -2.0627    0.8407   -1.6352 H   0  0  0  0  0  0  0  0  0  0  0  0
   -1.1745   -0.6868   -1.6418 H   0  0  0  0  0  0  0  0  0  0  0  0
   -0.1221   -0.3007    0.7253 H   0  0  0  0  0  0  0  0  0  0  0  0
   -2.0544   -0.2069    0.6490 H   0  0  0  0  0  0  0  0  0  0  0  0
   -0.3058    2.2892    0.5089 H   0  0  0  0  0  0  0  0  0  0  0  0
   -1.1052    1.6702    1.9653 H   0  0  0  0  0  0  0  0  0  0  0  0
   -2.3664    3.7086    2.0807 H   0  0  0  0  0  0  0  0  0  0  0  0
   -1.5808    4.2887    0.6047 H   0  0  0  0  0  0  0  0  0  0  0  0
   -4.5834    3.7541    0.9174 H   0  0  0  0  0  0  0  0  0  0  0  0
   -3.7978    4.3354   -0.5571 H   0  0  0  0  0  0  0  0  0  0  0  0
   -3.8146    5.3496    0.8948 H   0  0  0  0  0  0  0  0  0  0  0  0
  1  2  1  0
  1  6  1  0
  1  7  1  0
  1 24  1  0
  2  3  1  0
  2  8  1  0
  2  9  1  0
  3  4  1  0
  4  5  1  0
  4 10  1  0
  4 11  1  0
  5 12  1  0
  5 13  1  0
  5 14  1  0
 15 16  1  0
 15 21  1  0
 15 22  1  0
 15 23  1  0
 16 17  1  0
 16 25  1  0
 17 18  1  0
 17 26  1  0
 17 27  1  0
 18 19  1  0
 19 20  1  0
 19 28  1  0
 19 29  1  0
 20 30  1  0
 20 31  1  0
 20 32  1  0
M  RAD  1  16   2
M  END
>  <reaction>  (6) 
rmg_rxn_214

>  <mol_properties>  (6) 
{"0": {"label": "*3", "atom_type": "Cs"}, "1": {"label": "*4", "atom_type": "Cs"}, "15": {"label": "*1", "atom_type": "Cs"}, "16": {"label": "*0", "atom_type": "Cs"}, "23": {"label": "*2", "atom_type": "H0"}}

>  <type>  (6) 
unop_2

>  <geom_source>  (6) 
Heuristics

$$$$

     RDKit          3D

 32 30  0  0  0  0  0  0  0  0999 V2000
    0.6169   -2.0680   -0.0137 C   0  0  0  0  0  0  0  0  0  0  0  0
    1.0551   -1.5030    1.3274 C   0  0  0  0  0  0  0  0  0  0  0  0
    2.1083   -0.0334    1.2309 S   0  0  0  0  0  0  0  0  0  0  0  0
    3.5403   -0.6501    0.3104 C   0  0  0  0  0  0  0  0  0  0  0  0
    4.2885   -1.7926    0.9770 C   0  0  0  0  0  0  0  0  0  0  0  0
    1.4662   -2.4490   -0.5833 H   0  0  0  0  0  0  0  0  0  0  0  0
   -0.0775   -2.8981    0.1339 H   0  0  0  0  0  0  0  0  0  0  0  0
    1.5509   -2.2665    1.9291 H   0  0  0  0  0  0  0  0  0  0  0  0
    0.1897   -1.1647    1.8997 H   0  0  0  0  0  0  0  0  0  0  0  0
    3.2326   -0.9226   -0.7005 H   0  0  0  0  0  0  0  0  0  0  0  0
    4.1853    0.2252    0.2173 H   0  0  0  0  0  0  0  0  0  0  0  0
    3.6714   -2.6903    1.0417 H   0  0  0  0  0  0  0  0  0  0  0  0
    5.1801   -2.0487    0.4005 H   0  0  0  0  0  0  0  0  0  0  0  0
    4.5958   -1.5199    1.9872 H   0  0  0  0  0  0  0  0  0  0  0  0
   -1.4959   -0.8062   -2.4384 C   0  0  0  0  0  0  0  0  0  0  0  0
   -1.4959   -0.8062   -0.9155 C   0  0  0  0  0  3  0  0  0  0  0  0
   -1.4959    0.5869   -0.3200 C   0  0  0  0  0  0  0  0  0  0  0  0
   -2.6789    1.2505   -0.6876 O   0  0  0  0  0  0  0  0  0  0  0  0
   -2.7496    2.5685   -0.2067 C   0  0  0  0  0  0  0  0  0  0  0  0
   -4.0529    3.1863   -0.6575 C   0  0  0  0  0  0  0  0  0  0  0  0
   -0.6138   -0.2919   -2.8280 H   0  0  0  0  0  0  0  0  0  0  0  0
   -2.3786   -0.2965   -2.8245 H   0  0  0  0  0  0  0  0  0  0  0  0
   -1.4904   -1.8241   -2.8311 H   0  0  0  0  0  0  0  0  0  0  0  0
   -0.4381   -1.4380   -0.4640 H   0  0  0  0  0  0  0  0  0  0  0  0
   -2.3703   -1.3442   -0.5402 H   0  0  0  0  0  0  0  0  0  0  0  0
   -0.6217    1.1519   -0.6804 H   0  0  0  0  0  0  0  0  0  0  0  0
   -1.4211    0.5329    0.7761 H   0  0  0  0  0  0  0  0  0  0  0  0
   -2.6823    2.5714    0.8914 H   0  0  0  0  0  0  0  0  0  0  0  0
   -1.8967    3.1515   -0.5846 H   0  0  0  0  0  0  0  0  0  0  0  0
   -4.8993    2.6169   -0.2718 H   0  0  0  0  0  0  0  0  0  0  0  0
   -4.1137    3.1982   -1.7463 H   0  0  0  0  0  0  0  0  0  0  0  0
   -4.1305    4.2123   -0.2945 H   0  0  0  0  0  0  0  0  0  0  0  0
  1  2  1  0
  1  6  1  0
  1  7  1  0
  1 24  1  0
  2  3  1  0
  2  8  1  0
  2  9  1  0
  3  4  1  0
  4  5  1  0
  4 10  1  0
  4 11  1  0
  5 12  1  0
  5 13  1  0
  5 14  1  0
 15 16  1  0
 15 21  1  0
 15 22  1  0
 15 23  1  0
 16 17  1  0
 16 25  1  0
 17 18  1  0
 17 26  1  0
 17 27  1  0
 18 19  1  0
 19 20  1  0
 19 28  1  0
 19 29  1  0
 20 30  1  0
 20 31  1  0
 20 32  1  0
M  RAD  1  16   2
M  END
>  <reaction>  (7) 
rmg_rxn_214

>  <mol_properties>  (7) 
{"0": {"label": "*3", "atom_type": "Cs"}, "1": {"label": "*4", "atom_type": "Cs"}, "15": {"label": "*1", "atom_type": "Cs"}, "16": {"label": "*0", "atom_type": "Cs"}, "23": {"label": "*2", "atom_type": "H0"}}

>  <type>  (7) 
unop_3

>  <geom_source>  (7) 
Heuristics

$$$$

     RDKit          3D

 32 30  0  0  0  0  0  0  0  0999 V2000
    2.1125   -0.6425    0.4207 C   0  0  0  0  0  0  0  0  0  0  0  0
    2.1292   -2.0844   -0.0590 C   0  0  0  0  0  0  0  0  0  0  0  0
    0.5104   -2.7604   -0.5070 S   0  0  0  0  0  0  0  0  0  0  0  0
   -0.4032   -2.6266    1.0505 C   0  0  0  0  0  0  0  0  0  0  0  0
    0.1908   -3.4059    2.2122 C   0  0  0  0  0  0  0  0  0  0  0  0
    1.5690   -0.5408    1.3616 H   0  0  0  0  0  0  0  0  0  0  0  0
    3.1315   -0.2882    0.5911 H   0  0  0  0  0  0  0  0  0  0  0  0
    2.6034   -2.7351    0.6777 H   0  0  0  0  0  0  0  0  0  0  0  0
    2.7109   -2.1738   -0.9779 H   0  0  0  0  0  0  0  0  0  0  0  0
   -0.5271   -1.5739    1.3098 H   0  0  0  0  0  0  0  0  0  0  0  0
   -1.3951   -3.0082    0.8029 H   0  0  0  0  0  0  0  0  0  0  0  0
    1.1666   -3.0112    2.5005 H   0  0  0  0  0  0  0  0  0  0  0  0
   -0.4610   -3.3385    3.0860 H   0  0  0  0  0  0  0  0  0  0  0  0
    0.3147   -4.4578    1.9527 H   0  0  0  0  0  0  0  0  0  0  0  0
   -0.0003    0.6193   -2.0040 C   0  0  0  0  0  0  0  0  0  0  0  0
   -0.0003    0.6193   -0.4811 C   0  0  0  0  0  3  0  0  0  0  0  0
   -0.0003    2.0124    0.1144 C   0  0  0  0  0  0  0  0  0  0  0  0
   -1.1833    2.6760   -0.2532 O   0  0  0  0  0  0  0  0  0  0  0  0
   -1.2540    3.9940    0.2277 C   0  0  0  0  0  0  0  0  0  0  0  0
   -2.5573    4.6118   -0.2231 C   0  0  0  0  0  0  0  0  0  0  0  0
    0.8818    1.1336   -2.3936 H   0  0  0  0  0  0  0  0  0  0  0  0
   -0.8830    1.1290   -2.3901 H   0  0  0  0  0  0  0  0  0  0  0  0
    0.0052   -0.3985   -2.3967 H   0  0  0  0  0  0  0  0  0  0  0  0
    1.0575   -0.0124   -0.0296 H   0  0  0  0  0  0  0  0  0  0  0  0
   -0.8747    0.0813   -0.1058 H   0  0  0  0  0  0  0  0  0  0  0  0
    0.8739    2.5775   -0.2460 H   0  0  0  0  0  0  0  0  0  0  0  0
    0.0745    1.9585    1.2104 H   0  0  0  0  0  0  0  0  0  0  0  0
   -1.1868    3.9969    1.3258 H   0  0  0  0  0  0  0  0  0  0  0  0
   -0.4012    4.5770   -0.1502 H   0  0  0  0  0  0  0  0  0  0  0  0
   -3.4037    4.0424    0.1625 H   0  0  0  0  0  0  0  0  0  0  0  0
   -2.6181    4.6237   -1.3120 H   0  0  0  0  0  0  0  0  0  0  0  0
   -2.6350    5.6378    0.1399 H   0  0  0  0  0  0  0  0  0  0  0  0
  1  2  1  0
  1  6  1  0
  1  7  1  0
  1 24  1  0
  2  3  1  0
  2  8  1  0
  2  9  1  0
  3  4  1  0
  4  5  1  0
  4 10  1  0
  4 11  1  0
  5 12  1  0
  5 13  1  0
  5 14  1  0
 15 16  1  0
 15 21  1  0
 15 22  1  0
 15 23  1  0
 16 17  1  0
 16 25  1  0
 17 18  1  0
 17 26  1  0
 17 27  1  0
 18 19  1  0
 19 20  1  0
 19 28  1  0
 19 29  1  0
 20 30  1  0
 20 31  1  0
 20 32  1  0
M  RAD  1  16   2
M  END
>  <reaction>  (8) 
rmg_rxn_214

>  <mol_properties>  (8) 
{"0": {"label": "*3", "atom_type": "Cs"}, "1": {"label": "*4", "atom_type": "Cs"}, "15": {"label": "*1", "atom_type": "Cs"}, "16": {"label": "*0", "atom_type": "Cs"}, "23": {"label": "*2", "atom_type": "H0"}}

>  <type>  (8) 
unop_4

>  <geom_source>  (8) 
Heuristics

$$$$

     RDKit          3D

 32 30  0  0  0  0  0  0  0  0999 V2000
    1.1324   -2.1616   -0.4071 C   0  0  0  0  0  0  0  0  0  0  0  0
    1.1504   -2.1724    1.1125 C   0  0  0  0  0  0  0  0  0  0  0  0
    1.0443   -0.5408    1.8903 S   0  0  0  0  0  0  0  0  0  0  0  0
    2.5234    0.2841    1.2499 C   0  0  0  0  0  0  0  0  0  0  0  0
    3.8389   -0.3869    1.6088 C   0  0  0  0  0  0  0  0  0  0  0  0
    2.0186   -1.6714   -0.8136 H   0  0  0  0  0  0  0  0  0  0  0  0
    1.1172   -3.1833   -0.7929 H   0  0  0  0  0  0  0  0  0  0  0  0
    2.0300   -2.6976    1.4884 H   0  0  0  0  0  0  0  0  0  0  0  0
    0.2786   -2.7018    1.5004 H   0  0  0  0  0  0  0  0  0  0  0  0
    2.4310    0.4087    0.1697 H   0  0  0  0  0  0  0  0  0  0  0  0
    2.4731    1.2827    1.6869 H   0  0  0  0  0  0  0  0  0  0  0  0
    3.9243   -1.3716    1.1460 H   0  0  0  0  0  0  0  0  0  0  0  0
    4.6795    0.2148    1.2561 H   0  0  0  0  0  0  0  0  0  0  0  0
    3.9308   -0.5114    2.6883 H   0  0  0  0  0  0  0  0  0  0  0  0
   -0.9804   -0.8998   -2.8319 C   0  0  0  0  0  0  0  0  0  0  0  0
   -0.9804   -0.8998   -1.3089 C   0  0  0  0  0  3  0  0  0  0  0  0
   -0.9804    0.4933   -0.7134 C   0  0  0  0  0  0  0  0  0  0  0  0
   -2.1634    1.1569   -1.0810 O   0  0  0  0  0  0  0  0  0  0  0  0
   -2.2341    2.4749   -0.6001 C   0  0  0  0  0  0  0  0  0  0  0  0
   -3.5374    3.0927   -1.0510 C   0  0  0  0  0  0  0  0  0  0  0  0
   -0.0983   -0.3855   -3.2215 H   0  0  0  0  0  0  0  0  0  0  0  0
   -1.8631   -0.3901   -3.2179 H   0  0  0  0  0  0  0  0  0  0  0  0
   -0.9749   -1.9177   -3.2245 H   0  0  0  0  0  0  0  0  0  0  0  0
    0.0774   -1.5316   -0.8574 H   0  0  0  0  0  0  0  0  0  0  0  0
   -1.8548   -1.4378   -0.9337 H   0  0  0  0  0  0  0  0  0  0  0  0
   -0.1062    1.0584   -1.0738 H   0  0  0  0  0  0  0  0  0  0  0  0
   -0.9056    0.4394    0.3826 H   0  0  0  0  0  0  0  0  0  0  0  0
   -2.1669    2.4778    0.4979 H   0  0  0  0  0  0  0  0  0  0  0  0
   -1.3813    3.0579   -0.9780 H   0  0  0  0  0  0  0  0  0  0  0  0
   -4.3838    2.5233   -0.6653 H   0  0  0  0  0  0  0  0  0  0  0  0
   -3.5983    3.1046   -2.1398 H   0  0  0  0  0  0  0  0  0  0  0  0
   -3.6151    4.1187   -0.6879 H   0  0  0  0  0  0  0  0  0  0  0  0
  1  2  1  0
  1  6  1  0
  1  7  1  0
  1 24  1  0
  2  3  1  0
  2  8  1  0
  2  9  1  0
  3  4  1  0
  4  5  1  0
  4 10  1  0
  4 11  1  0
  5 12  1  0
  5 13  1  0
  5 14  1  0
 15 16  1  0
 15 21  1  0
 15 22  1  0
 15 23  1  0
 16 17  1  0
 16 25  1  0
 17 18  1  0
 17 26  1  0
 17 27  1  0
 18 19  1  0
 19 20  1  0
 19 28  1  0
 19 29  1  0
 20 30  1  0
 20 31  1  0
 20 32  1  0
M  RAD  1  16   2
M  END
>  <reaction>  (9) 
rmg_rxn_214

>  <mol_properties>  (9) 
{"0": {"label": "*3", "atom_type": "Cs"}, "1": {"label": "*4", "atom_type": "Cs"}, "15": {"label": "*1", "atom_type": "Cs"}, "16": {"label": "*0", "atom_type": "Cs"}, "23": {"label": "*2", "atom_type": "H0"}}

>  <type>  (9) 
unop_5

>  <geom_source>  (9) 
Heuristics

$$$$

     RDKit          3D

 32 30  0  0  0  0  0  0  0  0999 V2000
    2.2377   -0.8810   -0.0083 C   0  0  0  0  0  0  0  0  0  0  0  0
    1.9472   -2.3610    0.1784 C   0  0  0  0  0  0  0  0  0  0  0  0
    0.1909   -2.8009    0.1855 S   0  0  0  0  0  0  0  0  0  0  0  0
   -0.4336   -1.8547    1.5973 C   0  0  0  0  0  0  0  0  0  0  0  0
    0.2022   -2.2003    2.9336 C   0  0  0  0  0  0  0  0  0  0  0  0
    1.8719   -0.2927    0.8349 H   0  0  0  0  0  0  0  0  0  0  0  0
    3.3143   -0.7128   -0.0826 H   0  0  0  0  0  0  0  0  0  0  0  0
    2.4204   -2.7399    1.0859 H   0  0  0  0  0  0  0  0  0  0  0  0
    2.3557   -2.9376   -0.6532 H   0  0  0  0  0  0  0  0  0  0  0  0
   -0.3447   -0.7876    1.3873 H   0  0  0  0  0  0  0  0  0  0  0  0
   -1.5004   -2.0844    1.6118 H   0  0  0  0  0  0  0  0  0  0  0  0
    1.2617   -1.9391    2.9513 H   0  0  0  0  0  0  0  0  0  0  0  0
   -0.2851   -1.6468    3.7393 H   0  0  0  0  0  0  0  0  0  0  0  0
    0.1133   -3.2669    3.1430 H   0  0  0  0  0  0  0  0  0  0  0  0
    0.1249    0.3808   -2.4331 C   0  0  0  0  0  0  0  0  0  0  0  0
    0.1249    0.3808   -0.9102 C   0  0  0  0  0  3  0  0  0  0  0  0
    0.1249    1.7739   -0.3146 C   0  0  0  0  0  0  0  0  0  0  0  0
   -1.0581    2.4375   -0.6822 O   0  0  0  0  0  0  0  0  0  0  0  0
   -1.1288    3.7555   -0.2013 C   0  0  0  0  0  0  0  0  0  0  0  0
   -2.4321    4.3733   -0.6522 C   0  0  0  0  0  0  0  0  0  0  0  0
    1.0070    0.8951   -2.8227 H   0  0  0  0  0  0  0  0  0  0  0  0
   -0.7578    0.8905   -2.8191 H   0  0  0  0  0  0  0  0  0  0  0  0
    0.1304   -0.6371   -2.8257 H   0  0  0  0  0  0  0  0  0  0  0  0
    1.1827   -0.2510   -0.4586 H   0  0  0  0  0  0  0  0  0  0  0  0
   -0.7495   -0.1572   -0.5349 H   0  0  0  0  0  0  0  0  0  0  0  0
    0.9991    2.3389   -0.6750 H   0  0  0  0  0  0  0  0  0  0  0  0
    0.1997    1.7199    0.7814 H   0  0  0  0  0  0  0  0  0  0  0  0
   -1.0616    3.7584    0.8967 H   0  0  0  0  0  0  0  0  0  0  0  0
   -0.2759    4.3385   -0.5792 H   0  0  0  0  0  0  0  0  0  0  0  0
   -3.2785    3.8039   -0.2665 H   0  0  0  0  0  0  0  0  0  0  0  0
   -2.4929    4.3852   -1.7410 H   0  0  0  0  0  0  0  0  0  0  0  0
   -2.5097    5.3993   -0.2891 H   0  0  0  0  0  0  0  0  0  0  0  0
  1  2  1  0
  1  6  1  0
  1  7  1  0
  1 24  1  0
  2  3  1  0
  2  8  1  0
  2  9  1  0
  3  4  1  0
  4  5  1  0
  4 10  1  0
  4 11  1  0
  5 12  1  0
  5 13  1  0
  5 14  1  0
 15 16  1  0
 15 21  1  0
 15 22  1  0
 15 23  1  0
 16 17  1  0
 16 25  1  0
 17 18  1  0
 17 26  1  0
 17 27  1  0
 18 19  1  0
 19 20  1  0
 19 28  1  0
 19 29  1  0
 20 30  1  0
 20 31  1  0
 20 32  1  0
M  RAD  1  16   2
M  END
>  <reaction>  (10) 
rmg_rxn_214

>  <mol_properties>  (10) 
{"0": {"label": "*3", "atom_type": "Cs"}, "1": {"label": "*4", "atom_type": "Cs"}, "15": {"label": "*1", "atom_type": "Cs"}, "16": {"label": "*0", "atom_type": "Cs"}, "23": {"label": "*2", "atom_type": "H0"}}

>  <type>  (10) 
unop_6

>  <geom_source>  (10) 
Heuristics

$$$$

     RDKit          3D

 32 30  0  0  0  0  0  0  0  0999 V2000
    2.1620   -1.2853   -0.3869 C   0  0  0  0  0  0  0  0  0  0  0  0
    1.7594   -2.4768    0.4663 C   0  0  0  0  0  0  0  0  0  0  0  0
    0.0317   -2.4809    1.0078 S   0  0  0  0  0  0  0  0  0  0  0  0
   -0.0689   -0.9531    1.9743 C   0  0  0  0  0  0  0  0  0  0  0  0
    0.8603   -0.8908    3.1752 C   0  0  0  0  0  0  0  0  0  0  0  0
    2.1116   -0.3536    0.1791 H   0  0  0  0  0  0  0  0  0  0  0  0
    3.1900   -1.4006   -0.7373 H   0  0  0  0  0  0  0  0  0  0  0  0
    2.4126   -2.5729    1.3351 H   0  0  0  0  0  0  0  0  0  0  0  0
    1.8550   -3.4030   -0.1029 H   0  0  0  0  0  0  0  0  0  0  0  0
    0.0859   -0.0963    1.3165 H   0  0  0  0  0  0  0  0  0  0  0  0
   -1.1110   -0.9180    2.2962 H   0  0  0  0  0  0  0  0  0  0  0  0
    1.9080   -0.8836    2.8697 H   0  0  0  0  0  0  0  0  0  0  0  0
    0.6795    0.0221    3.7469 H   0  0  0  0  0  0  0  0  0  0  0  0
    0.7054   -1.7474    3.8322 H   0  0  0  0  0  0  0  0  0  0  0  0
    0.0492   -0.0235   -2.8116 C   0  0  0  0  0  0  0  0  0  0  0  0
    0.0492   -0.0235   -1.2887 C   0  0  0  0  0  3  0  0  0  0  0  0
    0.0492    1.3695   -0.6932 C   0  0  0  0  0  0  0  0  0  0  0  0
   -1.1338    2.0331   -1.0608 O   0  0  0  0  0  0  0  0  0  0  0  0
   -1.2045    3.3512   -0.5799 C   0  0  0  0  0  0  0  0  0  0  0  0
   -2.5078    3.9690   -1.0307 C   0  0  0  0  0  0  0  0  0  0  0  0
    0.9313    0.4908   -3.2013 H   0  0  0  0  0  0  0  0  0  0  0  0
   -0.8335    0.4862   -3.1977 H   0  0  0  0  0  0  0  0  0  0  0  0
    0.0547   -1.0414   -3.2043 H   0  0  0  0  0  0  0  0  0  0  0  0
    1.1070   -0.6553   -0.8372 H   0  0  0  0  0  0  0  0  0  0  0  0
   -0.8252   -0.5615   -0.9134 H   0  0  0  0  0  0  0  0  0  0  0  0
    0.9234    1.9346   -1.0536 H   0  0  0  0  0  0  0  0  0  0  0  0
    0.1240    1.3156    0.4028 H   0  0  0  0  0  0  0  0  0  0  0  0
   -1.1373    3.3541    0.5182 H   0  0  0  0  0  0  0  0  0  0  0  0
   -0.3517    3.9342   -0.9578 H   0  0  0  0  0  0  0  0  0  0  0  0
   -3.3542    3.3996   -0.6451 H   0  0  0  0  0  0  0  0  0  0  0  0
   -2.5687    3.9808   -2.1196 H   0  0  0  0  0  0  0  0  0  0  0  0
   -2.5855    4.9950   -0.6677 H   0  0  0  0  0  0  0  0  0  0  0  0
  1  2  1  0
  1  6  1  0
  1  7  1  0
  1 24  1  0
  2  3  1  0
  2  8  1  0
  2  9  1  0
  3  4  1  0
  4  5  1  0
  4 10  1  0
  4 11  1  0
  5 12  1  0
  5 13  1  0
  5 14  1  0
 15 16  1  0
 15 21  1  0
 15 22  1  0
 15 23  1  0
 16 17  1  0
 16 25  1  0
 17 18  1  0
 17 26  1  0
 17 27  1  0
 18 19  1  0
 19 20  1  0
 19 28  1  0
 19 29  1  0
 20 30  1  0
 20 31  1  0
 20 32  1  0
M  RAD  1  16   2
M  END
>  <reaction>  (11) 
rmg_rxn_214

>  <mol_properties>  (11) 
{"0": {"label": "*3", "atom_type": "Cs"}, "1": {"label": "*4", "atom_type": "Cs"}, "15": {"label": "*1", "atom_type": "Cs"}, "16": {"label": "*0", "atom_type": "Cs"}, "23": {"label": "*2", "atom_type": "H0"}}

>  <type>  (11) 
unop_7

>  <geom_source>  (11) 
Heuristics

$$$$

     RDKit          3D

 32 30  0  0  0  0  0  0  0  0999 V2000
    0.4196   -1.6404    0.7377 C   0  0  0  0  0  0  0  0  0  0  0  0
    1.5849   -0.6829    0.9244 C   0  0  0  0  0  0  0  0  0  0  0  0
    2.7267   -0.5851   -0.4773 S   0  0  0  0  0  0  0  0  0  0  0  0
    3.3266   -2.2890   -0.6003 C   0  0  0  0  0  0  0  0  0  0  0  0
    4.0484   -2.8061    0.6330 C   0  0  0  0  0  0  0  0  0  0  0  0
    0.7601   -2.6747    0.6650 H   0  0  0  0  0  0  0  0  0  0  0  0
   -0.2613   -1.5789    1.5895 H   0  0  0  0  0  0  0  0  0  0  0  0
    2.1429   -0.9200    1.8317 H   0  0  0  0  0  0  0  0  0  0  0  0
    1.2232    0.3406    1.0363 H   0  0  0  0  0  0  0  0  0  0  0  0
    2.4995   -2.9467   -0.8726 H   0  0  0  0  0  0  0  0  0  0  0  0
    4.0035   -2.2645   -1.4560 H   0  0  0  0  0  0  0  0  0  0  0  0
    3.3758   -2.8761    1.4895 H   0  0  0  0  0  0  0  0  0  0  0  0
    4.4472   -3.8058    0.4471 H   0  0  0  0  0  0  0  0  0  0  0  0
    4.8749   -2.1485    0.9049 H   0  0  0  0  0  0  0  0  0  0  0  0
   -1.6932   -0.3786   -1.6870 C   0  0  0  0  0  0  0  0  0  0  0  0
   -1.6932   -0.3786   -0.1641 C   0  0  0  0  0  3  0  0  0  0  0  0
   -1.6932    1.0144    0.4314 C   0  0  0  0  0  0  0  0  0  0  0  0
   -2.8762    1.6780    0.0638 O   0  0  0  0  0  0  0  0  0  0  0  0
   -2.9469    2.9961    0.5447 C   0  0  0  0  0  0  0  0  0  0  0  0
   -4.2502    3.6139    0.0938 C   0  0  0  0  0  0  0  0  0  0  0  0
   -0.8111    0.1357   -2.0767 H   0  0  0  0  0  0  0  0  0  0  0  0
   -2.5759    0.1311   -2.0731 H   0  0  0  0  0  0  0  0  0  0  0  0
   -1.6877   -1.3965   -2.0797 H   0  0  0  0  0  0  0  0  0  0  0  0
   -0.6354   -1.0104    0.2874 H   0  0  0  0  0  0  0  0  0  0  0  0
   -2.5676   -0.9166    0.2111 H   0  0  0  0  0  0  0  0  0  0  0  0
   -0.8190    1.5795    0.0710 H   0  0  0  0  0  0  0  0  0  0  0  0
   -1.6184    0.9605    1.5274 H   0  0  0  0  0  0  0  0  0  0  0  0
   -2.8796    2.9989    1.6428 H   0  0  0  0  0  0  0  0  0  0  0  0
   -2.0940    3.5791    0.1668 H   0  0  0  0  0  0  0  0  0  0  0  0
   -5.0966    3.0445    0.4795 H   0  0  0  0  0  0  0  0  0  0  0  0
   -4.3110    3.6257   -0.9950 H   0  0  0  0  0  0  0  0  0  0  0  0
   -4.3278    4.6399    0.4569 H   0  0  0  0  0  0  0  0  0  0  0  0
  1  2  1  0
  1  6  1  0
  1  7  1  0
  1 24  1  0
  2  3  1  0
  2  8  1  0
  2  9  1  0
  3  4  1  0
  4  5  1  0
  4 10  1  0
  4 11  1  0
  5 12  1  0
  5 13  1  0
  5 14  1  0
 15 16  1  0
 15 21  1  0
 15 22  1  0
 15 23  1  0
 16 17  1  0
 16 25  1  0
 17 18  1  0
 17 26  1  0
 17 27  1  0
 18 19  1  0
 19 20  1  0
 19 28  1  0
 19 29  1  0
 20 30  1  0
 20 31  1  0
 20 32  1  0
M  RAD  1  16   2
M  END
>  <reaction>  (12) 
rmg_rxn_214

>  <mol_properties>  (12) 
{"0": {"label": "*3", "atom_type": "Cs"}, "1": {"label": "*4", "atom_type": "Cs"}, "15": {"label": "*1", "atom_type": "Cs"}, "16": {"label": "*0", "atom_type": "Cs"}, "23": {"label": "*2", "atom_type": "H0"}}

>  <type>  (12) 
unop_8

>  <geom_source>  (12) 
Heuristics

$$$$

     RDKit          3D

 32 30  0  0  0  0  0  0  0  0999 V2000
    1.8205   -0.5642    0.8100 C   0  0  0  0  0  0  0  0  0  0  0  0
    2.2572   -1.6518   -0.1576 C   0  0  0  0  0  0  0  0  0  0  0  0
    0.9054   -2.5302   -0.9817 S   0  0  0  0  0  0  0  0  0  0  0  0
    0.0124   -3.2547    0.4169 C   0  0  0  0  0  0  0  0  0  0  0  0
    0.8247   -4.2162    1.2685 C   0  0  0  0  0  0  0  0  0  0  0  0
    1.2829   -0.9811    1.6633 H   0  0  0  0  0  0  0  0  0  0  0  0
    2.6911   -0.0320    1.1995 H   0  0  0  0  0  0  0  0  0  0  0  0
    2.9117   -2.3725    0.3353 H   0  0  0  0  0  0  0  0  0  0  0  0
    2.8279   -1.2217   -0.9823 H   0  0  0  0  0  0  0  0  0  0  0  0
   -0.4142   -2.4574    1.0278 H   0  0  0  0  0  0  0  0  0  0  0  0
   -0.8252   -3.7743   -0.0513 H   0  0  0  0  0  0  0  0  0  0  0  0
    1.6435   -3.7049    1.7776 H   0  0  0  0  0  0  0  0  0  0  0  0
    0.1930   -4.6682    2.0364 H   0  0  0  0  0  0  0  0  0  0  0  0
    1.2510   -5.0127    0.6576 H   0  0  0  0  0  0  0  0  0  0  0  0
   -0.2923    0.6976   -1.6148 C   0  0  0  0  0  0  0  0  0  0  0  0
   -0.2923    0.6976   -0.0919 C   0  0  0  0  0  3  0  0  0  0  0  0
   -0.2923    2.0906    0.5037 C   0  0  0  0  0  0  0  0  0  0  0  0
   -1.4753    2.7542    0.1361 O   0  0  0  0  0  0  0  0  0  0  0  0
   -1.5460    4.0723    0.6169 C   0  0  0  0  0  0  0  0  0  0  0  0
   -2.8493    4.6901    0.1661 C   0  0  0  0  0  0  0  0  0  0  0  0
    0.5898    1.2119   -2.0044 H   0  0  0  0  0  0  0  0  0  0  0  0
   -1.1750    1.2072   -2.0008 H   0  0  0  0  0  0  0  0  0  0  0  0
   -0.2868   -0.3203   -2.0074 H   0  0  0  0  0  0  0  0  0  0  0  0
    0.7655    0.0658    0.3597 H   0  0  0  0  0  0  0  0  0  0  0  0
   -1.1667    0.1596    0.2834 H   0  0  0  0  0  0  0  0  0  0  0  0
    0.5819    2.6557    0.1433 H   0  0  0  0  0  0  0  0  0  0  0  0
   -0.2175    2.0367    1.5997 H   0  0  0  0  0  0  0  0  0  0  0  0
   -1.4788    4.0751    1.7150 H   0  0  0  0  0  0  0  0  0  0  0  0
   -0.6931    4.6553    0.2391 H   0  0  0  0  0  0  0  0  0  0  0  0
   -3.6957    4.1207    0.5518 H   0  0  0  0  0  0  0  0  0  0  0  0
   -2.9101    4.7019   -0.9227 H   0  0  0  0  0  0  0  0  0  0  0  0
   -2.9269    5.7161    0.5292 H   0  0  0  0  0  0  0  0  0  0  0  0
  1  2  1  0
  1  6  1  0
  1  7  1  0
  1 24  1  0
  2  3  1  0
  2  8  1  0
  2  9  1  0
  3  4  1  0
  4  5  1  0
  4 10  1  0
  4 11  1  0
  5 12  1  0
  5 13  1  0
  5 14  1  0
 15 16  1  0
 15 21  1  0
 15 22  1  0
 15 23  1  0
 16 17  1  0
 16 25  1  0
 17 18  1  0
 17 26  1  0
 17 27  1  0
 18 19  1  0
 19 20  1  0
 19 28  1  0
 19 29  1  0
 20 30  1  0
 20 31  1  0
 20 32  1  0
M  RAD  1  16   2
M  END
>  <reaction>  (13) 
rmg_rxn_214

>  <mol_properties>  (13) 
{"0": {"label": "*3", "atom_type": "Cs"}, "1": {"label": "*4", "atom_type": "Cs"}, "15": {"label": "*1", "atom_type": "Cs"}, "16": {"label": "*0", "atom_type": "Cs"}, "23": {"label": "*2", "atom_type": "H0"}}

>  <type>  (13) 
unop_9

>  <geom_source>  (13) 
Heuristics

$$$$

     RDKit          3D

 32 30  0  0  0  0  0  0  0  0999 V2000
    0.5853   -1.3023    1.0402 C   0  0  0  0  0  0  0  0  0  0  0  0
    1.8627   -0.6333    0.5605 C   0  0  0  0  0  0  0  0  0  0  0  0
    2.4559   -1.1886   -1.0574 S   0  0  0  0  0  0  0  0  0  0  0  0
    2.7391   -2.9544   -0.7745 C   0  0  0  0  0  0  0  0  0  0  0  0
    3.7628   -3.2761    0.3017 C   0  0  0  0  0  0  0  0  0  0  0  0
    0.7359   -2.3680    1.2205 H   0  0  0  0  0  0  0  0  0  0  0  0
    0.2533   -0.8548    1.9797 H   0  0  0  0  0  0  0  0  0  0  0  0
    2.6605   -0.7424    1.2971 H   0  0  0  0  0  0  0  0  0  0  0  0
    1.7045    0.4379    0.4251 H   0  0  0  0  0  0  0  0  0  0  0  0
    1.7874   -3.4463   -0.5670 H   0  0  0  0  0  0  0  0  0  0  0  0
    3.0777   -3.3216   -1.7447 H   0  0  0  0  0  0  0  0  0  0  0  0
    3.4222   -2.9523    1.2866 H   0  0  0  0  0  0  0  0  0  0  0  0
    3.9334   -4.3538    0.3521 H   0  0  0  0  0  0  0  0  0  0  0  0
    4.7138   -2.7842    0.0941 H   0  0  0  0  0  0  0  0  0  0  0  0
   -1.5275   -0.0405   -1.3845 C   0  0  0  0  0  0  0  0  0  0  0  0
   -1.5275   -0.0405    0.1384 C   0  0  0  0  0  3  0  0  0  0  0  0
   -1.5275    1.3526    0.7339 C   0  0  0  0  0  0  0  0  0  0  0  0
   -2.7105    2.0162    0.3663 O   0  0  0  0  0  0  0  0  0  0  0  0
   -2.7812    3.3343    0.8472 C   0  0  0  0  0  0  0  0  0  0  0  0
   -4.0845    3.9520    0.3964 C   0  0  0  0  0  0  0  0  0  0  0  0
   -0.6454    0.4739   -1.7741 H   0  0  0  0  0  0  0  0  0  0  0  0
   -2.4102    0.4692   -1.7706 H   0  0  0  0  0  0  0  0  0  0  0  0
   -1.5220   -1.0583   -1.7772 H   0  0  0  0  0  0  0  0  0  0  0  0
   -0.4697   -0.6722    0.5899 H   0  0  0  0  0  0  0  0  0  0  0  0
   -2.4019   -0.5784    0.5137 H   0  0  0  0  0  0  0  0  0  0  0  0
   -0.6533    1.9177    0.3735 H   0  0  0  0  0  0  0  0  0  0  0  0
   -1.4527    1.2987    1.8300 H   0  0  0  0  0  0  0  0  0  0  0  0
   -2.7140    3.3371    1.9453 H   0  0  0  0  0  0  0  0  0  0  0  0
   -1.9284    3.9172    0.4693 H   0  0  0  0  0  0  0  0  0  0  0  0
   -4.9309    3.3826    0.7821 H   0  0  0  0  0  0  0  0  0  0  0  0
   -4.1453    3.9639   -0.6924 H   0  0  0  0  0  0  0  0  0  0  0  0
   -4.1622    4.9781    0.7594 H   0  0  0  0  0  0  0  0  0  0  0  0
  1  2  1  0
  1  6  1  0
  1  7  1  0
  1 24  1  0
  2  3  1  0
  2  8  1  0
  2  9  1  0
  3  4  1  0
  4  5  1  0
  4 10  1  0
  4 11  1  0
  5 12  1  0
  5 13  1  0
  5 14  1  0
 15 16  1  0
 15 21  1  0
 15 22  1  0
 15 23  1  0
 16 17  1  0
 16 25  1  0
 17 18  1  0
 17 26  1  0
 17 27  1  0
 18 19  1  0
 19 20  1  0
 19 28  1  0
 19 29  1  0
 20 30  1  0
 20 31  1  0
 20 32  1  0
M  RAD  1  16   2
M  END
>  <reaction>  (14) 
rmg_rxn_214

>  <mol_properties>  (14) 
{"0": {"label": "*3", "atom_type": "Cs"}, "1": {"label": "*4", "atom_type": "Cs"}, "15": {"label": "*1", "atom_type": "Cs"}, "16": {"label": "*0", "atom_type": "Cs"}, "23": {"label": "*2", "atom_type": "H0"}}

>  <type>  (14) 
unop_10

>  <geom_source>  (14) 
Heuristics

$$$$

     RDKit          3D

 32 30  0  0  0  0  0  0  0  0999 V2000
    1.8068   -1.8085   -0.5795 C   0  0  0  0  0  0  0  0  0  0  0  0
    1.5172   -2.4623    0.7615 C   0  0  0  0  0  0  0  0  0  0  0  0
    0.2124   -1.6681    1.7336 S   0  0  0  0  0  0  0  0  0  0  0  0
    0.8784   -0.0022    1.9772 C   0  0  0  0  0  0  0  0  0  0  0  0
    2.2018    0.0576    2.7220 C   0  0  0  0  0  0  0  0  0  0  0  0
    2.2132   -0.8035   -0.4544 H   0  0  0  0  0  0  0  0  0  0  0  0
    2.5439   -2.3932   -1.1344 H   0  0  0  0  0  0  0  0  0  0  0  0
    2.4244   -2.5366    1.3633 H   0  0  0  0  0  0  0  0  0  0  0  0
    1.1508   -3.4801    0.6183 H   0  0  0  0  0  0  0  0  0  0  0  0
    0.9498    0.5051    1.0137 H   0  0  0  0  0  0  0  0  0  0  0  0
    0.0984    0.5087    2.5442 H   0  0  0  0  0  0  0  0  0  0  0  0
    3.0034   -0.4131    2.1504 H   0  0  0  0  0  0  0  0  0  0  0  0
    2.4909    1.0962    2.8976 H   0  0  0  0  0  0  0  0  0  0  0  0
    2.1300   -0.4495    3.6848 H   0  0  0  0  0  0  0  0  0  0  0  0
   -0.3059   -0.5467   -3.0042 C   0  0  0  0  0  0  0  0  0  0  0  0
   -0.3059   -0.5467   -1.4813 C   0  0  0  0  0  3  0  0  0  0  0  0
   -0.3059    0.8463   -0.8858 C   0  0  0  0  0  0  0  0  0  0  0  0
   -1.4889    1.5099   -1.2534 O   0  0  0  0  0  0  0  0  0  0  0  0
   -1.5596    2.8280   -0.7725 C   0  0  0  0  0  0  0  0  0  0  0  0
   -2.8630    3.4458   -1.2234 C   0  0  0  0  0  0  0  0  0  0  0  0
    0.5761   -0.0324   -3.3939 H   0  0  0  0  0  0  0  0  0  0  0  0
   -1.1887   -0.0370   -3.3903 H   0  0  0  0  0  0  0  0  0  0  0  0
   -0.3005   -1.5646   -3.3969 H   0  0  0  0  0  0  0  0  0  0  0  0
    0.7519   -1.1785   -1.0298 H   0  0  0  0  0  0  0  0  0  0  0  0
   -1.1803   -1.0847   -1.1061 H   0  0  0  0  0  0  0  0  0  0  0  0
    0.5683    1.4114   -1.2462 H   0  0  0  0  0  0  0  0  0  0  0  0
   -0.2311    0.7924    0.2102 H   0  0  0  0  0  0  0  0  0  0  0  0
   -1.4924    2.8308    0.3256 H   0  0  0  0  0  0  0  0  0  0  0  0
   -0.7068    3.4110   -1.1504 H   0  0  0  0  0  0  0  0  0  0  0  0
   -3.7093    2.8764   -0.8377 H   0  0  0  0  0  0  0  0  0  0  0  0
   -2.9238    3.4576   -2.3122 H   0  0  0  0  0  0  0  0  0  0  0  0
   -2.9406    4.4718   -0.8603 H   0  0  0  0  0  0  0  0  0  0  0  0
  1  2  1  0
  1  6  1  0
  1  7  1  0
  1 24  1  0
  2  3  1  0
  2  8  1  0
  2  9  1  0
  3  4  1  0
  4  5  1  0
  4 10  1  0
  4 11  1  0
  5 12  1  0
  5 13  1  0
  5 14  1  0
 15 16  1  0
 15 21  1  0
 15 22  1  0
 15 23  1  0
 16 17  1  0
 16 25  1  0
 17 18  1  0
 17 26  1  0
 17 27  1  0
 18 19  1  0
 19 20  1  0
 19 28  1  0
 19 29  1  0
 20 30  1  0
 20 31  1  0
 20 32  1  0
M  RAD  1  16   2
M  END
>  <reaction>  (15) 
rmg_rxn_214

>  <mol_properties>  (15) 
{"0": {"label": "*3", "atom_type": "Cs"}, "1": {"label": "*4", "atom_type": "Cs"}, "15": {"label": "*1", "atom_type": "Cs"}, "16": {"label": "*0", "atom_type": "Cs"}, "23": {"label": "*2", "atom_type": "H0"}}

>  <type>  (15) 
unop_11

>  <geom_source>  (15) 
Heuristics

$$$$

     RDKit          3D

 32 30  0  0  0  0  0  0  0  0999 V2000
    1.3932   -0.6566    1.0875 C   0  0  0  0  0  0  0  0  0  0  0  0
    2.2500   -1.1683   -0.0587 C   0  0  0  0  0  0  0  0  0  0  0  0
    1.3833   -2.2189   -1.2517 S   0  0  0  0  0  0  0  0  0  0  0  0
    0.8310   -3.5973   -0.2157 C   0  0  0  0  0  0  0  0  0  0  0  0
    1.9451   -4.3773    0.4625 C   0  0  0  0  0  0  0  0  0  0  0  0
    1.0527   -1.4728    1.7270 H   0  0  0  0  0  0  0  0  0  0  0  0
    1.9677    0.0311    1.7120 H   0  0  0  0  0  0  0  0  0  0  0  0
    3.1297   -1.6939    0.3164 H   0  0  0  0  0  0  0  0  0  0  0  0
    2.6149   -0.3362   -0.6629 H   0  0  0  0  0  0  0  0  0  0  0  0
    0.1073   -3.2345    0.5161 H   0  0  0  0  0  0  0  0  0  0  0  0
    0.2832   -4.2388   -0.9080 H   0  0  0  0  0  0  0  0  0  0  0  0
    2.4782   -3.7620    1.1893 H   0  0  0  0  0  0  0  0  0  0  0  0
    1.5342   -5.2357    0.9987 H   0  0  0  0  0  0  0  0  0  0  0  0
    2.6681   -4.7395   -0.2692 H   0  0  0  0  0  0  0  0  0  0  0  0
   -0.7196    0.6052   -1.3373 C   0  0  0  0  0  0  0  0  0  0  0  0
   -0.7196    0.6052    0.1856 C   0  0  0  0  0  3  0  0  0  0  0  0
   -0.7196    1.9982    0.7812 C   0  0  0  0  0  0  0  0  0  0  0  0
   -1.9026    2.6618    0.4136 O   0  0  0  0  0  0  0  0  0  0  0  0
   -1.9733    3.9799    0.8945 C   0  0  0  0  0  0  0  0  0  0  0  0
   -3.2766    4.5977    0.4436 C   0  0  0  0  0  0  0  0  0  0  0  0
    0.1625    1.1195   -1.7269 H   0  0  0  0  0  0  0  0  0  0  0  0
   -1.6023    1.1148   -1.7233 H   0  0  0  0  0  0  0  0  0  0  0  0
   -0.7141   -0.4127   -1.7299 H   0  0  0  0  0  0  0  0  0  0  0  0
    0.3382   -0.0266    0.6372 H   0  0  0  0  0  0  0  0  0  0  0  0
   -1.5940    0.0672    0.5609 H   0  0  0  0  0  0  0  0  0  0  0  0
    0.1546    2.5633    0.4208 H   0  0  0  0  0  0  0  0  0  0  0  0
   -0.6448    1.9443    1.8772 H   0  0  0  0  0  0  0  0  0  0  0  0
   -1.9061    3.9827    1.9925 H   0  0  0  0  0  0  0  0  0  0  0  0
   -1.1205    4.5629    0.5166 H   0  0  0  0  0  0  0  0  0  0  0  0
   -4.1230    4.0283    0.8293 H   0  0  0  0  0  0  0  0  0  0  0  0
   -3.3374    4.6095   -0.6452 H   0  0  0  0  0  0  0  0  0  0  0  0
   -3.3542    5.6237    0.8067 H   0  0  0  0  0  0  0  0  0  0  0  0
  1  2  1  0
  1  6  1  0
  1  7  1  0
  1 24  1  0
  2  3  1  0
  2  8  1  0
  2  9  1  0
  3  4  1  0
  4  5  1  0
  4 10  1  0
  4 11  1  0
  5 12  1  0
  5 13  1  0
  5 14  1  0
 15 16  1  0
 15 21  1  0
 15 22  1  0
 15 23  1  0
 16 17  1  0
 16 25  1  0
 17 18  1  0
 17 26  1  0
 17 27  1  0
 18 19  1  0
 19 20  1  0
 19 28  1  0
 19 29  1  0
 20 30  1  0
 20 31  1  0
 20 32  1  0
M  RAD  1  16   2
M  END
>  <reaction>  (16) 
rmg_rxn_214

>  <mol_properties>  (16) 
{"0": {"label": "*3", "atom_type": "Cs"}, "1": {"label": "*4", "atom_type": "Cs"}, "15": {"label": "*1", "atom_type": "Cs"}, "16": {"label": "*0", "atom_type": "Cs"}, "23": {"label": "*2", "atom_type": "H0"}}

>  <type>  (16) 
unop_12

>  <geom_source>  (16) 
Heuristics

$$$$

     RDKit          3D

 32 30  0  0  0  0  0  0  0  0999 V2000
    3.8663    0.0594   -1.2215 S   0  0  0  0  0  0  0  0  0  0  0  0
   -2.8941   -0.6054    0.6555 O   0  0  0  0  0  0  0  0  0  0  0  0
    4.1779   -0.6865    0.4162 C   0  0  0  0  0  0  0  0  0  0  0  0
    2.2123   -0.6818   -1.4591 C   0  0  0  0  0  0  0  0  0  0  0  0
   -3.9568    0.2663    0.9911 C   0  0  0  0  0  0  0  0  0  0  0  0
   -1.7376    0.1086    0.2513 C   0  0  0  0  0  0  0  0  0  0  0  0
    5.5306   -0.2317    0.9424 C   0  0  0  0  0  0  0  0  0  0  0  0
    1.1324    0.1995   -0.8476 C   0  0  0  0  0  0  0  0  0  0  0  0
   -3.8341    0.7406    2.4365 C   0  0  0  0  0  0  0  0  0  0  0  0
   -2.4354    0.3457   -2.1757 C   0  0  0  0  0  0  0  0  0  0  0  0
   -1.4032   -0.2143   -1.2037 C   0  0  0  0  0  3  0  0  0  0  0  0
    4.1758   -1.7938    0.3286 H   0  0  0  0  0  0  0  0  0  0  0  0
    3.3880   -0.3767    1.1318 H   0  0  0  0  0  0  0  0  0  0  0  0
    2.0243   -0.7672   -2.5498 H   0  0  0  0  0  0  0  0  0  0  0  0
    2.1620   -1.7023   -1.0241 H   0  0  0  0  0  0  0  0  0  0  0  0
   -4.9062   -0.3015    0.8955 H   0  0  0  0  0  0  0  0  0  0  0  0
   -4.0411    1.1335    0.2959 H   0  0  0  0  0  0  0  0  0  0  0  0
    6.3372   -0.5466    0.2468 H   0  0  0  0  0  0  0  0  0  0  0  0
    5.5476    0.8738    1.0481 H   0  0  0  0  0  0  0  0  0  0  0  0
    5.7171   -0.6891    1.9369 H   0  0  0  0  0  0  0  0  0  0  0  0
    1.1708    1.2164   -1.2925 H   0  0  0  0  0  0  0  0  0  0  0  0
    1.2651    0.2750    0.2513 H   0  0  0  0  0  0  0  0  0  0  0  0
   -0.0345   -0.3195   -1.0903 H   0  0  0  0  0  0  0  0  0  0  0  0
   -4.7176    1.3581    2.7030 H   0  0  0  0  0  0  0  0  0  0  0  0
   -2.9187    1.3545    2.5682 H   0  0  0  0  0  0  0  0  0  0  0  0
   -3.7872   -0.1336    3.1199 H   0  0  0  0  0  0  0  0  0  0  0  0
   -1.7941    1.2151    0.3835 H   0  0  0  0  0  0  0  0  0  0  0  0
   -0.8877   -0.2346    0.8771 H   0  0  0  0  0  0  0  0  0  0  0  0
   -2.1082    0.1384   -3.2156 H   0  0  0  0  0  0  0  0  0  0  0  0
   -3.4239   -0.1327   -2.0105 H   0  0  0  0  0  0  0  0  0  0  0  0
   -2.5281    1.4446   -2.0458 H   0  0  0  0  0  0  0  0  0  0  0  0
   -1.2992   -1.3121   -1.3434 H   0  0  0  0  0  0  0  0  0  0  0  0
  1  3  1  0
  1  4  1  0
  2  5  1  0
  2  6  1  0
  3  7  1  0
  3 12  1  0
  3 13  1  0
  4  8  1  0
  4 14  1  0
  4 15  1  0
  5  9  1  0
  5 16  1  0
  5 17  1  0
  6 11  1  0
  6 27  1  0
  6 28  1  0
  7 18  1  0
  7 19  1  0
  7 20  1  0
  8 21  1  0
  8 22  1  0
  8 23  1  0
  9 24  1  0
  9 25  1  0
  9 26  1  0
 10 11  1  0
 10 29  1  0
 10 30  1  0
 10 31  1  0
 11 32  1  0
M  RAD  1  11   2
M  END
>  <reaction>  (17) 
rmg_rxn_214

>  <mol_properties>  (17) 
{"0": {"label": "*3", "atom_type": "Cs"}, "1": {"label": "*4", "atom_type": "Cs"}, "15": {"label": "*1", "atom_type": "Cs"}, "16": {"label": "*0", "atom_type": "Cs"}, "23": {"label": "*2", "atom_type": "H0"}}

>  <type>  (17) 
unop_13

>  <geom_source>  (17) 
AutoTST

$$$$

     RDKit          3D

 32 30  0  0  0  0  0  0  0  0999 V2000
    0.9328   -0.9308    1.1756 C   0  0  0  0  0  0  0  0  0  0  0  0
    2.0973   -0.7995    0.2080 C   0  0  0  0  0  0  0  0  0  0  0  0
    1.9476   -1.7801   -1.3066 S   0  0  0  0  0  0  0  0  0  0  0  0
    1.8546   -3.4689   -0.6602 C   0  0  0  0  0  0  0  0  0  0  0  0
    3.0657   -3.9172    0.1410 C   0  0  0  0  0  0  0  0  0  0  0  0
    0.8615   -1.9419    1.5800 H   0  0  0  0  0  0  0  0  0  0  0  0
    1.0626   -0.2490    2.0190 H   0  0  0  0  0  0  0  0  0  0  0  0
    3.0423   -1.0343    0.7009 H   0  0  0  0  0  0  0  0  0  0  0  0
    2.1782    0.2266   -0.1543 H   0  0  0  0  0  0  0  0  0  0  0  0
    0.9379   -3.5858   -0.0799 H   0  0  0  0  0  0  0  0  0  0  0  0
    1.7406   -4.0831   -1.5549 H   0  0  0  0  0  0  0  0  0  0  0  0
    3.1718   -3.3401    1.0611 H   0  0  0  0  0  0  0  0  0  0  0  0
    2.9655   -4.9677    0.4228 H   0  0  0  0  0  0  0  0  0  0  0  0
    3.9816   -3.8001   -0.4393 H   0  0  0  0  0  0  0  0  0  0  0  0
   -1.1800    0.3310   -1.2491 C   0  0  0  0  0  0  0  0  0  0  0  0
   -1.1800    0.3310    0.2738 C   0  0  0  0  0  3  0  0  0  0  0  0
   -1.1800    1.7241    0.8693 C   0  0  0  0  0  0  0  0  0  0  0  0
   -2.3630    2.3877    0.5017 O   0  0  0  0  0  0  0  0  0  0  0  0
   -2.4337    3.7058    0.9826 C   0  0  0  0  0  0  0  0  0  0  0  0
   -3.7370    4.3235    0.5317 C   0  0  0  0  0  0  0  0  0  0  0  0
   -0.2979    0.8454   -1.6388 H   0  0  0  0  0  0  0  0  0  0  0  0
   -2.0627    0.8407   -1.6352 H   0  0  0  0  0  0  0  0  0  0  0  0
   -1.1745   -0.6868   -1.6418 H   0  0  0  0  0  0  0  0  0  0  0  0
   -0.1221   -0.3007    0.7253 H   0  0  0  0  0  0  0  0  0  0  0  0
   -2.0543   -0.2069    0.6490 H   0  0  0  0  0  0  0  0  0  0  0  0
   -0.3058    2.2892    0.5089 H   0  0  0  0  0  0  0  0  0  0  0  0
   -1.1052    1.6702    1.9653 H   0  0  0  0  0  0  0  0  0  0  0  0
   -2.3664    3.7086    2.0807 H   0  0  0  0  0  0  0  0  0  0  0  0
   -1.5808    4.2887    0.6047 H   0  0  0  0  0  0  0  0  0  0  0  0
   -4.5834    3.7541    0.9174 H   0  0  0  0  0  0  0  0  0  0  0  0
   -3.7978    4.3354   -0.5571 H   0  0  0  0  0  0  0  0  0  0  0  0
   -3.8146    5.3495    0.8948 H   0  0  0  0  0  0  0  0  0  0  0  0
  1  2  1  0
  1  6  1  0
  1  7  1  0
  1 24  1  0
  2  3  1  0
  2  8  1  0
  2  9  1  0
  3  4  1  0
  4  5  1  0
  4 10  1  0
  4 11  1  0
  5 12  1  0
  5 13  1  0
  5 14  1  0
 15 16  1  0
 15 21  1  0
 15 22  1  0
 15 23  1  0
 16 17  1  0
 16 25  1  0
 17 18  1  0
 17 26  1  0
 17 27  1  0
 18 19  1  0
 19 20  1  0
 19 28  1  0
 19 29  1  0
 20 30  1  0
 20 31  1  0
 20 32  1  0
M  RAD  1  16   2
M  END
>  <reaction>  (18) 
rmg_rxn_214

>  <mol_properties>  (18) 
{"0": {"label": "*3", "atom_type": "Cs"}, "1": {"label": "*4", "atom_type": "Cs"}, "15": {"label": "*1", "atom_type": "Cs"}, "16": {"label": "*0", "atom_type": "Cs"}, "23": {"label": "*2", "atom_type": "H0"}}

>  <type>  (18) 
unop_14

>  <geom_source>  (18) 
gaussian_log

$$$$
