
     RDKit          3D

 15 14  0  0  0  0  0  0  0  0999 V2000
   -1.2811   -0.4129    1.0228 C   0  0  0  0  0  0  0  0  0  0  0  0
   -1.0023   -0.5809   -0.4650 C   0  0  0  0  0  0  0  0  0  0  0  0
   -2.0576    0.0568   -1.3449 C   0  0  0  0  0  0  0  0  0  0  0  0
   -2.0663    1.4464   -1.1307 O   0  0  0  0  0  0  0  0  0  0  0  0
   -3.0424    2.1072   -1.8849 C   0  0  0  0  0  0  0  0  0  0  0  0
   -2.2382   -0.8657    1.2935 H   0  0  0  0  0  0  0  0  0  0  0  0
   -1.3219    0.6426    1.2914 H   0  0  0  0  0  0  0  0  0  0  0  0
   -0.5042   -0.8881    1.6236 H   0  0  0  0  0  0  0  0  0  0  0  0
   -0.0316   -0.1460   -0.7167 H   0  0  0  0  0  0  0  0  0  0  0  0
   -0.9494   -1.6429   -0.7203 H   0  0  0  0  0  0  0  0  0  0  0  0
   -1.8518   -0.1570   -2.4041 H   0  0  0  0  0  0  0  0  0  0  0  0
   -3.0491   -0.3636   -1.1124 H   0  0  0  0  0  0  0  0  0  0  0  0
   -4.0521    1.7545   -1.6343 H   0  0  0  0  0  0  0  0  0  0  0  0
   -2.8850    1.9634   -2.9626 H   0  0  0  0  0  0  0  0  0  0  0  0
   -2.9730    3.1700   -1.6570 H   0  0  0  0  0  0  0  0  0  0  0  0
  1  2  1  0
  1  6  1  0
  1  7  1  0
  1  8  1  0
  2  3  1  0
  2  9  1  0
  2 10  1  0
  3  4  1  0
  3 11  1  0
  3 12  1  0
  4  5  1  0
  5 13  1  0
  5 14  1  0
  5 15  1  0
M  END
>  <reaction>  (1) 
rmg_rxn_663

>  <mol_properties>  (1) 
{"4": {"label": "donator", "atom_type": "Cs"}, "12": {"label": "d_hydrogen", "atom_type": "H0"}}

>  <type>  (1) 
r1h

$$$$

     RDKit          3D

 17 16  0  0  0  0  0  0  0  0999 V2000
    3.3619    0.3511   -1.0290 C   0  0  0  0  0  3  0  0  0  0  0  0
    2.1806    1.0643   -0.5073 C   0  0  0  0  0  0  0  0  0  0  0  0
    1.4028    0.1998    0.2757 O   0  0  0  0  0  0  0  0  0  0  0  0
    0.2433    0.8081    0.7885 C   0  0  0  0  0  0  0  0  0  0  0  0
   -0.5040   -0.1878    1.6510 C   0  0  0  0  0  0  0  0  0  0  0  0
    0.2852   -0.6298    2.8762 C   0  0  0  0  0  0  0  0  0  0  0  0
    4.1174    0.8902   -1.5820 H   0  0  0  0  0  0  0  0  0  0  0  0
    3.4399   -0.7198   -0.9141 H   0  0  0  0  0  0  0  0  0  0  0  0
    1.5724    1.4684   -1.3398 H   0  0  0  0  0  0  0  0  0  0  0  0
    2.4896    1.9442    0.0856 H   0  0  0  0  0  0  0  0  0  0  0  0
    0.5169    1.6937    1.3835 H   0  0  0  0  0  0  0  0  0  0  0  0
   -0.3954    1.1528   -0.0379 H   0  0  0  0  0  0  0  0  0  0  0  0
   -0.7611   -1.0545    1.0367 H   0  0  0  0  0  0  0  0  0  0  0  0
   -1.4466    0.2743    1.9571 H   0  0  0  0  0  0  0  0  0  0  0  0
    0.5263    0.2245    3.5136 H   0  0  0  0  0  0  0  0  0  0  0  0
    1.2220   -1.1033    2.5825 H   0  0  0  0  0  0  0  0  0  0  0  0
   -0.2849   -1.3427    3.4737 H   0  0  0  0  0  0  0  0  0  0  0  0
  1  2  1  0
  1  7  1  0
  1  8  1  0
  2  3  1  0
  2  9  1  0
  2 10  1  0
  3  4  1  0
  4  5  1  0
  4 11  1  0
  4 12  1  0
  5  6  1  0
  5 13  1  0
  5 14  1  0
  6 15  1  0
  6 16  1  0
  6 17  1  0
M  RAD  1   1   2
M  END
>  <reaction>  (2) 
rmg_rxn_663

>  <mol_properties>  (2) 
{"0": {"label": "acceptor", "atom_type": "Cs"}}

>  <type>  (2) 
r2

$$$$

     RDKit          3D

 18 17  0  0  0  0  0  0  0  0999 V2000
    2.2026   -0.7213   -0.2612 C   0  0  0  0  0  0  0  0  0  0  0  0
    1.5384    0.2638    0.6915 C   0  0  0  0  0  0  0  0  0  0  0  0
    2.2584    1.5946    0.7694 C   0  0  0  0  0  0  0  0  0  0  0  0
    2.2212    2.2185   -0.4893 O   0  0  0  0  0  0  0  0  0  0  0  0
    2.8988    3.4488   -0.5204 C   0  0  0  0  0  0  0  0  0  0  0  0
    2.7981    4.0296   -1.9118 C   0  0  0  0  0  0  0  0  0  0  0  0
    3.2294   -0.9309    0.0486 H   0  0  0  0  0  0  0  0  0  0  0  0
    2.2338   -0.3181   -1.2734 H   0  0  0  0  0  0  0  0  0  0  0  0
    1.6610   -1.6680   -0.2875 H   0  0  0  0  0  0  0  0  0  0  0  0
    1.4990   -0.1566    1.7002 H   0  0  0  0  0  0  0  0  0  0  0  0
    0.5055    0.4455    0.3835 H   0  0  0  0  0  0  0  0  0  0  0  0
    3.3038    1.4410    1.0808 H   0  0  0  0  0  0  0  0  0  0  0  0
    1.7844    2.2410    1.5226 H   0  0  0  0  0  0  0  0  0  0  0  0
    2.4596    4.1376    0.2164 H   0  0  0  0  0  0  0  0  0  0  0  0
    3.9524    3.3035   -0.2397 H   0  0  0  0  0  0  0  0  0  0  0  0
    1.7543    4.1869   -2.1856 H   0  0  0  0  0  0  0  0  0  0  0  0
    3.2472    3.3545   -2.6411 H   0  0  0  0  0  0  0  0  0  0  0  0
    3.3178    4.9878   -1.9600 H   0  0  0  0  0  0  0  0  0  0  0  0
  1  2  1  0
  1  7  1  0
  1  8  1  0
  1  9  1  0
  2  3  1  0
  2 10  1  0
  2 11  1  0
  3  4  1  0
  3 12  1  0
  3 13  1  0
  4  5  1  0
  5  6  1  0
  5 14  1  0
  5 15  1  0
  6 16  1  0
  6 17  1  0
  6 18  1  0
M  END
>  <reaction>  (3) 
rmg_rxn_663

>  <mol_properties>  (3) 
{"0": {"label": "a_hydrogen", "atom_type": "H0"}, "1": {"label": "acceptor", "atom_type": "Cs"}}

>  <type>  (3) 
r2h

$$$$

     RDKit          3D

 32 30  0  0  0  0  0  0  0  0999 V2000
    0.0053   -4.1025   -1.4706 C   0  0  0  0  0  0  0  0  0  0  0  0
    0.0409   -4.1671    0.0506 C   0  0  0  0  0  0  0  0  0  0  0  0
   -0.4491   -2.8951    0.7084 C   0  0  0  0  0  0  0  0  0  0  0  0
   -1.8130   -2.7043    0.3958 O   0  0  0  0  0  0  0  0  0  0  0  0
   -2.3313   -1.5253    0.8774 C   0  0  0  0  0  0  0  0  0  0  0  0
    0.6305   -3.2860   -1.8402 H   0  0  0  0  0  0  0  0  0  0  0  0
   -1.0109   -3.9344   -1.8274 H   0  0  0  0  0  0  0  0  0  0  0  0
    0.3718   -5.0306   -1.9112 H   0  0  0  0  0  0  0  0  0  0  0  0
   -0.5679   -5.0017    0.4076 H   0  0  0  0  0  0  0  0  0  0  0  0
    1.0621   -4.3495    0.3960 H   0  0  0  0  0  0  0  0  0  0  0  0
   -0.3285   -2.9485    1.7991 H   0  0  0  0  0  0  0  0  0  0  0  0
    0.1327   -2.0342    0.3504 H   0  0  0  0  0  0  0  0  0  0  0  0
   -1.8017   -0.5323    0.2190 H   0  0  0  0  0  0  0  0  0  0  0  0
   -2.0929   -1.3339    1.9310 H   0  0  0  0  0  0  0  0  0  0  0  0
   -3.3994   -1.4830    0.6754 H   0  0  0  0  0  0  0  0  0  0  0  0
   -1.1377    0.4559   -0.5386 C   0  0  0  0  0  3  0  0  0  0  0  0
   -0.1859    1.1082    0.4127 C   0  0  0  0  0  0  0  0  0  0  0  0
    0.5610    2.1018   -0.2545 O   0  0  0  0  0  0  0  0  0  0  0  0
    1.4762    2.7606    0.5855 C   0  0  0  0  0  0  0  0  0  0  0  0
    2.2003    3.8318   -0.2042 C   0  0  0  0  0  0  0  0  0  0  0  0
    1.2732    4.9244   -0.7200 C   0  0  0  0  0  0  0  0  0  0  0  0
   -1.9377    1.0983   -0.8983 H   0  0  0  0  0  0  0  0  0  0  0  0
   -0.6683   -0.1161   -1.3359 H   0  0  0  0  0  0  0  0  0  0  0  0
    0.4987    0.3601    0.8421 H   0  0  0  0  0  0  0  0  0  0  0  0
   -0.7344    1.5607    1.2525 H   0  0  0  0  0  0  0  0  0  0  0  0
    0.9448    3.2134    1.4377 H   0  0  0  0  0  0  0  0  0  0  0  0
    2.1963    2.0375    0.9965 H   0  0  0  0  0  0  0  0  0  0  0  0
    2.7200    3.3556   -1.0396 H   0  0  0  0  0  0  0  0  0  0  0  0
    2.9689    4.2646    0.4422 H   0  0  0  0  0  0  0  0  0  0  0  0
    0.7635    5.4252    0.1069 H   0  0  0  0  0  0  0  0  0  0  0  0
    0.5122    4.5056   -1.3783 H   0  0  0  0  0  0  0  0  0  0  0  0
    1.8289    5.6799   -1.2774 H   0  0  0  0  0  0  0  0  0  0  0  0
  1  2  1  0
  1  6  1  0
  1  7  1  0
  1  8  1  0
  2  3  1  0
  2  9  1  0
  2 10  1  0
  3  4  1  0
  3 11  1  0
  3 12  1  0
  4  5  1  0
  5 13  1  0
  5 14  1  0
  5 15  1  0
 16 17  1  0
 16 22  1  0
 16 23  1  0
 17 18  1  0
 17 24  1  0
 17 25  1  0
 18 19  1  0
 19 20  1  0
 19 26  1  0
 19 27  1  0
 20 21  1  0
 20 28  1  0
 20 29  1  0
 21 30  1  0
 21 31  1  0
 21 32  1  0
M  RAD  1  16   2
M  END
>  <reaction>  (4) 
rmg_rxn_663

>  <mol_properties>  (4) 
{"3": {"label": "*0", "atom_type": "O2s"}, "4": {"label": "*1", "atom_type": "Cs"}, "12": {"label": "*2", "atom_type": "H0"}, "15": {"label": "*3", "atom_type": "Cs"}, "16": {"label": "*4", "atom_type": "Cs"}}

>  <type>  (4) 
ts

$$$$

     RDKit          3D

 32 30  0  0  0  0  0  0  0  0999 V2000
   -0.3872   -4.7014   -0.9852 C   0  0  0  0  0  0  0  0  0  0  0  0
   -0.3872   -4.7014    0.5377 C   0  0  0  0  0  0  0  0  0  0  0  0
   -0.3872   -3.3088    1.1338 C   0  0  0  0  0  0  0  0  0  0  0  0
   -1.5722   -2.6454    0.7696 O   0  0  0  0  0  0  0  0  0  0  0  0
   -1.6330   -1.3343    1.2548 C   0  0  0  0  0  3  0  0  0  0  0  0
    0.4952   -4.1878   -1.3749 H   0  0  0  0  0  0  0  0  0  0  0  0
   -1.2696   -4.1915   -1.3716 H   0  0  0  0  0  0  0  0  0  0  0  0
   -0.3823   -5.7194   -1.3775 H   0  0  0  0  0  0  0  0  0  0  0  0
   -1.2613   -5.2396    0.9134 H   0  0  0  0  0  0  0  0  0  0  0  0
    0.4945   -5.2275    0.9140 H   0  0  0  0  0  0  0  0  0  0  0  0
   -0.3104   -3.3625    2.2299 H   0  0  0  0  0  0  0  0  0  0  0  0
    0.4852   -2.7418    0.7716 H   0  0  0  0  0  0  0  0  0  0  0  0
   -0.6444   -0.5992    0.7861 H   0  0  0  0  0  0  0  0  0  0  0  0
   -1.5910   -1.3082    2.3523 H   0  0  0  0  0  0  0  0  0  0  0  0
   -2.5787   -0.9041    0.9277 H   0  0  0  0  0  0  0  0  0  0  0  0
    0.3377    0.1310    0.3204 C   0  0  0  0  0  0  0  0  0  0  0  0
   -0.2069    1.3037   -0.4616 C   0  0  0  0  0  0  0  0  0  0  0  0
    0.5747    2.4382   -0.1864 O   0  0  0  0  0  0  0  0  0  0  0  0
    0.1464    3.5883   -0.8712 C   0  0  0  0  0  0  0  0  0  0  0  0
    1.0707    4.7424   -0.5412 C   0  0  0  0  0  0  0  0  0  0  0  0
    2.5033    4.5133   -1.0044 C   0  0  0  0  0  0  0  0  0  0  0  0
    1.3720   -0.0692    0.0383 H   0  0  0  0  0  0  0  0  0  0  0  0
    0.3069    0.3379    1.3907 H   0  0  0  0  0  0  0  0  0  0  0  0
   -1.2551    1.4949   -0.1877 H   0  0  0  0  0  0  0  0  0  0  0  0
   -0.1884    1.0886   -1.5402 H   0  0  0  0  0  0  0  0  0  0  0  0
    0.1485    3.4008   -1.9566 H   0  0  0  0  0  0  0  0  0  0  0  0
   -0.8867    3.8330   -0.5837 H   0  0  0  0  0  0  0  0  0  0  0  0
    1.0475    4.9078    0.5390 H   0  0  0  0  0  0  0  0  0  0  0  0
    0.6636    5.6433   -1.0085 H   0  0  0  0  0  0  0  0  0  0  0  0
    2.5445    4.3701   -2.0871 H   0  0  0  0  0  0  0  0  0  0  0  0
    2.9242    3.6254   -0.5328 H   0  0  0  0  0  0  0  0  0  0  0  0
    3.1375    5.3653   -0.7552 H   0  0  0  0  0  0  0  0  0  0  0  0
  1  2  1  0
  1  6  1  0
  1  7  1  0
  1  8  1  0
  2  3  1  0
  2  9  1  0
  2 10  1  0
  3  4  1  0
  3 11  1  0
  3 12  1  0
  4  5  1  0
  5 14  1  0
  5 15  1  0
 13 16  1  0
 16 17  1  0
 16 22  1  0
 16 23  1  0
 17 18  1  0
 17 24  1  0
 17 25  1  0
 18 19  1  0
 19 20  1  0
 19 26  1  0
 19 27  1  0
 20 21  1  0
 20 28  1  0
 20 29  1  0
 21 30  1  0
 21 31  1  0
 21 32  1  0
M  RAD  1   5   2
M  END
>  <reaction>  (5) 
rmg_rxn_663

>  <mol_properties>  (5) 
{"3": {"label": "*0", "atom_type": "O2s"}, "4": {"label": "*1", "atom_type": "Cs"}, "12": {"label": "*2", "atom_type": "H0"}, "15": {"label": "*3", "atom_type": "Cs"}, "16": {"label": "*4", "atom_type": "Cs"}}

>  <type>  (5) 
unop_1

>  <geom_source>  (5) 
Heuristics

$$$$

     RDKit          3D

 32 30  0  0  0  0  0  0  0  0999 V2000
   -1.0020   -3.5372   -0.1673 C   0  0  0  0  0  0  0  0  0  0  0  0
   -1.0020   -3.5372    1.3556 C   0  0  0  0  0  0  0  0  0  0  0  0
   -1.0020   -2.1447    1.9516 C   0  0  0  0  0  0  0  0  0  0  0  0
   -2.1870   -1.4812    1.5875 O   0  0  0  0  0  0  0  0  0  0  0  0
   -2.2478   -0.1701    2.0726 C   0  0  0  0  0  3  0  0  0  0  0  0
   -0.1196   -3.0236   -0.5570 H   0  0  0  0  0  0  0  0  0  0  0  0
   -1.8844   -3.0273   -0.5537 H   0  0  0  0  0  0  0  0  0  0  0  0
   -0.9971   -4.5552   -0.5596 H   0  0  0  0  0  0  0  0  0  0  0  0
   -1.8761   -4.0754    1.7312 H   0  0  0  0  0  0  0  0  0  0  0  0
   -0.1203   -4.0634    1.7318 H   0  0  0  0  0  0  0  0  0  0  0  0
   -0.9252   -2.1984    3.0477 H   0  0  0  0  0  0  0  0  0  0  0  0
   -0.1296   -1.5776    1.5894 H   0  0  0  0  0  0  0  0  0  0  0  0
   -1.2592    0.5650    1.6039 H   0  0  0  0  0  0  0  0  0  0  0  0
   -2.2058   -0.1440    3.1701 H   0  0  0  0  0  0  0  0  0  0  0  0
   -3.1935    0.2600    1.7455 H   0  0  0  0  0  0  0  0  0  0  0  0
   -0.2771    1.2951    1.1382 C   0  0  0  0  0  0  0  0  0  0  0  0
    0.1347    0.8069   -0.2313 C   0  0  0  0  0  0  0  0  0  0  0  0
    0.8678    1.8179   -0.8748 O   0  0  0  0  0  0  0  0  0  0  0  0
    1.2994    1.4580   -2.1629 C   0  0  0  0  0  0  0  0  0  0  0  0
    2.1099    2.5923   -2.7560 C   0  0  0  0  0  0  0  0  0  0  0  0
    3.3846    2.8883   -1.9769 C   0  0  0  0  0  0  0  0  0  0  0  0
    0.6012    1.5378    1.7374 H   0  0  0  0  0  0  0  0  0  0  0  0
   -0.8949    2.1900    1.0551 H   0  0  0  0  0  0  0  0  0  0  0  0
   -0.7515    0.5474   -0.8294 H   0  0  0  0  0  0  0  0  0  0  0  0
    0.7461   -0.1036   -0.1472 H   0  0  0  0  0  0  0  0  0  0  0  0
    1.9108    0.5432   -2.1114 H   0  0  0  0  0  0  0  0  0  0  0  0
    0.4314    1.2355   -2.8009 H   0  0  0  0  0  0  0  0  0  0  0  0
    1.4798    3.4845   -2.7975 H   0  0  0  0  0  0  0  0  0  0  0  0
    2.3530    2.3277   -3.7888 H   0  0  0  0  0  0  0  0  0  0  0  0
    4.0358    2.0112   -1.9476 H   0  0  0  0  0  0  0  0  0  0  0  0
    3.1528    3.1679   -0.9492 H   0  0  0  0  0  0  0  0  0  0  0  0
    3.9440    3.7053   -2.4351 H   0  0  0  0  0  0  0  0  0  0  0  0
  1  2  1  0
  1  6  1  0
  1  7  1  0
  1  8  1  0
  2  3  1  0
  2  9  1  0
  2 10  1  0
  3  4  1  0
  3 11  1  0
  3 12  1  0
  4  5  1  0
  5 14  1  0
  5 15  1  0
 13 16  1  0
 16 17  1  0
 16 22  1  0
 16 23  1  0
 17 18  1  0
 17 24  1  0
 17 25  1  0
 18 19  1  0
 19 20  1  0
 19 26  1  0
 19 27  1  0
 20 21  1  0
 20 28  1  0
 20 29  1  0
 21 30  1  0
 21 31  1  0
 21 32  1  0
M  RAD  1   5   2
M  END
>  <reaction>  (6) 
rmg_rxn_663

>  <mol_properties>  (6) 
{"3": {"label": "*0", "atom_type": "O2s"}, "4": {"label": "*1", "atom_type": "Cs"}, "12": {"label": "*2", "atom_type": "H0"}, "15": {"label": "*3", "atom_type": "Cs"}, "16": {"label": "*4", "atom_type": "Cs"}}

>  <type>  (6) 
unop_2

>  <geom_source>  (6) 
Heuristics

$$$$

     RDKit          3D

 32 30  0  0  0  0  0  0  0  0999 V2000
   -0.6260   -4.7033   -1.3051 C   0  0  0  0  0  0  0  0  0  0  0  0
   -0.6260   -4.7033    0.2178 C   0  0  0  0  0  0  0  0  0  0  0  0
   -0.6260   -3.3107    0.8139 C   0  0  0  0  0  0  0  0  0  0  0  0
   -1.8110   -2.6473    0.4497 O   0  0  0  0  0  0  0  0  0  0  0  0
   -1.8718   -1.3362    0.9349 C   0  0  0  0  0  3  0  0  0  0  0  0
    0.2564   -4.1896   -1.6948 H   0  0  0  0  0  0  0  0  0  0  0  0
   -1.5084   -4.1934   -1.6915 H   0  0  0  0  0  0  0  0  0  0  0  0
   -0.6211   -5.7213   -1.6974 H   0  0  0  0  0  0  0  0  0  0  0  0
   -1.5001   -5.2415    0.5934 H   0  0  0  0  0  0  0  0  0  0  0  0
    0.2557   -5.2294    0.5941 H   0  0  0  0  0  0  0  0  0  0  0  0
   -0.5492   -3.3644    1.9099 H   0  0  0  0  0  0  0  0  0  0  0  0
    0.2464   -2.7437    0.4517 H   0  0  0  0  0  0  0  0  0  0  0  0
   -0.8832   -0.6011    0.4661 H   0  0  0  0  0  0  0  0  0  0  0  0
   -1.8298   -1.3101    2.0324 H   0  0  0  0  0  0  0  0  0  0  0  0
   -2.8175   -0.9060    0.6077 H   0  0  0  0  0  0  0  0  0  0  0  0
    0.0989    0.1291    0.0005 C   0  0  0  0  0  0  0  0  0  0  0  0
   -0.3296    1.5739   -0.1100 C   0  0  0  0  0  0  0  0  0  0  0  0
    0.7997    2.3971    0.0335 O   0  0  0  0  0  0  0  0  0  0  0  0
    0.5037    3.7681   -0.0557 C   0  0  0  0  0  0  0  0  0  0  0  0
    1.7844    4.5674    0.0713 C   0  0  0  0  0  0  0  0  0  0  0  0
    2.7720    4.2989   -1.0565 C   0  0  0  0  0  0  0  0  0  0  0  0
    0.8222   -0.1156   -0.7782 H   0  0  0  0  0  0  0  0  0  0  0  0
    0.5605   -0.0595    0.9704 H   0  0  0  0  0  0  0  0  0  0  0  0
   -1.0710    1.8155    0.6660 H   0  0  0  0  0  0  0  0  0  0  0  0
   -0.8076    1.7599   -1.0832 H   0  0  0  0  0  0  0  0  0  0  0  0
    0.0172    3.9845   -1.0200 H   0  0  0  0  0  0  0  0  0  0  0  0
   -0.2030    4.0517    0.7380 H   0  0  0  0  0  0  0  0  0  0  0  0
    2.2440    4.3359    1.0356 H   0  0  0  0  0  0  0  0  0  0  0  0
    1.5180    5.6278    0.0937 H   0  0  0  0  0  0  0  0  0  0  0  0
    2.3338    4.5490   -2.0259 H   0  0  0  0  0  0  0  0  0  0  0  0
    3.0560    3.2468   -1.0786 H   0  0  0  0  0  0  0  0  0  0  0  0
    3.6780    4.8945   -0.9352 H   0  0  0  0  0  0  0  0  0  0  0  0
  1  2  1  0
  1  6  1  0
  1  7  1  0
  1  8  1  0
  2  3  1  0
  2  9  1  0
  2 10  1  0
  3  4  1  0
  3 11  1  0
  3 12  1  0
  4  5  1  0
  5 14  1  0
  5 15  1  0
 13 16  1  0
 16 17  1  0
 16 22  1  0
 16 23  1  0
 17 18  1  0
 17 24  1  0
 17 25  1  0
 18 19  1  0
 19 20  1  0
 19 26  1  0
 19 27  1  0
 20 21  1  0
 20 28  1  0
 20 29  1  0
 21 30  1  0
 21 31  1  0
 21 32  1  0
M  RAD  1   5   2
M  END
>  <reaction>  (7) 
rmg_rxn_663

>  <mol_properties>  (7) 
{"3": {"label": "*0", "atom_type": "O2s"}, "4": {"label": "*1", "atom_type": "Cs"}, "12": {"label": "*2", "atom_type": "H0"}, "15": {"label": "*3", "atom_type": "Cs"}, "16": {"label": "*4", "atom_type": "Cs"}}

>  <type>  (7) 
unop_3

>  <geom_source>  (7) 
Heuristics

$$$$

     RDKit          3D

 32 30  0  0  0  0  0  0  0  0999 V2000
   -1.5780   -3.5481   -1.8979 C   0  0  0  0  0  0  0  0  0  0  0  0
   -1.5780   -3.5481   -0.3750 C   0  0  0  0  0  0  0  0  0  0  0  0
   -1.5780   -2.1555    0.2210 C   0  0  0  0  0  0  0  0  0  0  0  0
   -2.7631   -1.4921   -0.1431 O   0  0  0  0  0  0  0  0  0  0  0  0
   -2.8239   -0.1810    0.3421 C   0  0  0  0  0  3  0  0  0  0  0  0
   -0.6956   -3.0345   -2.2876 H   0  0  0  0  0  0  0  0  0  0  0  0
   -2.4605   -3.0382   -2.2843 H   0  0  0  0  0  0  0  0  0  0  0  0
   -1.5731   -4.5661   -2.2902 H   0  0  0  0  0  0  0  0  0  0  0  0
   -2.4521   -4.0863    0.0006 H   0  0  0  0  0  0  0  0  0  0  0  0
   -0.6963   -4.0743    0.0012 H   0  0  0  0  0  0  0  0  0  0  0  0
   -1.5012   -2.2092    1.3171 H   0  0  0  0  0  0  0  0  0  0  0  0
   -0.7056   -1.5885   -0.1411 H   0  0  0  0  0  0  0  0  0  0  0  0
   -1.8352    0.5541   -0.1267 H   0  0  0  0  0  0  0  0  0  0  0  0
   -2.7819   -0.1549    1.4395 H   0  0  0  0  0  0  0  0  0  0  0  0
   -3.7695    0.2491    0.0149 H   0  0  0  0  0  0  0  0  0  0  0  0
   -0.8531    1.2842   -0.5923 C   0  0  0  0  0  0  0  0  0  0  0  0
    0.4770    0.6954   -0.1828 C   0  0  0  0  0  0  0  0  0  0  0  0
    1.4057    1.7366   -0.0184 O   0  0  0  0  0  0  0  0  0  0  0  0
    2.6813    1.2888    0.3655 C   0  0  0  0  0  0  0  0  0  0  0  0
    3.5962    2.4814    0.5546 C   0  0  0  0  0  0  0  0  0  0  0  0
    3.1460    3.4097    1.6748 C   0  0  0  0  0  0  0  0  0  0  0  0
   -1.2176    1.9726    0.1710 H   0  0  0  0  0  0  0  0  0  0  0  0
   -0.7562    1.8311   -1.5309 H   0  0  0  0  0  0  0  0  0  0  0  0
    0.8362   -0.0107   -0.9461 H   0  0  0  0  0  0  0  0  0  0  0  0
    0.3753    0.1323    0.7567 H   0  0  0  0  0  0  0  0  0  0  0  0
    2.6104    0.7145    1.3029 H   0  0  0  0  0  0  0  0  0  0  0  0
    3.0884    0.6137   -0.4015 H   0  0  0  0  0  0  0  0  0  0  0  0
    3.6501    3.0306   -0.3890 H   0  0  0  0  0  0  0  0  0  0  0  0
    4.6020    2.1044    0.7597 H   0  0  0  0  0  0  0  0  0  0  0  0
    3.1105    2.8793    2.6297 H   0  0  0  0  0  0  0  0  0  0  0  0
    2.1498    3.8033    1.4731 H   0  0  0  0  0  0  0  0  0  0  0  0
    3.8300    4.2523    1.7853 H   0  0  0  0  0  0  0  0  0  0  0  0
  1  2  1  0
  1  6  1  0
  1  7  1  0
  1  8  1  0
  2  3  1  0
  2  9  1  0
  2 10  1  0
  3  4  1  0
  3 11  1  0
  3 12  1  0
  4  5  1  0
  5 14  1  0
  5 15  1  0
 13 16  1  0
 16 17  1  0
 16 22  1  0
 16 23  1  0
 17 18  1  0
 17 24  1  0
 17 25  1  0
 18 19  1  0
 19 20  1  0
 19 26  1  0
 19 27  1  0
 20 21  1  0
 20 28  1  0
 20 29  1  0
 21 30  1  0
 21 31  1  0
 21 32  1  0
M  RAD  1   5   2
M  END
>  <reaction>  (8) 
rmg_rxn_663

>  <mol_properties>  (8) 
{"3": {"label": "*0", "atom_type": "O2s"}, "4": {"label": "*1", "atom_type": "Cs"}, "12": {"label": "*2", "atom_type": "H0"}, "15": {"label": "*3", "atom_type": "Cs"}, "16": {"label": "*4", "atom_type": "Cs"}}

>  <type>  (8) 
unop_4

>  <geom_source>  (8) 
Heuristics

$$$$

     RDKit          3D

 32 30  0  0  0  0  0  0  0  0999 V2000
   -0.7115   -4.6749   -1.3307 C   0  0  0  0  0  0  0  0  0  0  0  0
   -0.7115   -4.6749    0.1922 C   0  0  0  0  0  0  0  0  0  0  0  0
   -0.7115   -3.2823    0.7883 C   0  0  0  0  0  0  0  0  0  0  0  0
   -1.8965   -2.6189    0.4241 O   0  0  0  0  0  0  0  0  0  0  0  0
   -1.9573   -1.3078    0.9093 C   0  0  0  0  0  3  0  0  0  0  0  0
    0.1709   -4.1612   -1.7204 H   0  0  0  0  0  0  0  0  0  0  0  0
   -1.5939   -4.1650   -1.7171 H   0  0  0  0  0  0  0  0  0  0  0  0
   -0.7066   -5.6929   -1.7230 H   0  0  0  0  0  0  0  0  0  0  0  0
   -1.5856   -5.2130    0.5678 H   0  0  0  0  0  0  0  0  0  0  0  0
    0.1702   -5.2010    0.5685 H   0  0  0  0  0  0  0  0  0  0  0  0
   -0.6347   -3.3360    1.8843 H   0  0  0  0  0  0  0  0  0  0  0  0
    0.1609   -2.7153    0.4261 H   0  0  0  0  0  0  0  0  0  0  0  0
   -0.9686   -0.5727    0.4405 H   0  0  0  0  0  0  0  0  0  0  0  0
   -1.9153   -1.2816    2.0068 H   0  0  0  0  0  0  0  0  0  0  0  0
   -2.9030   -0.8776    0.5822 H   0  0  0  0  0  0  0  0  0  0  0  0
    0.0134    0.1575   -0.0251 C   0  0  0  0  0  0  0  0  0  0  0  0
   -0.0790    1.5655    0.5156 C   0  0  0  0  0  0  0  0  0  0  0  0
    0.9859    2.3231    0.0002 O   0  0  0  0  0  0  0  0  0  0  0  0
    0.9876    3.6558    0.4462 C   0  0  0  0  0  0  0  0  0  0  0  0
    2.1445    4.3972   -0.1919 C   0  0  0  0  0  0  0  0  0  0  0  0
    2.0359    4.4848   -1.7084 C   0  0  0  0  0  0  0  0  0  0  0  0
   -0.0438    0.1618   -1.1142 H   0  0  0  0  0  0  0  0  0  0  0  0
    0.9574   -0.3032    0.2680 H   0  0  0  0  0  0  0  0  0  0  0  0
   -0.0370    1.5587    1.6149 H   0  0  0  0  0  0  0  0  0  0  0  0
   -1.0374    2.0245    0.2313 H   0  0  0  0  0  0  0  0  0  0  0  0
    0.0351    4.1412    0.1805 H   0  0  0  0  0  0  0  0  0  0  0  0
    1.0746    3.6844    1.5423 H   0  0  0  0  0  0  0  0  0  0  0  0
    3.0749    3.8971    0.0895 H   0  0  0  0  0  0  0  0  0  0  0  0
    2.1807    5.4006    0.2414 H   0  0  0  0  0  0  0  0  0  0  0  0
    1.1211    5.0044   -2.0041 H   0  0  0  0  0  0  0  0  0  0  0  0
    2.0142    3.4895   -2.1520 H   0  0  0  0  0  0  0  0  0  0  0  0
    2.8815    5.0289   -2.1318 H   0  0  0  0  0  0  0  0  0  0  0  0
  1  2  1  0
  1  6  1  0
  1  7  1  0
  1  8  1  0
  2  3  1  0
  2  9  1  0
  2 10  1  0
  3  4  1  0
  3 11  1  0
  3 12  1  0
  4  5  1  0
  5 14  1  0
  5 15  1  0
 13 16  1  0
 16 17  1  0
 16 22  1  0
 16 23  1  0
 17 18  1  0
 17 24  1  0
 17 25  1  0
 18 19  1  0
 19 20  1  0
 19 26  1  0
 19 27  1  0
 20 21  1  0
 20 28  1  0
 20 29  1  0
 21 30  1  0
 21 31  1  0
 21 32  1  0
M  RAD  1   5   2
M  END
>  <reaction>  (9) 
rmg_rxn_663

>  <mol_properties>  (9) 
{"3": {"label": "*0", "atom_type": "O2s"}, "4": {"label": "*1", "atom_type": "Cs"}, "12": {"label": "*2", "atom_type": "H0"}, "15": {"label": "*3", "atom_type": "Cs"}, "16": {"label": "*4", "atom_type": "Cs"}}

>  <type>  (9) 
unop_5

>  <geom_source>  (9) 
Heuristics

$$$$

     RDKit          3D

 32 30  0  0  0  0  0  0  0  0999 V2000
   -1.2393   -4.0377   -2.1537 C   0  0  0  0  0  0  0  0  0  0  0  0
   -1.2393   -4.0377   -0.6308 C   0  0  0  0  0  0  0  0  0  0  0  0
   -1.2393   -2.6451   -0.0348 C   0  0  0  0  0  0  0  0  0  0  0  0
   -2.4243   -1.9816   -0.3989 O   0  0  0  0  0  0  0  0  0  0  0  0
   -2.4851   -0.6705    0.0862 C   0  0  0  0  0  3  0  0  0  0  0  0
   -0.3569   -3.5240   -2.5435 H   0  0  0  0  0  0  0  0  0  0  0  0
   -2.1217   -3.5278   -2.5402 H   0  0  0  0  0  0  0  0  0  0  0  0
   -1.2344   -5.0557   -2.5460 H   0  0  0  0  0  0  0  0  0  0  0  0
   -2.1134   -4.5758   -0.2552 H   0  0  0  0  0  0  0  0  0  0  0  0
   -0.3576   -4.5638   -0.2546 H   0  0  0  0  0  0  0  0  0  0  0  0
   -1.1625   -2.6988    1.0613 H   0  0  0  0  0  0  0  0  0  0  0  0
   -0.3669   -2.0781   -0.3970 H   0  0  0  0  0  0  0  0  0  0  0  0
   -1.4964    0.0645   -0.3825 H   0  0  0  0  0  0  0  0  0  0  0  0
   -2.4431   -0.6444    1.1837 H   0  0  0  0  0  0  0  0  0  0  0  0
   -3.4308   -0.2404   -0.2409 H   0  0  0  0  0  0  0  0  0  0  0  0
   -0.5144    0.7947   -0.8482 C   0  0  0  0  0  0  0  0  0  0  0  0
    0.6806    0.7140    0.0732 C   0  0  0  0  0  0  0  0  0  0  0  0
    1.2777    1.9828    0.1584 O   0  0  0  0  0  0  0  0  0  0  0  0
    2.4043    2.0122    0.9980 C   0  0  0  0  0  0  0  0  0  0  0  0
    2.9510    3.4240    1.0552 C   0  0  0  0  0  0  0  0  0  0  0  0
    1.9737    4.4202    1.6648 C   0  0  0  0  0  0  0  0  0  0  0  0
   -1.2441    1.5094   -0.4659 H   0  0  0  0  0  0  0  0  0  0  0  0
   -0.2078    1.1155   -1.8444 H   0  0  0  0  0  0  0  0  0  0  0  0
    1.4089   -0.0187   -0.3049 H   0  0  0  0  0  0  0  0  0  0  0  0
    0.3725    0.3770    1.0740 H   0  0  0  0  0  0  0  0  0  0  0  0
    2.1274    1.6730    2.0088 H   0  0  0  0  0  0  0  0  0  0  0  0
    3.1719    1.3211    0.6201 H   0  0  0  0  0  0  0  0  0  0  0  0
    3.2194    3.7336    0.0418 H   0  0  0  0  0  0  0  0  0  0  0  0
    3.8775    3.4024    1.6357 H   0  0  0  0  0  0  0  0  0  0  0  0
    1.7149    4.1359    2.6878 H   0  0  0  0  0  0  0  0  0  0  0  0
    1.0517    4.4607    1.0849 H   0  0  0  0  0  0  0  0  0  0  0  0
    2.4025    5.4230    1.6945 H   0  0  0  0  0  0  0  0  0  0  0  0
  1  2  1  0
  1  6  1  0
  1  7  1  0
  1  8  1  0
  2  3  1  0
  2  9  1  0
  2 10  1  0
  3  4  1  0
  3 11  1  0
  3 12  1  0
  4  5  1  0
  5 14  1  0
  5 15  1  0
 13 16  1  0
 16 17  1  0
 16 22  1  0
 16 23  1  0
 17 18  1  0
 17 24  1  0
 17 25  1  0
 18 19  1  0
 19 20  1  0
 19 26  1  0
 19 27  1  0
 20 21  1  0
 20 28  1  0
 20 29  1  0
 21 30  1  0
 21 31  1  0
 21 32  1  0
M  RAD  1   5   2
M  END
>  <reaction>  (10) 
rmg_rxn_663

>  <mol_properties>  (10) 
{"3": {"label": "*0", "atom_type": "O2s"}, "4": {"label": "*1", "atom_type": "Cs"}, "12": {"label": "*2", "atom_type": "H0"}, "15": {"label": "*3", "atom_type": "Cs"}, "16": {"label": "*4", "atom_type": "Cs"}}

>  <type>  (10) 
unop_6

>  <geom_source>  (10) 
Heuristics

$$$$

     RDKit          3D

 32 30  0  0  0  0  0  0  0  0999 V2000
   -0.8438   -4.4769   -2.0151 C   0  0  0  0  0  0  0  0  0  0  0  0
   -0.8438   -4.4769   -0.4922 C   0  0  0  0  0  0  0  0  0  0  0  0
   -0.8438   -3.0843    0.1039 C   0  0  0  0  0  0  0  0  0  0  0  0
   -2.0289   -2.4208   -0.2603 O   0  0  0  0  0  0  0  0  0  0  0  0
   -2.0896   -1.1097    0.2249 C   0  0  0  0  0  3  0  0  0  0  0  0
    0.0386   -3.9632   -2.4048 H   0  0  0  0  0  0  0  0  0  0  0  0
   -1.7263   -3.9670   -2.4015 H   0  0  0  0  0  0  0  0  0  0  0  0
   -0.8389   -5.4949   -2.4074 H   0  0  0  0  0  0  0  0  0  0  0  0
   -1.7179   -5.0150   -0.1166 H   0  0  0  0  0  0  0  0  0  0  0  0
    0.0379   -5.0030   -0.1159 H   0  0  0  0  0  0  0  0  0  0  0  0
   -0.7670   -3.1380    1.1999 H   0  0  0  0  0  0  0  0  0  0  0  0
    0.0286   -2.5173   -0.2583 H   0  0  0  0  0  0  0  0  0  0  0  0
   -1.1010   -0.3747   -0.2439 H   0  0  0  0  0  0  0  0  0  0  0  0
   -2.0476   -1.0836    1.3224 H   0  0  0  0  0  0  0  0  0  0  0  0
   -3.0353   -0.6796   -0.1022 H   0  0  0  0  0  0  0  0  0  0  0  0
   -0.1189    0.3555   -0.7095 C   0  0  0  0  0  0  0  0  0  0  0  0
    0.7260    0.8828    0.4270 C   0  0  0  0  0  0  0  0  0  0  0  0
    1.1024    2.2055    0.1402 O   0  0  0  0  0  0  0  0  0  0  0  0
    1.8949    2.7884    1.1438 C   0  0  0  0  0  0  0  0  0  0  0  0
    2.2149    4.2194    0.7630 C   0  0  0  0  0  0  0  0  0  0  0  0
    0.9790    5.1041    0.6674 C   0  0  0  0  0  0  0  0  0  0  0  0
   -1.0151    0.9644   -0.8338 H   0  0  0  0  0  0  0  0  0  0  0  0
    0.4426    0.3750   -1.6442 H   0  0  0  0  0  0  0  0  0  0  0  0
    1.6219    0.2586    0.5617 H   0  0  0  0  0  0  0  0  0  0  0  0
    0.1636    0.8497    1.3717 H   0  0  0  0  0  0  0  0  0  0  0  0
    1.3590    2.7641    2.1059 H   0  0  0  0  0  0  0  0  0  0  0  0
    2.8226    2.2114    1.2717 H   0  0  0  0  0  0  0  0  0  0  0  0
    2.7472    4.2139   -0.1916 H   0  0  0  0  0  0  0  0  0  0  0  0
    2.9069    4.6192    1.5094 H   0  0  0  0  0  0  0  0  0  0  0  0
    0.4493    5.1382    1.6227 H   0  0  0  0  0  0  0  0  0  0  0  0
    0.2885    4.7227   -0.0849 H   0  0  0  0  0  0  0  0  0  0  0  0
    1.2477    6.1263    0.3971 H   0  0  0  0  0  0  0  0  0  0  0  0
  1  2  1  0
  1  6  1  0
  1  7  1  0
  1  8  1  0
  2  3  1  0
  2  9  1  0
  2 10  1  0
  3  4  1  0
  3 11  1  0
  3 12  1  0
  4  5  1  0
  5 14  1  0
  5 15  1  0
 13 16  1  0
 16 17  1  0
 16 22  1  0
 16 23  1  0
 17 18  1  0
 17 24  1  0
 17 25  1  0
 18 19  1  0
 19 20  1  0
 19 26  1  0
 19 27  1  0
 20 21  1  0
 20 28  1  0
 20 29  1  0
 21 30  1  0
 21 31  1  0
 21 32  1  0
M  RAD  1   5   2
M  END
>  <reaction>  (11) 
rmg_rxn_663

>  <mol_properties>  (11) 
{"3": {"label": "*0", "atom_type": "O2s"}, "4": {"label": "*1", "atom_type": "Cs"}, "12": {"label": "*2", "atom_type": "H0"}, "15": {"label": "*3", "atom_type": "Cs"}, "16": {"label": "*4", "atom_type": "Cs"}}

>  <type>  (11) 
unop_7

>  <geom_source>  (11) 
Heuristics

$$$$

     RDKit          3D

 32 30  0  0  0  0  0  0  0  0999 V2000
   -0.3339   -4.4706   -0.5062 C   0  0  0  0  0  0  0  0  0  0  0  0
   -0.3339   -4.4706    1.0168 C   0  0  0  0  0  0  0  0  0  0  0  0
   -0.3339   -3.0780    1.6128 C   0  0  0  0  0  0  0  0  0  0  0  0
   -1.5189   -2.4146    1.2487 O   0  0  0  0  0  0  0  0  0  0  0  0
   -1.5797   -1.1035    1.7338 C   0  0  0  0  0  3  0  0  0  0  0  0
    0.5485   -3.9570   -0.8959 H   0  0  0  0  0  0  0  0  0  0  0  0
   -1.2163   -3.9607   -0.8926 H   0  0  0  0  0  0  0  0  0  0  0  0
   -0.3290   -5.4886   -0.8985 H   0  0  0  0  0  0  0  0  0  0  0  0
   -1.2080   -5.0088    1.3924 H   0  0  0  0  0  0  0  0  0  0  0  0
    0.5479   -4.9968    1.3930 H   0  0  0  0  0  0  0  0  0  0  0  0
   -0.2570   -3.1317    2.7089 H   0  0  0  0  0  0  0  0  0  0  0  0
    0.5385   -2.5110    1.2506 H   0  0  0  0  0  0  0  0  0  0  0  0
   -0.5910   -0.3684    1.2651 H   0  0  0  0  0  0  0  0  0  0  0  0
   -1.5377   -1.0774    2.8313 H   0  0  0  0  0  0  0  0  0  0  0  0
   -2.5254   -0.6734    1.4067 H   0  0  0  0  0  0  0  0  0  0  0  0
    0.3910    0.3617    0.7994 C   0  0  0  0  0  0  0  0  0  0  0  0
   -0.0185    1.0264   -0.4944 C   0  0  0  0  0  0  0  0  0  0  0  0
    0.4971    2.3330   -0.5194 O   0  0  0  0  0  0  0  0  0  0  0  0
    0.1696    3.0380   -1.6901 C   0  0  0  0  0  0  0  0  0  0  0  0
    0.8002    4.4146   -1.6402 C   0  0  0  0  0  0  0  0  0  0  0  0
    2.3223    4.3751   -1.6117 C   0  0  0  0  0  0  0  0  0  0  0  0
    1.4778    0.3200    0.8803 H   0  0  0  0  0  0  0  0  0  0  0  0
    0.0036    0.9176    1.6539 H   0  0  0  0  0  0  0  0  0  0  0  0
   -1.1148    1.0539   -0.5823 H   0  0  0  0  0  0  0  0  0  0  0  0
    0.3610    0.4574   -1.3559 H   0  0  0  0  0  0  0  0  0  0  0  0
    0.5324    2.4879   -2.5728 H   0  0  0  0  0  0  0  0  0  0  0  0
   -0.9231    3.1224   -1.7839 H   0  0  0  0  0  0  0  0  0  0  0  0
    0.4218    4.9380   -0.7584 H   0  0  0  0  0  0  0  0  0  0  0  0
    0.4547    4.9746   -2.5136 H   0  0  0  0  0  0  0  0  0  0  0  0
    2.7158    3.8751   -2.5002 H   0  0  0  0  0  0  0  0  0  0  0  0
    2.6781    3.8316   -0.7364 H   0  0  0  0  0  0  0  0  0  0  0  0
    2.7408    5.3822   -1.5814 H   0  0  0  0  0  0  0  0  0  0  0  0
  1  2  1  0
  1  6  1  0
  1  7  1  0
  1  8  1  0
  2  3  1  0
  2  9  1  0
  2 10  1  0
  3  4  1  0
  3 11  1  0
  3 12  1  0
  4  5  1  0
  5 14  1  0
  5 15  1  0
 13 16  1  0
 16 17  1  0
 16 22  1  0
 16 23  1  0
 17 18  1  0
 17 24  1  0
 17 25  1  0
 18 19  1  0
 19 20  1  0
 19 26  1  0
 19 27  1  0
 20 21  1  0
 20 28  1  0
 20 29  1  0
 21 30  1  0
 21 31  1  0
 21 32  1  0
M  RAD  1   5   2
M  END
>  <reaction>  (12) 
rmg_rxn_663

>  <mol_properties>  (12) 
{"3": {"label": "*0", "atom_type": "O2s"}, "4": {"label": "*1", "atom_type": "Cs"}, "12": {"label": "*2", "atom_type": "H0"}, "15": {"label": "*3", "atom_type": "Cs"}, "16": {"label": "*4", "atom_type": "Cs"}}

>  <type>  (12) 
unop_8

>  <geom_source>  (12) 
Heuristics

$$$$

     RDKit          3D

 32 30  0  0  0  0  0  0  0  0999 V2000
   -1.6847   -3.2140   -1.3057 C   0  0  0  0  0  0  0  0  0  0  0  0
   -1.6847   -3.2140    0.2172 C   0  0  0  0  0  0  0  0  0  0  0  0
   -1.6847   -1.8214    0.8133 C   0  0  0  0  0  0  0  0  0  0  0  0
   -2.8697   -1.1580    0.4491 O   0  0  0  0  0  0  0  0  0  0  0  0
   -2.9305    0.1531    0.9343 C   0  0  0  0  0  3  0  0  0  0  0  0
   -0.8023   -2.7004   -1.6954 H   0  0  0  0  0  0  0  0  0  0  0  0
   -2.5671   -2.7041   -1.6921 H   0  0  0  0  0  0  0  0  0  0  0  0
   -1.6798   -4.2320   -1.6980 H   0  0  0  0  0  0  0  0  0  0  0  0
   -2.5588   -3.7522    0.5928 H   0  0  0  0  0  0  0  0  0  0  0  0
   -0.8030   -3.7401    0.5935 H   0  0  0  0  0  0  0  0  0  0  0  0
   -1.6079   -1.8751    1.9093 H   0  0  0  0  0  0  0  0  0  0  0  0
   -0.8123   -1.2544    0.4511 H   0  0  0  0  0  0  0  0  0  0  0  0
   -1.9419    0.8882    0.4655 H   0  0  0  0  0  0  0  0  0  0  0  0
   -2.8885    0.1792    2.0318 H   0  0  0  0  0  0  0  0  0  0  0  0
   -3.8762    0.5833    0.6072 H   0  0  0  0  0  0  0  0  0  0  0  0
   -0.9598    1.6184   -0.0001 C   0  0  0  0  0  0  0  0  0  0  0  0
    0.2542    0.7575   -0.2620 C   0  0  0  0  0  0  0  0  0  0  0  0
    1.3875    1.5826   -0.3543 O   0  0  0  0  0  0  0  0  0  0  0  0
    2.5750    0.8715   -0.5973 C   0  0  0  0  0  0  0  0  0  0  0  0
    3.7398    1.8394   -0.6407 C   0  0  0  0  0  0  0  0  0  0  0  0
    3.9698    2.5589    0.6816 C   0  0  0  0  0  0  0  0  0  0  0  0
   -0.8421    2.1714    0.9325 H   0  0  0  0  0  0  0  0  0  0  0  0
   -1.1018    2.3352   -0.8096 H   0  0  0  0  0  0  0  0  0  0  0  0
    0.1277    0.1881   -1.1948 H   0  0  0  0  0  0  0  0  0  0  0  0
    0.3886    0.0255    0.5481 H   0  0  0  0  0  0  0  0  0  0  0  0
    2.7338    0.1245    0.1966 H   0  0  0  0  0  0  0  0  0  0  0  0
    2.4973    0.3256   -1.5490 H   0  0  0  0  0  0  0  0  0  0  0  0
    3.5578    2.5661   -1.4367 H   0  0  0  0  0  0  0  0  0  0  0  0
    4.6339    1.2769   -0.9235 H   0  0  0  0  0  0  0  0  0  0  0  0
    4.1769    1.8450    1.4828 H   0  0  0  0  0  0  0  0  0  0  0  0
    3.0893    3.1352    0.9659 H   0  0  0  0  0  0  0  0  0  0  0  0
    4.8178    3.2421    0.6146 H   0  0  0  0  0  0  0  0  0  0  0  0
  1  2  1  0
  1  6  1  0
  1  7  1  0
  1  8  1  0
  2  3  1  0
  2  9  1  0
  2 10  1  0
  3  4  1  0
  3 11  1  0
  3 12  1  0
  4  5  1  0
  5 14  1  0
  5 15  1  0
 13 16  1  0
 16 17  1  0
 16 22  1  0
 16 23  1  0
 17 18  1  0
 17 24  1  0
 17 25  1  0
 18 19  1  0
 19 20  1  0
 19 26  1  0
 19 27  1  0
 20 21  1  0
 20 28  1  0
 20 29  1  0
 21 30  1  0
 21 31  1  0
 21 32  1  0
M  RAD  1   5   2
M  END
>  <reaction>  (13) 
rmg_rxn_663

>  <mol_properties>  (13) 
{"3": {"label": "*0", "atom_type": "O2s"}, "4": {"label": "*1", "atom_type": "Cs"}, "12": {"label": "*2", "atom_type": "H0"}, "15": {"label": "*3", "atom_type": "Cs"}, "16": {"label": "*4", "atom_type": "Cs"}}

>  <type>  (13) 
unop_9

>  <geom_source>  (13) 
Heuristics

$$$$

     RDKit          3D

 32 30  0  0  0  0  0  0  0  0999 V2000
   -0.5581   -4.0322   -0.1588 C   0  0  0  0  0  0  0  0  0  0  0  0
   -0.5581   -4.0322    1.3642 C   0  0  0  0  0  0  0  0  0  0  0  0
   -0.5581   -2.6396    1.9602 C   0  0  0  0  0  0  0  0  0  0  0  0
   -1.7431   -1.9762    1.5961 O   0  0  0  0  0  0  0  0  0  0  0  0
   -1.8039   -0.6651    2.0812 C   0  0  0  0  0  3  0  0  0  0  0  0
    0.3243   -3.5186   -0.5485 H   0  0  0  0  0  0  0  0  0  0  0  0
   -1.4405   -3.5223   -0.5452 H   0  0  0  0  0  0  0  0  0  0  0  0
   -0.5531   -5.0502   -0.5511 H   0  0  0  0  0  0  0  0  0  0  0  0
   -1.4322   -4.5704    1.7398 H   0  0  0  0  0  0  0  0  0  0  0  0
    0.3237   -4.5584    1.7404 H   0  0  0  0  0  0  0  0  0  0  0  0
   -0.4812   -2.6933    3.0563 H   0  0  0  0  0  0  0  0  0  0  0  0
    0.3143   -2.0726    1.5980 H   0  0  0  0  0  0  0  0  0  0  0  0
   -0.8152    0.0700    1.6125 H   0  0  0  0  0  0  0  0  0  0  0  0
   -1.7619   -0.6390    3.1787 H   0  0  0  0  0  0  0  0  0  0  0  0
   -2.7496   -0.2350    1.7541 H   0  0  0  0  0  0  0  0  0  0  0  0
    0.1668    0.8001    1.1468 C   0  0  0  0  0  0  0  0  0  0  0  0
    0.1074    0.8568   -0.3621 C   0  0  0  0  0  0  0  0  0  0  0  0
    0.6042    2.0986   -0.7920 O   0  0  0  0  0  0  0  0  0  0  0  0
    0.5914    2.2493   -2.1892 C   0  0  0  0  0  0  0  0  0  0  0  0
    1.1792    3.5971   -2.5541 C   0  0  0  0  0  0  0  0  0  0  0  0
    2.6408    3.7416   -2.1513 C   0  0  0  0  0  0  0  0  0  0  0  0
    1.1946    0.9145    1.4933 H   0  0  0  0  0  0  0  0  0  0  0  0
   -0.4342    1.5986    1.5832 H   0  0  0  0  0  0  0  0  0  0  0  0
   -0.9276    0.7256   -0.7112 H   0  0  0  0  0  0  0  0  0  0  0  0
    0.7026    0.0427   -0.8012 H   0  0  0  0  0  0  0  0  0  0  0  0
    1.1761    1.4424   -2.6586 H   0  0  0  0  0  0  0  0  0  0  0  0
   -0.4389    2.1682   -2.5658 H   0  0  0  0  0  0  0  0  0  0  0  0
    0.5799    4.3776   -2.0783 H   0  0  0  0  0  0  0  0  0  0  0  0
    1.0718    3.7294   -3.6343 H   0  0  0  0  0  0  0  0  0  0  0  0
    3.2563    2.9816   -2.6390 H   0  0  0  0  0  0  0  0  0  0  0  0
    2.7575    3.6262   -1.0737 H   0  0  0  0  0  0  0  0  0  0  0  0
    3.0311    4.7203   -2.4340 H   0  0  0  0  0  0  0  0  0  0  0  0
  1  2  1  0
  1  6  1  0
  1  7  1  0
  1  8  1  0
  2  3  1  0
  2  9  1  0
  2 10  1  0
  3  4  1  0
  3 11  1  0
  3 12  1  0
  4  5  1  0
  5 14  1  0
  5 15  1  0
 13 16  1  0
 16 17  1  0
 16 22  1  0
 16 23  1  0
 17 18  1  0
 17 24  1  0
 17 25  1  0
 18 19  1  0
 19 20  1  0
 19 26  1  0
 19 27  1  0
 20 21  1  0
 20 28  1  0
 20 29  1  0
 21 30  1  0
 21 31  1  0
 21 32  1  0
M  RAD  1   5   2
M  END
>  <reaction>  (14) 
rmg_rxn_663

>  <mol_properties>  (14) 
{"3": {"label": "*0", "atom_type": "O2s"}, "4": {"label": "*1", "atom_type": "Cs"}, "12": {"label": "*2", "atom_type": "H0"}, "15": {"label": "*3", "atom_type": "Cs"}, "16": {"label": "*4", "atom_type": "Cs"}}

>  <type>  (14) 
unop_10

>  <geom_source>  (14) 
Heuristics

$$$$

     RDKit          3D

 32 30  0  0  0  0  0  0  0  0999 V2000
   -0.6237   -4.6951   -1.6005 C   0  0  0  0  0  0  0  0  0  0  0  0
   -0.6237   -4.6951   -0.0776 C   0  0  0  0  0  0  0  0  0  0  0  0
   -0.6237   -3.3025    0.5184 C   0  0  0  0  0  0  0  0  0  0  0  0
   -1.8087   -2.6391    0.1543 O   0  0  0  0  0  0  0  0  0  0  0  0
   -1.8695   -1.3280    0.6394 C   0  0  0  0  0  3  0  0  0  0  0  0
    0.2587   -4.1814   -1.9903 H   0  0  0  0  0  0  0  0  0  0  0  0
   -1.5061   -4.1852   -1.9870 H   0  0  0  0  0  0  0  0  0  0  0  0
   -0.6188   -5.7131   -1.9928 H   0  0  0  0  0  0  0  0  0  0  0  0
   -1.4978   -5.2332    0.2980 H   0  0  0  0  0  0  0  0  0  0  0  0
    0.2580   -5.2212    0.2986 H   0  0  0  0  0  0  0  0  0  0  0  0
   -0.5469   -3.3562    1.6145 H   0  0  0  0  0  0  0  0  0  0  0  0
    0.2487   -2.7355    0.1562 H   0  0  0  0  0  0  0  0  0  0  0  0
   -0.8809   -0.5929    0.1707 H   0  0  0  0  0  0  0  0  0  0  0  0
   -1.8275   -1.3019    1.7369 H   0  0  0  0  0  0  0  0  0  0  0  0
   -2.8152   -0.8978    0.3123 H   0  0  0  0  0  0  0  0  0  0  0  0
    0.1012    0.1373   -0.2950 C   0  0  0  0  0  0  0  0  0  0  0  0
    0.4749    1.2095    0.7022 C   0  0  0  0  0  0  0  0  0  0  0  0
    1.0002    2.3133    0.0099 O   0  0  0  0  0  0  0  0  0  0  0  0
    1.3791    3.3707    0.8546 C   0  0  0  0  0  0  0  0  0  0  0  0
    1.8938    4.5230    0.0164 C   0  0  0  0  0  0  0  0  0  0  0  0
    0.8354    5.1108   -0.9075 C   0  0  0  0  0  0  0  0  0  0  0  0
   -0.6470    0.5106   -0.9951 H   0  0  0  0  0  0  0  0  0  0  0  0
    0.9770   -0.1781   -0.8632 H   0  0  0  0  0  0  0  0  0  0  0  0
    1.2181    0.8270    1.4175 H   0  0  0  0  0  0  0  0  0  0  0  0
   -0.4062    1.5171    1.2844 H   0  0  0  0  0  0  0  0  0  0  0  0
    0.5163    3.6971    1.4566 H   0  0  0  0  0  0  0  0  0  0  0  0
    2.1566    3.0314    1.5547 H   0  0  0  0  0  0  0  0  0  0  0  0
    2.7489    4.1728   -0.5675 H   0  0  0  0  0  0  0  0  0  0  0  0
    2.2686    5.2926    0.6969 H   0  0  0  0  0  0  0  0  0  0  0  0
   -0.0160    5.4871   -0.3349 H   0  0  0  0  0  0  0  0  0  0  0  0
    0.4653    4.3553   -1.6006 H   0  0  0  0  0  0  0  0  0  0  0  0
    1.2395    5.9399   -1.4902 H   0  0  0  0  0  0  0  0  0  0  0  0
  1  2  1  0
  1  6  1  0
  1  7  1  0
  1  8  1  0
  2  3  1  0
  2  9  1  0
  2 10  1  0
  3  4  1  0
  3 11  1  0
  3 12  1  0
  4  5  1  0
  5 14  1  0
  5 15  1  0
 13 16  1  0
 16 17  1  0
 16 22  1  0
 16 23  1  0
 17 18  1  0
 17 24  1  0
 17 25  1  0
 18 19  1  0
 19 20  1  0
 19 26  1  0
 19 27  1  0
 20 21  1  0
 20 28  1  0
 20 29  1  0
 21 30  1  0
 21 31  1  0
 21 32  1  0
M  RAD  1   5   2
M  END
>  <reaction>  (15) 
rmg_rxn_663

>  <mol_properties>  (15) 
{"3": {"label": "*0", "atom_type": "O2s"}, "4": {"label": "*1", "atom_type": "Cs"}, "12": {"label": "*2", "atom_type": "H0"}, "15": {"label": "*3", "atom_type": "Cs"}, "16": {"label": "*4", "atom_type": "Cs"}}

>  <type>  (15) 
unop_11

>  <geom_source>  (15) 
Heuristics

$$$$

     RDKit          3D

 32 30  0  0  0  0  0  0  0  0999 V2000
   -1.4631   -3.2059   -0.6124 C   0  0  0  0  0  0  0  0  0  0  0  0
   -1.4631   -3.2059    0.9105 C   0  0  0  0  0  0  0  0  0  0  0  0
   -1.4631   -1.8133    1.5066 C   0  0  0  0  0  0  0  0  0  0  0  0
   -2.6481   -1.1499    1.1424 O   0  0  0  0  0  0  0  0  0  0  0  0
   -2.7089    0.1612    1.6276 C   0  0  0  0  0  3  0  0  0  0  0  0
   -0.5807   -2.6923   -1.0021 H   0  0  0  0  0  0  0  0  0  0  0  0
   -2.3455   -2.6960   -0.9988 H   0  0  0  0  0  0  0  0  0  0  0  0
   -1.4582   -4.2239   -1.0047 H   0  0  0  0  0  0  0  0  0  0  0  0
   -2.3372   -3.7441    1.2861 H   0  0  0  0  0  0  0  0  0  0  0  0
   -0.5814   -3.7321    1.2868 H   0  0  0  0  0  0  0  0  0  0  0  0
   -1.3863   -1.8670    2.6026 H   0  0  0  0  0  0  0  0  0  0  0  0
   -0.5907   -1.2463    1.1444 H   0  0  0  0  0  0  0  0  0  0  0  0
   -1.7202    0.8963    1.1588 H   0  0  0  0  0  0  0  0  0  0  0  0
   -2.6669    0.1873    2.7251 H   0  0  0  0  0  0  0  0  0  0  0  0
   -3.6546    0.5913    1.3004 H   0  0  0  0  0  0  0  0  0  0  0  0
   -0.7382    1.6264    0.6932 C   0  0  0  0  0  0  0  0  0  0  0  0
    0.1397    0.8024   -0.2199 C   0  0  0  0  0  0  0  0  0  0  0  0
    1.1816    1.6112   -0.7035 O   0  0  0  0  0  0  0  0  0  0  0  0
    2.0587    0.9319   -1.5662 C   0  0  0  0  0  0  0  0  0  0  0  0
    3.1641    1.8724   -2.0007 C   0  0  0  0  0  0  0  0  0  0  0  0
    4.0328    2.3500   -0.8446 C   0  0  0  0  0  0  0  0  0  0  0  0
   -0.1607    2.0089    1.5356 H   0  0  0  0  0  0  0  0  0  0  0  0
   -1.1618    2.4740    0.1533 H   0  0  0  0  0  0  0  0  0  0  0  0
   -0.4472    0.4040   -1.0609 H   0  0  0  0  0  0  0  0  0  0  0  0
    0.5554   -0.0601    0.3217 H   0  0  0  0  0  0  0  0  0  0  0  0
    2.4873    0.0570   -1.0521 H   0  0  0  0  0  0  0  0  0  0  0  0
    1.5088    0.5590   -2.4427 H   0  0  0  0  0  0  0  0  0  0  0  0
    2.7120    2.7281   -2.5088 H   0  0  0  0  0  0  0  0  0  0  0  0
    3.7768    1.3515   -2.7417 H   0  0  0  0  0  0  0  0  0  0  0  0
    4.5107    1.5055   -0.3417 H   0  0  0  0  0  0  0  0  0  0  0  0
    3.4341    2.8840   -0.1068 H   0  0  0  0  0  0  0  0  0  0  0  0
    4.8195    3.0196   -1.1952 H   0  0  0  0  0  0  0  0  0  0  0  0
  1  2  1  0
  1  6  1  0
  1  7  1  0
  1  8  1  0
  2  3  1  0
  2  9  1  0
  2 10  1  0
  3  4  1  0
  3 11  1  0
  3 12  1  0
  4  5  1  0
  5 14  1  0
  5 15  1  0
 13 16  1  0
 16 17  1  0
 16 22  1  0
 16 23  1  0
 17 18  1  0
 17 24  1  0
 17 25  1  0
 18 19  1  0
 19 20  1  0
 19 26  1  0
 19 27  1  0
 20 21  1  0
 20 28  1  0
 20 29  1  0
 21 30  1  0
 21 31  1  0
 21 32  1  0
M  RAD  1   5   2
M  END
>  <reaction>  (16) 
rmg_rxn_663

>  <mol_properties>  (16) 
{"3": {"label": "*0", "atom_type": "O2s"}, "4": {"label": "*1", "atom_type": "Cs"}, "12": {"label": "*2", "atom_type": "H0"}, "15": {"label": "*3", "atom_type": "Cs"}, "16": {"label": "*4", "atom_type": "Cs"}}

>  <type>  (16) 
unop_12

>  <geom_source>  (16) 
Heuristics

$$$$

     RDKit          3D

 32 30  0  0  0  0  0  0  0  0999 V2000
    2.5309   -0.2150   -0.4453 O   0  0  0  0  0  0  0  0  0  0  0  0
   -3.1750   -0.1596   -0.7709 O   0  0  0  0  0  0  0  0  0  0  0  0
    4.6117    0.5310    0.5041 C   0  0  0  0  0  0  0  0  0  0  0  0
   -4.4493   -0.8772    1.1359 C   0  0  0  0  0  0  0  0  0  0  0  0
    3.0872    0.5203    0.6249 C   0  0  0  0  0  0  0  0  0  0  0  0
   -3.0907   -0.8845    0.4331 C   0  0  0  0  0  0  0  0  0  0  0  0
    1.1234   -0.2047   -0.3417 C   0  0  0  0  0  0  0  0  0  0  0  0
    5.0783    1.2734   -0.7464 C   0  0  0  0  0  0  0  0  0  0  0  0
   -4.8561    0.5281    1.5748 C   0  0  0  0  0  0  0  0  0  0  0  0
    0.5326   -1.0059   -1.4902 C   0  0  0  0  0  0  0  0  0  0  0  0
   -1.9069   -0.1926   -1.3668 C   0  0  0  0  0  3  0  0  0  0  0  0
    5.0427    1.0292    1.3995 H   0  0  0  0  0  0  0  0  0  0  0  0
    4.9894   -0.5142    0.4752 H   0  0  0  0  0  0  0  0  0  0  0  0
   -4.3968   -1.5321    2.0325 H   0  0  0  0  0  0  0  0  0  0  0  0
   -5.2236   -1.2890    0.4527 H   0  0  0  0  0  0  0  0  0  0  0  0
    0.7914   -0.6716    0.6134 H   0  0  0  0  0  0  0  0  0  0  0  0
    0.7284    0.8346   -0.4056 H   0  0  0  0  0  0  0  0  0  0  0  0
    2.7188    1.5724    0.6247 H   0  0  0  0  0  0  0  0  0  0  0  0
    2.8252    0.0462    1.5983 H   0  0  0  0  0  0  0  0  0  0  0  0
   -2.8180   -1.9462    0.2281 H   0  0  0  0  0  0  0  0  0  0  0  0
   -2.3286   -0.4402    1.1163 H   0  0  0  0  0  0  0  0  0  0  0  0
    0.8310   -0.5563   -2.4611 H   0  0  0  0  0  0  0  0  0  0  0  0
    0.8932   -2.0556   -1.4474 H   0  0  0  0  0  0  0  0  0  0  0  0
   -0.7594   -1.0003   -1.4027 H   0  0  0  0  0  0  0  0  0  0  0  0
    6.1880    1.2771   -0.7829 H   0  0  0  0  0  0  0  0  0  0  0  0
    4.7207    2.3250   -0.7274 H   0  0  0  0  0  0  0  0  0  0  0  0
    4.6968    0.7724   -1.6614 H   0  0  0  0  0  0  0  0  0  0  0  0
   -4.9579    1.1967    0.6938 H   0  0  0  0  0  0  0  0  0  0  0  0
   -5.8339    0.4842    2.0991 H   0  0  0  0  0  0  0  0  0  0  0  0
   -4.0996    0.9498    2.2705 H   0  0  0  0  0  0  0  0  0  0  0  0
   -1.9861   -0.6351   -2.3814 H   0  0  0  0  0  0  0  0  0  0  0  0
   -1.5077    0.8399   -1.4458 H   0  0  0  0  0  0  0  0  0  0  0  0
  1  7  1  0
  1  5  1  0
  2 11  1  0
  2  6  1  0
  3  8  1  0
  3  5  1  0
  3 12  1  0
  3 13  1  0
  4  9  1  0
  4  6  1  0
  4 14  1  0
  4 15  1  0
  5 18  1  0
  5 19  1  0
  6 20  1  0
  6 21  1  0
  7 10  1  0
  7 16  1  0
  7 17  1  0
  8 25  1  0
  8 26  1  0
  8 27  1  0
  9 28  1  0
  9 29  1  0
  9 30  1  0
 10 22  1  0
 10 23  1  0
 10 24  1  0
 11 31  1  0
 11 32  1  0
M  RAD  1  11   2
M  END
>  <reaction>  (17) 
rmg_rxn_663

>  <mol_properties>  (17) 
{"3": {"label": "*0", "atom_type": "O2s"}, "4": {"label": "*1", "atom_type": "Cs"}, "12": {"label": "*2", "atom_type": "H0"}, "15": {"label": "*3", "atom_type": "Cs"}, "16": {"label": "*4", "atom_type": "Cs"}}

>  <type>  (17) 
unop_13

>  <geom_source>  (17) 
AutoTST

$$$$

     RDKit          3D

 32 30  0  0  0  0  0  0  0  0999 V2000
   -1.0020   -3.5372   -0.1673 C   0  0  0  0  0  0  0  0  0  0  0  0
   -1.0020   -3.5372    1.3556 C   0  0  0  0  0  0  0  0  0  0  0  0
   -1.0020   -2.1446    1.9516 C   0  0  0  0  0  0  0  0  0  0  0  0
   -2.1870   -1.4812    1.5875 O   0  0  0  0  0  0  0  0  0  0  0  0
   -2.2478   -0.1701    2.0726 C   0  0  0  0  0  3  0  0  0  0  0  0
   -0.1196   -3.0236   -0.5571 H   0  0  0  0  0  0  0  0  0  0  0  0
   -1.8844   -3.0273   -0.5537 H   0  0  0  0  0  0  0  0  0  0  0  0
   -0.9971   -4.5552   -0.5596 H   0  0  0  0  0  0  0  0  0  0  0  0
   -1.8761   -4.0754    1.7312 H   0  0  0  0  0  0  0  0  0  0  0  0
   -0.1203   -4.0634    1.7318 H   0  0  0  0  0  0  0  0  0  0  0  0
   -0.9252   -2.1984    3.0477 H   0  0  0  0  0  0  0  0  0  0  0  0
   -0.1296   -1.5776    1.5894 H   0  0  0  0  0  0  0  0  0  0  0  0
   -1.2591    0.5650    1.6039 H   0  0  0  0  0  0  0  0  0  0  0  0
   -2.2058   -0.1440    3.1701 H   0  0  0  0  0  0  0  0  0  0  0  0
   -3.1935    0.2600    1.7455 H   0  0  0  0  0  0  0  0  0  0  0  0
   -0.2771    1.2951    1.1382 C   0  0  0  0  0  0  0  0  0  0  0  0
    0.1347    0.8069   -0.2313 C   0  0  0  0  0  0  0  0  0  0  0  0
    0.8678    1.8179   -0.8748 O   0  0  0  0  0  0  0  0  0  0  0  0
    1.2994    1.4580   -2.1629 C   0  0  0  0  0  0  0  0  0  0  0  0
    2.1099    2.5923   -2.7559 C   0  0  0  0  0  0  0  0  0  0  0  0
    3.3845    2.8883   -1.9769 C   0  0  0  0  0  0  0  0  0  0  0  0
    0.6012    1.5378    1.7374 H   0  0  0  0  0  0  0  0  0  0  0  0
   -0.8949    2.1900    1.0552 H   0  0  0  0  0  0  0  0  0  0  0  0
   -0.7515    0.5474   -0.8294 H   0  0  0  0  0  0  0  0  0  0  0  0
    0.7461   -0.1036   -0.1472 H   0  0  0  0  0  0  0  0  0  0  0  0
    1.9108    0.5432   -2.1114 H   0  0  0  0  0  0  0  0  0  0  0  0
    0.4314    1.2355   -2.8009 H   0  0  0  0  0  0  0  0  0  0  0  0
    1.4798    3.4845   -2.7975 H   0  0  0  0  0  0  0  0  0  0  0  0
    2.3530    2.3277   -3.7888 H   0  0  0  0  0  0  0  0  0  0  0  0
    4.0358    2.0112   -1.9476 H   0  0  0  0  0  0  0  0  0  0  0  0
    3.1528    3.1679   -0.9492 H   0  0  0  0  0  0  0  0  0  0  0  0
    3.9440    3.7053   -2.4351 H   0  0  0  0  0  0  0  0  0  0  0  0
  1  2  1  0
  1  6  1  0
  1  7  1  0
  1  8  1  0
  2  3  1  0
  2  9  1  0
  2 10  1  0
  3  4  1  0
  3 11  1  0
  3 12  1  0
  4  5  1  0
  5 14  1  0
  5 15  1  0
 13 16  1  0
 16 17  1  0
 16 22  1  0
 16 23  1  0
 17 18  1  0
 17 24  1  0
 17 25  1  0
 18 19  1  0
 19 20  1  0
 19 26  1  0
 19 27  1  0
 20 21  1  0
 20 28  1  0
 20 29  1  0
 21 30  1  0
 21 31  1  0
 21 32  1  0
M  RAD  1   5   2
M  END
>  <reaction>  (18) 
rmg_rxn_663

>  <mol_properties>  (18) 
{"3": {"label": "*0", "atom_type": "O2s"}, "4": {"label": "*1", "atom_type": "Cs"}, "12": {"label": "*2", "atom_type": "H0"}, "15": {"label": "*3", "atom_type": "Cs"}, "16": {"label": "*4", "atom_type": "Cs"}}

>  <type>  (18) 
unop_14

>  <geom_source>  (18) 
gaussian_log

$$$$
