
     RDKit          3D

 14 13  0  0  0  0  0  0  0  0999 V2000
    2.1277    0.0527   -0.0768 C   0  0  0  0  0  0  0  0  0  0  0  0
    0.8550    0.0849    0.7591 C   0  0  0  0  0  0  0  0  0  0  0  0
    0.7150    1.3361    1.5963 C   0  0  0  0  0  0  0  0  0  0  0  0
    0.5975    2.4604    0.7083 O   0  0  0  0  0  0  0  0  0  0  0  0
    0.5113    3.6572    1.2782 C   0  0  0  0  0  0  0  0  0  0  0  0
    0.5224    3.8788    2.4534 O   0  0  0  0  0  0  0  0  0  0  0  0
    3.0138    0.1211    0.5584 H   0  0  0  0  0  0  0  0  0  0  0  0
    2.1544    0.8845   -0.7813 H   0  0  0  0  0  0  0  0  0  0  0  0
    2.1955   -0.8742   -0.6473 H   0  0  0  0  0  0  0  0  0  0  0  0
    0.8361   -0.7663    1.4449 H   0  0  0  0  0  0  0  0  0  0  0  0
   -0.0232   -0.0114    0.1158 H   0  0  0  0  0  0  0  0  0  0  0  0
   -0.1715    1.3001    2.2317 H   0  0  0  0  0  0  0  0  0  0  0  0
    1.5840    1.4884    2.2407 H   0  0  0  0  0  0  0  0  0  0  0  0
    0.4263    4.4265    0.4986 H   0  0  0  0  0  0  0  0  0  0  0  0
  1  2  1  0
  1  7  1  0
  1  8  1  0
  1  9  1  0
  2  3  1  0
  2 10  1  0
  2 11  1  0
  3  4  1  0
  3 12  1  0
  3 13  1  0
  4  5  1  0
  5  6  2  0
  5 14  1  0
M  END
>  <reaction>  (1) 
rmg_rxn_1447

>  <mol_properties>  (1) 
{"0": {"label": "donator", "atom_type": "Cs"}, "6": {"label": "d_hydrogen", "atom_type": "H0"}}

>  <type>  (1) 
r1h

$$$$

     RDKit          3D

 11 10  0  0  0  0  0  0  0  0999 V2000
   -1.2230    0.3768   -0.0849 C   0  0  0  0  0  0  0  0  0  0  0  0
   -0.0734   -0.5533    0.2746 C   0  0  0  0  0  0  0  0  0  0  0  0
   -0.0853   -1.8426   -0.5372 C   0  0  0  0  0  0  0  0  0  0  0  0
    0.0319   -1.6944   -1.8815 O   0  0  0  0  0  1  0  0  0  0  0  0
   -2.1874   -0.0885    0.1341 H   0  0  0  0  0  0  0  0  0  0  0  0
   -1.1670    1.3099    0.4765 H   0  0  0  0  0  0  0  0  0  0  0  0
   -1.2014    0.6189   -1.1483 H   0  0  0  0  0  0  0  0  0  0  0  0
    0.8834   -0.0518    0.1071 H   0  0  0  0  0  0  0  0  0  0  0  0
   -0.1104   -0.8149    1.3362 H   0  0  0  0  0  0  0  0  0  0  0  0
    0.6767   -2.5604   -0.1861 H   0  0  0  0  0  0  0  0  0  0  0  0
   -1.0401   -2.3871   -0.3877 H   0  0  0  0  0  0  0  0  0  0  0  0
  1  2  1  0
  1  5  1  0
  1  6  1  0
  1  7  1  0
  2  3  1  0
  2  8  1  0
  2  9  1  0
  3  4  1  0
  3 10  1  0
  3 11  1  0
M  RAD  1   4   2
M  END
>  <reaction>  (2) 
rmg_rxn_1447

>  <mol_properties>  (2) 
{"3": {"label": "acceptor", "atom_type": "O2s"}}

>  <type>  (2) 
r2

$$$$

     RDKit          3D

 12 11  0  0  0  0  0  0  0  0999 V2000
   -1.4643   -0.2505   -0.5284 C   0  0  0  0  0  0  0  0  0  0  0  0
   -0.3946    0.4302    0.3143 C   0  0  0  0  0  0  0  0  0  0  0  0
   -0.5959    0.2382    1.8102 C   0  0  0  0  0  0  0  0  0  0  0  0
   -0.5633   -1.1190    2.2092 O   0  0  0  0  0  0  0  0  0  0  0  0
   -2.4511    0.1644   -0.3109 H   0  0  0  0  0  0  0  0  0  0  0  0
   -1.5019   -1.3198   -0.3181 H   0  0  0  0  0  0  0  0  0  0  0  0
   -1.2720   -0.1182   -1.5941 H   0  0  0  0  0  0  0  0  0  0  0  0
    0.5965    0.0515    0.0385 H   0  0  0  0  0  0  0  0  0  0  0  0
   -0.3776    1.5047    0.1078 H   0  0  0  0  0  0  0  0  0  0  0  0
   -1.5821    0.6048    2.1034 H   0  0  0  0  0  0  0  0  0  0  0  0
    0.1495    0.8220    2.3649 H   0  0  0  0  0  0  0  0  0  0  0  0
    0.3017   -1.4750    1.9997 H   0  0  0  0  0  0  0  0  0  0  0  0
  1  2  1  0
  1  5  1  0
  1  6  1  0
  1  7  1  0
  2  3  1  0
  2  8  1  0
  2  9  1  0
  3  4  1  0
  3 10  1  0
  3 11  1  0
  4 12  1  0
M  END
>  <reaction>  (3) 
rmg_rxn_1447

>  <mol_properties>  (3) 
{"3": {"label": "acceptor", "atom_type": "O2s"}, "11": {"label": "a_hydrogen", "atom_type": "H0"}}

>  <type>  (3) 
r2h

$$$$

     RDKit          3D

 25 23  0  0  0  0  0  0  0  0999 V2000
    2.4834   -0.6464   -0.7171 C   0  0  0  0  0  0  0  0  0  0  0  0
    2.2337   -0.2012    0.7168 C   0  0  0  0  0  0  0  0  0  0  0  0
    2.3651    1.3043    0.9065 C   0  0  0  0  0  0  0  0  0  0  0  0
    1.4548    2.0559    0.1582 O   0  0  0  0  0  0  0  0  0  0  0  0
    3.5210   -0.4608   -1.0047 H   0  0  0  0  0  0  0  0  0  0  0  0
    2.2779   -1.7090   -0.8467 H   0  0  0  0  0  0  0  0  0  0  0  0
    1.8465   -0.0965   -1.4113 H   0  0  0  0  0  0  0  0  0  0  0  0
    1.2316   -0.5016    1.0387 H   0  0  0  0  0  0  0  0  0  0  0  0
    2.9359   -0.6974    1.3936 H   0  0  0  0  0  0  0  0  0  0  0  0
    2.3052    1.5656    1.9714 H   0  0  0  0  0  0  0  0  0  0  0  0
    3.3536    1.6378    0.5615 H   0  0  0  0  0  0  0  0  0  0  0  0
   -0.7598    1.8020    1.3032 C   0  0  0  0  0  3  0  0  0  0  0  0
   -1.7388    1.3489    0.2524 C   0  0  0  0  0  0  0  0  0  0  0  0
   -1.3711    0.0311   -0.3920 C   0  0  0  0  0  0  0  0  0  0  0  0
   -1.3994   -0.9842    0.6256 O   0  0  0  0  0  0  0  0  0  0  0  0
   -1.0142   -2.2021    0.2561 C   0  0  0  0  0  0  0  0  0  0  0  0
   -0.6606   -2.5248   -0.8392 O   0  0  0  0  0  0  0  0  0  0  0  0
    0.3531    1.9674    0.7184 H   0  0  0  0  0  0  0  0  0  0  0  0
   -0.5560    1.0669    2.0798 H   0  0  0  0  0  0  0  0  0  0  0  0
   -0.9650    2.7867    1.7183 H   0  0  0  0  0  0  0  0  0  0  0  0
   -1.8083    2.0978   -0.5402 H   0  0  0  0  0  0  0  0  0  0  0  0
   -2.7388    1.2666    0.6939 H   0  0  0  0  0  0  0  0  0  0  0  0
   -2.0758   -0.2413   -1.1788 H   0  0  0  0  0  0  0  0  0  0  0  0
   -0.3709    0.0709   -0.8254 H   0  0  0  0  0  0  0  0  0  0  0  0
   -1.0705   -2.8788    1.1196 H   0  0  0  0  0  0  0  0  0  0  0  0
  1  2  1  0
  1  5  1  0
  1  6  1  0
  1  7  1  0
  2  3  1  0
  2  8  1  0
  2  9  1  0
  3  4  1  0
  3 10  1  0
  3 11  1  0
  4 18  1  0
 12 13  1  0
 12 19  1  0
 12 20  1  0
 13 14  1  0
 13 21  1  0
 13 22  1  0
 14 15  1  0
 14 23  1  0
 14 24  1  0
 15 16  1  0
 16 17  2  0
 16 25  1  0
M  RAD  1  12   2
M  END
>  <reaction>  (4) 
rmg_rxn_1447

>  <mol_properties>  (4) 
{"2": {"label": "*0", "atom_type": "Cs"}, "3": {"label": "*1", "atom_type": "O2s"}, "11": {"label": "*3", "atom_type": "Cs"}, "12": {"label": "*4", "atom_type": "Cs"}, "17": {"label": "*2", "atom_type": "H0"}}

>  <type>  (4) 
ts

$$$$

     RDKit          3D

 25 23  0  0  0  0  0  0  0  0999 V2000
    4.0861   -0.0618   -0.4722 C   0  0  0  0  0  0  0  0  0  0  0  0
    2.8391    0.5615    0.1390 C   0  0  0  0  0  0  0  0  0  0  0  0
    1.7336   -0.4790    0.3417 C   0  0  0  0  0  0  0  0  0  0  0  0
    0.6125    0.0096    0.9784 O   0  0  0  0  0  0  0  0  0  0  0  0
    3.8502   -0.5212   -1.4296 H   0  0  0  0  0  0  0  0  0  0  0  0
    4.8508    0.6947   -0.6318 H   0  0  0  0  0  0  0  0  0  0  0  0
    4.4924   -0.8282    0.1838 H   0  0  0  0  0  0  0  0  0  0  0  0
    3.0785    1.0148    1.1032 H   0  0  0  0  0  0  0  0  0  0  0  0
    2.4620    1.3500   -0.5172 H   0  0  0  0  0  0  0  0  0  0  0  0
    1.4667   -0.9429   -0.6227 H   0  0  0  0  0  0  0  0  0  0  0  0
    2.1079   -1.2819    0.9937 H   0  0  0  0  0  0  0  0  0  0  0  0
   -0.4926    1.7112   -0.4203 C   0  0  0  0  0  3  0  0  0  0  0  0
   -1.9426    1.7104   -0.0368 C   0  0  0  0  0  0  0  0  0  0  0  0
   -2.6305    0.3736   -0.3214 C   0  0  0  0  0  0  0  0  0  0  0  0
   -2.1840   -0.6331    0.5865 O   0  0  0  0  0  0  0  0  0  0  0  0
   -1.2665   -1.4831    0.1559 C   0  0  0  0  0  0  0  0  0  0  0  0
   -0.8347   -1.5724   -0.9588 O   0  0  0  0  0  0  0  0  0  0  0  0
    0.1007    0.8223    0.3391 H   0  0  0  0  0  0  0  0  0  0  0  0
    0.0263    2.6313   -0.1826 H   0  0  0  0  0  0  0  0  0  0  0  0
   -0.2954    1.3539   -1.4243 H   0  0  0  0  0  0  0  0  0  0  0  0
   -2.4753    2.4849   -0.6032 H   0  0  0  0  0  0  0  0  0  0  0  0
   -2.0496    1.9437    1.0248 H   0  0  0  0  0  0  0  0  0  0  0  0
   -3.7091    0.4591   -0.1681 H   0  0  0  0  0  0  0  0  0  0  0  0
   -2.4248    0.0448   -1.3461 H   0  0  0  0  0  0  0  0  0  0  0  0
   -1.0105   -2.1680    0.9782 H   0  0  0  0  0  0  0  0  0  0  0  0
  1  2  1  0
  1  5  1  0
  1  6  1  0
  1  7  1  0
  2  3  1  0
  2  8  1  0
  2  9  1  0
  3  4  1  0
  3 10  1  0
  3 11  1  0
  4 18  1  0
 12 13  1  0
 12 19  1  0
 12 20  1  0
 13 14  1  0
 13 21  1  0
 13 22  1  0
 14 15  1  0
 14 23  1  0
 14 24  1  0
 15 16  1  0
 16 17  2  0
 16 25  1  0
M  RAD  1  12   2
M  END
>  <reaction>  (5) 
rmg_rxn_1447

>  <mol_properties>  (5) 
{"2": {"label": "*0", "atom_type": "Cs"}, "3": {"label": "*1", "atom_type": "O2s"}, "11": {"label": "*3", "atom_type": "Cs"}, "12": {"label": "*4", "atom_type": "Cs"}, "17": {"label": "*2", "atom_type": "H0"}}

>  <type>  (5) 
unop_1

>  <geom_source>  (5) 
crest_best.xyz

$$$$

     RDKit          3D

 25 23  0  0  0  0  0  0  0  0999 V2000
    2.3281    1.4573    2.4086 C   0  0  0  0  0  0  0  0  0  0  0  0
    1.9964    2.4915    1.3417 C   0  0  0  0  0  0  0  0  0  0  0  0
    2.3546    2.0385   -0.0660 C   0  0  0  0  0  0  0  0  0  0  0  0
    1.6683    0.8684   -0.4687 O   0  0  0  0  0  0  0  0  0  0  0  0
    3.4013    1.2545    2.4313 H   0  0  0  0  0  0  0  0  0  0  0  0
    2.0307    1.8022    3.3999 H   0  0  0  0  0  0  0  0  0  0  0  0
    1.8181    0.5147    2.2074 H   0  0  0  0  0  0  0  0  0  0  0  0
    0.9279    2.7341    1.3748 H   0  0  0  0  0  0  0  0  0  0  0  0
    2.5268    3.4269    1.5441 H   0  0  0  0  0  0  0  0  0  0  0  0
    2.1767    2.8549   -0.7772 H   0  0  0  0  0  0  0  0  0  0  0  0
    3.4161    1.7861   -0.1173 H   0  0  0  0  0  0  0  0  0  0  0  0
   -0.2973    0.5825    0.9848 C   0  0  0  0  0  3  0  0  0  0  0  0
   -1.5834    0.5938    0.1692 C   0  0  0  0  0  0  0  0  0  0  0  0
   -1.6392   -0.4895   -0.8840 C   0  0  0  0  0  0  0  0  0  0  0  0
   -1.6396   -1.7638   -0.2186 O   0  0  0  0  0  0  0  0  0  0  0  0
   -1.6396   -2.8383   -0.9995 C   0  0  0  0  0  0  0  0  0  0  0  0
   -1.6396   -2.8383   -2.1955 O   0  0  0  0  0  0  0  0  0  0  0  0
    0.7497    0.7348    0.2106 H   0  0  0  0  0  0  0  0  0  0  0  0
   -0.1831   -0.3591    1.5227 H   0  0  0  0  0  0  0  0  0  0  0  0
   -0.2929    1.3911    1.7164 H   0  0  0  0  0  0  0  0  0  0  0  0
   -1.6910    1.5517   -0.3467 H   0  0  0  0  0  0  0  0  0  0  0  0
   -2.4501    0.4935    0.8273 H   0  0  0  0  0  0  0  0  0  0  0  0
   -2.5414   -0.4146   -1.4934 H   0  0  0  0  0  0  0  0  0  0  0  0
   -0.7770   -0.4446   -1.5535 H   0  0  0  0  0  0  0  0  0  0  0  0
   -1.6401   -3.7423   -0.3753 H   0  0  0  0  0  0  0  0  0  0  0  0
  1  2  1  0
  1  5  1  0
  1  6  1  0
  1  7  1  0
  2  3  1  0
  2  8  1  0
  2  9  1  0
  3  4  1  0
  3 10  1  0
  3 11  1  0
  4 18  1  0
 12 13  1  0
 12 19  1  0
 12 20  1  0
 13 14  1  0
 13 21  1  0
 13 22  1  0
 14 15  1  0
 14 23  1  0
 14 24  1  0
 15 16  1  0
 16 17  2  0
 16 25  1  0
M  RAD  1  12   2
M  END
>  <reaction>  (6) 
rmg_rxn_1447

>  <mol_properties>  (6) 
{"2": {"label": "*0", "atom_type": "Cs"}, "3": {"label": "*1", "atom_type": "O2s"}, "11": {"label": "*3", "atom_type": "Cs"}, "12": {"label": "*4", "atom_type": "Cs"}, "17": {"label": "*2", "atom_type": "H0"}}

>  <type>  (6) 
unop_2

>  <geom_source>  (6) 
Heuristics

$$$$

     RDKit          3D

 25 23  0  0  0  0  0  0  0  0999 V2000
    4.0878    0.0619   -0.4704 C   0  0  0  0  0  0  0  0  0  0  0  0
    2.8403   -0.5614    0.1398 C   0  0  0  0  0  0  0  0  0  0  0  0
    1.7338    0.4786    0.3400 C   0  0  0  0  0  0  0  0  0  0  0  0
    0.6126   -0.0099    0.9766 O   0  0  0  0  0  0  0  0  0  0  0  0
    4.8534   -0.6942   -0.6274 H   0  0  0  0  0  0  0  0  0  0  0  0
    3.8530    0.5196   -1.4289 H   0  0  0  0  0  0  0  0  0  0  0  0
    4.4922    0.8298    0.1851 H   0  0  0  0  0  0  0  0  0  0  0  0
    2.4644   -1.3509   -0.5160 H   0  0  0  0  0  0  0  0  0  0  0  0
    3.0787   -1.0135    1.1049 H   0  0  0  0  0  0  0  0  0  0  0  0
    2.1071    1.2826    0.9911 H   0  0  0  0  0  0  0  0  0  0  0  0
    1.4674    0.9409   -0.6252 H   0  0  0  0  0  0  0  0  0  0  0  0
   -0.4938   -1.7106   -0.4222 C   0  0  0  0  0  3  0  0  0  0  0  0
   -1.9432   -1.7101   -0.0364 C   0  0  0  0  0  0  0  0  0  0  0  0
   -2.6317   -0.3732   -0.3193 C   0  0  0  0  0  0  0  0  0  0  0  0
   -2.1836    0.6334    0.5878 O   0  0  0  0  0  0  0  0  0  0  0  0
   -1.2662    1.4829    0.1557 C   0  0  0  0  0  0  0  0  0  0  0  0
   -0.8357    1.5715   -0.9596 O   0  0  0  0  0  0  0  0  0  0  0  0
    0.1004   -0.8224    0.3373 H   0  0  0  0  0  0  0  0  0  0  0  0
   -0.2979   -1.3524   -1.4261 H   0  0  0  0  0  0  0  0  0  0  0  0
    0.0255   -2.6310   -0.1862 H   0  0  0  0  0  0  0  0  0  0  0  0
   -2.0485   -1.9438    1.0252 H   0  0  0  0  0  0  0  0  0  0  0  0
   -2.4768   -2.4844   -0.6022 H   0  0  0  0  0  0  0  0  0  0  0  0
   -2.4280   -0.0442   -1.3443 H   0  0  0  0  0  0  0  0  0  0  0  0
   -3.7100   -0.4587   -0.1638 H   0  0  0  0  0  0  0  0  0  0  0  0
   -1.0084    2.1677    0.9776 H   0  0  0  0  0  0  0  0  0  0  0  0
  1  2  1  0
  1  5  1  0
  1  6  1  0
  1  7  1  0
  2  3  1  0
  2  8  1  0
  2  9  1  0
  3  4  1  0
  3 10  1  0
  3 11  1  0
  4 18  1  0
 12 13  1  0
 12 19  1  0
 12 20  1  0
 13 14  1  0
 13 21  1  0
 13 22  1  0
 14 15  1  0
 14 23  1  0
 14 24  1  0
 15 16  1  0
 16 17  2  0
 16 25  1  0
M  RAD  1  12   2
M  END
>  <reaction>  (7) 
rmg_rxn_1447

>  <mol_properties>  (7) 
{"2": {"label": "*0", "atom_type": "Cs"}, "3": {"label": "*1", "atom_type": "O2s"}, "11": {"label": "*3", "atom_type": "Cs"}, "12": {"label": "*4", "atom_type": "Cs"}, "17": {"label": "*2", "atom_type": "H0"}}

>  <type>  (7) 
unop_3

>  <geom_source>  (7) 
Heuristics

$$$$

     RDKit          3D

 25 23  0  0  0  0  0  0  0  0999 V2000
    1.4224    3.5717    0.4067 C   0  0  0  0  0  0  0  0  0  0  0  0
    0.7755    2.5842   -0.5547 C   0  0  0  0  0  0  0  0  0  0  0  0
    1.6813    1.4163   -0.9160 C   0  0  0  0  0  0  0  0  0  0  0  0
    2.0626    0.6376    0.2023 O   0  0  0  0  0  0  0  0  0  0  0  0
    2.3131    4.0200   -0.0395 H   0  0  0  0  0  0  0  0  0  0  0  0
    0.7354    4.3781    0.6672 H   0  0  0  0  0  0  0  0  0  0  0  0
    1.7292    3.0734    1.3268 H   0  0  0  0  0  0  0  0  0  0  0  0
   -0.1520    2.1926   -0.1211 H   0  0  0  0  0  0  0  0  0  0  0  0
    0.4876    3.0915   -1.4805 H   0  0  0  0  0  0  0  0  0  0  0  0
    1.1973    0.7901   -1.6760 H   0  0  0  0  0  0  0  0  0  0  0  0
    2.6148    1.7876   -1.3447 H   0  0  0  0  0  0  0  0  0  0  0  0
    0.0970    0.3516    1.6557 C   0  0  0  0  0  3  0  0  0  0  0  0
   -1.1891    0.3630    0.8401 C   0  0  0  0  0  0  0  0  0  0  0  0
   -1.2448   -0.7204   -0.2131 C   0  0  0  0  0  0  0  0  0  0  0  0
   -1.2453   -1.9946    0.4524 O   0  0  0  0  0  0  0  0  0  0  0  0
   -1.2453   -3.0691   -0.3286 C   0  0  0  0  0  0  0  0  0  0  0  0
   -1.2453   -3.0691   -1.5246 O   0  0  0  0  0  0  0  0  0  0  0  0
    1.1440    0.5039    0.8815 H   0  0  0  0  0  0  0  0  0  0  0  0
    0.2112   -0.5899    2.1936 H   0  0  0  0  0  0  0  0  0  0  0  0
    0.1014    1.1603    2.3874 H   0  0  0  0  0  0  0  0  0  0  0  0
   -1.2966    1.3208    0.3242 H   0  0  0  0  0  0  0  0  0  0  0  0
   -2.0558    0.2626    1.4983 H   0  0  0  0  0  0  0  0  0  0  0  0
   -2.1470   -0.6454   -0.8225 H   0  0  0  0  0  0  0  0  0  0  0  0
   -0.3827   -0.6754   -0.8825 H   0  0  0  0  0  0  0  0  0  0  0  0
   -1.2458   -3.9731    0.2956 H   0  0  0  0  0  0  0  0  0  0  0  0
  1  2  1  0
  1  5  1  0
  1  6  1  0
  1  7  1  0
  2  3  1  0
  2  8  1  0
  2  9  1  0
  3  4  1  0
  3 10  1  0
  3 11  1  0
  4 18  1  0
 12 13  1  0
 12 19  1  0
 12 20  1  0
 13 14  1  0
 13 21  1  0
 13 22  1  0
 14 15  1  0
 14 23  1  0
 14 24  1  0
 15 16  1  0
 16 17  2  0
 16 25  1  0
M  RAD  1  12   2
M  END
>  <reaction>  (8) 
rmg_rxn_1447

>  <mol_properties>  (8) 
{"2": {"label": "*0", "atom_type": "Cs"}, "3": {"label": "*1", "atom_type": "O2s"}, "11": {"label": "*3", "atom_type": "Cs"}, "12": {"label": "*4", "atom_type": "Cs"}, "17": {"label": "*2", "atom_type": "H0"}}

>  <type>  (8) 
unop_4

>  <geom_source>  (8) 
Heuristics

$$$$

     RDKit          3D

 25 23  0  0  0  0  0  0  0  0999 V2000
    2.2198   -1.4306   -1.2025 C   0  0  0  0  0  0  0  0  0  0  0  0
    2.1281   -1.1247    0.2880 C   0  0  0  0  0  0  0  0  0  0  0  0
    2.6628    0.2774    0.6035 C   0  0  0  0  0  0  0  0  0  0  0  0
    1.9886    1.3000   -0.0269 O   0  0  0  0  0  0  0  0  0  0  0  0
    3.2592   -1.5241   -1.5109 H   0  0  0  0  0  0  0  0  0  0  0  0
    1.7035   -2.3585   -1.4368 H   0  0  0  0  0  0  0  0  0  0  0  0
    1.7692   -0.6221   -1.7750 H   0  0  0  0  0  0  0  0  0  0  0  0
    1.0891   -1.1931    0.6155 H   0  0  0  0  0  0  0  0  0  0  0  0
    2.7061   -1.8540    0.8579 H   0  0  0  0  0  0  0  0  0  0  0  0
    2.6892    0.4313    1.6962 H   0  0  0  0  0  0  0  0  0  0  0  0
    3.6991    0.3551    0.2411 H   0  0  0  0  0  0  0  0  0  0  0  0
   -0.2926    1.6587    0.8311 C   0  0  0  0  0  3  0  0  0  0  0  0
   -1.1590    1.7937   -0.3884 C   0  0  0  0  0  0  0  0  0  0  0  0
   -1.4874    0.4508   -1.0415 C   0  0  0  0  0  0  0  0  0  0  0  0
   -2.5859   -0.1887   -0.3728 O   0  0  0  0  0  0  0  0  0  0  0  0
   -2.3281   -1.1460    0.4919 C   0  0  0  0  0  0  0  0  0  0  0  0
   -1.2567   -1.5736    0.8092 O   0  0  0  0  0  0  0  0  0  0  0  0
    0.9181    1.4251    0.3840 H   0  0  0  0  0  0  0  0  0  0  0  0
   -0.5173    0.8114    1.4661 H   0  0  0  0  0  0  0  0  0  0  0  0
   -0.1704    2.5795    1.3872 H   0  0  0  0  0  0  0  0  0  0  0  0
   -0.6584    2.4281   -1.1231 H   0  0  0  0  0  0  0  0  0  0  0  0
   -2.1060    2.2846   -0.1297 H   0  0  0  0  0  0  0  0  0  0  0  0
   -1.8251    0.5941   -2.0701 H   0  0  0  0  0  0  0  0  0  0  0  0
   -0.6180   -0.2119   -1.0225 H   0  0  0  0  0  0  0  0  0  0  0  0
   -3.2848   -1.5186    0.8976 H   0  0  0  0  0  0  0  0  0  0  0  0
  1  2  1  0
  1  5  1  0
  1  6  1  0
  1  7  1  0
  2  3  1  0
  2  8  1  0
  2  9  1  0
  3  4  1  0
  3 10  1  0
  3 11  1  0
  4 18  1  0
 12 13  1  0
 12 19  1  0
 12 20  1  0
 13 14  1  0
 13 21  1  0
 13 22  1  0
 14 15  1  0
 14 23  1  0
 14 24  1  0
 15 16  1  0
 16 17  2  0
 16 25  1  0
M  RAD  1  12   2
M  END
>  <reaction>  (9) 
rmg_rxn_1447

>  <mol_properties>  (9) 
{"2": {"label": "*0", "atom_type": "Cs"}, "3": {"label": "*1", "atom_type": "O2s"}, "11": {"label": "*3", "atom_type": "Cs"}, "12": {"label": "*4", "atom_type": "Cs"}, "17": {"label": "*2", "atom_type": "H0"}}

>  <type>  (9) 
unop_5

>  <geom_source>  (9) 
Heuristics

$$$$

     RDKit          3D

 25 23  0  0  0  0  0  0  0  0999 V2000
    2.6706    0.0875    2.0357 C   0  0  0  0  0  0  0  0  0  0  0  0
    2.4874    1.5658    1.7213 C   0  0  0  0  0  0  0  0  0  0  0  0
    2.5367    1.8738    0.2320 C   0  0  0  0  0  0  0  0  0  0  0  0
    1.5257    1.2170   -0.5087 O   0  0  0  0  0  0  0  0  0  0  0  0
    3.6486   -0.2623    1.6974 H   0  0  0  0  0  0  0  0  0  0  0  0
    2.5993   -0.1007    3.1079 H   0  0  0  0  0  0  0  0  0  0  0  0
    1.9126   -0.5133    1.5322 H   0  0  0  0  0  0  0  0  0  0  0  0
    1.5311    1.9187    2.1247 H   0  0  0  0  0  0  0  0  0  0  0  0
    3.2632    2.1567    2.2175 H   0  0  0  0  0  0  0  0  0  0  0  0
    2.4889    2.9585    0.0737 H   0  0  0  0  0  0  0  0  0  0  0  0
    3.4814    1.5235   -0.1897 H   0  0  0  0  0  0  0  0  0  0  0  0
   -0.4399    0.9310    0.9448 C   0  0  0  0  0  3  0  0  0  0  0  0
   -1.7260    0.9424    0.1292 C   0  0  0  0  0  0  0  0  0  0  0  0
   -1.7817   -0.1410   -0.9240 C   0  0  0  0  0  0  0  0  0  0  0  0
   -1.7822   -1.4152   -0.2586 O   0  0  0  0  0  0  0  0  0  0  0  0
   -1.7822   -2.4897   -1.0395 C   0  0  0  0  0  0  0  0  0  0  0  0
   -1.7822   -2.4897   -2.2355 O   0  0  0  0  0  0  0  0  0  0  0  0
    0.6071    1.0833    0.1706 H   0  0  0  0  0  0  0  0  0  0  0  0
   -0.3257   -0.0105    1.4827 H   0  0  0  0  0  0  0  0  0  0  0  0
   -0.4355    1.7397    1.6764 H   0  0  0  0  0  0  0  0  0  0  0  0
   -1.8335    1.9002   -0.3867 H   0  0  0  0  0  0  0  0  0  0  0  0
   -2.5927    0.8420    0.7873 H   0  0  0  0  0  0  0  0  0  0  0  0
   -2.6840   -0.0660   -1.5334 H   0  0  0  0  0  0  0  0  0  0  0  0
   -0.9196   -0.0960   -1.5935 H   0  0  0  0  0  0  0  0  0  0  0  0
   -1.7827   -3.3937   -0.4153 H   0  0  0  0  0  0  0  0  0  0  0  0
  1  2  1  0
  1  5  1  0
  1  6  1  0
  1  7  1  0
  2  3  1  0
  2  8  1  0
  2  9  1  0
  3  4  1  0
  3 10  1  0
  3 11  1  0
  4 18  1  0
 12 13  1  0
 12 19  1  0
 12 20  1  0
 13 14  1  0
 13 21  1  0
 13 22  1  0
 14 15  1  0
 14 23  1  0
 14 24  1  0
 15 16  1  0
 16 17  2  0
 16 25  1  0
M  RAD  1  12   2
M  END
>  <reaction>  (10) 
rmg_rxn_1447

>  <mol_properties>  (10) 
{"2": {"label": "*0", "atom_type": "Cs"}, "3": {"label": "*1", "atom_type": "O2s"}, "11": {"label": "*3", "atom_type": "Cs"}, "12": {"label": "*4", "atom_type": "Cs"}, "17": {"label": "*2", "atom_type": "H0"}}

>  <type>  (10) 
unop_6

>  <geom_source>  (10) 
Heuristics

$$$$

     RDKit          3D

 25 23  0  0  0  0  0  0  0  0999 V2000
    1.9960    1.7714   -2.3234 C   0  0  0  0  0  0  0  0  0  0  0  0
    1.2853    0.6228   -1.6209 C   0  0  0  0  0  0  0  0  0  0  0  0
    1.9043    0.2651   -0.2777 C   0  0  0  0  0  0  0  0  0  0  0  0
    1.8779    1.3315    0.6520 O   0  0  0  0  0  0  0  0  0  0  0  0
    3.0341    1.5098   -2.5407 H   0  0  0  0  0  0  0  0  0  0  0  0
    1.5081    2.0206   -3.2669 H   0  0  0  0  0  0  0  0  0  0  0  0
    2.0045    2.6639   -1.6969 H   0  0  0  0  0  0  0  0  0  0  0  0
    0.2290    0.8731   -1.4689 H   0  0  0  0  0  0  0  0  0  0  0  0
    1.2981   -0.2716   -2.2511 H   0  0  0  0  0  0  0  0  0  0  0  0
    1.4087   -0.6216    0.1371 H   0  0  0  0  0  0  0  0  0  0  0  0
    2.9603    0.0181   -0.4082 H   0  0  0  0  0  0  0  0  0  0  0  0
   -0.0877    1.0455    2.1054 C   0  0  0  0  0  3  0  0  0  0  0  0
   -1.3738    1.0569    1.2899 C   0  0  0  0  0  0  0  0  0  0  0  0
   -1.4296   -0.0265    0.2367 C   0  0  0  0  0  0  0  0  0  0  0  0
   -1.4300   -1.3007    0.9021 O   0  0  0  0  0  0  0  0  0  0  0  0
   -1.4300   -2.3752    0.1211 C   0  0  0  0  0  0  0  0  0  0  0  0
   -1.4300   -2.3752   -1.0749 O   0  0  0  0  0  0  0  0  0  0  0  0
    0.9592    1.1978    1.3313 H   0  0  0  0  0  0  0  0  0  0  0  0
    0.0265    0.1040    2.6433 H   0  0  0  0  0  0  0  0  0  0  0  0
   -0.0834    1.8542    2.8371 H   0  0  0  0  0  0  0  0  0  0  0  0
   -1.4814    2.0147    0.7740 H   0  0  0  0  0  0  0  0  0  0  0  0
   -2.2405    0.9565    1.9480 H   0  0  0  0  0  0  0  0  0  0  0  0
   -2.3318    0.0485   -0.3727 H   0  0  0  0  0  0  0  0  0  0  0  0
   -0.5674    0.0185   -0.4328 H   0  0  0  0  0  0  0  0  0  0  0  0
   -1.4305   -3.2792    0.7454 H   0  0  0  0  0  0  0  0  0  0  0  0
  1  2  1  0
  1  5  1  0
  1  6  1  0
  1  7  1  0
  2  3  1  0
  2  8  1  0
  2  9  1  0
  3  4  1  0
  3 10  1  0
  3 11  1  0
  4 18  1  0
 12 13  1  0
 12 19  1  0
 12 20  1  0
 13 14  1  0
 13 21  1  0
 13 22  1  0
 14 15  1  0
 14 23  1  0
 14 24  1  0
 15 16  1  0
 16 17  2  0
 16 25  1  0
M  RAD  1  12   2
M  END
>  <reaction>  (11) 
rmg_rxn_1447

>  <mol_properties>  (11) 
{"2": {"label": "*0", "atom_type": "Cs"}, "3": {"label": "*1", "atom_type": "O2s"}, "11": {"label": "*3", "atom_type": "Cs"}, "12": {"label": "*4", "atom_type": "Cs"}, "17": {"label": "*2", "atom_type": "H0"}}

>  <type>  (11) 
unop_7

>  <geom_source>  (11) 
Heuristics

$$$$

     RDKit          3D

 25 23  0  0  0  0  0  0  0  0999 V2000
    4.0889   -0.0619   -0.4684 C   0  0  0  0  0  0  0  0  0  0  0  0
    2.8397    0.5619    0.1378 C   0  0  0  0  0  0  0  0  0  0  0  0
    1.7345   -0.4789    0.3404 C   0  0  0  0  0  0  0  0  0  0  0  0
    0.6129    0.0097    0.9762 O   0  0  0  0  0  0  0  0  0  0  0  0
    4.4942   -0.8261    0.1910 H   0  0  0  0  0  0  0  0  0  0  0  0
    3.8560   -0.5244   -1.4250 H   0  0  0  0  0  0  0  0  0  0  0  0
    4.8533    0.6948   -0.6280 H   0  0  0  0  0  0  0  0  0  0  0  0
    3.0762    1.0179    1.1015 H   0  0  0  0  0  0  0  0  0  0  0  0
    2.4637    1.3483   -0.5214 H   0  0  0  0  0  0  0  0  0  0  0  0
    1.4684   -0.9436   -0.6238 H   0  0  0  0  0  0  0  0  0  0  0  0
    2.1088   -1.2811    0.9932 H   0  0  0  0  0  0  0  0  0  0  0  0
   -0.4940    1.7095   -0.4232 C   0  0  0  0  0  3  0  0  0  0  0  0
   -1.9429    1.7099   -0.0354 C   0  0  0  0  0  0  0  0  0  0  0  0
   -2.6326    0.3735   -0.3177 C   0  0  0  0  0  0  0  0  0  0  0  0
   -2.1837   -0.6339    0.5881 O   0  0  0  0  0  0  0  0  0  0  0  0
   -1.2664   -1.4828    0.1548 C   0  0  0  0  0  0  0  0  0  0  0  0
   -0.8362   -1.5700   -0.9607 O   0  0  0  0  0  0  0  0  0  0  0  0
    0.1005    0.8215    0.3363 H   0  0  0  0  0  0  0  0  0  0  0  0
    0.0261    2.6298   -0.1886 H   0  0  0  0  0  0  0  0  0  0  0  0
   -0.2997    1.3504   -1.4272 H   0  0  0  0  0  0  0  0  0  0  0  0
   -2.4766    2.4847   -0.6003 H   0  0  0  0  0  0  0  0  0  0  0  0
   -2.0464    1.9435    1.0264 H   0  0  0  0  0  0  0  0  0  0  0  0
   -3.7106    0.4597   -0.1605 H   0  0  0  0  0  0  0  0  0  0  0  0
   -2.4308    0.0450   -1.3432 H   0  0  0  0  0  0  0  0  0  0  0  0
   -1.0084   -2.1687    0.9757 H   0  0  0  0  0  0  0  0  0  0  0  0
  1  2  1  0
  1  5  1  0
  1  6  1  0
  1  7  1  0
  2  3  1  0
  2  8  1  0
  2  9  1  0
  3  4  1  0
  3 10  1  0
  3 11  1  0
  4 18  1  0
 12 13  1  0
 12 19  1  0
 12 20  1  0
 13 14  1  0
 13 21  1  0
 13 22  1  0
 14 15  1  0
 14 23  1  0
 14 24  1  0
 15 16  1  0
 16 17  2  0
 16 25  1  0
M  RAD  1  12   2
M  END
>  <reaction>  (12) 
rmg_rxn_1447

>  <mol_properties>  (12) 
{"2": {"label": "*0", "atom_type": "Cs"}, "3": {"label": "*1", "atom_type": "O2s"}, "11": {"label": "*3", "atom_type": "Cs"}, "12": {"label": "*4", "atom_type": "Cs"}, "17": {"label": "*2", "atom_type": "H0"}}

>  <type>  (12) 
unop_8

>  <geom_source>  (12) 
Heuristics

$$$$

     RDKit          3D

 25 23  0  0  0  0  0  0  0  0999 V2000
    2.9412   -0.9425    0.3715 C   0  0  0  0  0  0  0  0  0  0  0  0
    2.7904    0.2562    1.2979 C   0  0  0  0  0  0  0  0  0  0  0  0
    2.5969    1.5695    0.5543 C   0  0  0  0  0  0  0  0  0  0  0  0
    1.4366    1.5880   -0.2555 O   0  0  0  0  0  0  0  0  0  0  0  0
    3.8239   -0.8334   -0.2628 H   0  0  0  0  0  0  0  0  0  0  0  0
    3.0473   -1.8691    0.9376 H   0  0  0  0  0  0  0  0  0  0  0  0
    2.0742   -1.0390   -0.2827 H   0  0  0  0  0  0  0  0  0  0  0  0
    1.9407    0.1028    1.9733 H   0  0  0  0  0  0  0  0  0  0  0  0
    3.6731    0.3533    1.9372 H   0  0  0  0  0  0  0  0  0  0  0  0
    2.5839    2.4035    1.2672 H   0  0  0  0  0  0  0  0  0  0  0  0
    3.4322    1.7371   -0.1293 H   0  0  0  0  0  0  0  0  0  0  0  0
   -0.5289    1.3021    1.1980 C   0  0  0  0  0  3  0  0  0  0  0  0
   -1.8151    1.3134    0.3824 C   0  0  0  0  0  0  0  0  0  0  0  0
   -1.8708    0.2301   -0.6708 C   0  0  0  0  0  0  0  0  0  0  0  0
   -1.8712   -1.0442   -0.0054 O   0  0  0  0  0  0  0  0  0  0  0  0
   -1.8712   -2.1187   -0.7863 C   0  0  0  0  0  0  0  0  0  0  0  0
   -1.8712   -2.1187   -1.9823 O   0  0  0  0  0  0  0  0  0  0  0  0
    0.5180    1.4544    0.4238 H   0  0  0  0  0  0  0  0  0  0  0  0
   -0.4148    0.3605    1.7359 H   0  0  0  0  0  0  0  0  0  0  0  0
   -0.5246    2.1107    1.9297 H   0  0  0  0  0  0  0  0  0  0  0  0
   -1.9226    2.2713   -0.1335 H   0  0  0  0  0  0  0  0  0  0  0  0
   -2.6818    1.2131    1.0406 H   0  0  0  0  0  0  0  0  0  0  0  0
   -2.7730    0.3050   -1.2802 H   0  0  0  0  0  0  0  0  0  0  0  0
   -1.0087    0.2750   -1.3402 H   0  0  0  0  0  0  0  0  0  0  0  0
   -1.8718   -3.0227   -0.1621 H   0  0  0  0  0  0  0  0  0  0  0  0
  1  2  1  0
  1  5  1  0
  1  6  1  0
  1  7  1  0
  2  3  1  0
  2  8  1  0
  2  9  1  0
  3  4  1  0
  3 10  1  0
  3 11  1  0
  4 18  1  0
 12 13  1  0
 12 19  1  0
 12 20  1  0
 13 14  1  0
 13 21  1  0
 13 22  1  0
 14 15  1  0
 14 23  1  0
 14 24  1  0
 15 16  1  0
 16 17  2  0
 16 25  1  0
M  RAD  1  12   2
M  END
>  <reaction>  (13) 
rmg_rxn_1447

>  <mol_properties>  (13) 
{"2": {"label": "*0", "atom_type": "Cs"}, "3": {"label": "*1", "atom_type": "O2s"}, "11": {"label": "*3", "atom_type": "Cs"}, "12": {"label": "*4", "atom_type": "Cs"}, "17": {"label": "*2", "atom_type": "H0"}}

>  <type>  (13) 
unop_9

>  <geom_source>  (13) 
Heuristics

$$$$

     RDKit          3D

 25 23  0  0  0  0  0  0  0  0999 V2000
    4.0887   -0.0620   -0.4683 C   0  0  0  0  0  0  0  0  0  0  0  0
    2.8391    0.5620    0.1368 C   0  0  0  0  0  0  0  0  0  0  0  0
    1.7347   -0.4792    0.3415 C   0  0  0  0  0  0  0  0  0  0  0  0
    0.6129    0.0096    0.9768 O   0  0  0  0  0  0  0  0  0  0  0  0
    4.4949   -0.8243    0.1926 H   0  0  0  0  0  0  0  0  0  0  0  0
    3.8559   -0.5268   -1.4238 H   0  0  0  0  0  0  0  0  0  0  0  0
    4.8523    0.6951   -0.6300 H   0  0  0  0  0  0  0  0  0  0  0  0
    3.0754    1.0200    1.0996 H   0  0  0  0  0  0  0  0  0  0  0  0
    2.4624    1.3469   -0.5239 H   0  0  0  0  0  0  0  0  0  0  0  0
    1.4686   -0.9456   -0.6220 H   0  0  0  0  0  0  0  0  0  0  0  0
    2.1098   -1.2800    0.9954 H   0  0  0  0  0  0  0  0  0  0  0  0
   -0.4937    1.7091   -0.4233 C   0  0  0  0  0  3  0  0  0  0  0  0
   -1.9425    1.7098   -0.0351 C   0  0  0  0  0  0  0  0  0  0  0  0
   -2.6326    0.3737   -0.3177 C   0  0  0  0  0  0  0  0  0  0  0  0
   -2.1838   -0.6340    0.5879 O   0  0  0  0  0  0  0  0  0  0  0  0
   -1.2665   -1.4827    0.1544 C   0  0  0  0  0  0  0  0  0  0  0  0
   -0.8360   -1.5695   -0.9610 O   0  0  0  0  0  0  0  0  0  0  0  0
    0.1007    0.8212    0.3364 H   0  0  0  0  0  0  0  0  0  0  0  0
    0.0266    2.6293   -0.1890 H   0  0  0  0  0  0  0  0  0  0  0  0
   -0.2996    1.3496   -1.4271 H   0  0  0  0  0  0  0  0  0  0  0  0
   -2.4762    2.4850   -0.5996 H   0  0  0  0  0  0  0  0  0  0  0  0
   -2.0457    1.9431    1.0268 H   0  0  0  0  0  0  0  0  0  0  0  0
   -3.7106    0.4602   -0.1603 H   0  0  0  0  0  0  0  0  0  0  0  0
   -2.4310    0.0454   -1.3433 H   0  0  0  0  0  0  0  0  0  0  0  0
   -1.0087   -2.1690    0.9750 H   0  0  0  0  0  0  0  0  0  0  0  0
  1  2  1  0
  1  5  1  0
  1  6  1  0
  1  7  1  0
  2  3  1  0
  2  8  1  0
  2  9  1  0
  3  4  1  0
  3 10  1  0
  3 11  1  0
  4 18  1  0
 12 13  1  0
 12 19  1  0
 12 20  1  0
 13 14  1  0
 13 21  1  0
 13 22  1  0
 14 15  1  0
 14 23  1  0
 14 24  1  0
 15 16  1  0
 16 17  2  0
 16 25  1  0
M  RAD  1  12   2
M  END
>  <reaction>  (14) 
rmg_rxn_1447

>  <mol_properties>  (14) 
{"2": {"label": "*0", "atom_type": "Cs"}, "3": {"label": "*1", "atom_type": "O2s"}, "11": {"label": "*3", "atom_type": "Cs"}, "12": {"label": "*4", "atom_type": "Cs"}, "17": {"label": "*2", "atom_type": "H0"}}

>  <type>  (14) 
unop_10

>  <geom_source>  (14) 
Heuristics

$$$$

     RDKit          3D

 25 23  0  0  0  0  0  0  0  0999 V2000
    2.3910    0.9074   -2.3143 C   0  0  0  0  0  0  0  0  0  0  0  0
    1.7864   -0.0582   -1.3043 C   0  0  0  0  0  0  0  0  0  0  0  0
    2.1558    0.2689    0.1351 C   0  0  0  0  0  0  0  0  0  0  0  0
    1.7162    1.5489    0.5482 O   0  0  0  0  0  0  0  0  0  0  0  0
    3.4823    0.8731   -2.2779 H   0  0  0  0  0  0  0  0  0  0  0  0
    2.0813    0.6615   -3.3310 H   0  0  0  0  0  0  0  0  0  0  0  0
    2.0855    1.9324   -2.1023 H   0  0  0  0  0  0  0  0  0  0  0  0
    0.6942   -0.0623   -1.3977 H   0  0  0  0  0  0  0  0  0  0  0  0
    2.1134   -1.0806   -1.5162 H   0  0  0  0  0  0  0  0  0  0  0  0
    1.7675   -0.5080    0.8056 H   0  0  0  0  0  0  0  0  0  0  0  0
    3.2422    0.2836    0.2466 H   0  0  0  0  0  0  0  0  0  0  0  0
   -0.2493    1.2629    2.0017 C   0  0  0  0  0  3  0  0  0  0  0  0
   -1.5355    1.2743    1.1861 C   0  0  0  0  0  0  0  0  0  0  0  0
   -1.5912    0.1909    0.1329 C   0  0  0  0  0  0  0  0  0  0  0  0
   -1.5916   -1.0833    0.7983 O   0  0  0  0  0  0  0  0  0  0  0  0
   -1.5916   -2.1578    0.0173 C   0  0  0  0  0  0  0  0  0  0  0  0
   -1.5916   -2.1578   -1.1787 O   0  0  0  0  0  0  0  0  0  0  0  0
    0.7976    1.4152    1.2275 H   0  0  0  0  0  0  0  0  0  0  0  0
   -0.1352    0.3214    2.5395 H   0  0  0  0  0  0  0  0  0  0  0  0
   -0.2450    2.0716    2.7333 H   0  0  0  0  0  0  0  0  0  0  0  0
   -1.6430    2.2321    0.6702 H   0  0  0  0  0  0  0  0  0  0  0  0
   -2.4021    1.1739    1.8442 H   0  0  0  0  0  0  0  0  0  0  0  0
   -2.4934    0.2659   -0.4765 H   0  0  0  0  0  0  0  0  0  0  0  0
   -0.7290    0.2359   -0.5366 H   0  0  0  0  0  0  0  0  0  0  0  0
   -1.5922   -3.0618    0.6416 H   0  0  0  0  0  0  0  0  0  0  0  0
  1  2  1  0
  1  5  1  0
  1  6  1  0
  1  7  1  0
  2  3  1  0
  2  8  1  0
  2  9  1  0
  3  4  1  0
  3 10  1  0
  3 11  1  0
  4 18  1  0
 12 13  1  0
 12 19  1  0
 12 20  1  0
 13 14  1  0
 13 21  1  0
 13 22  1  0
 14 15  1  0
 14 23  1  0
 14 24  1  0
 15 16  1  0
 16 17  2  0
 16 25  1  0
M  RAD  1  12   2
M  END
>  <reaction>  (15) 
rmg_rxn_1447

>  <mol_properties>  (15) 
{"2": {"label": "*0", "atom_type": "Cs"}, "3": {"label": "*1", "atom_type": "O2s"}, "11": {"label": "*3", "atom_type": "Cs"}, "12": {"label": "*4", "atom_type": "Cs"}, "17": {"label": "*2", "atom_type": "H0"}}

>  <type>  (15) 
unop_11

>  <geom_source>  (15) 
Heuristics

$$$$

     RDKit          3D

 25 23  0  0  0  0  0  0  0  0999 V2000
   -4.0868    0.0618   -0.4712 C   0  0  0  0  0  0  0  0  0  0  0  0
   -2.8392   -0.5614    0.1387 C   0  0  0  0  0  0  0  0  0  0  0  0
   -1.7339    0.4792    0.3415 C   0  0  0  0  0  0  0  0  0  0  0  0
   -0.6127   -0.0096    0.9779 O   0  0  0  0  0  0  0  0  0  0  0  0
   -4.8513   -0.6948   -0.6309 H   0  0  0  0  0  0  0  0  0  0  0  0
   -4.4929    0.8276    0.1858 H   0  0  0  0  0  0  0  0  0  0  0  0
   -3.8517    0.5223   -1.4283 H   0  0  0  0  0  0  0  0  0  0  0  0
   -3.0778   -1.0156    1.1027 H   0  0  0  0  0  0  0  0  0  0  0  0
   -2.4622   -1.3494   -0.5183 H   0  0  0  0  0  0  0  0  0  0  0  0
   -1.4672    0.9434   -0.6228 H   0  0  0  0  0  0  0  0  0  0  0  0
   -2.1083    1.2817    0.9937 H   0  0  0  0  0  0  0  0  0  0  0  0
    0.4928   -1.7107   -0.4211 C   0  0  0  0  0  3  0  0  0  0  0  0
    1.9424   -1.7104   -0.0363 C   0  0  0  0  0  0  0  0  0  0  0  0
    2.6309   -0.3738   -0.3204 C   0  0  0  0  0  0  0  0  0  0  0  0
    2.1842    0.6334    0.5869 O   0  0  0  0  0  0  0  0  0  0  0  0
    1.2668    1.4832    0.1554 C   0  0  0  0  0  0  0  0  0  0  0  0
    0.8351    1.5714   -0.9594 O   0  0  0  0  0  0  0  0  0  0  0  0
   -0.1008   -0.8221    0.3384 H   0  0  0  0  0  0  0  0  0  0  0  0
   -0.0267   -2.6308   -0.1842 H   0  0  0  0  0  0  0  0  0  0  0  0
    0.2965   -1.3530   -1.4251 H   0  0  0  0  0  0  0  0  0  0  0  0
    2.4754   -2.4849   -0.6024 H   0  0  0  0  0  0  0  0  0  0  0  0
    2.0485   -1.9439    1.0252 H   0  0  0  0  0  0  0  0  0  0  0  0
    3.7094   -0.4596   -0.1660 H   0  0  0  0  0  0  0  0  0  0  0  0
    2.4263   -0.0451   -1.3452 H   0  0  0  0  0  0  0  0  0  0  0  0
    1.0103    2.1685    0.9772 H   0  0  0  0  0  0  0  0  0  0  0  0
  1  2  1  0
  1  5  1  0
  1  6  1  0
  1  7  1  0
  2  3  1  0
  2  8  1  0
  2  9  1  0
  3  4  1  0
  3 10  1  0
  3 11  1  0
  4 18  1  0
 12 13  1  0
 12 19  1  0
 12 20  1  0
 13 14  1  0
 13 21  1  0
 13 22  1  0
 14 15  1  0
 14 23  1  0
 14 24  1  0
 15 16  1  0
 16 17  2  0
 16 25  1  0
M  RAD  1  12   2
M  END
>  <reaction>  (16) 
rmg_rxn_1447

>  <mol_properties>  (16) 
{"2": {"label": "*0", "atom_type": "Cs"}, "3": {"label": "*1", "atom_type": "O2s"}, "11": {"label": "*3", "atom_type": "Cs"}, "12": {"label": "*4", "atom_type": "Cs"}, "17": {"label": "*2", "atom_type": "H0"}}

>  <type>  (16) 
unop_12

>  <geom_source>  (16) 
Heuristics

$$$$

     RDKit          3D

 25 23  0  0  0  0  0  0  0  0999 V2000
    2.7429    0.2069   -1.9910 C   0  0  0  0  0  0  0  0  0  0  0  0
    2.3122   -0.4280   -0.6760 C   0  0  0  0  0  0  0  0  0  0  0  0
    2.3903    0.5269    0.5061 C   0  0  0  0  0  0  0  0  0  0  0  0
    1.5600    1.6636    0.3625 O   0  0  0  0  0  0  0  0  0  0  0  0
    3.7861    0.5277   -1.9431 H   0  0  0  0  0  0  0  0  0  0  0  0
    2.6456   -0.4955   -2.8200 H   0  0  0  0  0  0  0  0  0  0  0  0
    2.1372    1.0856   -2.2146 H   0  0  0  0  0  0  0  0  0  0  0  0
    1.2862   -0.8044   -0.7604 H   0  0  0  0  0  0  0  0  0  0  0  0
    2.9377   -1.2978   -0.4535 H   0  0  0  0  0  0  0  0  0  0  0  0
    2.1551   -0.0087    1.4344 H   0  0  0  0  0  0  0  0  0  0  0  0
    3.4057    0.9178    0.6027 H   0  0  0  0  0  0  0  0  0  0  0  0
   -0.4056    1.3777    1.8160 C   0  0  0  0  0  3  0  0  0  0  0  0
   -1.6917    1.3890    1.0004 C   0  0  0  0  0  0  0  0  0  0  0  0
   -1.7475    0.3057   -0.0528 C   0  0  0  0  0  0  0  0  0  0  0  0
   -1.7479   -0.9686    0.6126 O   0  0  0  0  0  0  0  0  0  0  0  0
   -1.7479   -2.0431   -0.1683 C   0  0  0  0  0  0  0  0  0  0  0  0
   -1.7479   -2.0431   -1.3643 O   0  0  0  0  0  0  0  0  0  0  0  0
    0.6414    1.5300    1.0418 H   0  0  0  0  0  0  0  0  0  0  0  0
   -0.2914    0.4361    2.3539 H   0  0  0  0  0  0  0  0  0  0  0  0
   -0.4012    2.1863    2.5477 H   0  0  0  0  0  0  0  0  0  0  0  0
   -1.7993    2.3469    0.4845 H   0  0  0  0  0  0  0  0  0  0  0  0
   -2.5584    1.2887    1.6586 H   0  0  0  0  0  0  0  0  0  0  0  0
   -2.6497    0.3806   -0.6622 H   0  0  0  0  0  0  0  0  0  0  0  0
   -0.8853    0.3506   -0.7222 H   0  0  0  0  0  0  0  0  0  0  0  0
   -1.7484   -2.9471    0.4559 H   0  0  0  0  0  0  0  0  0  0  0  0
  1  2  1  0
  1  5  1  0
  1  6  1  0
  1  7  1  0
  2  3  1  0
  2  8  1  0
  2  9  1  0
  3  4  1  0
  3 10  1  0
  3 11  1  0
  4 18  1  0
 12 13  1  0
 12 19  1  0
 12 20  1  0
 13 14  1  0
 13 21  1  0
 13 22  1  0
 14 15  1  0
 14 23  1  0
 14 24  1  0
 15 16  1  0
 16 17  2  0
 16 25  1  0
M  RAD  1  12   2
M  END
>  <reaction>  (17) 
rmg_rxn_1447

>  <mol_properties>  (17) 
{"2": {"label": "*0", "atom_type": "Cs"}, "3": {"label": "*1", "atom_type": "O2s"}, "11": {"label": "*3", "atom_type": "Cs"}, "12": {"label": "*4", "atom_type": "Cs"}, "17": {"label": "*2", "atom_type": "H0"}}

>  <type>  (17) 
unop_13

>  <geom_source>  (17) 
Heuristics

$$$$

     RDKit          3D

 25 23  0  0  0  0  0  0  0  0999 V2000
    1.9571    2.4970    2.0954 C   0  0  0  0  0  0  0  0  0  0  0  0
    1.4703    2.8781    0.7042 C   0  0  0  0  0  0  0  0  0  0  0  0
    2.1031    2.0470   -0.4022 C   0  0  0  0  0  0  0  0  0  0  0  0
    1.8298    0.6634   -0.2883 O   0  0  0  0  0  0  0  0  0  0  0  0
    3.0335    2.6595    2.1873 H   0  0  0  0  0  0  0  0  0  0  0  0
    1.4613    3.0909    2.8645 H   0  0  0  0  0  0  0  0  0  0  0  0
    1.7636    1.4435    2.2994 H   0  0  0  0  0  0  0  0  0  0  0  0
    0.3807    2.7734    0.6471 H   0  0  0  0  0  0  0  0  0  0  0  0
    1.6853    3.9322    0.5041 H   0  0  0  0  0  0  0  0  0  0  0  0
    1.7835    2.4247   -1.3817 H   0  0  0  0  0  0  0  0  0  0  0  0
    3.1910    2.1341   -0.3577 H   0  0  0  0  0  0  0  0  0  0  0  0
   -0.1358    0.3774    1.1652 C   0  0  0  0  0  3  0  0  0  0  0  0
   -1.4219    0.3888    0.3496 C   0  0  0  0  0  0  0  0  0  0  0  0
   -1.4776   -0.6946   -0.7036 C   0  0  0  0  0  0  0  0  0  0  0  0
   -1.4781   -1.9688   -0.0382 O   0  0  0  0  0  0  0  0  0  0  0  0
   -1.4781   -3.0433   -0.8192 C   0  0  0  0  0  0  0  0  0  0  0  0
   -1.4781   -3.0433   -2.0152 O   0  0  0  0  0  0  0  0  0  0  0  0
    0.9112    0.5297    0.3910 H   0  0  0  0  0  0  0  0  0  0  0  0
   -0.0216   -0.5641    1.7031 H   0  0  0  0  0  0  0  0  0  0  0  0
   -0.1314    1.1861    1.8968 H   0  0  0  0  0  0  0  0  0  0  0  0
   -1.5294    1.3466   -0.1663 H   0  0  0  0  0  0  0  0  0  0  0  0
   -2.2886    0.2884    1.0077 H   0  0  0  0  0  0  0  0  0  0  0  0
   -2.3799   -0.6197   -1.3130 H   0  0  0  0  0  0  0  0  0  0  0  0
   -0.6155   -0.6496   -1.3731 H   0  0  0  0  0  0  0  0  0  0  0  0
   -1.4786   -3.9473   -0.1949 H   0  0  0  0  0  0  0  0  0  0  0  0
  1  2  1  0
  1  5  1  0
  1  6  1  0
  1  7  1  0
  2  3  1  0
  2  8  1  0
  2  9  1  0
  3  4  1  0
  3 10  1  0
  3 11  1  0
  4 18  1  0
 12 13  1  0
 12 19  1  0
 12 20  1  0
 13 14  1  0
 13 21  1  0
 13 22  1  0
 14 15  1  0
 14 23  1  0
 14 24  1  0
 15 16  1  0
 16 17  2  0
 16 25  1  0
M  RAD  1  12   2
M  END
>  <reaction>  (18) 
rmg_rxn_1447

>  <mol_properties>  (18) 
{"2": {"label": "*0", "atom_type": "Cs"}, "3": {"label": "*1", "atom_type": "O2s"}, "11": {"label": "*3", "atom_type": "Cs"}, "12": {"label": "*4", "atom_type": "Cs"}, "17": {"label": "*2", "atom_type": "H0"}}

>  <type>  (18) 
unop_14

>  <geom_source>  (18) 
Heuristics

$$$$

     RDKit          3D

 25 23  0  0  0  0  0  0  0  0999 V2000
    4.0861   -0.0618   -0.4722 C   0  0  0  0  0  0  0  0  0  0  0  0
    2.8391    0.5615    0.1390 C   0  0  0  0  0  0  0  0  0  0  0  0
    1.7336   -0.4790    0.3417 C   0  0  0  0  0  0  0  0  0  0  0  0
    0.6125    0.0096    0.9784 O   0  0  0  0  0  0  0  0  0  0  0  0
    3.8502   -0.5212   -1.4296 H   0  0  0  0  0  0  0  0  0  0  0  0
    4.8508    0.6947   -0.6318 H   0  0  0  0  0  0  0  0  0  0  0  0
    4.4924   -0.8282    0.1838 H   0  0  0  0  0  0  0  0  0  0  0  0
    3.0785    1.0148    1.1032 H   0  0  0  0  0  0  0  0  0  0  0  0
    2.4620    1.3500   -0.5172 H   0  0  0  0  0  0  0  0  0  0  0  0
    1.4667   -0.9429   -0.6227 H   0  0  0  0  0  0  0  0  0  0  0  0
    2.1079   -1.2819    0.9937 H   0  0  0  0  0  0  0  0  0  0  0  0
   -0.4926    1.7112   -0.4203 C   0  0  0  0  0  3  0  0  0  0  0  0
   -1.9426    1.7104   -0.0368 C   0  0  0  0  0  0  0  0  0  0  0  0
   -2.6305    0.3736   -0.3214 C   0  0  0  0  0  0  0  0  0  0  0  0
   -2.1840   -0.6331    0.5865 O   0  0  0  0  0  0  0  0  0  0  0  0
   -1.2665   -1.4831    0.1559 C   0  0  0  0  0  0  0  0  0  0  0  0
   -0.8347   -1.5724   -0.9588 O   0  0  0  0  0  0  0  0  0  0  0  0
    0.1007    0.8223    0.3391 H   0  0  0  0  0  0  0  0  0  0  0  0
    0.0263    2.6313   -0.1826 H   0  0  0  0  0  0  0  0  0  0  0  0
   -0.2954    1.3539   -1.4243 H   0  0  0  0  0  0  0  0  0  0  0  0
   -2.4753    2.4849   -0.6032 H   0  0  0  0  0  0  0  0  0  0  0  0
   -2.0496    1.9437    1.0248 H   0  0  0  0  0  0  0  0  0  0  0  0
   -3.7091    0.4591   -0.1681 H   0  0  0  0  0  0  0  0  0  0  0  0
   -2.4248    0.0448   -1.3461 H   0  0  0  0  0  0  0  0  0  0  0  0
   -1.0105   -2.1680    0.9782 H   0  0  0  0  0  0  0  0  0  0  0  0
  1  2  1  0
  1  5  1  0
  1  6  1  0
  1  7  1  0
  2  3  1  0
  2  8  1  0
  2  9  1  0
  3  4  1  0
  3 10  1  0
  3 11  1  0
  4 18  1  0
 12 13  1  0
 12 19  1  0
 12 20  1  0
 13 14  1  0
 13 21  1  0
 13 22  1  0
 14 15  1  0
 14 23  1  0
 14 24  1  0
 15 16  1  0
 16 17  2  0
 16 25  1  0
M  RAD  1  12   2
M  END
>  <reaction>  (19) 
rmg_rxn_1447

>  <mol_properties>  (19) 
{"2": {"label": "*0", "atom_type": "Cs"}, "3": {"label": "*1", "atom_type": "O2s"}, "11": {"label": "*3", "atom_type": "Cs"}, "12": {"label": "*4", "atom_type": "Cs"}, "17": {"label": "*2", "atom_type": "H0"}}

>  <type>  (19) 
unop_15

>  <geom_source>  (19) 
Heuristics

$$$$

     RDKit          3D

 25 23  0  0  0  0  0  0  0  0999 V2000
    1.6450    2.7361   -1.8420 C   0  0  0  0  0  0  0  0  0  0  0  0
    0.9148    1.4350   -1.5387 C   0  0  0  0  0  0  0  0  0  0  0  0
    1.7091    0.4948   -0.6441 C   0  0  0  0  0  0  0  0  0  0  0  0
    2.0073    1.0479    0.6237 O   0  0  0  0  0  0  0  0  0  0  0  0
    2.5771    2.5415   -2.3774 H   0  0  0  0  0  0  0  0  0  0  0  0
    1.0352    3.3974   -2.4592 H   0  0  0  0  0  0  0  0  0  0  0  0
    1.8968    3.2636   -0.9215 H   0  0  0  0  0  0  0  0  0  0  0  0
   -0.0486    1.6489   -1.0613 H   0  0  0  0  0  0  0  0  0  0  0  0
    0.6827    0.9063   -2.4681 H   0  0  0  0  0  0  0  0  0  0  0  0
    1.1738   -0.4567   -0.5344 H   0  0  0  0  0  0  0  0  0  0  0  0
    2.6765    0.2745   -1.1010 H   0  0  0  0  0  0  0  0  0  0  0  0
    0.0418    0.7620    2.0771 C   0  0  0  0  0  3  0  0  0  0  0  0
   -1.2444    0.7733    1.2616 C   0  0  0  0  0  0  0  0  0  0  0  0
   -1.3001   -0.3100    0.2083 C   0  0  0  0  0  0  0  0  0  0  0  0
   -1.3006   -1.5843    0.8738 O   0  0  0  0  0  0  0  0  0  0  0  0
   -1.3006   -2.6588    0.0928 C   0  0  0  0  0  0  0  0  0  0  0  0
   -1.3006   -2.6588   -1.1032 O   0  0  0  0  0  0  0  0  0  0  0  0
    1.0887    0.9143    1.3030 H   0  0  0  0  0  0  0  0  0  0  0  0
    0.1559   -0.1796    2.6150 H   0  0  0  0  0  0  0  0  0  0  0  0
    0.0461    1.5706    2.8088 H   0  0  0  0  0  0  0  0  0  0  0  0
   -1.3519    1.7311    0.7456 H   0  0  0  0  0  0  0  0  0  0  0  0
   -2.1111    0.6730    1.9197 H   0  0  0  0  0  0  0  0  0  0  0  0
   -2.2023   -0.2351   -0.4010 H   0  0  0  0  0  0  0  0  0  0  0  0
   -0.4380   -0.2651   -0.4611 H   0  0  0  0  0  0  0  0  0  0  0  0
   -1.3011   -3.5628    0.7171 H   0  0  0  0  0  0  0  0  0  0  0  0
  1  2  1  0
  1  5  1  0
  1  6  1  0
  1  7  1  0
  2  3  1  0
  2  8  1  0
  2  9  1  0
  3  4  1  0
  3 10  1  0
  3 11  1  0
  4 18  1  0
 12 13  1  0
 12 19  1  0
 12 20  1  0
 13 14  1  0
 13 21  1  0
 13 22  1  0
 14 15  1  0
 14 23  1  0
 14 24  1  0
 15 16  1  0
 16 17  2  0
 16 25  1  0
M  RAD  1  12   2
M  END
>  <reaction>  (20) 
rmg_rxn_1447

>  <mol_properties>  (20) 
{"2": {"label": "*0", "atom_type": "Cs"}, "3": {"label": "*1", "atom_type": "O2s"}, "11": {"label": "*3", "atom_type": "Cs"}, "12": {"label": "*4", "atom_type": "Cs"}, "17": {"label": "*2", "atom_type": "H0"}}

>  <type>  (20) 
unop_16

>  <geom_source>  (20) 
Heuristics

$$$$

     RDKit          3D

 25 23  0  0  0  0  0  0  0  0999 V2000
    1.6243    3.2037    1.4060 C   0  0  0  0  0  0  0  0  0  0  0  0
    1.0338    2.8582    0.0460 C   0  0  0  0  0  0  0  0  0  0  0  0
    1.8556    1.8342   -0.7231 C   0  0  0  0  0  0  0  0  0  0  0  0
    1.9731    0.5938   -0.0525 O   0  0  0  0  0  0  0  0  0  0  0  0
    2.6162    3.6482    1.2962 H   0  0  0  0  0  0  0  0  0  0  0  0
    0.9948    3.9160    1.9412 H   0  0  0  0  0  0  0  0  0  0  0  0
    1.7293    2.3101    2.0220 H   0  0  0  0  0  0  0  0  0  0  0  0
    0.0138    2.4753    0.1670 H   0  0  0  0  0  0  0  0  0  0  0  0
    0.9493    3.7590   -0.5693 H   0  0  0  0  0  0  0  0  0  0  0  0
    1.4321    1.6930   -1.7255 H   0  0  0  0  0  0  0  0  0  0  0  0
    2.8785    2.1959   -0.8486 H   0  0  0  0  0  0  0  0  0  0  0  0
    0.0075    0.3079    1.4010 C   0  0  0  0  0  3  0  0  0  0  0  0
   -1.2786    0.3192    0.5854 C   0  0  0  0  0  0  0  0  0  0  0  0
   -1.3344   -0.7641   -0.4678 C   0  0  0  0  0  0  0  0  0  0  0  0
   -1.3348   -2.0384    0.1976 O   0  0  0  0  0  0  0  0  0  0  0  0
   -1.3348   -3.1129   -0.5833 C   0  0  0  0  0  0  0  0  0  0  0  0
   -1.3348   -3.1129   -1.7793 O   0  0  0  0  0  0  0  0  0  0  0  0
    1.0544    0.4602    0.6268 H   0  0  0  0  0  0  0  0  0  0  0  0
    0.1217   -0.6337    1.9389 H   0  0  0  0  0  0  0  0  0  0  0  0
    0.0118    1.1165    2.1326 H   0  0  0  0  0  0  0  0  0  0  0  0
   -1.3862    1.2770    0.0695 H   0  0  0  0  0  0  0  0  0  0  0  0
   -2.1453    0.2189    1.2435 H   0  0  0  0  0  0  0  0  0  0  0  0
   -2.2366   -0.6892   -1.0772 H   0  0  0  0  0  0  0  0  0  0  0  0
   -0.4722   -0.7192   -1.1373 H   0  0  0  0  0  0  0  0  0  0  0  0
   -1.3353   -4.0169    0.0409 H   0  0  0  0  0  0  0  0  0  0  0  0
  1  2  1  0
  1  5  1  0
  1  6  1  0
  1  7  1  0
  2  3  1  0
  2  8  1  0
  2  9  1  0
  3  4  1  0
  3 10  1  0
  3 11  1  0
  4 18  1  0
 12 13  1  0
 12 19  1  0
 12 20  1  0
 13 14  1  0
 13 21  1  0
 13 22  1  0
 14 15  1  0
 14 23  1  0
 14 24  1  0
 15 16  1  0
 16 17  2  0
 16 25  1  0
M  RAD  1  12   2
M  END
>  <reaction>  (21) 
rmg_rxn_1447

>  <mol_properties>  (21) 
{"2": {"label": "*0", "atom_type": "Cs"}, "3": {"label": "*1", "atom_type": "O2s"}, "11": {"label": "*3", "atom_type": "Cs"}, "12": {"label": "*4", "atom_type": "Cs"}, "17": {"label": "*2", "atom_type": "H0"}}

>  <type>  (21) 
unop_17

>  <geom_source>  (21) 
Heuristics

$$$$

     RDKit          3D

 25 23  0  0  0  0  0  0  0  0999 V2000
    2.9651   -0.4947   -1.2951 C   0  0  0  0  0  0  0  0  0  0  0  0
    2.7131   -0.4095    0.2039 C   0  0  0  0  0  0  0  0  0  0  0  0
    2.5452    1.0175    0.7047 C   0  0  0  0  0  0  0  0  0  0  0  0
    1.4511    1.6925    0.1135 O   0  0  0  0  0  0  0  0  0  0  0  0
    3.8913    0.0194   -1.5622 H   0  0  0  0  0  0  0  0  0  0  0  0
    3.0501   -1.5315   -1.6237 H   0  0  0  0  0  0  0  0  0  0  0  0
    2.1542   -0.0249   -1.8524 H   0  0  0  0  0  0  0  0  0  0  0  0
    1.8177   -0.9849    0.4663 H   0  0  0  0  0  0  0  0  0  0  0  0
    3.5409   -0.8683    0.7530 H   0  0  0  0  0  0  0  0  0  0  0  0
    2.4562    1.0209    1.7983 H   0  0  0  0  0  0  0  0  0  0  0  0
    3.4265    1.6089    0.4468 H   0  0  0  0  0  0  0  0  0  0  0  0
   -0.5145    1.4065    1.5670 C   0  0  0  0  0  3  0  0  0  0  0  0
   -1.8007    1.4179    0.7514 C   0  0  0  0  0  0  0  0  0  0  0  0
   -1.8564    0.3345   -0.3018 C   0  0  0  0  0  0  0  0  0  0  0  0
   -1.8568   -0.9397    0.3636 O   0  0  0  0  0  0  0  0  0  0  0  0
   -1.8568   -2.0142   -0.4173 C   0  0  0  0  0  0  0  0  0  0  0  0
   -1.8568   -2.0142   -1.6133 O   0  0  0  0  0  0  0  0  0  0  0  0
    0.5324    1.5588    0.7928 H   0  0  0  0  0  0  0  0  0  0  0  0
   -0.4004    0.4650    2.1049 H   0  0  0  0  0  0  0  0  0  0  0  0
   -0.5102    2.2152    2.2986 H   0  0  0  0  0  0  0  0  0  0  0  0
   -1.9082    2.3757    0.2355 H   0  0  0  0  0  0  0  0  0  0  0  0
   -2.6673    1.3175    1.4096 H   0  0  0  0  0  0  0  0  0  0  0  0
   -2.7586    0.4094   -0.9112 H   0  0  0  0  0  0  0  0  0  0  0  0
   -0.9942    0.3795   -0.9713 H   0  0  0  0  0  0  0  0  0  0  0  0
   -1.8573   -2.9182    0.2069 H   0  0  0  0  0  0  0  0  0  0  0  0
  1  2  1  0
  1  5  1  0
  1  6  1  0
  1  7  1  0
  2  3  1  0
  2  8  1  0
  2  9  1  0
  3  4  1  0
  3 10  1  0
  3 11  1  0
  4 18  1  0
 12 13  1  0
 12 19  1  0
 12 20  1  0
 13 14  1  0
 13 21  1  0
 13 22  1  0
 14 15  1  0
 14 23  1  0
 14 24  1  0
 15 16  1  0
 16 17  2  0
 16 25  1  0
M  RAD  1  12   2
M  END
>  <reaction>  (22) 
rmg_rxn_1447

>  <mol_properties>  (22) 
{"2": {"label": "*0", "atom_type": "Cs"}, "3": {"label": "*1", "atom_type": "O2s"}, "11": {"label": "*3", "atom_type": "Cs"}, "12": {"label": "*4", "atom_type": "Cs"}, "17": {"label": "*2", "atom_type": "H0"}}

>  <type>  (22) 
unop_18

>  <geom_source>  (22) 
Heuristics

$$$$

     RDKit          3D

 25 23  0  0  0  0  0  0  0  0999 V2000
    1.4285    3.4462   -0.8107 C   0  0  0  0  0  0  0  0  0  0  0  0
    0.7356    2.1247   -1.1132 C   0  0  0  0  0  0  0  0  0  0  0  0
    1.6274    0.9130   -0.8859 C   0  0  0  0  0  0  0  0  0  0  0  0
    2.0749    0.7908    0.4509 O   0  0  0  0  0  0  0  0  0  0  0  0
    2.2903    3.5907   -1.4664 H   0  0  0  0  0  0  0  0  0  0  0  0
    0.7520    4.2897   -0.9549 H   0  0  0  0  0  0  0  0  0  0  0  0
    1.7888    3.4690    0.2182 H   0  0  0  0  0  0  0  0  0  0  0  0
   -0.1640    2.0236   -0.4950 H   0  0  0  0  0  0  0  0  0  0  0  0
    0.3939    2.1063   -2.1525 H   0  0  0  0  0  0  0  0  0  0  0  0
    1.1061    0.0013   -1.2038 H   0  0  0  0  0  0  0  0  0  0  0  0
    2.5334    0.9987   -1.4900 H   0  0  0  0  0  0  0  0  0  0  0  0
    0.1093    0.5048    1.9043 C   0  0  0  0  0  3  0  0  0  0  0  0
   -1.1768    0.5162    1.0887 C   0  0  0  0  0  0  0  0  0  0  0  0
   -1.2326   -0.5672    0.0355 C   0  0  0  0  0  0  0  0  0  0  0  0
   -1.2330   -1.8414    0.7010 O   0  0  0  0  0  0  0  0  0  0  0  0
   -1.2330   -2.9160   -0.0800 C   0  0  0  0  0  0  0  0  0  0  0  0
   -1.2330   -2.9160   -1.2760 O   0  0  0  0  0  0  0  0  0  0  0  0
    1.1563    0.6571    1.1301 H   0  0  0  0  0  0  0  0  0  0  0  0
    0.2235   -0.4367    2.4422 H   0  0  0  0  0  0  0  0  0  0  0  0
    0.1137    1.3134    2.6360 H   0  0  0  0  0  0  0  0  0  0  0  0
   -1.2844    1.4740    0.5728 H   0  0  0  0  0  0  0  0  0  0  0  0
   -2.0435    0.4158    1.7469 H   0  0  0  0  0  0  0  0  0  0  0  0
   -2.1348   -0.4923   -0.5739 H   0  0  0  0  0  0  0  0  0  0  0  0
   -0.3704   -0.5222   -0.6339 H   0  0  0  0  0  0  0  0  0  0  0  0
   -1.2335   -3.8199    0.5442 H   0  0  0  0  0  0  0  0  0  0  0  0
  1  2  1  0
  1  5  1  0
  1  6  1  0
  1  7  1  0
  2  3  1  0
  2  8  1  0
  2  9  1  0
  3  4  1  0
  3 10  1  0
  3 11  1  0
  4 18  1  0
 12 13  1  0
 12 19  1  0
 12 20  1  0
 13 14  1  0
 13 21  1  0
 13 22  1  0
 14 15  1  0
 14 23  1  0
 14 24  1  0
 15 16  1  0
 16 17  2  0
 16 25  1  0
M  RAD  1  12   2
M  END
>  <reaction>  (23) 
rmg_rxn_1447

>  <mol_properties>  (23) 
{"2": {"label": "*0", "atom_type": "Cs"}, "3": {"label": "*1", "atom_type": "O2s"}, "11": {"label": "*3", "atom_type": "Cs"}, "12": {"label": "*4", "atom_type": "Cs"}, "17": {"label": "*2", "atom_type": "H0"}}

>  <type>  (23) 
unop_19

>  <geom_source>  (23) 
Heuristics

$$$$

     RDKit          3D

 25 23  0  0  0  0  0  0  0  0999 V2000
    2.8446    0.6753    0.3690 O   0  0  0  0  0  0  0  0  0  0  0  0
   -1.1009   -1.0058    0.3510 O   0  0  0  0  0  0  0  0  0  0  0  0
    3.4091    1.1229    2.5681 O   0  0  0  0  0  0  0  0  0  0  0  0
   -2.7143    0.4887   -0.6417 C   0  0  0  0  0  0  0  0  0  0  0  0
    1.8918   -1.2981   -0.6589 C   0  0  0  0  0  0  0  0  0  0  0  0
    2.3737   -0.6434    0.6335 C   0  0  0  0  0  0  0  0  0  0  0  0
   -2.4177   -0.9181   -0.1159 C   0  0  0  0  0  0  0  0  0  0  0  0
   -2.6272    1.5392    0.4632 C   0  0  0  0  0  0  0  0  0  0  0  0
    0.6646   -0.5856   -1.2140 C   0  0  0  0  0  3  0  0  0  0  0  0
    3.3486    1.5087    1.3700 C   0  0  0  0  0  0  0  0  0  0  0  0
   -1.9976    0.7444   -1.4520 H   0  0  0  0  0  0  0  0  0  0  0  0
   -3.7390    0.5039   -1.0717 H   0  0  0  0  0  0  0  0  0  0  0  0
    2.7064   -1.2850   -1.4151 H   0  0  0  0  0  0  0  0  0  0  0  0
    1.6252   -2.3561   -0.4491 H   0  0  0  0  0  0  0  0  0  0  0  0
   -3.1144   -1.1672    0.7127 H   0  0  0  0  0  0  0  0  0  0  0  0
   -2.5767   -1.6601   -0.9288 H   0  0  0  0  0  0  0  0  0  0  0  0
    1.5423   -0.6085    1.3717 H   0  0  0  0  0  0  0  0  0  0  0  0
    3.2016   -1.2518    1.0584 H   0  0  0  0  0  0  0  0  0  0  0  0
   -3.3479    1.3058    1.2757 H   0  0  0  0  0  0  0  0  0  0  0  0
   -1.5997    1.5774    0.8830 H   0  0  0  0  0  0  0  0  0  0  0  0
   -2.8751    2.5378    0.0457 H   0  0  0  0  0  0  0  0  0  0  0  0
    0.9180    0.4534   -1.5140 H   0  0  0  0  0  0  0  0  0  0  0  0
    0.2772   -1.1331   -2.0989 H   0  0  0  0  0  0  0  0  0  0  0  0
    3.6921    2.5008    1.1117 H   0  0  0  0  0  0  0  0  0  0  0  0
   -0.3847   -1.0451   -0.6535 H   0  0  0  0  0  0  0  0  0  0  0  0
  1  6  1  0
  1 10  1  0
  2  7  1  0
  2 25  1  0
  3 10  2  0
  4  8  1  0
  4  7  1  0
  4 11  1  0
  4 12  1  0
  5  9  1  0
  5  6  1  0
  5 13  1  0
  5 14  1  0
  6 17  1  0
  6 18  1  0
  7 15  1  0
  7 16  1  0
  8 19  1  0
  8 20  1  0
  8 21  1  0
  9 22  1  0
  9 23  1  0
 10 24  1  0
M  RAD  1   9   2
M  END
>  <reaction>  (24) 
rmg_rxn_1447

>  <mol_properties>  (24) 
{"2": {"label": "*0", "atom_type": "Cs"}, "3": {"label": "*1", "atom_type": "O2s"}, "11": {"label": "*3", "atom_type": "Cs"}, "12": {"label": "*4", "atom_type": "Cs"}, "17": {"label": "*2", "atom_type": "H0"}}

>  <type>  (24) 
unop_20

>  <geom_source>  (24) 
AutoTST

$$$$

     RDKit          3D

 25 23  0  0  0  0  0  0  0  0999 V2000
    1.4224    3.5717    0.4067 C   0  0  0  0  0  0  0  0  0  0  0  0
    0.7755    2.5842   -0.5547 C   0  0  0  0  0  0  0  0  0  0  0  0
    1.6813    1.4163   -0.9160 C   0  0  0  0  0  0  0  0  0  0  0  0
    2.0626    0.6376    0.2023 O   0  0  0  0  0  0  0  0  0  0  0  0
    2.3131    4.0200   -0.0395 H   0  0  0  0  0  0  0  0  0  0  0  0
    0.7354    4.3781    0.6672 H   0  0  0  0  0  0  0  0  0  0  0  0
    1.7292    3.0734    1.3268 H   0  0  0  0  0  0  0  0  0  0  0  0
   -0.1520    2.1926   -0.1211 H   0  0  0  0  0  0  0  0  0  0  0  0
    0.4876    3.0915   -1.4805 H   0  0  0  0  0  0  0  0  0  0  0  0
    1.1973    0.7901   -1.6760 H   0  0  0  0  0  0  0  0  0  0  0  0
    2.6148    1.7876   -1.3447 H   0  0  0  0  0  0  0  0  0  0  0  0
    0.0970    0.3517    1.6557 C   0  0  0  0  0  3  0  0  0  0  0  0
   -1.1891    0.3630    0.8401 C   0  0  0  0  0  0  0  0  0  0  0  0
   -1.2448   -0.7204   -0.2131 C   0  0  0  0  0  0  0  0  0  0  0  0
   -1.2453   -1.9946    0.4524 O   0  0  0  0  0  0  0  0  0  0  0  0
   -1.2453   -3.0691   -0.3286 C   0  0  0  0  0  0  0  0  0  0  0  0
   -1.2453   -3.0691   -1.5246 O   0  0  0  0  0  0  0  0  0  0  0  0
    1.1440    0.5040    0.8815 H   0  0  0  0  0  0  0  0  0  0  0  0
    0.2112   -0.5899    2.1936 H   0  0  0  0  0  0  0  0  0  0  0  0
    0.1014    1.1603    2.3874 H   0  0  0  0  0  0  0  0  0  0  0  0
   -1.2966    1.3208    0.3242 H   0  0  0  0  0  0  0  0  0  0  0  0
   -2.0558    0.2626    1.4983 H   0  0  0  0  0  0  0  0  0  0  0  0
   -2.1470   -0.6454   -0.8225 H   0  0  0  0  0  0  0  0  0  0  0  0
   -0.3827   -0.6754   -0.8825 H   0  0  0  0  0  0  0  0  0  0  0  0
   -1.2458   -3.9731    0.2956 H   0  0  0  0  0  0  0  0  0  0  0  0
  1  2  1  0
  1  5  1  0
  1  6  1  0
  1  7  1  0
  2  3  1  0
  2  8  1  0
  2  9  1  0
  3  4  1  0
  3 10  1  0
  3 11  1  0
  4 18  1  0
 12 13  1  0
 12 19  1  0
 12 20  1  0
 13 14  1  0
 13 21  1  0
 13 22  1  0
 14 15  1  0
 14 23  1  0
 14 24  1  0
 15 16  1  0
 16 17  2  0
 16 25  1  0
M  RAD  1  12   2
M  END
>  <reaction>  (25) 
rmg_rxn_1447

>  <mol_properties>  (25) 
{"2": {"label": "*0", "atom_type": "Cs"}, "3": {"label": "*1", "atom_type": "O2s"}, "11": {"label": "*3", "atom_type": "Cs"}, "12": {"label": "*4", "atom_type": "Cs"}, "17": {"label": "*2", "atom_type": "H0"}}

>  <type>  (25) 
unop_21

>  <geom_source>  (25) 
gaussian_log

$$$$
