
     RDKit          3D

  8  7  0  0  0  0  0  0  0  0999 V2000
    0.9548    0.1194   -0.0790 C   0  0  0  0  0  0  0  0  0  0  0  0
   -0.4838   -0.2649    0.0193 C   0  0  0  0  0  0  0  0  0  0  0  0
   -0.8933   -1.1081    0.8664 N   0  0  0  0  0  0  0  0  0  0  0  0
    1.3360   -0.0983   -1.0800 H   0  0  0  0  0  0  0  0  0  0  0  0
    1.0698    1.1948    0.0786 H   0  0  0  0  0  0  0  0  0  0  0  0
    1.5426   -0.4219    0.6602 H   0  0  0  0  0  0  0  0  0  0  0  0
   -1.1575    0.2324   -0.6905 H   0  0  0  0  0  0  0  0  0  0  0  0
   -1.8989   -1.2455    0.7886 H   0  0  0  0  0  0  0  0  0  0  0  0
  1  2  1  0
  1  4  1  0
  1  5  1  0
  1  6  1  0
  2  3  2  3
  2  7  1  0
  3  8  1  0
M  END
>  <reaction>  (1) 
rmg_rxn_16765

>  <mol_properties>  (1) 
{"2": {"label": "donator", "atom_type": "N3d"}, "7": {"label": "d_hydrogen", "atom_type": "H0"}}

>  <type>  (1) 
r1h

$$$$

     RDKit          3D

  2  1  0  0  0  0  0  0  0  0999 V2000
    0.0000    0.0000    0.5193 N   0  0  0  0  0  1  0  0  0  0  0  0
    0.0000    0.0000   -0.5193 H   0  0  0  0  0  0  0  0  0  0  0  0
  1  2  1  0
M  RAD  1   1   3
M  END
>  <reaction>  (2) 
rmg_rxn_16765

>  <mol_properties>  (2) 
{"0": {"label": "acceptor", "atom_type": "N3s"}}

>  <type>  (2) 
r2

$$$$

     RDKit          3D

  3  2  0  0  0  0  0  0  0  0999 V2000
    0.0002    0.4233    0.0000 N   0  0  0  0  0  2  0  0  0  0  0  0
   -0.8051   -0.2112    0.0000 H   0  0  0  0  0  0  0  0  0  0  0  0
    0.8049   -0.2121    0.0000 H   0  0  0  0  0  0  0  0  0  0  0  0
  1  2  1  0
  1  3  1  0
M  RAD  1   1   2
M  END
>  <reaction>  (3) 
rmg_rxn_16765

>  <mol_properties>  (3) 
{"0": {"label": "acceptor", "atom_type": "N3s"}, "2": {"label": "a_hydrogen", "atom_type": "H0"}}

>  <type>  (3) 
r2h

$$$$

     RDKit          3D

 10  8  0  0  0  0  0  0  0  0999 V2000
    2.3663   -0.4448    0.1563 N   0  0  0  0  0  1  0  0  0  0  0  0
    3.0420    0.3288    0.2675 H   0  0  0  0  0  0  0  0  0  0  0  0
   -2.1212   -0.0881   -0.0102 C   0  0  0  0  0  0  0  0  0  0  0  0
   -0.6353   -0.2665    0.0387 C   0  0  0  0  0  0  0  0  0  0  0  0
    0.1535    0.6999    0.1751 N   0  0  0  0  0  0  0  0  0  0  0  0
   -2.5869   -0.6607    0.7947 H   0  0  0  0  0  0  0  0  0  0  0  0
   -2.3890    0.9620    0.0870 H   0  0  0  0  0  0  0  0  0  0  0  0
   -2.5076   -0.4786   -0.9540 H   0  0  0  0  0  0  0  0  0  0  0  0
   -0.2553   -1.2921   -0.0509 H   0  0  0  0  0  0  0  0  0  0  0  0
    1.2744    0.2321    0.1772 H   0  0  0  0  0  0  0  0  0  0  0  0
  1  2  1  0
  3  4  1  0
  3  6  1  0
  3  7  1  0
  3  8  1  0
  4  5  2  3
  4  9  1  0
  5 10  1  0
M  RAD  1   1   3
M  END
>  <reaction>  (4) 
rmg_rxn_16765

>  <mol_properties>  (4) 
{"0": {"label": "*3", "atom_type": "N3s"}, "1": {"label": "*4", "atom_type": "H0"}, "3": {"label": "*0", "atom_type": "Cd"}, "4": {"label": "*1", "atom_type": "N3d"}, "9": {"label": "*2", "atom_type": "H0"}}

>  <type>  (4) 
ts

$$$$

     RDKit          3D

 10  8  0  0  0  0  0  0  0  0999 V2000
    2.3718   -0.2369   -0.0199 N   0  0  0  0  0  2  0  0  0  0  0  0
    2.7456    0.1553    0.8423 H   0  0  0  0  0  0  0  0  0  0  0  0
   -2.0801   -0.0859    0.0479 C   0  0  0  0  0  0  0  0  0  0  0  0
   -0.6053   -0.3075   -0.0407 C   0  0  0  0  0  0  0  0  0  0  0  0
    0.1850    0.6481   -0.0391 N   0  0  0  0  0  2  0  0  0  0  0  0
   -2.4648   -0.6003    0.9268 H   0  0  0  0  0  0  0  0  0  0  0  0
   -2.3049    0.9749    0.1113 H   0  0  0  0  0  0  0  0  0  0  0  0
   -2.5550   -0.5134   -0.8334 H   0  0  0  0  0  0  0  0  0  0  0  0
   -0.2986   -1.3546   -0.1045 H   0  0  0  0  0  0  0  0  0  0  0  0
    1.3474    0.3124   -0.2093 H   0  0  0  0  0  0  0  0  0  0  0  0
  1  2  1  0
  1 10  1  0
  3  4  1  0
  3  6  1  0
  3  7  1  0
  3  8  1  0
  4  5  2  0
  4  9  1  0
M  RAD  2   1   2   5   2
M  END
>  <reaction>  (5) 
rmg_rxn_16765

>  <mol_properties>  (5) 
{"0": {"label": "*3", "atom_type": "N3s"}, "1": {"label": "*4", "atom_type": "H0"}, "3": {"label": "*0", "atom_type": "Cd"}, "4": {"label": "*1", "atom_type": "N3d"}, "9": {"label": "*2", "atom_type": "H0"}}

>  <type>  (5) 
unop_1

>  <geom_source>  (5) 
crest_best.xyz

$$$$

     RDKit          3D

 10  8  0  0  0  0  0  0  0  0999 V2000
   -0.0150    0.1895    2.4788 N   0  0  0  0  0  1  0  0  0  0  0  0
    0.8485    0.6341    2.8072 H   0  0  0  0  0  0  0  0  0  0  0  0
   -0.0150   -0.4211   -2.0891 C   0  0  0  0  0  0  0  0  0  0  0  0
   -0.0150   -0.4211   -0.5968 C   0  0  0  0  0  0  0  0  0  0  0  0
   -0.0150    0.6515    0.0709 N   0  0  0  0  0  0  0  0  0  0  0  0
    0.8633   -0.9511   -2.4665 H   0  0  0  0  0  0  0  0  0  0  0  0
   -0.8933   -0.9511   -2.4665 H   0  0  0  0  0  0  0  0  0  0  0  0
   -0.0150    0.5995   -2.4677 H   0  0  0  0  0  0  0  0  0  0  0  0
   -0.0150   -1.4108   -0.1221 H   0  0  0  0  0  0  0  0  0  0  0  0
   -0.0150    0.4214    1.2705 H   0  0  0  0  0  0  0  0  0  0  0  0
  1  2  1  0
  3  4  1  0
  3  6  1  0
  3  7  1  0
  3  8  1  0
  4  5  2  3
  4  9  1  0
  5 10  1  0
M  RAD  1   1   3
M  END
>  <reaction>  (6) 
rmg_rxn_16765

>  <mol_properties>  (6) 
{"0": {"label": "*3", "atom_type": "N3s"}, "1": {"label": "*4", "atom_type": "H0"}, "3": {"label": "*0", "atom_type": "Cd"}, "4": {"label": "*1", "atom_type": "N3d"}, "9": {"label": "*2", "atom_type": "H0"}}

>  <type>  (6) 
unop_2

>  <geom_source>  (6) 
Heuristics

$$$$

     RDKit          3D

 10  8  0  0  0  0  0  0  0  0999 V2000
   -0.0087    0.2127    2.4832 N   0  0  0  0  0  1  0  0  0  0  0  0
    0.4899   -0.6803    2.5550 H   0  0  0  0  0  0  0  0  0  0  0  0
   -0.0087   -0.3979   -2.0847 C   0  0  0  0  0  0  0  0  0  0  0  0
   -0.0087   -0.3979   -0.5923 C   0  0  0  0  0  0  0  0  0  0  0  0
   -0.0087    0.6747    0.0753 N   0  0  0  0  0  0  0  0  0  0  0  0
    0.8696   -0.9279   -2.4621 H   0  0  0  0  0  0  0  0  0  0  0  0
   -0.8869   -0.9279   -2.4621 H   0  0  0  0  0  0  0  0  0  0  0  0
   -0.0087    0.6227   -2.4633 H   0  0  0  0  0  0  0  0  0  0  0  0
   -0.0087   -1.3876   -0.1177 H   0  0  0  0  0  0  0  0  0  0  0  0
   -0.0087    0.4446    1.2749 H   0  0  0  0  0  0  0  0  0  0  0  0
  1  2  1  0
  3  4  1  0
  3  6  1  0
  3  7  1  0
  3  8  1  0
  4  5  2  3
  4  9  1  0
  5 10  1  0
M  RAD  1   1   3
M  END
>  <reaction>  (7) 
rmg_rxn_16765

>  <mol_properties>  (7) 
{"0": {"label": "*3", "atom_type": "N3s"}, "1": {"label": "*4", "atom_type": "H0"}, "3": {"label": "*0", "atom_type": "Cd"}, "4": {"label": "*1", "atom_type": "N3d"}, "9": {"label": "*2", "atom_type": "H0"}}

>  <type>  (7) 
unop_3

>  <geom_source>  (7) 
Heuristics

$$$$

     RDKit          3D

 10  8  0  0  0  0  0  0  0  0999 V2000
   -0.0087    0.1833    2.4776 N   0  0  0  0  0  1  0  0  0  0  0  0
    0.4899    0.9863    2.8748 H   0  0  0  0  0  0  0  0  0  0  0  0
   -0.0087   -0.4273   -2.0903 C   0  0  0  0  0  0  0  0  0  0  0  0
   -0.0087   -0.4273   -0.5980 C   0  0  0  0  0  0  0  0  0  0  0  0
   -0.0087    0.6453    0.0697 N   0  0  0  0  0  0  0  0  0  0  0  0
    0.8696   -0.9573   -2.4677 H   0  0  0  0  0  0  0  0  0  0  0  0
   -0.8869   -0.9573   -2.4677 H   0  0  0  0  0  0  0  0  0  0  0  0
   -0.0087    0.5933   -2.4689 H   0  0  0  0  0  0  0  0  0  0  0  0
   -0.0087   -1.4170   -0.1233 H   0  0  0  0  0  0  0  0  0  0  0  0
   -0.0087    0.4151    1.2693 H   0  0  0  0  0  0  0  0  0  0  0  0
  1  2  1  0
  3  4  1  0
  3  6  1  0
  3  7  1  0
  3  8  1  0
  4  5  2  3
  4  9  1  0
  5 10  1  0
M  RAD  1   1   3
M  END
>  <reaction>  (8) 
rmg_rxn_16765

>  <mol_properties>  (8) 
{"0": {"label": "*3", "atom_type": "N3s"}, "1": {"label": "*4", "atom_type": "H0"}, "3": {"label": "*0", "atom_type": "Cd"}, "4": {"label": "*1", "atom_type": "N3d"}, "9": {"label": "*2", "atom_type": "H0"}}

>  <type>  (8) 
unop_4

>  <geom_source>  (8) 
Heuristics

$$$$

     RDKit          3D

 10  8  0  0  0  0  0  0  0  0999 V2000
    0.0150    0.2065    2.4820 N   0  0  0  0  0  1  0  0  0  0  0  0
   -0.8485   -0.3281    2.6226 H   0  0  0  0  0  0  0  0  0  0  0  0
    0.0150   -0.4041   -2.0859 C   0  0  0  0  0  0  0  0  0  0  0  0
    0.0150   -0.4041   -0.5935 C   0  0  0  0  0  0  0  0  0  0  0  0
    0.0150    0.6685    0.0742 N   0  0  0  0  0  0  0  0  0  0  0  0
    0.8933   -0.9341   -2.4633 H   0  0  0  0  0  0  0  0  0  0  0  0
   -0.8633   -0.9341   -2.4633 H   0  0  0  0  0  0  0  0  0  0  0  0
    0.0150    0.6165   -2.4645 H   0  0  0  0  0  0  0  0  0  0  0  0
    0.0150   -1.3938   -0.1189 H   0  0  0  0  0  0  0  0  0  0  0  0
    0.0150    0.4384    1.2737 H   0  0  0  0  0  0  0  0  0  0  0  0
  1  2  1  0
  3  4  1  0
  3  6  1  0
  3  7  1  0
  3  8  1  0
  4  5  2  3
  4  9  1  0
  5 10  1  0
M  RAD  1   1   3
M  END
>  <reaction>  (9) 
rmg_rxn_16765

>  <mol_properties>  (9) 
{"0": {"label": "*3", "atom_type": "N3s"}, "1": {"label": "*4", "atom_type": "H0"}, "3": {"label": "*0", "atom_type": "Cd"}, "4": {"label": "*1", "atom_type": "N3d"}, "9": {"label": "*2", "atom_type": "H0"}}

>  <type>  (9) 
unop_5

>  <geom_source>  (9) 
Heuristics

$$$$

     RDKit          3D

 10  8  0  0  0  0  0  0  0  0999 V2000
   -0.0000    0.1810    2.4772 N   0  0  0  0  0  1  0  0  0  0  0  0
   -0.0000    1.1153    2.8995 H   0  0  0  0  0  0  0  0  0  0  0  0
    0.0000   -0.4296   -2.0908 C   0  0  0  0  0  0  0  0  0  0  0  0
    0.0000   -0.4296   -0.5984 C   0  0  0  0  0  0  0  0  0  0  0  0
    0.0000    0.6430    0.0693 N   0  0  0  0  0  0  0  0  0  0  0  0
    0.8783   -0.9596   -2.4682 H   0  0  0  0  0  0  0  0  0  0  0  0
   -0.8783   -0.9596   -2.4682 H   0  0  0  0  0  0  0  0  0  0  0  0
   -0.0000    0.5910   -2.4693 H   0  0  0  0  0  0  0  0  0  0  0  0
    0.0000   -1.4193   -0.1238 H   0  0  0  0  0  0  0  0  0  0  0  0
   -0.0000    0.4129    1.2689 H   0  0  0  0  0  0  0  0  0  0  0  0
  1  2  1  0
  3  4  1  0
  3  6  1  0
  3  7  1  0
  3  8  1  0
  4  5  2  3
  4  9  1  0
  5 10  1  0
M  RAD  1   1   3
M  END
>  <reaction>  (10) 
rmg_rxn_16765

>  <mol_properties>  (10) 
{"0": {"label": "*3", "atom_type": "N3s"}, "1": {"label": "*4", "atom_type": "H0"}, "3": {"label": "*0", "atom_type": "Cd"}, "4": {"label": "*1", "atom_type": "N3d"}, "9": {"label": "*2", "atom_type": "H0"}}

>  <type>  (10) 
unop_6

>  <geom_source>  (10) 
Heuristics

$$$$

     RDKit          3D

 10  8  0  0  0  0  0  0  0  0999 V2000
    0.0173    0.1980    2.4804 N   0  0  0  0  0  1  0  0  0  0  0  0
   -0.9798    0.1530    2.7149 H   0  0  0  0  0  0  0  0  0  0  0  0
    0.0173   -0.4126   -2.0875 C   0  0  0  0  0  0  0  0  0  0  0  0
    0.0173   -0.4126   -0.5952 C   0  0  0  0  0  0  0  0  0  0  0  0
    0.0173    0.6600    0.0725 N   0  0  0  0  0  0  0  0  0  0  0  0
    0.8956   -0.9426   -2.4649 H   0  0  0  0  0  0  0  0  0  0  0  0
   -0.8610   -0.9426   -2.4649 H   0  0  0  0  0  0  0  0  0  0  0  0
    0.0173    0.6080   -2.4661 H   0  0  0  0  0  0  0  0  0  0  0  0
    0.0173   -1.4023   -0.1205 H   0  0  0  0  0  0  0  0  0  0  0  0
    0.0173    0.4299    1.2721 H   0  0  0  0  0  0  0  0  0  0  0  0
  1  2  1  0
  3  4  1  0
  3  6  1  0
  3  7  1  0
  3  8  1  0
  4  5  2  3
  4  9  1  0
  5 10  1  0
M  RAD  1   1   3
M  END
>  <reaction>  (11) 
rmg_rxn_16765

>  <mol_properties>  (11) 
{"0": {"label": "*3", "atom_type": "N3s"}, "1": {"label": "*4", "atom_type": "H0"}, "3": {"label": "*0", "atom_type": "Cd"}, "4": {"label": "*1", "atom_type": "N3d"}, "9": {"label": "*2", "atom_type": "H0"}}

>  <type>  (11) 
unop_7

>  <geom_source>  (11) 
Heuristics

$$$$

     RDKit          3D

 10  8  0  0  0  0  0  0  0  0999 V2000
    0.0150    0.1895    2.4788 N   0  0  0  0  0  1  0  0  0  0  0  0
   -0.8485    0.6341    2.8072 H   0  0  0  0  0  0  0  0  0  0  0  0
    0.0150   -0.4211   -2.0891 C   0  0  0  0  0  0  0  0  0  0  0  0
    0.0150   -0.4211   -0.5968 C   0  0  0  0  0  0  0  0  0  0  0  0
    0.0150    0.6515    0.0709 N   0  0  0  0  0  0  0  0  0  0  0  0
    0.8933   -0.9511   -2.4665 H   0  0  0  0  0  0  0  0  0  0  0  0
   -0.8633   -0.9511   -2.4665 H   0  0  0  0  0  0  0  0  0  0  0  0
    0.0150    0.5995   -2.4677 H   0  0  0  0  0  0  0  0  0  0  0  0
    0.0150   -1.4108   -0.1221 H   0  0  0  0  0  0  0  0  0  0  0  0
    0.0150    0.4214    1.2705 H   0  0  0  0  0  0  0  0  0  0  0  0
  1  2  1  0
  3  4  1  0
  3  6  1  0
  3  7  1  0
  3  8  1  0
  4  5  2  3
  4  9  1  0
  5 10  1  0
M  RAD  1   1   3
M  END
>  <reaction>  (12) 
rmg_rxn_16765

>  <mol_properties>  (12) 
{"0": {"label": "*3", "atom_type": "N3s"}, "1": {"label": "*4", "atom_type": "H0"}, "3": {"label": "*0", "atom_type": "Cd"}, "4": {"label": "*1", "atom_type": "N3d"}, "9": {"label": "*2", "atom_type": "H0"}}

>  <type>  (12) 
unop_8

>  <geom_source>  (12) 
Heuristics

$$$$

     RDKit          3D

 10  8  0  0  0  0  0  0  0  0999 V2000
   -0.0173    0.1980    2.4804 N   0  0  0  0  0  1  0  0  0  0  0  0
    0.9798    0.1530    2.7149 H   0  0  0  0  0  0  0  0  0  0  0  0
   -0.0173   -0.4126   -2.0875 C   0  0  0  0  0  0  0  0  0  0  0  0
   -0.0173   -0.4126   -0.5952 C   0  0  0  0  0  0  0  0  0  0  0  0
   -0.0173    0.6600    0.0725 N   0  0  0  0  0  0  0  0  0  0  0  0
    0.8610   -0.9426   -2.4649 H   0  0  0  0  0  0  0  0  0  0  0  0
   -0.8956   -0.9426   -2.4649 H   0  0  0  0  0  0  0  0  0  0  0  0
   -0.0173    0.6080   -2.4661 H   0  0  0  0  0  0  0  0  0  0  0  0
   -0.0173   -1.4023   -0.1205 H   0  0  0  0  0  0  0  0  0  0  0  0
   -0.0173    0.4299    1.2721 H   0  0  0  0  0  0  0  0  0  0  0  0
  1  2  1  0
  3  4  1  0
  3  6  1  0
  3  7  1  0
  3  8  1  0
  4  5  2  3
  4  9  1  0
  5 10  1  0
M  RAD  1   1   3
M  END
>  <reaction>  (13) 
rmg_rxn_16765

>  <mol_properties>  (13) 
{"0": {"label": "*3", "atom_type": "N3s"}, "1": {"label": "*4", "atom_type": "H0"}, "3": {"label": "*0", "atom_type": "Cd"}, "4": {"label": "*1", "atom_type": "N3d"}, "9": {"label": "*2", "atom_type": "H0"}}

>  <type>  (13) 
unop_9

>  <geom_source>  (13) 
Heuristics

$$$$

     RDKit          3D

 10  8  0  0  0  0  0  0  0  0999 V2000
    2.3718   -0.2369   -0.0199 N   0  0  0  0  0  2  0  0  0  0  0  0
    2.7456    0.1553    0.8423 H   0  0  0  0  0  0  0  0  0  0  0  0
   -2.0801   -0.0859    0.0479 C   0  0  0  0  0  0  0  0  0  0  0  0
   -0.6053   -0.3075   -0.0407 C   0  0  0  0  0  0  0  0  0  0  0  0
    0.1850    0.6481   -0.0391 N   0  0  0  0  0  2  0  0  0  0  0  0
   -2.4648   -0.6003    0.9268 H   0  0  0  0  0  0  0  0  0  0  0  0
   -2.3049    0.9749    0.1113 H   0  0  0  0  0  0  0  0  0  0  0  0
   -2.5550   -0.5134   -0.8334 H   0  0  0  0  0  0  0  0  0  0  0  0
   -0.2986   -1.3546   -0.1045 H   0  0  0  0  0  0  0  0  0  0  0  0
    1.3474    0.3124   -0.2093 H   0  0  0  0  0  0  0  0  0  0  0  0
  1  2  1  0
  1 10  1  0
  3  4  1  0
  3  6  1  0
  3  7  1  0
  3  8  1  0
  4  5  2  0
  4  9  1  0
M  RAD  2   1   2   5   2
M  END
>  <reaction>  (14) 
rmg_rxn_16765

>  <mol_properties>  (14) 
{"0": {"label": "*3", "atom_type": "N3s"}, "1": {"label": "*4", "atom_type": "H0"}, "3": {"label": "*0", "atom_type": "Cd"}, "4": {"label": "*1", "atom_type": "N3d"}, "9": {"label": "*2", "atom_type": "H0"}}

>  <type>  (14) 
unop_10

>  <geom_source>  (14) 
Heuristics

$$$$

     RDKit          3D

 10  8  0  0  0  0  0  0  0  0999 V2000
    0.0087    0.2127    2.4832 N   0  0  0  0  0  1  0  0  0  0  0  0
   -0.4899   -0.6803    2.5550 H   0  0  0  0  0  0  0  0  0  0  0  0
    0.0087   -0.3979   -2.0847 C   0  0  0  0  0  0  0  0  0  0  0  0
    0.0087   -0.3979   -0.5923 C   0  0  0  0  0  0  0  0  0  0  0  0
    0.0087    0.6747    0.0753 N   0  0  0  0  0  0  0  0  0  0  0  0
    0.8869   -0.9279   -2.4621 H   0  0  0  0  0  0  0  0  0  0  0  0
   -0.8696   -0.9279   -2.4621 H   0  0  0  0  0  0  0  0  0  0  0  0
    0.0087    0.6227   -2.4633 H   0  0  0  0  0  0  0  0  0  0  0  0
    0.0087   -1.3876   -0.1177 H   0  0  0  0  0  0  0  0  0  0  0  0
    0.0087    0.4446    1.2749 H   0  0  0  0  0  0  0  0  0  0  0  0
  1  2  1  0
  3  4  1  0
  3  6  1  0
  3  7  1  0
  3  8  1  0
  4  5  2  3
  4  9  1  0
  5 10  1  0
M  RAD  1   1   3
M  END
>  <reaction>  (15) 
rmg_rxn_16765

>  <mol_properties>  (15) 
{"0": {"label": "*3", "atom_type": "N3s"}, "1": {"label": "*4", "atom_type": "H0"}, "3": {"label": "*0", "atom_type": "Cd"}, "4": {"label": "*1", "atom_type": "N3d"}, "9": {"label": "*2", "atom_type": "H0"}}

>  <type>  (15) 
unop_11

>  <geom_source>  (15) 
Heuristics

$$$$

     RDKit          3D

 10  8  0  0  0  0  0  0  0  0999 V2000
   -0.0150    0.2065    2.4820 N   0  0  0  0  0  1  0  0  0  0  0  0
    0.8485   -0.3281    2.6226 H   0  0  0  0  0  0  0  0  0  0  0  0
   -0.0150   -0.4041   -2.0859 C   0  0  0  0  0  0  0  0  0  0  0  0
   -0.0150   -0.4041   -0.5935 C   0  0  0  0  0  0  0  0  0  0  0  0
   -0.0150    0.6685    0.0742 N   0  0  0  0  0  0  0  0  0  0  0  0
    0.8633   -0.9341   -2.4633 H   0  0  0  0  0  0  0  0  0  0  0  0
   -0.8933   -0.9341   -2.4633 H   0  0  0  0  0  0  0  0  0  0  0  0
   -0.0150    0.6165   -2.4645 H   0  0  0  0  0  0  0  0  0  0  0  0
   -0.0150   -1.3938   -0.1189 H   0  0  0  0  0  0  0  0  0  0  0  0
   -0.0150    0.4384    1.2737 H   0  0  0  0  0  0  0  0  0  0  0  0
  1  2  1  0
  3  4  1  0
  3  6  1  0
  3  7  1  0
  3  8  1  0
  4  5  2  3
  4  9  1  0
  5 10  1  0
M  RAD  1   1   3
M  END
>  <reaction>  (16) 
rmg_rxn_16765

>  <mol_properties>  (16) 
{"0": {"label": "*3", "atom_type": "N3s"}, "1": {"label": "*4", "atom_type": "H0"}, "3": {"label": "*0", "atom_type": "Cd"}, "4": {"label": "*1", "atom_type": "N3d"}, "9": {"label": "*2", "atom_type": "H0"}}

>  <type>  (16) 
unop_12

>  <geom_source>  (16) 
Heuristics

$$$$

     RDKit          3D

 10  8  0  0  0  0  0  0  0  0999 V2000
    0.0087    0.1833    2.4776 N   0  0  0  0  0  1  0  0  0  0  0  0
   -0.4899    0.9863    2.8748 H   0  0  0  0  0  0  0  0  0  0  0  0
    0.0087   -0.4273   -2.0903 C   0  0  0  0  0  0  0  0  0  0  0  0
    0.0087   -0.4273   -0.5980 C   0  0  0  0  0  0  0  0  0  0  0  0
    0.0087    0.6453    0.0697 N   0  0  0  0  0  0  0  0  0  0  0  0
    0.8869   -0.9573   -2.4677 H   0  0  0  0  0  0  0  0  0  0  0  0
   -0.8696   -0.9573   -2.4677 H   0  0  0  0  0  0  0  0  0  0  0  0
    0.0087    0.5933   -2.4689 H   0  0  0  0  0  0  0  0  0  0  0  0
    0.0087   -1.4170   -0.1233 H   0  0  0  0  0  0  0  0  0  0  0  0
    0.0087    0.4151    1.2693 H   0  0  0  0  0  0  0  0  0  0  0  0
  1  2  1  0
  3  4  1  0
  3  6  1  0
  3  7  1  0
  3  8  1  0
  4  5  2  3
  4  9  1  0
  5 10  1  0
M  RAD  1   1   3
M  END
>  <reaction>  (17) 
rmg_rxn_16765

>  <mol_properties>  (17) 
{"0": {"label": "*3", "atom_type": "N3s"}, "1": {"label": "*4", "atom_type": "H0"}, "3": {"label": "*0", "atom_type": "Cd"}, "4": {"label": "*1", "atom_type": "N3d"}, "9": {"label": "*2", "atom_type": "H0"}}

>  <type>  (17) 
unop_13

>  <geom_source>  (17) 
Heuristics

$$$$

     RDKit          3D

 10  8  0  0  0  0  0  0  0  0999 V2000
   -0.0000    0.2150    2.4837 N   0  0  0  0  0  1  0  0  0  0  0  0
   -0.0000   -0.8092    2.5303 H   0  0  0  0  0  0  0  0  0  0  0  0
    0.0000   -0.3956   -2.0842 C   0  0  0  0  0  0  0  0  0  0  0  0
    0.0000   -0.3956   -0.5919 C   0  0  0  0  0  0  0  0  0  0  0  0
    0.0000    0.6770    0.0758 N   0  0  0  0  0  0  0  0  0  0  0  0
    0.8783   -0.9256   -2.4616 H   0  0  0  0  0  0  0  0  0  0  0  0
   -0.8783   -0.9256   -2.4616 H   0  0  0  0  0  0  0  0  0  0  0  0
   -0.0000    0.6250   -2.4628 H   0  0  0  0  0  0  0  0  0  0  0  0
    0.0000   -1.3853   -0.1173 H   0  0  0  0  0  0  0  0  0  0  0  0
   -0.0000    0.4469    1.2754 H   0  0  0  0  0  0  0  0  0  0  0  0
  1  2  1  0
  3  4  1  0
  3  6  1  0
  3  7  1  0
  3  8  1  0
  4  5  2  3
  4  9  1  0
  5 10  1  0
M  RAD  1   1   3
M  END
>  <reaction>  (18) 
rmg_rxn_16765

>  <mol_properties>  (18) 
{"0": {"label": "*3", "atom_type": "N3s"}, "1": {"label": "*4", "atom_type": "H0"}, "3": {"label": "*0", "atom_type": "Cd"}, "4": {"label": "*1", "atom_type": "N3d"}, "9": {"label": "*2", "atom_type": "H0"}}

>  <type>  (18) 
unop_14

>  <geom_source>  (18) 
Heuristics

$$$$

     RDKit          3D

 10  8  0  0  0  0  0  0  0  0999 V2000
   -0.0150    0.2065    2.4821 N   0  0  0  0  0  1  0  0  0  0  0  0
    0.8485   -0.3281    2.6226 H   0  0  0  0  0  0  0  0  0  0  0  0
   -0.0150   -0.4041   -2.0859 C   0  0  0  0  0  0  0  0  0  0  0  0
   -0.0150   -0.4041   -0.5935 C   0  0  0  0  0  0  0  0  0  0  0  0
   -0.0150    0.6685    0.0741 N   0  0  0  0  0  0  0  0  0  0  0  0
    0.8633   -0.9341   -2.4633 H   0  0  0  0  0  0  0  0  0  0  0  0
   -0.8932   -0.9341   -2.4633 H   0  0  0  0  0  0  0  0  0  0  0  0
   -0.0150    0.6165   -2.4644 H   0  0  0  0  0  0  0  0  0  0  0  0
   -0.0150   -1.3938   -0.1189 H   0  0  0  0  0  0  0  0  0  0  0  0
   -0.0150    0.4384    1.2737 H   0  0  0  0  0  0  0  0  0  0  0  0
  1  2  1  0
  3  4  1  0
  3  6  1  0
  3  7  1  0
  3  8  1  0
  4  5  2  3
  4  9  1  0
  5 10  1  0
M  RAD  1   1   3
M  END
>  <reaction>  (19) 
rmg_rxn_16765

>  <mol_properties>  (19) 
{"0": {"label": "*3", "atom_type": "N3s"}, "1": {"label": "*4", "atom_type": "H0"}, "3": {"label": "*0", "atom_type": "Cd"}, "4": {"label": "*1", "atom_type": "N3d"}, "9": {"label": "*2", "atom_type": "H0"}}

>  <type>  (19) 
unop_15

>  <geom_source>  (19) 
gaussian_log

$$$$
