
     RDKit          3D

  9  8  0  0  0  0  0  0  0  0999 V2000
   -1.0434   -0.0834    0.0221 C   0  0  0  0  0  0  0  0  0  0  0  0
    0.4680   -0.2131    0.0785 C   0  0  0  0  0  0  0  0  0  0  0  0
    0.9450   -1.3136   -0.7058 N   0  0  0  0  0  2  0  0  0  0  0  0
   -1.5170   -0.9919    0.3960 H   0  0  0  0  0  0  0  0  0  0  0  0
   -1.3864    0.7592    0.6249 H   0  0  0  0  0  0  0  0  0  0  0  0
   -1.3736    0.0696   -1.0061 H   0  0  0  0  0  0  0  0  0  0  0  0
    0.8045   -0.3309    1.1214 H   0  0  0  0  0  0  0  0  0  0  0  0
    0.9463    0.7186   -0.2648 H   0  0  0  0  0  0  0  0  0  0  0  0
    1.9638   -1.3321   -0.6157 H   0  0  0  0  0  0  0  0  0  0  0  0
  1  2  1  0
  1  4  1  0
  1  5  1  0
  1  6  1  0
  2  3  1  0
  2  7  1  0
  2  8  1  0
  3  9  1  0
M  RAD  1   3   2
M  END
>  <reaction>  (1) 
rmg_rxn_2

>  <mol_properties>  (1) 
{"2": {"label": "donator", "atom_type": "N3s"}, "8": {"label": "d_hydrogen", "atom_type": "H0"}}

>  <type>  (1) 
r1h

$$$$

     RDKit          3D

  4  3  0  0  0  0  0  0  0  0999 V2000
    1.2191   -0.0447   -0.0369 N   0  0  0  0  0  1  0  0  0  0  0  0
   -0.0876   -0.0060    0.2202 N   0  0  0  0  0  0  0  0  0  0  0  0
   -0.5966   -0.8143   -0.1273 H   0  0  0  0  0  0  0  0  0  0  0  0
   -0.5329    0.8649   -0.0563 H   0  0  0  0  0  0  0  0  0  0  0  0
  1  2  1  0
  2  3  1  0
  2  4  1  0
M  RAD  1   1   3
M  END
>  <reaction>  (2) 
rmg_rxn_2

>  <mol_properties>  (2) 
{"0": {"label": "acceptor", "atom_type": "N3s"}}

>  <type>  (2) 
r2

$$$$

     RDKit          3D

  5  4  0  0  0  0  0  0  0  0999 V2000
    0.7361   -0.2872    0.4035 N   0  0  0  0  0  2  0  0  0  0  0  0
   -0.3891   -0.1505   -0.3131 N   0  0  0  0  0  0  0  0  0  0  0  0
    1.4909    0.0686   -0.1831 H   0  0  0  0  0  0  0  0  0  0  0  0
   -1.1819   -0.6340    0.0744 H   0  0  0  0  0  0  0  0  0  0  0  0
   -0.3592   -0.1189   -1.3223 H   0  0  0  0  0  0  0  0  0  0  0  0
  1  2  1  0
  1  3  1  0
  2  4  1  0
  2  5  1  0
M  RAD  1   1   2
M  END
>  <reaction>  (3) 
rmg_rxn_2

>  <mol_properties>  (3) 
{"0": {"label": "acceptor", "atom_type": "N3s"}, "4": {"label": "a_hydrogen", "atom_type": "H0"}}

>  <type>  (3) 
r2h

$$$$

     RDKit          3D

 13 11  0  0  0  0  0  0  0  0999 V2000
   -0.5854    0.6484    1.2169 N   0  0  0  0  0  2  0  0  0  0  0  0
   -0.4770   -0.5183    1.7240 N   0  0  0  0  0  0  0  0  0  0  0  0
   -1.2858   -1.1252    1.7715 H   0  0  0  0  0  0  0  0  0  0  0  0
    0.3795   -0.8618    2.1501 H   0  0  0  0  0  0  0  0  0  0  0  0
   -0.3341   -0.4032   -2.0983 C   0  0  0  0  0  0  0  0  0  0  0  0
    0.8354   -0.4764   -1.1073 C   0  0  0  0  0  0  0  0  0  0  0  0
    1.0734    0.7805   -0.5094 N   0  0  0  0  0  1  0  0  0  0  0  0
   -0.1286    0.3295   -2.8783 H   0  0  0  0  0  0  0  0  0  0  0  0
   -0.4910   -1.3766   -2.5652 H   0  0  0  0  0  0  0  0  0  0  0  0
   -1.2448   -0.1062   -1.5772 H   0  0  0  0  0  0  0  0  0  0  0  0
    1.7435   -0.8136   -1.6243 H   0  0  0  0  0  0  0  0  0  0  0  0
    0.5983   -1.2438   -0.3438 H   0  0  0  0  0  0  0  0  0  0  0  0
    0.3694    0.9391    0.6247 H   0  0  0  0  0  0  0  0  0  0  0  0
  1  2  1  0
  1 13  1  0
  2  3  1  0
  2  4  1  0
  5  6  1  0
  5  8  1  0
  5  9  1  0
  5 10  1  0
  6  7  1  0
  6 11  1  0
  6 12  1  0
M  RAD  2   1   2   7   3
M  END
>  <reaction>  (4) 
rmg_rxn_2

>  <mol_properties>  (4) 
{"0": {"label": "*1", "atom_type": "N3s"}, "1": {"label": "*0", "atom_type": "N3s"}, "5": {"label": "*4", "atom_type": "Cs"}, "6": {"label": "*3", "atom_type": "N3s"}, "12": {"label": "*2", "atom_type": "H0"}}

>  <type>  (4) 
ts

$$$$

     RDKit          3D

 13 11  0  0  0  0  0  0  0  0999 V2000
   -0.2493    0.2695    1.8677 N   0  0  0  0  0  2  0  0  0  0  0  0
    0.8663    0.8798    2.2934 N   0  0  0  0  0  0  0  0  0  0  0  0
    0.7086    1.5631    3.0150 H   0  0  0  0  0  0  0  0  0  0  0  0
    1.6121    1.1027    1.6496 H   0  0  0  0  0  0  0  0  0  0  0  0
   -0.2493   -0.8513   -2.6329 C   0  0  0  0  0  0  0  0  0  0  0  0
   -0.2493   -0.8513   -1.1149 C   0  0  0  0  0  0  0  0  0  0  0  0
   -0.2493    0.4762   -0.5752 N   0  0  0  0  0  1  0  0  0  0  0  0
    0.6330   -0.3349   -3.0130 H   0  0  0  0  0  0  0  0  0  0  0  0
   -0.2493   -1.8702   -3.0240 H   0  0  0  0  0  0  0  0  0  0  0  0
   -1.1315   -0.3349   -3.0130 H   0  0  0  0  0  0  0  0  0  0  0  0
    0.6230   -1.4050   -0.7310 H   0  0  0  0  0  0  0  0  0  0  0  0
   -1.1215   -1.4050   -0.7310 H   0  0  0  0  0  0  0  0  0  0  0  0
   -0.2493    0.3727    0.6480 H   0  0  0  0  0  0  0  0  0  0  0  0
  1  2  1  0
  1 13  1  0
  2  3  1  0
  2  4  1  0
  5  6  1  0
  5  8  1  0
  5  9  1  0
  5 10  1  0
  6  7  1  0
  6 11  1  0
  6 12  1  0
M  RAD  2   1   2   7   3
M  END
>  <reaction>  (5) 
rmg_rxn_2

>  <mol_properties>  (5) 
{"0": {"label": "*1", "atom_type": "N3s"}, "1": {"label": "*0", "atom_type": "N3s"}, "5": {"label": "*4", "atom_type": "Cs"}, "6": {"label": "*3", "atom_type": "N3s"}, "12": {"label": "*2", "atom_type": "H0"}}

>  <type>  (5) 
unop_1

>  <geom_source>  (5) 
Heuristics

$$$$

     RDKit          3D

 13 11  0  0  0  0  0  0  0  0999 V2000
   -0.1520    0.6681    1.8990 N   0  0  0  0  0  2  0  0  0  0  0  0
    0.4920   -0.4749    2.1763 N   0  0  0  0  0  0  0  0  0  0  0  0
    0.9921   -0.4610    3.0493 H   0  0  0  0  0  0  0  0  0  0  0  0
    0.9290   -1.0139    1.4422 H   0  0  0  0  0  0  0  0  0  0  0  0
   -0.1520   -0.4527   -2.6017 C   0  0  0  0  0  0  0  0  0  0  0  0
   -0.1520   -0.4527   -1.0837 C   0  0  0  0  0  0  0  0  0  0  0  0
   -0.1520    0.8749   -0.5439 N   0  0  0  0  0  1  0  0  0  0  0  0
    0.7302    0.0638   -2.9817 H   0  0  0  0  0  0  0  0  0  0  0  0
   -0.1520   -1.4716   -2.9927 H   0  0  0  0  0  0  0  0  0  0  0  0
   -1.0343    0.0638   -2.9817 H   0  0  0  0  0  0  0  0  0  0  0  0
    0.7202   -1.0064   -0.6998 H   0  0  0  0  0  0  0  0  0  0  0  0
   -1.0243   -1.0064   -0.6998 H   0  0  0  0  0  0  0  0  0  0  0  0
   -0.1520    0.7713    0.6793 H   0  0  0  0  0  0  0  0  0  0  0  0
  1  2  1  0
  1 13  1  0
  2  3  1  0
  2  4  1  0
  5  6  1  0
  5  8  1  0
  5  9  1  0
  5 10  1  0
  6  7  1  0
  6 11  1  0
  6 12  1  0
M  RAD  2   1   2   7   3
M  END
>  <reaction>  (6) 
rmg_rxn_2

>  <mol_properties>  (6) 
{"0": {"label": "*1", "atom_type": "N3s"}, "1": {"label": "*0", "atom_type": "N3s"}, "5": {"label": "*4", "atom_type": "Cs"}, "6": {"label": "*3", "atom_type": "N3s"}, "12": {"label": "*2", "atom_type": "H0"}}

>  <type>  (6) 
unop_2

>  <geom_source>  (6) 
Heuristics

$$$$

     RDKit          3D

 13 11  0  0  0  0  0  0  0  0999 V2000
   -0.1393    0.1657    1.8575 N   0  0  0  0  0  2  0  0  0  0  0  0
    0.5048    1.2458    2.3230 N   0  0  0  0  0  0  0  0  0  0  0  0
    0.0921    1.6430    3.1503 H   0  0  0  0  0  0  0  0  0  0  0  0
    0.9192    1.9144    1.6892 H   0  0  0  0  0  0  0  0  0  0  0  0
   -0.1393   -0.9551   -2.6431 C   0  0  0  0  0  0  0  0  0  0  0  0
   -0.1393   -0.9551   -1.1251 C   0  0  0  0  0  0  0  0  0  0  0  0
   -0.1393    0.3724   -0.5853 N   0  0  0  0  0  1  0  0  0  0  0  0
    0.7429   -0.4386   -3.0232 H   0  0  0  0  0  0  0  0  0  0  0  0
   -0.1393   -1.9740   -3.0342 H   0  0  0  0  0  0  0  0  0  0  0  0
   -1.0215   -0.4386   -3.0232 H   0  0  0  0  0  0  0  0  0  0  0  0
    0.7329   -1.5088   -0.7412 H   0  0  0  0  0  0  0  0  0  0  0  0
   -1.0115   -1.5088   -0.7412 H   0  0  0  0  0  0  0  0  0  0  0  0
   -0.1393    0.2689    0.6379 H   0  0  0  0  0  0  0  0  0  0  0  0
  1  2  1  0
  1 13  1  0
  2  3  1  0
  2  4  1  0
  5  6  1  0
  5  8  1  0
  5  9  1  0
  5 10  1  0
  6  7  1  0
  6 11  1  0
  6 12  1  0
M  RAD  2   1   2   7   3
M  END
>  <reaction>  (7) 
rmg_rxn_2

>  <mol_properties>  (7) 
{"0": {"label": "*1", "atom_type": "N3s"}, "1": {"label": "*0", "atom_type": "N3s"}, "5": {"label": "*4", "atom_type": "Cs"}, "6": {"label": "*3", "atom_type": "N3s"}, "12": {"label": "*2", "atom_type": "H0"}}

>  <type>  (7) 
unop_3

>  <geom_source>  (7) 
Heuristics

$$$$

     RDKit          3D

 13 11  0  0  0  0  0  0  0  0999 V2000
    0.2477    0.5701    1.8844 N   0  0  0  0  0  2  0  0  0  0  0  0
   -0.8678   -0.1032    2.2015 N   0  0  0  0  0  0  0  0  0  0  0  0
   -1.1712    0.0325    3.1513 H   0  0  0  0  0  0  0  0  0  0  0  0
   -1.0409   -1.0245    1.8251 H   0  0  0  0  0  0  0  0  0  0  0  0
    0.2477   -0.5507   -2.6162 C   0  0  0  0  0  0  0  0  0  0  0  0
    0.2477   -0.5507   -1.0982 C   0  0  0  0  0  0  0  0  0  0  0  0
    0.2477    0.7768   -0.5584 N   0  0  0  0  0  1  0  0  0  0  0  0
    1.1300   -0.0343   -2.9962 H   0  0  0  0  0  0  0  0  0  0  0  0
    0.2477   -1.5696   -3.0072 H   0  0  0  0  0  0  0  0  0  0  0  0
   -0.6345   -0.0343   -2.9962 H   0  0  0  0  0  0  0  0  0  0  0  0
    1.1200   -1.1044   -0.7143 H   0  0  0  0  0  0  0  0  0  0  0  0
   -0.6245   -1.1044   -0.7143 H   0  0  0  0  0  0  0  0  0  0  0  0
    0.2477    0.6733    0.6648 H   0  0  0  0  0  0  0  0  0  0  0  0
  1  2  1  0
  1 13  1  0
  2  3  1  0
  2  4  1  0
  5  6  1  0
  5  8  1  0
  5  9  1  0
  5 10  1  0
  6  7  1  0
  6 11  1  0
  6 12  1  0
M  RAD  2   1   2   7   3
M  END
>  <reaction>  (8) 
rmg_rxn_2

>  <mol_properties>  (8) 
{"0": {"label": "*1", "atom_type": "N3s"}, "1": {"label": "*0", "atom_type": "N3s"}, "5": {"label": "*4", "atom_type": "Cs"}, "6": {"label": "*3", "atom_type": "N3s"}, "12": {"label": "*2", "atom_type": "H0"}}

>  <type>  (8) 
unop_4

>  <geom_source>  (8) 
Heuristics

$$$$

     RDKit          3D

 13 11  0  0  0  0  0  0  0  0999 V2000
    0.0075    0.1318    1.8511 N   0  0  0  0  0  2  0  0  0  0  0  0
    0.0075    1.3839    2.3311 N   0  0  0  0  0  0  0  0  0  0  0  0
   -0.1805    1.4435    3.3178 H   0  0  0  0  0  0  0  0  0  0  0  0
   -0.3545    2.1493    1.7802 H   0  0  0  0  0  0  0  0  0  0  0  0
    0.0075   -0.9890   -2.6495 C   0  0  0  0  0  0  0  0  0  0  0  0
    0.0075   -0.9890   -1.1316 C   0  0  0  0  0  0  0  0  0  0  0  0
    0.0075    0.3385   -0.5918 N   0  0  0  0  0  1  0  0  0  0  0  0
    0.8897   -0.4726   -3.0296 H   0  0  0  0  0  0  0  0  0  0  0  0
    0.0075   -2.0079   -3.0406 H   0  0  0  0  0  0  0  0  0  0  0  0
   -0.8747   -0.4725   -3.0296 H   0  0  0  0  0  0  0  0  0  0  0  0
    0.8797   -1.5427   -0.7476 H   0  0  0  0  0  0  0  0  0  0  0  0
   -0.8647   -1.5427   -0.7476 H   0  0  0  0  0  0  0  0  0  0  0  0
    0.0075    0.2350    0.6314 H   0  0  0  0  0  0  0  0  0  0  0  0
  1  2  1  0
  1 13  1  0
  2  3  1  0
  2  4  1  0
  5  6  1  0
  5  8  1  0
  5  9  1  0
  5 10  1  0
  6  7  1  0
  6 11  1  0
  6 12  1  0
M  RAD  2   1   2   7   3
M  END
>  <reaction>  (9) 
rmg_rxn_2

>  <mol_properties>  (9) 
{"0": {"label": "*1", "atom_type": "N3s"}, "1": {"label": "*0", "atom_type": "N3s"}, "5": {"label": "*4", "atom_type": "Cs"}, "6": {"label": "*3", "atom_type": "N3s"}, "12": {"label": "*2", "atom_type": "H0"}}

>  <type>  (9) 
unop_5

>  <geom_source>  (9) 
Heuristics

$$$$

     RDKit          3D

 13 11  0  0  0  0  0  0  0  0999 V2000
    0.2890    0.4261    1.8717 N   0  0  0  0  0  2  0  0  0  0  0  0
   -0.9991    0.3946    2.2431 N   0  0  0  0  0  0  0  0  0  0  0  0
   -1.1675    0.7580    3.1662 H   0  0  0  0  0  0  0  0  0  0  0  0
   -1.5980   -0.3716    1.9697 H   0  0  0  0  0  0  0  0  0  0  0  0
    0.2890   -0.6947   -2.6290 C   0  0  0  0  0  0  0  0  0  0  0  0
    0.2890   -0.6947   -1.1110 C   0  0  0  0  0  0  0  0  0  0  0  0
    0.2890    0.6328   -0.5712 N   0  0  0  0  0  1  0  0  0  0  0  0
    1.1712   -0.1783   -3.0090 H   0  0  0  0  0  0  0  0  0  0  0  0
    0.2890   -1.7136   -3.0200 H   0  0  0  0  0  0  0  0  0  0  0  0
   -0.5932   -0.1783   -3.0090 H   0  0  0  0  0  0  0  0  0  0  0  0
    1.1612   -1.2484   -0.7270 H   0  0  0  0  0  0  0  0  0  0  0  0
   -0.5832   -1.2484   -0.7270 H   0  0  0  0  0  0  0  0  0  0  0  0
    0.2890    0.5293    0.6520 H   0  0  0  0  0  0  0  0  0  0  0  0
  1  2  1  0
  1 13  1  0
  2  3  1  0
  2  4  1  0
  5  6  1  0
  5  8  1  0
  5  9  1  0
  5 10  1  0
  6  7  1  0
  6 11  1  0
  6 12  1  0
M  RAD  2   1   2   7   3
M  END
>  <reaction>  (10) 
rmg_rxn_2

>  <mol_properties>  (10) 
{"0": {"label": "*1", "atom_type": "N3s"}, "1": {"label": "*0", "atom_type": "N3s"}, "5": {"label": "*4", "atom_type": "Cs"}, "6": {"label": "*3", "atom_type": "N3s"}, "12": {"label": "*2", "atom_type": "H0"}}

>  <type>  (10) 
unop_6

>  <geom_source>  (10) 
Heuristics

$$$$

     RDKit          3D

 13 11  0  0  0  0  0  0  0  0999 V2000
    0.2527    0.2815    1.8595 N   0  0  0  0  0  2  0  0  0  0  0  0
   -0.8629    0.8918    2.2852 N   0  0  0  0  0  0  0  0  0  0  0  0
   -0.7914    1.2732    3.2136 H   0  0  0  0  0  0  0  0  0  0  0  0
   -1.7748    0.5333    2.0396 H   0  0  0  0  0  0  0  0  0  0  0  0
    0.2527   -0.8393   -2.6411 C   0  0  0  0  0  0  0  0  0  0  0  0
    0.2527   -0.8393   -1.1232 C   0  0  0  0  0  0  0  0  0  0  0  0
    0.2527    0.4882   -0.5834 N   0  0  0  0  0  1  0  0  0  0  0  0
    1.1349   -0.3228   -3.0212 H   0  0  0  0  0  0  0  0  0  0  0  0
    0.2527   -1.8582   -3.0322 H   0  0  0  0  0  0  0  0  0  0  0  0
   -0.6295   -0.3228   -3.0212 H   0  0  0  0  0  0  0  0  0  0  0  0
    1.1249   -1.3930   -0.7392 H   0  0  0  0  0  0  0  0  0  0  0  0
   -0.6195   -1.3930   -0.7392 H   0  0  0  0  0  0  0  0  0  0  0  0
    0.2527    0.3847    0.6398 H   0  0  0  0  0  0  0  0  0  0  0  0
  1  2  1  0
  1 13  1  0
  2  3  1  0
  2  4  1  0
  5  6  1  0
  5  8  1  0
  5  9  1  0
  5 10  1  0
  6  7  1  0
  6 11  1  0
  6 12  1  0
M  RAD  2   1   2   7   3
M  END
>  <reaction>  (11) 
rmg_rxn_2

>  <mol_properties>  (11) 
{"0": {"label": "*1", "atom_type": "N3s"}, "1": {"label": "*0", "atom_type": "N3s"}, "5": {"label": "*4", "atom_type": "Cs"}, "6": {"label": "*3", "atom_type": "N3s"}, "12": {"label": "*2", "atom_type": "H0"}}

>  <type>  (11) 
unop_7

>  <geom_source>  (11) 
Heuristics

$$$$

     RDKit          3D

 13 11  0  0  0  0  0  0  0  0999 V2000
   -0.2917    0.4139    1.8800 N   0  0  0  0  0  2  0  0  0  0  0  0
    0.9964    0.3825    2.2514 N   0  0  0  0  0  0  0  0  0  0  0  0
    1.2325    1.0509    2.9655 H   0  0  0  0  0  0  0  0  0  0  0  0
    1.7257    0.2038    1.5756 H   0  0  0  0  0  0  0  0  0  0  0  0
   -0.2917   -0.7069   -2.6206 C   0  0  0  0  0  0  0  0  0  0  0  0
   -0.2917   -0.7069   -1.1027 C   0  0  0  0  0  0  0  0  0  0  0  0
   -0.2917    0.6207   -0.5629 N   0  0  0  0  0  1  0  0  0  0  0  0
    0.5905   -0.1904   -3.0007 H   0  0  0  0  0  0  0  0  0  0  0  0
   -0.2917   -1.7258   -3.0117 H   0  0  0  0  0  0  0  0  0  0  0  0
   -1.1739   -0.1904   -3.0007 H   0  0  0  0  0  0  0  0  0  0  0  0
    0.5805   -1.2606   -0.7187 H   0  0  0  0  0  0  0  0  0  0  0  0
   -1.1639   -1.2606   -0.7187 H   0  0  0  0  0  0  0  0  0  0  0  0
   -0.2917    0.5171    0.6603 H   0  0  0  0  0  0  0  0  0  0  0  0
  1  2  1  0
  1 13  1  0
  2  3  1  0
  2  4  1  0
  5  6  1  0
  5  8  1  0
  5  9  1  0
  5 10  1  0
  6  7  1  0
  6 11  1  0
  6 12  1  0
M  RAD  2   1   2   7   3
M  END
>  <reaction>  (12) 
rmg_rxn_2

>  <mol_properties>  (12) 
{"0": {"label": "*1", "atom_type": "N3s"}, "1": {"label": "*0", "atom_type": "N3s"}, "5": {"label": "*4", "atom_type": "Cs"}, "6": {"label": "*3", "atom_type": "N3s"}, "12": {"label": "*2", "atom_type": "H0"}}

>  <type>  (12) 
unop_8

>  <geom_source>  (12) 
Heuristics

$$$$

     RDKit          3D

 13 11  0  0  0  0  0  0  0  0999 V2000
    0.1391    0.6744    1.8947 N   0  0  0  0  0  2  0  0  0  0  0  0
   -0.5049   -0.4687    2.1720 N   0  0  0  0  0  0  0  0  0  0  0  0
   -0.6806   -0.6115    3.1524 H   0  0  0  0  0  0  0  0  0  0  0  0
   -0.3172   -1.3095    1.6446 H   0  0  0  0  0  0  0  0  0  0  0  0
    0.1391   -0.4464   -2.6059 C   0  0  0  0  0  0  0  0  0  0  0  0
    0.1391   -0.4464   -1.0879 C   0  0  0  0  0  0  0  0  0  0  0  0
    0.1391    0.8811   -0.5482 N   0  0  0  0  0  1  0  0  0  0  0  0
    1.0213    0.0700   -2.9860 H   0  0  0  0  0  0  0  0  0  0  0  0
    0.1391   -1.4653   -2.9970 H   0  0  0  0  0  0  0  0  0  0  0  0
   -0.7431    0.0700   -2.9860 H   0  0  0  0  0  0  0  0  0  0  0  0
    1.0114   -1.0001   -0.7040 H   0  0  0  0  0  0  0  0  0  0  0  0
   -0.7331   -1.0001   -0.7040 H   0  0  0  0  0  0  0  0  0  0  0  0
    0.1391    0.7776    0.6750 H   0  0  0  0  0  0  0  0  0  0  0  0
  1  2  1  0
  1 13  1  0
  2  3  1  0
  2  4  1  0
  5  6  1  0
  5  8  1  0
  5  9  1  0
  5 10  1  0
  6  7  1  0
  6 11  1  0
  6 12  1  0
M  RAD  2   1   2   7   3
M  END
>  <reaction>  (13) 
rmg_rxn_2

>  <mol_properties>  (13) 
{"0": {"label": "*1", "atom_type": "N3s"}, "1": {"label": "*0", "atom_type": "N3s"}, "5": {"label": "*4", "atom_type": "Cs"}, "6": {"label": "*3", "atom_type": "N3s"}, "12": {"label": "*2", "atom_type": "H0"}}

>  <type>  (13) 
unop_9

>  <geom_source>  (13) 
Heuristics

$$$$

     RDKit          3D

 13 11  0  0  0  0  0  0  0  0999 V2000
   -0.2560    0.5597    1.8915 N   0  0  0  0  0  2  0  0  0  0  0  0
    0.8596   -0.1135    2.2086 N   0  0  0  0  0  0  0  0  0  0  0  0
    1.3697    0.2812    2.9809 H   0  0  0  0  0  0  0  0  0  0  0  0
    1.4308   -0.5359    1.4905 H   0  0  0  0  0  0  0  0  0  0  0  0
   -0.2560   -0.5610   -2.6091 C   0  0  0  0  0  0  0  0  0  0  0  0
   -0.2560   -0.5610   -1.0911 C   0  0  0  0  0  0  0  0  0  0  0  0
   -0.2560    0.7665   -0.5514 N   0  0  0  0  0  1  0  0  0  0  0  0
    0.6263   -0.0446   -2.9892 H   0  0  0  0  0  0  0  0  0  0  0  0
   -0.2560   -1.5799   -3.0002 H   0  0  0  0  0  0  0  0  0  0  0  0
   -1.1382   -0.0446   -2.9892 H   0  0  0  0  0  0  0  0  0  0  0  0
    0.6163   -1.1147   -0.7072 H   0  0  0  0  0  0  0  0  0  0  0  0
   -1.1282   -1.1147   -0.7072 H   0  0  0  0  0  0  0  0  0  0  0  0
   -0.2560    0.6630    0.6718 H   0  0  0  0  0  0  0  0  0  0  0  0
  1  2  1  0
  1 13  1  0
  2  3  1  0
  2  4  1  0
  5  6  1  0
  5  8  1  0
  5  9  1  0
  5 10  1  0
  6  7  1  0
  6 11  1  0
  6 12  1  0
M  RAD  2   1   2   7   3
M  END
>  <reaction>  (14) 
rmg_rxn_2

>  <mol_properties>  (14) 
{"0": {"label": "*1", "atom_type": "N3s"}, "1": {"label": "*0", "atom_type": "N3s"}, "5": {"label": "*4", "atom_type": "Cs"}, "6": {"label": "*3", "atom_type": "N3s"}, "12": {"label": "*2", "atom_type": "H0"}}

>  <type>  (14) 
unop_10

>  <geom_source>  (14) 
Heuristics

$$$$

     RDKit          3D

 13 11  0  0  0  0  0  0  0  0999 V2000
    0.1498    0.1745    1.8515 N   0  0  0  0  0  2  0  0  0  0  0  0
   -0.4943    1.2547    2.3170 N   0  0  0  0  0  0  0  0  0  0  0  0
   -0.3441    1.4298    3.2964 H   0  0  0  0  0  0  0  0  0  0  0  0
   -1.4142    1.4956    1.9760 H   0  0  0  0  0  0  0  0  0  0  0  0
    0.1498   -0.9463   -2.6491 C   0  0  0  0  0  0  0  0  0  0  0  0
    0.1498   -0.9463   -1.1312 C   0  0  0  0  0  0  0  0  0  0  0  0
    0.1498    0.3813   -0.5914 N   0  0  0  0  0  1  0  0  0  0  0  0
    1.0320   -0.4298   -3.0292 H   0  0  0  0  0  0  0  0  0  0  0  0
    0.1498   -1.9652   -3.0402 H   0  0  0  0  0  0  0  0  0  0  0  0
   -0.7325   -0.4298   -3.0292 H   0  0  0  0  0  0  0  0  0  0  0  0
    1.0220   -1.5000   -0.7472 H   0  0  0  0  0  0  0  0  0  0  0  0
   -0.7225   -1.5000   -0.7472 H   0  0  0  0  0  0  0  0  0  0  0  0
    0.1498    0.2778    0.6318 H   0  0  0  0  0  0  0  0  0  0  0  0
  1  2  1  0
  1 13  1  0
  2  3  1  0
  2  4  1  0
  5  6  1  0
  5  8  1  0
  5  9  1  0
  5 10  1  0
  6  7  1  0
  6 11  1  0
  6 12  1  0
M  RAD  2   1   2   7   3
M  END
>  <reaction>  (15) 
rmg_rxn_2

>  <mol_properties>  (15) 
{"0": {"label": "*1", "atom_type": "N3s"}, "1": {"label": "*0", "atom_type": "N3s"}, "5": {"label": "*4", "atom_type": "Cs"}, "6": {"label": "*3", "atom_type": "N3s"}, "12": {"label": "*2", "atom_type": "H0"}}

>  <type>  (15) 
unop_11

>  <geom_source>  (15) 
Heuristics

$$$$

     RDKit          3D

 13 11  0  0  0  0  0  0  0  0999 V2000
   -0.0075    0.7102    1.9000 N   0  0  0  0  0  2  0  0  0  0  0  0
   -0.0075   -0.6048    2.1628 N   0  0  0  0  0  0  0  0  0  0  0  0
    0.1805   -0.8294    3.1254 H   0  0  0  0  0  0  0  0  0  0  0  0
    0.3545   -1.2667    1.4911 H   0  0  0  0  0  0  0  0  0  0  0  0
   -0.0075   -0.4106   -2.6006 C   0  0  0  0  0  0  0  0  0  0  0  0
   -0.0075   -0.4106   -1.0826 C   0  0  0  0  0  0  0  0  0  0  0  0
   -0.0075    0.9170   -0.5428 N   0  0  0  0  0  1  0  0  0  0  0  0
    0.8747    0.1059   -2.9806 H   0  0  0  0  0  0  0  0  0  0  0  0
   -0.0075   -1.4295   -2.9916 H   0  0  0  0  0  0  0  0  0  0  0  0
   -0.8897    0.1059   -2.9806 H   0  0  0  0  0  0  0  0  0  0  0  0
    0.8647   -0.9643   -0.6987 H   0  0  0  0  0  0  0  0  0  0  0  0
   -0.8797   -0.9643   -0.6987 H   0  0  0  0  0  0  0  0  0  0  0  0
   -0.0075    0.8135    0.6804 H   0  0  0  0  0  0  0  0  0  0  0  0
  1  2  1  0
  1 13  1  0
  2  3  1  0
  2  4  1  0
  5  6  1  0
  5  8  1  0
  5  9  1  0
  5 10  1  0
  6  7  1  0
  6 11  1  0
  6 12  1  0
M  RAD  2   1   2   7   3
M  END
>  <reaction>  (16) 
rmg_rxn_2

>  <mol_properties>  (16) 
{"0": {"label": "*1", "atom_type": "N3s"}, "1": {"label": "*0", "atom_type": "N3s"}, "5": {"label": "*4", "atom_type": "Cs"}, "6": {"label": "*3", "atom_type": "N3s"}, "12": {"label": "*2", "atom_type": "H0"}}

>  <type>  (16) 
unop_12

>  <geom_source>  (16) 
Heuristics

$$$$

     RDKit          3D

 13 11  0  0  0  0  0  0  0  0999 V2000
   -0.1520    0.6681    1.8989 N   0  0  0  0  0  2  0  0  0  0  0  0
    0.4920   -0.4749    2.1763 N   0  0  0  0  0  0  0  0  0  0  0  0
    0.9921   -0.4610    3.0493 H   0  0  0  0  0  0  0  0  0  0  0  0
    0.9290   -1.0139    1.4422 H   0  0  0  0  0  0  0  0  0  0  0  0
   -0.1520   -0.4527   -2.6016 C   0  0  0  0  0  0  0  0  0  0  0  0
   -0.1520   -0.4527   -1.0837 C   0  0  0  0  0  0  0  0  0  0  0  0
   -0.1520    0.8749   -0.5439 N   0  0  0  0  0  1  0  0  0  0  0  0
    0.7302    0.0638   -2.9817 H   0  0  0  0  0  0  0  0  0  0  0  0
   -0.1520   -1.4716   -2.9927 H   0  0  0  0  0  0  0  0  0  0  0  0
   -1.0343    0.0638   -2.9817 H   0  0  0  0  0  0  0  0  0  0  0  0
    0.7202   -1.0064   -0.6997 H   0  0  0  0  0  0  0  0  0  0  0  0
   -1.0243   -1.0064   -0.6997 H   0  0  0  0  0  0  0  0  0  0  0  0
   -0.1520    0.7713    0.6793 H   0  0  0  0  0  0  0  0  0  0  0  0
  1  2  1  0
  1 13  1  0
  2  3  1  0
  2  4  1  0
  5  6  1  0
  5  8  1  0
  5  9  1  0
  5 10  1  0
  6  7  1  0
  6 11  1  0
  6 12  1  0
M  RAD  2   1   2   7   3
M  END
>  <reaction>  (17) 
rmg_rxn_2

>  <mol_properties>  (17) 
{"0": {"label": "*1", "atom_type": "N3s"}, "1": {"label": "*0", "atom_type": "N3s"}, "5": {"label": "*4", "atom_type": "Cs"}, "6": {"label": "*3", "atom_type": "N3s"}, "12": {"label": "*2", "atom_type": "H0"}}

>  <type>  (17) 
unop_13

>  <geom_source>  (17) 
gaussian_log

$$$$
