
     RDKit          3D

  8  7  0  0  0  0  0  0  0  0999 V2000
    0.9548    0.1194   -0.0790 C   0  0  0  0  0  0  0  0  0  0  0  0
   -0.4838   -0.2649    0.0193 C   0  0  0  0  0  0  0  0  0  0  0  0
   -0.8933   -1.1081    0.8664 N   0  0  0  0  0  0  0  0  0  0  0  0
    1.3360   -0.0983   -1.0800 H   0  0  0  0  0  0  0  0  0  0  0  0
    1.0698    1.1948    0.0786 H   0  0  0  0  0  0  0  0  0  0  0  0
    1.5426   -0.4219    0.6602 H   0  0  0  0  0  0  0  0  0  0  0  0
   -1.1575    0.2324   -0.6905 H   0  0  0  0  0  0  0  0  0  0  0  0
   -1.8989   -1.2455    0.7886 H   0  0  0  0  0  0  0  0  0  0  0  0
  1  2  1  0
  1  4  1  0
  1  5  1  0
  1  6  1  0
  2  3  2  3
  2  7  1  0
  3  8  1  0
M  END
>  <reaction>  (1) 
rmg_rxn_16468

>  <mol_properties>  (1) 
{"2": {"label": "donator", "atom_type": "N3d"}, "7": {"label": "d_hydrogen", "atom_type": "H0"}}

>  <type>  (1) 
r1h

$$$$

     RDKit          3D

 13 13  0  0  0  0  0  0  0  0999 V2000
   -0.9087    1.0135    0.2744 C   0  0  0  0  0  3  0  0  0  0  0  0
   -1.1528   -0.4306   -0.0132 C   0  0  0  0  0  0  0  0  0  0  0  0
    0.1597   -1.1985    0.0580 C   0  0  0  0  0  0  0  0  0  0  0  0
    1.1497   -0.5125   -0.6902 O   0  0  0  0  0  0  0  0  0  0  0  0
    1.3593    0.7608   -0.1866 C   0  0  0  0  0  0  0  0  0  0  0  0
    0.2092    1.5798   -0.2538 O   0  0  0  0  0  0  0  0  0  0  0  0
   -1.7260    1.7182    0.3534 H   0  0  0  0  0  0  0  0  0  0  0  0
   -1.8796   -0.8393    0.6913 H   0  0  0  0  0  0  0  0  0  0  0  0
   -1.5725   -0.5507   -1.0227 H   0  0  0  0  0  0  0  0  0  0  0  0
    0.4914   -1.2968    1.1007 H   0  0  0  0  0  0  0  0  0  0  0  0
    0.0732   -2.1931   -0.3758 H   0  0  0  0  0  0  0  0  0  0  0  0
    1.6805    0.7077    0.8652 H   0  0  0  0  0  0  0  0  0  0  0  0
    2.1167    1.2415   -0.8007 H   0  0  0  0  0  0  0  0  0  0  0  0
  1  2  1  0
  1  6  1  0
  1  7  1  0
  2  3  1  0
  2  8  1  0
  2  9  1  0
  3  4  1  0
  3 10  1  0
  3 11  1  0
  4  5  1  0
  5  6  1  0
  5 12  1  0
  5 13  1  0
M  RAD  1   1   2
M  END
>  <reaction>  (2) 
rmg_rxn_16468

>  <mol_properties>  (2) 
{"0": {"label": "acceptor", "atom_type": "Cs"}}

>  <type>  (2) 
r2

$$$$

     RDKit          3D

 14 14  0  0  0  0  0  0  0  0999 V2000
   -1.1778    0.2241    0.1818 C   0  0  0  0  0  0  0  0  0  0  0  0
   -0.5633   -1.1636    0.0678 C   0  0  0  0  0  0  0  0  0  0  0  0
    0.6943   -1.1996    0.7146 O   0  0  0  0  0  0  0  0  0  0  0  0
    1.5547   -0.2288    0.2011 C   0  0  0  0  0  0  0  0  0  0  0  0
    1.0729    1.0696    0.3698 O   0  0  0  0  0  0  0  0  0  0  0  0
   -0.1607    1.2493   -0.2989 C   0  0  0  0  0  0  0  0  0  0  0  0
   -2.0927    0.2866   -0.4117 H   0  0  0  0  0  0  0  0  0  0  0  0
   -1.4303    0.4248    1.2248 H   0  0  0  0  0  0  0  0  0  0  0  0
   -1.1822   -1.9235    0.5431 H   0  0  0  0  0  0  0  0  0  0  0  0
   -0.4389   -1.4347   -0.9919 H   0  0  0  0  0  0  0  0  0  0  0  0
    1.7250   -0.4207   -0.8742 H   0  0  0  0  0  0  0  0  0  0  0  0
    2.4896   -0.3010    0.7524 H   0  0  0  0  0  0  0  0  0  0  0  0
   -0.0080    1.1481   -1.3844 H   0  0  0  0  0  0  0  0  0  0  0  0
   -0.4826    2.2695   -0.0942 H   0  0  0  0  0  0  0  0  0  0  0  0
  1  2  1  0
  1  6  1  0
  1  7  1  0
  1  8  1  0
  2  3  1  0
  2  9  1  0
  2 10  1  0
  3  4  1  0
  4  5  1  0
  4 11  1  0
  4 12  1  0
  5  6  1  0
  6 13  1  0
  6 14  1  0
M  END
>  <reaction>  (3) 
rmg_rxn_16468

>  <mol_properties>  (3) 
{"0": {"label": "a_hydrogen", "atom_type": "H0"}, "1": {"label": "acceptor", "atom_type": "Cs"}}

>  <type>  (3) 
r2h

$$$$

     RDKit          3D

 21 20  0  0  0  0  0  0  0  0999 V2000
    2.8687   -0.8121    0.0737 C   0  0  0  0  0  0  0  0  0  0  0  0
    2.6345    0.5522   -0.5102 C   0  0  0  0  0  0  0  0  0  0  0  0
    1.6421    1.3100   -0.3793 N   0  0  0  0  0  0  0  0  0  0  0  0
    2.0207   -1.1599    0.6599 H   0  0  0  0  0  0  0  0  0  0  0  0
    3.0650   -1.5245   -0.7311 H   0  0  0  0  0  0  0  0  0  0  0  0
    3.7615   -0.7902    0.7030 H   0  0  0  0  0  0  0  0  0  0  0  0
    3.4534    0.9321   -1.1373 H   0  0  0  0  0  0  0  0  0  0  0  0
    0.7697    0.7749    0.3728 H   0  0  0  0  0  0  0  0  0  0  0  0
   -0.2349    0.2922    1.1436 C   0  0  0  0  0  3  0  0  0  0  0  0
   -1.4019    1.1713    0.7599 C   0  0  0  0  0  0  0  0  0  0  0  0
   -1.8693    0.7932   -0.6373 C   0  0  0  0  0  0  0  0  0  0  0  0
   -2.0715   -0.6102   -0.7124 O   0  0  0  0  0  0  0  0  0  0  0  0
   -0.9042   -1.2977   -0.4203 C   0  0  0  0  0  0  0  0  0  0  0  0
   -0.4374   -1.0548    0.8877 O   0  0  0  0  0  0  0  0  0  0  0  0
    0.1257    0.4062    2.1641 H   0  0  0  0  0  0  0  0  0  0  0  0
   -2.2221    1.0281    1.4709 H   0  0  0  0  0  0  0  0  0  0  0  0
   -1.0994    2.2194    0.7915 H   0  0  0  0  0  0  0  0  0  0  0  0
   -2.8210    1.2589   -0.8870 H   0  0  0  0  0  0  0  0  0  0  0  0
   -1.1213    1.0982   -1.3806 H   0  0  0  0  0  0  0  0  0  0  0  0
   -1.1210   -2.3615   -0.4804 H   0  0  0  0  0  0  0  0  0  0  0  0
   -0.1099   -1.0184   -1.1319 H   0  0  0  0  0  0  0  0  0  0  0  0
  1  2  1  0
  1  4  1  0
  1  5  1  0
  1  6  1  0
  2  3  2  3
  2  7  1  0
  3  8  1  0
  9 10  1  0
  9 14  1  0
  9 15  1  0
 10 11  1  0
 10 16  1  0
 10 17  1  0
 11 12  1  0
 11 18  1  0
 11 19  1  0
 12 13  1  0
 13 14  1  0
 13 20  1  0
 13 21  1  0
M  RAD  1   9   2
M  END
>  <reaction>  (4) 
rmg_rxn_16468

>  <mol_properties>  (4) 
{"1": {"label": "*0", "atom_type": "Cd"}, "2": {"label": "*1", "atom_type": "N3d"}, "7": {"label": "*2", "atom_type": "H0"}, "8": {"label": "*3", "atom_type": "Cs"}, "13": {"label": "*4", "atom_type": "O2s"}}

>  <type>  (4) 
ts

$$$$

     RDKit          3D

 21 20  0  0  0  0  0  0  0  0999 V2000
    2.9788   -0.8013    0.1618 C   0  0  0  0  0  0  0  0  0  0  0  0
    2.6433    0.4790   -0.5425 C   0  0  0  0  0  0  0  0  0  0  0  0
    1.6132    1.1668   -0.4771 N   0  0  0  0  0  0  0  0  0  0  0  0
    2.1352   -1.1670    0.7416 H   0  0  0  0  0  0  0  0  0  0  0  0
    3.2707   -1.5531   -0.5700 H   0  0  0  0  0  0  0  0  0  0  0  0
    3.8277   -0.6315    0.8231 H   0  0  0  0  0  0  0  0  0  0  0  0
    3.4396    0.8404   -1.2037 H   0  0  0  0  0  0  0  0  0  0  0  0
    0.7395    0.7473    0.2976 H   0  0  0  0  0  0  0  0  0  0  0  0
   -0.2157    0.3003    1.0866 C   0  0  0  0  0  3  0  0  0  0  0  0
   -1.4224    1.1719    0.7974 C   0  0  0  0  0  0  0  0  0  0  0  0
   -1.9303    0.8315   -0.6042 C   0  0  0  0  0  0  0  0  0  0  0  0
   -2.1276   -0.5689   -0.7226 O   0  0  0  0  0  0  0  0  0  0  0  0
   -0.9469   -1.2592   -0.4876 C   0  0  0  0  0  0  0  0  0  0  0  0
   -0.4148   -1.0541    0.7926 O   0  0  0  0  0  0  0  0  0  0  0  0
    0.1562    0.3649    2.1077 H   0  0  0  0  0  0  0  0  0  0  0  0
   -2.2136    0.9603    1.5250 H   0  0  0  0  0  0  0  0  0  0  0  0
   -1.1506    2.2243    0.8620 H   0  0  0  0  0  0  0  0  0  0  0  0
   -2.8994    1.2883   -0.8078 H   0  0  0  0  0  0  0  0  0  0  0  0
   -1.1987    1.1667   -1.3539 H   0  0  0  0  0  0  0  0  0  0  0  0
   -1.1732   -2.3253   -0.5642 H   0  0  0  0  0  0  0  0  0  0  0  0
   -0.1838   -0.9741   -1.2425 H   0  0  0  0  0  0  0  0  0  0  0  0
  1  2  1  0
  1  4  1  0
  1  5  1  0
  1  6  1  0
  2  3  2  3
  2  7  1  0
  3  8  1  0
  9 10  1  0
  9 14  1  0
  9 15  1  0
 10 11  1  0
 10 16  1  0
 10 17  1  0
 11 12  1  0
 11 18  1  0
 11 19  1  0
 12 13  1  0
 13 14  1  0
 13 20  1  0
 13 21  1  0
M  RAD  1   9   2
M  END
>  <reaction>  (5) 
rmg_rxn_16468

>  <mol_properties>  (5) 
{"1": {"label": "*0", "atom_type": "Cd"}, "2": {"label": "*1", "atom_type": "N3d"}, "7": {"label": "*2", "atom_type": "H0"}, "8": {"label": "*3", "atom_type": "Cs"}, "13": {"label": "*4", "atom_type": "O2s"}}

>  <type>  (5) 
unop_1

>  <geom_source>  (5) 
crest_best.xyz

$$$$

     RDKit          3D

 21 20  0  0  0  0  0  0  0  0999 V2000
    0.0757   -1.3008   -4.0682 C   0  0  0  0  0  0  0  0  0  0  0  0
    0.0757   -1.3008   -2.5758 C   0  0  0  0  0  0  0  0  0  0  0  0
    0.0757   -0.2282   -1.9082 N   0  0  0  0  0  0  0  0  0  0  0  0
    0.9540   -1.8308   -4.4456 H   0  0  0  0  0  0  0  0  0  0  0  0
   -0.8025   -1.8308   -4.4456 H   0  0  0  0  0  0  0  0  0  0  0  0
    0.0757   -0.2802   -4.4468 H   0  0  0  0  0  0  0  0  0  0  0  0
    0.0757   -2.2905   -2.1012 H   0  0  0  0  0  0  0  0  0  0  0  0
    0.0757   -0.4584   -0.7086 H   0  0  0  0  0  0  0  0  0  0  0  0
    0.0757   -0.7047    0.5750 C   0  0  0  0  0  3  0  0  0  0  0  0
    1.2982   -0.1188    1.2670 C   0  0  0  0  0  0  0  0  0  0  0  0
    0.8394    0.6606    2.4912 C   0  0  0  0  0  0  0  0  0  0  0  0
   -0.1660    1.5899    2.1346 O   0  0  0  0  0  0  0  0  0  0  0  0
   -1.2427    0.9562    1.5137 C   0  0  0  0  0  0  0  0  0  0  0  0
   -0.8841    0.3060    0.3326 O   0  0  0  0  0  0  0  0  0  0  0  0
   -0.3706   -1.4921    1.2015 H   0  0  0  0  0  0  0  0  0  0  0  0
    1.9900   -0.9128    1.5570 H   0  0  0  0  0  0  0  0  0  0  0  0
    1.8158    0.5545    0.5810 H   0  0  0  0  0  0  0  0  0  0  0  0
    0.4467   -0.0308    3.2526 H   0  0  0  0  0  0  0  0  0  0  0  0
    1.6513    1.2330    2.9376 H   0  0  0  0  0  0  0  0  0  0  0  0
   -1.6925    0.2271    2.2124 H   0  0  0  0  0  0  0  0  0  0  0  0
   -1.9646    1.7268    1.2524 H   0  0  0  0  0  0  0  0  0  0  0  0
  1  2  1  0
  1  4  1  0
  1  5  1  0
  1  6  1  0
  2  3  2  3
  2  7  1  0
  3  8  1  0
  9 10  1  0
  9 14  1  0
  9 15  1  0
 10 11  1  0
 10 16  1  0
 10 17  1  0
 11 12  1  0
 11 18  1  0
 11 19  1  0
 12 13  1  0
 13 14  1  0
 13 20  1  0
 13 21  1  0
M  RAD  1   9   2
M  END
>  <reaction>  (6) 
rmg_rxn_16468

>  <mol_properties>  (6) 
{"1": {"label": "*0", "atom_type": "Cd"}, "2": {"label": "*1", "atom_type": "N3d"}, "7": {"label": "*2", "atom_type": "H0"}, "8": {"label": "*3", "atom_type": "Cs"}, "13": {"label": "*4", "atom_type": "O2s"}}

>  <type>  (6) 
unop_2

>  <geom_source>  (6) 
Heuristics

$$$$

     RDKit          3D

 21 20  0  0  0  0  0  0  0  0999 V2000
   -0.6992   -0.4808   -4.1794 C   0  0  0  0  0  0  0  0  0  0  0  0
   -0.6992   -0.4808   -2.6870 C   0  0  0  0  0  0  0  0  0  0  0  0
   -0.6992    0.5918   -2.0193 N   0  0  0  0  0  0  0  0  0  0  0  0
    0.1790   -1.0108   -4.5568 H   0  0  0  0  0  0  0  0  0  0  0  0
   -1.5775   -1.0108   -4.5568 H   0  0  0  0  0  0  0  0  0  0  0  0
   -0.6992    0.5398   -4.5580 H   0  0  0  0  0  0  0  0  0  0  0  0
   -0.6992   -1.4705   -2.2124 H   0  0  0  0  0  0  0  0  0  0  0  0
   -0.6992    0.3616   -0.8198 H   0  0  0  0  0  0  0  0  0  0  0  0
   -0.6992    0.1154    0.4638 C   0  0  0  0  0  3  0  0  0  0  0  0
    0.0066   -1.1925    0.7925 C   0  0  0  0  0  0  0  0  0  0  0  0
    0.5613   -1.1056    2.2072 C   0  0  0  0  0  0  0  0  0  0  0  0
    1.3407    0.0653    2.3591 O   0  0  0  0  0  0  0  0  0  0  0  0
    0.6050    1.2070    2.0402 C   0  0  0  0  0  0  0  0  0  0  0  0
    0.1552    1.2135    0.7196 O   0  0  0  0  0  0  0  0  0  0  0  0
   -1.6133    0.2127    1.0694 H   0  0  0  0  0  0  0  0  0  0  0  0
   -0.6860   -2.0327    0.7048 H   0  0  0  0  0  0  0  0  0  0  0  0
    0.8272   -1.3487    0.0897 H   0  0  0  0  0  0  0  0  0  0  0  0
   -0.2641   -1.0942    2.9354 H   0  0  0  0  0  0  0  0  0  0  0  0
    1.2111   -1.9474    2.4423 H   0  0  0  0  0  0  0  0  0  0  0  0
   -0.2603    1.2890    2.7234 H   0  0  0  0  0  0  0  0  0  0  0  0
    1.2664    2.0621    2.1609 H   0  0  0  0  0  0  0  0  0  0  0  0
  1  2  1  0
  1  4  1  0
  1  5  1  0
  1  6  1  0
  2  3  2  3
  2  7  1  0
  3  8  1  0
  9 10  1  0
  9 14  1  0
  9 15  1  0
 10 11  1  0
 10 16  1  0
 10 17  1  0
 11 12  1  0
 11 18  1  0
 11 19  1  0
 12 13  1  0
 13 14  1  0
 13 20  1  0
 13 21  1  0
M  RAD  1   9   2
M  END
>  <reaction>  (7) 
rmg_rxn_16468

>  <mol_properties>  (7) 
{"1": {"label": "*0", "atom_type": "Cd"}, "2": {"label": "*1", "atom_type": "N3d"}, "7": {"label": "*2", "atom_type": "H0"}, "8": {"label": "*3", "atom_type": "Cs"}, "13": {"label": "*4", "atom_type": "O2s"}}

>  <type>  (7) 
unop_3

>  <geom_source>  (7) 
Heuristics

$$$$

     RDKit          3D

 21 20  0  0  0  0  0  0  0  0999 V2000
    0.4825   -1.0478   -4.1574 C   0  0  0  0  0  0  0  0  0  0  0  0
    0.4825   -1.0478   -2.6650 C   0  0  0  0  0  0  0  0  0  0  0  0
    0.4825    0.0248   -1.9973 N   0  0  0  0  0  0  0  0  0  0  0  0
    1.3608   -1.5778   -4.5348 H   0  0  0  0  0  0  0  0  0  0  0  0
   -0.3958   -1.5778   -4.5348 H   0  0  0  0  0  0  0  0  0  0  0  0
    0.4825   -0.0272   -4.5360 H   0  0  0  0  0  0  0  0  0  0  0  0
    0.4825   -2.0375   -2.1904 H   0  0  0  0  0  0  0  0  0  0  0  0
    0.4825   -0.2054   -0.7978 H   0  0  0  0  0  0  0  0  0  0  0  0
    0.4825   -0.4517    0.4858 C   0  0  0  0  0  3  0  0  0  0  0  0
    1.1883    0.6416    1.2752 C   0  0  0  0  0  0  0  0  0  0  0  0
    0.4274    0.8756    2.5725 C   0  0  0  0  0  0  0  0  0  0  0  0
   -0.9433    1.1017    2.3051 O   0  0  0  0  0  0  0  0  0  0  0  0
   -1.4987    0.0442    1.5843 C   0  0  0  0  0  0  0  0  0  0  0  0
   -0.8915   -0.1465    0.3428 O   0  0  0  0  0  0  0  0  0  0  0  0
    0.5921   -1.4185    1.0006 H   0  0  0  0  0  0  0  0  0  0  0  0
    2.2213    0.3551    1.4847 H   0  0  0  0  0  0  0  0  0  0  0  0
    1.1992    1.5629    0.6895 H   0  0  0  0  0  0  0  0  0  0  0  0
    0.5332    0.0022    3.2340 H   0  0  0  0  0  0  0  0  0  0  0  0
    0.7917    1.7527    3.1058 H   0  0  0  0  0  0  0  0  0  0  0  0
   -1.4215   -0.8854    2.1776 H   0  0  0  0  0  0  0  0  0  0  0  0
   -2.5418    0.2913    1.3996 H   0  0  0  0  0  0  0  0  0  0  0  0
  1  2  1  0
  1  4  1  0
  1  5  1  0
  1  6  1  0
  2  3  2  3
  2  7  1  0
  3  8  1  0
  9 10  1  0
  9 14  1  0
  9 15  1  0
 10 11  1  0
 10 16  1  0
 10 17  1  0
 11 12  1  0
 11 18  1  0
 11 19  1  0
 12 13  1  0
 13 14  1  0
 13 20  1  0
 13 21  1  0
M  RAD  1   9   2
M  END
>  <reaction>  (8) 
rmg_rxn_16468

>  <mol_properties>  (8) 
{"1": {"label": "*0", "atom_type": "Cd"}, "2": {"label": "*1", "atom_type": "N3d"}, "7": {"label": "*2", "atom_type": "H0"}, "8": {"label": "*3", "atom_type": "Cs"}, "13": {"label": "*4", "atom_type": "O2s"}}

>  <type>  (8) 
unop_4

>  <geom_source>  (8) 
Heuristics

$$$$

     RDKit          3D

 21 20  0  0  0  0  0  0  0  0999 V2000
    0.1156   -0.2356   -4.4306 C   0  0  0  0  0  0  0  0  0  0  0  0
    0.1156   -0.2356   -2.9383 C   0  0  0  0  0  0  0  0  0  0  0  0
    0.1156    0.8370   -2.2706 N   0  0  0  0  0  0  0  0  0  0  0  0
    0.9938   -0.7656   -4.8080 H   0  0  0  0  0  0  0  0  0  0  0  0
   -0.7627   -0.7656   -4.8080 H   0  0  0  0  0  0  0  0  0  0  0  0
    0.1156    0.7850   -4.8092 H   0  0  0  0  0  0  0  0  0  0  0  0
    0.1156   -1.2253   -2.4636 H   0  0  0  0  0  0  0  0  0  0  0  0
    0.1156    0.6068   -1.0710 H   0  0  0  0  0  0  0  0  0  0  0  0
    0.1156    0.3606    0.2126 C   0  0  0  0  0  3  0  0  0  0  0  0
   -1.1069   -0.4399    0.6386 C   0  0  0  0  0  0  0  0  0  0  0  0
   -1.3464   -0.2115    2.1242 C   0  0  0  0  0  0  0  0  0  0  0  0
   -0.1634   -0.4641    2.8579 O   0  0  0  0  0  0  0  0  0  0  0  0
    0.8946    0.3195    2.3965 C   0  0  0  0  0  0  0  0  0  0  0  0
    1.2114    0.0739    1.0602 O   0  0  0  0  0  0  0  0  0  0  0  0
   -0.1070    1.4379    0.2521 H   0  0  0  0  0  0  0  0  0  0  0  0
   -1.9823   -0.1371    0.0597 H   0  0  0  0  0  0  0  0  0  0  0  0
   -0.9264   -1.5014    0.4590 H   0  0  0  0  0  0  0  0  0  0  0  0
   -1.6718    0.8256    2.2983 H   0  0  0  0  0  0  0  0  0  0  0  0
   -2.1100   -0.8790    2.5211 H   0  0  0  0  0  0  0  0  0  0  0  0
    0.6427    1.3884    2.5237 H   0  0  0  0  0  0  0  0  0  0  0  0
    1.7698    0.0625    2.9889 H   0  0  0  0  0  0  0  0  0  0  0  0
  1  2  1  0
  1  4  1  0
  1  5  1  0
  1  6  1  0
  2  3  2  3
  2  7  1  0
  3  8  1  0
  9 10  1  0
  9 14  1  0
  9 15  1  0
 10 11  1  0
 10 16  1  0
 10 17  1  0
 11 12  1  0
 11 18  1  0
 11 19  1  0
 12 13  1  0
 13 14  1  0
 13 20  1  0
 13 21  1  0
M  RAD  1   9   2
M  END
>  <reaction>  (9) 
rmg_rxn_16468

>  <mol_properties>  (9) 
{"1": {"label": "*0", "atom_type": "Cd"}, "2": {"label": "*1", "atom_type": "N3d"}, "7": {"label": "*2", "atom_type": "H0"}, "8": {"label": "*3", "atom_type": "Cs"}, "13": {"label": "*4", "atom_type": "O2s"}}

>  <type>  (9) 
unop_5

>  <geom_source>  (9) 
Heuristics

$$$$

     RDKit          3D

 21 20  0  0  0  0  0  0  0  0999 V2000
    0.4612   -0.5548   -4.3605 C   0  0  0  0  0  0  0  0  0  0  0  0
    0.4612   -0.5548   -2.8682 C   0  0  0  0  0  0  0  0  0  0  0  0
    0.4612    0.5178   -2.2005 N   0  0  0  0  0  0  0  0  0  0  0  0
    1.3395   -1.0848   -4.7379 H   0  0  0  0  0  0  0  0  0  0  0  0
   -0.4170   -1.0848   -4.7379 H   0  0  0  0  0  0  0  0  0  0  0  0
    0.4612    0.4658   -4.7391 H   0  0  0  0  0  0  0  0  0  0  0  0
    0.4612   -1.5445   -2.3935 H   0  0  0  0  0  0  0  0  0  0  0  0
    0.4612    0.2876   -1.0009 H   0  0  0  0  0  0  0  0  0  0  0  0
    0.4612    0.0413    0.2827 C   0  0  0  0  0  3  0  0  0  0  0  0
    0.4612    1.3204    1.1077 C   0  0  0  0  0  0  0  0  0  0  0  0
    0.2344    0.9588    2.5687 C   0  0  0  0  0  0  0  0  0  0  0  0
   -0.9152    0.1450    2.7015 O   0  0  0  0  0  0  0  0  0  0  0  0
   -0.8166   -1.0016    1.9128 C   0  0  0  0  0  0  0  0  0  0  0  0
   -0.7019   -0.7178    0.5517 O   0  0  0  0  0  0  0  0  0  0  0  0
    1.3537   -0.5587    0.5179 H   0  0  0  0  0  0  0  0  0  0  0  0
    1.4081    1.8517    0.9884 H   0  0  0  0  0  0  0  0  0  0  0  0
   -0.3445    1.9728    0.7659 H   0  0  0  0  0  0  0  0  0  0  0  0
    1.1109    0.4233    2.9647 H   0  0  0  0  0  0  0  0  0  0  0  0
    0.0670    1.8408    3.1853 H   0  0  0  0  0  0  0  0  0  0  0  0
    0.0557   -1.5975    2.2386 H   0  0  0  0  0  0  0  0  0  0  0  0
   -1.7354   -1.5677    2.0489 H   0  0  0  0  0  0  0  0  0  0  0  0
  1  2  1  0
  1  4  1  0
  1  5  1  0
  1  6  1  0
  2  3  2  3
  2  7  1  0
  3  8  1  0
  9 10  1  0
  9 14  1  0
  9 15  1  0
 10 11  1  0
 10 16  1  0
 10 17  1  0
 11 12  1  0
 11 18  1  0
 11 19  1  0
 12 13  1  0
 13 14  1  0
 13 20  1  0
 13 21  1  0
M  RAD  1   9   2
M  END
>  <reaction>  (10) 
rmg_rxn_16468

>  <mol_properties>  (10) 
{"1": {"label": "*0", "atom_type": "Cd"}, "2": {"label": "*1", "atom_type": "N3d"}, "7": {"label": "*2", "atom_type": "H0"}, "8": {"label": "*3", "atom_type": "Cs"}, "13": {"label": "*4", "atom_type": "O2s"}}

>  <type>  (10) 
unop_6

>  <geom_source>  (10) 
Heuristics

$$$$

     RDKit          3D

 21 20  0  0  0  0  0  0  0  0999 V2000
    0.1509   -0.4166   -4.4617 C   0  0  0  0  0  0  0  0  0  0  0  0
    0.1509   -0.4166   -2.9693 C   0  0  0  0  0  0  0  0  0  0  0  0
    0.1509    0.6560   -2.3017 N   0  0  0  0  0  0  0  0  0  0  0  0
    1.0292   -0.9466   -4.8391 H   0  0  0  0  0  0  0  0  0  0  0  0
   -0.7273   -0.9466   -4.8391 H   0  0  0  0  0  0  0  0  0  0  0  0
    0.1509    0.6040   -4.8403 H   0  0  0  0  0  0  0  0  0  0  0  0
    0.1509   -1.4063   -2.4947 H   0  0  0  0  0  0  0  0  0  0  0  0
    0.1509    0.4258   -1.1021 H   0  0  0  0  0  0  0  0  0  0  0  0
    0.1509    0.1795    0.1815 C   0  0  0  0  0  3  0  0  0  0  0  0
   -1.2606    0.0723    0.7405 C   0  0  0  0  0  0  0  0  0  0  0  0
   -1.2486    0.5387    2.1893 C   0  0  0  0  0  0  0  0  0  0  0  0
   -0.2481   -0.1460    2.9184 O   0  0  0  0  0  0  0  0  0  0  0  0
    1.0067    0.0175    2.3308 C   0  0  0  0  0  0  0  0  0  0  0  0
    1.0681   -0.4837    1.0302 O   0  0  0  0  0  0  0  0  0  0  0  0
    0.4388    1.2377    0.0857 H   0  0  0  0  0  0  0  0  0  0  0  0
   -1.9522    0.6777    0.1502 H   0  0  0  0  0  0  0  0  0  0  0  0
   -1.5904   -0.9675    0.6966 H   0  0  0  0  0  0  0  0  0  0  0  0
   -1.0592    1.6221    2.2347 H   0  0  0  0  0  0  0  0  0  0  0  0
   -2.1946    0.3371    2.6900 H   0  0  0  0  0  0  0  0  0  0  0  0
    1.2719    1.0907    2.3237 H   0  0  0  0  0  0  0  0  0  0  0  0
    1.7197   -0.5459    2.9285 H   0  0  0  0  0  0  0  0  0  0  0  0
  1  2  1  0
  1  4  1  0
  1  5  1  0
  1  6  1  0
  2  3  2  3
  2  7  1  0
  3  8  1  0
  9 10  1  0
  9 14  1  0
  9 15  1  0
 10 11  1  0
 10 16  1  0
 10 17  1  0
 11 12  1  0
 11 18  1  0
 11 19  1  0
 12 13  1  0
 13 14  1  0
 13 20  1  0
 13 21  1  0
M  RAD  1   9   2
M  END
>  <reaction>  (11) 
rmg_rxn_16468

>  <mol_properties>  (11) 
{"1": {"label": "*0", "atom_type": "Cd"}, "2": {"label": "*1", "atom_type": "N3d"}, "7": {"label": "*2", "atom_type": "H0"}, "8": {"label": "*3", "atom_type": "Cs"}, "13": {"label": "*4", "atom_type": "O2s"}}

>  <type>  (11) 
unop_7

>  <geom_source>  (11) 
Heuristics

$$$$

     RDKit          3D

 21 20  0  0  0  0  0  0  0  0999 V2000
    0.0838   -0.4882   -4.4744 C   0  0  0  0  0  0  0  0  0  0  0  0
    0.0838   -0.4882   -2.9821 C   0  0  0  0  0  0  0  0  0  0  0  0
    0.0838    0.5844   -2.3144 N   0  0  0  0  0  0  0  0  0  0  0  0
    0.9621   -1.0182   -4.8518 H   0  0  0  0  0  0  0  0  0  0  0  0
   -0.7945   -1.0182   -4.8518 H   0  0  0  0  0  0  0  0  0  0  0  0
    0.0838    0.5324   -4.8530 H   0  0  0  0  0  0  0  0  0  0  0  0
    0.0838   -1.4779   -2.5074 H   0  0  0  0  0  0  0  0  0  0  0  0
    0.0838    0.3543   -1.1148 H   0  0  0  0  0  0  0  0  0  0  0  0
    0.0838    0.1080    0.1688 C   0  0  0  0  0  3  0  0  0  0  0  0
   -1.1387    0.6939    0.8608 C   0  0  0  0  0  0  0  0  0  0  0  0
   -0.7583    1.0735    2.2848 C   0  0  0  0  0  0  0  0  0  0  0  0
   -0.1506   -0.0227    2.9407 O   0  0  0  0  0  0  0  0  0  0  0  0
    0.9603   -0.4826    2.2329 C   0  0  0  0  0  0  0  0  0  0  0  0
    0.6414   -0.9307    0.9508 O   0  0  0  0  0  0  0  0  0  0  0  0
    0.8388    0.8931    0.0093 H   0  0  0  0  0  0  0  0  0  0  0  0
   -1.5030    1.5683    0.3168 H   0  0  0  0  0  0  0  0  0  0  0  0
   -1.9350   -0.0526    0.8845 H   0  0  0  0  0  0  0  0  0  0  0  0
   -0.0625    1.9266    2.2742 H   0  0  0  0  0  0  0  0  0  0  0  0
   -1.6282    1.3511    2.8785 H   0  0  0  0  0  0  0  0  0  0  0  0
    1.7117    0.3252    2.1634 H   0  0  0  0  0  0  0  0  0  0  0  0
    1.3644   -1.3309    2.7808 H   0  0  0  0  0  0  0  0  0  0  0  0
  1  2  1  0
  1  4  1  0
  1  5  1  0
  1  6  1  0
  2  3  2  3
  2  7  1  0
  3  8  1  0
  9 10  1  0
  9 14  1  0
  9 15  1  0
 10 11  1  0
 10 16  1  0
 10 17  1  0
 11 12  1  0
 11 18  1  0
 11 19  1  0
 12 13  1  0
 13 14  1  0
 13 20  1  0
 13 21  1  0
M  RAD  1   9   2
M  END
>  <reaction>  (12) 
rmg_rxn_16468

>  <mol_properties>  (12) 
{"1": {"label": "*0", "atom_type": "Cd"}, "2": {"label": "*1", "atom_type": "N3d"}, "7": {"label": "*2", "atom_type": "H0"}, "8": {"label": "*3", "atom_type": "Cs"}, "13": {"label": "*4", "atom_type": "O2s"}}

>  <type>  (12) 
unop_8

>  <geom_source>  (12) 
Heuristics

$$$$

     RDKit          3D

 21 20  0  0  0  0  0  0  0  0999 V2000
   -0.3705   -1.2180   -4.0611 C   0  0  0  0  0  0  0  0  0  0  0  0
   -0.3705   -1.2180   -2.5687 C   0  0  0  0  0  0  0  0  0  0  0  0
   -0.3705   -0.1454   -1.9011 N   0  0  0  0  0  0  0  0  0  0  0  0
    0.5078   -1.7480   -4.4385 H   0  0  0  0  0  0  0  0  0  0  0  0
   -1.2487   -1.7480   -4.4385 H   0  0  0  0  0  0  0  0  0  0  0  0
   -0.3705   -0.1974   -4.4397 H   0  0  0  0  0  0  0  0  0  0  0  0
   -0.3705   -2.2077   -2.0941 H   0  0  0  0  0  0  0  0  0  0  0  0
   -0.3705   -0.3756   -0.7015 H   0  0  0  0  0  0  0  0  0  0  0  0
   -0.3705   -0.6219    0.5821 C   0  0  0  0  0  3  0  0  0  0  0  0
    1.0411   -0.7291    1.1411 C   0  0  0  0  0  0  0  0  0  0  0  0
    1.1370    0.1314    2.3929 C   0  0  0  0  0  0  0  0  0  0  0  0
    0.6837    1.4442    2.1235 O   0  0  0  0  0  0  0  0  0  0  0  0
   -0.6180    1.4364    1.6215 C   0  0  0  0  0  0  0  0  0  0  0  0
   -0.7340    0.7358    0.4206 O   0  0  0  0  0  0  0  0  0  0  0  0
   -1.0831   -1.1143    1.2614 H   0  0  0  0  0  0  0  0  0  0  0  0
    1.2819   -1.7690    1.3732 H   0  0  0  0  0  0  0  0  0  0  0  0
    1.7544   -0.3689    0.3974 H   0  0  0  0  0  0  0  0  0  0  0  0
    0.5305   -0.3081    3.1996 H   0  0  0  0  0  0  0  0  0  0  0  0
    2.1627    0.2207    2.7482 H   0  0  0  0  0  0  0  0  0  0  0  0
   -1.2984    0.9939    2.3721 H   0  0  0  0  0  0  0  0  0  0  0  0
   -0.8936    2.4693    1.4213 H   0  0  0  0  0  0  0  0  0  0  0  0
  1  2  1  0
  1  4  1  0
  1  5  1  0
  1  6  1  0
  2  3  2  3
  2  7  1  0
  3  8  1  0
  9 10  1  0
  9 14  1  0
  9 15  1  0
 10 11  1  0
 10 16  1  0
 10 17  1  0
 11 12  1  0
 11 18  1  0
 11 19  1  0
 12 13  1  0
 13 14  1  0
 13 20  1  0
 13 21  1  0
M  RAD  1   9   2
M  END
>  <reaction>  (13) 
rmg_rxn_16468

>  <mol_properties>  (13) 
{"1": {"label": "*0", "atom_type": "Cd"}, "2": {"label": "*1", "atom_type": "N3d"}, "7": {"label": "*2", "atom_type": "H0"}, "8": {"label": "*3", "atom_type": "Cs"}, "13": {"label": "*4", "atom_type": "O2s"}}

>  <type>  (13) 
unop_9

>  <geom_source>  (13) 
Heuristics

$$$$

     RDKit          3D

 21 20  0  0  0  0  0  0  0  0999 V2000
    2.9788   -0.8013    0.1618 C   0  0  0  0  0  0  0  0  0  0  0  0
    2.6433    0.4790   -0.5425 C   0  0  0  0  0  0  0  0  0  0  0  0
    1.6132    1.1668   -0.4771 N   0  0  0  0  0  0  0  0  0  0  0  0
    2.1352   -1.1670    0.7416 H   0  0  0  0  0  0  0  0  0  0  0  0
    3.2707   -1.5531   -0.5700 H   0  0  0  0  0  0  0  0  0  0  0  0
    3.8277   -0.6315    0.8231 H   0  0  0  0  0  0  0  0  0  0  0  0
    3.4396    0.8404   -1.2037 H   0  0  0  0  0  0  0  0  0  0  0  0
    0.7395    0.7473    0.2976 H   0  0  0  0  0  0  0  0  0  0  0  0
   -0.2157    0.3003    1.0866 C   0  0  0  0  0  3  0  0  0  0  0  0
   -1.4224    1.1719    0.7974 C   0  0  0  0  0  0  0  0  0  0  0  0
   -1.9303    0.8315   -0.6042 C   0  0  0  0  0  0  0  0  0  0  0  0
   -2.1276   -0.5689   -0.7226 O   0  0  0  0  0  0  0  0  0  0  0  0
   -0.9469   -1.2592   -0.4876 C   0  0  0  0  0  0  0  0  0  0  0  0
   -0.4148   -1.0541    0.7926 O   0  0  0  0  0  0  0  0  0  0  0  0
    0.1562    0.3649    2.1077 H   0  0  0  0  0  0  0  0  0  0  0  0
   -2.2136    0.9603    1.5250 H   0  0  0  0  0  0  0  0  0  0  0  0
   -1.1506    2.2243    0.8620 H   0  0  0  0  0  0  0  0  0  0  0  0
   -2.8994    1.2883   -0.8078 H   0  0  0  0  0  0  0  0  0  0  0  0
   -1.1987    1.1667   -1.3539 H   0  0  0  0  0  0  0  0  0  0  0  0
   -1.1732   -2.3253   -0.5642 H   0  0  0  0  0  0  0  0  0  0  0  0
   -0.1838   -0.9741   -1.2425 H   0  0  0  0  0  0  0  0  0  0  0  0
  1  2  1  0
  1  4  1  0
  1  5  1  0
  1  6  1  0
  2  3  2  3
  2  7  1  0
  3  8  1  0
  9 10  1  0
  9 14  1  0
  9 15  1  0
 10 11  1  0
 10 16  1  0
 10 17  1  0
 11 12  1  0
 11 18  1  0
 11 19  1  0
 12 13  1  0
 13 14  1  0
 13 20  1  0
 13 21  1  0
M  RAD  1   9   2
M  END
>  <reaction>  (14) 
rmg_rxn_16468

>  <mol_properties>  (14) 
{"1": {"label": "*0", "atom_type": "Cd"}, "2": {"label": "*1", "atom_type": "N3d"}, "7": {"label": "*2", "atom_type": "H0"}, "8": {"label": "*3", "atom_type": "Cs"}, "13": {"label": "*4", "atom_type": "O2s"}}

>  <type>  (14) 
unop_10

>  <geom_source>  (14) 
Heuristics

$$$$

     RDKit          3D

 21 20  0  0  0  0  0  0  0  0999 V2000
   -0.1138   -0.0910   -4.3742 C   0  0  0  0  0  0  0  0  0  0  0  0
   -0.1138   -0.0910   -2.8819 C   0  0  0  0  0  0  0  0  0  0  0  0
   -0.1138    0.9816   -2.2142 N   0  0  0  0  0  0  0  0  0  0  0  0
    0.7645   -0.6210   -4.7516 H   0  0  0  0  0  0  0  0  0  0  0  0
   -0.9921   -0.6210   -4.7516 H   0  0  0  0  0  0  0  0  0  0  0  0
   -0.1138    0.9296   -4.7528 H   0  0  0  0  0  0  0  0  0  0  0  0
   -0.1138   -1.0807   -2.4072 H   0  0  0  0  0  0  0  0  0  0  0  0
   -0.1138    0.7514   -1.0146 H   0  0  0  0  0  0  0  0  0  0  0  0
   -0.1138    0.5052    0.2690 C   0  0  0  0  0  3  0  0  0  0  0  0
   -0.8196   -0.8027    0.5976 C   0  0  0  0  0  0  0  0  0  0  0  0
   -0.9745   -0.9075    2.1081 C   0  0  0  0  0  0  0  0  0  0  0  0
    0.2726   -0.7082    2.7457 O   0  0  0  0  0  0  0  0  0  0  0  0
    0.8344    0.5169    2.3852 C   0  0  0  0  0  0  0  0  0  0  0  0
    1.0820    0.6203    1.0161 O   0  0  0  0  0  0  0  0  0  0  0  0
   -0.7729    1.3567    0.4976 H   0  0  0  0  0  0  0  0  0  0  0  0
   -1.7962   -0.8426    0.1099 H   0  0  0  0  0  0  0  0  0  0  0  0
   -0.2199   -1.6399    0.2352 H   0  0  0  0  0  0  0  0  0  0  0  0
   -1.6941   -0.1553    2.4662 H   0  0  0  0  0  0  0  0  0  0  0  0
   -1.3293   -1.8908    2.4140 H   0  0  0  0  0  0  0  0  0  0  0  0
    0.1621    1.3361    2.6998 H   0  0  0  0  0  0  0  0  0  0  0  0
    1.7926    0.5955    2.8940 H   0  0  0  0  0  0  0  0  0  0  0  0
  1  2  1  0
  1  4  1  0
  1  5  1  0
  1  6  1  0
  2  3  2  3
  2  7  1  0
  3  8  1  0
  9 10  1  0
  9 14  1  0
  9 15  1  0
 10 11  1  0
 10 16  1  0
 10 17  1  0
 11 12  1  0
 11 18  1  0
 11 19  1  0
 12 13  1  0
 13 14  1  0
 13 20  1  0
 13 21  1  0
M  RAD  1   9   2
M  END
>  <reaction>  (15) 
rmg_rxn_16468

>  <mol_properties>  (15) 
{"1": {"label": "*0", "atom_type": "Cd"}, "2": {"label": "*1", "atom_type": "N3d"}, "7": {"label": "*2", "atom_type": "H0"}, "8": {"label": "*3", "atom_type": "Cs"}, "13": {"label": "*4", "atom_type": "O2s"}}

>  <type>  (15) 
unop_11

>  <geom_source>  (15) 
Heuristics

$$$$

     RDKit          3D

 21 20  0  0  0  0  0  0  0  0999 V2000
   -0.6650   -0.8984   -4.0993 C   0  0  0  0  0  0  0  0  0  0  0  0
   -0.6650   -0.8984   -2.6070 C   0  0  0  0  0  0  0  0  0  0  0  0
   -0.6650    0.1742   -1.9393 N   0  0  0  0  0  0  0  0  0  0  0  0
    0.2133   -1.4284   -4.4767 H   0  0  0  0  0  0  0  0  0  0  0  0
   -1.5433   -1.4284   -4.4767 H   0  0  0  0  0  0  0  0  0  0  0  0
   -0.6650    0.1222   -4.4779 H   0  0  0  0  0  0  0  0  0  0  0  0
   -0.6650   -1.8881   -2.1323 H   0  0  0  0  0  0  0  0  0  0  0  0
   -0.6650   -0.0559   -0.7397 H   0  0  0  0  0  0  0  0  0  0  0  0
   -0.6650   -0.3022    0.5439 C   0  0  0  0  0  3  0  0  0  0  0  0
    0.5575   -1.1026    0.9699 C   0  0  0  0  0  0  0  0  0  0  0  0
    1.0672   -0.5483    2.2926 C   0  0  0  0  0  0  0  0  0  0  0  0
    1.2537    0.8511    2.2005 O   0  0  0  0  0  0  0  0  0  0  0  0
    0.0782    1.4930    1.8099 C   0  0  0  0  0  0  0  0  0  0  0  0
   -0.3753    1.0825    0.5560 O   0  0  0  0  0  0  0  0  0  0  0  0
   -1.5055   -0.5073    1.2245 H   0  0  0  0  0  0  0  0  0  0  0  0
    0.3049   -2.1605    1.0712 H   0  0  0  0  0  0  0  0  0  0  0  0
    1.3368   -1.0063    0.2115 H   0  0  0  0  0  0  0  0  0  0  0  0
    0.3485   -0.7707    3.0963 H   0  0  0  0  0  0  0  0  0  0  0  0
    2.0301   -0.9754    2.5692 H   0  0  0  0  0  0  0  0  0  0  0  0
   -0.7091    1.3084    2.5637 H   0  0  0  0  0  0  0  0  0  0  0  0
    0.2974    2.5562    1.7424 H   0  0  0  0  0  0  0  0  0  0  0  0
  1  2  1  0
  1  4  1  0
  1  5  1  0
  1  6  1  0
  2  3  2  3
  2  7  1  0
  3  8  1  0
  9 10  1  0
  9 14  1  0
  9 15  1  0
 10 11  1  0
 10 16  1  0
 10 17  1  0
 11 12  1  0
 11 18  1  0
 11 19  1  0
 12 13  1  0
 13 14  1  0
 13 20  1  0
 13 21  1  0
M  RAD  1   9   2
M  END
>  <reaction>  (16) 
rmg_rxn_16468

>  <mol_properties>  (16) 
{"1": {"label": "*0", "atom_type": "Cd"}, "2": {"label": "*1", "atom_type": "N3d"}, "7": {"label": "*2", "atom_type": "H0"}, "8": {"label": "*3", "atom_type": "Cs"}, "13": {"label": "*4", "atom_type": "O2s"}}

>  <type>  (16) 
unop_12

>  <geom_source>  (16) 
Heuristics

$$$$

     RDKit          3D

 21 20  0  0  0  0  0  0  0  0999 V2000
    0.1290   -0.4301   -4.4662 C   0  0  0  0  0  0  0  0  0  0  0  0
    0.1290   -0.4301   -2.9738 C   0  0  0  0  0  0  0  0  0  0  0  0
    0.1290    0.6425   -2.3061 N   0  0  0  0  0  0  0  0  0  0  0  0
    1.0073   -0.9601   -4.8436 H   0  0  0  0  0  0  0  0  0  0  0  0
   -0.7492   -0.9601   -4.8436 H   0  0  0  0  0  0  0  0  0  0  0  0
    0.1290    0.5905   -4.8447 H   0  0  0  0  0  0  0  0  0  0  0  0
    0.1290   -1.4198   -2.4992 H   0  0  0  0  0  0  0  0  0  0  0  0
    0.1290    0.4123   -1.1065 H   0  0  0  0  0  0  0  0  0  0  0  0
    0.1290    0.1661    0.1770 C   0  0  0  0  0  3  0  0  0  0  0  0
   -0.5768    1.2594    0.9664 C   0  0  0  0  0  0  0  0  0  0  0  0
   -0.1167    1.1895    2.4156 C   0  0  0  0  0  0  0  0  0  0  0  0
   -0.2702   -0.1241    2.9179 O   0  0  0  0  0  0  0  0  0  0  0  0
    0.4160   -1.0495    2.1310 C   0  0  0  0  0  0  0  0  0  0  0  0
   -0.0391   -1.0866    0.8127 O   0  0  0  0  0  0  0  0  0  0  0  0
    1.2027    0.3945    0.0943 H   0  0  0  0  0  0  0  0  0  0  0  0
   -0.3543    2.2410    0.5420 H   0  0  0  0  0  0  0  0  0  0  0  0
   -1.6560    1.1014    0.9202 H   0  0  0  0  0  0  0  0  0  0  0  0
    0.9397    1.4900    2.4903 H   0  0  0  0  0  0  0  0  0  0  0  0
   -0.7028    1.8424    3.0609 H   0  0  0  0  0  0  0  0  0  0  0  0
    1.4954   -0.8107    2.1403 H   0  0  0  0  0  0  0  0  0  0  0  0
    0.2409   -2.0329    2.5614 H   0  0  0  0  0  0  0  0  0  0  0  0
  1  2  1  0
  1  4  1  0
  1  5  1  0
  1  6  1  0
  2  3  2  3
  2  7  1  0
  3  8  1  0
  9 10  1  0
  9 14  1  0
  9 15  1  0
 10 11  1  0
 10 16  1  0
 10 17  1  0
 11 12  1  0
 11 18  1  0
 11 19  1  0
 12 13  1  0
 13 14  1  0
 13 20  1  0
 13 21  1  0
M  RAD  1   9   2
M  END
>  <reaction>  (17) 
rmg_rxn_16468

>  <mol_properties>  (17) 
{"1": {"label": "*0", "atom_type": "Cd"}, "2": {"label": "*1", "atom_type": "N3d"}, "7": {"label": "*2", "atom_type": "H0"}, "8": {"label": "*3", "atom_type": "Cs"}, "13": {"label": "*4", "atom_type": "O2s"}}

>  <type>  (17) 
unop_13

>  <geom_source>  (17) 
Heuristics

$$$$

     RDKit          3D

 21 20  0  0  0  0  0  0  0  0999 V2000
   -0.4612   -0.1590   -4.2846 C   0  0  0  0  0  0  0  0  0  0  0  0
   -0.4612   -0.1590   -2.7922 C   0  0  0  0  0  0  0  0  0  0  0  0
   -0.4612    0.9136   -2.1245 N   0  0  0  0  0  0  0  0  0  0  0  0
    0.4170   -0.6890   -4.6620 H   0  0  0  0  0  0  0  0  0  0  0  0
   -1.3395   -0.6890   -4.6620 H   0  0  0  0  0  0  0  0  0  0  0  0
   -0.4612    0.8616   -4.6631 H   0  0  0  0  0  0  0  0  0  0  0  0
   -0.4612   -1.1487   -2.3176 H   0  0  0  0  0  0  0  0  0  0  0  0
   -0.4612    0.6834   -0.9249 H   0  0  0  0  0  0  0  0  0  0  0  0
   -0.4612    0.4371    0.3586 C   0  0  0  0  0  3  0  0  0  0  0  0
   -0.4612   -1.0564    0.6517 C   0  0  0  0  0  0  0  0  0  0  0  0
   -0.2344   -1.2613    2.1427 C   0  0  0  0  0  0  0  0  0  0  0  0
    0.9152   -0.5544    2.5672 O   0  0  0  0  0  0  0  0  0  0  0  0
    0.8166    0.8026    2.2590 C   0  0  0  0  0  0  0  0  0  0  0  0
    0.7019    1.0428    0.8895 O   0  0  0  0  0  0  0  0  0  0  0  0
   -1.3537    0.9075    0.7992 H   0  0  0  0  0  0  0  0  0  0  0  0
   -1.4081   -1.5059    0.3442 H   0  0  0  0  0  0  0  0  0  0  0  0
    0.3445   -1.5360    0.0926 H   0  0  0  0  0  0  0  0  0  0  0  0
   -1.1109   -0.9104    2.7088 H   0  0  0  0  0  0  0  0  0  0  0  0
   -0.0670   -2.3089    2.3891 H   0  0  0  0  0  0  0  0  0  0  0  0
   -0.0557    1.2357    2.7822 H   0  0  0  0  0  0  0  0  0  0  0  0
    1.7354    1.2782    2.5949 H   0  0  0  0  0  0  0  0  0  0  0  0
  1  2  1  0
  1  4  1  0
  1  5  1  0
  1  6  1  0
  2  3  2  3
  2  7  1  0
  3  8  1  0
  9 10  1  0
  9 14  1  0
  9 15  1  0
 10 11  1  0
 10 16  1  0
 10 17  1  0
 11 12  1  0
 11 18  1  0
 11 19  1  0
 12 13  1  0
 13 14  1  0
 13 20  1  0
 13 21  1  0
M  RAD  1   9   2
M  END
>  <reaction>  (18) 
rmg_rxn_16468

>  <mol_properties>  (18) 
{"1": {"label": "*0", "atom_type": "Cd"}, "2": {"label": "*1", "atom_type": "N3d"}, "7": {"label": "*2", "atom_type": "H0"}, "8": {"label": "*3", "atom_type": "Cs"}, "13": {"label": "*4", "atom_type": "O2s"}}

>  <type>  (18) 
unop_14

>  <geom_source>  (18) 
Heuristics

$$$$

     RDKit          3D

 21 20  0  0  0  0  0  0  0  0999 V2000
   -0.6992   -0.4808   -4.1794 C   0  0  0  0  0  0  0  0  0  0  0  0
   -0.6992   -0.4808   -2.6870 C   0  0  0  0  0  0  0  0  0  0  0  0
   -0.6992    0.5918   -2.0194 N   0  0  0  0  0  0  0  0  0  0  0  0
    0.1790   -1.0108   -4.5568 H   0  0  0  0  0  0  0  0  0  0  0  0
   -1.5775   -1.0108   -4.5568 H   0  0  0  0  0  0  0  0  0  0  0  0
   -0.6992    0.5398   -4.5579 H   0  0  0  0  0  0  0  0  0  0  0  0
   -0.6992   -1.4705   -2.2124 H   0  0  0  0  0  0  0  0  0  0  0  0
   -0.6992    0.3616   -0.8197 H   0  0  0  0  0  0  0  0  0  0  0  0
   -0.6992    0.1154    0.4638 C   0  0  0  0  0  3  0  0  0  0  0  0
    0.0066   -1.1925    0.7925 C   0  0  0  0  0  0  0  0  0  0  0  0
    0.5613   -1.1056    2.2071 C   0  0  0  0  0  0  0  0  0  0  0  0
    1.3407    0.0653    2.3591 O   0  0  0  0  0  0  0  0  0  0  0  0
    0.6050    1.2070    2.0402 C   0  0  0  0  0  0  0  0  0  0  0  0
    0.1552    1.2135    0.7196 O   0  0  0  0  0  0  0  0  0  0  0  0
   -1.6133    0.2127    1.0694 H   0  0  0  0  0  0  0  0  0  0  0  0
   -0.6860   -2.0327    0.7048 H   0  0  0  0  0  0  0  0  0  0  0  0
    0.8272   -1.3487    0.0897 H   0  0  0  0  0  0  0  0  0  0  0  0
   -0.2641   -1.0942    2.9354 H   0  0  0  0  0  0  0  0  0  0  0  0
    1.2111   -1.9474    2.4423 H   0  0  0  0  0  0  0  0  0  0  0  0
   -0.2603    1.2890    2.7234 H   0  0  0  0  0  0  0  0  0  0  0  0
    1.2664    2.0621    2.1609 H   0  0  0  0  0  0  0  0  0  0  0  0
  1  2  1  0
  1  4  1  0
  1  5  1  0
  1  6  1  0
  2  3  2  3
  2  7  1  0
  3  8  1  0
  9 10  1  0
  9 14  1  0
  9 15  1  0
 10 11  1  0
 10 16  1  0
 10 17  1  0
 11 12  1  0
 11 18  1  0
 11 19  1  0
 12 13  1  0
 13 14  1  0
 13 20  1  0
 13 21  1  0
M  RAD  1   9   2
M  END
>  <reaction>  (19) 
rmg_rxn_16468

>  <mol_properties>  (19) 
{"1": {"label": "*0", "atom_type": "Cd"}, "2": {"label": "*1", "atom_type": "N3d"}, "7": {"label": "*2", "atom_type": "H0"}, "8": {"label": "*3", "atom_type": "Cs"}, "13": {"label": "*4", "atom_type": "O2s"}}

>  <type>  (19) 
unop_15

>  <geom_source>  (19) 
gaussian_log

$$$$
