
     RDKit          3D

  9  9  0  0  0  0  0  0  0  0999 V2000
    1.1178    0.0251    0.0062 C   0  0  0  0  0  0  0  0  0  0  0  0
   -0.3279   -0.3139    0.1785 C   0  0  0  0  0  0  0  0  0  0  0  0
   -0.7053   -1.0901    1.3173 N   0  0  0  0  0  0  0  0  0  0  0  0
   -1.0350    0.3361    1.1839 O   0  0  0  0  0  0  0  0  0  0  0  0
    1.6209   -0.7545   -0.5686 H   0  0  0  0  0  0  0  0  0  0  0  0
    1.5927    0.1144    0.9820 H   0  0  0  0  0  0  0  0  0  0  0  0
    1.2207    0.9683   -0.5327 H   0  0  0  0  0  0  0  0  0  0  0  0
   -0.8945   -0.4615   -0.7417 H   0  0  0  0  0  0  0  0  0  0  0  0
   -1.5832   -1.5647    1.1026 H   0  0  0  0  0  0  0  0  0  0  0  0
  1  2  1  0
  1  5  1  0
  1  6  1  0
  1  7  1  0
  2  3  1  0
  2  4  1  0
  2  8  1  0
  3  4  1  0
  3  9  1  0
M  END
>  <reaction>  (1) 
rmg_rxn_15701

>  <mol_properties>  (1) 
{"2": {"label": "donator", "atom_type": "N3s"}, "8": {"label": "d_hydrogen", "atom_type": "H0"}}

>  <type>  (1) 
r1h

$$$$

     RDKit          3D

  8  7  0  0  0  0  0  0  0  0999 V2000
    1.7077   -0.1964   -0.0607 C   0  0  0  0  0  3  0  0  0  0  0  0
    0.4209   -0.4565    0.2808 O   0  0  0  0  0  0  0  0  0  0  0  0
   -0.4607    0.4385   -0.2968 N   0  0  0  0  0  0  0  0  0  0  0  0
   -1.6584    0.1416   -0.0244 C   0  0  0  0  0  0  0  0  0  0  0  0
    2.4163   -0.7685    0.5170 H   0  0  0  0  0  0  0  0  0  0  0  0
    1.9214    0.7645   -0.5045 H   0  0  0  0  0  0  0  0  0  0  0  0
   -2.4185    0.7953   -0.4307 H   0  0  0  0  0  0  0  0  0  0  0  0
   -1.9286   -0.7185    0.5831 H   0  0  0  0  0  0  0  0  0  0  0  0
  1  2  1  0
  1  5  1  0
  1  6  1  0
  2  3  1  0
  3  4  2  3
  4  7  1  0
  4  8  1  0
M  RAD  1   1   2
M  END
>  <reaction>  (2) 
rmg_rxn_15701

>  <mol_properties>  (2) 
{"0": {"label": "acceptor", "atom_type": "Cs"}}

>  <type>  (2) 
r2

$$$$

     RDKit          3D

  9  8  0  0  0  0  0  0  0  0999 V2000
   -1.5470   -0.0755   -0.1976 C   0  0  0  0  0  0  0  0  0  0  0  0
   -0.2885    0.4507    0.1749 O   0  0  0  0  0  0  0  0  0  0  0  0
   -0.1502    1.7216   -0.3294 N   0  0  0  0  0  0  0  0  0  0  0  0
    0.9626    2.2353   -0.0219 C   0  0  0  0  0  0  0  0  0  0  0  0
   -1.6392   -0.1356   -1.2844 H   0  0  0  0  0  0  0  0  0  0  0  0
   -2.3597    0.5337    0.2044 H   0  0  0  0  0  0  0  0  0  0  0  0
   -1.5879   -1.0750    0.2318 H   0  0  0  0  0  0  0  0  0  0  0  0
    1.1497    3.2381   -0.3820 H   0  0  0  0  0  0  0  0  0  0  0  0
    1.7060    1.7101    0.5739 H   0  0  0  0  0  0  0  0  0  0  0  0
  1  2  1  0
  1  5  1  0
  1  6  1  0
  1  7  1  0
  2  3  1  0
  3  4  2  3
  4  8  1  0
  4  9  1  0
M  END
>  <reaction>  (3) 
rmg_rxn_15701

>  <mol_properties>  (3) 
{"0": {"label": "acceptor", "atom_type": "Cs"}, "8": {"label": "a_hydrogen", "atom_type": "H0"}}

>  <type>  (3) 
r2h

$$$$

     RDKit          3D

 17 16  0  0  0  0  0  0  0  0999 V2000
    0.6829    1.2809    1.1211 C   0  0  0  0  0  3  0  0  0  0  0  0
    1.2364    0.0342    1.3065 O   0  0  0  0  0  0  0  0  0  0  0  0
    0.5072   -0.7055    2.2244 N   0  0  0  0  0  0  0  0  0  0  0  0
    0.8915   -1.9071    2.2547 C   0  0  0  0  0  0  0  0  0  0  0  0
    0.1399    1.6507    1.9882 H   0  0  0  0  0  0  0  0  0  0  0  0
    1.4338    1.9496    0.7081 H   0  0  0  0  0  0  0  0  0  0  0  0
    0.3877   -2.5543    2.9600 H   0  0  0  0  0  0  0  0  0  0  0  0
    1.6809   -2.2899    1.6126 H   0  0  0  0  0  0  0  0  0  0  0  0
   -0.6271   -0.0436   -3.1019 C   0  0  0  0  0  0  0  0  0  0  0  0
   -0.2828    0.0346   -1.6484 C   0  0  1  0  0  0  0  0  0  0  0  0
   -1.0471    0.8882   -0.8007 N   0  0  0  0  0  0  0  0  0  0  0  0
   -1.1617   -0.5441   -0.7299 O   0  0  0  0  0  0  0  0  0  0  0  0
   -0.0702    0.7128   -3.6581 H   0  0  0  0  0  0  0  0  0  0  0  0
   -1.6940    0.1239   -3.2415 H   0  0  0  0  0  0  0  0  0  0  0  0
   -0.3617   -1.0242   -3.5012 H   0  0  0  0  0  0  0  0  0  0  0  0
    0.7693   -0.0993   -1.3927 H   0  0  0  0  0  0  0  0  0  0  0  0
   -0.3138    1.1733    0.1227 H   0  0  0  0  0  0  0  0  0  0  0  0
  1  2  1  0
  1  5  1  0
  1  6  1  0
  2  3  1  0
  3  4  2  3
  4  7  1  0
  4  8  1  0
  9 10  1  0
  9 13  1  0
  9 14  1  0
  9 15  1  0
 10 11  1  0
 10 12  1  0
 10 16  1  6
 11 12  1  0
 11 17  1  0
M  RAD  1   1   2
M  END
>  <reaction>  (4) 
rmg_rxn_15701

>  <mol_properties>  (4) 
{"0": {"label": "*3", "atom_type": "Cs"}, "1": {"label": "*4", "atom_type": "O2s"}, "10": {"label": "*1", "atom_type": "N3s"}, "11": {"label": "*0", "atom_type": "O2s"}, "16": {"label": "*2", "atom_type": "H0"}}

>  <type>  (4) 
ts

$$$$

     RDKit          3D

 17 16  0  0  0  0  0  0  0  0999 V2000
    1.2259   -1.3694    0.1783 C   0  0  0  0  0  3  0  0  0  0  0  0
    1.7949   -0.5022   -0.7465 O   0  0  0  0  0  0  0  0  0  0  0  0
    2.2507    0.7141   -0.3775 N   0  0  0  0  0  0  0  0  0  0  0  0
    2.0474    1.1928    0.7710 C   0  0  0  0  0  0  0  0  0  0  0  0
    1.0606   -2.3114   -0.3336 H   0  0  0  0  0  0  0  0  0  0  0  0
    1.8002   -1.4780    1.0987 H   0  0  0  0  0  0  0  0  0  0  0  0
    2.4651    2.1686    0.9474 H   0  0  0  0  0  0  0  0  0  0  0  0
    1.4845    0.7270    1.5757 H   0  0  0  0  0  0  0  0  0  0  0  0
   -2.5153    1.3800   -0.2711 C   0  0  0  0  0  0  0  0  0  0  0  0
   -1.6071    0.1880   -0.3906 C   0  0  0  0  0  0  0  0  0  0  0  0
   -1.0581   -0.3806    0.7739 N   0  0  0  0  0  0  0  0  0  0  0  0
   -2.0549   -1.0454    0.0700 O   0  0  0  0  0  0  0  0  0  0  0  0
   -3.0526    1.3399    0.6731 H   0  0  0  0  0  0  0  0  0  0  0  0
   -3.2288    1.3834   -1.0915 H   0  0  0  0  0  0  0  0  0  0  0  0
   -1.9211    2.2894   -0.3113 H   0  0  0  0  0  0  0  0  0  0  0  0
   -1.0077    0.1465   -1.3026 H   0  0  0  0  0  0  0  0  0  0  0  0
    0.0719   -0.9155    0.5459 H   0  0  0  0  0  0  0  0  0  0  0  0
  1  2  1  0
  1  5  1  0
  1  6  1  0
  2  3  1  0
  3  4  2  3
  4  7  1  0
  4  8  1  0
  9 10  1  0
  9 13  1  0
  9 14  1  0
  9 15  1  0
 10 11  1  0
 10 12  1  0
 10 16  1  0
 11 12  1  0
 11 17  1  0
M  RAD  1   1   2
M  END
>  <reaction>  (5) 
rmg_rxn_15701

>  <mol_properties>  (5) 
{"0": {"label": "*3", "atom_type": "Cs"}, "1": {"label": "*4", "atom_type": "O2s"}, "10": {"label": "*1", "atom_type": "N3s"}, "11": {"label": "*0", "atom_type": "O2s"}, "16": {"label": "*2", "atom_type": "H0"}}

>  <type>  (5) 
unop_1

>  <geom_source>  (5) 
crest_best.xyz

$$$$

     RDKit          3D

 17 16  0  0  0  0  0  0  0  0999 V2000
    0.0704   -0.2784    1.1725 C   0  0  0  0  0  3  0  0  0  0  0  0
    1.2092    0.5576    1.2330 O   0  0  0  0  0  0  0  0  0  0  0  0
    1.3123    1.1097    2.4873 N   0  0  0  0  0  0  0  0  0  0  0  0
    2.3184    1.8674    2.5907 C   0  0  0  0  0  0  0  0  0  0  0  0
    0.1476   -1.0965    1.8923 H   0  0  0  0  0  0  0  0  0  0  0  0
   -0.8425    0.2904    1.3632 H   0  0  0  0  0  0  0  0  0  0  0  0
    2.4709    2.3424    3.5505 H   0  0  0  0  0  0  0  0  0  0  0  0
    3.0062    2.0440    1.7665 H   0  0  0  0  0  0  0  0  0  0  0  0
   -0.9062   -1.2028   -3.3055 C   0  0  0  0  0  0  0  0  0  0  0  0
   -0.9062   -1.2028   -1.8107 C   0  0  0  0  0  0  0  0  0  0  0  0
   -0.9062    0.0582   -1.1384 N   0  0  0  0  0  0  0  0  0  0  0  0
   -2.0766   -0.8309   -1.1583 O   0  0  0  0  0  0  0  0  0  0  0  0
    0.1184   -1.1921   -3.6815 H   0  0  0  0  0  0  0  0  0  0  0  0
   -1.4324   -0.3229   -3.6726 H   0  0  0  0  0  0  0  0  0  0  0  0
   -1.3995   -2.1008   -3.6809 H   0  0  0  0  0  0  0  0  0  0  0  0
   -0.3728   -2.0268   -1.3352 H   0  0  0  0  0  0  0  0  0  0  0  0
   -0.4336   -0.1047   -0.0201 H   0  0  0  0  0  0  0  0  0  0  0  0
  1  2  1  0
  1  5  1  0
  1  6  1  0
  2  3  1  0
  3  4  2  3
  4  7  1  0
  4  8  1  0
  9 10  1  0
  9 13  1  0
  9 14  1  0
  9 15  1  0
 10 11  1  0
 10 12  1  0
 10 16  1  0
 11 12  1  0
 11 17  1  0
M  RAD  1   1   2
M  END
>  <reaction>  (6) 
rmg_rxn_15701

>  <mol_properties>  (6) 
{"0": {"label": "*3", "atom_type": "Cs"}, "1": {"label": "*4", "atom_type": "O2s"}, "10": {"label": "*1", "atom_type": "N3s"}, "11": {"label": "*0", "atom_type": "O2s"}, "16": {"label": "*2", "atom_type": "H0"}}

>  <type>  (6) 
unop_2

>  <geom_source>  (6) 
Heuristics

$$$$

     RDKit          3D

 17 16  0  0  0  0  0  0  0  0999 V2000
    1.2234   -1.3695    0.1720 C   0  0  0  0  0  3  0  0  0  0  0  0
    1.7940   -0.4999   -0.7497 O   0  0  0  0  0  0  0  0  0  0  0  0
    2.2546    0.7130   -0.3756 N   0  0  0  0  0  0  0  0  0  0  0  0
    2.0547    1.1870    0.7754 C   0  0  0  0  0  0  0  0  0  0  0  0
    1.0544   -2.3087   -0.3439 H   0  0  0  0  0  0  0  0  0  0  0  0
    1.7987   -1.4841    1.0911 H   0  0  0  0  0  0  0  0  0  0  0  0
    2.4758    2.1607    0.9556 H   0  0  0  0  0  0  0  0  0  0  0  0
    1.4909    0.7197    1.5785 H   0  0  0  0  0  0  0  0  0  0  0  0
   -2.5167    1.3803   -0.2752 C   0  0  0  0  0  0  0  0  0  0  0  0
   -1.6109    0.1862   -0.3916 C   0  0  0  0  0  0  0  0  0  0  0  0
   -1.0569   -0.3760    0.7737 N   0  0  0  0  0  0  0  0  0  0  0  0
   -2.0580   -1.0438    0.0788 O   0  0  0  0  0  0  0  0  0  0  0  0
   -1.9211    2.2885   -0.3223 H   0  0  0  0  0  0  0  0  0  0  0  0
   -3.0508    1.3461    0.6711 H   0  0  0  0  0  0  0  0  0  0  0  0
   -3.2331    1.3806   -1.0930 H   0  0  0  0  0  0  0  0  0  0  0  0
   -1.0161    0.1381   -1.3062 H   0  0  0  0  0  0  0  0  0  0  0  0
    0.0714   -0.9132    0.5431 H   0  0  0  0  0  0  0  0  0  0  0  0
  1  2  1  0
  1  5  1  0
  1  6  1  0
  2  3  1  0
  3  4  2  3
  4  7  1  0
  4  8  1  0
  9 10  1  0
  9 13  1  0
  9 14  1  0
  9 15  1  0
 10 11  1  0
 10 12  1  0
 10 16  1  0
 11 12  1  0
 11 17  1  0
M  RAD  1   1   2
M  END
>  <reaction>  (7) 
rmg_rxn_15701

>  <mol_properties>  (7) 
{"0": {"label": "*3", "atom_type": "Cs"}, "1": {"label": "*4", "atom_type": "O2s"}, "10": {"label": "*1", "atom_type": "N3s"}, "11": {"label": "*0", "atom_type": "O2s"}, "16": {"label": "*2", "atom_type": "H0"}}

>  <type>  (7) 
unop_3

>  <geom_source>  (7) 
Heuristics

$$$$

     RDKit          3D

 17 16  0  0  0  0  0  0  0  0999 V2000
   -0.0162    0.7728    1.3086 C   0  0  0  0  0  3  0  0  0  0  0  0
    0.9030   -0.2945    1.1845 O   0  0  0  0  0  0  0  0  0  0  0  0
    1.7705   -0.2849    2.2505 N   0  0  0  0  0  0  0  0  0  0  0  0
    2.6139   -1.2235    2.1840 C   0  0  0  0  0  0  0  0  0  0  0  0
   -0.6078    0.6749    2.2216 H   0  0  0  0  0  0  0  0  0  0  0  0
    0.5005    1.7352    1.3100 H   0  0  0  0  0  0  0  0  0  0  0  0
    3.3347   -1.2855    2.9883 H   0  0  0  0  0  0  0  0  0  0  0  0
    2.6287   -1.9414    1.3668 H   0  0  0  0  0  0  0  0  0  0  0  0
   -0.9928   -0.1515   -3.1695 C   0  0  0  0  0  0  0  0  0  0  0  0
   -0.9928   -0.1515   -1.6746 C   0  0  0  0  0  0  0  0  0  0  0  0
   -0.9928    1.1095   -1.0024 N   0  0  0  0  0  0  0  0  0  0  0  0
   -2.1631    0.2203   -1.0222 O   0  0  0  0  0  0  0  0  0  0  0  0
    0.0318   -0.1408   -3.5455 H   0  0  0  0  0  0  0  0  0  0  0  0
   -1.5189    0.7284   -3.5366 H   0  0  0  0  0  0  0  0  0  0  0  0
   -1.4860   -1.0495   -3.5449 H   0  0  0  0  0  0  0  0  0  0  0  0
   -0.4594   -0.9755   -1.1991 H   0  0  0  0  0  0  0  0  0  0  0  0
   -0.5202    0.9466    0.1159 H   0  0  0  0  0  0  0  0  0  0  0  0
  1  2  1  0
  1  5  1  0
  1  6  1  0
  2  3  1  0
  3  4  2  3
  4  7  1  0
  4  8  1  0
  9 10  1  0
  9 13  1  0
  9 14  1  0
  9 15  1  0
 10 11  1  0
 10 12  1  0
 10 16  1  0
 11 12  1  0
 11 17  1  0
M  RAD  1   1   2
M  END
>  <reaction>  (8) 
rmg_rxn_15701

>  <mol_properties>  (8) 
{"0": {"label": "*3", "atom_type": "Cs"}, "1": {"label": "*4", "atom_type": "O2s"}, "10": {"label": "*1", "atom_type": "N3s"}, "11": {"label": "*0", "atom_type": "O2s"}, "16": {"label": "*2", "atom_type": "H0"}}

>  <type>  (8) 
unop_4

>  <geom_source>  (8) 
Heuristics

$$$$

     RDKit          3D

 17 16  0  0  0  0  0  0  0  0999 V2000
    1.2264   -1.3704    0.1774 C   0  0  0  0  0  3  0  0  0  0  0  0
    1.7939   -0.5015   -0.7469 O   0  0  0  0  0  0  0  0  0  0  0  0
    2.2482    0.7150   -0.3769 N   0  0  0  0  0  0  0  0  0  0  0  0
    2.0445    1.1923    0.7721 C   0  0  0  0  0  0  0  0  0  0  0  0
    1.0621   -2.3122   -0.3353 H   0  0  0  0  0  0  0  0  0  0  0  0
    1.8012   -1.4791    1.0974 H   0  0  0  0  0  0  0  0  0  0  0  0
    2.4603    2.1689    0.9489 H   0  0  0  0  0  0  0  0  0  0  0  0
    1.4820    0.7254    1.5763 H   0  0  0  0  0  0  0  0  0  0  0  0
   -2.5111    1.3815   -0.2715 C   0  0  0  0  0  0  0  0  0  0  0  0
   -1.6055    0.1874   -0.3908 C   0  0  0  0  0  0  0  0  0  0  0  0
   -1.0574   -0.3819    0.7740 N   0  0  0  0  0  0  0  0  0  0  0  0
   -2.0556   -1.0451    0.0703 O   0  0  0  0  0  0  0  0  0  0  0  0
   -3.2224    1.3882   -1.0938 H   0  0  0  0  0  0  0  0  0  0  0  0
   -1.9143    2.2894   -0.3086 H   0  0  0  0  0  0  0  0  0  0  0  0
   -3.0509    1.3412    0.6713 H   0  0  0  0  0  0  0  0  0  0  0  0
   -1.0065    0.1443   -1.3028 H   0  0  0  0  0  0  0  0  0  0  0  0
    0.0720   -0.9179    0.5457 H   0  0  0  0  0  0  0  0  0  0  0  0
  1  2  1  0
  1  5  1  0
  1  6  1  0
  2  3  1  0
  3  4  2  3
  4  7  1  0
  4  8  1  0
  9 10  1  0
  9 13  1  0
  9 14  1  0
  9 15  1  0
 10 11  1  0
 10 12  1  0
 10 16  1  0
 11 12  1  0
 11 17  1  0
M  RAD  1   1   2
M  END
>  <reaction>  (9) 
rmg_rxn_15701

>  <mol_properties>  (9) 
{"0": {"label": "*3", "atom_type": "Cs"}, "1": {"label": "*4", "atom_type": "O2s"}, "10": {"label": "*1", "atom_type": "N3s"}, "11": {"label": "*0", "atom_type": "O2s"}, "16": {"label": "*2", "atom_type": "H0"}}

>  <type>  (9) 
unop_5

>  <geom_source>  (9) 
Heuristics

$$$$

     RDKit          3D

 17 16  0  0  0  0  0  0  0  0999 V2000
    0.3355   -0.3618    1.0117 C   0  0  0  0  0  3  0  0  0  0  0  0
    0.9559    0.8636    1.3480 O   0  0  0  0  0  0  0  0  0  0  0  0
    0.9956    1.0029    2.7146 N   0  0  0  0  0  0  0  0  0  0  0  0
    1.5430    2.0865    3.0651 C   0  0  0  0  0  0  0  0  0  0  0  0
    0.8953   -1.2075    1.4176 H   0  0  0  0  0  0  0  0  0  0  0  0
   -0.6921   -0.3936    1.3807 H   0  0  0  0  0  0  0  0  0  0  0  0
    1.6135    2.2723    4.1285 H   0  0  0  0  0  0  0  0  0  0  0  0
    1.9291    2.8071    2.3474 H   0  0  0  0  0  0  0  0  0  0  0  0
   -0.6411   -1.2862   -3.4663 C   0  0  0  0  0  0  0  0  0  0  0  0
   -0.6411   -1.2862   -1.9715 C   0  0  0  0  0  0  0  0  0  0  0  0
   -0.6411   -0.0252   -1.2993 N   0  0  0  0  0  0  0  0  0  0  0  0
   -1.8114   -0.9143   -1.3191 O   0  0  0  0  0  0  0  0  0  0  0  0
    0.3835   -1.2755   -3.8424 H   0  0  0  0  0  0  0  0  0  0  0  0
   -1.1672   -0.4063   -3.8334 H   0  0  0  0  0  0  0  0  0  0  0  0
   -1.1344   -2.1842   -3.8417 H   0  0  0  0  0  0  0  0  0  0  0  0
   -0.1077   -2.1102   -1.4960 H   0  0  0  0  0  0  0  0  0  0  0  0
   -0.1685   -0.1881   -0.1809 H   0  0  0  0  0  0  0  0  0  0  0  0
  1  2  1  0
  1  5  1  0
  1  6  1  0
  2  3  1  0
  3  4  2  3
  4  7  1  0
  4  8  1  0
  9 10  1  0
  9 13  1  0
  9 14  1  0
  9 15  1  0
 10 11  1  0
 10 12  1  0
 10 16  1  0
 11 12  1  0
 11 17  1  0
M  RAD  1   1   2
M  END
>  <reaction>  (10) 
rmg_rxn_15701

>  <mol_properties>  (10) 
{"0": {"label": "*3", "atom_type": "Cs"}, "1": {"label": "*4", "atom_type": "O2s"}, "10": {"label": "*1", "atom_type": "N3s"}, "11": {"label": "*0", "atom_type": "O2s"}, "16": {"label": "*2", "atom_type": "H0"}}

>  <type>  (10) 
unop_6

>  <geom_source>  (10) 
Heuristics

$$$$

     RDKit          3D

 17 16  0  0  0  0  0  0  0  0999 V2000
    1.0586    0.6487    0.8702 C   0  0  0  0  0  3  0  0  0  0  0  0
    0.2155   -0.2894    1.5098 O   0  0  0  0  0  0  0  0  0  0  0  0
    0.1772   -0.0330    2.8594 N   0  0  0  0  0  0  0  0  0  0  0  0
   -0.5659   -0.8479    3.4760 C   0  0  0  0  0  0  0  0  0  0  0  0
    0.6851    1.6661    1.0065 H   0  0  0  0  0  0  0  0  0  0  0  0
    2.0796    0.5804    1.2522 H   0  0  0  0  0  0  0  0  0  0  0  0
   -0.6499   -0.7135    4.5461 H   0  0  0  0  0  0  0  0  0  0  0  0
   -1.1013   -1.6498    2.9721 H   0  0  0  0  0  0  0  0  0  0  0  0
    0.0819   -0.2757   -3.6078 C   0  0  0  0  0  0  0  0  0  0  0  0
    0.0819   -0.2757   -2.1130 C   0  0  0  0  0  0  0  0  0  0  0  0
    0.0819    0.9853   -1.4408 N   0  0  0  0  0  0  0  0  0  0  0  0
   -1.0884    0.0961   -1.4606 O   0  0  0  0  0  0  0  0  0  0  0  0
    1.1066   -0.2650   -3.9839 H   0  0  0  0  0  0  0  0  0  0  0  0
   -0.4442    0.6042   -3.9750 H   0  0  0  0  0  0  0  0  0  0  0  0
   -0.4113   -1.1737   -3.9833 H   0  0  0  0  0  0  0  0  0  0  0  0
    0.6154   -1.0997   -1.6375 H   0  0  0  0  0  0  0  0  0  0  0  0
    0.5546    0.8224   -0.3224 H   0  0  0  0  0  0  0  0  0  0  0  0
  1  2  1  0
  1  5  1  0
  1  6  1  0
  2  3  1  0
  3  4  2  3
  4  7  1  0
  4  8  1  0
  9 10  1  0
  9 13  1  0
  9 14  1  0
  9 15  1  0
 10 11  1  0
 10 12  1  0
 10 16  1  0
 11 12  1  0
 11 17  1  0
M  RAD  1   1   2
M  END
>  <reaction>  (11) 
rmg_rxn_15701

>  <mol_properties>  (11) 
{"0": {"label": "*3", "atom_type": "Cs"}, "1": {"label": "*4", "atom_type": "O2s"}, "10": {"label": "*1", "atom_type": "N3s"}, "11": {"label": "*0", "atom_type": "O2s"}, "16": {"label": "*2", "atom_type": "H0"}}

>  <type>  (11) 
unop_7

>  <geom_source>  (11) 
Heuristics

$$$$

     RDKit          3D

 17 16  0  0  0  0  0  0  0  0999 V2000
    0.9977    1.5691   -0.0041 C   0  0  0  0  0  3  0  0  0  0  0  0
    1.9102    0.6130   -0.4229 O   0  0  0  0  0  0  0  0  0  0  0  0
    1.9337   -0.4913    0.4072 N   0  0  0  0  0  0  0  0  0  0  0  0
    2.7373   -1.4070    0.0840 C   0  0  0  0  0  0  0  0  0  0  0  0
    0.9613    1.6884    1.0775 H   0  0  0  0  0  0  0  0  0  0  0  0
    1.2073    2.4866   -0.5422 H   0  0  0  0  0  0  0  0  0  0  0  0
    2.7645   -2.2698    0.7257 H   0  0  0  0  0  0  0  0  0  0  0  0
    3.3893   -1.3706   -0.7832 H   0  0  0  0  0  0  0  0  0  0  0  0
   -2.5445   -1.4692   -0.3514 C   0  0  0  0  0  0  0  0  0  0  0  0
   -1.5724   -0.4507    0.1778 C   0  0  0  0  0  0  0  0  0  0  0  0
   -1.3597    0.7383   -0.5464 N   0  0  0  0  0  0  0  0  0  0  0  0
   -2.0666    0.7595    0.6515 O   0  0  0  0  0  0  0  0  0  0  0  0
   -2.0203   -2.1584   -1.0084 H   0  0  0  0  0  0  0  0  0  0  0  0
   -3.3330   -0.9695   -0.9084 H   0  0  0  0  0  0  0  0  0  0  0  0
   -2.9832   -2.0257    0.4734 H   0  0  0  0  0  0  0  0  0  0  0  0
   -0.7308   -0.8559    0.7431 H   0  0  0  0  0  0  0  0  0  0  0  0
   -0.1963    1.2052   -0.3542 H   0  0  0  0  0  0  0  0  0  0  0  0
  1  2  1  0
  1  5  1  0
  1  6  1  0
  2  3  1  0
  3  4  2  3
  4  7  1  0
  4  8  1  0
  9 10  1  0
  9 13  1  0
  9 14  1  0
  9 15  1  0
 10 11  1  0
 10 12  1  0
 10 16  1  0
 11 12  1  0
 11 17  1  0
M  RAD  1   1   2
M  END
>  <reaction>  (12) 
rmg_rxn_15701

>  <mol_properties>  (12) 
{"0": {"label": "*3", "atom_type": "Cs"}, "1": {"label": "*4", "atom_type": "O2s"}, "10": {"label": "*1", "atom_type": "N3s"}, "11": {"label": "*0", "atom_type": "O2s"}, "16": {"label": "*2", "atom_type": "H0"}}

>  <type>  (12) 
unop_8

>  <geom_source>  (12) 
Heuristics

$$$$

     RDKit          3D

 17 16  0  0  0  0  0  0  0  0999 V2000
    0.5256   -0.3270    0.9016 C   0  0  0  0  0  3  0  0  0  0  0  0
    0.5010    0.9458    1.5174 O   0  0  0  0  0  0  0  0  0  0  0  0
    1.0179    0.8558    2.7876 N   0  0  0  0  0  0  0  0  0  0  0  0
    1.0170    1.9719    3.3801 C   0  0  0  0  0  0  0  0  0  0  0  0
    1.5483   -0.7019    0.8203 H   0  0  0  0  0  0  0  0  0  0  0  0
   -0.0822   -1.0428    1.4596 H   0  0  0  0  0  0  0  0  0  0  0  0
    1.4093    1.9860    4.3881 H   0  0  0  0  0  0  0  0  0  0  0  0
    0.6443    2.8821    2.9151 H   0  0  0  0  0  0  0  0  0  0  0  0
   -0.4510   -1.2513   -3.5764 C   0  0  0  0  0  0  0  0  0  0  0  0
   -0.4510   -1.2513   -2.0816 C   0  0  0  0  0  0  0  0  0  0  0  0
   -0.4510    0.0097   -1.4094 N   0  0  0  0  0  0  0  0  0  0  0  0
   -1.6213   -0.8795   -1.4292 O   0  0  0  0  0  0  0  0  0  0  0  0
    0.5736   -1.2406   -3.9525 H   0  0  0  0  0  0  0  0  0  0  0  0
   -0.9771   -0.3714   -3.9435 H   0  0  0  0  0  0  0  0  0  0  0  0
   -0.9443   -2.1493   -3.9518 H   0  0  0  0  0  0  0  0  0  0  0  0
    0.0824   -2.0753   -1.6061 H   0  0  0  0  0  0  0  0  0  0  0  0
    0.0216   -0.1532   -0.2910 H   0  0  0  0  0  0  0  0  0  0  0  0
  1  2  1  0
  1  5  1  0
  1  6  1  0
  2  3  1  0
  3  4  2  3
  4  7  1  0
  4  8  1  0
  9 10  1  0
  9 13  1  0
  9 14  1  0
  9 15  1  0
 10 11  1  0
 10 12  1  0
 10 16  1  0
 11 12  1  0
 11 17  1  0
M  RAD  1   1   2
M  END
>  <reaction>  (13) 
rmg_rxn_15701

>  <mol_properties>  (13) 
{"0": {"label": "*3", "atom_type": "Cs"}, "1": {"label": "*4", "atom_type": "O2s"}, "10": {"label": "*1", "atom_type": "N3s"}, "11": {"label": "*0", "atom_type": "O2s"}, "16": {"label": "*2", "atom_type": "H0"}}

>  <type>  (13) 
unop_9

>  <geom_source>  (13) 
Heuristics

$$$$

     RDKit          3D

 17 16  0  0  0  0  0  0  0  0999 V2000
    1.2255    1.3699   -0.1772 C   0  0  0  0  0  3  0  0  0  0  0  0
    1.7937    0.5016    0.7472 O   0  0  0  0  0  0  0  0  0  0  0  0
    2.2497   -0.7143    0.3772 N   0  0  0  0  0  0  0  0  0  0  0  0
    2.0475   -1.1916   -0.7720 C   0  0  0  0  0  0  0  0  0  0  0  0
    1.0597    2.3113    0.3356 H   0  0  0  0  0  0  0  0  0  0  0  0
    1.8007    1.4796   -1.0969 H   0  0  0  0  0  0  0  0  0  0  0  0
    2.4652   -2.1674   -0.9490 H   0  0  0  0  0  0  0  0  0  0  0  0
    1.4855   -0.7249   -1.5767 H   0  0  0  0  0  0  0  0  0  0  0  0
   -2.5135   -1.3808    0.2716 C   0  0  0  0  0  0  0  0  0  0  0  0
   -1.6064   -0.1879    0.3905 C   0  0  0  0  0  0  0  0  0  0  0  0
   -1.0579    0.3808   -0.7744 N   0  0  0  0  0  0  0  0  0  0  0  0
   -2.0552    1.0451   -0.0707 O   0  0  0  0  0  0  0  0  0  0  0  0
   -1.9180   -2.2895    0.3084 H   0  0  0  0  0  0  0  0  0  0  0  0
   -3.0538   -1.3397   -0.6709 H   0  0  0  0  0  0  0  0  0  0  0  0
   -3.2244   -1.3865    1.0942 H   0  0  0  0  0  0  0  0  0  0  0  0
   -1.0070   -0.1454    1.3023 H   0  0  0  0  0  0  0  0  0  0  0  0
    0.0718    0.9162   -0.5462 H   0  0  0  0  0  0  0  0  0  0  0  0
  1  2  1  0
  1  5  1  0
  1  6  1  0
  2  3  1  0
  3  4  2  3
  4  7  1  0
  4  8  1  0
  9 10  1  0
  9 13  1  0
  9 14  1  0
  9 15  1  0
 10 11  1  0
 10 12  1  0
 10 16  1  0
 11 12  1  0
 11 17  1  0
M  RAD  1   1   2
M  END
>  <reaction>  (14) 
rmg_rxn_15701

>  <mol_properties>  (14) 
{"0": {"label": "*3", "atom_type": "Cs"}, "1": {"label": "*4", "atom_type": "O2s"}, "10": {"label": "*1", "atom_type": "N3s"}, "11": {"label": "*0", "atom_type": "O2s"}, "16": {"label": "*2", "atom_type": "H0"}}

>  <type>  (14) 
unop_10

>  <geom_source>  (14) 
Heuristics

$$$$

     RDKit          3D

 17 16  0  0  0  0  0  0  0  0999 V2000
    1.1288    0.2598    0.8067 C   0  0  0  0  0  3  0  0  0  0  0  0
    0.0329   -0.0512    1.6445 O   0  0  0  0  0  0  0  0  0  0  0  0
    0.1988    0.5531    2.8676 N   0  0  0  0  0  0  0  0  0  0  0  0
   -0.7587    0.3036    3.6536 C   0  0  0  0  0  0  0  0  0  0  0  0
    1.1999    1.3371    0.6402 H   0  0  0  0  0  0  0  0  0  0  0  0
    2.0645   -0.1057    1.2356 H   0  0  0  0  0  0  0  0  0  0  0  0
   -0.7034    0.7439    4.6402 H   0  0  0  0  0  0  0  0  0  0  0  0
   -1.6034   -0.3201    3.3689 H   0  0  0  0  0  0  0  0  0  0  0  0
    0.1522   -0.6645   -3.6713 C   0  0  0  0  0  0  0  0  0  0  0  0
    0.1522   -0.6645   -2.1765 C   0  0  0  0  0  0  0  0  0  0  0  0
    0.1522    0.5965   -1.5042 N   0  0  0  0  0  0  0  0  0  0  0  0
   -1.0182   -0.2927   -1.5241 O   0  0  0  0  0  0  0  0  0  0  0  0
    1.1768   -0.6538   -4.0473 H   0  0  0  0  0  0  0  0  0  0  0  0
   -0.3739    0.2154   -4.0384 H   0  0  0  0  0  0  0  0  0  0  0  0
   -0.3411   -1.5625   -4.0467 H   0  0  0  0  0  0  0  0  0  0  0  0
    0.6856   -1.4885   -1.7010 H   0  0  0  0  0  0  0  0  0  0  0  0
    0.6248    0.4336   -0.3859 H   0  0  0  0  0  0  0  0  0  0  0  0
  1  2  1  0
  1  5  1  0
  1  6  1  0
  2  3  1  0
  3  4  2  3
  4  7  1  0
  4  8  1  0
  9 10  1  0
  9 13  1  0
  9 14  1  0
  9 15  1  0
 10 11  1  0
 10 12  1  0
 10 16  1  0
 11 12  1  0
 11 17  1  0
M  RAD  1   1   2
M  END
>  <reaction>  (15) 
rmg_rxn_15701

>  <mol_properties>  (15) 
{"0": {"label": "*3", "atom_type": "Cs"}, "1": {"label": "*4", "atom_type": "O2s"}, "10": {"label": "*1", "atom_type": "N3s"}, "11": {"label": "*0", "atom_type": "O2s"}, "16": {"label": "*2", "atom_type": "H0"}}

>  <type>  (15) 
unop_11

>  <geom_source>  (15) 
Heuristics

$$$$

     RDKit          3D

 17 16  0  0  0  0  0  0  0  0999 V2000
    1.2244   -1.3697    0.1727 C   0  0  0  0  0  3  0  0  0  0  0  0
    1.7947   -0.5001   -0.7491 O   0  0  0  0  0  0  0  0  0  0  0  0
    2.2528    0.7139   -0.3755 N   0  0  0  0  0  0  0  0  0  0  0  0
    2.0510    1.1884    0.7750 C   0  0  0  0  0  0  0  0  0  0  0  0
    1.0562   -2.3092   -0.3429 H   0  0  0  0  0  0  0  0  0  0  0  0
    1.7994   -1.4837    1.0921 H   0  0  0  0  0  0  0  0  0  0  0  0
    2.4695    2.1633    0.9546 H   0  0  0  0  0  0  0  0  0  0  0  0
    1.4870    0.7208    1.5778 H   0  0  0  0  0  0  0  0  0  0  0  0
   -2.5155    1.3801   -0.2750 C   0  0  0  0  0  0  0  0  0  0  0  0
   -1.6097    0.1860   -0.3917 C   0  0  0  0  0  0  0  0  0  0  0  0
   -1.0564   -0.3769    0.7737 N   0  0  0  0  0  0  0  0  0  0  0  0
   -2.0572   -1.0443    0.0777 O   0  0  0  0  0  0  0  0  0  0  0  0
   -3.2305    1.3818   -1.0942 H   0  0  0  0  0  0  0  0  0  0  0  0
   -1.9196    2.2883   -0.3196 H   0  0  0  0  0  0  0  0  0  0  0  0
   -3.0513    1.3445    0.6704 H   0  0  0  0  0  0  0  0  0  0  0  0
   -1.0144    0.1385   -1.3059 H   0  0  0  0  0  0  0  0  0  0  0  0
    0.0721   -0.9140    0.5433 H   0  0  0  0  0  0  0  0  0  0  0  0
  1  2  1  0
  1  5  1  0
  1  6  1  0
  2  3  1  0
  3  4  2  3
  4  7  1  0
  4  8  1  0
  9 10  1  0
  9 13  1  0
  9 14  1  0
  9 15  1  0
 10 11  1  0
 10 12  1  0
 10 16  1  0
 11 12  1  0
 11 17  1  0
M  RAD  1   1   2
M  END
>  <reaction>  (16) 
rmg_rxn_15701

>  <mol_properties>  (16) 
{"0": {"label": "*3", "atom_type": "Cs"}, "1": {"label": "*4", "atom_type": "O2s"}, "10": {"label": "*1", "atom_type": "N3s"}, "11": {"label": "*0", "atom_type": "O2s"}, "16": {"label": "*2", "atom_type": "H0"}}

>  <type>  (16) 
unop_12

>  <geom_source>  (16) 
Heuristics

$$$$

     RDKit          3D

 17 16  0  0  0  0  0  0  0  0999 V2000
    0.9912   -0.0859    0.8114 C   0  0  0  0  0  3  0  0  0  0  0  0
   -0.0243    0.2997    1.7167 O   0  0  0  0  0  0  0  0  0  0  0  0
    0.5353    0.9473    2.7920 N   0  0  0  0  0  0  0  0  0  0  0  0
   -0.3358    1.3125    3.6314 C   0  0  0  0  0  0  0  0  0  0  0  0
    1.5292    0.7862    0.4331 H   0  0  0  0  0  0  0  0  0  0  0  0
    1.6964   -0.7727    1.2849 H   0  0  0  0  0  0  0  0  0  0  0  0
    0.0247    1.8311    4.5097 H   0  0  0  0  0  0  0  0  0  0  0  0
   -1.3982    1.1233    3.4937 H   0  0  0  0  0  0  0  0  0  0  0  0
    0.0146   -1.0103   -3.6666 C   0  0  0  0  0  0  0  0  0  0  0  0
    0.0146   -1.0103   -2.1718 C   0  0  0  0  0  0  0  0  0  0  0  0
    0.0146    0.2507   -1.4995 N   0  0  0  0  0  0  0  0  0  0  0  0
   -1.1557   -0.6385   -1.5194 O   0  0  0  0  0  0  0  0  0  0  0  0
    1.0392   -0.9996   -4.0426 H   0  0  0  0  0  0  0  0  0  0  0  0
   -0.5115   -0.1304   -4.0337 H   0  0  0  0  0  0  0  0  0  0  0  0
   -0.4787   -1.9083   -4.0420 H   0  0  0  0  0  0  0  0  0  0  0  0
    0.5480   -1.8343   -1.6963 H   0  0  0  0  0  0  0  0  0  0  0  0
    0.4872    0.0878   -0.3812 H   0  0  0  0  0  0  0  0  0  0  0  0
  1  2  1  0
  1  5  1  0
  1  6  1  0
  2  3  1  0
  3  4  2  3
  4  7  1  0
  4  8  1  0
  9 10  1  0
  9 13  1  0
  9 14  1  0
  9 15  1  0
 10 11  1  0
 10 12  1  0
 10 16  1  0
 11 12  1  0
 11 17  1  0
M  RAD  1   1   2
M  END
>  <reaction>  (17) 
rmg_rxn_15701

>  <mol_properties>  (17) 
{"0": {"label": "*3", "atom_type": "Cs"}, "1": {"label": "*4", "atom_type": "O2s"}, "10": {"label": "*1", "atom_type": "N3s"}, "11": {"label": "*0", "atom_type": "O2s"}, "16": {"label": "*2", "atom_type": "H0"}}

>  <type>  (17) 
unop_13

>  <geom_source>  (17) 
Heuristics

$$$$

     RDKit          3D

 17 16  0  0  0  0  0  0  0  0999 V2000
   -0.1456   -0.0066    1.3065 C   0  0  0  0  0  3  0  0  0  0  0  0
    1.2461    0.2025    1.1687 O   0  0  0  0  0  0  0  0  0  0  0  0
    1.7250    0.8721    2.2692 N   0  0  0  0  0  0  0  0  0  0  0  0
    2.9685    1.0828    2.1920 C   0  0  0  0  0  0  0  0  0  0  0  0
   -0.3642   -0.6135    2.1880 H   0  0  0  0  0  0  0  0  0  0  0  0
   -0.6785    0.9444    1.3768 H   0  0  0  0  0  0  0  0  0  0  0  0
    3.4239    1.6067    3.0217 H   0  0  0  0  0  0  0  0  0  0  0  0
    3.5660    0.7606    1.3418 H   0  0  0  0  0  0  0  0  0  0  0  0
   -1.1223   -0.9309   -3.1716 C   0  0  0  0  0  0  0  0  0  0  0  0
   -1.1223   -0.9309   -1.6767 C   0  0  0  0  0  0  0  0  0  0  0  0
   -1.1223    0.3301   -1.0045 N   0  0  0  0  0  0  0  0  0  0  0  0
   -2.2926   -0.5591   -1.0243 O   0  0  0  0  0  0  0  0  0  0  0  0
   -0.0976   -0.9202   -3.5476 H   0  0  0  0  0  0  0  0  0  0  0  0
   -1.6484   -0.0510   -3.5387 H   0  0  0  0  0  0  0  0  0  0  0  0
   -1.6155   -1.8290   -3.5470 H   0  0  0  0  0  0  0  0  0  0  0  0
   -0.5888   -1.7549   -1.2012 H   0  0  0  0  0  0  0  0  0  0  0  0
   -0.6496    0.1672    0.1139 H   0  0  0  0  0  0  0  0  0  0  0  0
  1  2  1  0
  1  5  1  0
  1  6  1  0
  2  3  1  0
  3  4  2  3
  4  7  1  0
  4  8  1  0
  9 10  1  0
  9 13  1  0
  9 14  1  0
  9 15  1  0
 10 11  1  0
 10 12  1  0
 10 16  1  0
 11 12  1  0
 11 17  1  0
M  RAD  1   1   2
M  END
>  <reaction>  (18) 
rmg_rxn_15701

>  <mol_properties>  (18) 
{"0": {"label": "*3", "atom_type": "Cs"}, "1": {"label": "*4", "atom_type": "O2s"}, "10": {"label": "*1", "atom_type": "N3s"}, "11": {"label": "*0", "atom_type": "O2s"}, "16": {"label": "*2", "atom_type": "H0"}}

>  <type>  (18) 
unop_14

>  <geom_source>  (18) 
Heuristics

$$$$

     RDKit          3D

 17 16  0  0  0  0  0  0  0  0999 V2000
    1.2259   -1.3694    0.1783 C   0  0  0  0  0  3  0  0  0  0  0  0
    1.7949   -0.5022   -0.7465 O   0  0  0  0  0  0  0  0  0  0  0  0
    2.2507    0.7141   -0.3775 N   0  0  0  0  0  0  0  0  0  0  0  0
    2.0474    1.1928    0.7710 C   0  0  0  0  0  0  0  0  0  0  0  0
    1.0606   -2.3114   -0.3336 H   0  0  0  0  0  0  0  0  0  0  0  0
    1.8002   -1.4780    1.0987 H   0  0  0  0  0  0  0  0  0  0  0  0
    2.4651    2.1686    0.9474 H   0  0  0  0  0  0  0  0  0  0  0  0
    1.4845    0.7270    1.5757 H   0  0  0  0  0  0  0  0  0  0  0  0
   -2.5153    1.3800   -0.2711 C   0  0  0  0  0  0  0  0  0  0  0  0
   -1.6071    0.1880   -0.3906 C   0  0  0  0  0  0  0  0  0  0  0  0
   -1.0581   -0.3806    0.7739 N   0  0  0  0  0  0  0  0  0  0  0  0
   -2.0549   -1.0454    0.0700 O   0  0  0  0  0  0  0  0  0  0  0  0
   -3.0526    1.3399    0.6731 H   0  0  0  0  0  0  0  0  0  0  0  0
   -3.2288    1.3834   -1.0915 H   0  0  0  0  0  0  0  0  0  0  0  0
   -1.9211    2.2894   -0.3113 H   0  0  0  0  0  0  0  0  0  0  0  0
   -1.0077    0.1465   -1.3026 H   0  0  0  0  0  0  0  0  0  0  0  0
    0.0719   -0.9155    0.5459 H   0  0  0  0  0  0  0  0  0  0  0  0
  1  2  1  0
  1  5  1  0
  1  6  1  0
  2  3  1  0
  3  4  2  3
  4  7  1  0
  4  8  1  0
  9 10  1  0
  9 13  1  0
  9 14  1  0
  9 15  1  0
 10 11  1  0
 10 12  1  0
 10 16  1  0
 11 12  1  0
 11 17  1  0
M  RAD  1   1   2
M  END
>  <reaction>  (19) 
rmg_rxn_15701

>  <mol_properties>  (19) 
{"0": {"label": "*3", "atom_type": "Cs"}, "1": {"label": "*4", "atom_type": "O2s"}, "10": {"label": "*1", "atom_type": "N3s"}, "11": {"label": "*0", "atom_type": "O2s"}, "16": {"label": "*2", "atom_type": "H0"}}

>  <type>  (19) 
unop_15

>  <geom_source>  (19) 
Heuristics

$$$$

     RDKit          3D

 17 16  0  0  0  0  0  0  0  0999 V2000
    0.7712    0.9374    0.9998 C   0  0  0  0  0  3  0  0  0  0  0  0
    0.4466   -0.3899    1.3635 O   0  0  0  0  0  0  0  0  0  0  0  0
    0.5600   -0.5379    2.7251 N   0  0  0  0  0  0  0  0  0  0  0  0
    0.2790   -1.7116    3.0996 C   0  0  0  0  0  0  0  0  0  0  0  0
    0.0899    1.6494    1.4710 H   0  0  0  0  0  0  0  0  0  0  0  0
    1.7999    1.1782    1.2774 H   0  0  0  0  0  0  0  0  0  0  0  0
    0.3443   -1.9106    4.1609 H   0  0  0  0  0  0  0  0  0  0  0  0
   -0.0154   -2.4942    2.4036 H   0  0  0  0  0  0  0  0  0  0  0  0
   -0.2054    0.0131   -3.4783 C   0  0  0  0  0  0  0  0  0  0  0  0
   -0.2054    0.0131   -1.9834 C   0  0  0  0  0  0  0  0  0  0  0  0
   -0.2054    1.2741   -1.3112 N   0  0  0  0  0  0  0  0  0  0  0  0
   -1.3757    0.3849   -1.3310 O   0  0  0  0  0  0  0  0  0  0  0  0
    0.8193    0.0238   -3.8543 H   0  0  0  0  0  0  0  0  0  0  0  0
   -0.7315    0.8930   -3.8454 H   0  0  0  0  0  0  0  0  0  0  0  0
   -0.6986   -0.8849   -3.8537 H   0  0  0  0  0  0  0  0  0  0  0  0
    0.3280   -0.8109   -1.5079 H   0  0  0  0  0  0  0  0  0  0  0  0
    0.2672    1.1112   -0.1928 H   0  0  0  0  0  0  0  0  0  0  0  0
  1  2  1  0
  1  5  1  0
  1  6  1  0
  2  3  1  0
  3  4  2  3
  4  7  1  0
  4  8  1  0
  9 10  1  0
  9 13  1  0
  9 14  1  0
  9 15  1  0
 10 11  1  0
 10 12  1  0
 10 16  1  0
 11 12  1  0
 11 17  1  0
M  RAD  1   1   2
M  END
>  <reaction>  (20) 
rmg_rxn_15701

>  <mol_properties>  (20) 
{"0": {"label": "*3", "atom_type": "Cs"}, "1": {"label": "*4", "atom_type": "O2s"}, "10": {"label": "*1", "atom_type": "N3s"}, "11": {"label": "*0", "atom_type": "O2s"}, "16": {"label": "*2", "atom_type": "H0"}}

>  <type>  (20) 
unop_16

>  <geom_source>  (20) 
Heuristics

$$$$

     RDKit          3D

 17 16  0  0  0  0  0  0  0  0999 V2000
   -0.1927    0.3871    1.3609 C   0  0  0  0  0  3  0  0  0  0  0  0
    1.1186   -0.1006    1.1556 O   0  0  0  0  0  0  0  0  0  0  0  0
    1.9387    0.3352    2.1687 N   0  0  0  0  0  0  0  0  0  0  0  0
    3.1251   -0.0763    2.0286 C   0  0  0  0  0  0  0  0  0  0  0  0
   -0.6030    0.0196    2.3042 H   0  0  0  0  0  0  0  0  0  0  0  0
   -0.2085    1.4793    1.3569 H   0  0  0  0  0  0  0  0  0  0  0  0
    3.8353    0.2241    2.7873 H   0  0  0  0  0  0  0  0  0  0  0  0
    3.4339   -0.7017    1.1936 H   0  0  0  0  0  0  0  0  0  0  0  0
   -1.1694   -0.5372   -3.1171 C   0  0  0  0  0  0  0  0  0  0  0  0
   -1.1694   -0.5372   -1.6223 C   0  0  0  0  0  0  0  0  0  0  0  0
   -1.1694    0.7237   -0.9501 N   0  0  0  0  0  0  0  0  0  0  0  0
   -2.3397   -0.1654   -0.9699 O   0  0  0  0  0  0  0  0  0  0  0  0
   -0.1447   -0.5266   -3.4932 H   0  0  0  0  0  0  0  0  0  0  0  0
   -1.6955    0.3426   -3.4843 H   0  0  0  0  0  0  0  0  0  0  0  0
   -1.6626   -1.4353   -3.4926 H   0  0  0  0  0  0  0  0  0  0  0  0
   -0.6360   -1.3612   -1.1468 H   0  0  0  0  0  0  0  0  0  0  0  0
   -0.6967    0.5608    0.1683 H   0  0  0  0  0  0  0  0  0  0  0  0
  1  2  1  0
  1  5  1  0
  1  6  1  0
  2  3  1  0
  3  4  2  3
  4  7  1  0
  4  8  1  0
  9 10  1  0
  9 13  1  0
  9 14  1  0
  9 15  1  0
 10 11  1  0
 10 12  1  0
 10 16  1  0
 11 12  1  0
 11 17  1  0
M  RAD  1   1   2
M  END
>  <reaction>  (21) 
rmg_rxn_15701

>  <mol_properties>  (21) 
{"0": {"label": "*3", "atom_type": "Cs"}, "1": {"label": "*4", "atom_type": "O2s"}, "10": {"label": "*1", "atom_type": "N3s"}, "11": {"label": "*0", "atom_type": "O2s"}, "16": {"label": "*2", "atom_type": "H0"}}

>  <type>  (21) 
unop_17

>  <geom_source>  (21) 
Heuristics

$$$$

     RDKit          3D

 17 16  0  0  0  0  0  0  0  0999 V2000
    0.7373   -0.2778    0.8542 C   0  0  0  0  0  3  0  0  0  0  0  0
    0.1139    0.6875    1.6782 O   0  0  0  0  0  0  0  0  0  0  0  0
    0.9338    0.9900    2.7389 N   0  0  0  0  0  0  0  0  0  0  0  0
    0.4181    1.8514    3.5062 C   0  0  0  0  0  0  0  0  0  0  0  0
    1.6787    0.1020    0.4510 H   0  0  0  0  0  0  0  0  0  0  0  0
    0.9232   -1.2017    1.4066 H   0  0  0  0  0  0  0  0  0  0  0  0
    1.0024    2.1446    4.3681 H   0  0  0  0  0  0  0  0  0  0  0  0
   -0.5624    2.2863    3.3244 H   0  0  0  0  0  0  0  0  0  0  0  0
   -0.2393   -1.2022   -3.6239 C   0  0  0  0  0  0  0  0  0  0  0  0
   -0.2393   -1.2022   -2.1290 C   0  0  0  0  0  0  0  0  0  0  0  0
   -0.2393    0.0588   -1.4568 N   0  0  0  0  0  0  0  0  0  0  0  0
   -1.4096   -0.8304   -1.4766 O   0  0  0  0  0  0  0  0  0  0  0  0
    0.7853   -1.1915   -3.9999 H   0  0  0  0  0  0  0  0  0  0  0  0
   -0.7654   -0.3223   -3.9910 H   0  0  0  0  0  0  0  0  0  0  0  0
   -0.7326   -2.1002   -3.9993 H   0  0  0  0  0  0  0  0  0  0  0  0
    0.2941   -2.0262   -1.6535 H   0  0  0  0  0  0  0  0  0  0  0  0
    0.2333   -0.1041   -0.3385 H   0  0  0  0  0  0  0  0  0  0  0  0
  1  2  1  0
  1  5  1  0
  1  6  1  0
  2  3  1  0
  3  4  2  3
  4  7  1  0
  4  8  1  0
  9 10  1  0
  9 13  1  0
  9 14  1  0
  9 15  1  0
 10 11  1  0
 10 12  1  0
 10 16  1  0
 11 12  1  0
 11 17  1  0
M  RAD  1   1   2
M  END
>  <reaction>  (22) 
rmg_rxn_15701

>  <mol_properties>  (22) 
{"0": {"label": "*3", "atom_type": "Cs"}, "1": {"label": "*4", "atom_type": "O2s"}, "10": {"label": "*1", "atom_type": "N3s"}, "11": {"label": "*0", "atom_type": "O2s"}, "16": {"label": "*2", "atom_type": "H0"}}

>  <type>  (22) 
unop_18

>  <geom_source>  (22) 
Heuristics

$$$$

     RDKit          3D

 17 16  0  0  0  0  0  0  0  0999 V2000
    0.3537    0.9921    1.1664 C   0  0  0  0  0  3  0  0  0  0  0  0
    0.6741   -0.3826    1.2507 O   0  0  0  0  0  0  0  0  0  0  0  0
    1.2151   -0.6574    2.4838 N   0  0  0  0  0  0  0  0  0  0  0  0
    1.5187   -1.8778    2.6073 C   0  0  0  0  0  0  0  0  0  0  0  0
   -0.3834    1.2685    1.9236 H   0  0  0  0  0  0  0  0  0  0  0  0
    1.2471    1.6094    1.2842 H   0  0  0  0  0  0  0  0  0  0  0  0
    1.9517   -2.1764    3.5525 H   0  0  0  0  0  0  0  0  0  0  0  0
    1.3594   -2.6046    1.8136 H   0  0  0  0  0  0  0  0  0  0  0  0
   -0.6229    0.0677   -3.3116 C   0  0  0  0  0  0  0  0  0  0  0  0
   -0.6229    0.0677   -1.8168 C   0  0  0  0  0  0  0  0  0  0  0  0
   -0.6229    1.3287   -1.1446 N   0  0  0  0  0  0  0  0  0  0  0  0
   -1.7932    0.4395   -1.1644 O   0  0  0  0  0  0  0  0  0  0  0  0
    0.4017    0.0784   -3.6877 H   0  0  0  0  0  0  0  0  0  0  0  0
   -1.1490    0.9476   -3.6788 H   0  0  0  0  0  0  0  0  0  0  0  0
   -1.1162   -0.8303   -3.6871 H   0  0  0  0  0  0  0  0  0  0  0  0
   -0.0895   -0.7563   -1.3413 H   0  0  0  0  0  0  0  0  0  0  0  0
   -0.1503    1.1658   -0.0262 H   0  0  0  0  0  0  0  0  0  0  0  0
  1  2  1  0
  1  5  1  0
  1  6  1  0
  2  3  1  0
  3  4  2  3
  4  7  1  0
  4  8  1  0
  9 10  1  0
  9 13  1  0
  9 14  1  0
  9 15  1  0
 10 11  1  0
 10 12  1  0
 10 16  1  0
 11 12  1  0
 11 17  1  0
M  RAD  1   1   2
M  END
>  <reaction>  (23) 
rmg_rxn_15701

>  <mol_properties>  (23) 
{"0": {"label": "*3", "atom_type": "Cs"}, "1": {"label": "*4", "atom_type": "O2s"}, "10": {"label": "*1", "atom_type": "N3s"}, "11": {"label": "*0", "atom_type": "O2s"}, "16": {"label": "*2", "atom_type": "H0"}}

>  <type>  (23) 
unop_19

>  <geom_source>  (23) 
Heuristics

$$$$

     RDKit          3D

 17 16  0  0  0  0  0  0  0  0999 V2000
   -0.0162    0.7728    1.3086 C   0  0  0  0  0  3  0  0  0  0  0  0
    0.9031   -0.2945    1.1845 O   0  0  0  0  0  0  0  0  0  0  0  0
    1.7705   -0.2849    2.2505 N   0  0  0  0  0  0  0  0  0  0  0  0
    2.6139   -1.2235    2.1840 C   0  0  0  0  0  0  0  0  0  0  0  0
   -0.6078    0.6749    2.2216 H   0  0  0  0  0  0  0  0  0  0  0  0
    0.5005    1.7352    1.3100 H   0  0  0  0  0  0  0  0  0  0  0  0
    3.3347   -1.2855    2.9883 H   0  0  0  0  0  0  0  0  0  0  0  0
    2.6287   -1.9414    1.3668 H   0  0  0  0  0  0  0  0  0  0  0  0
   -0.9928   -0.1515   -3.1695 C   0  0  0  0  0  0  0  0  0  0  0  0
   -0.9928   -0.1515   -1.6746 C   0  0  0  0  0  0  0  0  0  0  0  0
   -0.9928    1.1095   -1.0024 N   0  0  0  0  0  0  0  0  0  0  0  0
   -2.1631    0.2203   -1.0223 O   0  0  0  0  0  0  0  0  0  0  0  0
    0.0318   -0.1408   -3.5455 H   0  0  0  0  0  0  0  0  0  0  0  0
   -1.5189    0.7284   -3.5366 H   0  0  0  0  0  0  0  0  0  0  0  0
   -1.4860   -1.0495   -3.5449 H   0  0  0  0  0  0  0  0  0  0  0  0
   -0.4594   -0.9755   -1.1991 H   0  0  0  0  0  0  0  0  0  0  0  0
   -0.5202    0.9466    0.1159 H   0  0  0  0  0  0  0  0  0  0  0  0
  1  2  1  0
  1  5  1  0
  1  6  1  0
  2  3  1  0
  3  4  2  3
  4  7  1  0
  4  8  1  0
  9 10  1  0
  9 13  1  0
  9 14  1  0
  9 15  1  0
 10 11  1  0
 10 12  1  0
 10 16  1  0
 11 12  1  0
 11 17  1  0
M  RAD  1   1   2
M  END
>  <reaction>  (24) 
rmg_rxn_15701

>  <mol_properties>  (24) 
{"0": {"label": "*3", "atom_type": "Cs"}, "1": {"label": "*4", "atom_type": "O2s"}, "10": {"label": "*1", "atom_type": "N3s"}, "11": {"label": "*0", "atom_type": "O2s"}, "16": {"label": "*2", "atom_type": "H0"}}

>  <type>  (24) 
unop_20

>  <geom_source>  (24) 
gaussian_log

$$$$
