
     RDKit          3D

  9  8  0  0  0  0  0  0  0  0999 V2000
   -1.2461    0.5037    0.0950 C   0  0  0  0  0  0  0  0  0  0  0  0
   -0.0155   -0.3334    0.0640 C   0  0  0  0  0  0  0  0  0  0  0  0
    1.0697    0.1457   -0.3733 N   0  0  0  0  0  0  0  0  0  0  0  0
    2.1001   -0.7834   -0.3224 O   0  0  0  0  0  0  0  0  0  0  0  0
   -2.0357    0.0440   -0.5039 H   0  0  0  0  0  0  0  0  0  0  0  0
   -1.6237    0.5897    1.1166 H   0  0  0  0  0  0  0  0  0  0  0  0
   -1.0397    1.4998   -0.2929 H   0  0  0  0  0  0  0  0  0  0  0  0
   -0.0537   -1.3634    0.4205 H   0  0  0  0  0  0  0  0  0  0  0  0
    2.8478   -0.2985   -0.6758 H   0  0  0  0  0  0  0  0  0  0  0  0
  1  2  1  0
  1  5  1  0
  1  6  1  0
  1  7  1  0
  2  3  2  3
  2  8  1  0
  3  4  1  0
  4  9  1  0
M  END
>  <reaction>  (1) 
rmg_rxn_1446

>  <mol_properties>  (1) 
{"3": {"label": "donator", "atom_type": "O2s"}, "8": {"label": "d_hydrogen", "atom_type": "H0"}}

>  <type>  (1) 
r1h

$$$$

     RDKit          3D

 13 12  0  0  0  0  0  0  0  0999 V2000
   -1.5801    1.1066    0.0514 C   0  0  0  0  0  3  0  0  0  0  0  0
   -0.9927   -0.2392    0.2618 C   0  0  0  0  0  0  0  0  0  0  0  0
   -1.7553   -1.0998    1.2550 C   0  0  0  0  0  0  0  0  0  0  0  0
   -1.8362   -0.4776    2.5484 O   0  0  0  0  0  0  0  0  0  0  0  0
   -0.7919   -0.6298    3.3579 C   0  0  0  0  0  0  0  0  0  0  0  0
    0.2062   -1.2441    3.1188 O   0  0  0  0  0  0  0  0  0  0  0  0
   -1.2814    1.7056   -0.7974 H   0  0  0  0  0  0  0  0  0  0  0  0
   -2.2054    1.5630    0.8065 H   0  0  0  0  0  0  0  0  0  0  0  0
    0.0499   -0.1626    0.6013 H   0  0  0  0  0  0  0  0  0  0  0  0
   -0.9457   -0.7884   -0.6852 H   0  0  0  0  0  0  0  0  0  0  0  0
   -1.2846   -2.0771    1.3590 H   0  0  0  0  0  0  0  0  0  0  0  0
   -2.7927   -1.2238    0.9481 H   0  0  0  0  0  0  0  0  0  0  0  0
   -0.9867   -0.1021    4.3012 H   0  0  0  0  0  0  0  0  0  0  0  0
  1  2  1  0
  1  7  1  0
  1  8  1  0
  2  3  1  0
  2  9  1  0
  2 10  1  0
  3  4  1  0
  3 11  1  0
  3 12  1  0
  4  5  1  0
  5  6  2  0
  5 13  1  0
M  RAD  1   1   2
M  END
>  <reaction>  (2) 
rmg_rxn_1446

>  <mol_properties>  (2) 
{"0": {"label": "acceptor", "atom_type": "Cs"}}

>  <type>  (2) 
r2

$$$$

     RDKit          3D

 14 13  0  0  0  0  0  0  0  0999 V2000
    2.1277    0.0527   -0.0768 C   0  0  0  0  0  0  0  0  0  0  0  0
    0.8550    0.0849    0.7591 C   0  0  0  0  0  0  0  0  0  0  0  0
    0.7150    1.3361    1.5963 C   0  0  0  0  0  0  0  0  0  0  0  0
    0.5975    2.4604    0.7083 O   0  0  0  0  0  0  0  0  0  0  0  0
    0.5113    3.6572    1.2782 C   0  0  0  0  0  0  0  0  0  0  0  0
    0.5224    3.8788    2.4534 O   0  0  0  0  0  0  0  0  0  0  0  0
    3.0138    0.1211    0.5584 H   0  0  0  0  0  0  0  0  0  0  0  0
    2.1544    0.8845   -0.7813 H   0  0  0  0  0  0  0  0  0  0  0  0
    2.1955   -0.8742   -0.6473 H   0  0  0  0  0  0  0  0  0  0  0  0
    0.8361   -0.7663    1.4449 H   0  0  0  0  0  0  0  0  0  0  0  0
   -0.0232   -0.0114    0.1158 H   0  0  0  0  0  0  0  0  0  0  0  0
   -0.1715    1.3001    2.2317 H   0  0  0  0  0  0  0  0  0  0  0  0
    1.5840    1.4884    2.2407 H   0  0  0  0  0  0  0  0  0  0  0  0
    0.4263    4.4265    0.4986 H   0  0  0  0  0  0  0  0  0  0  0  0
  1  2  1  0
  1  7  1  0
  1  8  1  0
  1  9  1  0
  2  3  1  0
  2 10  1  0
  2 11  1  0
  3  4  1  0
  3 12  1  0
  3 13  1  0
  4  5  1  0
  5  6  2  0
  5 14  1  0
M  END
>  <reaction>  (3) 
rmg_rxn_1446

>  <mol_properties>  (3) 
{"0": {"label": "a_hydrogen", "atom_type": "H0"}, "1": {"label": "acceptor", "atom_type": "Cs"}}

>  <type>  (3) 
r2h

$$$$

     RDKit          3D

 22 20  0  0  0  0  0  0  0  0999 V2000
    0.2754   -1.9532   -2.8900 C   0  0  0  0  0  0  0  0  0  0  0  0
   -1.0098   -1.5806   -2.2368 C   0  0  0  0  0  0  0  0  0  0  0  0
   -1.0752   -0.5560   -1.4930 N   0  0  0  0  0  0  0  0  0  0  0  0
   -2.2786   -0.3283   -0.9432 O   0  0  0  0  0  0  0  0  0  0  0  0
    0.5646   -2.9680   -2.6080 H   0  0  0  0  0  0  0  0  0  0  0  0
    0.1742   -1.9345   -3.9780 H   0  0  0  0  0  0  0  0  0  0  0  0
    1.0683   -1.2711   -2.5890 H   0  0  0  0  0  0  0  0  0  0  0  0
   -1.8933   -2.1993   -2.3980 H   0  0  0  0  0  0  0  0  0  0  0  0
   -2.1247    0.6557   -0.2728 H   0  0  0  0  0  0  0  0  0  0  0  0
   -1.8129    1.7171    0.4351 C   0  0  0  0  0  3  0  0  0  0  0  0
   -1.1087    1.2610    1.6821 C   0  0  0  0  0  0  0  0  0  0  0  0
    0.1230    0.4176    1.4206 C   0  0  0  0  0  0  0  0  0  0  0  0
    1.0301    1.1929    0.6249 O   0  0  0  0  0  0  0  0  0  0  0  0
    1.9907    0.5277   -0.0067 C   0  0  0  0  0  0  0  0  0  0  0  0
    2.2102   -0.6451    0.0738 O   0  0  0  0  0  0  0  0  0  0  0  0
   -2.7783    2.1923    0.5957 H   0  0  0  0  0  0  0  0  0  0  0  0
   -1.1895    2.2466   -0.2821 H   0  0  0  0  0  0  0  0  0  0  0  0
   -1.7862    0.6765    2.3091 H   0  0  0  0  0  0  0  0  0  0  0  0
   -0.8246    2.1432    2.2695 H   0  0  0  0  0  0  0  0  0  0  0  0
   -0.1249   -0.4953    0.8814 H   0  0  0  0  0  0  0  0  0  0  0  0
    0.6197    0.1458    2.3539 H   0  0  0  0  0  0  0  0  0  0  0  0
    2.5709    1.2294   -0.6212 H   0  0  0  0  0  0  0  0  0  0  0  0
  1  2  1  0
  1  5  1  0
  1  6  1  0
  1  7  1  0
  2  3  2  3
  2  8  1  0
  3  4  1  0
  4  9  1  0
 10 11  1  0
 10 16  1  0
 10 17  1  0
 11 12  1  0
 11 18  1  0
 11 19  1  0
 12 13  1  0
 12 20  1  0
 12 21  1  0
 13 14  1  0
 14 15  2  0
 14 22  1  0
M  RAD  1  10   2
M  END
>  <reaction>  (4) 
rmg_rxn_1446

>  <mol_properties>  (4) 
{"2": {"label": "*0", "atom_type": "N3d"}, "3": {"label": "*1", "atom_type": "O2s"}, "8": {"label": "*2", "atom_type": "H0"}, "9": {"label": "*3", "atom_type": "Cs"}, "10": {"label": "*4", "atom_type": "Cs"}}

>  <type>  (4) 
ts

$$$$

     RDKit          3D

 22 20  0  0  0  0  0  0  0  0999 V2000
   -3.6554    0.2486    0.5126 C   0  0  0  0  0  0  0  0  0  0  0  0
   -2.2881   -0.3087    0.3545 C   0  0  0  0  0  0  0  0  0  0  0  0
   -1.7762   -0.4361   -0.7860 N   0  0  0  0  0  0  0  0  0  0  0  0
   -0.5996   -0.8800   -1.0739 O   0  0  0  0  0  0  0  0  0  0  0  0
   -4.2892   -0.4566    1.0485 H   0  0  0  0  0  0  0  0  0  0  0  0
   -3.6069    1.1666    1.0965 H   0  0  0  0  0  0  0  0  0  0  0  0
   -4.0907    0.4622   -0.4589 H   0  0  0  0  0  0  0  0  0  0  0  0
   -1.7461   -0.5850    1.2613 H   0  0  0  0  0  0  0  0  0  0  0  0
    0.1064   -1.2461   -0.2220 H   0  0  0  0  0  0  0  0  0  0  0  0
    0.9593   -1.7036    0.6537 C   0  0  0  0  0  3  0  0  0  0  0  0
    2.3304   -1.2292    0.2459 C   0  0  0  0  0  0  0  0  0  0  0  0
    2.4978    0.2854    0.3739 C   0  0  0  0  0  0  0  0  0  0  0  0
    1.7800    0.9775   -0.6519 O   0  0  0  0  0  0  0  0  0  0  0  0
    0.6085    1.4945   -0.3453 C   0  0  0  0  0  0  0  0  0  0  0  0
    0.0747    1.4982    0.7276 O   0  0  0  0  0  0  0  0  0  0  0  0
    0.8459   -2.7795    0.5865 H   0  0  0  0  0  0  0  0  0  0  0  0
    0.6524   -1.3246    1.6225 H   0  0  0  0  0  0  0  0  0  0  0  0
    2.5359   -1.5206   -0.7861 H   0  0  0  0  0  0  0  0  0  0  0  0
    3.0911   -1.6967    0.8828 H   0  0  0  0  0  0  0  0  0  0  0  0
    3.5451    0.5668    0.2401 H   0  0  0  0  0  0  0  0  0  0  0  0
    2.1414    0.6308    1.3504 H   0  0  0  0  0  0  0  0  0  0  0  0
    0.1852    1.9681   -1.2461 H   0  0  0  0  0  0  0  0  0  0  0  0
  1  2  1  0
  1  5  1  0
  1  6  1  0
  1  7  1  0
  2  3  2  3
  2  8  1  0
  3  4  1  0
  4  9  1  0
 10 11  1  0
 10 16  1  0
 10 17  1  0
 11 12  1  0
 11 18  1  0
 11 19  1  0
 12 13  1  0
 12 20  1  0
 12 21  1  0
 13 14  1  0
 14 15  2  0
 14 22  1  0
M  RAD  1  10   2
M  END
>  <reaction>  (5) 
rmg_rxn_1446

>  <mol_properties>  (5) 
{"2": {"label": "*0", "atom_type": "N3d"}, "3": {"label": "*1", "atom_type": "O2s"}, "8": {"label": "*2", "atom_type": "H0"}, "9": {"label": "*3", "atom_type": "Cs"}, "10": {"label": "*4", "atom_type": "Cs"}}

>  <type>  (5) 
unop_1

>  <geom_source>  (5) 
crest_best.xyz

$$$$

     RDKit          3D

 22 20  0  0  0  0  0  0  0  0999 V2000
    0.7931   -1.2122   -4.3344 C   0  0  0  0  0  0  0  0  0  0  0  0
    0.7931   -1.2122   -2.8457 C   0  0  0  0  0  0  0  0  0  0  0  0
    0.7931   -0.1201   -2.2089 N   0  0  0  0  0  0  0  0  0  0  0  0
    0.7931   -0.3248   -0.8357 O   0  0  0  0  0  0  0  0  0  0  0  0
    1.6726   -1.7360   -4.7162 H   0  0  0  0  0  0  0  0  0  0  0  0
   -0.0863   -1.7360   -4.7162 H   0  0  0  0  0  0  0  0  0  0  0  0
    0.7931   -0.1925   -4.7158 H   0  0  0  0  0  0  0  0  0  0  0  0
    0.7931   -2.1597   -2.3056 H   0  0  0  0  0  0  0  0  0  0  0  0
    0.7931    0.7449   -0.4123 H   0  0  0  0  0  0  0  0  0  0  0  0
    0.7931    1.9638    0.0701 C   0  0  0  0  0  3  0  0  0  0  0  0
   -0.4387    2.2081    0.9317 C   0  0  0  0  0  0  0  0  0  0  0  0
   -1.1014    0.9363    1.4107 C   0  0  0  0  0  0  0  0  0  0  0  0
   -0.1815    0.2482    2.2749 O   0  0  0  0  0  0  0  0  0  0  0  0
   -0.5851   -0.9228    2.7551 C   0  0  0  0  0  0  0  0  0  0  0  0
   -1.6360   -1.4490    2.5338 O   0  0  0  0  0  0  0  0  0  0  0  0
    1.2250    2.9063   -0.2680 H   0  0  0  0  0  0  0  0  0  0  0  0
    1.5590    1.4228    0.6265 H   0  0  0  0  0  0  0  0  0  0  0  0
   -1.1869    2.7683    0.3646 H   0  0  0  0  0  0  0  0  0  0  0  0
   -0.1792    2.8209    1.7985 H   0  0  0  0  0  0  0  0  0  0  0  0
   -1.3581    0.2779    0.5776 H   0  0  0  0  0  0  0  0  0  0  0  0
   -2.0159    1.1428    1.9693 H   0  0  0  0  0  0  0  0  0  0  0  0
    0.2011   -1.3439    3.3965 H   0  0  0  0  0  0  0  0  0  0  0  0
  1  2  1  0
  1  5  1  0
  1  6  1  0
  1  7  1  0
  2  3  2  3
  2  8  1  0
  3  4  1  0
  4  9  1  0
 10 11  1  0
 10 16  1  0
 10 17  1  0
 11 12  1  0
 11 18  1  0
 11 19  1  0
 12 13  1  0
 12 20  1  0
 12 21  1  0
 13 14  1  0
 14 15  2  0
 14 22  1  0
M  RAD  1  10   2
M  END
>  <reaction>  (6) 
rmg_rxn_1446

>  <mol_properties>  (6) 
{"2": {"label": "*0", "atom_type": "N3d"}, "3": {"label": "*1", "atom_type": "O2s"}, "8": {"label": "*2", "atom_type": "H0"}, "9": {"label": "*3", "atom_type": "Cs"}, "10": {"label": "*4", "atom_type": "Cs"}}

>  <type>  (6) 
unop_2

>  <geom_source>  (6) 
Heuristics

$$$$

     RDKit          3D

 22 20  0  0  0  0  0  0  0  0999 V2000
   -3.6546   -0.2481    0.5135 C   0  0  0  0  0  0  0  0  0  0  0  0
   -2.2874    0.3093    0.3547 C   0  0  0  0  0  0  0  0  0  0  0  0
   -1.7759    0.4360   -0.7861 N   0  0  0  0  0  0  0  0  0  0  0  0
   -0.5992    0.8797   -1.0746 O   0  0  0  0  0  0  0  0  0  0  0  0
   -3.6058   -1.1659    1.0978 H   0  0  0  0  0  0  0  0  0  0  0  0
   -4.2881    0.4574    1.0495 H   0  0  0  0  0  0  0  0  0  0  0  0
   -4.0904   -0.4622   -0.4576 H   0  0  0  0  0  0  0  0  0  0  0  0
   -1.7452    0.5861    1.2611 H   0  0  0  0  0  0  0  0  0  0  0  0
    0.1070    1.2464   -0.2231 H   0  0  0  0  0  0  0  0  0  0  0  0
    0.9596    1.7047    0.6523 C   0  0  0  0  0  3  0  0  0  0  0  0
    2.3307    1.2289    0.2463 C   0  0  0  0  0  0  0  0  0  0  0  0
    2.4967   -0.2857    0.3755 C   0  0  0  0  0  0  0  0  0  0  0  0
    1.7800   -0.9779   -0.6511 O   0  0  0  0  0  0  0  0  0  0  0  0
    0.6082   -1.4949   -0.3458 C   0  0  0  0  0  0  0  0  0  0  0  0
    0.0733   -1.4986    0.7265 O   0  0  0  0  0  0  0  0  0  0  0  0
    0.6518    1.3275    1.6215 H   0  0  0  0  0  0  0  0  0  0  0  0
    0.8470    2.7806    0.5834 H   0  0  0  0  0  0  0  0  0  0  0  0
    3.0912    1.6962    0.8837 H   0  0  0  0  0  0  0  0  0  0  0  0
    2.5374    1.5193   -0.7858 H   0  0  0  0  0  0  0  0  0  0  0  0
    2.1384   -0.6303    1.3515 H   0  0  0  0  0  0  0  0  0  0  0  0
    3.5440   -0.5680    0.2436 H   0  0  0  0  0  0  0  0  0  0  0  0
    0.1858   -1.9683   -1.2471 H   0  0  0  0  0  0  0  0  0  0  0  0
  1  2  1  0
  1  5  1  0
  1  6  1  0
  1  7  1  0
  2  3  2  3
  2  8  1  0
  3  4  1  0
  4  9  1  0
 10 11  1  0
 10 16  1  0
 10 17  1  0
 11 12  1  0
 11 18  1  0
 11 19  1  0
 12 13  1  0
 12 20  1  0
 12 21  1  0
 13 14  1  0
 14 15  2  0
 14 22  1  0
M  RAD  1  10   2
M  END
>  <reaction>  (7) 
rmg_rxn_1446

>  <mol_properties>  (7) 
{"2": {"label": "*0", "atom_type": "N3d"}, "3": {"label": "*1", "atom_type": "O2s"}, "8": {"label": "*2", "atom_type": "H0"}, "9": {"label": "*3", "atom_type": "Cs"}, "10": {"label": "*4", "atom_type": "Cs"}}

>  <type>  (7) 
unop_3

>  <geom_source>  (7) 
Heuristics

$$$$

     RDKit          3D

 22 20  0  0  0  0  0  0  0  0999 V2000
    1.4192   -2.1356   -2.7836 C   0  0  0  0  0  0  0  0  0  0  0  0
    1.4192   -2.1356   -1.2949 C   0  0  0  0  0  0  0  0  0  0  0  0
    1.4192   -1.0435   -0.6581 N   0  0  0  0  0  0  0  0  0  0  0  0
    1.4192   -1.2482    0.7151 O   0  0  0  0  0  0  0  0  0  0  0  0
    2.2987   -2.6594   -3.1654 H   0  0  0  0  0  0  0  0  0  0  0  0
    0.5398   -2.6594   -3.1654 H   0  0  0  0  0  0  0  0  0  0  0  0
    1.4192   -1.1159   -3.1650 H   0  0  0  0  0  0  0  0  0  0  0  0
    1.4192   -3.0831   -0.7548 H   0  0  0  0  0  0  0  0  0  0  0  0
    1.4192   -0.1785    1.1384 H   0  0  0  0  0  0  0  0  0  0  0  0
    1.4193    1.0405    1.6209 C   0  0  0  0  0  3  0  0  0  0  0  0
    0.7080    1.9998    0.6757 C   0  0  0  0  0  0  0  0  0  0  0  0
   -0.5475    1.4222    0.0625 C   0  0  0  0  0  0  0  0  0  0  0  0
   -1.4932    1.1807    1.1180 O   0  0  0  0  0  0  0  0  0  0  0  0
   -2.6468    0.6264    0.7624 C   0  0  0  0  0  0  0  0  0  0  0  0
   -2.9643    0.3142   -0.3476 O   0  0  0  0  0  0  0  0  0  0  0  0
    2.3273    1.4912    2.0227 H   0  0  0  0  0  0  0  0  0  0  0  0
    0.7777    0.7701    2.4600 H   0  0  0  0  0  0  0  0  0  0  0  0
    1.3724    2.2752   -0.1477 H   0  0  0  0  0  0  0  0  0  0  0  0
    0.4543    2.9263    1.1968 H   0  0  0  0  0  0  0  0  0  0  0  0
   -0.3473    0.4787   -0.4507 H   0  0  0  0  0  0  0  0  0  0  0  0
   -0.9973    2.1072   -0.6581 H   0  0  0  0  0  0  0  0  0  0  0  0
   -3.2773    0.4950    1.6523 H   0  0  0  0  0  0  0  0  0  0  0  0
  1  2  1  0
  1  5  1  0
  1  6  1  0
  1  7  1  0
  2  3  2  3
  2  8  1  0
  3  4  1  0
  4  9  1  0
 10 11  1  0
 10 16  1  0
 10 17  1  0
 11 12  1  0
 11 18  1  0
 11 19  1  0
 12 13  1  0
 12 20  1  0
 12 21  1  0
 13 14  1  0
 14 15  2  0
 14 22  1  0
M  RAD  1  10   2
M  END
>  <reaction>  (8) 
rmg_rxn_1446

>  <mol_properties>  (8) 
{"2": {"label": "*0", "atom_type": "N3d"}, "3": {"label": "*1", "atom_type": "O2s"}, "8": {"label": "*2", "atom_type": "H0"}, "9": {"label": "*3", "atom_type": "Cs"}, "10": {"label": "*4", "atom_type": "Cs"}}

>  <type>  (8) 
unop_4

>  <geom_source>  (8) 
Heuristics

$$$$

     RDKit          3D

 22 20  0  0  0  0  0  0  0  0999 V2000
   -3.2550   -1.5056    0.1595 C   0  0  0  0  0  0  0  0  0  0  0  0
   -2.2053   -0.4884   -0.1078 C   0  0  0  0  0  0  0  0  0  0  0  0
   -2.3749    0.7096    0.2336 N   0  0  0  0  0  0  0  0  0  0  0  0
   -1.5692    1.7033    0.0813 O   0  0  0  0  0  0  0  0  0  0  0  0
   -2.8389   -2.3108    0.7629 H   0  0  0  0  0  0  0  0  0  0  0  0
   -4.0969   -1.0573    0.6788 H   0  0  0  0  0  0  0  0  0  0  0  0
   -3.5981   -1.9395   -0.7789 H   0  0  0  0  0  0  0  0  0  0  0  0
   -1.2899   -0.8313   -0.5939 H   0  0  0  0  0  0  0  0  0  0  0  0
   -0.5425    1.5562   -0.4519 H   0  0  0  0  0  0  0  0  0  0  0  0
    0.6370    1.5459   -1.0118 C   0  0  0  0  0  3  0  0  0  0  0  0
    1.6532    1.6774    0.0950 C   0  0  0  0  0  0  0  0  0  0  0  0
    1.7835    0.4065    0.9341 C   0  0  0  0  0  0  0  0  0  0  0  0
    2.5549   -0.5815    0.2344 O   0  0  0  0  0  0  0  0  0  0  0  0
    1.9323   -1.6029   -0.3076 C   0  0  0  0  0  0  0  0  0  0  0  0
    0.7595   -1.8442   -0.2799 O   0  0  0  0  0  0  0  0  0  0  0  0
    0.6155    2.4083   -1.6673 H   0  0  0  0  0  0  0  0  0  0  0  0
    0.7219    0.6241   -1.5765 H   0  0  0  0  0  0  0  0  0  0  0  0
    1.3723    2.4999    0.7554 H   0  0  0  0  0  0  0  0  0  0  0  0
    2.6424    1.9088   -0.3184 H   0  0  0  0  0  0  0  0  0  0  0  0
    0.7997   -0.0082    1.1734 H   0  0  0  0  0  0  0  0  0  0  0  0
    2.3342    0.6078    1.8558 H   0  0  0  0  0  0  0  0  0  0  0  0
    2.6778   -2.2424   -0.8119 H   0  0  0  0  0  0  0  0  0  0  0  0
  1  2  1  0
  1  5  1  0
  1  6  1  0
  1  7  1  0
  2  3  2  3
  2  8  1  0
  3  4  1  0
  4  9  1  0
 10 11  1  0
 10 16  1  0
 10 17  1  0
 11 12  1  0
 11 18  1  0
 11 19  1  0
 12 13  1  0
 12 20  1  0
 12 21  1  0
 13 14  1  0
 14 15  2  0
 14 22  1  0
M  RAD  1  10   2
M  END
>  <reaction>  (9) 
rmg_rxn_1446

>  <mol_properties>  (9) 
{"2": {"label": "*0", "atom_type": "N3d"}, "3": {"label": "*1", "atom_type": "O2s"}, "8": {"label": "*2", "atom_type": "H0"}, "9": {"label": "*3", "atom_type": "Cs"}, "10": {"label": "*4", "atom_type": "Cs"}}

>  <type>  (9) 
unop_5

>  <geom_source>  (9) 
Heuristics

$$$$

     RDKit          3D

 22 20  0  0  0  0  0  0  0  0999 V2000
   -0.0906   -1.2381   -4.6326 C   0  0  0  0  0  0  0  0  0  0  0  0
   -0.0906   -1.2381   -3.1440 C   0  0  0  0  0  0  0  0  0  0  0  0
   -0.0906   -0.1460   -2.5072 N   0  0  0  0  0  0  0  0  0  0  0  0
   -0.0906   -0.3507   -1.1340 O   0  0  0  0  0  0  0  0  0  0  0  0
    0.7888   -1.7619   -5.0144 H   0  0  0  0  0  0  0  0  0  0  0  0
   -0.9700   -1.7619   -5.0144 H   0  0  0  0  0  0  0  0  0  0  0  0
   -0.0906   -0.2184   -5.0140 H   0  0  0  0  0  0  0  0  0  0  0  0
   -0.0906   -2.1856   -2.6038 H   0  0  0  0  0  0  0  0  0  0  0  0
   -0.0906    0.7190   -0.7106 H   0  0  0  0  0  0  0  0  0  0  0  0
   -0.0906    1.9379   -0.2282 C   0  0  0  0  0  3  0  0  0  0  0  0
   -0.8018    1.9906    1.1175 C   0  0  0  0  0  0  0  0  0  0  0  0
   -0.6907    0.7071    1.9089 C   0  0  0  0  0  0  0  0  0  0  0  0
    0.6937    0.4986    2.2352 O   0  0  0  0  0  0  0  0  0  0  0  0
    0.9836   -0.6164    2.8963 C   0  0  0  0  0  0  0  0  0  0  0  0
    0.2016   -1.4533    3.2406 O   0  0  0  0  0  0  0  0  0  0  0  0
   -0.2141    2.8757   -0.7709 H   0  0  0  0  0  0  0  0  0  0  0  0
    0.9776    1.7613   -0.0997 H   0  0  0  0  0  0  0  0  0  0  0  0
   -1.8670    2.1881    0.9704 H   0  0  0  0  0  0  0  0  0  0  0  0
   -0.4110    2.8140    1.7205 H   0  0  0  0  0  0  0  0  0  0  0  0
   -1.0483   -0.1514    1.3356 H   0  0  0  0  0  0  0  0  0  0  0  0
   -1.2639    0.7534    2.8364 H   0  0  0  0  0  0  0  0  0  0  0  0
    2.0652   -0.6578    3.0841 H   0  0  0  0  0  0  0  0  0  0  0  0
  1  2  1  0
  1  5  1  0
  1  6  1  0
  1  7  1  0
  2  3  2  3
  2  8  1  0
  3  4  1  0
  4  9  1  0
 10 11  1  0
 10 16  1  0
 10 17  1  0
 11 12  1  0
 11 18  1  0
 11 19  1  0
 12 13  1  0
 12 20  1  0
 12 21  1  0
 13 14  1  0
 14 15  2  0
 14 22  1  0
M  RAD  1  10   2
M  END
>  <reaction>  (10) 
rmg_rxn_1446

>  <mol_properties>  (10) 
{"2": {"label": "*0", "atom_type": "N3d"}, "3": {"label": "*1", "atom_type": "O2s"}, "8": {"label": "*2", "atom_type": "H0"}, "9": {"label": "*3", "atom_type": "Cs"}, "10": {"label": "*4", "atom_type": "Cs"}}

>  <type>  (10) 
unop_6

>  <geom_source>  (10) 
Heuristics

$$$$

     RDKit          3D

 22 20  0  0  0  0  0  0  0  0999 V2000
   -0.2060   -3.2434   -2.3626 C   0  0  0  0  0  0  0  0  0  0  0  0
   -0.2060   -3.2434   -0.8739 C   0  0  0  0  0  0  0  0  0  0  0  0
   -0.2060   -2.1513   -0.2371 N   0  0  0  0  0  0  0  0  0  0  0  0
   -0.2060   -2.3560    1.1361 O   0  0  0  0  0  0  0  0  0  0  0  0
    0.6734   -3.7672   -2.7444 H   0  0  0  0  0  0  0  0  0  0  0  0
   -1.0854   -3.7672   -2.7444 H   0  0  0  0  0  0  0  0  0  0  0  0
   -0.2060   -2.2237   -2.7440 H   0  0  0  0  0  0  0  0  0  0  0  0
   -0.2060   -4.1909   -0.3338 H   0  0  0  0  0  0  0  0  0  0  0  0
   -0.2060   -1.2863    1.5595 H   0  0  0  0  0  0  0  0  0  0  0  0
   -0.2060   -0.0673    2.0419 C   0  0  0  0  0  3  0  0  0  0  0  0
    1.0259    0.7004    1.5809 C   0  0  0  0  0  0  0  0  0  0  0  0
    0.8154    1.4594    0.2903 C   0  0  0  0  0  0  0  0  0  0  0  0
   -0.1803    2.4704    0.5207 O   0  0  0  0  0  0  0  0  0  0  0  0
   -0.5260    3.2092   -0.5277 C   0  0  0  0  0  0  0  0  0  0  0  0
   -0.0856    3.1081   -1.6351 O   0  0  0  0  0  0  0  0  0  0  0  0
   -0.0020   -0.6140    2.9632 H   0  0  0  0  0  0  0  0  0  0  0  0
   -1.0410    0.6084    2.2291 H   0  0  0  0  0  0  0  0  0  0  0  0
    1.8577    0.0100    1.4175 H   0  0  0  0  0  0  0  0  0  0  0  0
    1.3477    1.4007    2.3557 H   0  0  0  0  0  0  0  0  0  0  0  0
    0.4684    0.8026   -0.5108 H   0  0  0  0  0  0  0  0  0  0  0  0
    1.7327    1.9447   -0.0474 H   0  0  0  0  0  0  0  0  0  0  0  0
   -1.2882    3.9394   -0.2233 H   0  0  0  0  0  0  0  0  0  0  0  0
  1  2  1  0
  1  5  1  0
  1  6  1  0
  1  7  1  0
  2  3  2  3
  2  8  1  0
  3  4  1  0
  4  9  1  0
 10 11  1  0
 10 16  1  0
 10 17  1  0
 11 12  1  0
 11 18  1  0
 11 19  1  0
 12 13  1  0
 12 20  1  0
 12 21  1  0
 13 14  1  0
 14 15  2  0
 14 22  1  0
M  RAD  1  10   2
M  END
>  <reaction>  (11) 
rmg_rxn_1446

>  <mol_properties>  (11) 
{"2": {"label": "*0", "atom_type": "N3d"}, "3": {"label": "*1", "atom_type": "O2s"}, "8": {"label": "*2", "atom_type": "H0"}, "9": {"label": "*3", "atom_type": "Cs"}, "10": {"label": "*4", "atom_type": "Cs"}}

>  <type>  (11) 
unop_7

>  <geom_source>  (11) 
Heuristics

$$$$

     RDKit          3D

 22 20  0  0  0  0  0  0  0  0999 V2000
   -3.6542   -0.2487    0.5134 C   0  0  0  0  0  0  0  0  0  0  0  0
   -2.2872    0.3092    0.3547 C   0  0  0  0  0  0  0  0  0  0  0  0
   -1.7757    0.4368   -0.7860 N   0  0  0  0  0  0  0  0  0  0  0  0
   -0.5992    0.8809   -1.0743 O   0  0  0  0  0  0  0  0  0  0  0  0
   -4.0898   -0.4623   -0.4579 H   0  0  0  0  0  0  0  0  0  0  0  0
   -3.6051   -1.1667    1.0971 H   0  0  0  0  0  0  0  0  0  0  0  0
   -4.2879    0.4564    1.0496 H   0  0  0  0  0  0  0  0  0  0  0  0
   -1.7449    0.5857    1.2613 H   0  0  0  0  0  0  0  0  0  0  0  0
    0.1071    1.2469   -0.2226 H   0  0  0  0  0  0  0  0  0  0  0  0
    0.9600    1.7045    0.6530 C   0  0  0  0  0  3  0  0  0  0  0  0
    2.3308    1.2284    0.2464 C   0  0  0  0  0  0  0  0  0  0  0  0
    2.4966   -0.2863    0.3751 C   0  0  0  0  0  0  0  0  0  0  0  0
    1.7795   -0.9779   -0.6515 O   0  0  0  0  0  0  0  0  0  0  0  0
    0.6077   -1.4949   -0.3461 C   0  0  0  0  0  0  0  0  0  0  0  0
    0.0730   -1.4986    0.7264 O   0  0  0  0  0  0  0  0  0  0  0  0
    0.6521    1.3269    1.6220 H   0  0  0  0  0  0  0  0  0  0  0  0
    0.8478    2.7805    0.5846 H   0  0  0  0  0  0  0  0  0  0  0  0
    3.0916    1.6953    0.8838 H   0  0  0  0  0  0  0  0  0  0  0  0
    2.5375    1.5191   -0.7855 H   0  0  0  0  0  0  0  0  0  0  0  0
    2.1385   -0.6312    1.3511 H   0  0  0  0  0  0  0  0  0  0  0  0
    3.5439   -0.5689    0.2428 H   0  0  0  0  0  0  0  0  0  0  0  0
    0.1848   -1.9676   -1.2474 H   0  0  0  0  0  0  0  0  0  0  0  0
  1  2  1  0
  1  5  1  0
  1  6  1  0
  1  7  1  0
  2  3  2  3
  2  8  1  0
  3  4  1  0
  4  9  1  0
 10 11  1  0
 10 16  1  0
 10 17  1  0
 11 12  1  0
 11 18  1  0
 11 19  1  0
 12 13  1  0
 12 20  1  0
 12 21  1  0
 13 14  1  0
 14 15  2  0
 14 22  1  0
M  RAD  1  10   2
M  END
>  <reaction>  (12) 
rmg_rxn_1446

>  <mol_properties>  (12) 
{"2": {"label": "*0", "atom_type": "N3d"}, "3": {"label": "*1", "atom_type": "O2s"}, "8": {"label": "*2", "atom_type": "H0"}, "9": {"label": "*3", "atom_type": "Cs"}, "10": {"label": "*4", "atom_type": "Cs"}}

>  <type>  (12) 
unop_8

>  <geom_source>  (12) 
Heuristics

$$$$

     RDKit          3D

 22 20  0  0  0  0  0  0  0  0999 V2000
   -1.0894   -1.8176   -4.4099 C   0  0  0  0  0  0  0  0  0  0  0  0
   -1.0894   -1.8176   -2.9212 C   0  0  0  0  0  0  0  0  0  0  0  0
   -1.0894   -0.7255   -2.2845 N   0  0  0  0  0  0  0  0  0  0  0  0
   -1.0894   -0.9302   -0.9113 O   0  0  0  0  0  0  0  0  0  0  0  0
   -0.2100   -2.3414   -4.7917 H   0  0  0  0  0  0  0  0  0  0  0  0
   -1.9689   -2.3414   -4.7917 H   0  0  0  0  0  0  0  0  0  0  0  0
   -1.0894   -0.7979   -4.7913 H   0  0  0  0  0  0  0  0  0  0  0  0
   -1.0894   -2.7651   -2.3811 H   0  0  0  0  0  0  0  0  0  0  0  0
   -1.0894    0.1395   -0.4879 H   0  0  0  0  0  0  0  0  0  0  0  0
   -1.0894    1.3584   -0.0055 C   0  0  0  0  0  3  0  0  0  0  0  0
   -1.0894    1.3409    1.5174 C   0  0  0  0  0  0  0  0  0  0  0  0
    0.0990    0.6198    2.1122 C   0  0  0  0  0  0  0  0  0  0  0  0
    1.2886    1.3434    1.7550 O   0  0  0  0  0  0  0  0  0  0  0  0
    2.4414    0.8217    2.1593 C   0  0  0  0  0  0  0  0  0  0  0  0
    2.5747   -0.1868    2.7882 O   0  0  0  0  0  0  0  0  0  0  0  0
   -1.9727    1.8701   -0.3891 H   0  0  0  0  0  0  0  0  0  0  0  0
   -0.2084    1.8722   -0.3910 H   0  0  0  0  0  0  0  0  0  0  0  0
   -1.9886    0.8401    1.8859 H   0  0  0  0  0  0  0  0  0  0  0  0
   -1.1169    2.3613    1.9079 H   0  0  0  0  0  0  0  0  0  0  0  0
    0.1823   -0.4006    1.7312 H   0  0  0  0  0  0  0  0  0  0  0  0
    0.0367    0.5676    3.2005 H   0  0  0  0  0  0  0  0  0  0  0  0
    3.2684    1.4634    1.8260 H   0  0  0  0  0  0  0  0  0  0  0  0
  1  2  1  0
  1  5  1  0
  1  6  1  0
  1  7  1  0
  2  3  2  3
  2  8  1  0
  3  4  1  0
  4  9  1  0
 10 11  1  0
 10 16  1  0
 10 17  1  0
 11 12  1  0
 11 18  1  0
 11 19  1  0
 12 13  1  0
 12 20  1  0
 12 21  1  0
 13 14  1  0
 14 15  2  0
 14 22  1  0
M  RAD  1  10   2
M  END
>  <reaction>  (13) 
rmg_rxn_1446

>  <mol_properties>  (13) 
{"2": {"label": "*0", "atom_type": "N3d"}, "3": {"label": "*1", "atom_type": "O2s"}, "8": {"label": "*2", "atom_type": "H0"}, "9": {"label": "*3", "atom_type": "Cs"}, "10": {"label": "*4", "atom_type": "Cs"}}

>  <type>  (13) 
unop_9

>  <geom_source>  (13) 
Heuristics

$$$$

     RDKit          3D

 22 20  0  0  0  0  0  0  0  0999 V2000
   -3.6556    0.2489    0.5121 C   0  0  0  0  0  0  0  0  0  0  0  0
   -2.2883   -0.3086    0.3545 C   0  0  0  0  0  0  0  0  0  0  0  0
   -1.7763   -0.4364   -0.7859 N   0  0  0  0  0  0  0  0  0  0  0  0
   -0.5995   -0.8805   -1.0735 O   0  0  0  0  0  0  0  0  0  0  0  0
   -3.6073    1.1671    1.0957 H   0  0  0  0  0  0  0  0  0  0  0  0
   -4.0907    0.4623   -0.4595 H   0  0  0  0  0  0  0  0  0  0  0  0
   -4.2895   -0.4562    1.0480 H   0  0  0  0  0  0  0  0  0  0  0  0
   -1.7465   -0.5846    1.2614 H   0  0  0  0  0  0  0  0  0  0  0  0
    0.1065   -1.2461   -0.2214 H   0  0  0  0  0  0  0  0  0  0  0  0
    0.9596   -1.7031    0.6543 C   0  0  0  0  0  3  0  0  0  0  0  0
    2.3305   -1.2291    0.2457 C   0  0  0  0  0  0  0  0  0  0  0  0
    2.4981    0.2855    0.3732 C   0  0  0  0  0  0  0  0  0  0  0  0
    1.7797    0.9776   -0.6523 O   0  0  0  0  0  0  0  0  0  0  0  0
    0.6083    1.4945   -0.3451 C   0  0  0  0  0  0  0  0  0  0  0  0
    0.0749    1.4978    0.7280 O   0  0  0  0  0  0  0  0  0  0  0  0
    0.8462   -2.7791    0.5880 H   0  0  0  0  0  0  0  0  0  0  0  0
    0.6528   -1.3234    1.6229 H   0  0  0  0  0  0  0  0  0  0  0  0
    2.5354   -1.5208   -0.7863 H   0  0  0  0  0  0  0  0  0  0  0  0
    3.0915   -1.6964    0.8824 H   0  0  0  0  0  0  0  0  0  0  0  0
    3.5454    0.5668    0.2385 H   0  0  0  0  0  0  0  0  0  0  0  0
    2.1425    0.6313    1.3498 H   0  0  0  0  0  0  0  0  0  0  0  0
    0.1843    1.9677   -1.2457 H   0  0  0  0  0  0  0  0  0  0  0  0
  1  2  1  0
  1  5  1  0
  1  6  1  0
  1  7  1  0
  2  3  2  3
  2  8  1  0
  3  4  1  0
  4  9  1  0
 10 11  1  0
 10 16  1  0
 10 17  1  0
 11 12  1  0
 11 18  1  0
 11 19  1  0
 12 13  1  0
 12 20  1  0
 12 21  1  0
 13 14  1  0
 14 15  2  0
 14 22  1  0
M  RAD  1  10   2
M  END
>  <reaction>  (14) 
rmg_rxn_1446

>  <mol_properties>  (14) 
{"2": {"label": "*0", "atom_type": "N3d"}, "3": {"label": "*1", "atom_type": "O2s"}, "8": {"label": "*2", "atom_type": "H0"}, "9": {"label": "*3", "atom_type": "Cs"}, "10": {"label": "*4", "atom_type": "Cs"}}

>  <type>  (14) 
unop_10

>  <geom_source>  (14) 
Heuristics

$$$$

     RDKit          3D

 22 20  0  0  0  0  0  0  0  0999 V2000
   -0.8062   -3.2383   -2.7246 C   0  0  0  0  0  0  0  0  0  0  0  0
   -0.8062   -3.2383   -1.2360 C   0  0  0  0  0  0  0  0  0  0  0  0
   -0.8062   -2.1462   -0.5992 N   0  0  0  0  0  0  0  0  0  0  0  0
   -0.8062   -2.3509    0.7740 O   0  0  0  0  0  0  0  0  0  0  0  0
    0.0732   -3.7621   -3.1064 H   0  0  0  0  0  0  0  0  0  0  0  0
   -1.6856   -3.7621   -3.1064 H   0  0  0  0  0  0  0  0  0  0  0  0
   -0.8062   -2.2186   -3.1061 H   0  0  0  0  0  0  0  0  0  0  0  0
   -0.8062   -4.1858   -0.6958 H   0  0  0  0  0  0  0  0  0  0  0  0
   -0.8062   -1.2813    1.1974 H   0  0  0  0  0  0  0  0  0  0  0  0
   -0.8062   -0.0623    1.6798 C   0  0  0  0  0  3  0  0  0  0  0  0
    0.6162    0.4437    1.8801 C   0  0  0  0  0  0  0  0  0  0  0  0
    1.1085    1.3215    0.7517 C   0  0  0  0  0  0  0  0  0  0  0  0
    0.2992    2.5091    0.7202 O   0  0  0  0  0  0  0  0  0  0  0  0
    0.5648    3.3798   -0.2472 C   0  0  0  0  0  0  0  0  0  0  0  0
    1.4100    3.2634   -1.0854 O   0  0  0  0  0  0  0  0  0  0  0  0
   -1.1107   -0.7055    2.5061 H   0  0  0  0  0  0  0  0  0  0  0  0
   -1.5119    0.7668    1.6206 H   0  0  0  0  0  0  0  0  0  0  0  0
    1.3064   -0.4006    1.9571 H   0  0  0  0  0  0  0  0  0  0  0  0
    0.6926    0.9973    2.8192 H   0  0  0  0  0  0  0  0  0  0  0  0
    1.0284    0.8176   -0.2143 H   0  0  0  0  0  0  0  0  0  0  0  0
    2.1505    1.6138    0.8922 H   0  0  0  0  0  0  0  0  0  0  0  0
   -0.1167    4.2372   -0.1627 H   0  0  0  0  0  0  0  0  0  0  0  0
  1  2  1  0
  1  5  1  0
  1  6  1  0
  1  7  1  0
  2  3  2  3
  2  8  1  0
  3  4  1  0
  4  9  1  0
 10 11  1  0
 10 16  1  0
 10 17  1  0
 11 12  1  0
 11 18  1  0
 11 19  1  0
 12 13  1  0
 12 20  1  0
 12 21  1  0
 13 14  1  0
 14 15  2  0
 14 22  1  0
M  RAD  1  10   2
M  END
>  <reaction>  (15) 
rmg_rxn_1446

>  <mol_properties>  (15) 
{"2": {"label": "*0", "atom_type": "N3d"}, "3": {"label": "*1", "atom_type": "O2s"}, "8": {"label": "*2", "atom_type": "H0"}, "9": {"label": "*3", "atom_type": "Cs"}, "10": {"label": "*4", "atom_type": "Cs"}}

>  <type>  (15) 
unop_11

>  <geom_source>  (15) 
Heuristics

$$$$

     RDKit          3D

 22 20  0  0  0  0  0  0  0  0999 V2000
   -3.6556    0.2488    0.5123 C   0  0  0  0  0  0  0  0  0  0  0  0
   -2.2884   -0.3089    0.3545 C   0  0  0  0  0  0  0  0  0  0  0  0
   -1.7763   -0.4362   -0.7860 N   0  0  0  0  0  0  0  0  0  0  0  0
   -0.5995   -0.8800   -1.0738 O   0  0  0  0  0  0  0  0  0  0  0  0
   -4.0907    0.4626   -0.4592 H   0  0  0  0  0  0  0  0  0  0  0  0
   -4.2895   -0.4565    1.0480 H   0  0  0  0  0  0  0  0  0  0  0  0
   -3.6071    1.1668    1.0964 H   0  0  0  0  0  0  0  0  0  0  0  0
   -1.7464   -0.5848    1.2614 H   0  0  0  0  0  0  0  0  0  0  0  0
    0.1065   -1.2460   -0.2218 H   0  0  0  0  0  0  0  0  0  0  0  0
    0.9595   -1.7033    0.6539 C   0  0  0  0  0  3  0  0  0  0  0  0
    2.3305   -1.2292    0.2457 C   0  0  0  0  0  0  0  0  0  0  0  0
    2.4979    0.2854    0.3736 C   0  0  0  0  0  0  0  0  0  0  0  0
    1.7799    0.9775   -0.6520 O   0  0  0  0  0  0  0  0  0  0  0  0
    0.6084    1.4944   -0.3452 C   0  0  0  0  0  0  0  0  0  0  0  0
    0.0749    1.4980    0.7278 O   0  0  0  0  0  0  0  0  0  0  0  0
    0.8461   -2.7793    0.5871 H   0  0  0  0  0  0  0  0  0  0  0  0
    0.6525   -1.3240    1.6226 H   0  0  0  0  0  0  0  0  0  0  0  0
    2.5356   -1.5205   -0.7863 H   0  0  0  0  0  0  0  0  0  0  0  0
    3.0913   -1.6967    0.8825 H   0  0  0  0  0  0  0  0  0  0  0  0
    3.5453    0.5668    0.2395 H   0  0  0  0  0  0  0  0  0  0  0  0
    2.1419    0.6309    1.3501 H   0  0  0  0  0  0  0  0  0  0  0  0
    0.1849    1.9679   -1.2458 H   0  0  0  0  0  0  0  0  0  0  0  0
  1  2  1  0
  1  5  1  0
  1  6  1  0
  1  7  1  0
  2  3  2  3
  2  8  1  0
  3  4  1  0
  4  9  1  0
 10 11  1  0
 10 16  1  0
 10 17  1  0
 11 12  1  0
 11 18  1  0
 11 19  1  0
 12 13  1  0
 12 20  1  0
 12 21  1  0
 13 14  1  0
 14 15  2  0
 14 22  1  0
M  RAD  1  10   2
M  END
>  <reaction>  (16) 
rmg_rxn_1446

>  <mol_properties>  (16) 
{"2": {"label": "*0", "atom_type": "N3d"}, "3": {"label": "*1", "atom_type": "O2s"}, "8": {"label": "*2", "atom_type": "H0"}, "9": {"label": "*3", "atom_type": "Cs"}, "10": {"label": "*4", "atom_type": "Cs"}}

>  <type>  (16) 
unop_12

>  <geom_source>  (16) 
Heuristics

$$$$

     RDKit          3D

 22 20  0  0  0  0  0  0  0  0999 V2000
   -1.2022   -3.0453   -3.2298 C   0  0  0  0  0  0  0  0  0  0  0  0
   -1.2022   -3.0453   -1.7412 C   0  0  0  0  0  0  0  0  0  0  0  0
   -1.2022   -1.9532   -1.1044 N   0  0  0  0  0  0  0  0  0  0  0  0
   -1.2022   -2.1579    0.2688 O   0  0  0  0  0  0  0  0  0  0  0  0
   -0.3228   -3.5691   -3.6116 H   0  0  0  0  0  0  0  0  0  0  0  0
   -2.0816   -3.5691   -3.6116 H   0  0  0  0  0  0  0  0  0  0  0  0
   -1.2022   -2.0256   -3.6113 H   0  0  0  0  0  0  0  0  0  0  0  0
   -1.2022   -3.9928   -1.2010 H   0  0  0  0  0  0  0  0  0  0  0  0
   -1.2022   -1.0882    0.6922 H   0  0  0  0  0  0  0  0  0  0  0  0
   -1.2022    0.1307    1.1746 C   0  0  0  0  0  3  0  0  0  0  0  0
    0.0297    0.3750    2.0362 C   0  0  0  0  0  0  0  0  0  0  0  0
    1.1385    1.1028    1.3104 C   0  0  0  0  0  0  0  0  0  0  0  0
    0.6654    2.4164    0.9685 O   0  0  0  0  0  0  0  0  0  0  0  0
    1.5017    3.1851    0.2799 C   0  0  0  0  0  0  0  0  0  0  0  0
    2.6027    2.8831   -0.0765 O   0  0  0  0  0  0  0  0  0  0  0  0
   -1.9657   -0.4130    1.7320 H   0  0  0  0  0  0  0  0  0  0  0  0
   -1.6373    1.0721    0.8379 H   0  0  0  0  0  0  0  0  0  0  0  0
    0.4403   -0.5779    2.3808 H   0  0  0  0  0  0  0  0  0  0  0  0
   -0.2402    0.9416    2.9308 H   0  0  0  0  0  0  0  0  0  0  0  0
    1.4266    0.5847    0.3927 H   0  0  0  0  0  0  0  0  0  0  0  0
    2.0297    1.2045    1.9321 H   0  0  0  0  0  0  0  0  0  0  0  0
    1.0260    4.1556    0.0828 H   0  0  0  0  0  0  0  0  0  0  0  0
  1  2  1  0
  1  5  1  0
  1  6  1  0
  1  7  1  0
  2  3  2  3
  2  8  1  0
  3  4  1  0
  4  9  1  0
 10 11  1  0
 10 16  1  0
 10 17  1  0
 11 12  1  0
 11 18  1  0
 11 19  1  0
 12 13  1  0
 12 20  1  0
 12 21  1  0
 13 14  1  0
 14 15  2  0
 14 22  1  0
M  RAD  1  10   2
M  END
>  <reaction>  (17) 
rmg_rxn_1446

>  <mol_properties>  (17) 
{"2": {"label": "*0", "atom_type": "N3d"}, "3": {"label": "*1", "atom_type": "O2s"}, "8": {"label": "*2", "atom_type": "H0"}, "9": {"label": "*3", "atom_type": "Cs"}, "10": {"label": "*4", "atom_type": "Cs"}}

>  <type>  (17) 
unop_13

>  <geom_source>  (17) 
Heuristics

$$$$

     RDKit          3D

 22 20  0  0  0  0  0  0  0  0999 V2000
    1.2987   -1.4203   -3.8201 C   0  0  0  0  0  0  0  0  0  0  0  0
    1.2987   -1.4203   -2.3314 C   0  0  0  0  0  0  0  0  0  0  0  0
    1.2987   -0.3283   -1.6946 N   0  0  0  0  0  0  0  0  0  0  0  0
    1.2987   -0.5329   -0.3214 O   0  0  0  0  0  0  0  0  0  0  0  0
    2.1781   -1.9442   -4.2019 H   0  0  0  0  0  0  0  0  0  0  0  0
    0.4193   -1.9442   -4.2019 H   0  0  0  0  0  0  0  0  0  0  0  0
    1.2987   -0.4006   -4.2015 H   0  0  0  0  0  0  0  0  0  0  0  0
    1.2987   -2.3678   -1.7913 H   0  0  0  0  0  0  0  0  0  0  0  0
    1.2987    0.5367    0.1020 H   0  0  0  0  0  0  0  0  0  0  0  0
    1.2987    1.7557    0.5844 C   0  0  0  0  0  3  0  0  0  0  0  0
   -0.1238    2.2617    0.7847 C   0  0  0  0  0  0  0  0  0  0  0  0
   -1.1532    1.1563    0.8512 C   0  0  0  0  0  0  0  0  0  0  0  0
   -0.8817    0.3587    2.0159 O   0  0  0  0  0  0  0  0  0  0  0  0
   -1.6685   -0.6943    2.2076 C   0  0  0  0  0  0  0  0  0  0  0  0
   -2.5739   -1.0330    1.5034 O   0  0  0  0  0  0  0  0  0  0  0  0
    2.0025    2.5864    0.5226 H   0  0  0  0  0  0  0  0  0  0  0  0
    1.6061    1.1146    1.4110 H   0  0  0  0  0  0  0  0  0  0  0  0
   -0.4075    2.9179   -0.0424 H   0  0  0  0  0  0  0  0  0  0  0  0
   -0.1877    2.8611    1.6962 H   0  0  0  0  0  0  0  0  0  0  0  0
   -1.1108    0.5134   -0.0310 H   0  0  0  0  0  0  0  0  0  0  0  0
   -2.1671    1.5526    0.9291 H   0  0  0  0  0  0  0  0  0  0  0  0
   -1.3608   -1.2169    3.1236 H   0  0  0  0  0  0  0  0  0  0  0  0
  1  2  1  0
  1  5  1  0
  1  6  1  0
  1  7  1  0
  2  3  2  3
  2  8  1  0
  3  4  1  0
  4  9  1  0
 10 11  1  0
 10 16  1  0
 10 17  1  0
 11 12  1  0
 11 18  1  0
 11 19  1  0
 12 13  1  0
 12 20  1  0
 12 21  1  0
 13 14  1  0
 14 15  2  0
 14 22  1  0
M  RAD  1  10   2
M  END
>  <reaction>  (18) 
rmg_rxn_1446

>  <mol_properties>  (18) 
{"2": {"label": "*0", "atom_type": "N3d"}, "3": {"label": "*1", "atom_type": "O2s"}, "8": {"label": "*2", "atom_type": "H0"}, "9": {"label": "*3", "atom_type": "Cs"}, "10": {"label": "*4", "atom_type": "Cs"}}

>  <type>  (18) 
unop_14

>  <geom_source>  (18) 
Heuristics

$$$$

     RDKit          3D

 22 20  0  0  0  0  0  0  0  0999 V2000
   -3.6554    0.2486    0.5126 C   0  0  0  0  0  0  0  0  0  0  0  0
   -2.2881   -0.3087    0.3545 C   0  0  0  0  0  0  0  0  0  0  0  0
   -1.7762   -0.4361   -0.7860 N   0  0  0  0  0  0  0  0  0  0  0  0
   -0.5996   -0.8800   -1.0739 O   0  0  0  0  0  0  0  0  0  0  0  0
   -4.2892   -0.4566    1.0485 H   0  0  0  0  0  0  0  0  0  0  0  0
   -3.6069    1.1666    1.0965 H   0  0  0  0  0  0  0  0  0  0  0  0
   -4.0907    0.4622   -0.4589 H   0  0  0  0  0  0  0  0  0  0  0  0
   -1.7461   -0.5850    1.2613 H   0  0  0  0  0  0  0  0  0  0  0  0
    0.1064   -1.2461   -0.2220 H   0  0  0  0  0  0  0  0  0  0  0  0
    0.9593   -1.7036    0.6537 C   0  0  0  0  0  3  0  0  0  0  0  0
    2.3304   -1.2292    0.2459 C   0  0  0  0  0  0  0  0  0  0  0  0
    2.4978    0.2854    0.3739 C   0  0  0  0  0  0  0  0  0  0  0  0
    1.7800    0.9775   -0.6519 O   0  0  0  0  0  0  0  0  0  0  0  0
    0.6085    1.4945   -0.3453 C   0  0  0  0  0  0  0  0  0  0  0  0
    0.0747    1.4982    0.7276 O   0  0  0  0  0  0  0  0  0  0  0  0
    0.8459   -2.7795    0.5865 H   0  0  0  0  0  0  0  0  0  0  0  0
    0.6524   -1.3246    1.6225 H   0  0  0  0  0  0  0  0  0  0  0  0
    2.5359   -1.5206   -0.7861 H   0  0  0  0  0  0  0  0  0  0  0  0
    3.0911   -1.6967    0.8828 H   0  0  0  0  0  0  0  0  0  0  0  0
    3.5451    0.5668    0.2401 H   0  0  0  0  0  0  0  0  0  0  0  0
    2.1414    0.6308    1.3504 H   0  0  0  0  0  0  0  0  0  0  0  0
    0.1852    1.9681   -1.2461 H   0  0  0  0  0  0  0  0  0  0  0  0
  1  2  1  0
  1  5  1  0
  1  6  1  0
  1  7  1  0
  2  3  2  3
  2  8  1  0
  3  4  1  0
  4  9  1  0
 10 11  1  0
 10 16  1  0
 10 17  1  0
 11 12  1  0
 11 18  1  0
 11 19  1  0
 12 13  1  0
 12 20  1  0
 12 21  1  0
 13 14  1  0
 14 15  2  0
 14 22  1  0
M  RAD  1  10   2
M  END
>  <reaction>  (19) 
rmg_rxn_1446

>  <mol_properties>  (19) 
{"2": {"label": "*0", "atom_type": "N3d"}, "3": {"label": "*1", "atom_type": "O2s"}, "8": {"label": "*2", "atom_type": "H0"}, "9": {"label": "*3", "atom_type": "Cs"}, "10": {"label": "*4", "atom_type": "Cs"}}

>  <type>  (19) 
unop_15

>  <geom_source>  (19) 
Heuristics

$$$$

     RDKit          3D

 22 20  0  0  0  0  0  0  0  0999 V2000
    0.4954   -3.0263   -2.2469 C   0  0  0  0  0  0  0  0  0  0  0  0
    0.4954   -3.0263   -0.7582 C   0  0  0  0  0  0  0  0  0  0  0  0
    0.4954   -1.9342   -0.1214 N   0  0  0  0  0  0  0  0  0  0  0  0
    0.4954   -2.1389    1.2518 O   0  0  0  0  0  0  0  0  0  0  0  0
    1.3749   -3.5501   -2.6287 H   0  0  0  0  0  0  0  0  0  0  0  0
   -0.3840   -3.5501   -2.6287 H   0  0  0  0  0  0  0  0  0  0  0  0
    0.4954   -2.0066   -2.6283 H   0  0  0  0  0  0  0  0  0  0  0  0
    0.4954   -3.9738   -0.2181 H   0  0  0  0  0  0  0  0  0  0  0  0
    0.4955   -1.0692    1.6751 H   0  0  0  0  0  0  0  0  0  0  0  0
    0.4955    0.1497    2.1576 C   0  0  0  0  0  3  0  0  0  0  0  0
    1.2067    1.1091    1.2124 C   0  0  0  0  0  0  0  0  0  0  0  0
    0.3736    1.5031    0.0138 C   0  0  0  0  0  0  0  0  0  0  0  0
   -0.7716    2.2343    0.4831 O   0  0  0  0  0  0  0  0  0  0  0  0
   -1.6440    2.6225   -0.4403 C   0  0  0  0  0  0  0  0  0  0  0  0
   -1.5607    2.4192   -1.6160 O   0  0  0  0  0  0  0  0  0  0  0  0
    1.1398   -0.1217    2.9945 H   0  0  0  0  0  0  0  0  0  0  0  0
   -0.4113    0.5997    2.5627 H   0  0  0  0  0  0  0  0  0  0  0  0
    2.1227    0.6493    0.8320 H   0  0  0  0  0  0  0  0  0  0  0  0
    1.5086    2.0131    1.7470 H   0  0  0  0  0  0  0  0  0  0  0  0
    0.0269    0.6278   -0.5405 H   0  0  0  0  0  0  0  0  0  0  0  0
    0.9329    2.1372   -0.6762 H   0  0  0  0  0  0  0  0  0  0  0  0
   -2.4669    3.1673    0.0422 H   0  0  0  0  0  0  0  0  0  0  0  0
  1  2  1  0
  1  5  1  0
  1  6  1  0
  1  7  1  0
  2  3  2  3
  2  8  1  0
  3  4  1  0
  4  9  1  0
 10 11  1  0
 10 16  1  0
 10 17  1  0
 11 12  1  0
 11 18  1  0
 11 19  1  0
 12 13  1  0
 12 20  1  0
 12 21  1  0
 13 14  1  0
 14 15  2  0
 14 22  1  0
M  RAD  1  10   2
M  END
>  <reaction>  (20) 
rmg_rxn_1446

>  <mol_properties>  (20) 
{"2": {"label": "*0", "atom_type": "N3d"}, "3": {"label": "*1", "atom_type": "O2s"}, "8": {"label": "*2", "atom_type": "H0"}, "9": {"label": "*3", "atom_type": "Cs"}, "10": {"label": "*4", "atom_type": "Cs"}}

>  <type>  (20) 
unop_16

>  <geom_source>  (20) 
Heuristics

$$$$

     RDKit          3D

 22 20  0  0  0  0  0  0  0  0999 V2000
    1.4872   -1.7338   -3.2721 C   0  0  0  0  0  0  0  0  0  0  0  0
    1.4872   -1.7338   -1.7835 C   0  0  0  0  0  0  0  0  0  0  0  0
    1.4872   -0.6417   -1.1467 N   0  0  0  0  0  0  0  0  0  0  0  0
    1.4872   -0.8464    0.2265 O   0  0  0  0  0  0  0  0  0  0  0  0
    2.3666   -2.2576   -3.6539 H   0  0  0  0  0  0  0  0  0  0  0  0
    0.6077   -2.2576   -3.6539 H   0  0  0  0  0  0  0  0  0  0  0  0
    1.4872   -0.7141   -3.6535 H   0  0  0  0  0  0  0  0  0  0  0  0
    1.4872   -2.6813   -1.2433 H   0  0  0  0  0  0  0  0  0  0  0  0
    1.4872    0.2233    0.6499 H   0  0  0  0  0  0  0  0  0  0  0  0
    1.4872    1.4422    1.1323 C   0  0  0  0  0  3  0  0  0  0  0  0
    0.2553    2.2099    0.6713 C   0  0  0  0  0  0  0  0  0  0  0  0
   -0.9317    1.3223    0.3729 C   0  0  0  0  0  0  0  0  0  0  0  0
   -1.3352    0.6848    1.5966 O   0  0  0  0  0  0  0  0  0  0  0  0
   -2.3452   -0.1737    1.5106 C   0  0  0  0  0  0  0  0  0  0  0  0
   -2.9423   -0.4594    0.5145 O   0  0  0  0  0  0  0  0  0  0  0  0
    2.3219    2.1194    1.3162 H   0  0  0  0  0  0  0  0  0  0  0  0
    1.2861    0.8972    2.0550 H   0  0  0  0  0  0  0  0  0  0  0  0
    0.4810    2.7655   -0.2428 H   0  0  0  0  0  0  0  0  0  0  0  0
   -0.0342    2.9483    1.4232 H   0  0  0  0  0  0  0  0  0  0  0  0
   -0.6828    0.5500   -0.3586 H   0  0  0  0  0  0  0  0  0  0  0  0
   -1.7758    1.8938   -0.0167 H   0  0  0  0  0  0  0  0  0  0  0  0
   -2.5555   -0.5894    2.5055 H   0  0  0  0  0  0  0  0  0  0  0  0
  1  2  1  0
  1  5  1  0
  1  6  1  0
  1  7  1  0
  2  3  2  3
  2  8  1  0
  3  4  1  0
  4  9  1  0
 10 11  1  0
 10 16  1  0
 10 17  1  0
 11 12  1  0
 11 18  1  0
 11 19  1  0
 12 13  1  0
 12 20  1  0
 12 21  1  0
 13 14  1  0
 14 15  2  0
 14 22  1  0
M  RAD  1  10   2
M  END
>  <reaction>  (21) 
rmg_rxn_1446

>  <mol_properties>  (21) 
{"2": {"label": "*0", "atom_type": "N3d"}, "3": {"label": "*1", "atom_type": "O2s"}, "8": {"label": "*2", "atom_type": "H0"}, "9": {"label": "*3", "atom_type": "Cs"}, "10": {"label": "*4", "atom_type": "Cs"}}

>  <type>  (21) 
unop_17

>  <geom_source>  (21) 
Heuristics

$$$$

     RDKit          3D

 22 20  0  0  0  0  0  0  0  0999 V2000
   -1.3786   -2.6163   -3.8022 C   0  0  0  0  0  0  0  0  0  0  0  0
   -1.3786   -2.6163   -2.3135 C   0  0  0  0  0  0  0  0  0  0  0  0
   -1.3786   -1.5242   -1.6767 N   0  0  0  0  0  0  0  0  0  0  0  0
   -1.3786   -1.7289   -0.3035 O   0  0  0  0  0  0  0  0  0  0  0  0
   -0.4991   -3.1401   -4.1840 H   0  0  0  0  0  0  0  0  0  0  0  0
   -2.2580   -3.1401   -4.1840 H   0  0  0  0  0  0  0  0  0  0  0  0
   -1.3786   -1.5966   -4.1836 H   0  0  0  0  0  0  0  0  0  0  0  0
   -1.3786   -3.5638   -1.7734 H   0  0  0  0  0  0  0  0  0  0  0  0
   -1.3786   -0.6592    0.1198 H   0  0  0  0  0  0  0  0  0  0  0  0
   -1.3786    0.5597    0.6022 C   0  0  0  0  0  3  0  0  0  0  0  0
   -0.6673    0.6124    1.9479 C   0  0  0  0  0  0  0  0  0  0  0  0
    0.8242    0.8323    1.8335 C   0  0  0  0  0  0  0  0  0  0  0  0
    1.0441    2.1288    1.2529 O   0  0  0  0  0  0  0  0  0  0  0  0
    2.3088    2.4721    1.0353 C   0  0  0  0  0  0  0  0  0  0  0  0
    3.2705    1.8038    1.2781 O   0  0  0  0  0  0  0  0  0  0  0  0
   -2.4462    0.3801    0.7328 H   0  0  0  0  0  0  0  0  0  0  0  0
   -1.2587    1.4976    0.0592 H   0  0  0  0  0  0  0  0  0  0  0  0
   -0.8148   -0.3277    2.4862 H   0  0  0  0  0  0  0  0  0  0  0  0
   -1.0952    1.4010    2.5718 H   0  0  0  0  0  0  0  0  0  0  0  0
    1.2942    0.0793    1.1967 H   0  0  0  0  0  0  0  0  0  0  0  0
    1.3134    0.7998    2.8085 H   0  0  0  0  0  0  0  0  0  0  0  0
    2.3425    3.4770    0.5928 H   0  0  0  0  0  0  0  0  0  0  0  0
  1  2  1  0
  1  5  1  0
  1  6  1  0
  1  7  1  0
  2  3  2  3
  2  8  1  0
  3  4  1  0
  4  9  1  0
 10 11  1  0
 10 16  1  0
 10 17  1  0
 11 12  1  0
 11 18  1  0
 11 19  1  0
 12 13  1  0
 12 20  1  0
 12 21  1  0
 13 14  1  0
 14 15  2  0
 14 22  1  0
M  RAD  1  10   2
M  END
>  <reaction>  (22) 
rmg_rxn_1446

>  <mol_properties>  (22) 
{"2": {"label": "*0", "atom_type": "N3d"}, "3": {"label": "*1", "atom_type": "O2s"}, "8": {"label": "*2", "atom_type": "H0"}, "9": {"label": "*3", "atom_type": "Cs"}, "10": {"label": "*4", "atom_type": "Cs"}}

>  <type>  (22) 
unop_18

>  <geom_source>  (22) 
Heuristics

$$$$

     RDKit          3D

 22 20  0  0  0  0  0  0  0  0999 V2000
    1.0894   -2.6083   -2.4121 C   0  0  0  0  0  0  0  0  0  0  0  0
    1.0894   -2.6083   -0.9234 C   0  0  0  0  0  0  0  0  0  0  0  0
    1.0894   -1.5162   -0.2866 N   0  0  0  0  0  0  0  0  0  0  0  0
    1.0894   -1.7209    1.0866 O   0  0  0  0  0  0  0  0  0  0  0  0
    1.9689   -3.1321   -2.7939 H   0  0  0  0  0  0  0  0  0  0  0  0
    0.2100   -3.1321   -2.7939 H   0  0  0  0  0  0  0  0  0  0  0  0
    1.0894   -1.5886   -2.7935 H   0  0  0  0  0  0  0  0  0  0  0  0
    1.0894   -3.5558   -0.3833 H   0  0  0  0  0  0  0  0  0  0  0  0
    1.0894   -0.6513    1.5099 H   0  0  0  0  0  0  0  0  0  0  0  0
    1.0894    0.5677    1.9924 C   0  0  0  0  0  3  0  0  0  0  0  0
    1.0894    1.5971    0.8700 C   0  0  0  0  0  0  0  0  0  0  0  0
   -0.0990    1.4784   -0.0571 C   0  0  0  0  0  0  0  0  0  0  0  0
   -1.2886    1.7616    0.6985 O   0  0  0  0  0  0  0  0  0  0  0  0
   -2.4414    1.6578    0.0467 C   0  0  0  0  0  0  0  0  0  0  0  0
   -2.5747    1.3529   -1.1021 O   0  0  0  0  0  0  0  0  0  0  0  0
    1.9727    0.6783    2.6223 H   0  0  0  0  0  0  0  0  0  0  0  0
    0.2084    0.6785    2.6252 H   0  0  0  0  0  0  0  0  0  0  0  0
    1.9886    1.4842    0.2586 H   0  0  0  0  0  0  0  0  0  0  0  0
    1.1169    2.6083    1.2836 H   0  0  0  0  0  0  0  0  0  0  0  0
   -0.1823    0.4736   -0.4777 H   0  0  0  0  0  0  0  0  0  0  0  0
   -0.0367    2.1851   -0.8864 H   0  0  0  0  0  0  0  0  0  0  0  0
   -3.2684    1.8977    0.7288 H   0  0  0  0  0  0  0  0  0  0  0  0
  1  2  1  0
  1  5  1  0
  1  6  1  0
  1  7  1  0
  2  3  2  3
  2  8  1  0
  3  4  1  0
  4  9  1  0
 10 11  1  0
 10 16  1  0
 10 17  1  0
 11 12  1  0
 11 18  1  0
 11 19  1  0
 12 13  1  0
 12 20  1  0
 12 21  1  0
 13 14  1  0
 14 15  2  0
 14 22  1  0
M  RAD  1  10   2
M  END
>  <reaction>  (23) 
rmg_rxn_1446

>  <mol_properties>  (23) 
{"2": {"label": "*0", "atom_type": "N3d"}, "3": {"label": "*1", "atom_type": "O2s"}, "8": {"label": "*2", "atom_type": "H0"}, "9": {"label": "*3", "atom_type": "Cs"}, "10": {"label": "*4", "atom_type": "Cs"}}

>  <type>  (23) 
unop_19

>  <geom_source>  (23) 
Heuristics

$$$$

     RDKit          3D

 22 20  0  0  0  0  0  0  0  0999 V2000
   -3.0622   -0.1362    0.8059 O   0  0  0  0  0  0  0  0  0  0  0  0
   -4.8540   -0.0811   -0.6622 O   0  0  0  0  0  1  0  0  0  0  0  0
    1.4620   -0.3593    0.3486 O   0  0  0  0  0  1  0  0  0  0  0  0
    2.5544    0.4309    0.0781 N   0  0  0  0  0  2  0  0  0  0  0  0
   -1.7317   -0.9639   -1.0703 C   0  0  0  0  0  0  0  0  0  0  0  0
   -2.4520   -1.2964    0.2408 C   0  0  0  0  0  0  0  0  0  0  0  0
   -0.6026    0.0409   -0.8570 C   0  0  0  0  0  0  0  0  0  0  0  0
    4.7653    1.2824    0.5700 C   0  0  0  0  0  0  0  0  0  0  0  0
    3.5809    0.4245    0.8650 C   0  0  0  0  0  3  0  0  0  0  0  0
   -4.2366    0.4359    0.3070 C   0  0  0  0  0  3  0  0  0  0  0  0
   -1.3040   -1.8988   -1.4919 H   0  0  0  0  0  0  0  0  0  0  0  0
   -2.4542   -0.5554   -1.8085 H   0  0  0  0  0  0  0  0  0  0  0  0
   -1.7193   -1.7046    0.9692 H   0  0  0  0  0  0  0  0  0  0  0  0
   -3.2190   -2.0813    0.0627 H   0  0  0  0  0  0  0  0  0  0  0  0
   -0.0850    0.2276   -1.8215 H   0  0  0  0  0  0  0  0  0  0  0  0
   -1.0061    1.0047   -0.4805 H   0  0  0  0  0  0  0  0  0  0  0  0
    0.1954   -0.3915   -0.0698 H   0  0  0  0  0  0  0  0  0  0  0  0
    4.6106    1.8682   -0.3614 H   0  0  0  0  0  0  0  0  0  0  0  0
    5.6629    0.6413    0.4486 H   0  0  0  0  0  0  0  0  0  0  0  0
    4.9312    1.9834    1.4142 H   0  0  0  0  0  0  0  0  0  0  0  0
    3.5887   -0.2054    1.7464 H   0  0  0  0  0  0  0  0  0  0  0  0
   -4.6248    1.3343    0.7665 H   0  0  0  0  0  0  0  0  0  0  0  0
  1 10  1  0
  1  6  1  0
  2 10  1  0
  3  4  1  0
  4  9  1  0
  5  7  1  0
  5 12  1  0
  5 11  1  0
  5  6  1  0
  6 13  1  0
  6 14  1  0
  7 17  1  0
  7 16  1  0
  7 15  1  0
  8 19  1  0
  8  9  1  0
  8 18  1  0
  8 20  1  0
  9 21  1  0
 10 22  1  0
M  RAD  5   2   2   3   2   4   2   9   2  10   2
M  END
>  <reaction>  (24) 
rmg_rxn_1446

>  <mol_properties>  (24) 
{"2": {"label": "*0", "atom_type": "N3d"}, "3": {"label": "*1", "atom_type": "O2s"}, "8": {"label": "*2", "atom_type": "H0"}, "9": {"label": "*3", "atom_type": "Cs"}, "10": {"label": "*4", "atom_type": "Cs"}}

>  <type>  (24) 
unop_20

>  <geom_source>  (24) 
AutoTST

$$$$

     RDKit          3D

 22 20  0  0  0  0  0  0  0  0999 V2000
    1.4192   -2.1356   -2.7836 C   0  0  0  0  0  0  0  0  0  0  0  0
    1.4192   -2.1356   -1.2949 C   0  0  0  0  0  0  0  0  0  0  0  0
    1.4192   -1.0435   -0.6581 N   0  0  0  0  0  0  0  0  0  0  0  0
    1.4192   -1.2482    0.7151 O   0  0  0  0  0  0  0  0  0  0  0  0
    2.2987   -2.6594   -3.1654 H   0  0  0  0  0  0  0  0  0  0  0  0
    0.5398   -2.6594   -3.1654 H   0  0  0  0  0  0  0  0  0  0  0  0
    1.4192   -1.1159   -3.1650 H   0  0  0  0  0  0  0  0  0  0  0  0
    1.4192   -3.0831   -0.7548 H   0  0  0  0  0  0  0  0  0  0  0  0
    1.4192   -0.1785    1.1384 H   0  0  0  0  0  0  0  0  0  0  0  0
    1.4192    1.0405    1.6209 C   0  0  0  0  0  3  0  0  0  0  0  0
    0.7080    1.9998    0.6757 C   0  0  0  0  0  0  0  0  0  0  0  0
   -0.5475    1.4222    0.0625 C   0  0  0  0  0  0  0  0  0  0  0  0
   -1.4932    1.1807    1.1180 O   0  0  0  0  0  0  0  0  0  0  0  0
   -2.6468    0.6264    0.7624 C   0  0  0  0  0  0  0  0  0  0  0  0
   -2.9643    0.3142   -0.3476 O   0  0  0  0  0  0  0  0  0  0  0  0
    2.3273    1.4912    2.0227 H   0  0  0  0  0  0  0  0  0  0  0  0
    0.7777    0.7701    2.4600 H   0  0  0  0  0  0  0  0  0  0  0  0
    1.3724    2.2752   -0.1477 H   0  0  0  0  0  0  0  0  0  0  0  0
    0.4543    2.9263    1.1968 H   0  0  0  0  0  0  0  0  0  0  0  0
   -0.3473    0.4787   -0.4507 H   0  0  0  0  0  0  0  0  0  0  0  0
   -0.9973    2.1072   -0.6581 H   0  0  0  0  0  0  0  0  0  0  0  0
   -3.2773    0.4950    1.6523 H   0  0  0  0  0  0  0  0  0  0  0  0
  1  2  1  0
  1  5  1  0
  1  6  1  0
  1  7  1  0
  2  3  2  3
  2  8  1  0
  3  4  1  0
  4  9  1  0
 10 11  1  0
 10 16  1  0
 10 17  1  0
 11 12  1  0
 11 18  1  0
 11 19  1  0
 12 13  1  0
 12 20  1  0
 12 21  1  0
 13 14  1  0
 14 15  2  0
 14 22  1  0
M  RAD  1  10   2
M  END
>  <reaction>  (25) 
rmg_rxn_1446

>  <mol_properties>  (25) 
{"2": {"label": "*0", "atom_type": "N3d"}, "3": {"label": "*1", "atom_type": "O2s"}, "8": {"label": "*2", "atom_type": "H0"}, "9": {"label": "*3", "atom_type": "Cs"}, "10": {"label": "*4", "atom_type": "Cs"}}

>  <type>  (25) 
unop_21

>  <geom_source>  (25) 
gaussian_log

$$$$
