
     RDKit          3D

 14 14  0  0  0  0  0  0  0  0999 V2000
   -1.1778    0.2241    0.1818 C   0  0  0  0  0  0  0  0  0  0  0  0
   -0.5633   -1.1636    0.0678 C   0  0  0  0  0  0  0  0  0  0  0  0
    0.6943   -1.1996    0.7146 O   0  0  0  0  0  0  0  0  0  0  0  0
    1.5547   -0.2288    0.2011 C   0  0  0  0  0  0  0  0  0  0  0  0
    1.0729    1.0696    0.3698 O   0  0  0  0  0  0  0  0  0  0  0  0
   -0.1607    1.2493   -0.2989 C   0  0  0  0  0  0  0  0  0  0  0  0
   -2.0927    0.2866   -0.4117 H   0  0  0  0  0  0  0  0  0  0  0  0
   -1.4303    0.4248    1.2248 H   0  0  0  0  0  0  0  0  0  0  0  0
   -1.1822   -1.9235    0.5431 H   0  0  0  0  0  0  0  0  0  0  0  0
   -0.4389   -1.4347   -0.9919 H   0  0  0  0  0  0  0  0  0  0  0  0
    1.7250   -0.4207   -0.8742 H   0  0  0  0  0  0  0  0  0  0  0  0
    2.4896   -0.3010    0.7524 H   0  0  0  0  0  0  0  0  0  0  0  0
   -0.0080    1.1481   -1.3844 H   0  0  0  0  0  0  0  0  0  0  0  0
   -0.4826    2.2695   -0.0942 H   0  0  0  0  0  0  0  0  0  0  0  0
  1  2  1  0
  1  6  1  0
  1  7  1  0
  1  8  1  0
  2  3  1  0
  2  9  1  0
  2 10  1  0
  3  4  1  0
  4  5  1  0
  4 11  1  0
  4 12  1  0
  5  6  1  0
  6 13  1  0
  6 14  1  0
M  END
>  <reaction>  (1) 
rmg_rxn_303

>  <mol_properties>  (1) 
{"3": {"label": "donator", "atom_type": "Cs"}, "10": {"label": "d_hydrogen", "atom_type": "H0"}}

>  <type>  (1) 
r1h

$$$$

     RDKit          3D

 11 10  0  0  0  0  0  0  0  0999 V2000
   -1.2230    0.3768   -0.0849 C   0  0  0  0  0  0  0  0  0  0  0  0
   -0.0734   -0.5533    0.2746 C   0  0  0  0  0  0  0  0  0  0  0  0
   -0.0853   -1.8426   -0.5372 C   0  0  0  0  0  0  0  0  0  0  0  0
    0.0319   -1.6944   -1.8815 O   0  0  0  0  0  1  0  0  0  0  0  0
   -2.1874   -0.0885    0.1341 H   0  0  0  0  0  0  0  0  0  0  0  0
   -1.1670    1.3099    0.4765 H   0  0  0  0  0  0  0  0  0  0  0  0
   -1.2014    0.6189   -1.1483 H   0  0  0  0  0  0  0  0  0  0  0  0
    0.8834   -0.0518    0.1071 H   0  0  0  0  0  0  0  0  0  0  0  0
   -0.1104   -0.8149    1.3362 H   0  0  0  0  0  0  0  0  0  0  0  0
    0.6767   -2.5604   -0.1861 H   0  0  0  0  0  0  0  0  0  0  0  0
   -1.0401   -2.3871   -0.3877 H   0  0  0  0  0  0  0  0  0  0  0  0
  1  2  1  0
  1  5  1  0
  1  6  1  0
  1  7  1  0
  2  3  1  0
  2  8  1  0
  2  9  1  0
  3  4  1  0
  3 10  1  0
  3 11  1  0
M  RAD  1   4   2
M  END
>  <reaction>  (2) 
rmg_rxn_303

>  <mol_properties>  (2) 
{"3": {"label": "acceptor", "atom_type": "O2s"}}

>  <type>  (2) 
r2

$$$$

     RDKit          3D

 12 11  0  0  0  0  0  0  0  0999 V2000
   -1.4643   -0.2505   -0.5284 C   0  0  0  0  0  0  0  0  0  0  0  0
   -0.3946    0.4302    0.3143 C   0  0  0  0  0  0  0  0  0  0  0  0
   -0.5959    0.2382    1.8102 C   0  0  0  0  0  0  0  0  0  0  0  0
   -0.5633   -1.1190    2.2092 O   0  0  0  0  0  0  0  0  0  0  0  0
   -2.4511    0.1644   -0.3109 H   0  0  0  0  0  0  0  0  0  0  0  0
   -1.5019   -1.3198   -0.3181 H   0  0  0  0  0  0  0  0  0  0  0  0
   -1.2720   -0.1182   -1.5941 H   0  0  0  0  0  0  0  0  0  0  0  0
    0.5965    0.0515    0.0385 H   0  0  0  0  0  0  0  0  0  0  0  0
   -0.3776    1.5047    0.1078 H   0  0  0  0  0  0  0  0  0  0  0  0
   -1.5821    0.6048    2.1034 H   0  0  0  0  0  0  0  0  0  0  0  0
    0.1495    0.8220    2.3649 H   0  0  0  0  0  0  0  0  0  0  0  0
    0.3017   -1.4750    1.9997 H   0  0  0  0  0  0  0  0  0  0  0  0
  1  2  1  0
  1  5  1  0
  1  6  1  0
  1  7  1  0
  2  3  1  0
  2  8  1  0
  2  9  1  0
  3  4  1  0
  3 10  1  0
  3 11  1  0
  4 12  1  0
M  END
>  <reaction>  (3) 
rmg_rxn_303

>  <mol_properties>  (3) 
{"3": {"label": "acceptor", "atom_type": "O2s"}, "11": {"label": "a_hydrogen", "atom_type": "H0"}}

>  <type>  (3) 
r2h

$$$$

     RDKit          3D

 25 24  0  0  0  0  0  0  0  0999 V2000
    0.0030    3.6379    1.1294 C   0  0  0  0  0  0  0  0  0  0  0  0
    0.0959    2.9283   -0.2136 C   0  0  0  0  0  0  0  0  0  0  0  0
    1.1253    1.8048   -0.2242 C   0  0  0  0  0  0  0  0  0  0  0  0
    0.9075    0.8184    0.7302 O   0  0  0  0  0  1  0  0  0  0  0  0
    0.9535    4.1122    1.3861 H   0  0  0  0  0  0  0  0  0  0  0  0
   -0.7649    4.4126    1.1159 H   0  0  0  0  0  0  0  0  0  0  0  0
   -0.2394    2.9295    1.9221 H   0  0  0  0  0  0  0  0  0  0  0  0
   -0.8781    2.5090   -0.4843 H   0  0  0  0  0  0  0  0  0  0  0  0
    0.3556    3.6395   -1.0036 H   0  0  0  0  0  0  0  0  0  0  0  0
    1.1975    1.3703   -1.2324 H   0  0  0  0  0  0  0  0  0  0  0  0
    2.1224    2.2111    0.0065 H   0  0  0  0  0  0  0  0  0  0  0  0
    0.3077   -2.8626   -0.7923 C   0  0  0  0  0  0  0  0  0  0  0  0
   -0.1699   -2.4910    0.6013 C   0  0  0  0  0  0  0  0  0  0  0  0
   -1.2986   -1.6283    0.5155 O   0  0  0  0  0  0  0  0  0  0  0  0
   -1.0633   -0.5159   -0.2566 C   0  0  0  0  0  0  0  0  0  0  0  0
   -0.6254   -0.7620   -1.5399 O   0  0  0  0  0  0  0  0  0  0  0  0
    0.5359   -1.5847   -1.5817 C   0  0  0  0  0  0  0  0  0  0  0  0
    1.2336   -3.4381   -0.7338 H   0  0  0  0  0  0  0  0  0  0  0  0
   -0.4467   -3.4756   -1.2894 H   0  0  0  0  0  0  0  0  0  0  0  0
   -0.4964   -3.3602    1.1690 H   0  0  0  0  0  0  0  0  0  0  0  0
    0.6255   -1.9814    1.1573 H   0  0  0  0  0  0  0  0  0  0  0  0
   -0.2116    0.1429    0.3018 H   0  0  0  0  0  0  0  0  0  0  0  0
   -1.9734    0.0795   -0.3046 H   0  0  0  0  0  0  0  0  0  0  0  0
    1.3814   -1.0275   -1.1613 H   0  0  0  0  0  0  0  0  0  0  0  0
    0.7287   -1.7805   -2.6349 H   0  0  0  0  0  0  0  0  0  0  0  0
  1  2  1  0
  1  5  1  0
  1  6  1  0
  1  7  1  0
  2  3  1  0
  2  8  1  0
  2  9  1  0
  3  4  1  0
  3 10  1  0
  3 11  1  0
 12 13  1  0
 12 17  1  0
 12 18  1  0
 12 19  1  0
 13 14  1  0
 13 20  1  0
 13 21  1  0
 14 15  1  0
 15 16  1  0
 15 22  1  0
 15 23  1  0
 16 17  1  0
 17 24  1  0
 17 25  1  0
M  RAD  1   4   2
M  END
>  <reaction>  (4) 
rmg_rxn_303

>  <mol_properties>  (4) 
{"2": {"label": "*4", "atom_type": "Cs"}, "3": {"label": "*3", "atom_type": "O2s"}, "13": {"label": "*0", "atom_type": "O2s"}, "14": {"label": "*1", "atom_type": "Cs"}, "21": {"label": "*2", "atom_type": "H0"}}

>  <type>  (4) 
ts

$$$$

     RDKit          3D

 25 24  0  0  0  0  0  0  0  0999 V2000
    0.1869    3.0150    2.2723 C   0  0  0  0  0  0  0  0  0  0  0  0
    0.1711    2.8412    0.7599 C   0  0  0  0  0  0  0  0  0  0  0  0
    1.2801    1.9340    0.2478 C   0  0  0  0  0  0  0  0  0  0  0  0
    1.2105    0.6189    0.7652 O   0  0  0  0  0  0  0  0  0  0  0  0
    1.1195    3.4808    2.5991 H   0  0  0  0  0  0  0  0  0  0  0  0
   -0.6382    3.6454    2.6067 H   0  0  0  0  0  0  0  0  0  0  0  0
    0.1057    2.0506    2.7747 H   0  0  0  0  0  0  0  0  0  0  0  0
   -0.7954    2.4349    0.4398 H   0  0  0  0  0  0  0  0  0  0  0  0
    0.2706    3.8129    0.2667 H   0  0  0  0  0  0  0  0  0  0  0  0
    1.2727    1.9186   -0.8494 H   0  0  0  0  0  0  0  0  0  0  0  0
    2.2523    2.3201    0.5625 H   0  0  0  0  0  0  0  0  0  0  0  0
    0.0274   -2.5062   -1.4761 C   0  0  0  0  0  0  0  0  0  0  0  0
    0.0274   -2.5062    0.0460 C   0  0  0  0  0  0  0  0  0  0  0  0
   -1.0209   -1.6936    0.5381 O   0  0  0  0  0  0  0  0  0  0  0  0
   -0.9300   -0.3940    0.0387 C   0  0  0  0  0  3  0  0  0  0  0  0
   -1.0209   -0.3378   -1.3523 O   0  0  0  0  0  0  0  0  0  0  0  0
    0.0274   -1.0645   -1.9642 C   0  0  0  0  0  0  0  0  0  0  0  0
    0.9014   -3.0386   -1.8579 H   0  0  0  0  0  0  0  0  0  0  0  0
   -0.8692   -3.0123   -1.8391 H   0  0  0  0  0  0  0  0  0  0  0  0
   -0.1316   -3.5037    0.4533 H   0  0  0  0  0  0  0  0  0  0  0  0
    0.9910   -2.1302    0.4227 H   0  0  0  0  0  0  0  0  0  0  0  0
    0.2164    0.1485    0.4278 H   0  0  0  0  0  0  0  0  0  0  0  0
   -1.7710    0.1665    0.4407 H   0  0  0  0  0  0  0  0  0  0  0  0
    0.9910   -0.5871   -1.7289 H   0  0  0  0  0  0  0  0  0  0  0  0
   -0.1316   -0.9986   -3.0396 H   0  0  0  0  0  0  0  0  0  0  0  0
  1  2  1  0
  1  5  1  0
  1  6  1  0
  1  7  1  0
  2  3  1  0
  2  8  1  0
  2  9  1  0
  3  4  1  0
  3 10  1  0
  3 11  1  0
  4 22  1  0
 12 13  1  0
 12 17  1  0
 12 18  1  0
 12 19  1  0
 13 14  1  0
 13 20  1  0
 13 21  1  0
 14 15  1  0
 15 16  1  0
 15 23  1  0
 16 17  1  0
 17 24  1  0
 17 25  1  0
M  RAD  1  15   2
M  END
>  <reaction>  (5) 
rmg_rxn_303

>  <mol_properties>  (5) 
{"2": {"label": "*4", "atom_type": "Cs"}, "3": {"label": "*3", "atom_type": "O2s"}, "13": {"label": "*0", "atom_type": "O2s"}, "14": {"label": "*1", "atom_type": "Cs"}, "21": {"label": "*2", "atom_type": "H0"}}

>  <type>  (5) 
unop_1

>  <geom_source>  (5) 
Heuristics

$$$$

     RDKit          3D

 25 23  0  0  0  0  0  0  0  0999 V2000
    1.1253    0.8809   -1.5436 C   0  0  0  0  0  0  0  0  0  0  0  0
    1.5083   -0.0405   -0.3937 C   0  0  0  0  0  3  0  0  0  0  0  0
    1.8688    0.7078    0.8811 C   0  0  0  0  0  0  0  0  0  0  0  0
    0.8079    1.4965    1.3857 O   0  0  0  0  0  0  0  0  0  0  0  0
    1.9602    1.5318   -1.8132 H   0  0  0  0  0  0  0  0  0  0  0  0
    0.8441    0.3111   -2.4303 H   0  0  0  0  0  0  0  0  0  0  0  0
    0.2854    1.5188   -1.2667 H   0  0  0  0  0  0  0  0  0  0  0  0
    0.6855   -0.7320   -0.1781 H   0  0  0  0  0  0  0  0  0  0  0  0
    2.3624   -0.6631   -0.6767 H   0  0  0  0  0  0  0  0  0  0  0  0
    2.2201   -0.0000    1.6425 H   0  0  0  0  0  0  0  0  0  0  0  0
    2.6843    1.4074    0.6845 H   0  0  0  0  0  0  0  0  0  0  0  0
   -0.3752   -1.6285   -0.8555 C   0  0  0  0  0  0  0  0  0  0  0  0
   -0.3752   -1.6285    0.6665 C   0  0  0  0  0  0  0  0  0  0  0  0
   -1.4234   -0.8159    1.1586 O   0  0  0  0  0  0  0  0  0  0  0  0
   -1.3325    0.4837    0.6593 C   0  0  0  0  0  0  0  0  0  0  0  0
   -1.4234    0.5399   -0.7317 O   0  0  0  0  0  3  0  0  0  0  0  0
   -0.3752   -0.1868   -1.3436 C   0  0  0  0  0  3  0  0  0  0  0  0
    0.4988   -2.1609   -1.2374 H   0  0  0  0  0  0  0  0  0  0  0  0
   -1.2717   -2.1346   -1.2185 H   0  0  0  0  0  0  0  0  0  0  0  0
   -0.5341   -2.6260    1.0739 H   0  0  0  0  0  0  0  0  0  0  0  0
    0.5885   -1.2525    1.0433 H   0  0  0  0  0  0  0  0  0  0  0  0
   -0.1861    1.0262    1.0484 H   0  0  0  0  0  0  0  0  0  0  0  0
   -2.1736    1.0442    1.0613 H   0  0  0  0  0  0  0  0  0  0  0  0
    0.5885    0.2906   -1.1083 H   0  0  0  0  0  0  0  0  0  0  0  0
   -0.5341   -0.1209   -2.4191 H   0  0  0  0  0  0  0  0  0  0  0  0
  1  5  1  0
  1  6  1  0
  1  7  1  0
  1 24  1  0
  2  3  1  0
  2  8  1  0
  2  9  1  0
  3  4  1  0
  3 10  1  0
  3 11  1  0
  4 22  1  0
 12 17  1  0
 12 13  1  0
 12 18  1  0
 12 19  1  0
 13 14  1  0
 13 20  1  0
 13 21  1  0
 14 15  1  0
 15 16  2  0
 15 23  1  0
 16 17  1  0
 17 25  1  0
M  CHG  2  16   1  17  -1
M  RAD  1   2   2
M  END
>  <reaction>  (6) 
rmg_rxn_303

>  <mol_properties>  (6) 
{"2": {"label": "*4", "atom_type": "Cs"}, "3": {"label": "*3", "atom_type": "O2s"}, "13": {"label": "*0", "atom_type": "O2s"}, "14": {"label": "*1", "atom_type": "Cs"}, "21": {"label": "*2", "atom_type": "H0"}}

>  <type>  (6) 
unop_2

>  <geom_source>  (6) 
Heuristics

$$$$

     RDKit          3D

 25 24  0  0  0  0  0  0  0  0999 V2000
    1.5289    2.2256    3.0172 C   0  0  0  0  0  0  0  0  0  0  0  0
    0.4719    2.5720    1.9777 C   0  0  0  0  0  0  0  0  0  0  0  0
    0.8498    2.1380    0.5691 C   0  0  0  0  0  0  0  0  0  0  0  0
    1.0364    0.7408    0.4456 O   0  0  0  0  0  0  0  0  0  0  0  0
    2.4701    2.7347    2.7974 H   0  0  0  0  0  0  0  0  0  0  0  0
    1.2121    2.5233    4.0178 H   0  0  0  0  0  0  0  0  0  0  0  0
    1.7276    1.1535    3.0264 H   0  0  0  0  0  0  0  0  0  0  0  0
   -0.4841    2.1083    2.2470 H   0  0  0  0  0  0  0  0  0  0  0  0
    0.2934    3.6515    1.9653 H   0  0  0  0  0  0  0  0  0  0  0  0
    0.0957    2.4917   -0.1451 H   0  0  0  0  0  0  0  0  0  0  0  0
    1.8045    2.5860    0.2848 H   0  0  0  0  0  0  0  0  0  0  0  0
   -0.1467   -2.3842   -1.7956 C   0  0  0  0  0  0  0  0  0  0  0  0
   -0.1467   -2.3842   -0.2736 C   0  0  0  0  0  0  0  0  0  0  0  0
   -1.1950   -1.5716    0.2185 O   0  0  0  0  0  0  0  0  0  0  0  0
   -1.1040   -0.2721   -0.2808 C   0  0  0  0  0  3  0  0  0  0  0  0
   -1.1950   -0.2159   -1.6718 O   0  0  0  0  0  0  0  0  0  0  0  0
   -0.1467   -0.9426   -2.2837 C   0  0  0  0  0  0  0  0  0  0  0  0
    0.7273   -2.9167   -2.1775 H   0  0  0  0  0  0  0  0  0  0  0  0
   -1.0432   -2.8904   -2.1586 H   0  0  0  0  0  0  0  0  0  0  0  0
   -0.3056   -3.3817    0.1338 H   0  0  0  0  0  0  0  0  0  0  0  0
    0.8170   -2.0083    0.1031 H   0  0  0  0  0  0  0  0  0  0  0  0
    0.0424    0.2704    0.1083 H   0  0  0  0  0  0  0  0  0  0  0  0
   -1.9451    0.2885    0.1212 H   0  0  0  0  0  0  0  0  0  0  0  0
    0.8170   -0.4652   -2.0484 H   0  0  0  0  0  0  0  0  0  0  0  0
   -0.3056   -0.8767   -3.3592 H   0  0  0  0  0  0  0  0  0  0  0  0
  1  2  1  0
  1  5  1  0
  1  6  1  0
  1  7  1  0
  2  3  1  0
  2  8  1  0
  2  9  1  0
  3  4  1  0
  3 10  1  0
  3 11  1  0
  4 22  1  0
 12 13  1  0
 12 17  1  0
 12 18  1  0
 12 19  1  0
 13 14  1  0
 13 20  1  0
 13 21  1  0
 14 15  1  0
 15 16  1  0
 15 23  1  0
 16 17  1  0
 17 24  1  0
 17 25  1  0
M  RAD  1  15   2
M  END
>  <reaction>  (7) 
rmg_rxn_303

>  <mol_properties>  (7) 
{"2": {"label": "*4", "atom_type": "Cs"}, "3": {"label": "*3", "atom_type": "O2s"}, "13": {"label": "*0", "atom_type": "O2s"}, "14": {"label": "*1", "atom_type": "Cs"}, "21": {"label": "*2", "atom_type": "H0"}}

>  <type>  (7) 
unop_3

>  <geom_source>  (7) 
Heuristics

$$$$

     RDKit          3D

 25 24  0  0  0  0  0  0  0  0999 V2000
    2.2531    1.5219    2.9385 C   0  0  0  0  0  0  0  0  0  0  0  0
    0.8235    1.8897    2.5660 C   0  0  0  0  0  0  0  0  0  0  0  0
    0.6261    2.0954    1.0713 C   0  0  0  0  0  0  0  0  0  0  0  0
    0.9157    0.9417    0.3050 O   0  0  0  0  0  0  0  0  0  0  0  0
    2.9439    2.3211    2.6599 H   0  0  0  0  0  0  0  0  0  0  0  0
    2.3512    1.3525    4.0117 H   0  0  0  0  0  0  0  0  0  0  0  0
    2.5689    0.6166    2.4193 H   0  0  0  0  0  0  0  0  0  0  0  0
    0.1344    1.1099    2.9105 H   0  0  0  0  0  0  0  0  0  0  0  0
    0.5236    2.8085    3.0791 H   0  0  0  0  0  0  0  0  0  0  0  0
   -0.3956    2.4437    0.8745 H   0  0  0  0  0  0  0  0  0  0  0  0
    1.3096    2.8660    0.7079 H   0  0  0  0  0  0  0  0  0  0  0  0
   -0.2674   -2.1833   -1.9362 C   0  0  0  0  0  0  0  0  0  0  0  0
   -0.2674   -2.1833   -0.4142 C   0  0  0  0  0  0  0  0  0  0  0  0
   -1.3157   -1.3707    0.0779 O   0  0  0  0  0  0  0  0  0  0  0  0
   -1.2248   -0.0712   -0.4214 C   0  0  0  0  0  3  0  0  0  0  0  0
   -1.3157   -0.0150   -1.8125 O   0  0  0  0  0  0  0  0  0  0  0  0
   -0.2674   -0.7417   -2.4243 C   0  0  0  0  0  0  0  0  0  0  0  0
    0.6066   -2.7158   -2.3181 H   0  0  0  0  0  0  0  0  0  0  0  0
   -1.1640   -2.6895   -2.2992 H   0  0  0  0  0  0  0  0  0  0  0  0
   -0.4263   -3.1808   -0.0069 H   0  0  0  0  0  0  0  0  0  0  0  0
    0.6962   -1.8074   -0.0375 H   0  0  0  0  0  0  0  0  0  0  0  0
   -0.0783    0.4713   -0.0324 H   0  0  0  0  0  0  0  0  0  0  0  0
   -2.0658    0.4894   -0.0194 H   0  0  0  0  0  0  0  0  0  0  0  0
    0.6962   -0.2643   -2.1890 H   0  0  0  0  0  0  0  0  0  0  0  0
   -0.4263   -0.6757   -3.4998 H   0  0  0  0  0  0  0  0  0  0  0  0
  1  2  1  0
  1  5  1  0
  1  6  1  0
  1  7  1  0
  2  3  1  0
  2  8  1  0
  2  9  1  0
  3  4  1  0
  3 10  1  0
  3 11  1  0
  4 22  1  0
 12 13  1  0
 12 17  1  0
 12 18  1  0
 12 19  1  0
 13 14  1  0
 13 20  1  0
 13 21  1  0
 14 15  1  0
 15 16  1  0
 15 23  1  0
 16 17  1  0
 17 24  1  0
 17 25  1  0
M  RAD  1  15   2
M  END
>  <reaction>  (8) 
rmg_rxn_303

>  <mol_properties>  (8) 
{"2": {"label": "*4", "atom_type": "Cs"}, "3": {"label": "*3", "atom_type": "O2s"}, "13": {"label": "*0", "atom_type": "O2s"}, "14": {"label": "*1", "atom_type": "Cs"}, "21": {"label": "*2", "atom_type": "H0"}}

>  <type>  (8) 
unop_4

>  <geom_source>  (8) 
Heuristics

$$$$

     RDKit          3D

 25 24  0  0  0  0  0  0  0  0999 V2000
    2.9845   -0.2211    0.9257 C   0  0  0  0  0  0  0  0  0  0  0  0
    1.6861   -0.2795    1.7186 C   0  0  0  0  0  0  0  0  0  0  0  0
    0.9993    1.0721    1.8470 C   0  0  0  0  0  0  0  0  0  0  0  0
    0.6386    1.6368    0.6007 O   0  0  0  0  0  0  0  0  0  0  0  0
    3.7104    0.4297    1.4185 H   0  0  0  0  0  0  0  0  0  0  0  0
    3.4331   -1.2107    0.8278 H   0  0  0  0  0  0  0  0  0  0  0  0
    2.8108    0.1760   -0.0749 H   0  0  0  0  0  0  0  0  0  0  0  0
    0.9922   -0.9865    1.2491 H   0  0  0  0  0  0  0  0  0  0  0  0
    1.8752   -0.6629    2.7259 H   0  0  0  0  0  0  0  0  0  0  0  0
    0.1217    0.9841    2.4998 H   0  0  0  0  0  0  0  0  0  0  0  0
    1.6784    1.7927    2.3080 H   0  0  0  0  0  0  0  0  0  0  0  0
   -0.5445   -1.4882   -1.6405 C   0  0  0  0  0  0  0  0  0  0  0  0
   -0.5445   -1.4882   -0.1185 C   0  0  0  0  0  0  0  0  0  0  0  0
   -1.5928   -0.6756    0.3736 O   0  0  0  0  0  0  0  0  0  0  0  0
   -1.5019    0.6240   -0.1257 C   0  0  0  0  0  3  0  0  0  0  0  0
   -1.5928    0.6801   -1.5167 O   0  0  0  0  0  0  0  0  0  0  0  0
   -0.5445   -0.0466   -2.1286 C   0  0  0  0  0  0  0  0  0  0  0  0
    0.3295   -2.0207   -2.0224 H   0  0  0  0  0  0  0  0  0  0  0  0
   -1.4411   -1.9944   -2.0035 H   0  0  0  0  0  0  0  0  0  0  0  0
   -0.7034   -2.4857    0.2889 H   0  0  0  0  0  0  0  0  0  0  0  0
    0.4191   -1.1122    0.2582 H   0  0  0  0  0  0  0  0  0  0  0  0
   -0.3555    1.1664    0.2634 H   0  0  0  0  0  0  0  0  0  0  0  0
   -2.3429    1.1845    0.2763 H   0  0  0  0  0  0  0  0  0  0  0  0
    0.4191    0.4308   -1.8933 H   0  0  0  0  0  0  0  0  0  0  0  0
   -0.7034    0.0194   -3.2041 H   0  0  0  0  0  0  0  0  0  0  0  0
  1  2  1  0
  1  5  1  0
  1  6  1  0
  1  7  1  0
  2  3  1  0
  2  8  1  0
  2  9  1  0
  3  4  1  0
  3 10  1  0
  3 11  1  0
  4 22  1  0
 12 13  1  0
 12 17  1  0
 12 18  1  0
 12 19  1  0
 13 14  1  0
 13 20  1  0
 13 21  1  0
 14 15  1  0
 15 16  1  0
 15 23  1  0
 16 17  1  0
 17 24  1  0
 17 25  1  0
M  RAD  1  15   2
M  END
>  <reaction>  (9) 
rmg_rxn_303

>  <mol_properties>  (9) 
{"2": {"label": "*4", "atom_type": "Cs"}, "3": {"label": "*3", "atom_type": "O2s"}, "13": {"label": "*0", "atom_type": "O2s"}, "14": {"label": "*1", "atom_type": "Cs"}, "21": {"label": "*2", "atom_type": "H0"}}

>  <type>  (9) 
unop_5

>  <geom_source>  (9) 
Heuristics

$$$$

     RDKit          3D

 25 24  0  0  0  0  0  0  0  0999 V2000
    2.9457    0.2186    1.9701 C   0  0  0  0  0  0  0  0  0  0  0  0
    1.4829    0.2820    2.3873 C   0  0  0  0  0  0  0  0  0  0  0  0
    0.7362    1.4616    1.7821 C   0  0  0  0  0  0  0  0  0  0  0  0
    0.7098    1.4405    0.3675 O   0  0  0  0  0  0  0  0  0  0  0  0
    3.4834    1.1081    2.3063 H   0  0  0  0  0  0  0  0  0  0  0  0
    3.4413   -0.6545    2.3969 H   0  0  0  0  0  0  0  0  0  0  0  0
    3.0379    0.1674    0.8848 H   0  0  0  0  0  0  0  0  0  0  0  0
    0.9718   -0.6449    2.1022 H   0  0  0  0  0  0  0  0  0  0  0  0
    1.4031    0.3505    3.4764 H   0  0  0  0  0  0  0  0  0  0  0  0
   -0.2827    1.5055    2.1870 H   0  0  0  0  0  0  0  0  0  0  0  0
    1.2349    2.3955    2.0506 H   0  0  0  0  0  0  0  0  0  0  0  0
   -0.4733   -1.6845   -1.8737 C   0  0  0  0  0  0  0  0  0  0  0  0
   -0.4733   -1.6845   -0.3517 C   0  0  0  0  0  0  0  0  0  0  0  0
   -1.5216   -0.8719    0.1404 O   0  0  0  0  0  0  0  0  0  0  0  0
   -1.4307    0.4277   -0.3589 C   0  0  0  0  0  3  0  0  0  0  0  0
   -1.5216    0.4839   -1.7499 O   0  0  0  0  0  0  0  0  0  0  0  0
   -0.4733   -0.2428   -2.3618 C   0  0  0  0  0  0  0  0  0  0  0  0
    0.4007   -2.2169   -2.2556 H   0  0  0  0  0  0  0  0  0  0  0  0
   -1.3699   -2.1906   -2.2367 H   0  0  0  0  0  0  0  0  0  0  0  0
   -0.6323   -2.6820    0.0557 H   0  0  0  0  0  0  0  0  0  0  0  0
    0.4903   -1.3085    0.0251 H   0  0  0  0  0  0  0  0  0  0  0  0
   -0.2843    0.9702    0.0302 H   0  0  0  0  0  0  0  0  0  0  0  0
   -2.2717    0.9882    0.0431 H   0  0  0  0  0  0  0  0  0  0  0  0
    0.4903    0.2346   -2.1265 H   0  0  0  0  0  0  0  0  0  0  0  0
   -0.6323   -0.1769   -3.4373 H   0  0  0  0  0  0  0  0  0  0  0  0
  1  2  1  0
  1  5  1  0
  1  6  1  0
  1  7  1  0
  2  3  1  0
  2  8  1  0
  2  9  1  0
  3  4  1  0
  3 10  1  0
  3 11  1  0
  4 22  1  0
 12 13  1  0
 12 17  1  0
 12 18  1  0
 12 19  1  0
 13 14  1  0
 13 20  1  0
 13 21  1  0
 14 15  1  0
 15 16  1  0
 15 23  1  0
 16 17  1  0
 17 24  1  0
 17 25  1  0
M  RAD  1  15   2
M  END
>  <reaction>  (10) 
rmg_rxn_303

>  <mol_properties>  (10) 
{"2": {"label": "*4", "atom_type": "Cs"}, "3": {"label": "*3", "atom_type": "O2s"}, "13": {"label": "*0", "atom_type": "O2s"}, "14": {"label": "*1", "atom_type": "Cs"}, "21": {"label": "*2", "atom_type": "H0"}}

>  <type>  (10) 
unop_6

>  <geom_source>  (10) 
Heuristics

$$$$

     RDKit          3D

 25 24  0  0  0  0  0  0  0  0999 V2000
   -0.4636    3.0874    0.4081 C   0  0  0  0  0  0  0  0  0  0  0  0
    0.4637    2.3016   -0.5087 C   0  0  0  0  0  0  0  0  0  0  0  0
    1.6264    1.6517    0.2268 C   0  0  0  0  0  0  0  0  0  0  0  0
    1.2157    0.7220    1.2113 O   0  0  0  0  0  0  0  0  0  0  0  0
    0.0724    3.9082    0.8902 H   0  0  0  0  0  0  0  0  0  0  0  0
   -1.3007    3.5134   -0.1468 H   0  0  0  0  0  0  0  0  0  0  0  0
   -0.8651    2.4480    1.1948 H   0  0  0  0  0  0  0  0  0  0  0  0
   -0.1015    1.5241   -1.0356 H   0  0  0  0  0  0  0  0  0  0  0  0
    0.8738    2.9568   -1.2832 H   0  0  0  0  0  0  0  0  0  0  0  0
    2.3050    1.1774   -0.4933 H   0  0  0  0  0  0  0  0  0  0  0  0
    2.1988    2.4113    0.7637 H   0  0  0  0  0  0  0  0  0  0  0  0
    0.0327   -2.4030   -1.0299 C   0  0  0  0  0  0  0  0  0  0  0  0
    0.0327   -2.4030    0.4921 C   0  0  0  0  0  0  0  0  0  0  0  0
   -1.0156   -1.5904    0.9842 O   0  0  0  0  0  0  0  0  0  0  0  0
   -0.9247   -0.2909    0.4849 C   0  0  0  0  0  3  0  0  0  0  0  0
   -1.0156   -0.2347   -0.9061 O   0  0  0  0  0  0  0  0  0  0  0  0
    0.0327   -0.9614   -1.5180 C   0  0  0  0  0  0  0  0  0  0  0  0
    0.9066   -2.9355   -1.4118 H   0  0  0  0  0  0  0  0  0  0  0  0
   -0.8639   -2.9092   -1.3929 H   0  0  0  0  0  0  0  0  0  0  0  0
   -0.1263   -3.4005    0.8995 H   0  0  0  0  0  0  0  0  0  0  0  0
    0.9963   -2.0271    0.8689 H   0  0  0  0  0  0  0  0  0  0  0  0
    0.2217    0.2516    0.8740 H   0  0  0  0  0  0  0  0  0  0  0  0
   -1.7658    0.2696    0.8869 H   0  0  0  0  0  0  0  0  0  0  0  0
    0.9963   -0.4840   -1.2827 H   0  0  0  0  0  0  0  0  0  0  0  0
   -0.1263   -0.8955   -2.5935 H   0  0  0  0  0  0  0  0  0  0  0  0
  1  2  1  0
  1  5  1  0
  1  6  1  0
  1  7  1  0
  2  3  1  0
  2  8  1  0
  2  9  1  0
  3  4  1  0
  3 10  1  0
  3 11  1  0
  4 22  1  0
 12 13  1  0
 12 17  1  0
 12 18  1  0
 12 19  1  0
 13 14  1  0
 13 20  1  0
 13 21  1  0
 14 15  1  0
 15 16  1  0
 15 23  1  0
 16 17  1  0
 17 24  1  0
 17 25  1  0
M  RAD  1  15   2
M  END
>  <reaction>  (11) 
rmg_rxn_303

>  <mol_properties>  (11) 
{"2": {"label": "*4", "atom_type": "Cs"}, "3": {"label": "*3", "atom_type": "O2s"}, "13": {"label": "*0", "atom_type": "O2s"}, "14": {"label": "*1", "atom_type": "Cs"}, "21": {"label": "*2", "atom_type": "H0"}}

>  <type>  (11) 
unop_7

>  <geom_source>  (11) 
Heuristics

$$$$

     RDKit          3D

 25 24  0  0  0  0  0  0  0  0999 V2000
   -0.1255    2.4736   -0.8732 C   0  0  0  0  0  0  0  0  0  0  0  0
    0.9666    1.4166   -0.9624 C   0  0  0  0  0  0  0  0  0  0  0  0
    1.8160    1.3226    0.2965 C   0  0  0  0  0  0  0  0  0  0  0  0
    1.0711    0.9786    1.4493 O   0  0  0  0  0  0  0  0  0  0  0  0
    0.3074    3.4675   -0.7380 H   0  0  0  0  0  0  0  0  0  0  0  0
   -0.7328    2.4924   -1.7792 H   0  0  0  0  0  0  0  0  0  0  0  0
   -0.7831    2.2816   -0.0248 H   0  0  0  0  0  0  0  0  0  0  0  0
    0.5221    0.4351   -1.1641 H   0  0  0  0  0  0  0  0  0  0  0  0
    1.6301    1.6289   -1.8062 H   0  0  0  0  0  0  0  0  0  0  0  0
    2.6369    0.6113    0.1404 H   0  0  0  0  0  0  0  0  0  0  0  0
    2.2633    2.2943    0.5175 H   0  0  0  0  0  0  0  0  0  0  0  0
   -0.1120   -2.1464   -0.7919 C   0  0  0  0  0  0  0  0  0  0  0  0
   -0.1120   -2.1464    0.7301 C   0  0  0  0  0  0  0  0  0  0  0  0
   -1.1603   -1.3338    1.2222 O   0  0  0  0  0  0  0  0  0  0  0  0
   -1.0694   -0.0342    0.7229 C   0  0  0  0  0  3  0  0  0  0  0  0
   -1.1603    0.0220   -0.6681 O   0  0  0  0  0  0  0  0  0  0  0  0
   -0.1120   -0.7048   -1.2800 C   0  0  0  0  0  0  0  0  0  0  0  0
    0.7620   -2.6789   -1.1738 H   0  0  0  0  0  0  0  0  0  0  0  0
   -1.0086   -2.6526   -1.1549 H   0  0  0  0  0  0  0  0  0  0  0  0
   -0.2709   -3.1439    1.1375 H   0  0  0  0  0  0  0  0  0  0  0  0
    0.8516   -1.7704    1.1069 H   0  0  0  0  0  0  0  0  0  0  0  0
    0.0770    0.5082    1.1120 H   0  0  0  0  0  0  0  0  0  0  0  0
   -1.9104    0.5263    1.1249 H   0  0  0  0  0  0  0  0  0  0  0  0
    0.8516   -0.2274   -1.0447 H   0  0  0  0  0  0  0  0  0  0  0  0
   -0.2709   -0.6388   -2.3555 H   0  0  0  0  0  0  0  0  0  0  0  0
  1  2  1  0
  1  5  1  0
  1  6  1  0
  1  7  1  0
  2  3  1  0
  2  8  1  0
  2  9  1  0
  3  4  1  0
  3 10  1  0
  3 11  1  0
  4 22  1  0
 12 13  1  0
 12 17  1  0
 12 18  1  0
 12 19  1  0
 13 14  1  0
 13 20  1  0
 13 21  1  0
 14 15  1  0
 15 16  1  0
 15 23  1  0
 16 17  1  0
 17 24  1  0
 17 25  1  0
M  RAD  1  15   2
M  END
>  <reaction>  (12) 
rmg_rxn_303

>  <mol_properties>  (12) 
{"2": {"label": "*4", "atom_type": "Cs"}, "3": {"label": "*3", "atom_type": "O2s"}, "13": {"label": "*0", "atom_type": "O2s"}, "14": {"label": "*1", "atom_type": "Cs"}, "21": {"label": "*2", "atom_type": "H0"}}

>  <type>  (12) 
unop_8

>  <geom_source>  (12) 
Heuristics

$$$$

     RDKit          3D

 25 24  0  0  0  0  0  0  0  0999 V2000
    2.6672    0.8547    2.6185 C   0  0  0  0  0  0  0  0  0  0  0  0
    1.1616    1.0671    2.6962 C   0  0  0  0  0  0  0  0  0  0  0  0
    0.6016    1.8374    1.5096 C   0  0  0  0  0  0  0  0  0  0  0  0
    0.8132    1.1874    0.2707 O   0  0  0  0  0  0  0  0  0  0  0  0
    3.1939    1.8118    2.6168 H   0  0  0  0  0  0  0  0  0  0  0  0
    3.0292    0.2740    3.4682 H   0  0  0  0  0  0  0  0  0  0  0  0
    2.9381    0.3270    1.7036 H   0  0  0  0  0  0  0  0  0  0  0  0
    0.6502    0.0999    2.7642 H   0  0  0  0  0  0  0  0  0  0  0  0
    0.9034    1.6123    3.6091 H   0  0  0  0  0  0  0  0  0  0  0  0
   -0.4664    2.0361    1.6643 H   0  0  0  0  0  0  0  0  0  0  0  0
    1.1042    2.8032    1.4218 H   0  0  0  0  0  0  0  0  0  0  0  0
   -0.3699   -1.9376   -1.9706 C   0  0  0  0  0  0  0  0  0  0  0  0
   -0.3699   -1.9376   -0.4485 C   0  0  0  0  0  0  0  0  0  0  0  0
   -1.4182   -1.1250    0.0436 O   0  0  0  0  0  0  0  0  0  0  0  0
   -1.3273    0.1745   -0.4557 C   0  0  0  0  0  3  0  0  0  0  0  0
   -1.4182    0.2307   -1.8468 O   0  0  0  0  0  0  0  0  0  0  0  0
   -0.3699   -0.4960   -2.4587 C   0  0  0  0  0  0  0  0  0  0  0  0
    0.5041   -2.4701   -2.3524 H   0  0  0  0  0  0  0  0  0  0  0  0
   -1.2665   -2.4438   -2.3336 H   0  0  0  0  0  0  0  0  0  0  0  0
   -0.5288   -2.9351   -0.0412 H   0  0  0  0  0  0  0  0  0  0  0  0
    0.5937   -1.5617   -0.0718 H   0  0  0  0  0  0  0  0  0  0  0  0
   -0.1808    0.7170   -0.0667 H   0  0  0  0  0  0  0  0  0  0  0  0
   -2.1683    0.7350   -0.0538 H   0  0  0  0  0  0  0  0  0  0  0  0
    0.5937   -0.0186   -2.2234 H   0  0  0  0  0  0  0  0  0  0  0  0
   -0.5288   -0.4301   -3.5341 H   0  0  0  0  0  0  0  0  0  0  0  0
  1  2  1  0
  1  5  1  0
  1  6  1  0
  1  7  1  0
  2  3  1  0
  2  8  1  0
  2  9  1  0
  3  4  1  0
  3 10  1  0
  3 11  1  0
  4 22  1  0
 12 13  1  0
 12 17  1  0
 12 18  1  0
 12 19  1  0
 13 14  1  0
 13 20  1  0
 13 21  1  0
 14 15  1  0
 15 16  1  0
 15 23  1  0
 16 17  1  0
 17 24  1  0
 17 25  1  0
M  RAD  1  15   2
M  END
>  <reaction>  (13) 
rmg_rxn_303

>  <mol_properties>  (13) 
{"2": {"label": "*4", "atom_type": "Cs"}, "3": {"label": "*3", "atom_type": "O2s"}, "13": {"label": "*0", "atom_type": "O2s"}, "14": {"label": "*1", "atom_type": "Cs"}, "21": {"label": "*2", "atom_type": "H0"}}

>  <type>  (13) 
unop_9

>  <geom_source>  (13) 
Heuristics

$$$$

     RDKit          3D

 25 22  0  0  0  0  0  0  0  0999 V2000
    1.8721    0.1891   -1.1716 C   0  0  0  0  0  3  0  0  0  0  0  0
    1.6115   -0.4038    0.2062 C   0  0  0  0  0  2  0  0  0  0  0  0
    1.6716    0.6261    1.3246 C   0  0  0  0  0  3  0  0  0  0  0  0
    0.7136    1.6583    1.1863 O   0  0  0  0  0  0  0  0  0  0  0  0
    2.8747    0.6198   -1.2248 H   0  0  0  0  0  0  0  0  0  0  0  0
    1.7913   -0.5702   -1.9508 H   0  0  0  0  0  0  0  0  0  0  0  0
    1.1592    0.9837   -1.3935 H   0  0  0  0  0  0  0  0  0  0  0  0
    0.6293   -0.8903    0.2247 H   0  0  0  0  0  0  0  0  0  0  0  0
    2.3430   -1.1876    0.4249 H   0  0  0  0  0  0  0  0  0  0  0  0
    1.5653    0.1280    2.2965 H   0  0  0  0  0  0  0  0  0  0  0  0
    2.6424    1.1265    1.3184 H   0  0  0  0  0  0  0  0  0  0  0  0
   -0.4695   -1.4667   -1.0549 C   0  0  0  0  0  0  0  0  0  0  0  0
   -0.4695   -1.4667    0.4671 C   0  0  0  0  0  0  0  0  0  0  0  0
   -1.5178   -0.6541    0.9592 O   0  0  0  0  0  0  0  0  0  0  0  0
   -1.4268    0.6454    0.4599 C   0  0  0  0  0  3  0  0  0  0  0  0
   -1.5178    0.7016   -0.9311 O   0  0  0  0  0  0  0  0  0  0  0  0
   -0.4695   -0.0251   -1.5430 C   0  0  0  0  0  0  0  0  0  0  0  0
    0.4045   -1.9992   -1.4368 H   0  0  0  0  0  0  0  0  0  0  0  0
   -1.3660   -1.9729   -1.4179 H   0  0  0  0  0  0  0  0  0  0  0  0
   -0.6284   -2.4642    0.8745 H   0  0  0  0  0  0  0  0  0  0  0  0
    0.4942   -1.0908    0.8439 H   0  0  0  0  0  0  0  0  0  0  0  0
   -0.2804    1.1879    0.8490 H   0  0  0  0  0  0  0  0  0  0  0  0
   -2.2679    1.2060    0.8619 H   0  0  0  0  0  0  0  0  0  0  0  0
    0.4942    0.4523   -1.3077 H   0  0  0  0  0  0  0  0  0  0  0  0
   -0.6284    0.0409   -2.6185 H   0  0  0  0  0  0  0  0  0  0  0  0
  1  5  1  0
  1  6  1  0
  1  7  1  0
  2  8  1  0
  2  9  1  0
  3  4  1  0
  3 10  1  0
  3 11  1  0
  4 22  1  0
 12 13  1  0
 12 17  1  0
 12 18  1  0
 12 19  1  0
 13 14  1  0
 13 20  1  0
 13 21  1  0
 14 15  1  0
 15 16  1  0
 15 23  1  0
 16 17  1  0
 17 24  1  0
 17 25  1  0
M  RAD  4   1   2   2   3   3   2  15   2
M  END
>  <reaction>  (14) 
rmg_rxn_303

>  <mol_properties>  (14) 
{"2": {"label": "*4", "atom_type": "Cs"}, "3": {"label": "*3", "atom_type": "O2s"}, "13": {"label": "*0", "atom_type": "O2s"}, "14": {"label": "*1", "atom_type": "Cs"}, "21": {"label": "*2", "atom_type": "H0"}}

>  <type>  (14) 
unop_10

>  <geom_source>  (14) 
Heuristics

$$$$

     RDKit          3D

 25 22  0  0  0  0  0  0  0  0999 V2000
   -1.5534    0.7907   -0.0505 O   0  0  0  0  0  1  0  0  0  0  0  0
   -2.2868   -1.4523    0.3933 O   0  0  0  0  0  1  0  0  0  0  0  0
    0.9975   -0.0165   -0.4951 O   0  0  0  0  0  0  0  0  0  0  0  0
   -3.8973    0.2567   -0.1448 C   0  0  0  0  0  0  0  0  0  0  0  0
    3.3581    0.3621   -0.5169 C   0  0  0  0  0  0  0  0  0  0  0  0
   -2.8103    1.1245    0.4933 C   0  0  0  0  0  0  0  0  0  0  0  0
   -3.2901   -1.0937   -0.5314 C   0  0  0  0  0  0  0  0  0  0  0  0
    2.1629   -0.1895    0.2580 C   0  0  0  0  0  0  0  0  0  0  0  0
    4.6543    0.1934    0.2704 C   0  0  0  0  0  0  0  0  0  0  0  0
   -1.1995   -0.5332    0.3324 C   0  0  0  0  0  1  0  0  0  0  0  0
    3.1972    1.4421   -0.7256 H   0  0  0  0  0  0  0  0  0  0  0  0
    3.4493   -0.1735   -1.4868 H   0  0  0  0  0  0  0  0  0  0  0  0
   -4.3024    0.7524   -1.0537 H   0  0  0  0  0  0  0  0  0  0  0  0
   -4.7279    0.1119    0.5799 H   0  0  0  0  0  0  0  0  0  0  0  0
    2.3136   -1.2729    0.4601 H   0  0  0  0  0  0  0  0  0  0  0  0
    2.0603    0.3506    1.2250 H   0  0  0  0  0  0  0  0  0  0  0  0
   -2.8055    0.9973    1.6010 H   0  0  0  0  0  0  0  0  0  0  0  0
   -3.0229    2.1944    0.2850 H   0  0  0  0  0  0  0  0  0  0  0  0
   -4.0840   -1.8701   -0.5248 H   0  0  0  0  0  0  0  0  0  0  0  0
   -2.8722   -1.0543   -1.5640 H   0  0  0  0  0  0  0  0  0  0  0  0
    4.8473   -0.8822    0.4702 H   0  0  0  0  0  0  0  0  0  0  0  0
    4.5940    0.7411    1.2350 H   0  0  0  0  0  0  0  0  0  0  0  0
    5.5023    0.6029   -0.3180 H   0  0  0  0  0  0  0  0  0  0  0  0
   -0.4149   -0.9222   -0.3501 H   0  0  0  0  0  0  0  0  0  0  0  0
    0.1303   -0.4596    0.1581 H   0  0  0  0  0  0  0  0  0  0  0  0
  1  6  1  0
  2  7  1  0
  3  8  1  0
  3 25  1  0
  4  6  1  0
  4  7  1  0
  4 13  1  0
  4 14  1  0
  5  9  1  0
  5  8  1  0
  5 11  1  0
  5 12  1  0
  6 17  1  0
  6 18  1  0
  7 19  1  0
  7 20  1  0
  8 15  1  0
  8 16  1  0
  9 21  1  0
  9 22  1  0
  9 23  1  0
 10 24  1  0
M  RAD  3   1   2   2   2  10   2
M  END
>  <reaction>  (15) 
rmg_rxn_303

>  <mol_properties>  (15) 
{"2": {"label": "*4", "atom_type": "Cs"}, "3": {"label": "*3", "atom_type": "O2s"}, "13": {"label": "*0", "atom_type": "O2s"}, "14": {"label": "*1", "atom_type": "Cs"}, "21": {"label": "*2", "atom_type": "H0"}}

>  <type>  (15) 
unop_11

>  <geom_source>  (15) 
AutoTST

$$$$

     RDKit          3D

 25 23  0  0  0  0  0  0  0  0999 V2000
    1.1253    0.8809   -1.5436 C   0  0  0  0  0  0  0  0  0  0  0  0
    1.5083   -0.0405   -0.3937 C   0  0  0  0  0  3  0  0  0  0  0  0
    1.8688    0.7078    0.8811 C   0  0  0  0  0  0  0  0  0  0  0  0
    0.8079    1.4965    1.3857 O   0  0  0  0  0  0  0  0  0  0  0  0
    1.9602    1.5318   -1.8132 H   0  0  0  0  0  0  0  0  0  0  0  0
    0.8441    0.3111   -2.4303 H   0  0  0  0  0  0  0  0  0  0  0  0
    0.2854    1.5188   -1.2667 H   0  0  0  0  0  0  0  0  0  0  0  0
    0.6855   -0.7320   -0.1781 H   0  0  0  0  0  0  0  0  0  0  0  0
    2.3624   -0.6631   -0.6767 H   0  0  0  0  0  0  0  0  0  0  0  0
    2.2201   -0.0000    1.6425 H   0  0  0  0  0  0  0  0  0  0  0  0
    2.6843    1.4074    0.6845 H   0  0  0  0  0  0  0  0  0  0  0  0
   -0.3751   -1.6285   -0.8555 C   0  0  0  0  0  0  0  0  0  0  0  0
   -0.3751   -1.6285    0.6665 C   0  0  0  0  0  0  0  0  0  0  0  0
   -1.4234   -0.8159    1.1586 O   0  0  0  0  0  0  0  0  0  0  0  0
   -1.3325    0.4837    0.6593 C   0  0  0  0  0  0  0  0  0  0  0  0
   -1.4234    0.5399   -0.7317 O   0  0  0  0  0  3  0  0  0  0  0  0
   -0.3751   -0.1868   -1.3436 C   0  0  0  0  0  3  0  0  0  0  0  0
    0.4988   -2.1609   -1.2374 H   0  0  0  0  0  0  0  0  0  0  0  0
   -1.2717   -2.1346   -1.2185 H   0  0  0  0  0  0  0  0  0  0  0  0
   -0.5341   -2.6260    1.0739 H   0  0  0  0  0  0  0  0  0  0  0  0
    0.5885   -1.2525    1.0433 H   0  0  0  0  0  0  0  0  0  0  0  0
   -0.1861    1.0262    1.0484 H   0  0  0  0  0  0  0  0  0  0  0  0
   -2.1736    1.0442    1.0613 H   0  0  0  0  0  0  0  0  0  0  0  0
    0.5885    0.2906   -1.1083 H   0  0  0  0  0  0  0  0  0  0  0  0
   -0.5341   -0.1209   -2.4191 H   0  0  0  0  0  0  0  0  0  0  0  0
  1  5  1  0
  1  6  1  0
  1  7  1  0
  1 24  1  0
  2  3  1  0
  2  8  1  0
  2  9  1  0
  3  4  1  0
  3 10  1  0
  3 11  1  0
  4 22  1  0
 12 17  1  0
 12 13  1  0
 12 18  1  0
 12 19  1  0
 13 14  1  0
 13 20  1  0
 13 21  1  0
 14 15  1  0
 15 16  2  0
 15 23  1  0
 16 17  1  0
 17 25  1  0
M  CHG  2  16   1  17  -1
M  RAD  1   2   2
M  END
>  <reaction>  (16) 
rmg_rxn_303

>  <mol_properties>  (16) 
{"2": {"label": "*4", "atom_type": "Cs"}, "3": {"label": "*3", "atom_type": "O2s"}, "13": {"label": "*0", "atom_type": "O2s"}, "14": {"label": "*1", "atom_type": "Cs"}, "21": {"label": "*2", "atom_type": "H0"}}

>  <type>  (16) 
unop_12

>  <geom_source>  (16) 
gaussian_log

$$$$
