
     RDKit          3D

 10  9  0  0  0  0  0  0  0  0999 V2000
    2.0404   -0.0577    0.0124 C   0  0  0  0  0  0  0  0  0  0  0  0
    0.5946   -0.0169    0.1900 C   0  0  0  0  0  0  0  0  0  0  0  0
   -0.5945    0.0167    0.3359 C   0  0  0  0  0  0  0  0  0  0  0  0
   -2.0404    0.0576    0.5134 C   0  0  0  0  0  0  0  0  0  0  0  0
    2.4763    0.9348    0.1391 H   0  0  0  0  0  0  0  0  0  0  0  0
    2.3001   -0.4153   -0.9854 H   0  0  0  0  0  0  0  0  0  0  0  0
    2.5035   -0.7251    0.7411 H   0  0  0  0  0  0  0  0  0  0  0  0
   -2.5531   -0.2778   -0.3897 H   0  0  0  0  0  0  0  0  0  0  0  0
   -2.3768    1.0718    0.7353 H   0  0  0  0  0  0  0  0  0  0  0  0
   -2.3500   -0.5882    1.3368 H   0  0  0  0  0  0  0  0  0  0  0  0
  1  2  1  0
  1  5  1  0
  1  6  1  0
  1  7  1  0
  2  3  3  0
  3  4  1  0
  4  8  1  0
  4  9  1  0
  4 10  1  0
M  END
>  <reaction>  (1) 
rmg_rxn_321

>  <mol_properties>  (1) 
{"3": {"label": "donator", "atom_type": "Cs"}, "9": {"label": "d_hydrogen", "atom_type": "H0"}}

>  <type>  (1) 
r1h

$$$$

     RDKit          3D

 17 16  0  0  0  0  0  0  0  0999 V2000
   -2.5196    0.7765    0.6863 C   0  0  0  0  0  0  0  0  0  0  0  0
   -1.7832    0.2264   -0.5439 C   0  0  0  0  0  0  0  0  0  0  0  0
   -0.5364   -0.5090   -0.2164 C   0  0  0  0  0  3  0  0  0  0  0  0
   -0.7195   -1.6896    0.4220 O   0  0  0  0  0  0  0  0  0  0  0  0
    0.4618   -2.3470    0.8423 C   0  0  0  0  0  0  0  0  0  0  0  0
    0.0797   -3.6206    1.5573 C   0  0  0  0  0  0  0  0  0  0  0  0
   -1.8902    1.4809    1.2340 H   0  0  0  0  0  0  0  0  0  0  0  0
   -3.4347    1.2951    0.3937 H   0  0  0  0  0  0  0  0  0  0  0  0
   -2.7882   -0.0345    1.3642 H   0  0  0  0  0  0  0  0  0  0  0  0
   -2.4551   -0.4399   -1.0937 H   0  0  0  0  0  0  0  0  0  0  0  0
   -1.5294    1.0480   -1.2176 H   0  0  0  0  0  0  0  0  0  0  0  0
    0.3864    0.0229    0.0104 H   0  0  0  0  0  0  0  0  0  0  0  0
    1.0871   -2.5604   -0.0319 H   0  0  0  0  0  0  0  0  0  0  0  0
    1.0283   -1.6824    1.5065 H   0  0  0  0  0  0  0  0  0  0  0  0
   -0.4799   -4.2803    0.8934 H   0  0  0  0  0  0  0  0  0  0  0  0
    0.9764   -4.1449    1.8908 H   0  0  0  0  0  0  0  0  0  0  0  0
   -0.5383   -3.4025    2.4289 H   0  0  0  0  0  0  0  0  0  0  0  0
  1  2  1  0
  1  7  1  0
  1  8  1  0
  1  9  1  0
  2  3  1  0
  2 10  1  0
  2 11  1  0
  3  4  1  0
  3 12  1  0
  4  5  1  0
  5  6  1  0
  5 13  1  0
  5 14  1  0
  6 15  1  0
  6 16  1  0
  6 17  1  0
M  RAD  1   3   2
M  END
>  <reaction>  (2) 
rmg_rxn_321

>  <mol_properties>  (2) 
{"2": {"label": "acceptor", "atom_type": "Cs"}}

>  <type>  (2) 
r2

$$$$

     RDKit          3D

 18 17  0  0  0  0  0  0  0  0999 V2000
    2.2026   -0.7213   -0.2612 C   0  0  0  0  0  0  0  0  0  0  0  0
    1.5384    0.2638    0.6915 C   0  0  0  0  0  0  0  0  0  0  0  0
    2.2584    1.5946    0.7694 C   0  0  0  0  0  0  0  0  0  0  0  0
    2.2212    2.2185   -0.4893 O   0  0  0  0  0  0  0  0  0  0  0  0
    2.8988    3.4488   -0.5204 C   0  0  0  0  0  0  0  0  0  0  0  0
    2.7981    4.0296   -1.9118 C   0  0  0  0  0  0  0  0  0  0  0  0
    3.2294   -0.9309    0.0486 H   0  0  0  0  0  0  0  0  0  0  0  0
    2.2338   -0.3181   -1.2734 H   0  0  0  0  0  0  0  0  0  0  0  0
    1.6610   -1.6680   -0.2875 H   0  0  0  0  0  0  0  0  0  0  0  0
    1.4990   -0.1566    1.7002 H   0  0  0  0  0  0  0  0  0  0  0  0
    0.5055    0.4455    0.3835 H   0  0  0  0  0  0  0  0  0  0  0  0
    3.3038    1.4410    1.0808 H   0  0  0  0  0  0  0  0  0  0  0  0
    1.7844    2.2410    1.5226 H   0  0  0  0  0  0  0  0  0  0  0  0
    2.4596    4.1376    0.2164 H   0  0  0  0  0  0  0  0  0  0  0  0
    3.9524    3.3035   -0.2397 H   0  0  0  0  0  0  0  0  0  0  0  0
    1.7543    4.1869   -2.1856 H   0  0  0  0  0  0  0  0  0  0  0  0
    3.2472    3.3545   -2.6411 H   0  0  0  0  0  0  0  0  0  0  0  0
    3.3178    4.9878   -1.9600 H   0  0  0  0  0  0  0  0  0  0  0  0
  1  2  1  0
  1  7  1  0
  1  8  1  0
  1  9  1  0
  2  3  1  0
  2 10  1  0
  2 11  1  0
  3  4  1  0
  3 12  1  0
  3 13  1  0
  4  5  1  0
  5  6  1  0
  5 14  1  0
  5 15  1  0
  6 16  1  0
  6 17  1  0
  6 18  1  0
M  END
>  <reaction>  (3) 
rmg_rxn_321

>  <mol_properties>  (3) 
{"0": {"label": "a_hydrogen", "atom_type": "H0"}, "3": {"label": "acceptor", "atom_type": "Cs"}}

>  <type>  (3) 
r2h

$$$$

     RDKit          3D

 27 25  0  0  0  0  0  0  0  0999 V2000
    0.9388   -0.7482   -3.2157 C   0  0  0  0  0  0  0  0  0  0  0  0
    0.6423   -1.2565   -1.8841 C   0  0  0  0  0  3  0  0  0  0  0  0
    0.3926   -1.6854   -0.7864 C   0  0  0  0  0  0  0  0  0  0  0  0
    0.0784   -2.0811    0.5436 C   0  0  0  0  0  0  0  0  0  0  0  0
    2.0089   -0.5686   -3.3356 H   0  0  0  0  0  0  0  0  0  0  0  0
    0.4165    0.1936   -3.3979 H   0  0  0  0  0  0  0  0  0  0  0  0
    0.6289   -1.4574   -3.9858 H   0  0  0  0  0  0  0  0  0  0  0  0
    0.9098   -2.4950    1.1105 H   0  0  0  0  0  0  0  0  0  0  0  0
   -0.8242   -2.6805    0.6443 H   0  0  0  0  0  0  0  0  0  0  0  0
   -0.2343   -0.9354    1.2150 H   0  0  0  0  0  0  0  0  0  0  0  0
   -2.6815    0.2386    0.3755 C   0  0  0  0  0  0  0  0  0  0  0  0
   -2.0360    0.3748    1.7503 C   0  0  0  0  0  0  0  0  0  0  0  0
   -0.5359    0.2883    1.7158 C   0  0  0  0  0  0  0  0  0  0  0  0
    0.0158    1.1974    0.8488 O   0  0  0  0  0  0  0  0  0  0  0  0
    1.4296    1.2313    0.8547 C   0  0  0  0  0  0  0  0  0  0  0  0
    1.8949    2.0937   -0.2929 C   0  0  0  0  0  0  0  0  0  0  0  0
   -2.4145   -0.7103   -0.0928 H   0  0  0  0  0  0  0  0  0  0  0  0
   -3.7685    0.2873    0.4534 H   0  0  0  0  0  0  0  0  0  0  0  0
   -2.3490    1.0365   -0.2878 H   0  0  0  0  0  0  0  0  0  0  0  0
   -2.3301    1.3291    2.2030 H   0  0  0  0  0  0  0  0  0  0  0  0
   -2.3977   -0.4113    2.4187 H   0  0  0  0  0  0  0  0  0  0  0  0
   -0.0552    0.2884    2.7024 H   0  0  0  0  0  0  0  0  0  0  0  0
    1.7787    1.6290    1.8172 H   0  0  0  0  0  0  0  0  0  0  0  0
    1.8206    0.2138    0.7469 H   0  0  0  0  0  0  0  0  0  0  0  0
    1.4891    3.1025   -0.2083 H   0  0  0  0  0  0  0  0  0  0  0  0
    2.9841    2.1567   -0.2981 H   0  0  0  0  0  0  0  0  0  0  0  0
    1.5663    1.6627   -1.2392 H   0  0  0  0  0  0  0  0  0  0  0  0
  1  2  1  0
  1  5  1  0
  1  6  1  0
  1  7  1  0
  2  3  2  0
  3  4  2  0
  4  8  1  0
  4  9  1  0
 10 13  1  0
 11 12  1  0
 11 17  1  0
 11 18  1  0
 11 19  1  0
 12 13  1  0
 12 20  1  0
 12 21  1  0
 13 14  1  0
 13 22  1  0
 14 15  1  0
 15 16  1  0
 15 23  1  0
 15 24  1  0
 16 25  1  0
 16 26  1  0
 16 27  1  0
M  RAD  1   2   2
M  END
>  <reaction>  (4) 
rmg_rxn_321

>  <mol_properties>  (4) 
{"2": {"label": "*4", "atom_type": "Cdd"}, "3": {"label": "*3", "atom_type": "Cd"}, "9": {"label": "*2", "atom_type": "H0"}, "12": {"label": "*1", "atom_type": "Cs"}, "13": {"label": "*0", "atom_type": "O2s"}}

>  <type>  (4) 
ts

$$$$

     RDKit          3D

 27 25  0  0  0  0  0  0  0  0999 V2000
    0.4599   -2.1037   -3.6599 C   0  0  0  0  0  0  0  0  0  0  0  0
    0.4599   -2.1037   -2.2027 C   0  0  0  0  0  0  0  0  0  0  0  0
    0.4599   -2.1037   -1.0042 C   0  0  0  0  0  0  0  0  0  0  0  0
    0.4599   -2.1037    0.4531 C   0  0  0  0  0  0  0  0  0  0  0  0
   -0.2675   -2.8180   -4.0492 H   0  0  0  0  0  0  0  0  0  0  0  0
    1.4423   -2.3765   -4.0493 H   0  0  0  0  0  0  0  0  0  0  0  0
    0.2051   -1.1165   -4.0493 H   0  0  0  0  0  0  0  0  0  0  0  0
    1.4422   -2.3769    0.8424 H   0  0  0  0  0  0  0  0  0  0  0  0
   -0.2678   -2.8177    0.8424 H   0  0  0  0  0  0  0  0  0  0  0  0
    0.1546   -0.9190    0.9203 H   0  0  0  0  0  0  0  0  0  0  0  0
   -2.6713    0.5625    1.4811 C   0  0  0  0  0  0  0  0  0  0  0  0
   -1.4049    0.1936    2.2421 C   0  0  0  0  0  0  0  0  0  0  0  0
   -0.1536    0.2768    1.3920 C   0  0  0  0  0  3  0  0  0  0  0  0
    0.0404    1.6056    0.9777 O   0  0  0  0  0  0  0  0  0  0  0  0
    1.1639    1.7720    0.1510 C   0  0  0  0  0  0  0  0  0  0  0  0
    1.2781    3.2286   -0.2350 C   0  0  0  0  0  0  0  0  0  0  0  0
   -2.8203   -0.1026    0.6268 H   0  0  0  0  0  0  0  0  0  0  0  0
   -3.5509    0.4862    2.1220 H   0  0  0  0  0  0  0  0  0  0  0  0
   -2.6116    1.5835    1.1041 H   0  0  0  0  0  0  0  0  0  0  0  0
   -1.2815    0.8510    3.1066 H   0  0  0  0  0  0  0  0  0  0  0  0
   -1.4817   -0.8266    2.6283 H   0  0  0  0  0  0  0  0  0  0  0  0
    0.7198   -0.0691    1.9641 H   0  0  0  0  0  0  0  0  0  0  0  0
    2.0707    1.4421    0.6794 H   0  0  0  0  0  0  0  0  0  0  0  0
    1.0654    1.1431   -0.7462 H   0  0  0  0  0  0  0  0  0  0  0  0
    1.3897    3.8516    0.6531 H   0  0  0  0  0  0  0  0  0  0  0  0
    2.1460    3.3824   -0.8781 H   0  0  0  0  0  0  0  0  0  0  0  0
    0.3862    3.5524   -0.7726 H   0  0  0  0  0  0  0  0  0  0  0  0
  1  2  1  0
  1  5  1  0
  1  6  1  0
  1  7  1  0
  2  3  3  0
  3  4  1  0
  4  8  1  0
  4  9  1  0
  4 10  1  0
 11 12  1  0
 11 17  1  0
 11 18  1  0
 11 19  1  0
 12 13  1  0
 12 20  1  0
 12 21  1  0
 13 14  1  0
 13 22  1  0
 14 15  1  0
 15 16  1  0
 15 23  1  0
 15 24  1  0
 16 25  1  0
 16 26  1  0
 16 27  1  0
M  RAD  1  13   2
M  END
>  <reaction>  (5) 
rmg_rxn_321

>  <mol_properties>  (5) 
{"2": {"label": "*4", "atom_type": "Cdd"}, "3": {"label": "*3", "atom_type": "Cd"}, "9": {"label": "*2", "atom_type": "H0"}, "12": {"label": "*1", "atom_type": "Cs"}, "13": {"label": "*0", "atom_type": "O2s"}}

>  <type>  (5) 
unop_1

>  <geom_source>  (5) 
Heuristics

$$$$

     RDKit          3D

 27 25  0  0  0  0  0  0  0  0999 V2000
   -0.1008   -1.9532   -3.9733 C   0  0  0  0  0  0  0  0  0  0  0  0
   -0.1008   -1.9532   -2.5160 C   0  0  0  0  0  0  0  0  0  0  0  0
   -0.1008   -1.9532   -1.3175 C   0  0  0  0  0  0  0  0  0  0  0  0
   -0.1008   -1.9532    0.1397 C   0  0  0  0  0  0  0  0  0  0  0  0
   -0.8282   -2.6675   -4.3626 H   0  0  0  0  0  0  0  0  0  0  0  0
    0.8816   -2.2261   -4.3626 H   0  0  0  0  0  0  0  0  0  0  0  0
   -0.3556   -0.9661   -4.3626 H   0  0  0  0  0  0  0  0  0  0  0  0
    0.8814   -2.2265    0.5291 H   0  0  0  0  0  0  0  0  0  0  0  0
   -0.8285   -2.6672    0.5291 H   0  0  0  0  0  0  0  0  0  0  0  0
   -0.4061   -0.7685    0.6070 H   0  0  0  0  0  0  0  0  0  0  0  0
   -0.9113    1.6832   -1.1150 C   0  0  0  0  0  0  0  0  0  0  0  0
   -1.6343    1.1457    0.1128 C   0  0  0  0  0  0  0  0  0  0  0  0
   -0.7143    0.4273    1.0786 C   0  0  0  0  0  3  0  0  0  0  0  0
    0.2354    1.3342    1.5790 O   0  0  0  0  0  0  0  0  0  0  0  0
    1.1572    0.7445    2.4601 C   0  0  0  0  0  0  0  0  0  0  0  0
    2.1275    1.8012    2.9349 C   0  0  0  0  0  0  0  0  0  0  0  0
   -0.4332    0.8731   -1.6714 H   0  0  0  0  0  0  0  0  0  0  0  0
   -1.6046    2.1884   -1.7891 H   0  0  0  0  0  0  0  0  0  0  0  0
   -0.1370    2.3941   -0.8267 H   0  0  0  0  0  0  0  0  0  0  0  0
   -2.1273    1.9628    0.6457 H   0  0  0  0  0  0  0  0  0  0  0  0
   -2.4182    0.4454   -0.1887 H   0  0  0  0  0  0  0  0  0  0  0  0
   -1.2940   -0.0044    1.9077 H   0  0  0  0  0  0  0  0  0  0  0  0
    0.6268    0.2980    3.3142 H   0  0  0  0  0  0  0  0  0  0  0  0
    1.6940   -0.0696    1.9511 H   0  0  0  0  0  0  0  0  0  0  0  0
    1.5976    2.6020    3.4518 H   0  0  0  0  0  0  0  0  0  0  0  0
    2.8542    1.3656    3.6224 H   0  0  0  0  0  0  0  0  0  0  0  0
    2.6650    2.2336    2.0902 H   0  0  0  0  0  0  0  0  0  0  0  0
  1  2  1  0
  1  5  1  0
  1  6  1  0
  1  7  1  0
  2  3  3  0
  3  4  1  0
  4  8  1  0
  4  9  1  0
  4 10  1  0
 11 12  1  0
 11 17  1  0
 11 18  1  0
 11 19  1  0
 12 13  1  0
 12 20  1  0
 12 21  1  0
 13 14  1  0
 13 22  1  0
 14 15  1  0
 15 16  1  0
 15 23  1  0
 15 24  1  0
 16 25  1  0
 16 26  1  0
 16 27  1  0
M  RAD  1  13   2
M  END
>  <reaction>  (6) 
rmg_rxn_321

>  <mol_properties>  (6) 
{"2": {"label": "*4", "atom_type": "Cdd"}, "3": {"label": "*3", "atom_type": "Cd"}, "9": {"label": "*2", "atom_type": "H0"}, "12": {"label": "*1", "atom_type": "Cs"}, "13": {"label": "*0", "atom_type": "O2s"}}

>  <type>  (6) 
unop_2

>  <geom_source>  (6) 
Heuristics

$$$$

     RDKit          3D

 27 25  0  0  0  0  0  0  0  0999 V2000
    0.7745   -1.9538   -3.6265 C   0  0  0  0  0  0  0  0  0  0  0  0
    0.7745   -1.9538   -2.1693 C   0  0  0  0  0  0  0  0  0  0  0  0
    0.7745   -1.9538   -0.9708 C   0  0  0  0  0  0  0  0  0  0  0  0
    0.7745   -1.9538    0.4865 C   0  0  0  0  0  0  0  0  0  0  0  0
    0.0470   -2.6681   -4.0158 H   0  0  0  0  0  0  0  0  0  0  0  0
    1.7568   -2.2267   -4.0159 H   0  0  0  0  0  0  0  0  0  0  0  0
    0.5196   -0.9667   -4.0159 H   0  0  0  0  0  0  0  0  0  0  0  0
    1.7567   -2.2271    0.8758 H   0  0  0  0  0  0  0  0  0  0  0  0
    0.0467   -2.6678    0.8758 H   0  0  0  0  0  0  0  0  0  0  0  0
    0.4691   -0.7691    0.9537 H   0  0  0  0  0  0  0  0  0  0  0  0
   -2.0407    0.0722    2.6319 C   0  0  0  0  0  0  0  0  0  0  0  0
   -0.5396    0.2935    2.7621 C   0  0  0  0  0  0  0  0  0  0  0  0
    0.1609    0.4266    1.4253 C   0  0  0  0  0  3  0  0  0  0  0  0
   -0.3220    1.5653    0.7580 O   0  0  0  0  0  0  0  0  0  0  0  0
    0.2490    1.7492   -0.5124 C   0  0  0  0  0  0  0  0  0  0  0  0
   -0.3374    2.9932   -1.1387 C   0  0  0  0  0  0  0  0  0  0  0  0
   -2.2527   -0.8393    2.0676 H   0  0  0  0  0  0  0  0  0  0  0  0
   -2.5098   -0.0243    3.6121 H   0  0  0  0  0  0  0  0  0  0  0  0
   -2.5100    0.9061    2.1099 H   0  0  0  0  0  0  0  0  0  0  0  0
   -0.3425    1.1946    3.3486 H   0  0  0  0  0  0  0  0  0  0  0  0
   -0.0815   -0.5412    3.3000 H   0  0  0  0  0  0  0  0  0  0  0  0
    1.2479    0.5101    1.5711 H   0  0  0  0  0  0  0  0  0  0  0  0
    1.3415    1.8423   -0.4228 H   0  0  0  0  0  0  0  0  0  0  0  0
    0.0498    0.8705   -1.1435 H   0  0  0  0  0  0  0  0  0  0  0  0
   -0.1285    3.8670   -0.5206 H   0  0  0  0  0  0  0  0  0  0  0  0
    0.0925    3.1570   -2.1280 H   0  0  0  0  0  0  0  0  0  0  0  0
   -1.4187    2.8955   -1.2423 H   0  0  0  0  0  0  0  0  0  0  0  0
  1  2  1  0
  1  5  1  0
  1  6  1  0
  1  7  1  0
  2  3  3  0
  3  4  1  0
  4  8  1  0
  4  9  1  0
  4 10  1  0
 11 12  1  0
 11 17  1  0
 11 18  1  0
 11 19  1  0
 12 13  1  0
 12 20  1  0
 12 21  1  0
 13 14  1  0
 13 22  1  0
 14 15  1  0
 15 16  1  0
 15 23  1  0
 15 24  1  0
 16 25  1  0
 16 26  1  0
 16 27  1  0
M  RAD  1  13   2
M  END
>  <reaction>  (7) 
rmg_rxn_321

>  <mol_properties>  (7) 
{"2": {"label": "*4", "atom_type": "Cdd"}, "3": {"label": "*3", "atom_type": "Cd"}, "9": {"label": "*2", "atom_type": "H0"}, "12": {"label": "*1", "atom_type": "Cs"}, "13": {"label": "*0", "atom_type": "O2s"}}

>  <type>  (7) 
unop_3

>  <geom_source>  (7) 
Heuristics

$$$$

     RDKit          3D

 27 25  0  0  0  0  0  0  0  0999 V2000
    0.0087   -1.1820   -4.4031 C   0  0  0  0  0  0  0  0  0  0  0  0
    0.0087   -1.1820   -2.9458 C   0  0  0  0  0  0  0  0  0  0  0  0
    0.0087   -1.1820   -1.7473 C   0  0  0  0  0  0  0  0  0  0  0  0
    0.0087   -1.1820   -0.2901 C   0  0  0  0  0  0  0  0  0  0  0  0
   -0.7188   -1.8963   -4.7924 H   0  0  0  0  0  0  0  0  0  0  0  0
    0.9910   -1.4549   -4.7924 H   0  0  0  0  0  0  0  0  0  0  0  0
   -0.2462   -0.1949   -4.7925 H   0  0  0  0  0  0  0  0  0  0  0  0
    0.9909   -1.4553    0.0992 H   0  0  0  0  0  0  0  0  0  0  0  0
   -0.7191   -1.8960    0.0992 H   0  0  0  0  0  0  0  0  0  0  0  0
   -0.2967    0.0026    0.1772 H   0  0  0  0  0  0  0  0  0  0  0  0
    1.7668    1.6186   -0.1430 C   0  0  0  0  0  0  0  0  0  0  0  0
    0.4039    2.2221    0.1695 C   0  0  0  0  0  0  0  0  0  0  0  0
   -0.6049    1.1984    0.6488 C   0  0  0  0  0  3  0  0  0  0  0  0
   -0.1630    0.6411    1.8608 O   0  0  0  0  0  0  0  0  0  0  0  0
   -1.0233   -0.3489    2.3641 C   0  0  0  0  0  0  0  0  0  0  0  0
   -0.4567   -0.8786    3.6610 C   0  0  0  0  0  0  0  0  0  0  0  0
    1.6864    0.8587   -0.9244 H   0  0  0  0  0  0  0  0  0  0  0  0
    2.4643    2.3825   -0.4897 H   0  0  0  0  0  0  0  0  0  0  0  0
    2.1916    1.1453    0.7421 H   0  0  0  0  0  0  0  0  0  0  0  0
    0.5029    2.9965    0.9346 H   0  0  0  0  0  0  0  0  0  0  0  0
   -0.0061    2.7069   -0.7208 H   0  0  0  0  0  0  0  0  0  0  0  0
   -1.5888    1.6696    0.7893 H   0  0  0  0  0  0  0  0  0  0  0  0
   -2.0263    0.0729    2.5267 H   0  0  0  0  0  0  0  0  0  0  0  0
   -1.1292   -1.1616    1.6304 H   0  0  0  0  0  0  0  0  0  0  0  0
   -0.3643   -0.0762    4.3936 H   0  0  0  0  0  0  0  0  0  0  0  0
   -1.1098   -1.6502    4.0717 H   0  0  0  0  0  0  0  0  0  0  0  0
    0.5311   -1.3111    3.4980 H   0  0  0  0  0  0  0  0  0  0  0  0
  1  2  1  0
  1  5  1  0
  1  6  1  0
  1  7  1  0
  2  3  3  0
  3  4  1  0
  4  8  1  0
  4  9  1  0
  4 10  1  0
 11 12  1  0
 11 17  1  0
 11 18  1  0
 11 19  1  0
 12 13  1  0
 12 20  1  0
 12 21  1  0
 13 14  1  0
 13 22  1  0
 14 15  1  0
 15 16  1  0
 15 23  1  0
 15 24  1  0
 16 25  1  0
 16 26  1  0
 16 27  1  0
M  RAD  1  13   2
M  END
>  <reaction>  (8) 
rmg_rxn_321

>  <mol_properties>  (8) 
{"2": {"label": "*4", "atom_type": "Cdd"}, "3": {"label": "*3", "atom_type": "Cd"}, "9": {"label": "*2", "atom_type": "H0"}, "12": {"label": "*1", "atom_type": "Cs"}, "13": {"label": "*0", "atom_type": "O2s"}}

>  <type>  (8) 
unop_4

>  <geom_source>  (8) 
Heuristics

$$$$

     RDKit          3D

 27 25  0  0  0  0  0  0  0  0999 V2000
    1.0527   -1.5298   -3.8030 C   0  0  0  0  0  0  0  0  0  0  0  0
    1.0527   -1.5298   -2.3457 C   0  0  0  0  0  0  0  0  0  0  0  0
    1.0527   -1.5298   -1.1472 C   0  0  0  0  0  0  0  0  0  0  0  0
    1.0527   -1.5298    0.3100 C   0  0  0  0  0  0  0  0  0  0  0  0
    0.3253   -2.2441   -4.1923 H   0  0  0  0  0  0  0  0  0  0  0  0
    2.0351   -1.8027   -4.1923 H   0  0  0  0  0  0  0  0  0  0  0  0
    0.7979   -0.5427   -4.1924 H   0  0  0  0  0  0  0  0  0  0  0  0
    2.0349   -1.8031    0.6993 H   0  0  0  0  0  0  0  0  0  0  0  0
    0.3250   -2.2439    0.6993 H   0  0  0  0  0  0  0  0  0  0  0  0
    0.7474   -0.3452    0.7773 H   0  0  0  0  0  0  0  0  0  0  0  0
   -0.5118   -0.1999    3.3513 C   0  0  0  0  0  0  0  0  0  0  0  0
    0.4447    0.8292    2.7637 C   0  0  0  0  0  0  0  0  0  0  0  0
    0.4392    0.8506    1.2489 C   0  0  0  0  0  3  0  0  0  0  0  0
   -0.8348    1.2305    0.7932 O   0  0  0  0  0  0  0  0  0  0  0  0
   -0.9434    1.2434   -0.6074 C   0  0  0  0  0  0  0  0  0  0  0  0
   -2.3449    1.6620   -0.9872 C   0  0  0  0  0  0  0  0  0  0  0  0
   -0.2538   -1.2077    3.0163 H   0  0  0  0  0  0  0  0  0  0  0  0
   -0.4771   -0.1906    4.4417 H   0  0  0  0  0  0  0  0  0  0  0  0
   -1.5366    0.0041    3.0410 H   0  0  0  0  0  0  0  0  0  0  0  0
    0.1897    1.8284    3.1260 H   0  0  0  0  0  0  0  0  0  0  0  0
    1.4670    0.6240    3.0933 H   0  0  0  0  0  0  0  0  0  0  0  0
    1.1968    1.5548    0.8748 H   0  0  0  0  0  0  0  0  0  0  0  0
   -0.2055    1.9386   -1.0345 H   0  0  0  0  0  0  0  0  0  0  0  0
   -0.7180    0.2448   -1.0099 H   0  0  0  0  0  0  0  0  0  0  0  0
   -2.5644    2.6577   -0.6003 H   0  0  0  0  0  0  0  0  0  0  0  0
   -2.4530    1.6799   -2.0728 H   0  0  0  0  0  0  0  0  0  0  0  0
   -3.0763    0.9646   -0.5773 H   0  0  0  0  0  0  0  0  0  0  0  0
  1  2  1  0
  1  5  1  0
  1  6  1  0
  1  7  1  0
  2  3  3  0
  3  4  1  0
  4  8  1  0
  4  9  1  0
  4 10  1  0
 11 12  1  0
 11 17  1  0
 11 18  1  0
 11 19  1  0
 12 13  1  0
 12 20  1  0
 12 21  1  0
 13 14  1  0
 13 22  1  0
 14 15  1  0
 15 16  1  0
 15 23  1  0
 15 24  1  0
 16 25  1  0
 16 26  1  0
 16 27  1  0
M  RAD  1  13   2
M  END
>  <reaction>  (9) 
rmg_rxn_321

>  <mol_properties>  (9) 
{"2": {"label": "*4", "atom_type": "Cdd"}, "3": {"label": "*3", "atom_type": "Cd"}, "9": {"label": "*2", "atom_type": "H0"}, "12": {"label": "*1", "atom_type": "Cs"}, "13": {"label": "*0", "atom_type": "O2s"}}

>  <type>  (9) 
unop_5

>  <geom_source>  (9) 
Heuristics

$$$$

     RDKit          3D

 27 25  0  0  0  0  0  0  0  0999 V2000
    0.2857   -1.0205   -4.4123 C   0  0  0  0  0  0  0  0  0  0  0  0
    0.2857   -1.0205   -2.9550 C   0  0  0  0  0  0  0  0  0  0  0  0
    0.2857   -1.0205   -1.7565 C   0  0  0  0  0  0  0  0  0  0  0  0
    0.2857   -1.0205   -0.2993 C   0  0  0  0  0  0  0  0  0  0  0  0
   -0.4418   -1.7348   -4.8016 H   0  0  0  0  0  0  0  0  0  0  0  0
    1.2680   -1.2933   -4.8016 H   0  0  0  0  0  0  0  0  0  0  0  0
    0.0308   -0.0333   -4.8016 H   0  0  0  0  0  0  0  0  0  0  0  0
    1.2679   -1.2937    0.0901 H   0  0  0  0  0  0  0  0  0  0  0  0
   -0.4420   -1.7345    0.0901 H   0  0  0  0  0  0  0  0  0  0  0  0
   -0.0197    0.1642    0.1680 H   0  0  0  0  0  0  0  0  0  0  0  0
    2.1964    1.3427    0.8760 C   0  0  0  0  0  0  0  0  0  0  0  0
    0.9289    2.1854    0.8251 C   0  0  0  0  0  0  0  0  0  0  0  0
   -0.3279    1.3600    0.6396 C   0  0  0  0  0  3  0  0  0  0  0  0
   -0.4951    0.5110    1.7470 O   0  0  0  0  0  0  0  0  0  0  0  0
   -1.6221   -0.3213    1.6444 C   0  0  0  0  0  0  0  0  0  0  0  0
   -1.7063   -1.1881    2.8794 C   0  0  0  0  0  0  0  0  0  0  0  0
    2.3221    0.7719   -0.0475 H   0  0  0  0  0  0  0  0  0  0  0  0
    3.0799    1.9698    1.0046 H   0  0  0  0  0  0  0  0  0  0  0  0
    2.1568    0.6354    1.7043 H   0  0  0  0  0  0  0  0  0  0  0  0
    0.8288    2.7685    1.7442 H   0  0  0  0  0  0  0  0  0  0  0  0
    0.9858    2.9012    0.0003 H   0  0  0  0  0  0  0  0  0  0  0  0
   -1.2037    2.0172    0.5352 H   0  0  0  0  0  0  0  0  0  0  0  0
   -2.5313    0.2893    1.5407 H   0  0  0  0  0  0  0  0  0  0  0  0
   -1.5464   -0.9450    0.7415 H   0  0  0  0  0  0  0  0  0  0  0  0
   -1.7952   -0.5709    3.7741 H   0  0  0  0  0  0  0  0  0  0  0  0
   -2.5763   -1.8441    2.8224 H   0  0  0  0  0  0  0  0  0  0  0  0
   -0.8122   -1.8053    2.9748 H   0  0  0  0  0  0  0  0  0  0  0  0
  1  2  1  0
  1  5  1  0
  1  6  1  0
  1  7  1  0
  2  3  3  0
  3  4  1  0
  4  8  1  0
  4  9  1  0
  4 10  1  0
 11 12  1  0
 11 17  1  0
 11 18  1  0
 11 19  1  0
 12 13  1  0
 12 20  1  0
 12 21  1  0
 13 14  1  0
 13 22  1  0
 14 15  1  0
 15 16  1  0
 15 23  1  0
 15 24  1  0
 16 25  1  0
 16 26  1  0
 16 27  1  0
M  RAD  1  13   2
M  END
>  <reaction>  (10) 
rmg_rxn_321

>  <mol_properties>  (10) 
{"2": {"label": "*4", "atom_type": "Cdd"}, "3": {"label": "*3", "atom_type": "Cd"}, "9": {"label": "*2", "atom_type": "H0"}, "12": {"label": "*1", "atom_type": "Cs"}, "13": {"label": "*0", "atom_type": "O2s"}}

>  <type>  (10) 
unop_6

>  <geom_source>  (10) 
Heuristics

$$$$

     RDKit          3D

 27 25  0  0  0  0  0  0  0  0999 V2000
    0.5990   -0.9739   -4.3216 C   0  0  0  0  0  0  0  0  0  0  0  0
    0.5990   -0.9739   -2.8643 C   0  0  0  0  0  0  0  0  0  0  0  0
    0.5990   -0.9739   -1.6658 C   0  0  0  0  0  0  0  0  0  0  0  0
    0.5990   -0.9739   -0.2085 C   0  0  0  0  0  0  0  0  0  0  0  0
   -0.1285   -1.6882   -4.7109 H   0  0  0  0  0  0  0  0  0  0  0  0
    1.5813   -1.2468   -4.7109 H   0  0  0  0  0  0  0  0  0  0  0  0
    0.3441    0.0132   -4.7109 H   0  0  0  0  0  0  0  0  0  0  0  0
    1.5812   -1.2472    0.1808 H   0  0  0  0  0  0  0  0  0  0  0  0
   -0.1288   -1.6879    0.1808 H   0  0  0  0  0  0  0  0  0  0  0  0
    0.2936    0.2107    0.2587 H   0  0  0  0  0  0  0  0  0  0  0  0
    2.0796    0.8511    2.0472 C   0  0  0  0  0  0  0  0  0  0  0  0
    1.1210    1.9385    1.5805 C   0  0  0  0  0  0  0  0  0  0  0  0
   -0.0146    1.4065    0.7303 C   0  0  0  0  0  3  0  0  0  0  0  0
   -0.7995    0.5291    1.4979 O   0  0  0  0  0  0  0  0  0  0  0  0
   -1.8610   -0.0427    0.7769 C   0  0  0  0  0  0  0  0  0  0  0  0
   -2.6350   -0.9642    1.6909 C   0  0  0  0  0  0  0  0  0  0  0  0
    2.5316    0.3381    1.1946 H   0  0  0  0  0  0  0  0  0  0  0  0
    2.8856    1.2709    2.6508 H   0  0  0  0  0  0  0  0  0  0  0  0
    1.5564    0.1067    2.6472 H   0  0  0  0  0  0  0  0  0  0  0  0
    0.6951    2.4586    2.4424 H   0  0  0  0  0  0  0  0  0  0  0  0
    1.6589    2.6874    0.9925 H   0  0  0  0  0  0  0  0  0  0  0  0
   -0.6338    2.2362    0.3588 H   0  0  0  0  0  0  0  0  0  0  0  0
   -2.5166    0.7485    0.3838 H   0  0  0  0  0  0  0  0  0  0  0  0
   -1.4700   -0.5985   -0.0881 H   0  0  0  0  0  0  0  0  0  0  0  0
   -3.0347   -0.4112    2.5417 H   0  0  0  0  0  0  0  0  0  0  0  0
   -3.4667   -1.4204    1.1517 H   0  0  0  0  0  0  0  0  0  0  0  0
   -1.9897   -1.7579    2.0689 H   0  0  0  0  0  0  0  0  0  0  0  0
  1  2  1  0
  1  5  1  0
  1  6  1  0
  1  7  1  0
  2  3  3  0
  3  4  1  0
  4  8  1  0
  4  9  1  0
  4 10  1  0
 11 12  1  0
 11 17  1  0
 11 18  1  0
 11 19  1  0
 12 13  1  0
 12 20  1  0
 12 21  1  0
 13 14  1  0
 13 22  1  0
 14 15  1  0
 15 16  1  0
 15 23  1  0
 15 24  1  0
 16 25  1  0
 16 26  1  0
 16 27  1  0
M  RAD  1  13   2
M  END
>  <reaction>  (11) 
rmg_rxn_321

>  <mol_properties>  (11) 
{"2": {"label": "*4", "atom_type": "Cdd"}, "3": {"label": "*3", "atom_type": "Cd"}, "9": {"label": "*2", "atom_type": "H0"}, "12": {"label": "*1", "atom_type": "Cs"}, "13": {"label": "*0", "atom_type": "O2s"}}

>  <type>  (11) 
unop_7

>  <geom_source>  (11) 
Heuristics

$$$$

     RDKit          3D

 27 25  0  0  0  0  0  0  0  0999 V2000
    0.2411   -2.1227   -3.7526 C   0  0  0  0  0  0  0  0  0  0  0  0
    0.2411   -2.1227   -2.2953 C   0  0  0  0  0  0  0  0  0  0  0  0
    0.2411   -2.1227   -1.0968 C   0  0  0  0  0  0  0  0  0  0  0  0
    0.2411   -2.1227    0.3604 C   0  0  0  0  0  0  0  0  0  0  0  0
   -0.4864   -2.8370   -4.1419 H   0  0  0  0  0  0  0  0  0  0  0  0
    1.2234   -2.3955   -4.1419 H   0  0  0  0  0  0  0  0  0  0  0  0
   -0.0138   -1.1355   -4.1419 H   0  0  0  0  0  0  0  0  0  0  0  0
    1.2233   -2.3959    0.7498 H   0  0  0  0  0  0  0  0  0  0  0  0
   -0.4867   -2.8367    0.7497 H   0  0  0  0  0  0  0  0  0  0  0  0
   -0.0643   -0.9380    0.8277 H   0  0  0  0  0  0  0  0  0  0  0  0
   -2.5700    1.0474    0.3115 C   0  0  0  0  0  0  0  0  0  0  0  0
   -1.8717    0.3728    1.4848 C   0  0  0  0  0  0  0  0  0  0  0  0
   -0.3725    0.2578    1.2993 C   0  0  0  0  0  3  0  0  0  0  0  0
    0.1880    1.5446    1.2284 O   0  0  0  0  0  0  0  0  0  0  0  0
    1.5773    1.5353    1.0203 C   0  0  0  0  0  0  0  0  0  0  0  0
    2.0741    2.9611    0.9592 C   0  0  0  0  0  0  0  0  0  0  0  0
   -2.4041    0.4897   -0.6136 H   0  0  0  0  0  0  0  0  0  0  0  0
   -3.6467    1.1078    0.4773 H   0  0  0  0  0  0  0  0  0  0  0  0
   -2.1902    2.0586    0.1657 H   0  0  0  0  0  0  0  0  0  0  0  0
   -2.0660    0.9275    2.4064 H   0  0  0  0  0  0  0  0  0  0  0  0
   -2.2706   -0.6348    1.6313 H   0  0  0  0  0  0  0  0  0  0  0  0
    0.0735   -0.3000    2.1358 H   0  0  0  0  0  0  0  0  0  0  0  0
    2.0751    0.9893    1.8354 H   0  0  0  0  0  0  0  0  0  0  0  0
    1.8127    1.0057    0.0853 H   0  0  0  0  0  0  0  0  0  0  0  0
    1.8536    3.4829    1.8911 H   0  0  0  0  0  0  0  0  0  0  0  0
    3.1532    2.9789    0.7985 H   0  0  0  0  0  0  0  0  0  0  0  0
    1.5928    3.4988    0.1416 H   0  0  0  0  0  0  0  0  0  0  0  0
  1  2  1  0
  1  5  1  0
  1  6  1  0
  1  7  1  0
  2  3  3  0
  3  4  1  0
  4  8  1  0
  4  9  1  0
  4 10  1  0
 11 12  1  0
 11 17  1  0
 11 18  1  0
 11 19  1  0
 12 13  1  0
 12 20  1  0
 12 21  1  0
 13 14  1  0
 13 22  1  0
 14 15  1  0
 15 16  1  0
 15 23  1  0
 15 24  1  0
 16 25  1  0
 16 26  1  0
 16 27  1  0
M  RAD  1  13   2
M  END
>  <reaction>  (12) 
rmg_rxn_321

>  <mol_properties>  (12) 
{"2": {"label": "*4", "atom_type": "Cdd"}, "3": {"label": "*3", "atom_type": "Cd"}, "9": {"label": "*2", "atom_type": "H0"}, "12": {"label": "*1", "atom_type": "Cs"}, "13": {"label": "*0", "atom_type": "O2s"}}

>  <type>  (12) 
unop_8

>  <geom_source>  (12) 
Heuristics

$$$$

     RDKit          3D

 27 25  0  0  0  0  0  0  0  0999 V2000
   -0.1800   -1.4362   -4.2983 C   0  0  0  0  0  0  0  0  0  0  0  0
   -0.1800   -1.4362   -2.8410 C   0  0  0  0  0  0  0  0  0  0  0  0
   -0.1800   -1.4362   -1.6425 C   0  0  0  0  0  0  0  0  0  0  0  0
   -0.1800   -1.4362   -0.1853 C   0  0  0  0  0  0  0  0  0  0  0  0
   -0.9074   -2.1506   -4.6876 H   0  0  0  0  0  0  0  0  0  0  0  0
    0.8023   -1.7091   -4.6876 H   0  0  0  0  0  0  0  0  0  0  0  0
   -0.4348   -0.4491   -4.6876 H   0  0  0  0  0  0  0  0  0  0  0  0
    0.8022   -1.7095    0.2041 H   0  0  0  0  0  0  0  0  0  0  0  0
   -0.9077   -2.1503    0.2040 H   0  0  0  0  0  0  0  0  0  0  0  0
   -0.4853   -0.2516    0.2820 H   0  0  0  0  0  0  0  0  0  0  0  0
    1.0214    1.7216   -0.8370 C   0  0  0  0  0  0  0  0  0  0  0  0
   -0.3355    2.0178   -0.2122 C   0  0  0  0  0  0  0  0  0  0  0  0
   -0.7936    0.9442    0.7536 C   0  0  0  0  0  3  0  0  0  0  0  0
    0.1021    0.8774    1.8345 O   0  0  0  0  0  0  0  0  0  0  0  0
   -0.2259   -0.1203    2.7676 C   0  0  0  0  0  0  0  0  0  0  0  0
    0.7958   -0.1062    3.8809 C   0  0  0  0  0  0  0  0  0  0  0  0
    0.9976    0.7808   -1.3925 H   0  0  0  0  0  0  0  0  0  0  0  0
    1.3158    2.5117   -1.5293 H   0  0  0  0  0  0  0  0  0  0  0  0
    1.7901    1.6376   -0.0687 H   0  0  0  0  0  0  0  0  0  0  0  0
   -0.3036    2.9723    0.3194 H   0  0  0  0  0  0  0  0  0  0  0  0
   -1.0957    2.1148   -0.9923 H   0  0  0  0  0  0  0  0  0  0  0  0
   -1.8067    1.1673    1.1191 H   0  0  0  0  0  0  0  0  0  0  0  0
   -1.2345    0.0583    3.1690 H   0  0  0  0  0  0  0  0  0  0  0  0
   -0.2434   -1.1034    2.2743 H   0  0  0  0  0  0  0  0  0  0  0  0
    0.8042    0.8637    4.3795 H   0  0  0  0  0  0  0  0  0  0  0  0
    0.5607   -0.8741    4.6196 H   0  0  0  0  0  0  0  0  0  0  0  0
    1.7940   -0.2987    3.4861 H   0  0  0  0  0  0  0  0  0  0  0  0
  1  2  1  0
  1  5  1  0
  1  6  1  0
  1  7  1  0
  2  3  3  0
  3  4  1  0
  4  8  1  0
  4  9  1  0
  4 10  1  0
 11 12  1  0
 11 17  1  0
 11 18  1  0
 11 19  1  0
 12 13  1  0
 12 20  1  0
 12 21  1  0
 13 14  1  0
 13 22  1  0
 14 15  1  0
 15 16  1  0
 15 23  1  0
 15 24  1  0
 16 25  1  0
 16 26  1  0
 16 27  1  0
M  RAD  1  13   2
M  END
>  <reaction>  (13) 
rmg_rxn_321

>  <mol_properties>  (13) 
{"2": {"label": "*4", "atom_type": "Cdd"}, "3": {"label": "*3", "atom_type": "Cd"}, "9": {"label": "*2", "atom_type": "H0"}, "12": {"label": "*1", "atom_type": "Cs"}, "13": {"label": "*0", "atom_type": "O2s"}}

>  <type>  (13) 
unop_9

>  <geom_source>  (13) 
Heuristics

$$$$

     RDKit          3D

 27 25  0  0  0  0  0  0  0  0999 V2000
    0.0653   -2.0760   -3.8536 C   0  0  0  0  0  0  0  0  0  0  0  0
    0.0653   -2.0760   -2.3963 C   0  0  0  0  0  0  0  0  0  0  0  0
    0.0653   -2.0760   -1.1978 C   0  0  0  0  0  0  0  0  0  0  0  0
    0.0653   -2.0760    0.2594 C   0  0  0  0  0  0  0  0  0  0  0  0
   -0.6622   -2.7903   -4.2429 H   0  0  0  0  0  0  0  0  0  0  0  0
    1.0476   -2.3489   -4.2429 H   0  0  0  0  0  0  0  0  0  0  0  0
   -0.1896   -1.0889   -4.2429 H   0  0  0  0  0  0  0  0  0  0  0  0
    1.0475   -2.3493    0.6488 H   0  0  0  0  0  0  0  0  0  0  0  0
   -0.6624   -2.7900    0.6487 H   0  0  0  0  0  0  0  0  0  0  0  0
   -0.2401   -0.8913    0.7267 H   0  0  0  0  0  0  0  0  0  0  0  0
   -1.9025    1.4502   -0.6132 C   0  0  0  0  0  0  0  0  0  0  0  0
   -1.9262    0.7129    0.7191 C   0  0  0  0  0  0  0  0  0  0  0  0
   -0.5483    0.3045    1.1983 C   0  0  0  0  0  3  0  0  0  0  0  0
    0.2247    1.4553    1.4288 O   0  0  0  0  0  0  0  0  0  0  0  0
    1.5361    1.1704    1.8442 C   0  0  0  0  0  0  0  0  0  0  0  0
    2.2756    2.4702    2.0614 C   0  0  0  0  0  0  0  0  0  0  0  0
   -1.4636    0.8265   -1.3960 H   0  0  0  0  0  0  0  0  0  0  0  0
   -2.9105    1.7233   -0.9289 H   0  0  0  0  0  0  0  0  0  0  0  0
   -1.3095    2.3618   -0.5395 H   0  0  0  0  0  0  0  0  0  0  0  0
   -2.3892    1.3389    1.4862 H   0  0  0  0  0  0  0  0  0  0  0  0
   -2.5356   -0.1914    0.6378 H   0  0  0  0  0  0  0  0  0  0  0  0
   -0.6258   -0.2866    2.1226 H   0  0  0  0  0  0  0  0  0  0  0  0
    1.5158    0.5800    2.7722 H   0  0  0  0  0  0  0  0  0  0  0  0
    2.0458    0.5605    1.0838 H   0  0  0  0  0  0  0  0  0  0  0  0
    1.7786    3.0696    2.8251 H   0  0  0  0  0  0  0  0  0  0  0  0
    3.2986    2.2736    2.3858 H   0  0  0  0  0  0  0  0  0  0  0  0
    2.3098    3.0493    1.1379 H   0  0  0  0  0  0  0  0  0  0  0  0
  1  2  1  0
  1  5  1  0
  1  6  1  0
  1  7  1  0
  2  3  3  0
  3  4  1  0
  4  8  1  0
  4  9  1  0
  4 10  1  0
 11 12  1  0
 11 17  1  0
 11 18  1  0
 11 19  1  0
 12 13  1  0
 12 20  1  0
 12 21  1  0
 13 14  1  0
 13 22  1  0
 14 15  1  0
 15 16  1  0
 15 23  1  0
 15 24  1  0
 16 25  1  0
 16 26  1  0
 16 27  1  0
M  RAD  1  13   2
M  END
>  <reaction>  (14) 
rmg_rxn_321

>  <mol_properties>  (14) 
{"2": {"label": "*4", "atom_type": "Cdd"}, "3": {"label": "*3", "atom_type": "Cd"}, "9": {"label": "*2", "atom_type": "H0"}, "12": {"label": "*1", "atom_type": "Cs"}, "13": {"label": "*0", "atom_type": "O2s"}}

>  <type>  (14) 
unop_10

>  <geom_source>  (14) 
Heuristics

$$$$

     RDKit          3D

 27 25  0  0  0  0  0  0  0  0999 V2000
    0.9159   -1.1038   -4.1186 C   0  0  0  0  0  0  0  0  0  0  0  0
    0.9159   -1.1038   -2.6613 C   0  0  0  0  0  0  0  0  0  0  0  0
    0.9159   -1.1038   -1.4628 C   0  0  0  0  0  0  0  0  0  0  0  0
    0.9159   -1.1038   -0.0056 C   0  0  0  0  0  0  0  0  0  0  0  0
    0.1884   -1.8181   -4.5079 H   0  0  0  0  0  0  0  0  0  0  0  0
    1.8982   -1.3767   -4.5079 H   0  0  0  0  0  0  0  0  0  0  0  0
    0.6610   -0.1167   -4.5080 H   0  0  0  0  0  0  0  0  0  0  0  0
    1.8981   -1.3771    0.3837 H   0  0  0  0  0  0  0  0  0  0  0  0
    0.1881   -1.8178    0.3837 H   0  0  0  0  0  0  0  0  0  0  0  0
    0.6105    0.0808    0.4617 H   0  0  0  0  0  0  0  0  0  0  0  0
    1.1959    0.2104    3.0529 C   0  0  0  0  0  0  0  0  0  0  0  0
    0.9798    1.4986    2.2700 C   0  0  0  0  0  0  0  0  0  0  0  0
    0.3023    1.2766    0.9333 C   0  0  0  0  0  3  0  0  0  0  0  0
   -0.9853    0.7547    1.1448 O   0  0  0  0  0  0  0  0  0  0  0  0
   -1.6779    0.4828   -0.0468 C   0  0  0  0  0  0  0  0  0  0  0  0
   -3.0416   -0.0719    0.2936 C   0  0  0  0  0  0  0  0  0  0  0  0
    1.8204   -0.4877    2.4899 H   0  0  0  0  0  0  0  0  0  0  0  0
    1.6898    0.4079    4.0054 H   0  0  0  0  0  0  0  0  0  0  0  0
    0.2448   -0.2812    3.2575 H   0  0  0  0  0  0  0  0  0  0  0  0
    0.3742    2.1960    2.8546 H   0  0  0  0  0  0  0  0  0  0  0  0
    1.9384    1.9908    2.0834 H   0  0  0  0  0  0  0  0  0  0  0  0
    0.2366    2.2234    0.3772 H   0  0  0  0  0  0  0  0  0  0  0  0
   -1.7747    1.4026   -0.6427 H   0  0  0  0  0  0  0  0  0  0  0  0
   -1.1103   -0.2377   -0.6540 H   0  0  0  0  0  0  0  0  0  0  0  0
   -3.6103    0.6474    0.8839 H   0  0  0  0  0  0  0  0  0  0  0  0
   -3.5993   -0.2905   -0.6184 H   0  0  0  0  0  0  0  0  0  0  0  0
   -2.9466   -0.9922    0.8710 H   0  0  0  0  0  0  0  0  0  0  0  0
  1  2  1  0
  1  5  1  0
  1  6  1  0
  1  7  1  0
  2  3  3  0
  3  4  1  0
  4  8  1  0
  4  9  1  0
  4 10  1  0
 11 12  1  0
 11 17  1  0
 11 18  1  0
 11 19  1  0
 12 13  1  0
 12 20  1  0
 12 21  1  0
 13 14  1  0
 13 22  1  0
 14 15  1  0
 15 16  1  0
 15 23  1  0
 15 24  1  0
 16 25  1  0
 16 26  1  0
 16 27  1  0
M  RAD  1  13   2
M  END
>  <reaction>  (15) 
rmg_rxn_321

>  <mol_properties>  (15) 
{"2": {"label": "*4", "atom_type": "Cdd"}, "3": {"label": "*3", "atom_type": "Cd"}, "9": {"label": "*2", "atom_type": "H0"}, "12": {"label": "*1", "atom_type": "Cs"}, "13": {"label": "*0", "atom_type": "O2s"}}

>  <type>  (15) 
unop_11

>  <geom_source>  (15) 
Heuristics

$$$$

     RDKit          3D

 27 25  0  0  0  0  0  0  0  0999 V2000
   -0.2134   -1.7264   -4.1322 C   0  0  0  0  0  0  0  0  0  0  0  0
   -0.2134   -1.7264   -2.6749 C   0  0  0  0  0  0  0  0  0  0  0  0
   -0.2134   -1.7264   -1.4764 C   0  0  0  0  0  0  0  0  0  0  0  0
   -0.2134   -1.7264   -0.0192 C   0  0  0  0  0  0  0  0  0  0  0  0
   -0.9409   -2.4407   -4.5215 H   0  0  0  0  0  0  0  0  0  0  0  0
    0.7689   -1.9992   -4.5215 H   0  0  0  0  0  0  0  0  0  0  0  0
   -0.4683   -0.7392   -4.5215 H   0  0  0  0  0  0  0  0  0  0  0  0
    0.7688   -1.9997    0.3702 H   0  0  0  0  0  0  0  0  0  0  0  0
   -0.9412   -2.4404    0.3702 H   0  0  0  0  0  0  0  0  0  0  0  0
   -0.5188   -0.5417    0.4481 H   0  0  0  0  0  0  0  0  0  0  0  0
    0.1139    1.7436   -1.1674 C   0  0  0  0  0  0  0  0  0  0  0  0
   -1.0749    1.6160   -0.2242 C   0  0  0  0  0  0  0  0  0  0  0  0
   -0.8270    0.6541    0.9197 C   0  0  0  0  0  3  0  0  0  0  0  0
    0.2240    1.1392    1.7166 O   0  0  0  0  0  0  0  0  0  0  0  0
    0.5484    0.2892    2.7870 C   0  0  0  0  0  0  0  0  0  0  0  0
    1.6841    0.9017    3.5735 C   0  0  0  0  0  0  0  0  0  0  0  0
    0.3648    0.7769   -1.6111 H   0  0  0  0  0  0  0  0  0  0  0  0
   -0.1023    2.4387   -1.9800 H   0  0  0  0  0  0  0  0  0  0  0  0
    0.9929    2.1055   -0.6339 H   0  0  0  0  0  0  0  0  0  0  0  0
   -1.3295    2.5936    0.1932 H   0  0  0  0  0  0  0  0  0  0  0  0
   -1.9543    1.2668   -0.7724 H   0  0  0  0  0  0  0  0  0  0  0  0
   -1.7371    0.5413    1.5271 H   0  0  0  0  0  0  0  0  0  0  0  0
   -0.3315    0.1448    3.4314 H   0  0  0  0  0  0  0  0  0  0  0  0
    0.8357   -0.7015    2.4049 H   0  0  0  0  0  0  0  0  0  0  0  0
    1.3953    1.8780    3.9644 H   0  0  0  0  0  0  0  0  0  0  0  0
    1.9535    0.2579    4.4123 H   0  0  0  0  0  0  0  0  0  0  0  0
    2.5620    1.0309    2.9395 H   0  0  0  0  0  0  0  0  0  0  0  0
  1  2  1  0
  1  5  1  0
  1  6  1  0
  1  7  1  0
  2  3  3  0
  3  4  1  0
  4  8  1  0
  4  9  1  0
  4 10  1  0
 11 12  1  0
 11 17  1  0
 11 18  1  0
 11 19  1  0
 12 13  1  0
 12 20  1  0
 12 21  1  0
 13 14  1  0
 13 22  1  0
 14 15  1  0
 15 16  1  0
 15 23  1  0
 15 24  1  0
 16 25  1  0
 16 26  1  0
 16 27  1  0
M  RAD  1  13   2
M  END
>  <reaction>  (16) 
rmg_rxn_321

>  <mol_properties>  (16) 
{"2": {"label": "*4", "atom_type": "Cdd"}, "3": {"label": "*3", "atom_type": "Cd"}, "9": {"label": "*2", "atom_type": "H0"}, "12": {"label": "*1", "atom_type": "Cs"}, "13": {"label": "*0", "atom_type": "O2s"}}

>  <type>  (16) 
unop_12

>  <geom_source>  (16) 
Heuristics

$$$$

     RDKit          3D

 27 25  0  0  0  0  0  0  0  0999 V2000
   -1.8585   -0.2899   -0.0884 O   0  0  0  0  0  0  0  0  0  0  0  0
   -0.7170    1.7292   -0.7228 C   0  0  0  0  0  0  0  0  0  0  0  0
   -0.7208    0.4990    0.1834 C   0  0  0  0  0  3  0  0  0  0  0  0
   -1.7949   -1.4726    0.6770 C   0  0  0  0  0  0  0  0  0  0  0  0
   -1.8942    2.6570   -0.4298 C   0  0  0  0  0  0  0  0  0  0  0  0
   -3.0454   -2.2995    0.4207 C   0  0  0  0  0  0  0  0  0  0  0  0
    4.8902    0.5466   -0.4096 C   0  0  0  0  0  0  0  0  0  0  0  0
    1.2261   -1.2320    0.2832 C   0  0  0  0  0  0  0  0  0  0  0  0
    3.5927   -0.0832   -0.1643 C   0  0  0  0  0  0  0  0  0  0  0  0
    2.5236   -0.6022    0.0378 C   0  0  0  0  0  0  0  0  0  0  0  0
   -0.7554    1.4057   -1.7853 H   0  0  0  0  0  0  0  0  0  0  0  0
    0.2307    2.2877   -0.5659 H   0  0  0  0  0  0  0  0  0  0  0  0
   -0.7133    0.8308    1.2472 H   0  0  0  0  0  0  0  0  0  0  0  0
    0.4195   -0.2050   -0.0692 H   0  0  0  0  0  0  0  0  0  0  0  0
   -0.9096   -2.0834    0.3880 H   0  0  0  0  0  0  0  0  0  0  0  0
   -1.7490   -1.2417    1.7662 H   0  0  0  0  0  0  0  0  0  0  0  0
   -1.8393    3.5460   -1.0929 H   0  0  0  0  0  0  0  0  0  0  0  0
   -1.8624    2.9999    0.6263 H   0  0  0  0  0  0  0  0  0  0  0  0
   -2.8567    2.1355   -0.6177 H   0  0  0  0  0  0  0  0  0  0  0  0
   -3.0065   -3.2350    1.0178 H   0  0  0  0  0  0  0  0  0  0  0  0
   -3.9487   -1.7229    0.7129 H   0  0  0  0  0  0  0  0  0  0  0  0
   -3.1133   -2.5622   -0.6564 H   0  0  0  0  0  0  0  0  0  0  0  0
    5.6936   -0.0754    0.0361 H   0  0  0  0  0  0  0  0  0  0  0  0
    5.0567    0.6375   -1.5028 H   0  0  0  0  0  0  0  0  0  0  0  0
    4.9050    1.5555    0.0516 H   0  0  0  0  0  0  0  0  0  0  0  0
    1.2729   -1.8228    1.2210 H   0  0  0  0  0  0  0  0  0  0  0  0
    0.9740   -1.9024   -0.5641 H   0  0  0  0  0  0  0  0  0  0  0  0
  1  4  1  0
  1  3  1  0
  2  5  1  0
  2  3  1  0
  2 11  1  0
  2 12  1  0
  3 13  1  0
  4  6  1  0
  4 15  1  0
  4 16  1  0
  5 17  1  0
  5 18  1  0
  5 19  1  0
  6 20  1  0
  6 21  1  0
  6 22  1  0
  7  9  1  0
  7 23  1  0
  7 24  1  0
  7 25  1  0
  8 10  1  0
  8 14  1  0
  8 26  1  0
  8 27  1  0
  9 10  3  0
M  RAD  1   3   2
M  END
>  <reaction>  (17) 
rmg_rxn_321

>  <mol_properties>  (17) 
{"2": {"label": "*4", "atom_type": "Cdd"}, "3": {"label": "*3", "atom_type": "Cd"}, "9": {"label": "*2", "atom_type": "H0"}, "12": {"label": "*1", "atom_type": "Cs"}, "13": {"label": "*0", "atom_type": "O2s"}}

>  <type>  (17) 
unop_13

>  <geom_source>  (17) 
AutoTST

$$$$

     RDKit          3D

 27 25  0  0  0  0  0  0  0  0999 V2000
   -0.1008   -1.9532   -3.9733 C   0  0  0  0  0  0  0  0  0  0  0  0
   -0.1008   -1.9532   -2.5160 C   0  0  0  0  0  0  0  0  0  0  0  0
   -0.1008   -1.9532   -1.3175 C   0  0  0  0  0  0  0  0  0  0  0  0
   -0.1008   -1.9532    0.1398 C   0  0  0  0  0  0  0  0  0  0  0  0
   -0.8282   -2.6675   -4.3626 H   0  0  0  0  0  0  0  0  0  0  0  0
    0.8816   -2.2261   -4.3626 H   0  0  0  0  0  0  0  0  0  0  0  0
   -0.3556   -0.9661   -4.3626 H   0  0  0  0  0  0  0  0  0  0  0  0
    0.8814   -2.2265    0.5291 H   0  0  0  0  0  0  0  0  0  0  0  0
   -0.8285   -2.6672    0.5291 H   0  0  0  0  0  0  0  0  0  0  0  0
   -0.4061   -0.7685    0.6070 H   0  0  0  0  0  0  0  0  0  0  0  0
   -0.9113    1.6832   -1.1151 C   0  0  0  0  0  0  0  0  0  0  0  0
   -1.6343    1.1457    0.1128 C   0  0  0  0  0  0  0  0  0  0  0  0
   -0.7143    0.4273    1.0786 C   0  0  0  0  0  3  0  0  0  0  0  0
    0.2354    1.3342    1.5790 O   0  0  0  0  0  0  0  0  0  0  0  0
    1.1572    0.7445    2.4601 C   0  0  0  0  0  0  0  0  0  0  0  0
    2.1275    1.8012    2.9349 C   0  0  0  0  0  0  0  0  0  0  0  0
   -0.4332    0.8731   -1.6714 H   0  0  0  0  0  0  0  0  0  0  0  0
   -1.6046    2.1884   -1.7891 H   0  0  0  0  0  0  0  0  0  0  0  0
   -0.1370    2.3941   -0.8267 H   0  0  0  0  0  0  0  0  0  0  0  0
   -2.1273    1.9628    0.6457 H   0  0  0  0  0  0  0  0  0  0  0  0
   -2.4182    0.4454   -0.1887 H   0  0  0  0  0  0  0  0  0  0  0  0
   -1.2940   -0.0044    1.9077 H   0  0  0  0  0  0  0  0  0  0  0  0
    0.6268    0.2980    3.3142 H   0  0  0  0  0  0  0  0  0  0  0  0
    1.6940   -0.0696    1.9511 H   0  0  0  0  0  0  0  0  0  0  0  0
    1.5976    2.6020    3.4518 H   0  0  0  0  0  0  0  0  0  0  0  0
    2.8542    1.3656    3.6224 H   0  0  0  0  0  0  0  0  0  0  0  0
    2.6650    2.2336    2.0902 H   0  0  0  0  0  0  0  0  0  0  0  0
  1  2  1  0
  1  5  1  0
  1  6  1  0
  1  7  1  0
  2  3  3  0
  3  4  1  0
  4  8  1  0
  4  9  1  0
  4 10  1  0
 11 12  1  0
 11 17  1  0
 11 18  1  0
 11 19  1  0
 12 13  1  0
 12 20  1  0
 12 21  1  0
 13 14  1  0
 13 22  1  0
 14 15  1  0
 15 16  1  0
 15 23  1  0
 15 24  1  0
 16 25  1  0
 16 26  1  0
 16 27  1  0
M  RAD  1  13   2
M  END
>  <reaction>  (18) 
rmg_rxn_321

>  <mol_properties>  (18) 
{"2": {"label": "*4", "atom_type": "Cdd"}, "3": {"label": "*3", "atom_type": "Cd"}, "9": {"label": "*2", "atom_type": "H0"}, "12": {"label": "*1", "atom_type": "Cs"}, "13": {"label": "*0", "atom_type": "O2s"}}

>  <type>  (18) 
unop_14

>  <geom_source>  (18) 
gaussian_log

$$$$
