
     RDKit          3D

  5  4  0  0  0  0  0  0  0  0999 V2000
   -0.4583    0.0384    0.1517 N   0  0  0  0  0  0  0  0  0  0  0  0
    0.7454   -0.3487    0.5322 N   0  0  0  0  0  0  0  0  0  0  0  0
    0.7566   -1.0388    1.5193 O   0  0  0  0  0  0  0  0  0  0  0  0
   -1.2688   -0.2521    0.6850 H   0  0  0  0  0  0  0  0  0  0  0  0
   -0.5137    0.6154   -0.6670 H   0  0  0  0  0  0  0  0  0  0  0  0
  1  2  1  0
  1  4  1  0
  1  5  1  0
  2  3  2  0
M  END
>  <reaction>  (1) 
rmg_rxn_15382

>  <mol_properties>  (1) 
{"0": {"label": "donator", "atom_type": "N3s"}, "3": {"label": "d_hydrogen", "atom_type": "H0"}}

>  <type>  (1) 
r1h

$$$$

     RDKit          3D

  5  4  0  0  0  0  0  0  0  0999 V2000
    0.8934    0.3742    0.4948 O   0  0  0  0  0  0  0  0  0  0  0  0
    0.1582   -0.1610   -0.5904 N   0  0  0  0  0  0  0  0  0  0  0  0
   -1.0297   -0.3739   -0.4689 C   0  0  0  0  0  3  0  0  0  0  0  0
    1.7805    0.4382    0.1306 H   0  0  0  0  0  0  0  0  0  0  0  0
   -1.8023   -0.2775    0.2859 H   0  0  0  0  0  0  0  0  0  0  0  0
  1  2  1  0
  1  4  1  0
  2  3  2  3
  3  5  1  0
M  RAD  1   3   2
M  END
>  <reaction>  (2) 
rmg_rxn_15382

>  <mol_properties>  (2) 
{"2": {"label": "acceptor", "atom_type": "Cd"}}

>  <type>  (2) 
r2

$$$$

     RDKit          3D

  6  5  0  0  0  0  0  0  0  0999 V2000
    1.2314    0.0428    0.5088 O   0  0  0  0  0  0  0  0  0  0  0  0
    0.2987    0.2341   -0.4915 N   0  0  0  0  0  0  0  0  0  0  0  0
   -0.8599   -0.1122   -0.1290 C   0  0  0  0  0  0  0  0  0  0  0  0
    2.0507    0.3401    0.1082 H   0  0  0  0  0  0  0  0  0  0  0  0
   -1.0700   -0.5112    0.8610 H   0  0  0  0  0  0  0  0  0  0  0  0
   -1.6509    0.0064   -0.8574 H   0  0  0  0  0  0  0  0  0  0  0  0
  1  2  1  0
  1  4  1  0
  2  3  2  3
  3  5  1  0
  3  6  1  0
M  END
>  <reaction>  (3) 
rmg_rxn_15382

>  <mol_properties>  (3) 
{"0": {"label": "a_hydrogen", "atom_type": "H0"}, "3": {"label": "acceptor", "atom_type": "Cd"}}

>  <type>  (3) 
r2h

$$$$

     RDKit          3D

 10  8  0  0  0  0  0  0  0  0999 V2000
   -0.4932   -1.0519    1.2748 N   0  0  0  0  0  0  0  0  0  0  0  0
    0.4034   -1.2470    2.1715 N   0  0  0  0  0  0  0  0  0  0  0  0
    1.5337   -0.9036    1.9524 O   0  0  0  0  0  0  0  0  0  0  0  0
   -0.1819   -0.3459    0.3720 H   0  0  0  0  0  0  0  0  0  0  0  0
   -1.4425   -1.2187    1.5793 H   0  0  0  0  0  0  0  0  0  0  0  0
   -0.0848    2.5545   -1.6207 O   0  0  0  0  0  0  0  0  0  0  0  0
   -0.4452    1.6039   -0.6652 N   0  0  0  0  0  0  0  0  0  0  0  0
    0.2800    0.6044   -0.6020 C   0  0  0  0  0  3  0  0  0  0  0  0
   -0.7476    3.2394   -1.5033 H   0  0  0  0  0  0  0  0  0  0  0  0
    1.1782    0.3551   -1.1649 H   0  0  0  0  0  0  0  0  0  0  0  0
  1  2  1  0
  1  4  1  0
  1  5  1  0
  2  3  2  0
  6  7  1  0
  6  9  1  0
  7  8  2  3
  8 10  1  0
M  RAD  1   8   2
M  END
>  <reaction>  (4) 
rmg_rxn_15382

>  <mol_properties>  (4) 
{"0": {"label": "*1", "atom_type": "N3s"}, "1": {"label": "*0", "atom_type": "N3d"}, "3": {"label": "*2", "atom_type": "H0"}, "6": {"label": "*4", "atom_type": "N3d"}, "7": {"label": "*3", "atom_type": "Cd"}}

>  <type>  (4) 
ts

$$$$

     RDKit          3D

 10  8  0  0  0  0  0  0  0  0999 V2000
    1.2323    0.7691    0.0033 N   0  0  0  0  0  0  0  0  0  0  0  0
    2.4067    0.3661   -0.0009 N   0  0  0  0  0  0  0  0  0  0  0  0
    2.8019   -0.7698   -0.0040 O   0  0  0  0  0  1  0  0  0  0  0  0
    0.0963    0.0963    0.0059 H   0  0  0  0  0  0  0  0  0  0  0  0
    1.1300    1.7792    0.0054 H   0  0  0  0  0  0  0  0  0  0  0  0
   -3.2763   -0.1977   -0.0024 O   0  0  0  0  0  0  0  0  0  0  0  0
   -1.9729    0.3089   -0.0032 N   0  0  0  0  0  0  0  0  0  0  0  0
   -1.0054   -0.4713    0.0081 C   0  0  0  0  0  0  0  0  0  0  0  0
   -3.8453    0.5846   -0.0137 H   0  0  0  0  0  0  0  0  0  0  0  0
   -1.0244   -1.5553    0.0192 H   0  0  0  0  0  0  0  0  0  0  0  0
  1  2  2  3
  1  5  1  0
  2  3  1  0
  4  8  1  0
  6  7  1  0
  6  9  1  0
  7  8  2  3
  8 10  1  0
M  RAD  1   3   2
M  END
>  <reaction>  (5) 
rmg_rxn_15382

>  <mol_properties>  (5) 
{"0": {"label": "*1", "atom_type": "N3s"}, "1": {"label": "*0", "atom_type": "N3d"}, "3": {"label": "*2", "atom_type": "H0"}, "6": {"label": "*4", "atom_type": "N3d"}, "7": {"label": "*3", "atom_type": "Cd"}}

>  <type>  (5) 
unop_1

>  <geom_source>  (5) 
crest_best.xyz

$$$$

     RDKit          3D

 10  8  0  0  0  0  0  0  0  0999 V2000
    0.2590   -1.1349    1.0739 N   0  0  0  0  0  0  0  0  0  0  0  0
    0.2590   -2.3377    0.5291 N   0  0  0  0  0  0  0  0  0  0  0  0
    0.2590   -2.3377   -0.6754 O   0  0  0  0  0  0  0  0  0  0  0  0
    0.2590   -0.1523    0.3587 H   0  0  0  0  0  0  0  0  0  0  0  0
    0.2590   -1.0886    2.0760 H   0  0  0  0  0  0  0  0  0  0  0  0
   -0.3192    3.0082   -0.2874 O   0  0  0  0  0  0  0  0  0  0  0  0
   -0.7186    1.6863   -0.2815 N   0  0  0  0  0  0  0  0  0  0  0  0
    0.2590    0.8973   -0.4053 C   0  0  0  0  0  3  0  0  0  0  0  0
   -1.1429    3.4895   -0.1880 H   0  0  0  0  0  0  0  0  0  0  0  0
    1.2850    1.2454   -0.5032 H   0  0  0  0  0  0  0  0  0  0  0  0
  1  2  1  0
  1  4  1  0
  1  5  1  0
  2  3  2  0
  6  7  1  0
  6  9  1  0
  7  8  2  3
  8 10  1  0
M  RAD  1   8   2
M  END
>  <reaction>  (6) 
rmg_rxn_15382

>  <mol_properties>  (6) 
{"0": {"label": "*1", "atom_type": "N3s"}, "1": {"label": "*0", "atom_type": "N3d"}, "3": {"label": "*2", "atom_type": "H0"}, "6": {"label": "*4", "atom_type": "N3d"}, "7": {"label": "*3", "atom_type": "Cd"}}

>  <type>  (6) 
unop_2

>  <geom_source>  (6) 
Heuristics

$$$$

     RDKit          3D

 10  8  0  0  0  0  0  0  0  0999 V2000
    0.2531   -0.8034    1.6121 N   0  0  0  0  0  0  0  0  0  0  0  0
    0.2531   -2.0062    1.0674 N   0  0  0  0  0  0  0  0  0  0  0  0
    0.2531   -2.0062   -0.1371 O   0  0  0  0  0  0  0  0  0  0  0  0
    0.2531    0.1793    0.8969 H   0  0  0  0  0  0  0  0  0  0  0  0
    0.2531   -0.7570    2.6142 H   0  0  0  0  0  0  0  0  0  0  0  0
   -0.6102    2.3371   -1.5496 O   0  0  0  0  0  0  0  0  0  0  0  0
   -0.3113    1.1105   -0.9900 N   0  0  0  0  0  0  0  0  0  0  0  0
    0.2531    1.2289    0.1329 C   0  0  0  0  0  3  0  0  0  0  0  0
   -1.0267    2.1058   -2.3821 H   0  0  0  0  0  0  0  0  0  0  0  0
    0.4667    2.1960    0.5830 H   0  0  0  0  0  0  0  0  0  0  0  0
  1  2  1  0
  1  4  1  0
  1  5  1  0
  2  3  2  0
  6  7  1  0
  6  9  1  0
  7  8  2  3
  8 10  1  0
M  RAD  1   8   2
M  END
>  <reaction>  (7) 
rmg_rxn_15382

>  <mol_properties>  (7) 
{"0": {"label": "*1", "atom_type": "N3s"}, "1": {"label": "*0", "atom_type": "N3d"}, "3": {"label": "*2", "atom_type": "H0"}, "6": {"label": "*4", "atom_type": "N3d"}, "7": {"label": "*3", "atom_type": "Cd"}}

>  <type>  (7) 
unop_3

>  <geom_source>  (7) 
Heuristics

$$$$

     RDKit          3D

 10  8  0  0  0  0  0  0  0  0999 V2000
    0.0749   -1.1869    1.0426 N   0  0  0  0  0  0  0  0  0  0  0  0
    0.0749   -2.3897    0.4978 N   0  0  0  0  0  0  0  0  0  0  0  0
    0.0749   -2.3897   -0.7067 O   0  0  0  0  0  0  0  0  0  0  0  0
    0.0749   -0.2043    0.3274 H   0  0  0  0  0  0  0  0  0  0  0  0
    0.0749   -1.1406    2.0447 H   0  0  0  0  0  0  0  0  0  0  0  0
    0.1227    3.0365   -0.4134 O   0  0  0  0  0  0  0  0  0  0  0  0
   -0.4895    1.8775    0.0212 N   0  0  0  0  0  0  0  0  0  0  0  0
    0.0749    0.8453   -0.4366 C   0  0  0  0  0  3  0  0  0  0  0  0
   -0.3955    3.7298    0.0000 H   0  0  0  0  0  0  0  0  0  0  0  0
    0.9402    0.8928   -1.0943 H   0  0  0  0  0  0  0  0  0  0  0  0
  1  2  1  0
  1  4  1  0
  1  5  1  0
  2  3  2  0
  6  7  1  0
  6  9  1  0
  7  8  2  3
  8 10  1  0
M  RAD  1   8   2
M  END
>  <reaction>  (8) 
rmg_rxn_15382

>  <mol_properties>  (8) 
{"0": {"label": "*1", "atom_type": "N3s"}, "1": {"label": "*0", "atom_type": "N3d"}, "3": {"label": "*2", "atom_type": "H0"}, "6": {"label": "*4", "atom_type": "N3d"}, "7": {"label": "*3", "atom_type": "Cd"}}

>  <type>  (8) 
unop_4

>  <geom_source>  (8) 
Heuristics

$$$$

     RDKit          3D

 10  8  0  0  0  0  0  0  0  0999 V2000
   -0.3994   -0.9065    1.4309 N   0  0  0  0  0  0  0  0  0  0  0  0
   -0.3994   -2.1093    0.8861 N   0  0  0  0  0  0  0  0  0  0  0  0
   -0.3994   -2.1093   -0.3184 O   0  0  0  0  0  0  0  0  0  0  0  0
   -0.3994    0.0761    0.7157 H   0  0  0  0  0  0  0  0  0  0  0  0
   -0.3994   -0.8602    2.4330 H   0  0  0  0  0  0  0  0  0  0  0  0
    0.8966    2.5757   -1.0592 O   0  0  0  0  0  0  0  0  0  0  0  0
    0.5782    1.2505   -0.8371 N   0  0  0  0  0  0  0  0  0  0  0  0
   -0.3994    1.1257   -0.0483 C   0  0  0  0  0  3  0  0  0  0  0  0
    1.6402    2.5272   -1.6631 H   0  0  0  0  0  0  0  0  0  0  0  0
   -0.9119    1.9793    0.3903 H   0  0  0  0  0  0  0  0  0  0  0  0
  1  2  1  0
  1  4  1  0
  1  5  1  0
  2  3  2  0
  6  7  1  0
  6  9  1  0
  7  8  2  3
  8 10  1  0
M  RAD  1   8   2
M  END
>  <reaction>  (9) 
rmg_rxn_15382

>  <mol_properties>  (9) 
{"0": {"label": "*1", "atom_type": "N3s"}, "1": {"label": "*0", "atom_type": "N3d"}, "3": {"label": "*2", "atom_type": "H0"}, "6": {"label": "*4", "atom_type": "N3d"}, "7": {"label": "*3", "atom_type": "Cd"}}

>  <type>  (9) 
unop_5

>  <geom_source>  (9) 
Heuristics

$$$$

     RDKit          3D

 10  8  0  0  0  0  0  0  0  0999 V2000
    1.2328    0.7701    0.0003 N   0  0  0  0  0  0  0  0  0  0  0  0
    2.4068    0.3658   -0.0003 N   0  0  0  0  0  0  0  0  0  0  0  0
    2.8003   -0.7707    0.0000 O   0  0  0  0  0  1  0  0  0  0  0  0
    0.0967    0.0977    0.0004 H   0  0  0  0  0  0  0  0  0  0  0  0
    1.1315    1.7803   -0.0004 H   0  0  0  0  0  0  0  0  0  0  0  0
   -3.2759   -0.1981   -0.0001 O   0  0  0  0  0  0  0  0  0  0  0  0
   -1.9728    0.3091    0.0000 N   0  0  0  0  0  0  0  0  0  0  0  0
   -1.0048   -0.4705    0.0001 C   0  0  0  0  0  0  0  0  0  0  0  0
   -3.8452    0.5839   -0.0001 H   0  0  0  0  0  0  0  0  0  0  0  0
   -1.0229   -1.5546   -0.0003 H   0  0  0  0  0  0  0  0  0  0  0  0
  1  2  2  3
  1  5  1  0
  2  3  1  0
  4  8  1  0
  6  7  1  0
  6  9  1  0
  7  8  2  3
  8 10  1  0
M  RAD  1   3   2
M  END
>  <reaction>  (10) 
rmg_rxn_15382

>  <mol_properties>  (10) 
{"0": {"label": "*1", "atom_type": "N3s"}, "1": {"label": "*0", "atom_type": "N3d"}, "3": {"label": "*2", "atom_type": "H0"}, "6": {"label": "*4", "atom_type": "N3d"}, "7": {"label": "*3", "atom_type": "Cd"}}

>  <type>  (10) 
unop_6

>  <geom_source>  (10) 
Heuristics

$$$$

     RDKit          3D

 10  8  0  0  0  0  0  0  0  0999 V2000
    0.0000   -1.1957    1.0915 N   0  0  0  0  0  0  0  0  0  0  0  0
    0.0000   -2.3985    0.5467 N   0  0  0  0  0  0  0  0  0  0  0  0
    0.0000   -2.3985   -0.6578 O   0  0  0  0  0  0  0  0  0  0  0  0
    0.0000   -0.2131    0.3763 H   0  0  0  0  0  0  0  0  0  0  0  0
    0.0000   -1.1494    2.0936 H   0  0  0  0  0  0  0  0  0  0  0  0
   -0.0000    3.0049   -0.7078 O   0  0  0  0  0  0  0  0  0  0  0  0
   -0.0000    1.9577    0.1924 N   0  0  0  0  0  0  0  0  0  0  0  0
   -0.0000    0.8365   -0.3877 C   0  0  0  0  0  3  0  0  0  0  0  0
   -0.0000    3.7815   -0.1449 H   0  0  0  0  0  0  0  0  0  0  0  0
   -0.0000    0.7366   -1.4710 H   0  0  0  0  0  0  0  0  0  0  0  0
  1  2  1  0
  1  4  1  0
  1  5  1  0
  2  3  2  0
  6  7  1  0
  6  9  1  0
  7  8  2  3
  8 10  1  0
M  RAD  1   8   2
M  END
>  <reaction>  (11) 
rmg_rxn_15382

>  <mol_properties>  (11) 
{"0": {"label": "*1", "atom_type": "N3s"}, "1": {"label": "*0", "atom_type": "N3d"}, "3": {"label": "*2", "atom_type": "H0"}, "6": {"label": "*4", "atom_type": "N3d"}, "7": {"label": "*3", "atom_type": "Cd"}}

>  <type>  (11) 
unop_7

>  <geom_source>  (11) 
Heuristics

$$$$

     RDKit          3D

 10  8  0  0  0  0  0  0  0  0999 V2000
    1.2317    0.7680   -0.0039 N   0  0  0  0  0  0  0  0  0  0  0  0
    2.4067    0.3666    0.0018 N   0  0  0  0  0  0  0  0  0  0  0  0
    2.8034   -0.7687    0.0037 O   0  0  0  0  0  1  0  0  0  0  0  0
    0.0961    0.0945   -0.0064 H   0  0  0  0  0  0  0  0  0  0  0  0
    1.1278    1.7779   -0.0038 H   0  0  0  0  0  0  0  0  0  0  0  0
   -3.2767   -0.1968    0.0027 O   0  0  0  0  0  0  0  0  0  0  0  0
   -1.9728    0.3085    0.0029 N   0  0  0  0  0  0  0  0  0  0  0  0
   -1.0060   -0.4724   -0.0080 C   0  0  0  0  0  0  0  0  0  0  0  0
   -3.8448    0.5861    0.0124 H   0  0  0  0  0  0  0  0  0  0  0  0
   -1.0257   -1.5565   -0.0180 H   0  0  0  0  0  0  0  0  0  0  0  0
  1  2  2  3
  1  5  1  0
  2  3  1  0
  4  8  1  0
  6  7  1  0
  6  9  1  0
  7  8  2  3
  8 10  1  0
M  RAD  1   3   2
M  END
>  <reaction>  (12) 
rmg_rxn_15382

>  <mol_properties>  (12) 
{"0": {"label": "*1", "atom_type": "N3s"}, "1": {"label": "*0", "atom_type": "N3d"}, "3": {"label": "*2", "atom_type": "H0"}, "6": {"label": "*4", "atom_type": "N3d"}, "7": {"label": "*3", "atom_type": "Cd"}}

>  <type>  (12) 
unop_8

>  <geom_source>  (12) 
Heuristics

$$$$

     RDKit          3D

 10  8  0  0  0  0  0  0  0  0999 V2000
   -0.3946   -1.0318    1.2244 N   0  0  0  0  0  0  0  0  0  0  0  0
   -0.3946   -2.2346    0.6796 N   0  0  0  0  0  0  0  0  0  0  0  0
   -0.3946   -2.2346   -0.5249 O   0  0  0  0  0  0  0  0  0  0  0  0
   -0.3946   -0.0492    0.5092 H   0  0  0  0  0  0  0  0  0  0  0  0
   -0.3946   -0.9855    2.2265 H   0  0  0  0  0  0  0  0  0  0  0  0
    0.7615    2.8377   -0.5581 O   0  0  0  0  0  0  0  0  0  0  0  0
    0.7342    1.4573   -0.5873 N   0  0  0  0  0  0  0  0  0  0  0  0
   -0.3946    1.0004   -0.2548 C   0  0  0  0  0  3  0  0  0  0  0  0
    1.6582    3.0477   -0.8264 H   0  0  0  0  0  0  0  0  0  0  0  0
   -1.2299    1.6419    0.0179 H   0  0  0  0  0  0  0  0  0  0  0  0
  1  2  1  0
  1  4  1  0
  1  5  1  0
  2  3  2  0
  6  7  1  0
  6  9  1  0
  7  8  2  3
  8 10  1  0
M  RAD  1   8   2
M  END
>  <reaction>  (13) 
rmg_rxn_15382

>  <mol_properties>  (13) 
{"0": {"label": "*1", "atom_type": "N3s"}, "1": {"label": "*0", "atom_type": "N3d"}, "3": {"label": "*2", "atom_type": "H0"}, "6": {"label": "*4", "atom_type": "N3d"}, "7": {"label": "*3", "atom_type": "Cd"}}

>  <type>  (13) 
unop_9

>  <geom_source>  (13) 
Heuristics

$$$$

     RDKit          3D

 10  8  0  0  0  0  0  0  0  0999 V2000
    1.2312    0.7669   -0.0022 N   0  0  0  0  0  0  0  0  0  0  0  0
    2.4067    0.3670    0.0016 N   0  0  0  0  0  0  0  0  0  0  0  0
    2.8051   -0.7677    0.0010 O   0  0  0  0  0  1  0  0  0  0  0  0
    0.0958    0.0931   -0.0033 H   0  0  0  0  0  0  0  0  0  0  0  0
    1.1261    1.7766    0.0002 H   0  0  0  0  0  0  0  0  0  0  0  0
   -3.2771   -0.1964    0.0012 O   0  0  0  0  0  0  0  0  0  0  0  0
   -1.9730    0.3084    0.0008 N   0  0  0  0  0  0  0  0  0  0  0  0
   -1.0066   -0.4732   -0.0029 C   0  0  0  0  0  0  0  0  0  0  0  0
   -3.8449    0.5868    0.0041 H   0  0  0  0  0  0  0  0  0  0  0  0
   -1.0271   -1.5572   -0.0053 H   0  0  0  0  0  0  0  0  0  0  0  0
  1  2  2  3
  1  5  1  0
  2  3  1  0
  4  8  1  0
  6  7  1  0
  6  9  1  0
  7  8  2  3
  8 10  1  0
M  RAD  1   3   2
M  END
>  <reaction>  (14) 
rmg_rxn_15382

>  <mol_properties>  (14) 
{"0": {"label": "*1", "atom_type": "N3s"}, "1": {"label": "*0", "atom_type": "N3d"}, "3": {"label": "*2", "atom_type": "H0"}, "6": {"label": "*4", "atom_type": "N3d"}, "7": {"label": "*3", "atom_type": "Cd"}}

>  <type>  (14) 
unop_10

>  <geom_source>  (14) 
Heuristics

$$$$

     RDKit          3D

 10  8  0  0  0  0  0  0  0  0999 V2000
   -0.2590   -1.1349    1.0739 N   0  0  0  0  0  0  0  0  0  0  0  0
   -0.2590   -2.3377    0.5291 N   0  0  0  0  0  0  0  0  0  0  0  0
   -0.2590   -2.3377   -0.6754 O   0  0  0  0  0  0  0  0  0  0  0  0
   -0.2590   -0.1523    0.3587 H   0  0  0  0  0  0  0  0  0  0  0  0
   -0.2590   -1.0886    2.0760 H   0  0  0  0  0  0  0  0  0  0  0  0
    0.3192    3.0082   -0.2874 O   0  0  0  0  0  0  0  0  0  0  0  0
    0.7186    1.6863   -0.2815 N   0  0  0  0  0  0  0  0  0  0  0  0
   -0.2590    0.8973   -0.4053 C   0  0  0  0  0  3  0  0  0  0  0  0
    1.1429    3.4895   -0.1880 H   0  0  0  0  0  0  0  0  0  0  0  0
   -1.2850    1.2454   -0.5032 H   0  0  0  0  0  0  0  0  0  0  0  0
  1  2  1  0
  1  4  1  0
  1  5  1  0
  2  3  2  0
  6  7  1  0
  6  9  1  0
  7  8  2  3
  8 10  1  0
M  RAD  1   8   2
M  END
>  <reaction>  (15) 
rmg_rxn_15382

>  <mol_properties>  (15) 
{"0": {"label": "*1", "atom_type": "N3s"}, "1": {"label": "*0", "atom_type": "N3d"}, "3": {"label": "*2", "atom_type": "H0"}, "6": {"label": "*4", "atom_type": "N3d"}, "7": {"label": "*3", "atom_type": "Cd"}}

>  <type>  (15) 
unop_11

>  <geom_source>  (15) 
Heuristics

$$$$

     RDKit          3D

 10  8  0  0  0  0  0  0  0  0999 V2000
    0.3946   -1.0318    1.2244 N   0  0  0  0  0  0  0  0  0  0  0  0
    0.3946   -2.2346    0.6796 N   0  0  0  0  0  0  0  0  0  0  0  0
    0.3946   -2.2346   -0.5249 O   0  0  0  0  0  0  0  0  0  0  0  0
    0.3946   -0.0492    0.5092 H   0  0  0  0  0  0  0  0  0  0  0  0
    0.3946   -0.9855    2.2265 H   0  0  0  0  0  0  0  0  0  0  0  0
   -0.7615    2.8377   -0.5581 O   0  0  0  0  0  0  0  0  0  0  0  0
   -0.7342    1.4573   -0.5873 N   0  0  0  0  0  0  0  0  0  0  0  0
    0.3946    1.0004   -0.2548 C   0  0  0  0  0  3  0  0  0  0  0  0
   -1.6582    3.0477   -0.8264 H   0  0  0  0  0  0  0  0  0  0  0  0
    1.2299    1.6419    0.0179 H   0  0  0  0  0  0  0  0  0  0  0  0
  1  2  1  0
  1  4  1  0
  1  5  1  0
  2  3  2  0
  6  7  1  0
  6  9  1  0
  7  8  2  3
  8 10  1  0
M  RAD  1   8   2
M  END
>  <reaction>  (16) 
rmg_rxn_15382

>  <mol_properties>  (16) 
{"0": {"label": "*1", "atom_type": "N3s"}, "1": {"label": "*0", "atom_type": "N3d"}, "3": {"label": "*2", "atom_type": "H0"}, "6": {"label": "*4", "atom_type": "N3d"}, "7": {"label": "*3", "atom_type": "Cd"}}

>  <type>  (16) 
unop_12

>  <geom_source>  (16) 
Heuristics

$$$$

     RDKit          3D

 10  8  0  0  0  0  0  0  0  0999 V2000
    1.2323    0.7691    0.0033 N   0  0  0  0  0  0  0  0  0  0  0  0
    2.4067    0.3661   -0.0009 N   0  0  0  0  0  0  0  0  0  0  0  0
    2.8019   -0.7698   -0.0040 O   0  0  0  0  0  1  0  0  0  0  0  0
    0.0963    0.0963    0.0059 H   0  0  0  0  0  0  0  0  0  0  0  0
    1.1300    1.7792    0.0054 H   0  0  0  0  0  0  0  0  0  0  0  0
   -3.2763   -0.1977   -0.0024 O   0  0  0  0  0  0  0  0  0  0  0  0
   -1.9729    0.3089   -0.0032 N   0  0  0  0  0  0  0  0  0  0  0  0
   -1.0054   -0.4713    0.0081 C   0  0  0  0  0  0  0  0  0  0  0  0
   -3.8453    0.5846   -0.0137 H   0  0  0  0  0  0  0  0  0  0  0  0
   -1.0244   -1.5553    0.0192 H   0  0  0  0  0  0  0  0  0  0  0  0
  1  2  2  3
  1  5  1  0
  2  3  1  0
  4  8  1  0
  6  7  1  0
  6  9  1  0
  7  8  2  3
  8 10  1  0
M  RAD  1   3   2
M  END
>  <reaction>  (17) 
rmg_rxn_15382

>  <mol_properties>  (17) 
{"0": {"label": "*1", "atom_type": "N3s"}, "1": {"label": "*0", "atom_type": "N3d"}, "3": {"label": "*2", "atom_type": "H0"}, "6": {"label": "*4", "atom_type": "N3d"}, "7": {"label": "*3", "atom_type": "Cd"}}

>  <type>  (17) 
unop_13

>  <geom_source>  (17) 
Heuristics

$$$$

     RDKit          3D

 10  8  0  0  0  0  0  0  0  0999 V2000
   -0.2531   -0.8034    1.6121 N   0  0  0  0  0  0  0  0  0  0  0  0
   -0.2531   -2.0062    1.0674 N   0  0  0  0  0  0  0  0  0  0  0  0
   -0.2531   -2.0062   -0.1371 O   0  0  0  0  0  0  0  0  0  0  0  0
   -0.2531    0.1793    0.8969 H   0  0  0  0  0  0  0  0  0  0  0  0
   -0.2531   -0.7570    2.6142 H   0  0  0  0  0  0  0  0  0  0  0  0
    0.6102    2.3371   -1.5496 O   0  0  0  0  0  0  0  0  0  0  0  0
    0.3113    1.1105   -0.9900 N   0  0  0  0  0  0  0  0  0  0  0  0
   -0.2531    1.2289    0.1329 C   0  0  0  0  0  3  0  0  0  0  0  0
    1.0267    2.1058   -2.3821 H   0  0  0  0  0  0  0  0  0  0  0  0
   -0.4667    2.1960    0.5830 H   0  0  0  0  0  0  0  0  0  0  0  0
  1  2  1  0
  1  4  1  0
  1  5  1  0
  2  3  2  0
  6  7  1  0
  6  9  1  0
  7  8  2  3
  8 10  1  0
M  RAD  1   8   2
M  END
>  <reaction>  (18) 
rmg_rxn_15382

>  <mol_properties>  (18) 
{"0": {"label": "*1", "atom_type": "N3s"}, "1": {"label": "*0", "atom_type": "N3d"}, "3": {"label": "*2", "atom_type": "H0"}, "6": {"label": "*4", "atom_type": "N3d"}, "7": {"label": "*3", "atom_type": "Cd"}}

>  <type>  (18) 
unop_14

>  <geom_source>  (18) 
Heuristics

$$$$

     RDKit          3D

 10  8  0  0  0  0  0  0  0  0999 V2000
    0.3994   -0.9065    1.4309 N   0  0  0  0  0  0  0  0  0  0  0  0
    0.3994   -2.1093    0.8861 N   0  0  0  0  0  0  0  0  0  0  0  0
    0.3994   -2.1093   -0.3184 O   0  0  0  0  0  0  0  0  0  0  0  0
    0.3994    0.0761    0.7157 H   0  0  0  0  0  0  0  0  0  0  0  0
    0.3994   -0.8602    2.4330 H   0  0  0  0  0  0  0  0  0  0  0  0
   -0.8966    2.5757   -1.0592 O   0  0  0  0  0  0  0  0  0  0  0  0
   -0.5782    1.2505   -0.8371 N   0  0  0  0  0  0  0  0  0  0  0  0
    0.3994    1.1257   -0.0483 C   0  0  0  0  0  3  0  0  0  0  0  0
   -1.6402    2.5272   -1.6631 H   0  0  0  0  0  0  0  0  0  0  0  0
    0.9119    1.9793    0.3903 H   0  0  0  0  0  0  0  0  0  0  0  0
  1  2  1  0
  1  4  1  0
  1  5  1  0
  2  3  2  0
  6  7  1  0
  6  9  1  0
  7  8  2  3
  8 10  1  0
M  RAD  1   8   2
M  END
>  <reaction>  (19) 
rmg_rxn_15382

>  <mol_properties>  (19) 
{"0": {"label": "*1", "atom_type": "N3s"}, "1": {"label": "*0", "atom_type": "N3d"}, "3": {"label": "*2", "atom_type": "H0"}, "6": {"label": "*4", "atom_type": "N3d"}, "7": {"label": "*3", "atom_type": "Cd"}}

>  <type>  (19) 
unop_15

>  <geom_source>  (19) 
Heuristics

$$$$

     RDKit          3D

 10  8  0  0  0  0  0  0  0  0999 V2000
   -0.0749   -1.1869    1.0426 N   0  0  0  0  0  0  0  0  0  0  0  0
   -0.0749   -2.3897    0.4978 N   0  0  0  0  0  0  0  0  0  0  0  0
   -0.0749   -2.3897   -0.7067 O   0  0  0  0  0  0  0  0  0  0  0  0
   -0.0749   -0.2043    0.3274 H   0  0  0  0  0  0  0  0  0  0  0  0
   -0.0749   -1.1406    2.0447 H   0  0  0  0  0  0  0  0  0  0  0  0
   -0.1227    3.0365   -0.4134 O   0  0  0  0  0  0  0  0  0  0  0  0
    0.4895    1.8775    0.0212 N   0  0  0  0  0  0  0  0  0  0  0  0
   -0.0749    0.8453   -0.4366 C   0  0  0  0  0  3  0  0  0  0  0  0
    0.3955    3.7298    0.0000 H   0  0  0  0  0  0  0  0  0  0  0  0
   -0.9402    0.8928   -1.0943 H   0  0  0  0  0  0  0  0  0  0  0  0
  1  2  1  0
  1  4  1  0
  1  5  1  0
  2  3  2  0
  6  7  1  0
  6  9  1  0
  7  8  2  3
  8 10  1  0
M  RAD  1   8   2
M  END
>  <reaction>  (20) 
rmg_rxn_15382

>  <mol_properties>  (20) 
{"0": {"label": "*1", "atom_type": "N3s"}, "1": {"label": "*0", "atom_type": "N3d"}, "3": {"label": "*2", "atom_type": "H0"}, "6": {"label": "*4", "atom_type": "N3d"}, "7": {"label": "*3", "atom_type": "Cd"}}

>  <type>  (20) 
unop_16

>  <geom_source>  (20) 
Heuristics

$$$$

     RDKit          3D

 10  8  0  0  0  0  0  0  0  0999 V2000
    0.0000   -0.7633    1.6856 N   0  0  0  0  0  0  0  0  0  0  0  0
    0.0000   -1.9661    1.1409 N   0  0  0  0  0  0  0  0  0  0  0  0
    0.0000   -1.9661   -0.0636 O   0  0  0  0  0  0  0  0  0  0  0  0
    0.0000    0.2194    0.9704 H   0  0  0  0  0  0  0  0  0  0  0  0
    0.0000   -0.7169    2.6877 H   0  0  0  0  0  0  0  0  0  0  0  0
   -0.0000    2.2401   -1.7585 O   0  0  0  0  0  0  0  0  0  0  0  0
   -0.0000    1.0616   -1.0388 N   0  0  0  0  0  0  0  0  0  0  0  0
   -0.0000    1.2690    0.2064 C   0  0  0  0  0  3  0  0  0  0  0  0
   -0.0000    1.9432   -2.6706 H   0  0  0  0  0  0  0  0  0  0  0  0
   -0.0000    2.2691    0.6346 H   0  0  0  0  0  0  0  0  0  0  0  0
  1  2  1  0
  1  4  1  0
  1  5  1  0
  2  3  2  0
  6  7  1  0
  6  9  1  0
  7  8  2  3
  8 10  1  0
M  RAD  1   8   2
M  END
>  <reaction>  (21) 
rmg_rxn_15382

>  <mol_properties>  (21) 
{"0": {"label": "*1", "atom_type": "N3s"}, "1": {"label": "*0", "atom_type": "N3d"}, "3": {"label": "*2", "atom_type": "H0"}, "6": {"label": "*4", "atom_type": "N3d"}, "7": {"label": "*3", "atom_type": "Cd"}}

>  <type>  (21) 
unop_17

>  <geom_source>  (21) 
Heuristics

$$$$

     RDKit          3D

 10  8  0  0  0  0  0  0  0  0999 V2000
    0.2531   -0.8034    1.6121 N   0  0  0  0  0  0  0  0  0  0  0  0
    0.2531   -2.0062    1.0674 N   0  0  0  0  0  0  0  0  0  0  0  0
    0.2531   -2.0062   -0.1371 O   0  0  0  0  0  0  0  0  0  0  0  0
    0.2531    0.1793    0.8969 H   0  0  0  0  0  0  0  0  0  0  0  0
    0.2531   -0.7570    2.6142 H   0  0  0  0  0  0  0  0  0  0  0  0
   -0.6102    2.3371   -1.5495 O   0  0  0  0  0  0  0  0  0  0  0  0
   -0.3113    1.1105   -0.9900 N   0  0  0  0  0  0  0  0  0  0  0  0
    0.2531    1.2289    0.1329 C   0  0  0  0  0  3  0  0  0  0  0  0
   -1.0267    2.1058   -2.3821 H   0  0  0  0  0  0  0  0  0  0  0  0
    0.4667    2.1960    0.5830 H   0  0  0  0  0  0  0  0  0  0  0  0
  1  2  1  0
  1  4  1  0
  1  5  1  0
  2  3  2  0
  6  7  1  0
  6  9  1  0
  7  8  2  3
  8 10  1  0
M  RAD  1   8   2
M  END
>  <reaction>  (22) 
rmg_rxn_15382

>  <mol_properties>  (22) 
{"0": {"label": "*1", "atom_type": "N3s"}, "1": {"label": "*0", "atom_type": "N3d"}, "3": {"label": "*2", "atom_type": "H0"}, "6": {"label": "*4", "atom_type": "N3d"}, "7": {"label": "*3", "atom_type": "Cd"}}

>  <type>  (22) 
unop_18

>  <geom_source>  (22) 
gaussian_log

$$$$
