
     RDKit          3D

 11 10  0  0  0  0  0  0  0  0999 V2000
   -1.7975    0.1503    0.3817 C   0  0  0  0  0  0  0  0  0  0  0  0
   -0.8638   -0.6174   -0.5008 C   0  0  0  0  0  0  0  0  0  0  0  0
   -0.0947   -1.5923   -0.0466 C   0  0  0  0  0  0  0  0  0  0  0  0
    0.7934   -2.3703   -0.7311 O   0  0  0  0  0  0  0  0  0  0  0  0
    0.8158   -2.0364   -2.1061 O   0  0  0  0  0  0  0  0  0  0  0  0
   -1.5629    1.2176    0.3708 H   0  0  0  0  0  0  0  0  0  0  0  0
   -2.8315    0.0463    0.0437 H   0  0  0  0  0  0  0  0  0  0  0  0
   -1.7470   -0.1930    1.4162 H   0  0  0  0  0  0  0  0  0  0  0  0
   -0.8338   -0.3680   -1.5532 H   0  0  0  0  0  0  0  0  0  0  0  0
   -0.0795   -1.9148    0.9889 H   0  0  0  0  0  0  0  0  0  0  0  0
    1.6362   -1.5328   -2.1654 H   0  0  0  0  0  0  0  0  0  0  0  0
  1  2  1  0
  1  6  1  0
  1  7  1  0
  1  8  1  0
  2  3  2  3
  2  9  1  0
  3  4  1  0
  3 10  1  0
  4  5  1  0
  5 11  1  0
M  END
>  <reaction>  (1) 
rmg_rxn_16751

>  <mol_properties>  (1) 
{"4": {"label": "donator", "atom_type": "O2s"}, "10": {"label": "d_hydrogen", "atom_type": "H0"}}

>  <type>  (1) 
r1h

$$$$

     RDKit          3D

  7  6  0  0  0  0  0  0  0  0999 V2000
   -0.6441   -0.1356    0.0624 C   0  0  0  0  0  0  0  0  0  0  0  0
    0.8523    0.0148   -0.0333 C   0  0  0  0  0  0  0  0  0  0  0  0
    1.6700   -0.6077    0.6603 N   0  0  0  0  0  2  0  0  0  0  0  0
   -1.0940    0.8275    0.3091 H   0  0  0  0  0  0  0  0  0  0  0  0
   -0.9104   -0.8656    0.8237 H   0  0  0  0  0  0  0  0  0  0  0  0
   -1.0427   -0.4545   -0.9022 H   0  0  0  0  0  0  0  0  0  0  0  0
    1.2362    0.7308   -0.7748 H   0  0  0  0  0  0  0  0  0  0  0  0
  1  2  1  0
  1  4  1  0
  1  5  1  0
  1  6  1  0
  2  3  2  0
  2  7  1  0
M  RAD  1   3   2
M  END
>  <reaction>  (2) 
rmg_rxn_16751

>  <mol_properties>  (2) 
{"2": {"label": "acceptor", "atom_type": "N3d"}}

>  <type>  (2) 
r2

$$$$

     RDKit          3D

  8  7  0  0  0  0  0  0  0  0999 V2000
    0.9548    0.1194   -0.0790 C   0  0  0  0  0  0  0  0  0  0  0  0
   -0.4838   -0.2649    0.0193 C   0  0  0  0  0  0  0  0  0  0  0  0
   -0.8933   -1.1081    0.8664 N   0  0  0  0  0  0  0  0  0  0  0  0
    1.3360   -0.0983   -1.0800 H   0  0  0  0  0  0  0  0  0  0  0  0
    1.0698    1.1948    0.0786 H   0  0  0  0  0  0  0  0  0  0  0  0
    1.5426   -0.4219    0.6602 H   0  0  0  0  0  0  0  0  0  0  0  0
   -1.1575    0.2324   -0.6905 H   0  0  0  0  0  0  0  0  0  0  0  0
   -1.8989   -1.2455    0.7886 H   0  0  0  0  0  0  0  0  0  0  0  0
  1  2  1  0
  1  4  1  0
  1  5  1  0
  1  6  1  0
  2  3  2  3
  2  7  1  0
  3  8  1  0
M  END
>  <reaction>  (3) 
rmg_rxn_16751

>  <mol_properties>  (3) 
{"2": {"label": "acceptor", "atom_type": "N3d"}, "7": {"label": "a_hydrogen", "atom_type": "H0"}}

>  <type>  (3) 
r2h

$$$$

     RDKit          3D

 18 16  0  0  0  0  0  0  0  0999 V2000
    3.0571    0.3837    1.3757 C   0  0  0  0  0  0  0  0  0  0  0  0
    1.5689    0.2517    1.2508 C   0  0  0  0  0  0  0  0  0  0  0  0
    0.9510   -0.8144    1.4388 N   0  0  0  0  0  2  0  0  0  0  0  0
    3.4727    0.7270    0.4264 H   0  0  0  0  0  0  0  0  0  0  0  0
    3.5091   -0.5665    1.6514 H   0  0  0  0  0  0  0  0  0  0  0  0
    3.2939    1.1363    2.1301 H   0  0  0  0  0  0  0  0  0  0  0  0
    1.0069    1.1590    0.9754 H   0  0  0  0  0  0  0  0  0  0  0  0
   -0.9013   -0.5336   -3.0929 C   0  0  0  0  0  0  0  0  0  0  0  0
   -1.0439   -0.4394   -1.6082 C   0  0  0  0  0  0  0  0  0  0  0  0
   -1.1327    0.7154   -0.9687 C   0  0  0  0  0  0  0  0  0  0  0  0
   -1.2568    0.9111    0.3813 O   0  0  0  0  0  0  0  0  0  0  0  0
   -1.3726   -0.2556    1.0868 O   0  0  0  0  0  0  0  0  0  0  0  0
    0.0141   -1.0655   -3.3640 H   0  0  0  0  0  0  0  0  0  0  0  0
   -1.7341   -1.0898   -3.5300 H   0  0  0  0  0  0  0  0  0  0  0  0
   -0.8714    0.4517   -3.5604 H   0  0  0  0  0  0  0  0  0  0  0  0
   -1.0880   -1.3578   -1.0376 H   0  0  0  0  0  0  0  0  0  0  0  0
   -1.1065    1.6841   -1.4539 H   0  0  0  0  0  0  0  0  0  0  0  0
   -0.2502   -0.6630    1.2789 H   0  0  0  0  0  0  0  0  0  0  0  0
  1  2  1  0
  1  4  1  0
  1  5  1  0
  1  6  1  0
  2  3  2  0
  2  7  1  0
  8  9  1  0
  8 13  1  0
  8 14  1  0
  8 15  1  0
  9 10  2  3
  9 16  1  0
 10 11  1  0
 10 17  1  0
 11 12  1  0
 12 18  1  0
M  RAD  1   3   2
M  END
>  <reaction>  (4) 
rmg_rxn_16751

>  <mol_properties>  (4) 
{"1": {"label": "*4", "atom_type": "Cd"}, "2": {"label": "*3", "atom_type": "N3d"}, "10": {"label": "*0", "atom_type": "O2s"}, "11": {"label": "*1", "atom_type": "O2s"}, "17": {"label": "*2", "atom_type": "H0"}}

>  <type>  (4) 
ts

$$$$

     RDKit          3D

 18 16  0  0  0  0  0  0  0  0999 V2000
    3.4761    0.2088   -0.3151 C   0  0  0  0  0  0  0  0  0  0  0  0
    2.6784   -0.9170    0.2669 C   0  0  0  0  0  0  0  0  0  0  0  0
    1.4490   -1.0159    0.3532 N   0  0  0  0  0  2  0  0  0  0  0  0
    4.0903   -0.1680   -1.1312 H   0  0  0  0  0  0  0  0  0  0  0  0
    4.1380    0.6148    0.4481 H   0  0  0  0  0  0  0  0  0  0  0  0
    2.8110    0.9865   -0.6820 H   0  0  0  0  0  0  0  0  0  0  0  0
    3.2844   -1.7412    0.6576 H   0  0  0  0  0  0  0  0  0  0  0  0
   -3.4552   -1.0722   -0.1671 C   0  0  0  0  0  0  0  0  0  0  0  0
   -2.1480   -0.3799   -0.3076 C   0  0  0  0  0  0  0  0  0  0  0  0
   -1.7886    0.6770    0.4205 C   0  0  0  0  0  0  0  0  0  0  0  0
   -0.6230    1.3494    0.3721 O   0  0  0  0  0  0  0  0  0  0  0  0
    0.2887    0.8934   -0.5361 O   0  0  0  0  0  0  0  0  0  0  0  0
   -4.0739   -0.5957    0.5887 H   0  0  0  0  0  0  0  0  0  0  0  0
   -3.9877   -1.0657   -1.1180 H   0  0  0  0  0  0  0  0  0  0  0  0
   -3.2967   -2.1143    0.1096 H   0  0  0  0  0  0  0  0  0  0  0  0
   -1.4585   -0.7720   -1.0414 H   0  0  0  0  0  0  0  0  0  0  0  0
   -2.4152    1.1303    1.1767 H   0  0  0  0  0  0  0  0  0  0  0  0
    0.8227   -0.0812   -0.0921 H   0  0  0  0  0  0  0  0  0  0  0  0
  1  2  1  0
  1  4  1  0
  1  5  1  0
  1  6  1  0
  2  3  2  0
  2  7  1  0
  8  9  1  0
  8 13  1  0
  8 14  1  0
  8 15  1  0
  9 10  2  3
  9 16  1  0
 10 11  1  0
 10 17  1  0
 11 12  1  0
 12 18  1  0
M  RAD  1   3   2
M  END
>  <reaction>  (5) 
rmg_rxn_16751

>  <mol_properties>  (5) 
{"1": {"label": "*4", "atom_type": "Cd"}, "2": {"label": "*3", "atom_type": "N3d"}, "10": {"label": "*0", "atom_type": "O2s"}, "11": {"label": "*1", "atom_type": "O2s"}, "17": {"label": "*2", "atom_type": "H0"}}

>  <type>  (5) 
unop_1

>  <geom_source>  (5) 
crest_best.xyz

$$$$

     RDKit          3D

 18 16  0  0  0  0  0  0  0  0999 V2000
    2.2796   -1.3388    3.1472 C   0  0  0  0  0  0  0  0  0  0  0  0
    1.3534   -0.3746    2.4844 C   0  0  0  0  0  0  0  0  0  0  0  0
    1.2807   -0.2754    1.2269 N   0  0  0  0  0  2  0  0  0  0  0  0
    2.9742   -0.8059    3.8016 H   0  0  0  0  0  0  0  0  0  0  0  0
    2.8398   -1.8996    2.4011 H   0  0  0  0  0  0  0  0  0  0  0  0
    1.7158   -2.0311    3.7777 H   0  0  0  0  0  0  0  0  0  0  0  0
    0.7435    0.2387    3.1601 H   0  0  0  0  0  0  0  0  0  0  0  0
   -0.9514   -0.0778   -3.7034 C   0  0  0  0  0  0  0  0  0  0  0  0
   -0.9514   -0.0778   -2.2067 C   0  0  0  0  0  0  0  0  0  0  0  0
   -0.9514    1.0363   -1.4947 C   0  0  0  0  0  0  0  0  0  0  0  0
   -0.9533    1.1840   -0.1380 O   0  0  0  0  0  0  0  0  0  0  0  0
   -0.9800   -0.0710    0.5155 O   0  0  0  0  0  0  0  0  0  0  0  0
   -0.0775   -0.6020   -4.0981 H   0  0  0  0  0  0  0  0  0  0  0  0
   -1.8348   -0.5875   -4.0959 H   0  0  0  0  0  0  0  0  0  0  0  0
   -0.9434    0.9364   -4.1059 H   0  0  0  0  0  0  0  0  0  0  0  0
   -0.9665   -1.0312   -1.6955 H   0  0  0  0  0  0  0  0  0  0  0  0
   -0.9551    2.0296   -1.9304 H   0  0  0  0  0  0  0  0  0  0  0  0
    0.1199   -0.1704    0.8616 H   0  0  0  0  0  0  0  0  0  0  0  0
  1  2  1  0
  1  4  1  0
  1  5  1  0
  1  6  1  0
  2  3  2  0
  2  7  1  0
  8  9  1  0
  8 13  1  0
  8 14  1  0
  8 15  1  0
  9 10  2  3
  9 16  1  0
 10 11  1  0
 10 17  1  0
 11 12  1  0
 12 18  1  0
M  RAD  1   3   2
M  END
>  <reaction>  (6) 
rmg_rxn_16751

>  <mol_properties>  (6) 
{"1": {"label": "*4", "atom_type": "Cd"}, "2": {"label": "*3", "atom_type": "N3d"}, "10": {"label": "*0", "atom_type": "O2s"}, "11": {"label": "*1", "atom_type": "O2s"}, "17": {"label": "*2", "atom_type": "H0"}}

>  <type>  (6) 
unop_2

>  <geom_source>  (6) 
Heuristics

$$$$

     RDKit          3D

 18 16  0  0  0  0  0  0  0  0999 V2000
    2.8686    0.5678    2.5211 C   0  0  0  0  0  0  0  0  0  0  0  0
    1.6422    0.4047    1.6866 C   0  0  0  0  0  0  0  0  0  0  0  0
    1.1327   -0.7296    1.4630 N   0  0  0  0  0  2  0  0  0  0  0  0
    3.6588    1.0506    1.9404 H   0  0  0  0  0  0  0  0  0  0  0  0
    3.2171   -0.4008    2.8753 H   0  0  0  0  0  0  0  0  0  0  0  0
    2.6601    1.2162    3.3758 H   0  0  0  0  0  0  0  0  0  0  0  0
    1.2160    1.3322    1.2830 H   0  0  0  0  0  0  0  0  0  0  0  0
   -1.0994   -0.5320   -3.4674 C   0  0  0  0  0  0  0  0  0  0  0  0
   -1.0994   -0.5320   -1.9707 C   0  0  0  0  0  0  0  0  0  0  0  0
   -1.0994    0.5821   -1.2587 C   0  0  0  0  0  0  0  0  0  0  0  0
   -1.1014    0.7298    0.0981 O   0  0  0  0  0  0  0  0  0  0  0  0
   -1.1280   -0.5252    0.7516 O   0  0  0  0  0  0  0  0  0  0  0  0
   -0.2255   -1.0562   -3.8621 H   0  0  0  0  0  0  0  0  0  0  0  0
   -1.9828   -1.0417   -3.8599 H   0  0  0  0  0  0  0  0  0  0  0  0
   -1.0914    0.4823   -3.8698 H   0  0  0  0  0  0  0  0  0  0  0  0
   -1.1146   -1.4854   -1.4594 H   0  0  0  0  0  0  0  0  0  0  0  0
   -1.1031    1.5754   -1.6944 H   0  0  0  0  0  0  0  0  0  0  0  0
   -0.0281   -0.6246    1.0977 H   0  0  0  0  0  0  0  0  0  0  0  0
  1  2  1  0
  1  4  1  0
  1  5  1  0
  1  6  1  0
  2  3  2  0
  2  7  1  0
  8  9  1  0
  8 13  1  0
  8 14  1  0
  8 15  1  0
  9 10  2  3
  9 16  1  0
 10 11  1  0
 10 17  1  0
 11 12  1  0
 12 18  1  0
M  RAD  1   3   2
M  END
>  <reaction>  (7) 
rmg_rxn_16751

>  <mol_properties>  (7) 
{"1": {"label": "*4", "atom_type": "Cd"}, "2": {"label": "*3", "atom_type": "N3d"}, "10": {"label": "*0", "atom_type": "O2s"}, "11": {"label": "*1", "atom_type": "O2s"}, "17": {"label": "*2", "atom_type": "H0"}}

>  <type>  (7) 
unop_3

>  <geom_source>  (7) 
Heuristics

$$$$

     RDKit          3D

 18 16  0  0  0  0  0  0  0  0999 V2000
    2.5162   -1.6701    2.6914 C   0  0  0  0  0  0  0  0  0  0  0  0
    1.3258   -0.8239    2.3848 C   0  0  0  0  0  0  0  0  0  0  0  0
    1.2443   -0.1462    1.3216 N   0  0  0  0  0  2  0  0  0  0  0  0
    2.9739   -1.3512    3.6313 H   0  0  0  0  0  0  0  0  0  0  0  0
    3.2474   -1.6001    1.8881 H   0  0  0  0  0  0  0  0  0  0  0  0
    2.2147   -2.7126    2.8216 H   0  0  0  0  0  0  0  0  0  0  0  0
    0.5309   -0.8308    3.1417 H   0  0  0  0  0  0  0  0  0  0  0  0
   -0.9878    0.0514   -3.6088 C   0  0  0  0  0  0  0  0  0  0  0  0
   -0.9878    0.0514   -2.1121 C   0  0  0  0  0  0  0  0  0  0  0  0
   -0.9878    1.1656   -1.4000 C   0  0  0  0  0  0  0  0  0  0  0  0
   -0.9898    1.3133   -0.0433 O   0  0  0  0  0  0  0  0  0  0  0  0
   -1.0164    0.0583    0.6102 O   0  0  0  0  0  0  0  0  0  0  0  0
   -0.1139   -0.4727   -4.0034 H   0  0  0  0  0  0  0  0  0  0  0  0
   -1.8712   -0.4583   -4.0012 H   0  0  0  0  0  0  0  0  0  0  0  0
   -0.9798    1.0657   -4.0112 H   0  0  0  0  0  0  0  0  0  0  0  0
   -1.0030   -0.9020   -1.6008 H   0  0  0  0  0  0  0  0  0  0  0  0
   -0.9915    2.1589   -1.8357 H   0  0  0  0  0  0  0  0  0  0  0  0
    0.0835   -0.0412    0.9563 H   0  0  0  0  0  0  0  0  0  0  0  0
  1  2  1  0
  1  4  1  0
  1  5  1  0
  1  6  1  0
  2  3  2  0
  2  7  1  0
  8  9  1  0
  8 13  1  0
  8 14  1  0
  8 15  1  0
  9 10  2  3
  9 16  1  0
 10 11  1  0
 10 17  1  0
 11 12  1  0
 12 18  1  0
M  RAD  1   3   2
M  END
>  <reaction>  (8) 
rmg_rxn_16751

>  <mol_properties>  (8) 
{"1": {"label": "*4", "atom_type": "Cd"}, "2": {"label": "*3", "atom_type": "N3d"}, "10": {"label": "*0", "atom_type": "O2s"}, "11": {"label": "*1", "atom_type": "O2s"}, "17": {"label": "*2", "atom_type": "H0"}}

>  <type>  (8) 
unop_4

>  <geom_source>  (8) 
Heuristics

$$$$

     RDKit          3D

 18 16  0  0  0  0  0  0  0  0999 V2000
    3.1171   -1.0906    0.8784 C   0  0  0  0  0  0  0  0  0  0  0  0
    1.8466   -0.3078    0.8884 C   0  0  0  0  0  0  0  0  0  0  0  0
    1.0570   -0.3290    1.8746 N   0  0  0  0  0  2  0  0  0  0  0  0
    3.1239   -1.7882    0.0370 H   0  0  0  0  0  0  0  0  0  0  0  0
    3.2290   -1.6426    1.8100 H   0  0  0  0  0  0  0  0  0  0  0  0
    3.9713   -0.4220    0.7447 H   0  0  0  0  0  0  0  0  0  0  0  0
    1.6465    0.2839   -0.0142 H   0  0  0  0  0  0  0  0  0  0  0  0
   -1.1751   -0.1314   -3.0557 C   0  0  0  0  0  0  0  0  0  0  0  0
   -1.1751   -0.1314   -1.5591 C   0  0  0  0  0  0  0  0  0  0  0  0
   -1.1751    0.9827   -0.8470 C   0  0  0  0  0  0  0  0  0  0  0  0
   -1.1770    1.1304    0.5097 O   0  0  0  0  0  0  0  0  0  0  0  0
   -1.2037   -0.1245    1.1632 O   0  0  0  0  0  0  0  0  0  0  0  0
   -0.3012   -0.6555   -3.4504 H   0  0  0  0  0  0  0  0  0  0  0  0
   -2.0585   -0.6411   -3.4482 H   0  0  0  0  0  0  0  0  0  0  0  0
   -1.1671    0.8829   -3.4582 H   0  0  0  0  0  0  0  0  0  0  0  0
   -1.1902   -1.0848   -1.0478 H   0  0  0  0  0  0  0  0  0  0  0  0
   -1.1788    1.9761   -1.2827 H   0  0  0  0  0  0  0  0  0  0  0  0
   -0.1038   -0.2240    1.5093 H   0  0  0  0  0  0  0  0  0  0  0  0
  1  2  1  0
  1  4  1  0
  1  5  1  0
  1  6  1  0
  2  3  2  0
  2  7  1  0
  8  9  1  0
  8 13  1  0
  8 14  1  0
  8 15  1  0
  9 10  2  3
  9 16  1  0
 10 11  1  0
 10 17  1  0
 11 12  1  0
 12 18  1  0
M  RAD  1   3   2
M  END
>  <reaction>  (9) 
rmg_rxn_16751

>  <mol_properties>  (9) 
{"1": {"label": "*4", "atom_type": "Cd"}, "2": {"label": "*3", "atom_type": "N3d"}, "10": {"label": "*0", "atom_type": "O2s"}, "11": {"label": "*1", "atom_type": "O2s"}, "17": {"label": "*2", "atom_type": "H0"}}

>  <type>  (9) 
unop_5

>  <geom_source>  (9) 
Heuristics

$$$$

     RDKit          3D

 18 16  0  0  0  0  0  0  0  0999 V2000
    2.7180   -1.5660    2.5744 C   0  0  0  0  0  0  0  0  0  0  0  0
    1.3841   -1.1905    2.0206 C   0  0  0  0  0  0  0  0  0  0  0  0
    1.2001   -0.1053    1.4002 N   0  0  0  0  0  2  0  0  0  0  0  0
    2.6493   -1.7160    3.6549 H   0  0  0  0  0  0  0  0  0  0  0  0
    3.4492   -0.7885    2.3605 H   0  0  0  0  0  0  0  0  0  0  0  0
    3.0533   -2.5123    2.1423 H   0  0  0  0  0  0  0  0  0  0  0  0
    0.5789   -1.9174    2.1881 H   0  0  0  0  0  0  0  0  0  0  0  0
   -1.0320    0.0923   -3.5302 C   0  0  0  0  0  0  0  0  0  0  0  0
   -1.0320    0.0923   -2.0335 C   0  0  0  0  0  0  0  0  0  0  0  0
   -1.0320    1.2064   -1.3214 C   0  0  0  0  0  0  0  0  0  0  0  0
   -1.0339    1.3541    0.0353 O   0  0  0  0  0  0  0  0  0  0  0  0
   -1.0606    0.0991    0.6888 O   0  0  0  0  0  0  0  0  0  0  0  0
   -0.1581   -0.4319   -3.9249 H   0  0  0  0  0  0  0  0  0  0  0  0
   -1.9154   -0.4175   -3.9226 H   0  0  0  0  0  0  0  0  0  0  0  0
   -1.0240    1.1065   -3.9326 H   0  0  0  0  0  0  0  0  0  0  0  0
   -1.0472   -0.8612   -1.5222 H   0  0  0  0  0  0  0  0  0  0  0  0
   -1.0357    2.1997   -1.7571 H   0  0  0  0  0  0  0  0  0  0  0  0
    0.0393   -0.0004    1.0349 H   0  0  0  0  0  0  0  0  0  0  0  0
  1  2  1  0
  1  4  1  0
  1  5  1  0
  1  6  1  0
  2  3  2  0
  2  7  1  0
  8  9  1  0
  8 13  1  0
  8 14  1  0
  8 15  1  0
  9 10  2  3
  9 16  1  0
 10 11  1  0
 10 17  1  0
 11 12  1  0
 12 18  1  0
M  RAD  1   3   2
M  END
>  <reaction>  (10) 
rmg_rxn_16751

>  <mol_properties>  (10) 
{"1": {"label": "*4", "atom_type": "Cd"}, "2": {"label": "*3", "atom_type": "N3d"}, "10": {"label": "*0", "atom_type": "O2s"}, "11": {"label": "*1", "atom_type": "O2s"}, "17": {"label": "*2", "atom_type": "H0"}}

>  <type>  (10) 
unop_6

>  <geom_source>  (10) 
Heuristics

$$$$

     RDKit          3D

 18 16  0  0  0  0  0  0  0  0999 V2000
    2.8418   -1.7437    1.2755 C   0  0  0  0  0  0  0  0  0  0  0  0
    1.8124   -0.7231    0.9210 C   0  0  0  0  0  0  0  0  0  0  0  0
    1.1101   -0.1496    1.8008 N   0  0  0  0  0  2  0  0  0  0  0  0
    2.6173   -2.6932    0.7827 H   0  0  0  0  0  0  0  0  0  0  0  0
    2.8730   -1.8914    2.3535 H   0  0  0  0  0  0  0  0  0  0  0  0
    3.8258   -1.4261    0.9213 H   0  0  0  0  0  0  0  0  0  0  0  0
    1.7080   -0.5064   -0.1500 H   0  0  0  0  0  0  0  0  0  0  0  0
   -1.1221    0.0480   -3.1295 C   0  0  0  0  0  0  0  0  0  0  0  0
   -1.1221    0.0480   -1.6328 C   0  0  0  0  0  0  0  0  0  0  0  0
   -1.1221    1.1621   -0.9208 C   0  0  0  0  0  0  0  0  0  0  0  0
   -1.1240    1.3098    0.4359 O   0  0  0  0  0  0  0  0  0  0  0  0
   -1.1507    0.0549    1.0894 O   0  0  0  0  0  0  0  0  0  0  0  0
   -0.2481   -0.4762   -3.5242 H   0  0  0  0  0  0  0  0  0  0  0  0
   -2.0055   -0.4617   -3.5220 H   0  0  0  0  0  0  0  0  0  0  0  0
   -1.1141    1.0623   -3.5320 H   0  0  0  0  0  0  0  0  0  0  0  0
   -1.1372   -0.9054   -1.1216 H   0  0  0  0  0  0  0  0  0  0  0  0
   -1.1258    2.1555   -1.3565 H   0  0  0  0  0  0  0  0  0  0  0  0
   -0.0508   -0.0446    1.4355 H   0  0  0  0  0  0  0  0  0  0  0  0
  1  2  1  0
  1  4  1  0
  1  5  1  0
  1  6  1  0
  2  3  2  0
  2  7  1  0
  8  9  1  0
  8 13  1  0
  8 14  1  0
  8 15  1  0
  9 10  2  3
  9 16  1  0
 10 11  1  0
 10 17  1  0
 11 12  1  0
 12 18  1  0
M  RAD  1   3   2
M  END
>  <reaction>  (11) 
rmg_rxn_16751

>  <mol_properties>  (11) 
{"1": {"label": "*4", "atom_type": "Cd"}, "2": {"label": "*3", "atom_type": "N3d"}, "10": {"label": "*0", "atom_type": "O2s"}, "11": {"label": "*1", "atom_type": "O2s"}, "17": {"label": "*2", "atom_type": "H0"}}

>  <type>  (11) 
unop_7

>  <geom_source>  (11) 
Heuristics

$$$$

     RDKit          3D

 18 16  0  0  0  0  0  0  0  0999 V2000
    2.6003   -1.9708    1.9466 C   0  0  0  0  0  0  0  0  0  0  0  0
    1.7105   -1.0784    1.1472 C   0  0  0  0  0  0  0  0  0  0  0  0
    1.1681   -0.0534    1.6486 N   0  0  0  0  0  2  0  0  0  0  0  0
    2.2014   -2.9884    1.9592 H   0  0  0  0  0  0  0  0  0  0  0  0
    2.6887   -1.6017    2.9669 H   0  0  0  0  0  0  0  0  0  0  0  0
    3.5917   -2.0230    1.4895 H   0  0  0  0  0  0  0  0  0  0  0  0
    1.5607   -1.3720    0.1002 H   0  0  0  0  0  0  0  0  0  0  0  0
   -1.0640    0.1442   -3.2817 C   0  0  0  0  0  0  0  0  0  0  0  0
   -1.0640    0.1442   -1.7850 C   0  0  0  0  0  0  0  0  0  0  0  0
   -1.0640    1.2583   -1.0730 C   0  0  0  0  0  0  0  0  0  0  0  0
   -1.0660    1.4060    0.2837 O   0  0  0  0  0  0  0  0  0  0  0  0
   -1.0926    0.1510    0.9372 O   0  0  0  0  0  0  0  0  0  0  0  0
   -0.1901   -0.3800   -3.6764 H   0  0  0  0  0  0  0  0  0  0  0  0
   -1.9474   -0.3655   -3.6742 H   0  0  0  0  0  0  0  0  0  0  0  0
   -1.0560    1.1584   -3.6841 H   0  0  0  0  0  0  0  0  0  0  0  0
   -1.0792   -0.8092   -1.2737 H   0  0  0  0  0  0  0  0  0  0  0  0
   -1.0678    2.2516   -1.5087 H   0  0  0  0  0  0  0  0  0  0  0  0
    0.0073    0.0516    1.2833 H   0  0  0  0  0  0  0  0  0  0  0  0
  1  2  1  0
  1  4  1  0
  1  5  1  0
  1  6  1  0
  2  3  2  0
  2  7  1  0
  8  9  1  0
  8 13  1  0
  8 14  1  0
  8 15  1  0
  9 10  2  3
  9 16  1  0
 10 11  1  0
 10 17  1  0
 11 12  1  0
 12 18  1  0
M  RAD  1   3   2
M  END
>  <reaction>  (12) 
rmg_rxn_16751

>  <mol_properties>  (12) 
{"1": {"label": "*4", "atom_type": "Cd"}, "2": {"label": "*3", "atom_type": "N3d"}, "10": {"label": "*0", "atom_type": "O2s"}, "11": {"label": "*1", "atom_type": "O2s"}, "17": {"label": "*2", "atom_type": "H0"}}

>  <type>  (12) 
unop_8

>  <geom_source>  (12) 
Heuristics

$$$$

     RDKit          3D

 18 16  0  0  0  0  0  0  0  0999 V2000
    2.2771   -0.6307    3.3900 C   0  0  0  0  0  0  0  0  0  0  0  0
    1.4289    0.0326    2.3566 C   0  0  0  0  0  0  0  0  0  0  0  0
    1.2691   -0.4630    1.2055 N   0  0  0  0  0  2  0  0  0  0  0  0
    3.0830    0.0381    3.7028 H   0  0  0  0  0  0  0  0  0  0  0  0
    2.7012   -1.5529    2.9967 H   0  0  0  0  0  0  0  0  0  0  0  0
    1.6832   -0.8520    4.2804 H   0  0  0  0  0  0  0  0  0  0  0  0
    0.9566    0.9746    2.6636 H   0  0  0  0  0  0  0  0  0  0  0  0
   -0.9631   -0.2654   -3.7249 C   0  0  0  0  0  0  0  0  0  0  0  0
   -0.9631   -0.2654   -2.2282 C   0  0  0  0  0  0  0  0  0  0  0  0
   -0.9631    0.8487   -1.5162 C   0  0  0  0  0  0  0  0  0  0  0  0
   -0.9650    0.9964   -0.1594 O   0  0  0  0  0  0  0  0  0  0  0  0
   -0.9917   -0.2585    0.4941 O   0  0  0  0  0  0  0  0  0  0  0  0
   -0.0891   -0.7895   -4.1196 H   0  0  0  0  0  0  0  0  0  0  0  0
   -1.8465   -0.7751   -4.1173 H   0  0  0  0  0  0  0  0  0  0  0  0
   -0.9551    0.7489   -4.1273 H   0  0  0  0  0  0  0  0  0  0  0  0
   -0.9782   -1.2188   -1.7169 H   0  0  0  0  0  0  0  0  0  0  0  0
   -0.9668    1.8421   -1.9519 H   0  0  0  0  0  0  0  0  0  0  0  0
    0.1082   -0.3580    0.8402 H   0  0  0  0  0  0  0  0  0  0  0  0
  1  2  1  0
  1  4  1  0
  1  5  1  0
  1  6  1  0
  2  3  2  0
  2  7  1  0
  8  9  1  0
  8 13  1  0
  8 14  1  0
  8 15  1  0
  9 10  2  3
  9 16  1  0
 10 11  1  0
 10 17  1  0
 11 12  1  0
 12 18  1  0
M  RAD  1   3   2
M  END
>  <reaction>  (13) 
rmg_rxn_16751

>  <mol_properties>  (13) 
{"1": {"label": "*4", "atom_type": "Cd"}, "2": {"label": "*3", "atom_type": "N3d"}, "10": {"label": "*0", "atom_type": "O2s"}, "11": {"label": "*1", "atom_type": "O2s"}, "17": {"label": "*2", "atom_type": "H0"}}

>  <type>  (13) 
unop_9

>  <geom_source>  (13) 
Heuristics

$$$$

     RDKit          3D

 18 16  0  0  0  0  0  0  0  0999 V2000
    3.4761    0.2088   -0.3151 C   0  0  0  0  0  0  0  0  0  0  0  0
    2.6784   -0.9170    0.2669 C   0  0  0  0  0  0  0  0  0  0  0  0
    1.4490   -1.0159    0.3532 N   0  0  0  0  0  2  0  0  0  0  0  0
    4.0903   -0.1680   -1.1312 H   0  0  0  0  0  0  0  0  0  0  0  0
    4.1380    0.6148    0.4481 H   0  0  0  0  0  0  0  0  0  0  0  0
    2.8110    0.9865   -0.6820 H   0  0  0  0  0  0  0  0  0  0  0  0
    3.2844   -1.7412    0.6576 H   0  0  0  0  0  0  0  0  0  0  0  0
   -3.4552   -1.0722   -0.1671 C   0  0  0  0  0  0  0  0  0  0  0  0
   -2.1480   -0.3799   -0.3076 C   0  0  0  0  0  0  0  0  0  0  0  0
   -1.7886    0.6770    0.4205 C   0  0  0  0  0  0  0  0  0  0  0  0
   -0.6230    1.3494    0.3721 O   0  0  0  0  0  0  0  0  0  0  0  0
    0.2887    0.8934   -0.5361 O   0  0  0  0  0  0  0  0  0  0  0  0
   -4.0739   -0.5957    0.5887 H   0  0  0  0  0  0  0  0  0  0  0  0
   -3.9877   -1.0657   -1.1180 H   0  0  0  0  0  0  0  0  0  0  0  0
   -3.2967   -2.1143    0.1096 H   0  0  0  0  0  0  0  0  0  0  0  0
   -1.4585   -0.7720   -1.0414 H   0  0  0  0  0  0  0  0  0  0  0  0
   -2.4152    1.1303    1.1767 H   0  0  0  0  0  0  0  0  0  0  0  0
    0.8227   -0.0812   -0.0921 H   0  0  0  0  0  0  0  0  0  0  0  0
  1  2  1  0
  1  4  1  0
  1  5  1  0
  1  6  1  0
  2  3  2  0
  2  7  1  0
  8  9  1  0
  8 13  1  0
  8 14  1  0
  8 15  1  0
  9 10  2  3
  9 16  1  0
 10 11  1  0
 10 17  1  0
 11 12  1  0
 12 18  1  0
M  RAD  1   3   2
M  END
>  <reaction>  (14) 
rmg_rxn_16751

>  <mol_properties>  (14) 
{"1": {"label": "*4", "atom_type": "Cd"}, "2": {"label": "*3", "atom_type": "N3d"}, "10": {"label": "*0", "atom_type": "O2s"}, "11": {"label": "*1", "atom_type": "O2s"}, "17": {"label": "*2", "atom_type": "H0"}}

>  <type>  (14) 
unop_10

>  <geom_source>  (14) 
Heuristics

$$$$

     RDKit          3D

 18 16  0  0  0  0  0  0  0  0999 V2000
    3.2765   -0.2361    0.9940 C   0  0  0  0  0  0  0  0  0  0  0  0
    1.8153    0.0637    1.0387 C   0  0  0  0  0  0  0  0  0  0  0  0
    1.0345   -0.5361    1.8306 N   0  0  0  0  0  2  0  0  0  0  0  0
    3.5638   -0.5650   -0.0080 H   0  0  0  0  0  0  0  0  0  0  0  0
    3.5264   -1.0105    1.7171 H   0  0  0  0  0  0  0  0  0  0  0  0
    3.8537    0.6664    1.2105 H   0  0  0  0  0  0  0  0  0  0  0  0
    1.4676    0.8362    0.3407 H   0  0  0  0  0  0  0  0  0  0  0  0
   -1.1976   -0.3385   -3.0998 C   0  0  0  0  0  0  0  0  0  0  0  0
   -1.1976   -0.3385   -1.6031 C   0  0  0  0  0  0  0  0  0  0  0  0
   -1.1976    0.7756   -0.8911 C   0  0  0  0  0  0  0  0  0  0  0  0
   -1.1995    0.9233    0.4656 O   0  0  0  0  0  0  0  0  0  0  0  0
   -1.2262   -0.3317    1.1191 O   0  0  0  0  0  0  0  0  0  0  0  0
   -0.3237   -0.8627   -3.4945 H   0  0  0  0  0  0  0  0  0  0  0  0
   -2.0810   -0.8482   -3.4923 H   0  0  0  0  0  0  0  0  0  0  0  0
   -1.1896    0.6758   -3.5022 H   0  0  0  0  0  0  0  0  0  0  0  0
   -1.2127   -1.2919   -1.0918 H   0  0  0  0  0  0  0  0  0  0  0  0
   -1.2013    1.7690   -1.3268 H   0  0  0  0  0  0  0  0  0  0  0  0
   -0.1263   -0.4311    1.4653 H   0  0  0  0  0  0  0  0  0  0  0  0
  1  2  1  0
  1  4  1  0
  1  5  1  0
  1  6  1  0
  2  3  2  0
  2  7  1  0
  8  9  1  0
  8 13  1  0
  8 14  1  0
  8 15  1  0
  9 10  2  3
  9 16  1  0
 10 11  1  0
 10 17  1  0
 11 12  1  0
 12 18  1  0
M  RAD  1   3   2
M  END
>  <reaction>  (15) 
rmg_rxn_16751

>  <mol_properties>  (15) 
{"1": {"label": "*4", "atom_type": "Cd"}, "2": {"label": "*3", "atom_type": "N3d"}, "10": {"label": "*0", "atom_type": "O2s"}, "11": {"label": "*1", "atom_type": "O2s"}, "17": {"label": "*2", "atom_type": "H0"}}

>  <type>  (15) 
unop_11

>  <geom_source>  (15) 
Heuristics

$$$$

     RDKit          3D

 18 16  0  0  0  0  0  0  0  0999 V2000
    2.5021    0.1214    3.1809 C   0  0  0  0  0  0  0  0  0  0  0  0
    1.5333    0.3098    2.0616 C   0  0  0  0  0  0  0  0  0  0  0  0
    1.2135   -0.6373    1.2889 N   0  0  0  0  0  2  0  0  0  0  0  0
    3.3525    0.7978    3.0619 H   0  0  0  0  0  0  0  0  0  0  0  0
    2.8561   -0.9077    3.2061 H   0  0  0  0  0  0  0  0  0  0  0  0
    2.0295    0.3690    4.1349 H   0  0  0  0  0  0  0  0  0  0  0  0
    1.1202    1.3213    1.9565 H   0  0  0  0  0  0  0  0  0  0  0  0
   -1.0187   -0.4397   -3.6415 C   0  0  0  0  0  0  0  0  0  0  0  0
   -1.0187   -0.4397   -2.1448 C   0  0  0  0  0  0  0  0  0  0  0  0
   -1.0187    0.6744   -1.4328 C   0  0  0  0  0  0  0  0  0  0  0  0
   -1.0206    0.8221   -0.0760 O   0  0  0  0  0  0  0  0  0  0  0  0
   -1.0473   -0.4329    0.5775 O   0  0  0  0  0  0  0  0  0  0  0  0
   -0.1447   -0.9639   -4.0362 H   0  0  0  0  0  0  0  0  0  0  0  0
   -1.9021   -0.9494   -4.0339 H   0  0  0  0  0  0  0  0  0  0  0  0
   -1.0107    0.5746   -4.0439 H   0  0  0  0  0  0  0  0  0  0  0  0
   -1.0338   -1.3931   -1.6335 H   0  0  0  0  0  0  0  0  0  0  0  0
   -1.0224    1.6677   -1.8685 H   0  0  0  0  0  0  0  0  0  0  0  0
    0.0526   -0.5323    0.9236 H   0  0  0  0  0  0  0  0  0  0  0  0
  1  2  1  0
  1  4  1  0
  1  5  1  0
  1  6  1  0
  2  3  2  0
  2  7  1  0
  8  9  1  0
  8 13  1  0
  8 14  1  0
  8 15  1  0
  9 10  2  3
  9 16  1  0
 10 11  1  0
 10 17  1  0
 11 12  1  0
 12 18  1  0
M  RAD  1   3   2
M  END
>  <reaction>  (16) 
rmg_rxn_16751

>  <mol_properties>  (16) 
{"1": {"label": "*4", "atom_type": "Cd"}, "2": {"label": "*3", "atom_type": "N3d"}, "10": {"label": "*0", "atom_type": "O2s"}, "11": {"label": "*1", "atom_type": "O2s"}, "17": {"label": "*2", "atom_type": "H0"}}

>  <type>  (16) 
unop_12

>  <geom_source>  (16) 
Heuristics

$$$$

     RDKit          3D

 18 16  0  0  0  0  0  0  0  0999 V2000
    2.5621   -1.7607    2.5193 C   0  0  0  0  0  0  0  0  0  0  0  0
    1.5527   -1.2711    1.5352 C   0  0  0  0  0  0  0  0  0  0  0  0
    1.2000   -0.0588    1.4875 N   0  0  0  0  0  2  0  0  0  0  0  0
    2.1268   -2.5393    3.1509 H   0  0  0  0  0  0  0  0  0  0  0  0
    2.9124   -0.9397    3.1425 H   0  0  0  0  0  0  0  0  0  0  0  0
    3.4103   -2.2113    1.9974 H   0  0  0  0  0  0  0  0  0  0  0  0
    1.1403   -2.0319    0.8600 H   0  0  0  0  0  0  0  0  0  0  0  0
   -1.0322    0.1388   -3.4428 C   0  0  0  0  0  0  0  0  0  0  0  0
   -1.0322    0.1388   -1.9461 C   0  0  0  0  0  0  0  0  0  0  0  0
   -1.0322    1.2529   -1.2341 C   0  0  0  0  0  0  0  0  0  0  0  0
   -1.0341    1.4006    0.1226 O   0  0  0  0  0  0  0  0  0  0  0  0
   -1.0607    0.1456    0.7761 O   0  0  0  0  0  0  0  0  0  0  0  0
   -0.1582   -0.3854   -3.8375 H   0  0  0  0  0  0  0  0  0  0  0  0
   -1.9155   -0.3709   -3.8353 H   0  0  0  0  0  0  0  0  0  0  0  0
   -1.0242    1.1531   -3.8452 H   0  0  0  0  0  0  0  0  0  0  0  0
   -1.0473   -0.8146   -1.4348 H   0  0  0  0  0  0  0  0  0  0  0  0
   -1.0359    2.2462   -1.6698 H   0  0  0  0  0  0  0  0  0  0  0  0
    0.0392    0.0462    1.1222 H   0  0  0  0  0  0  0  0  0  0  0  0
  1  2  1  0
  1  4  1  0
  1  5  1  0
  1  6  1  0
  2  3  2  0
  2  7  1  0
  8  9  1  0
  8 13  1  0
  8 14  1  0
  8 15  1  0
  9 10  2  3
  9 16  1  0
 10 11  1  0
 10 17  1  0
 11 12  1  0
 12 18  1  0
M  RAD  1   3   2
M  END
>  <reaction>  (17) 
rmg_rxn_16751

>  <mol_properties>  (17) 
{"1": {"label": "*4", "atom_type": "Cd"}, "2": {"label": "*3", "atom_type": "N3d"}, "10": {"label": "*0", "atom_type": "O2s"}, "11": {"label": "*1", "atom_type": "O2s"}, "17": {"label": "*2", "atom_type": "H0"}}

>  <type>  (17) 
unop_13

>  <geom_source>  (17) 
Heuristics

$$$$

     RDKit          3D

 18 16  0  0  0  0  0  0  0  0999 V2000
    3.1914    0.4380    1.6460 C   0  0  0  0  0  0  0  0  0  0  0  0
    1.7396    0.3145    1.3233 C   0  0  0  0  0  0  0  0  0  0  0  0
    1.0614   -0.6927    1.6723 N   0  0  0  0  0  2  0  0  0  0  0  0
    3.7747    0.5415    0.7274 H   0  0  0  0  0  0  0  0  0  0  0  0
    3.5324   -0.4364    2.1974 H   0  0  0  0  0  0  0  0  0  0  0  0
    3.3707    1.3378    2.2401 H   0  0  0  0  0  0  0  0  0  0  0  0
    1.3043    1.1535    0.7653 H   0  0  0  0  0  0  0  0  0  0  0  0
   -1.1708   -0.4951   -3.2580 C   0  0  0  0  0  0  0  0  0  0  0  0
   -1.1708   -0.4951   -1.7613 C   0  0  0  0  0  0  0  0  0  0  0  0
   -1.1708    0.6190   -1.0493 C   0  0  0  0  0  0  0  0  0  0  0  0
   -1.1727    0.7667    0.3074 O   0  0  0  0  0  0  0  0  0  0  0  0
   -1.1994   -0.4883    0.9609 O   0  0  0  0  0  0  0  0  0  0  0  0
   -0.2968   -1.0193   -3.6527 H   0  0  0  0  0  0  0  0  0  0  0  0
   -2.0542   -1.0049   -3.6505 H   0  0  0  0  0  0  0  0  0  0  0  0
   -1.1628    0.5191   -3.6605 H   0  0  0  0  0  0  0  0  0  0  0  0
   -1.1859   -1.4485   -1.2500 H   0  0  0  0  0  0  0  0  0  0  0  0
   -1.1745    1.6123   -1.4850 H   0  0  0  0  0  0  0  0  0  0  0  0
   -0.0995   -0.5877    1.3070 H   0  0  0  0  0  0  0  0  0  0  0  0
  1  2  1  0
  1  4  1  0
  1  5  1  0
  1  6  1  0
  2  3  2  0
  2  7  1  0
  8  9  1  0
  8 13  1  0
  8 14  1  0
  8 15  1  0
  9 10  2  3
  9 16  1  0
 10 11  1  0
 10 17  1  0
 11 12  1  0
 12 18  1  0
M  RAD  1   3   2
M  END
>  <reaction>  (18) 
rmg_rxn_16751

>  <mol_properties>  (18) 
{"1": {"label": "*4", "atom_type": "Cd"}, "2": {"label": "*3", "atom_type": "N3d"}, "10": {"label": "*0", "atom_type": "O2s"}, "11": {"label": "*1", "atom_type": "O2s"}, "17": {"label": "*2", "atom_type": "H0"}}

>  <type>  (18) 
unop_14

>  <geom_source>  (18) 
Heuristics

$$$$

     RDKit          3D

 18 16  0  0  0  0  0  0  0  0999 V2000
    2.8686    0.5677    2.5211 C   0  0  0  0  0  0  0  0  0  0  0  0
    1.6422    0.4047    1.6866 C   0  0  0  0  0  0  0  0  0  0  0  0
    1.1327   -0.7296    1.4629 N   0  0  0  0  0  2  0  0  0  0  0  0
    3.6588    1.0506    1.9404 H   0  0  0  0  0  0  0  0  0  0  0  0
    3.2171   -0.4008    2.8753 H   0  0  0  0  0  0  0  0  0  0  0  0
    2.6601    1.2162    3.3758 H   0  0  0  0  0  0  0  0  0  0  0  0
    1.2160    1.3322    1.2830 H   0  0  0  0  0  0  0  0  0  0  0  0
   -1.0995   -0.5320   -3.4674 C   0  0  0  0  0  0  0  0  0  0  0  0
   -1.0995   -0.5320   -1.9707 C   0  0  0  0  0  0  0  0  0  0  0  0
   -1.0995    0.5821   -1.2587 C   0  0  0  0  0  0  0  0  0  0  0  0
   -1.1014    0.7298    0.0980 O   0  0  0  0  0  0  0  0  0  0  0  0
   -1.1280   -0.5252    0.7516 O   0  0  0  0  0  0  0  0  0  0  0  0
   -0.2255   -1.0562   -3.8621 H   0  0  0  0  0  0  0  0  0  0  0  0
   -1.9828   -1.0417   -3.8599 H   0  0  0  0  0  0  0  0  0  0  0  0
   -1.0914    0.4823   -3.8698 H   0  0  0  0  0  0  0  0  0  0  0  0
   -1.1146   -1.4854   -1.4594 H   0  0  0  0  0  0  0  0  0  0  0  0
   -1.1032    1.5755   -1.6944 H   0  0  0  0  0  0  0  0  0  0  0  0
   -0.0281   -0.6246    1.0977 H   0  0  0  0  0  0  0  0  0  0  0  0
  1  2  1  0
  1  4  1  0
  1  5  1  0
  1  6  1  0
  2  3  2  0
  2  7  1  0
  8  9  1  0
  8 13  1  0
  8 14  1  0
  8 15  1  0
  9 10  2  3
  9 16  1  0
 10 11  1  0
 10 17  1  0
 11 12  1  0
 12 18  1  0
M  RAD  1   3   2
M  END
>  <reaction>  (19) 
rmg_rxn_16751

>  <mol_properties>  (19) 
{"1": {"label": "*4", "atom_type": "Cd"}, "2": {"label": "*3", "atom_type": "N3d"}, "10": {"label": "*0", "atom_type": "O2s"}, "11": {"label": "*1", "atom_type": "O2s"}, "17": {"label": "*2", "atom_type": "H0"}}

>  <type>  (19) 
unop_15

>  <geom_source>  (19) 
gaussian_log

$$$$
