
     RDKit          3D

  6  5  0  0  0  0  0  0  0  0999 V2000
   -0.4901    0.0045    0.0014 C   0  0  0  0  0  0  0  0  0  0  0  0
    0.9645   -0.0089   -0.0027 C   0  0  0  0  0  0  0  0  0  0  0  0
    2.1108   -0.0195   -0.0059 N   0  0  0  0  0  0  0  0  0  0  0  0
   -0.8700   -0.6407   -0.7900 H   0  0  0  0  0  0  0  0  0  0  0  0
   -0.8625   -0.3540    0.9604 H   0  0  0  0  0  0  0  0  0  0  0  0
   -0.8530    1.0185   -0.1631 H   0  0  0  0  0  0  0  0  0  0  0  0
  1  2  1  0
  1  4  1  0
  1  5  1  0
  1  6  1  0
  2  3  3  0
M  END
>  <reaction>  (1) 
rmg_rxn_98

>  <mol_properties>  (1) 
{"0": {"label": "donator", "atom_type": "Cs"}, "3": {"label": "d_hydrogen", "atom_type": "H0"}}

>  <type>  (1) 
r1h

$$$$

     RDKit          3D

 13 12  0  0  0  0  0  0  0  0999 V2000
    2.0654   -0.2739   -0.0844 C   0  0  0  0  0  3  0  0  0  0  0  0
    0.6326   -0.4110   -0.4406 C   0  0  0  0  0  0  0  0  0  0  0  0
   -0.3055    0.4151    0.4359 C   0  0  0  0  0  0  0  0  0  0  0  0
   -1.7714    0.2357    0.0671 C   0  0  0  0  0  0  0  0  0  0  0  0
    2.3610    0.0676    0.8995 H   0  0  0  0  0  0  0  0  0  0  0  0
    2.8408   -0.6127   -0.7582 H   0  0  0  0  0  0  0  0  0  0  0  0
    0.3313   -1.4695   -0.3768 H   0  0  0  0  0  0  0  0  0  0  0  0
    0.4826   -0.1432   -1.4940 H   0  0  0  0  0  0  0  0  0  0  0  0
   -0.1518    0.1351    1.4826 H   0  0  0  0  0  0  0  0  0  0  0  0
   -0.0303    1.4705    0.3565 H   0  0  0  0  0  0  0  0  0  0  0  0
   -2.0768   -0.8084    0.1692 H   0  0  0  0  0  0  0  0  0  0  0  0
   -1.9546    0.5339   -0.9679 H   0  0  0  0  0  0  0  0  0  0  0  0
   -2.4194    0.8370    0.7066 H   0  0  0  0  0  0  0  0  0  0  0  0
  1  2  1  0
  1  5  1  0
  1  6  1  0
  2  3  1  0
  2  7  1  0
  2  8  1  0
  3  4  1  0
  3  9  1  0
  3 10  1  0
  4 11  1  0
  4 12  1  0
  4 13  1  0
M  RAD  1   1   2
M  END
>  <reaction>  (2) 
rmg_rxn_98

>  <mol_properties>  (2) 
{"0": {"label": "acceptor", "atom_type": "Cs"}}

>  <type>  (2) 
r2

$$$$

     RDKit          3D

 14 13  0  0  0  0  0  0  0  0999 V2000
    1.8106   -0.5953    0.5577 C   0  0  0  0  0  0  0  0  0  0  0  0
    0.5197    0.2064    0.6554 C   0  0  0  0  0  0  0  0  0  0  0  0
   -0.5206   -0.2080   -0.3788 C   0  0  0  0  0  0  0  0  0  0  0  0
   -1.8114    0.5937   -0.2812 C   0  0  0  0  0  0  0  0  0  0  0  0
    2.2725   -0.4752   -0.4251 H   0  0  0  0  0  0  0  0  0  0  0  0
    1.6214   -1.6612    0.7052 H   0  0  0  0  0  0  0  0  0  0  0  0
    2.5364   -0.2784    1.3084 H   0  0  0  0  0  0  0  0  0  0  0  0
    0.0930    0.0950    1.6574 H   0  0  0  0  0  0  0  0  0  0  0  0
    0.7393    1.2723    0.5354 H   0  0  0  0  0  0  0  0  0  0  0  0
   -0.7402   -1.2739   -0.2588 H   0  0  0  0  0  0  0  0  0  0  0  0
   -0.0938   -0.0965   -1.3808 H   0  0  0  0  0  0  0  0  0  0  0  0
   -1.6222    1.6596   -0.4287 H   0  0  0  0  0  0  0  0  0  0  0  0
   -2.2734    0.4736    0.7017 H   0  0  0  0  0  0  0  0  0  0  0  0
   -2.5373    0.2768   -1.0318 H   0  0  0  0  0  0  0  0  0  0  0  0
  1  2  1  0
  1  5  1  0
  1  6  1  0
  1  7  1  0
  2  3  1  0
  2  8  1  0
  2  9  1  0
  3  4  1  0
  3 10  1  0
  3 11  1  0
  4 12  1  0
  4 13  1  0
  4 14  1  0
M  END
>  <reaction>  (3) 
rmg_rxn_98

>  <mol_properties>  (3) 
{"0": {"label": "a_hydrogen", "atom_type": "H0"}, "1": {"label": "acceptor", "atom_type": "Cs"}}

>  <type>  (3) 
r2h

$$$$

     RDKit          3D

 19 17  0  0  0  0  0  0  0  0999 V2000
    1.7653    1.6639    0.4479 C   0  0  0  0  0  0  0  0  0  0  0  0
    2.0376    1.1219   -0.8429 C   0  0  0  0  0  0  0  0  0  0  0  0
    2.2178    0.6347   -1.8705 N   0  0  0  0  0  0  0  0  0  0  0  0
    0.9220    0.8157    1.0404 H   0  0  0  0  0  0  0  0  0  0  0  0
    2.6304    1.6872    1.1040 H   0  0  0  0  0  0  0  0  0  0  0  0
    1.2255    2.6061    0.4202 H   0  0  0  0  0  0  0  0  0  0  0  0
    0.0405   -0.0765    1.5429 C   0  0  0  0  0  3  0  0  0  0  0  0
   -0.8017   -0.5145    0.3782 C   0  0  0  0  0  0  0  0  0  0  0  0
   -1.8238   -1.5900    0.7584 C   0  0  0  0  0  0  0  0  0  0  0  0
   -2.6749   -2.0267   -0.4266 C   0  0  0  0  0  0  0  0  0  0  0  0
    0.6937   -0.8411    1.9610 H   0  0  0  0  0  0  0  0  0  0  0  0
   -0.4767    0.4916    2.3149 H   0  0  0  0  0  0  0  0  0  0  0  0
   -0.1574   -0.8989   -0.4180 H   0  0  0  0  0  0  0  0  0  0  0  0
   -1.3302    0.3474   -0.0408 H   0  0  0  0  0  0  0  0  0  0  0  0
   -1.2962   -2.4540    1.1727 H   0  0  0  0  0  0  0  0  0  0  0  0
   -2.4677   -1.2097    1.5570 H   0  0  0  0  0  0  0  0  0  0  0  0
   -2.0523   -2.4335   -1.2262 H   0  0  0  0  0  0  0  0  0  0  0  0
   -3.2343   -1.1839   -0.8387 H   0  0  0  0  0  0  0  0  0  0  0  0
   -3.3928   -2.7951   -0.1361 H   0  0  0  0  0  0  0  0  0  0  0  0
  1  2  1  0
  1  4  1  0
  1  5  1  0
  1  6  1  0
  2  3  3  0
  7  8  1  0
  7 11  1  0
  7 12  1  0
  8  9  1  0
  8 13  1  0
  8 14  1  0
  9 10  1  0
  9 15  1  0
  9 16  1  0
 10 17  1  0
 10 18  1  0
 10 19  1  0
M  RAD  1   7   2
M  END
>  <reaction>  (4) 
rmg_rxn_98

>  <mol_properties>  (4) 
{"0": {"label": "*1", "atom_type": "Cs"}, "1": {"label": "*0", "atom_type": "Ct"}, "3": {"label": "*2", "atom_type": "H0"}, "6": {"label": "*3", "atom_type": "Cs"}, "7": {"label": "*4", "atom_type": "Cs"}}

>  <type>  (4) 
ts

$$$$

     RDKit          3D

 19 17  0  0  0  0  0  0  0  0999 V2000
    1.0434    1.6641   -0.8609 C   0  0  0  0  0  0  0  0  0  0  0  0
    1.0434    1.6641   -2.3155 C   0  0  0  0  0  0  0  0  0  0  0  0
    1.0434    1.6641   -3.4620 N   0  0  0  0  0  0  0  0  0  0  0  0
    0.0904    0.8882   -0.4148 H   0  0  0  0  0  0  0  0  0  0  0  0
    2.0004    1.2995   -0.4892 H   0  0  0  0  0  0  0  0  0  0  0  0
    0.8806    2.6751   -0.4892 H   0  0  0  0  0  0  0  0  0  0  0  0
   -0.8642    0.1112    0.0320 C   0  0  0  0  0  3  0  0  0  0  0  0
   -0.3096   -1.0192    0.8884 C   0  0  0  0  0  0  0  0  0  0  0  0
   -1.1670   -1.3168    2.1130 C   0  0  0  0  0  0  0  0  0  0  0  0
   -0.6124   -2.4471    2.9694 C   0  0  0  0  0  0  0  0  0  0  0  0
   -0.9341    1.0386    0.6054 H   0  0  0  0  0  0  0  0  0  0  0  0
   -1.8665   -0.1285   -0.3311 H   0  0  0  0  0  0  0  0  0  0  0  0
    0.7054   -0.7693    1.2139 H   0  0  0  0  0  0  0  0  0  0  0  0
   -0.2201   -1.9278    0.2842 H   0  0  0  0  0  0  0  0  0  0  0  0
   -1.2565   -0.4082    2.7171 H   0  0  0  0  0  0  0  0  0  0  0  0
   -2.1821   -1.5666    1.7875 H   0  0  0  0  0  0  0  0  0  0  0  0
    0.3898   -2.2075    3.3324 H   0  0  0  0  0  0  0  0  0  0  0  0
   -0.5425   -3.3745    2.3959 H   0  0  0  0  0  0  0  0  0  0  0  0
   -1.2448   -2.6388    3.8378 H   0  0  0  0  0  0  0  0  0  0  0  0
  1  2  1  0
  1  4  1  0
  1  5  1  0
  1  6  1  0
  2  3  3  0
  7  8  1  0
  7 11  1  0
  7 12  1  0
  8  9  1  0
  8 13  1  0
  8 14  1  0
  9 10  1  0
  9 15  1  0
  9 16  1  0
 10 17  1  0
 10 18  1  0
 10 19  1  0
M  RAD  1   7   2
M  END
>  <reaction>  (5) 
rmg_rxn_98

>  <mol_properties>  (5) 
{"0": {"label": "*1", "atom_type": "Cs"}, "1": {"label": "*0", "atom_type": "Ct"}, "3": {"label": "*2", "atom_type": "H0"}, "6": {"label": "*3", "atom_type": "Cs"}, "7": {"label": "*4", "atom_type": "Cs"}}

>  <type>  (5) 
unop_1

>  <geom_source>  (5) 
Heuristics

$$$$

     RDKit          3D

 19 17  0  0  0  0  0  0  0  0999 V2000
    1.5116    1.9312    0.3905 C   0  0  0  0  0  0  0  0  0  0  0  0
    1.5116    1.9312   -1.0641 C   0  0  0  0  0  0  0  0  0  0  0  0
    1.5116    1.9312   -2.2106 N   0  0  0  0  0  0  0  0  0  0  0  0
    0.5586    1.1554    0.8366 H   0  0  0  0  0  0  0  0  0  0  0  0
    2.4687    1.5667    0.7622 H   0  0  0  0  0  0  0  0  0  0  0  0
    1.3489    2.9423    0.7622 H   0  0  0  0  0  0  0  0  0  0  0  0
   -0.3959    0.3783    1.2834 C   0  0  0  0  0  3  0  0  0  0  0  0
   -0.6807   -0.7668    0.3210 C   0  0  0  0  0  0  0  0  0  0  0  0
   -1.4442   -1.9160    0.9690 C   0  0  0  0  0  0  0  0  0  0  0  0
   -1.7290   -3.0610    0.0065 C   0  0  0  0  0  0  0  0  0  0  0  0
    0.2016    0.0368    2.1321 H   0  0  0  0  0  0  0  0  0  0  0  0
   -1.3243    0.7959    1.6804 H   0  0  0  0  0  0  0  0  0  0  0  0
    0.2616   -1.1473   -0.0863 H   0  0  0  0  0  0  0  0  0  0  0  0
   -1.2529   -0.3938   -0.5346 H   0  0  0  0  0  0  0  0  0  0  0  0
   -0.8720   -2.2890    1.8245 H   0  0  0  0  0  0  0  0  0  0  0  0
   -2.3866   -1.5355    1.3762 H   0  0  0  0  0  0  0  0  0  0  0  0
   -0.8006   -3.4787   -0.3905 H   0  0  0  0  0  0  0  0  0  0  0  0
   -2.3265   -2.7196   -0.8421 H   0  0  0  0  0  0  0  0  0  0  0  0
   -2.2756   -3.8688    0.4958 H   0  0  0  0  0  0  0  0  0  0  0  0
  1  2  1  0
  1  4  1  0
  1  5  1  0
  1  6  1  0
  2  3  3  0
  7  8  1  0
  7 11  1  0
  7 12  1  0
  8  9  1  0
  8 13  1  0
  8 14  1  0
  9 10  1  0
  9 15  1  0
  9 16  1  0
 10 17  1  0
 10 18  1  0
 10 19  1  0
M  RAD  1   7   2
M  END
>  <reaction>  (6) 
rmg_rxn_98

>  <mol_properties>  (6) 
{"0": {"label": "*1", "atom_type": "Cs"}, "1": {"label": "*0", "atom_type": "Ct"}, "3": {"label": "*2", "atom_type": "H0"}, "6": {"label": "*3", "atom_type": "Cs"}, "7": {"label": "*4", "atom_type": "Cs"}}

>  <type>  (6) 
unop_2

>  <geom_source>  (6) 
Heuristics

$$$$

     RDKit          3D

 19 17  0  0  0  0  0  0  0  0999 V2000
    1.2646    1.3600   -1.0418 C   0  0  0  0  0  0  0  0  0  0  0  0
    1.2646    1.3600   -2.4964 C   0  0  0  0  0  0  0  0  0  0  0  0
    1.2646    1.3600   -3.6429 N   0  0  0  0  0  0  0  0  0  0  0  0
    0.3116    0.5841   -0.5957 H   0  0  0  0  0  0  0  0  0  0  0  0
    2.2216    0.9954   -0.6701 H   0  0  0  0  0  0  0  0  0  0  0  0
    1.1018    2.3710   -0.6701 H   0  0  0  0  0  0  0  0  0  0  0  0
   -0.6430   -0.1929   -0.1489 C   0  0  0  0  0  3  0  0  0  0  0  0
   -0.2785   -0.8095    1.1949 C   0  0  0  0  0  0  0  0  0  0  0  0
   -1.4941   -1.1071    2.0650 C   0  0  0  0  0  0  0  0  0  0  0  0
   -1.1297   -1.7236    3.4087 C   0  0  0  0  0  0  0  0  0  0  0  0
   -1.1776    0.7504   -0.0145 H   0  0  0  0  0  0  0  0  0  0  0  0
   -1.2904   -0.8601   -0.7229 H   0  0  0  0  0  0  0  0  0  0  0  0
    0.3943   -0.1372    1.7371 H   0  0  0  0  0  0  0  0  0  0  0  0
    0.2823   -1.7359    1.0339 H   0  0  0  0  0  0  0  0  0  0  0  0
   -2.0550   -0.1807    2.2259 H   0  0  0  0  0  0  0  0  0  0  0  0
   -2.1669   -1.7794    1.5228 H   0  0  0  0  0  0  0  0  0  0  0  0
   -0.4822   -1.0564    3.9828 H   0  0  0  0  0  0  0  0  0  0  0  0
   -0.5950   -2.6670    3.2744 H   0  0  0  0  0  0  0  0  0  0  0  0
   -2.0173   -1.9261    4.0103 H   0  0  0  0  0  0  0  0  0  0  0  0
  1  2  1  0
  1  4  1  0
  1  5  1  0
  1  6  1  0
  2  3  3  0
  7  8  1  0
  7 11  1  0
  7 12  1  0
  8  9  1  0
  8 13  1  0
  8 14  1  0
  9 10  1  0
  9 15  1  0
  9 16  1  0
 10 17  1  0
 10 18  1  0
 10 19  1  0
M  RAD  1   7   2
M  END
>  <reaction>  (7) 
rmg_rxn_98

>  <mol_properties>  (7) 
{"0": {"label": "*1", "atom_type": "Cs"}, "1": {"label": "*0", "atom_type": "Ct"}, "3": {"label": "*2", "atom_type": "H0"}, "6": {"label": "*3", "atom_type": "Cs"}, "7": {"label": "*4", "atom_type": "Cs"}}

>  <type>  (7) 
unop_3

>  <geom_source>  (7) 
Heuristics

$$$$

     RDKit          3D

 19 17  0  0  0  0  0  0  0  0999 V2000
    2.2594    0.7189   -0.0041 C   0  0  0  0  0  0  0  0  0  0  0  0
    2.2594    0.7189   -1.4588 C   0  0  0  0  0  0  0  0  0  0  0  0
    2.2594    0.7189   -2.6052 N   0  0  0  0  0  0  0  0  0  0  0  0
    1.3064   -0.0569    0.4419 H   0  0  0  0  0  0  0  0  0  0  0  0
    3.2164    0.3544    0.3675 H   0  0  0  0  0  0  0  0  0  0  0  0
    2.0966    1.7300    0.3676 H   0  0  0  0  0  0  0  0  0  0  0  0
    0.3518   -0.8340    0.8888 C   0  0  0  0  0  3  0  0  0  0  0  0
   -1.0174   -0.3668    0.4136 C   0  0  0  0  0  0  0  0  0  0  0  0
   -2.1300   -0.6655    1.4117 C   0  0  0  0  0  0  0  0  0  0  0  0
   -3.4992   -0.1983    0.9366 C   0  0  0  0  0  0  0  0  0  0  0  0
    0.3591   -1.9129    1.0610 H   0  0  0  0  0  0  0  0  0  0  0  0
    0.6269   -0.3482    1.8279 H   0  0  0  0  0  0  0  0  0  0  0  0
   -1.2565   -0.8430   -0.5427 H   0  0  0  0  0  0  0  0  0  0  0  0
   -0.9907    0.7102    0.2186 H   0  0  0  0  0  0  0  0  0  0  0  0
   -2.1567   -1.7425    1.6068 H   0  0  0  0  0  0  0  0  0  0  0  0
   -1.8909   -0.1893    2.3681 H   0  0  0  0  0  0  0  0  0  0  0  0
   -3.7743   -0.6841   -0.0026 H   0  0  0  0  0  0  0  0  0  0  0  0
   -3.5065    0.8806    0.7644 H   0  0  0  0  0  0  0  0  0  0  0  0
   -4.2758   -0.4244    1.6691 H   0  0  0  0  0  0  0  0  0  0  0  0
  1  2  1  0
  1  4  1  0
  1  5  1  0
  1  6  1  0
  2  3  3  0
  7  8  1  0
  7 11  1  0
  7 12  1  0
  8  9  1  0
  8 13  1  0
  8 14  1  0
  9 10  1  0
  9 15  1  0
  9 16  1  0
 10 17  1  0
 10 18  1  0
 10 19  1  0
M  RAD  1   7   2
M  END
>  <reaction>  (8) 
rmg_rxn_98

>  <mol_properties>  (8) 
{"0": {"label": "*1", "atom_type": "Cs"}, "1": {"label": "*0", "atom_type": "Ct"}, "3": {"label": "*2", "atom_type": "H0"}, "6": {"label": "*3", "atom_type": "Cs"}, "7": {"label": "*4", "atom_type": "Cs"}}

>  <type>  (8) 
unop_4

>  <geom_source>  (8) 
Heuristics

$$$$

     RDKit          3D

 19 17  0  0  0  0  0  0  0  0999 V2000
    1.4644    1.1921   -1.0528 C   0  0  0  0  0  0  0  0  0  0  0  0
    1.4644    1.1921   -2.5075 C   0  0  0  0  0  0  0  0  0  0  0  0
    1.4644    1.1921   -3.6539 N   0  0  0  0  0  0  0  0  0  0  0  0
    0.5114    0.4163   -0.6067 H   0  0  0  0  0  0  0  0  0  0  0  0
    2.4214    0.8276   -0.6811 H   0  0  0  0  0  0  0  0  0  0  0  0
    1.3016    2.2032   -0.6811 H   0  0  0  0  0  0  0  0  0  0  0  0
   -0.4432   -0.3608   -0.1599 C   0  0  0  0  0  3  0  0  0  0  0  0
   -0.4756   -0.3872    1.3622 C   0  0  0  0  0  0  0  0  0  0  0  0
   -1.5755   -1.2826    1.9208 C   0  0  0  0  0  0  0  0  0  0  0  0
   -1.6079   -1.3090    3.4430 C   0  0  0  0  0  0  0  0  0  0  0  0
   -1.3894    0.0057   -0.5652 H   0  0  0  0  0  0  0  0  0  0  0  0
   -0.2763   -1.3616   -0.5652 H   0  0  0  0  0  0  0  0  0  0  0  0
   -0.6127    0.6295    1.7444 H   0  0  0  0  0  0  0  0  0  0  0  0
    0.4922   -0.7277    1.7444 H   0  0  0  0  0  0  0  0  0  0  0  0
   -2.5433   -0.9421    1.5387 H   0  0  0  0  0  0  0  0  0  0  0  0
   -1.4384   -2.2993    1.5387 H   0  0  0  0  0  0  0  0  0  0  0  0
   -1.7748   -0.3082    3.8483 H   0  0  0  0  0  0  0  0  0  0  0  0
   -0.6618   -1.6754    3.8483 H   0  0  0  0  0  0  0  0  0  0  0  0
   -2.4034   -1.9565    3.8153 H   0  0  0  0  0  0  0  0  0  0  0  0
  1  2  1  0
  1  4  1  0
  1  5  1  0
  1  6  1  0
  2  3  3  0
  7  8  1  0
  7 11  1  0
  7 12  1  0
  8  9  1  0
  8 13  1  0
  8 14  1  0
  9 10  1  0
  9 15  1  0
  9 16  1  0
 10 17  1  0
 10 18  1  0
 10 19  1  0
M  RAD  1   7   2
M  END
>  <reaction>  (9) 
rmg_rxn_98

>  <mol_properties>  (9) 
{"0": {"label": "*1", "atom_type": "Cs"}, "1": {"label": "*0", "atom_type": "Ct"}, "3": {"label": "*2", "atom_type": "H0"}, "6": {"label": "*3", "atom_type": "Cs"}, "7": {"label": "*4", "atom_type": "Cs"}}

>  <type>  (9) 
unop_5

>  <geom_source>  (9) 
Heuristics

$$$$

     RDKit          3D

 19 17  0  0  0  0  0  0  0  0999 V2000
    2.1121    0.5765   -0.4762 C   0  0  0  0  0  0  0  0  0  0  0  0
    2.1121    0.5765   -1.9308 C   0  0  0  0  0  0  0  0  0  0  0  0
    2.1121    0.5765   -3.0773 N   0  0  0  0  0  0  0  0  0  0  0  0
    1.1590   -0.1993   -0.0301 H   0  0  0  0  0  0  0  0  0  0  0  0
    3.0691    0.2120   -0.1045 H   0  0  0  0  0  0  0  0  0  0  0  0
    1.9493    1.5876   -0.1045 H   0  0  0  0  0  0  0  0  0  0  0  0
    0.2045   -0.9764    0.4167 C   0  0  0  0  0  3  0  0  0  0  0  0
   -1.0971   -0.2094    0.6073 C   0  0  0  0  0  0  0  0  0  0  0  0
   -1.8562   -0.6236    1.8626 C   0  0  0  0  0  0  0  0  0  0  0  0
   -3.1577    0.1434    2.0532 C   0  0  0  0  0  0  0  0  0  0  0  0
    0.0180   -2.0500    0.3369 H   0  0  0  0  0  0  0  0  0  0  0  0
    0.8781   -0.8206    1.2627 H   0  0  0  0  0  0  0  0  0  0  0  0
   -1.7412   -0.3562   -0.2657 H   0  0  0  0  0  0  0  0  0  0  0  0
   -0.8874    0.8642    0.6533 H   0  0  0  0  0  0  0  0  0  0  0  0
   -2.0658   -1.6972    1.8166 H   0  0  0  0  0  0  0  0  0  0  0  0
   -1.2120   -0.4768    2.7356 H   0  0  0  0  0  0  0  0  0  0  0  0
   -3.8313   -0.0124    1.2072 H   0  0  0  0  0  0  0  0  0  0  0  0
   -2.9712    1.2170    2.1330 H   0  0  0  0  0  0  0  0  0  0  0  0
   -3.6798   -0.1726    2.9579 H   0  0  0  0  0  0  0  0  0  0  0  0
  1  2  1  0
  1  4  1  0
  1  5  1  0
  1  6  1  0
  2  3  3  0
  7  8  1  0
  7 11  1  0
  7 12  1  0
  8  9  1  0
  8 13  1  0
  8 14  1  0
  9 10  1  0
  9 15  1  0
  9 16  1  0
 10 17  1  0
 10 18  1  0
 10 19  1  0
M  RAD  1   7   2
M  END
>  <reaction>  (10) 
rmg_rxn_98

>  <mol_properties>  (10) 
{"0": {"label": "*1", "atom_type": "Cs"}, "1": {"label": "*0", "atom_type": "Ct"}, "3": {"label": "*2", "atom_type": "H0"}, "6": {"label": "*3", "atom_type": "Cs"}, "7": {"label": "*4", "atom_type": "Cs"}}

>  <type>  (10) 
unop_6

>  <geom_source>  (10) 
Heuristics

$$$$

     RDKit          3D

 19 17  0  0  0  0  0  0  0  0999 V2000
    1.8411    0.6841   -0.8609 C   0  0  0  0  0  0  0  0  0  0  0  0
    1.8411    0.6841   -2.3155 C   0  0  0  0  0  0  0  0  0  0  0  0
    1.8411    0.6841   -3.4620 N   0  0  0  0  0  0  0  0  0  0  0  0
    0.8881   -0.0917   -0.4148 H   0  0  0  0  0  0  0  0  0  0  0  0
    2.7981    0.3196   -0.4892 H   0  0  0  0  0  0  0  0  0  0  0  0
    1.6783    1.6952   -0.4892 H   0  0  0  0  0  0  0  0  0  0  0  0
   -0.0665   -0.8688    0.0320 C   0  0  0  0  0  3  0  0  0  0  0  0
   -1.0608   -0.0964    0.8884 C   0  0  0  0  0  0  0  0  0  0  0  0
   -1.5262   -0.8757    2.1130 C   0  0  0  0  0  0  0  0  0  0  0  0
   -2.5205   -0.1033    2.9694 C   0  0  0  0  0  0  0  0  0  0  0  0
   -0.5044   -1.8016   -0.3311 H   0  0  0  0  0  0  0  0  0  0  0  0
    0.8275   -1.1253    0.6054 H   0  0  0  0  0  0  0  0  0  0  0  0
   -1.9324    0.1756    0.2842 H   0  0  0  0  0  0  0  0  0  0  0  0
   -0.6103    0.8468    1.2139 H   0  0  0  0  0  0  0  0  0  0  0  0
   -1.9767   -1.8189    1.7875 H   0  0  0  0  0  0  0  0  0  0  0  0
   -0.6546   -1.1476    2.7171 H   0  0  0  0  0  0  0  0  0  0  0  0
   -3.4144    0.1533    2.3959 H   0  0  0  0  0  0  0  0  0  0  0  0
   -2.0825    0.8295    3.3324 H   0  0  0  0  0  0  0  0  0  0  0  0
   -2.8365   -0.6836    3.8378 H   0  0  0  0  0  0  0  0  0  0  0  0
  1  2  1  0
  1  4  1  0
  1  5  1  0
  1  6  1  0
  2  3  3  0
  7  8  1  0
  7 11  1  0
  7 12  1  0
  8  9  1  0
  8 13  1  0
  8 14  1  0
  9 10  1  0
  9 15  1  0
  9 16  1  0
 10 17  1  0
 10 18  1  0
 10 19  1  0
M  RAD  1   7   2
M  END
>  <reaction>  (11) 
rmg_rxn_98

>  <mol_properties>  (11) 
{"0": {"label": "*1", "atom_type": "Cs"}, "1": {"label": "*0", "atom_type": "Ct"}, "3": {"label": "*2", "atom_type": "H0"}, "6": {"label": "*3", "atom_type": "Cs"}, "7": {"label": "*4", "atom_type": "Cs"}}

>  <type>  (11) 
unop_7

>  <geom_source>  (11) 
Heuristics

$$$$

     RDKit          3D

 19 17  0  0  0  0  0  0  0  0999 V2000
    0.9930    1.9512   -0.4762 C   0  0  0  0  0  0  0  0  0  0  0  0
    0.9930    1.9512   -1.9308 C   0  0  0  0  0  0  0  0  0  0  0  0
    0.9930    1.9512   -3.0773 N   0  0  0  0  0  0  0  0  0  0  0  0
    0.0400    1.1754   -0.0301 H   0  0  0  0  0  0  0  0  0  0  0  0
    1.9500    1.5867   -0.1045 H   0  0  0  0  0  0  0  0  0  0  0  0
    0.8302    2.9623   -0.1045 H   0  0  0  0  0  0  0  0  0  0  0  0
   -0.9146    0.3983    0.4167 C   0  0  0  0  0  3  0  0  0  0  0  0
   -0.4276   -1.0318    0.6073 C   0  0  0  0  0  0  0  0  0  0  0  0
   -0.9872   -1.6911    1.8626 C   0  0  0  0  0  0  0  0  0  0  0  0
   -0.5002   -3.1211    2.0532 C   0  0  0  0  0  0  0  0  0  0  0  0
   -0.6254    1.0263    1.2627 H   0  0  0  0  0  0  0  0  0  0  0  0
   -2.0037    0.4335    0.3369 H   0  0  0  0  0  0  0  0  0  0  0  0
    0.6662   -1.0443    0.6533 H   0  0  0  0  0  0  0  0  0  0  0  0
   -0.7020   -1.6327   -0.2657 H   0  0  0  0  0  0  0  0  0  0  0  0
   -0.7127   -1.0901    2.7356 H   0  0  0  0  0  0  0  0  0  0  0  0
   -2.0809   -1.6786    1.8166 H   0  0  0  0  0  0  0  0  0  0  0  0
    0.5890   -3.1563    2.1330 H   0  0  0  0  0  0  0  0  0  0  0  0
   -0.7894   -3.7491    1.2072 H   0  0  0  0  0  0  0  0  0  0  0  0
   -0.9155   -3.5683    2.9579 H   0  0  0  0  0  0  0  0  0  0  0  0
  1  2  1  0
  1  4  1  0
  1  5  1  0
  1  6  1  0
  2  3  3  0
  7  8  1  0
  7 11  1  0
  7 12  1  0
  8  9  1  0
  8 13  1  0
  8 14  1  0
  9 10  1  0
  9 15  1  0
  9 16  1  0
 10 17  1  0
 10 18  1  0
 10 19  1  0
M  RAD  1   7   2
M  END
>  <reaction>  (12) 
rmg_rxn_98

>  <mol_properties>  (12) 
{"0": {"label": "*1", "atom_type": "Cs"}, "1": {"label": "*0", "atom_type": "Ct"}, "3": {"label": "*2", "atom_type": "H0"}, "6": {"label": "*3", "atom_type": "Cs"}, "7": {"label": "*4", "atom_type": "Cs"}}

>  <type>  (12) 
unop_8

>  <geom_source>  (12) 
Heuristics

$$$$

     RDKit          3D

 19 17  0  0  0  0  0  0  0  0999 V2000
    2.1977    1.0885    0.3905 C   0  0  0  0  0  0  0  0  0  0  0  0
    2.1977    1.0885   -1.0641 C   0  0  0  0  0  0  0  0  0  0  0  0
    2.1977    1.0885   -2.2106 N   0  0  0  0  0  0  0  0  0  0  0  0
    1.2447    0.3126    0.8366 H   0  0  0  0  0  0  0  0  0  0  0  0
    3.1547    0.7239    0.7622 H   0  0  0  0  0  0  0  0  0  0  0  0
    2.0349    2.0995    0.7622 H   0  0  0  0  0  0  0  0  0  0  0  0
    0.2901   -0.4644    1.2834 C   0  0  0  0  0  3  0  0  0  0  0  0
   -0.8889   -0.5110    0.3210 C   0  0  0  0  0  0  0  0  0  0  0  0
   -2.1691   -1.0255    0.9690 C   0  0  0  0  0  0  0  0  0  0  0  0
   -3.3481   -1.0721    0.0065 C   0  0  0  0  0  0  0  0  0  0  0  0
    0.5107   -1.4582    1.6804 H   0  0  0  0  0  0  0  0  0  0  0  0
    0.0770    0.1899    2.1321 H   0  0  0  0  0  0  0  0  0  0  0  0
   -0.6398   -1.1470   -0.5346 H   0  0  0  0  0  0  0  0  0  0  0  0
   -1.0703    0.4889   -0.0863 H   0  0  0  0  0  0  0  0  0  0  0  0
   -1.9877   -2.0255    1.3762 H   0  0  0  0  0  0  0  0  0  0  0  0
   -2.4182   -0.3895    1.8245 H   0  0  0  0  0  0  0  0  0  0  0  0
   -3.1350   -1.7264   -0.8421 H   0  0  0  0  0  0  0  0  0  0  0  0
   -3.5687   -0.0783   -0.3905 H   0  0  0  0  0  0  0  0  0  0  0  0
   -4.2500   -1.4435    0.4958 H   0  0  0  0  0  0  0  0  0  0  0  0
  1  2  1  0
  1  4  1  0
  1  5  1  0
  1  6  1  0
  2  3  3  0
  7  8  1  0
  7 11  1  0
  7 12  1  0
  8  9  1  0
  8 13  1  0
  8 14  1  0
  9 10  1  0
  9 15  1  0
  9 16  1  0
 10 17  1  0
 10 18  1  0
 10 19  1  0
M  RAD  1   7   2
M  END
>  <reaction>  (13) 
rmg_rxn_98

>  <mol_properties>  (13) 
{"0": {"label": "*1", "atom_type": "Cs"}, "1": {"label": "*0", "atom_type": "Ct"}, "3": {"label": "*2", "atom_type": "H0"}, "6": {"label": "*3", "atom_type": "Cs"}, "7": {"label": "*4", "atom_type": "Cs"}}

>  <type>  (13) 
unop_9

>  <geom_source>  (13) 
Heuristics

$$$$

     RDKit          3D

 19 17  0  0  0  0  0  0  0  0999 V2000
    1.1623    2.0666   -0.0041 C   0  0  0  0  0  0  0  0  0  0  0  0
    1.1623    2.0666   -1.4588 C   0  0  0  0  0  0  0  0  0  0  0  0
    1.1623    2.0666   -2.6052 N   0  0  0  0  0  0  0  0  0  0  0  0
    0.2093    1.2907    0.4419 H   0  0  0  0  0  0  0  0  0  0  0  0
    2.1193    1.7020    0.3675 H   0  0  0  0  0  0  0  0  0  0  0  0
    0.9995    3.0776    0.3676 H   0  0  0  0  0  0  0  0  0  0  0  0
   -0.7453    0.5137    0.8888 C   0  0  0  0  0  3  0  0  0  0  0  0
   -0.5655   -0.9218    0.4136 C   0  0  0  0  0  0  0  0  0  0  0  0
   -1.0838   -1.9507    1.4117 C   0  0  0  0  0  0  0  0  0  0  0  0
   -0.9040   -3.3862    0.9366 C   0  0  0  0  0  0  0  0  0  0  0  0
   -0.2138    0.6845    1.8279 H   0  0  0  0  0  0  0  0  0  0  0  0
   -1.8003    0.7397    1.0610 H   0  0  0  0  0  0  0  0  0  0  0  0
    0.4945   -1.1141    0.2186 H   0  0  0  0  0  0  0  0  0  0  0  0
   -1.0804   -1.0594   -0.5427 H   0  0  0  0  0  0  0  0  0  0  0  0
   -0.5689   -1.8131    2.3681 H   0  0  0  0  0  0  0  0  0  0  0  0
   -2.1438   -1.7584    1.6068 H   0  0  0  0  0  0  0  0  0  0  0  0
    0.1510   -3.6122    0.7644 H   0  0  0  0  0  0  0  0  0  0  0  0
   -1.4355   -3.5571   -0.0026 H   0  0  0  0  0  0  0  0  0  0  0  0
   -1.2829   -4.1008    1.6691 H   0  0  0  0  0  0  0  0  0  0  0  0
  1  2  1  0
  1  4  1  0
  1  5  1  0
  1  6  1  0
  2  3  3  0
  7  8  1  0
  7 11  1  0
  7 12  1  0
  8  9  1  0
  8 13  1  0
  8 14  1  0
  9 10  1  0
  9 15  1  0
  9 16  1  0
 10 17  1  0
 10 18  1  0
 10 19  1  0
M  RAD  1   7   2
M  END
>  <reaction>  (14) 
rmg_rxn_98

>  <mol_properties>  (14) 
{"0": {"label": "*1", "atom_type": "Cs"}, "1": {"label": "*0", "atom_type": "Ct"}, "3": {"label": "*2", "atom_type": "H0"}, "6": {"label": "*3", "atom_type": "Cs"}, "7": {"label": "*4", "atom_type": "Cs"}}

>  <type>  (14) 
unop_10

>  <geom_source>  (14) 
Heuristics

$$$$

     RDKit          3D

 19 17  0  0  0  0  0  0  0  0999 V2000
    1.5882    0.9624   -1.0418 C   0  0  0  0  0  0  0  0  0  0  0  0
    1.5882    0.9624   -2.4964 C   0  0  0  0  0  0  0  0  0  0  0  0
    1.5882    0.9624   -3.6429 N   0  0  0  0  0  0  0  0  0  0  0  0
    0.6352    0.1866   -0.5957 H   0  0  0  0  0  0  0  0  0  0  0  0
    2.5452    0.5979   -0.6701 H   0  0  0  0  0  0  0  0  0  0  0  0
    1.4254    1.9735   -0.6701 H   0  0  0  0  0  0  0  0  0  0  0  0
   -0.3194   -0.5905   -0.1489 C   0  0  0  0  0  3  0  0  0  0  0  0
   -0.8491   -0.1085    1.1949 C   0  0  0  0  0  0  0  0  0  0  0  0
   -1.3872   -1.2385    2.0650 C   0  0  0  0  0  0  0  0  0  0  0  0
   -1.9169   -0.7565    3.4087 C   0  0  0  0  0  0  0  0  0  0  0  0
   -1.1040   -1.0891   -0.7229 H   0  0  0  0  0  0  0  0  0  0  0  0
    0.4959   -1.3054   -0.0145 H   0  0  0  0  0  0  0  0  0  0  0  0
   -1.6425    0.6286    1.0339 H   0  0  0  0  0  0  0  0  0  0  0  0
   -0.0543    0.4139    1.7371 H   0  0  0  0  0  0  0  0  0  0  0  0
   -2.1820   -1.7609    1.5228 H   0  0  0  0  0  0  0  0  0  0  0  0
   -0.5938   -1.9756    2.2259 H   0  0  0  0  0  0  0  0  0  0  0  0
   -2.7322   -0.0416    3.2744 H   0  0  0  0  0  0  0  0  0  0  0  0
   -1.1323   -0.2579    3.9828 H   0  0  0  0  0  0  0  0  0  0  0  0
   -2.2952   -1.5846    4.0103 H   0  0  0  0  0  0  0  0  0  0  0  0
  1  2  1  0
  1  4  1  0
  1  5  1  0
  1  6  1  0
  2  3  3  0
  7  8  1  0
  7 11  1  0
  7 12  1  0
  8  9  1  0
  8 13  1  0
  8 14  1  0
  9 10  1  0
  9 15  1  0
  9 16  1  0
 10 17  1  0
 10 18  1  0
 10 19  1  0
M  RAD  1   7   2
M  END
>  <reaction>  (15) 
rmg_rxn_98

>  <mol_properties>  (15) 
{"0": {"label": "*1", "atom_type": "Cs"}, "1": {"label": "*0", "atom_type": "Ct"}, "3": {"label": "*2", "atom_type": "H0"}, "6": {"label": "*3", "atom_type": "Cs"}, "7": {"label": "*4", "atom_type": "Cs"}}

>  <type>  (15) 
unop_11

>  <geom_source>  (15) 
Heuristics

$$$$

     RDKit          3D

 19 17  0  0  0  0  0  0  0  0999 V2000
    1.9147    1.5587    0.5467 C   0  0  0  0  0  0  0  0  0  0  0  0
    1.9147    1.5587   -0.9079 C   0  0  0  0  0  0  0  0  0  0  0  0
    1.9147    1.5587   -2.0544 N   0  0  0  0  0  0  0  0  0  0  0  0
    0.9616    0.7828    0.9928 H   0  0  0  0  0  0  0  0  0  0  0  0
    2.8717    1.1942    0.9184 H   0  0  0  0  0  0  0  0  0  0  0  0
    1.7519    2.5698    0.9184 H   0  0  0  0  0  0  0  0  0  0  0  0
    0.0071    0.0058    1.4396 C   0  0  0  0  0  3  0  0  0  0  0  0
   -0.7750   -0.6309    0.2988 C   0  0  0  0  0  0  0  0  0  0  0  0
   -1.8967   -1.5440    0.7800 C   0  0  0  0  0  0  0  0  0  0  0  0
   -2.6788   -2.1807   -0.3609 C   0  0  0  0  0  0  0  0  0  0  0  0
    0.4664   -0.7570    2.0728 H   0  0  0  0  0  0  0  0  0  0  0  0
   -0.6467    0.6102    2.0728 H   0  0  0  0  0  0  0  0  0  0  0  0
   -0.0941   -1.2049   -0.3380 H   0  0  0  0  0  0  0  0  0  0  0  0
   -1.1989    0.1523   -0.3380 H   0  0  0  0  0  0  0  0  0  0  0  0
   -1.4728   -2.3273    1.4167 H   0  0  0  0  0  0  0  0  0  0  0  0
   -2.5776   -0.9700    1.4167 H   0  0  0  0  0  0  0  0  0  0  0  0
   -2.0250   -2.7852   -0.9941 H   0  0  0  0  0  0  0  0  0  0  0  0
   -3.1381   -1.4179   -0.9941 H   0  0  0  0  0  0  0  0  0  0  0  0
   -3.4742   -2.8283    0.0115 H   0  0  0  0  0  0  0  0  0  0  0  0
  1  2  1  0
  1  4  1  0
  1  5  1  0
  1  6  1  0
  2  3  3  0
  7  8  1  0
  7 11  1  0
  7 12  1  0
  8  9  1  0
  8 13  1  0
  8 14  1  0
  9 10  1  0
  9 15  1  0
  9 16  1  0
 10 17  1  0
 10 18  1  0
 10 19  1  0
M  RAD  1   7   2
M  END
>  <reaction>  (16) 
rmg_rxn_98

>  <mol_properties>  (16) 
{"0": {"label": "*1", "atom_type": "Cs"}, "1": {"label": "*0", "atom_type": "Ct"}, "3": {"label": "*2", "atom_type": "H0"}, "6": {"label": "*3", "atom_type": "Cs"}, "7": {"label": "*4", "atom_type": "Cs"}}

>  <type>  (16) 
unop_12

>  <geom_source>  (16) 
Heuristics

$$$$

     RDKit          3D

 19 17  0  0  0  0  0  0  0  0999 V2000
    4.1195    1.5528    0.5482 N   0  0  0  0  0  2  0  0  0  0  0  0
   -0.6528   -0.4151   -0.7237 C   0  0  0  0  0  0  0  0  0  0  0  0
   -2.0932   -0.3993   -0.1908 C   0  0  0  0  0  0  0  0  0  0  0  0
    0.3787   -0.0878    0.3540 C   0  0  0  0  0  0  0  0  0  0  0  0
   -2.5819    1.0094    0.1447 C   0  0  0  0  0  0  0  0  0  0  0  0
    2.8829   -0.6976    0.0266 C   0  0  0  0  0  0  0  0  0  0  0  0
    3.5735    0.5589    0.3178 C   0  0  0  0  0  0  0  0  0  0  0  0
   -0.4331   -1.4316   -1.1154 H   0  0  0  0  0  0  0  0  0  0  0  0
   -0.5478    0.3004   -1.5677 H   0  0  0  0  0  0  0  0  0  0  0  0
   -2.7611   -0.8232   -0.9717 H   0  0  0  0  0  0  0  0  0  0  0  0
   -2.1755   -1.0466    0.7094 H   0  0  0  0  0  0  0  0  0  0  0  0
    0.2603   -0.7666    1.2253 H   0  0  0  0  0  0  0  0  0  0  0  0
    0.2781    0.9656    0.6879 H   0  0  0  0  0  0  0  0  0  0  0  0
    1.5748   -0.2471   -0.1368 H   0  0  0  0  0  0  0  0  0  0  0  0
   -2.4669    1.6800   -0.7333 H   0  0  0  0  0  0  0  0  0  0  0  0
   -3.6567    0.9708    0.4210 H   0  0  0  0  0  0  0  0  0  0  0  0
   -2.0186    1.4261    1.0051 H   0  0  0  0  0  0  0  0  0  0  0  0
    3.0009   -1.3921    0.8837 H   0  0  0  0  0  0  0  0  0  0  0  0
    3.3190   -1.1570   -0.8843 H   0  0  0  0  0  0  0  0  0  0  0  0
  1  7  2  0
  2  4  1  0
  2  3  1  0
  2  8  1  0
  2  9  1  0
  3  5  1  0
  3 10  1  0
  3 11  1  0
  4 12  1  0
  4 13  1  0
  4 14  1  0
  5 15  1  0
  5 16  1  0
  5 17  1  0
  6  7  2  0
  6 18  1  0
  6 19  1  0
M  RAD  1   1   2
M  END
>  <reaction>  (17) 
rmg_rxn_98

>  <mol_properties>  (17) 
{"0": {"label": "*1", "atom_type": "Cs"}, "1": {"label": "*0", "atom_type": "Ct"}, "3": {"label": "*2", "atom_type": "H0"}, "6": {"label": "*3", "atom_type": "Cs"}, "7": {"label": "*4", "atom_type": "Cs"}}

>  <type>  (17) 
unop_13

>  <geom_source>  (17) 
AutoTST

$$$$

     RDKit          3D

 19 17  0  0  0  0  0  0  0  0999 V2000
    1.5116    1.9312    0.3905 C   0  0  0  0  0  0  0  0  0  0  0  0
    1.5116    1.9312   -1.0641 C   0  0  0  0  0  0  0  0  0  0  0  0
    1.5116    1.9312   -2.2106 N   0  0  0  0  0  0  0  0  0  0  0  0
    0.5586    1.1554    0.8366 H   0  0  0  0  0  0  0  0  0  0  0  0
    2.4687    1.5667    0.7622 H   0  0  0  0  0  0  0  0  0  0  0  0
    1.3489    2.9423    0.7622 H   0  0  0  0  0  0  0  0  0  0  0  0
   -0.3959    0.3783    1.2834 C   0  0  0  0  0  3  0  0  0  0  0  0
   -0.6807   -0.7668    0.3210 C   0  0  0  0  0  0  0  0  0  0  0  0
   -1.4442   -1.9160    0.9690 C   0  0  0  0  0  0  0  0  0  0  0  0
   -1.7290   -3.0610    0.0065 C   0  0  0  0  0  0  0  0  0  0  0  0
    0.2016    0.0368    2.1321 H   0  0  0  0  0  0  0  0  0  0  0  0
   -1.3243    0.7959    1.6804 H   0  0  0  0  0  0  0  0  0  0  0  0
    0.2616   -1.1473   -0.0863 H   0  0  0  0  0  0  0  0  0  0  0  0
   -1.2530   -0.3938   -0.5346 H   0  0  0  0  0  0  0  0  0  0  0  0
   -0.8720   -2.2890    1.8245 H   0  0  0  0  0  0  0  0  0  0  0  0
   -2.3866   -1.5355    1.3762 H   0  0  0  0  0  0  0  0  0  0  0  0
   -0.8006   -3.4787   -0.3905 H   0  0  0  0  0  0  0  0  0  0  0  0
   -2.3265   -2.7196   -0.8421 H   0  0  0  0  0  0  0  0  0  0  0  0
   -2.2757   -3.8688    0.4958 H   0  0  0  0  0  0  0  0  0  0  0  0
  1  2  1  0
  1  4  1  0
  1  5  1  0
  1  6  1  0
  2  3  3  0
  7  8  1  0
  7 11  1  0
  7 12  1  0
  8  9  1  0
  8 13  1  0
  8 14  1  0
  9 10  1  0
  9 15  1  0
  9 16  1  0
 10 17  1  0
 10 18  1  0
 10 19  1  0
M  RAD  1   7   2
M  END
>  <reaction>  (18) 
rmg_rxn_98

>  <mol_properties>  (18) 
{"0": {"label": "*1", "atom_type": "Cs"}, "1": {"label": "*0", "atom_type": "Ct"}, "3": {"label": "*2", "atom_type": "H0"}, "6": {"label": "*3", "atom_type": "Cs"}, "7": {"label": "*4", "atom_type": "Cs"}}

>  <type>  (18) 
unop_14

>  <geom_source>  (18) 
gaussian_log

$$$$
