
     RDKit          3D

 14 13  0  0  0  0  0  0  0  0999 V2000
   -0.5871    1.3248   -0.1546 C   0  0  0  0  0  0  0  0  0  0  0  0
    0.0884    0.0031    0.0755 C   0  0  0  0  0  0  0  0  0  0  0  0
   -0.3398   -1.1093   -0.4700 C   0  0  0  0  0  0  0  0  0  0  0  0
   -0.8305   -2.2081   -0.9667 C   0  0  0  0  0  0  0  0  0  0  0  0
    1.1793    0.0582    0.9538 N   0  0  0  0  0  0  0  0  0  0  0  0
    2.0220   -1.0575    1.0604 N   0  0  0  0  0  0  0  0  0  0  0  0
   -0.9342    1.7390    0.7942 H   0  0  0  0  0  0  0  0  0  0  0  0
    0.1093    2.0411   -0.6001 H   0  0  0  0  0  0  0  0  0  0  0  0
   -1.4368    1.2118   -0.8233 H   0  0  0  0  0  0  0  0  0  0  0  0
   -1.5657   -2.7988   -0.4266 H   0  0  0  0  0  0  0  0  0  0  0  0
   -0.5309   -2.5788   -1.9426 H   0  0  0  0  0  0  0  0  0  0  0  0
    1.7218    0.9025    0.8562 H   0  0  0  0  0  0  0  0  0  0  0  0
    2.1009   -1.5211    0.1575 H   0  0  0  0  0  0  0  0  0  0  0  0
    1.5938   -1.7166    1.6976 H   0  0  0  0  0  0  0  0  0  0  0  0
  1  2  1  0
  1  7  1  0
  1  8  1  0
  1  9  1  0
  2  3  2  0
  2  5  1  0
  3  4  2  0
  4 10  1  0
  4 11  1  0
  5  6  1  0
  5 12  1  0
  6 13  1  0
  6 14  1  0
M  END
>  <reaction>  (1) 
rmg_rxn_15667

>  <mol_properties>  (1) 
{"4": {"label": "donator", "atom_type": "N3s"}, "11": {"label": "d_hydrogen", "atom_type": "H0"}}

>  <type>  (1) 
r1h

$$$$

     RDKit          3D

  8  7  0  0  0  0  0  0  0  0999 V2000
    1.7077   -0.1964   -0.0607 C   0  0  0  0  0  3  0  0  0  0  0  0
    0.4209   -0.4565    0.2808 O   0  0  0  0  0  0  0  0  0  0  0  0
   -0.4607    0.4385   -0.2968 N   0  0  0  0  0  0  0  0  0  0  0  0
   -1.6584    0.1416   -0.0244 C   0  0  0  0  0  0  0  0  0  0  0  0
    2.4163   -0.7685    0.5170 H   0  0  0  0  0  0  0  0  0  0  0  0
    1.9214    0.7645   -0.5045 H   0  0  0  0  0  0  0  0  0  0  0  0
   -2.4185    0.7953   -0.4307 H   0  0  0  0  0  0  0  0  0  0  0  0
   -1.9286   -0.7185    0.5831 H   0  0  0  0  0  0  0  0  0  0  0  0
  1  2  1  0
  1  5  1  0
  1  6  1  0
  2  3  1  0
  3  4  2  3
  4  7  1  0
  4  8  1  0
M  RAD  1   1   2
M  END
>  <reaction>  (2) 
rmg_rxn_15667

>  <mol_properties>  (2) 
{"0": {"label": "acceptor", "atom_type": "Cs"}}

>  <type>  (2) 
r2

$$$$

     RDKit          3D

  9  8  0  0  0  0  0  0  0  0999 V2000
   -1.5470   -0.0755   -0.1976 C   0  0  0  0  0  0  0  0  0  0  0  0
   -0.2885    0.4507    0.1749 O   0  0  0  0  0  0  0  0  0  0  0  0
   -0.1502    1.7216   -0.3294 N   0  0  0  0  0  0  0  0  0  0  0  0
    0.9626    2.2353   -0.0219 C   0  0  0  0  0  0  0  0  0  0  0  0
   -1.6392   -0.1356   -1.2844 H   0  0  0  0  0  0  0  0  0  0  0  0
   -2.3597    0.5337    0.2044 H   0  0  0  0  0  0  0  0  0  0  0  0
   -1.5879   -1.0750    0.2318 H   0  0  0  0  0  0  0  0  0  0  0  0
    1.1497    3.2381   -0.3820 H   0  0  0  0  0  0  0  0  0  0  0  0
    1.7060    1.7101    0.5739 H   0  0  0  0  0  0  0  0  0  0  0  0
  1  2  1  0
  1  5  1  0
  1  6  1  0
  1  7  1  0
  2  3  1  0
  3  4  2  3
  4  8  1  0
  4  9  1  0
M  END
>  <reaction>  (3) 
rmg_rxn_15667

>  <mol_properties>  (3) 
{"0": {"label": "acceptor", "atom_type": "Cs"}, "8": {"label": "a_hydrogen", "atom_type": "H0"}}

>  <type>  (3) 
r2h

$$$$

     RDKit          3D

 22 20  0  0  0  0  0  0  0  0999 V2000
    1.8659   -1.2976    0.0474 C   0  0  0  0  0  3  0  0  0  0  0  0
    1.9614   -0.1031   -0.6372 O   0  0  0  0  0  0  0  0  0  0  0  0
    1.8087    0.9714    0.2180 N   0  0  0  0  0  0  0  0  0  0  0  0
    1.7855    2.0666   -0.4104 C   0  0  0  0  0  0  0  0  0  0  0  0
    2.1411   -2.1085   -0.6196 H   0  0  0  0  0  0  0  0  0  0  0  0
    2.3580   -1.2876    1.0195 H   0  0  0  0  0  0  0  0  0  0  0  0
    1.6784    2.9625    0.1862 H   0  0  0  0  0  0  0  0  0  0  0  0
    1.8632    2.1232   -1.4932 H   0  0  0  0  0  0  0  0  0  0  0  0
   -1.2317   -1.3168   -1.5806 C   0  0  0  0  0  0  0  0  0  0  0  0
   -1.2624   -0.5682   -0.2788 C   0  0  0  0  0  0  0  0  0  0  0  0
   -1.8275    0.6123   -0.1651 C   0  0  0  0  0  0  0  0  0  0  0  0
   -2.4529    1.7473   -0.0724 C   0  0  0  0  0  0  0  0  0  0  0  0
   -0.6476   -1.2470    0.7799 N   0  0  0  0  0  0  0  0  0  0  0  0
   -0.6200   -0.5206    1.9677 N   0  0  0  0  0  0  0  0  0  0  0  0
   -0.2023   -1.4400   -1.9267 H   0  0  0  0  0  0  0  0  0  0  0  0
   -1.6651   -2.3099   -1.4497 H   0  0  0  0  0  0  0  0  0  0  0  0
   -1.7887   -0.7810   -2.3460 H   0  0  0  0  0  0  0  0  0  0  0  0
   -1.9525    2.6897   -0.2765 H   0  0  0  0  0  0  0  0  0  0  0  0
   -3.4971    1.8002    0.2213 H   0  0  0  0  0  0  0  0  0  0  0  0
    0.4460   -1.4807    0.4269 H   0  0  0  0  0  0  0  0  0  0  0  0
   -0.0444    0.3148    1.8921 H   0  0  0  0  0  0  0  0  0  0  0  0
   -0.2678   -1.1175    2.7005 H   0  0  0  0  0  0  0  0  0  0  0  0
  1  2  1  0
  1  5  1  0
  1  6  1  0
  2  3  1  0
  3  4  2  3
  4  7  1  0
  4  8  1  0
  9 10  1  0
  9 15  1  0
  9 16  1  0
  9 17  1  0
 10 11  2  0
 10 13  1  0
 11 12  2  0
 12 18  1  0
 12 19  1  0
 13 14  1  0
 13 20  1  0
 14 21  1  0
 14 22  1  0
M  RAD  1   1   2
M  END
>  <reaction>  (4) 
rmg_rxn_15667

>  <mol_properties>  (4) 
{"0": {"label": "*3", "atom_type": "Cs"}, "1": {"label": "*4", "atom_type": "O2s"}, "9": {"label": "*0", "atom_type": "Cd"}, "12": {"label": "*1", "atom_type": "N3s"}, "19": {"label": "*2", "atom_type": "H0"}}

>  <type>  (4) 
ts

$$$$

     RDKit          3D

 22 20  0  0  0  0  0  0  0  0999 V2000
   -1.8275   -1.4042    0.0529 C   0  0  0  0  0  0  0  0  0  0  0  0
   -2.0753   -0.1649   -0.5825 O   0  0  0  0  0  0  0  0  0  0  0  0
   -1.6806    0.8867    0.2169 N   0  0  0  0  0  0  0  0  0  0  0  0
   -1.8514    2.0421   -0.2553 C   0  0  0  0  0  0  0  0  0  0  0  0
   -2.4347   -1.5229    0.9522 H   0  0  0  0  0  0  0  0  0  0  0  0
   -2.0490   -2.1706   -0.6824 H   0  0  0  0  0  0  0  0  0  0  0  0
   -1.5477    2.8665    0.3659 H   0  0  0  0  0  0  0  0  0  0  0  0
   -2.2796    2.2485   -1.2316 H   0  0  0  0  0  0  0  0  0  0  0  0
    1.2311   -1.3505   -1.5795 C   0  0  0  0  0  0  0  0  0  0  0  0
    1.2650   -0.5599   -0.2998 C   0  0  0  0  0  0  0  0  0  0  0  0
    1.8565    0.6278   -0.2417 C   0  0  0  0  0  0  0  0  0  0  0  0
    2.5161    1.7339   -0.1311 C   0  0  0  0  0  0  0  0  0  0  0  0
    0.6193   -1.1434    0.7477 N   0  0  0  0  0  2  0  0  0  0  0  0
    0.6339   -0.4520    1.9241 N   0  0  0  0  0  0  0  0  0  0  0  0
    1.9812   -0.9815   -2.2730 H   0  0  0  0  0  0  0  0  0  0  0  0
    1.4159   -2.3996   -1.3636 H   0  0  0  0  0  0  0  0  0  0  0  0
    0.2496   -1.2613   -2.0434 H   0  0  0  0  0  0  0  0  0  0  0  0
    3.5538    1.7636    0.1756 H   0  0  0  0  0  0  0  0  0  0  0  0
    2.0701    2.6929   -0.3589 H   0  0  0  0  0  0  0  0  0  0  0  0
   -0.6078   -1.4376    0.3803 H   0  0  0  0  0  0  0  0  0  0  0  0
    0.5213    0.5575    1.8386 H   0  0  0  0  0  0  0  0  0  0  0  0
   -0.0015   -0.8680    2.5918 H   0  0  0  0  0  0  0  0  0  0  0  0
  1  2  1  0
  1  5  1  0
  1  6  1  0
  1 20  1  0
  2  3  1  0
  3  4  2  3
  4  7  1  0
  4  8  1  0
  9 10  1  0
  9 15  1  0
  9 16  1  0
  9 17  1  0
 10 11  2  0
 10 13  1  0
 11 12  2  0
 12 18  1  0
 12 19  1  0
 13 14  1  0
 14 21  1  0
 14 22  1  0
M  RAD  1  13   2
M  END
>  <reaction>  (5) 
rmg_rxn_15667

>  <mol_properties>  (5) 
{"0": {"label": "*3", "atom_type": "Cs"}, "1": {"label": "*4", "atom_type": "O2s"}, "9": {"label": "*0", "atom_type": "Cd"}, "12": {"label": "*1", "atom_type": "N3s"}, "19": {"label": "*2", "atom_type": "H0"}}

>  <type>  (5) 
unop_1

>  <geom_source>  (5) 
crest_best.xyz

$$$$

     RDKit          3D

 22 20  0  0  0  0  0  0  0  0999 V2000
   -0.9937   -1.1411   -0.5944 C   0  0  0  0  0  3  0  0  0  0  0  0
   -0.0672   -2.1359   -0.9837 O   0  0  0  0  0  0  0  0  0  0  0  0
   -0.6568   -3.3748   -0.9034 N   0  0  0  0  0  0  0  0  0  0  0  0
    0.1347   -4.2995   -1.2427 C   0  0  0  0  0  0  0  0  0  0  0  0
   -1.8652   -1.1397   -1.2529 H   0  0  0  0  0  0  0  0  0  0  0  0
   -1.3168   -1.2909    0.4382 H   0  0  0  0  0  0  0  0  0  0  0  0
   -0.2544   -5.3083   -1.2067 H   0  0  0  0  0  0  0  0  0  0  0  0
    1.1585   -4.1087   -1.5575 H   0  0  0  0  0  0  0  0  0  0  0  0
    0.2915    1.8429   -1.3906 C   0  0  0  0  0  0  0  0  0  0  0  0
    0.2915    1.8429    0.1114 C   0  0  0  0  0  0  0  0  0  0  0  0
    0.2915    2.9495    0.8141 C   0  0  0  0  0  0  0  0  0  0  0  0
    0.3646    4.0633    1.4842 C   0  0  0  0  0  0  0  0  0  0  0  0
    0.3374    0.5662    0.6881 N   0  0  0  0  0  0  0  0  0  0  0  0
    0.1078    0.4348    2.0652 N   0  0  0  0  0  0  0  0  0  0  0  0
    1.1803    1.3313   -1.7658 H   0  0  0  0  0  0  0  0  0  0  0  0
   -0.5872    1.3177   -1.7759 H   0  0  0  0  0  0  0  0  0  0  0  0
    0.2794    2.8595   -1.7757 H   0  0  0  0  0  0  0  0  0  0  0  0
    1.3207    4.5027    1.7562 H   0  0  0  0  0  0  0  0  0  0  0  0
   -0.5248    4.6034    1.7956 H   0  0  0  0  0  0  0  0  0  0  0  0
   -0.3026   -0.2547    0.0714 H   0  0  0  0  0  0  0  0  0  0  0  0
   -0.5789    1.1217    2.3703 H   0  0  0  0  0  0  0  0  0  0  0  0
    0.9714    0.6409    2.5502 H   0  0  0  0  0  0  0  0  0  0  0  0
  1  2  1  0
  1  5  1  0
  1  6  1  0
  2  3  1  0
  3  4  2  3
  4  7  1  0
  4  8  1  0
  9 10  1  0
  9 15  1  0
  9 16  1  0
  9 17  1  0
 10 11  2  0
 10 13  1  0
 11 12  2  0
 12 18  1  0
 12 19  1  0
 13 14  1  0
 13 20  1  0
 14 21  1  0
 14 22  1  0
M  RAD  1   1   2
M  END
>  <reaction>  (6) 
rmg_rxn_15667

>  <mol_properties>  (6) 
{"0": {"label": "*3", "atom_type": "Cs"}, "1": {"label": "*4", "atom_type": "O2s"}, "9": {"label": "*0", "atom_type": "Cd"}, "12": {"label": "*1", "atom_type": "N3s"}, "19": {"label": "*2", "atom_type": "H0"}}

>  <type>  (6) 
unop_2

>  <geom_source>  (6) 
Heuristics

$$$$

     RDKit          3D

 22 20  0  0  0  0  0  0  0  0999 V2000
    1.8320   -1.4001    0.0553 C   0  0  0  0  0  0  0  0  0  0  0  0
    2.0788   -0.1597   -0.5784 O   0  0  0  0  0  0  0  0  0  0  0  0
    1.6764    0.8903    0.2193 N   0  0  0  0  0  0  0  0  0  0  0  0
    1.8454    2.0463   -0.2518 C   0  0  0  0  0  0  0  0  0  0  0  0
    2.0582   -2.1654   -0.6797 H   0  0  0  0  0  0  0  0  0  0  0  0
    2.4363   -1.5177    0.9567 H   0  0  0  0  0  0  0  0  0  0  0  0
    1.5354    2.8696    0.3677 H   0  0  0  0  0  0  0  0  0  0  0  0
    2.2781    2.2543   -1.2258 H   0  0  0  0  0  0  0  0  0  0  0  0
   -1.2196   -1.3437   -1.5878 C   0  0  0  0  0  0  0  0  0  0  0  0
   -1.2619   -0.5606   -0.3038 C   0  0  0  0  0  0  0  0  0  0  0  0
   -1.8588    0.6241   -0.2411 C   0  0  0  0  0  0  0  0  0  0  0  0
   -2.5247    1.7260   -0.1257 C   0  0  0  0  0  0  0  0  0  0  0  0
   -0.6177   -1.1470    0.7429 N   0  0  0  0  0  2  0  0  0  0  0  0
   -0.6377   -0.4610    1.9223 N   0  0  0  0  0  0  0  0  0  0  0  0
   -0.2388   -1.2419   -2.0508 H   0  0  0  0  0  0  0  0  0  0  0  0
   -1.3938   -2.3959   -1.3778 H   0  0  0  0  0  0  0  0  0  0  0  0
   -1.9731   -0.9785   -2.2798 H   0  0  0  0  0  0  0  0  0  0  0  0
   -2.0831    2.6888   -0.3459 H   0  0  0  0  0  0  0  0  0  0  0  0
   -3.5637    1.7481    0.1775 H   0  0  0  0  0  0  0  0  0  0  0  0
    0.6113   -1.4369    0.3784 H   0  0  0  0  0  0  0  0  0  0  0  0
   -0.5272    0.5491    1.8417 H   0  0  0  0  0  0  0  0  0  0  0  0
   -0.0035   -0.8785    2.5901 H   0  0  0  0  0  0  0  0  0  0  0  0
  1  2  1  0
  1  5  1  0
  1  6  1  0
  1 20  1  0
  2  3  1  0
  3  4  2  3
  4  7  1  0
  4  8  1  0
  9 10  1  0
  9 15  1  0
  9 16  1  0
  9 17  1  0
 10 11  2  0
 10 13  1  0
 11 12  2  0
 12 18  1  0
 12 19  1  0
 13 14  1  0
 14 21  1  0
 14 22  1  0
M  RAD  1  13   2
M  END
>  <reaction>  (7) 
rmg_rxn_15667

>  <mol_properties>  (7) 
{"0": {"label": "*3", "atom_type": "Cs"}, "1": {"label": "*4", "atom_type": "O2s"}, "9": {"label": "*0", "atom_type": "Cd"}, "12": {"label": "*1", "atom_type": "N3s"}, "19": {"label": "*2", "atom_type": "H0"}}

>  <type>  (7) 
unop_3

>  <geom_source>  (7) 
Heuristics

$$$$

     RDKit          3D

 22 20  0  0  0  0  0  0  0  0999 V2000
   -0.6964   -1.7393   -0.0273 C   0  0  0  0  0  3  0  0  0  0  0  0
   -0.6563   -1.3213   -1.3776 O   0  0  0  0  0  0  0  0  0  0  0  0
   -0.9862   -2.3733   -2.1981 N   0  0  0  0  0  0  0  0  0  0  0  0
   -0.9641   -2.0476   -3.4188 C   0  0  0  0  0  0  0  0  0  0  0  0
   -1.6984   -2.0761    0.2478 H   0  0  0  0  0  0  0  0  0  0  0  0
    0.0213   -2.5425    0.1545 H   0  0  0  0  0  0  0  0  0  0  0  0
   -1.2129   -2.8222   -4.1319 H   0  0  0  0  0  0  0  0  0  0  0  0
   -0.7101   -1.0440   -3.7532 H   0  0  0  0  0  0  0  0  0  0  0  0
    0.5887    1.2447   -0.8235 C   0  0  0  0  0  0  0  0  0  0  0  0
    0.5887    1.2447    0.6785 C   0  0  0  0  0  0  0  0  0  0  0  0
    0.5887    2.3513    1.3812 C   0  0  0  0  0  0  0  0  0  0  0  0
    0.6619    3.4651    2.0513 C   0  0  0  0  0  0  0  0  0  0  0  0
    0.6346   -0.0320    1.2552 N   0  0  0  0  0  0  0  0  0  0  0  0
    0.4050   -0.1634    2.6323 N   0  0  0  0  0  0  0  0  0  0  0  0
    1.4775    0.7331   -1.1987 H   0  0  0  0  0  0  0  0  0  0  0  0
   -0.2899    0.7195   -1.2089 H   0  0  0  0  0  0  0  0  0  0  0  0
    0.5766    2.2613   -1.2087 H   0  0  0  0  0  0  0  0  0  0  0  0
    1.6179    3.9045    2.3232 H   0  0  0  0  0  0  0  0  0  0  0  0
   -0.2275    4.0052    2.3627 H   0  0  0  0  0  0  0  0  0  0  0  0
   -0.0054   -0.8529    0.6385 H   0  0  0  0  0  0  0  0  0  0  0  0
   -0.2817    0.5235    2.9373 H   0  0  0  0  0  0  0  0  0  0  0  0
    1.2687    0.0427    3.1173 H   0  0  0  0  0  0  0  0  0  0  0  0
  1  2  1  0
  1  5  1  0
  1  6  1  0
  2  3  1  0
  3  4  2  3
  4  7  1  0
  4  8  1  0
  9 10  1  0
  9 15  1  0
  9 16  1  0
  9 17  1  0
 10 11  2  0
 10 13  1  0
 11 12  2  0
 12 18  1  0
 12 19  1  0
 13 14  1  0
 13 20  1  0
 14 21  1  0
 14 22  1  0
M  RAD  1   1   2
M  END
>  <reaction>  (8) 
rmg_rxn_15667

>  <mol_properties>  (8) 
{"0": {"label": "*3", "atom_type": "Cs"}, "1": {"label": "*4", "atom_type": "O2s"}, "9": {"label": "*0", "atom_type": "Cd"}, "12": {"label": "*1", "atom_type": "N3s"}, "19": {"label": "*2", "atom_type": "H0"}}

>  <type>  (8) 
unop_4

>  <geom_source>  (8) 
Heuristics

$$$$

     RDKit          3D

 22 20  0  0  0  0  0  0  0  0999 V2000
   -1.8539    1.2148    0.2993 C   0  0  0  0  0  0  0  0  0  0  0  0
   -2.5103    0.0899   -0.2592 O   0  0  0  0  0  0  0  0  0  0  0  0
   -2.2236   -1.1549    0.1632 N   0  0  0  0  0  0  0  0  0  0  0  0
   -1.3686   -1.4025    1.0566 C   0  0  0  0  0  0  0  0  0  0  0  0
   -2.3736    2.0768   -0.1074 H   0  0  0  0  0  0  0  0  0  0  0  0
   -1.8862    1.2155    1.3901 H   0  0  0  0  0  0  0  0  0  0  0  0
   -1.2428   -2.4421    1.3046 H   0  0  0  0  0  0  0  0  0  0  0  0
   -0.7512   -0.6832    1.5889 H   0  0  0  0  0  0  0  0  0  0  0  0
    1.7053    1.5741    1.2447 C   0  0  0  0  0  0  0  0  0  0  0  0
    1.4324    0.5853    0.1430 C   0  0  0  0  0  0  0  0  0  0  0  0
    2.0777   -0.5741    0.0802 C   0  0  0  0  0  0  0  0  0  0  0  0
    2.7505   -1.6675   -0.0690 C   0  0  0  0  0  0  0  0  0  0  0  0
    0.4719    0.9745   -0.7412 N   0  0  0  0  0  2  0  0  0  0  0  0
    0.2471    0.1560   -1.8062 N   0  0  0  0  0  0  0  0  0  0  0  0
    2.5207    1.2249    1.8717 H   0  0  0  0  0  0  0  0  0  0  0  0
    1.9686    2.5360    0.8113 H   0  0  0  0  0  0  0  0  0  0  0  0
    0.8168    1.7148    1.8591 H   0  0  0  0  0  0  0  0  0  0  0  0
    3.6579   -1.7136   -0.6570 H   0  0  0  0  0  0  0  0  0  0  0  0
    2.4552   -2.5939    0.4054 H   0  0  0  0  0  0  0  0  0  0  0  0
   -0.6640    1.2293   -0.1253 H   0  0  0  0  0  0  0  0  0  0  0  0
    0.3361   -0.8451   -1.6351 H   0  0  0  0  0  0  0  0  0  0  0  0
   -0.6062    0.4090   -2.2869 H   0  0  0  0  0  0  0  0  0  0  0  0
  1  2  1  0
  1  5  1  0
  1  6  1  0
  1 20  1  0
  2  3  1  0
  3  4  2  3
  4  7  1  0
  4  8  1  0
  9 10  1  0
  9 15  1  0
  9 16  1  0
  9 17  1  0
 10 11  2  0
 10 13  1  0
 11 12  2  0
 12 18  1  0
 12 19  1  0
 13 14  1  0
 14 21  1  0
 14 22  1  0
M  RAD  1  13   2
M  END
>  <reaction>  (9) 
rmg_rxn_15667

>  <mol_properties>  (9) 
{"0": {"label": "*3", "atom_type": "Cs"}, "1": {"label": "*4", "atom_type": "O2s"}, "9": {"label": "*0", "atom_type": "Cd"}, "12": {"label": "*1", "atom_type": "N3s"}, "19": {"label": "*2", "atom_type": "H0"}}

>  <type>  (9) 
unop_5

>  <geom_source>  (9) 
Heuristics

$$$$

     RDKit          3D

 22 20  0  0  0  0  0  0  0  0999 V2000
   -0.8215   -1.0891   -0.7884 C   0  0  0  0  0  3  0  0  0  0  0  0
   -0.1677   -2.3246   -0.5743 O   0  0  0  0  0  0  0  0  0  0  0  0
   -1.0674   -3.3544   -0.7112 N   0  0  0  0  0  0  0  0  0  0  0  0
   -0.5282   -4.4825   -0.5283 C   0  0  0  0  0  0  0  0  0  0  0  0
   -1.2379   -1.0370   -1.7969 H   0  0  0  0  0  0  0  0  0  0  0  0
   -1.6178   -0.9365   -0.0564 H   0  0  0  0  0  0  0  0  0  0  0  0
   -1.1714   -5.3476   -0.6188 H   0  0  0  0  0  0  0  0  0  0  0  0
    0.5274   -4.5961   -0.2913 H   0  0  0  0  0  0  0  0  0  0  0  0
    0.4637    1.8949   -1.5846 C   0  0  0  0  0  0  0  0  0  0  0  0
    0.4637    1.8949   -0.0825 C   0  0  0  0  0  0  0  0  0  0  0  0
    0.4637    3.0015    0.6201 C   0  0  0  0  0  0  0  0  0  0  0  0
    0.5369    4.1154    1.2902 C   0  0  0  0  0  0  0  0  0  0  0  0
    0.5096    0.6183    0.4942 N   0  0  0  0  0  0  0  0  0  0  0  0
    0.2800    0.4868    1.8713 N   0  0  0  0  0  0  0  0  0  0  0  0
    1.3525    1.3833   -1.9597 H   0  0  0  0  0  0  0  0  0  0  0  0
   -0.4149    1.3697   -1.9699 H   0  0  0  0  0  0  0  0  0  0  0  0
    0.4516    2.9115   -1.9697 H   0  0  0  0  0  0  0  0  0  0  0  0
    1.4929    4.5547    1.5622 H   0  0  0  0  0  0  0  0  0  0  0  0
   -0.3526    4.6554    1.6016 H   0  0  0  0  0  0  0  0  0  0  0  0
   -0.1304   -0.2027   -0.1225 H   0  0  0  0  0  0  0  0  0  0  0  0
   -0.4067    1.1737    2.1763 H   0  0  0  0  0  0  0  0  0  0  0  0
    1.1436    0.6929    2.3563 H   0  0  0  0  0  0  0  0  0  0  0  0
  1  2  1  0
  1  5  1  0
  1  6  1  0
  2  3  1  0
  3  4  2  3
  4  7  1  0
  4  8  1  0
  9 10  1  0
  9 15  1  0
  9 16  1  0
  9 17  1  0
 10 11  2  0
 10 13  1  0
 11 12  2  0
 12 18  1  0
 12 19  1  0
 13 14  1  0
 13 20  1  0
 14 21  1  0
 14 22  1  0
M  RAD  1   1   2
M  END
>  <reaction>  (10) 
rmg_rxn_15667

>  <mol_properties>  (10) 
{"0": {"label": "*3", "atom_type": "Cs"}, "1": {"label": "*4", "atom_type": "O2s"}, "9": {"label": "*0", "atom_type": "Cd"}, "12": {"label": "*1", "atom_type": "N3s"}, "19": {"label": "*2", "atom_type": "H0"}}

>  <type>  (10) 
unop_6

>  <geom_source>  (10) 
Heuristics

$$$$

     RDKit          3D

 22 20  0  0  0  0  0  0  0  0999 V2000
   -0.0411   -1.7593   -0.7309 C   0  0  0  0  0  3  0  0  0  0  0  0
   -1.3732   -1.2848   -0.7323 O   0  0  0  0  0  0  0  0  0  0  0  0
   -2.2437   -2.3482   -0.7347 N   0  0  0  0  0  0  0  0  0  0  0  0
   -3.4504   -1.9733   -0.7361 C   0  0  0  0  0  0  0  0  0  0  0  0
    0.1597   -2.3573    0.1609 H   0  0  0  0  0  0  0  0  0  0  0  0
    0.1623   -2.3554   -1.6233 H   0  0  0  0  0  0  0  0  0  0  0  0
   -4.2003   -2.7529   -0.7380 H   0  0  0  0  0  0  0  0  0  0  0  0
   -3.7382   -0.9241   -0.7354 H   0  0  0  0  0  0  0  0  0  0  0  0
    1.2440    1.2247   -1.5271 C   0  0  0  0  0  0  0  0  0  0  0  0
    1.2440    1.2247   -0.0250 C   0  0  0  0  0  0  0  0  0  0  0  0
    1.2440    2.3313    0.6776 C   0  0  0  0  0  0  0  0  0  0  0  0
    1.3172    3.4451    1.3477 C   0  0  0  0  0  0  0  0  0  0  0  0
    1.2900   -0.0520    0.5517 N   0  0  0  0  0  0  0  0  0  0  0  0
    1.0603   -0.1834    1.9288 N   0  0  0  0  0  0  0  0  0  0  0  0
    2.1328    0.7131   -1.9022 H   0  0  0  0  0  0  0  0  0  0  0  0
    0.3654    0.6995   -1.9124 H   0  0  0  0  0  0  0  0  0  0  0  0
    1.2320    2.2413   -1.9122 H   0  0  0  0  0  0  0  0  0  0  0  0
    2.2732    3.8845    1.6197 H   0  0  0  0  0  0  0  0  0  0  0  0
    0.4278    3.9852    1.6591 H   0  0  0  0  0  0  0  0  0  0  0  0
    0.6499   -0.8729   -0.0650 H   0  0  0  0  0  0  0  0  0  0  0  0
    0.3736    0.5035    2.2338 H   0  0  0  0  0  0  0  0  0  0  0  0
    1.9240    0.0227    2.4138 H   0  0  0  0  0  0  0  0  0  0  0  0
  1  2  1  0
  1  5  1  0
  1  6  1  0
  2  3  1  0
  3  4  2  3
  4  7  1  0
  4  8  1  0
  9 10  1  0
  9 15  1  0
  9 16  1  0
  9 17  1  0
 10 11  2  0
 10 13  1  0
 11 12  2  0
 12 18  1  0
 12 19  1  0
 13 14  1  0
 13 20  1  0
 14 21  1  0
 14 22  1  0
M  RAD  1   1   2
M  END
>  <reaction>  (11) 
rmg_rxn_15667

>  <mol_properties>  (11) 
{"0": {"label": "*3", "atom_type": "Cs"}, "1": {"label": "*4", "atom_type": "O2s"}, "9": {"label": "*0", "atom_type": "Cd"}, "12": {"label": "*1", "atom_type": "N3s"}, "19": {"label": "*2", "atom_type": "H0"}}

>  <type>  (11) 
unop_7

>  <geom_source>  (11) 
Heuristics

$$$$

     RDKit          3D

 22 20  0  0  0  0  0  0  0  0999 V2000
    1.8282   -1.4038   -0.0554 C   0  0  0  0  0  0  0  0  0  0  0  0
    2.0782   -0.1652    0.5802 O   0  0  0  0  0  0  0  0  0  0  0  0
    1.6809    0.8873   -0.2168 N   0  0  0  0  0  0  0  0  0  0  0  0
    1.8541    2.0422    0.2557 C   0  0  0  0  0  0  0  0  0  0  0  0
    2.4326   -1.5218   -0.9566 H   0  0  0  0  0  0  0  0  0  0  0  0
    2.0519   -2.1709    0.6785 H   0  0  0  0  0  0  0  0  0  0  0  0
    1.5484    2.8673   -0.3635 H   0  0  0  0  0  0  0  0  0  0  0  0
    2.2863    2.2474    1.2305 H   0  0  0  0  0  0  0  0  0  0  0  0
   -1.2297   -1.3477    1.5824 C   0  0  0  0  0  0  0  0  0  0  0  0
   -1.2656   -0.5594    0.3014 C   0  0  0  0  0  0  0  0  0  0  0  0
   -1.8585    0.6274    0.2414 C   0  0  0  0  0  0  0  0  0  0  0  0
   -2.5196    1.7324    0.1282 C   0  0  0  0  0  0  0  0  0  0  0  0
   -0.6201   -1.1438   -0.7456 N   0  0  0  0  0  2  0  0  0  0  0  0
   -0.6356   -0.4537   -1.9228 N   0  0  0  0  0  0  0  0  0  0  0  0
   -1.4095   -2.3980    1.3679 H   0  0  0  0  0  0  0  0  0  0  0  0
   -0.2491   -1.2535    2.0474 H   0  0  0  0  0  0  0  0  0  0  0  0
   -1.9823   -0.9811    2.2745 H   0  0  0  0  0  0  0  0  0  0  0  0
   -3.5574    1.7600   -0.1786 H   0  0  0  0  0  0  0  0  0  0  0  0
   -2.0749    2.6926    0.3539 H   0  0  0  0  0  0  0  0  0  0  0  0
    0.6076   -1.4371   -0.3794 H   0  0  0  0  0  0  0  0  0  0  0  0
   -0.5236    0.5558   -1.8385 H   0  0  0  0  0  0  0  0  0  0  0  0
   -0.0002   -0.8701   -2.5902 H   0  0  0  0  0  0  0  0  0  0  0  0
  1  2  1  0
  1  5  1  0
  1  6  1  0
  1 20  1  0
  2  3  1  0
  3  4  2  3
  4  7  1  0
  4  8  1  0
  9 10  1  0
  9 15  1  0
  9 16  1  0
  9 17  1  0
 10 11  2  0
 10 13  1  0
 11 12  2  0
 12 18  1  0
 12 19  1  0
 13 14  1  0
 14 21  1  0
 14 22  1  0
M  RAD  1  13   2
M  END
>  <reaction>  (12) 
rmg_rxn_15667

>  <mol_properties>  (12) 
{"0": {"label": "*3", "atom_type": "Cs"}, "1": {"label": "*4", "atom_type": "O2s"}, "9": {"label": "*0", "atom_type": "Cd"}, "12": {"label": "*1", "atom_type": "N3s"}, "19": {"label": "*2", "atom_type": "H0"}}

>  <type>  (12) 
unop_8

>  <geom_source>  (12) 
Heuristics

$$$$

     RDKit          3D

 22 20  0  0  0  0  0  0  0  0999 V2000
   -0.6638   -1.1041   -0.8806 C   0  0  0  0  0  3  0  0  0  0  0  0
   -0.5123   -2.3189   -0.1728 O   0  0  0  0  0  0  0  0  0  0  0  0
   -1.2128   -3.3158   -0.8086 N   0  0  0  0  0  0  0  0  0  0  0  0
   -1.1075   -4.4244   -0.2114 C   0  0  0  0  0  0  0  0  0  0  0  0
   -0.2718   -1.1922   -1.8963 H   0  0  0  0  0  0  0  0  0  0  0  0
   -1.7130   -0.8027   -0.9192 H   0  0  0  0  0  0  0  0  0  0  0  0
   -1.6315   -5.2631   -0.6499 H   0  0  0  0  0  0  0  0  0  0  0  0
   -0.5238   -4.5469    0.6985 H   0  0  0  0  0  0  0  0  0  0  0  0
    0.6213    1.8799   -1.6768 C   0  0  0  0  0  0  0  0  0  0  0  0
    0.6213    1.8799   -0.1747 C   0  0  0  0  0  0  0  0  0  0  0  0
    0.6213    2.9865    0.5279 C   0  0  0  0  0  0  0  0  0  0  0  0
    0.6945    4.1004    1.1980 C   0  0  0  0  0  0  0  0  0  0  0  0
    0.6673    0.6033    0.4020 N   0  0  0  0  0  0  0  0  0  0  0  0
    0.4376    0.4718    1.7791 N   0  0  0  0  0  0  0  0  0  0  0  0
    1.5101    1.3683   -2.0519 H   0  0  0  0  0  0  0  0  0  0  0  0
   -0.2573    1.3547   -2.0621 H   0  0  0  0  0  0  0  0  0  0  0  0
    0.6093    2.8965   -2.0619 H   0  0  0  0  0  0  0  0  0  0  0  0
    1.6505    4.5397    1.4700 H   0  0  0  0  0  0  0  0  0  0  0  0
   -0.1949    4.6404    1.5094 H   0  0  0  0  0  0  0  0  0  0  0  0
    0.0272   -0.2177   -0.2147 H   0  0  0  0  0  0  0  0  0  0  0  0
   -0.2491    1.1587    2.0841 H   0  0  0  0  0  0  0  0  0  0  0  0
    1.3013    0.6779    2.2641 H   0  0  0  0  0  0  0  0  0  0  0  0
  1  2  1  0
  1  5  1  0
  1  6  1  0
  2  3  1  0
  3  4  2  3
  4  7  1  0
  4  8  1  0
  9 10  1  0
  9 15  1  0
  9 16  1  0
  9 17  1  0
 10 11  2  0
 10 13  1  0
 11 12  2  0
 12 18  1  0
 12 19  1  0
 13 14  1  0
 13 20  1  0
 14 21  1  0
 14 22  1  0
M  RAD  1   1   2
M  END
>  <reaction>  (13) 
rmg_rxn_15667

>  <mol_properties>  (13) 
{"0": {"label": "*3", "atom_type": "Cs"}, "1": {"label": "*4", "atom_type": "O2s"}, "9": {"label": "*0", "atom_type": "Cd"}, "12": {"label": "*1", "atom_type": "N3s"}, "19": {"label": "*2", "atom_type": "H0"}}

>  <type>  (13) 
unop_9

>  <geom_source>  (13) 
Heuristics

$$$$

     RDKit          3D

 22 20  0  0  0  0  0  0  0  0999 V2000
    1.8535    1.2149    0.2986 C   0  0  0  0  0  0  0  0  0  0  0  0
    2.5106    0.0904   -0.2597 O   0  0  0  0  0  0  0  0  0  0  0  0
    2.2251   -1.1545    0.1633 N   0  0  0  0  0  0  0  0  0  0  0  0
    1.3704   -1.4026    1.0568 C   0  0  0  0  0  0  0  0  0  0  0  0
    1.8857    1.2158    1.3894 H   0  0  0  0  0  0  0  0  0  0  0  0
    2.3728    2.0772   -0.1081 H   0  0  0  0  0  0  0  0  0  0  0  0
    1.2459   -2.4421    1.3055 H   0  0  0  0  0  0  0  0  0  0  0  0
    0.7523   -0.6836    1.5889 H   0  0  0  0  0  0  0  0  0  0  0  0
   -1.7043    1.5744    1.2448 C   0  0  0  0  0  0  0  0  0  0  0  0
   -1.4326    0.5853    0.1430 C   0  0  0  0  0  0  0  0  0  0  0  0
   -2.0785   -0.5739    0.0810 C   0  0  0  0  0  0  0  0  0  0  0  0
   -2.7525   -1.6666   -0.0682 C   0  0  0  0  0  0  0  0  0  0  0  0
   -0.4724    0.9738   -0.7417 N   0  0  0  0  0  2  0  0  0  0  0  0
   -0.2480    0.1546   -1.8063 N   0  0  0  0  0  0  0  0  0  0  0  0
   -2.5222    1.2278    1.8698 H   0  0  0  0  0  0  0  0  0  0  0  0
   -1.9629    2.5376    0.8114 H   0  0  0  0  0  0  0  0  0  0  0  0
   -0.8166    1.7113    1.8612 H   0  0  0  0  0  0  0  0  0  0  0  0
   -2.4580   -2.5933    0.4060 H   0  0  0  0  0  0  0  0  0  0  0  0
   -3.6601   -1.7117   -0.6560 H   0  0  0  0  0  0  0  0  0  0  0  0
    0.6636    1.2288   -0.1261 H   0  0  0  0  0  0  0  0  0  0  0  0
   -0.3372   -0.8464   -1.6347 H   0  0  0  0  0  0  0  0  0  0  0  0
    0.6052    0.4071   -2.2874 H   0  0  0  0  0  0  0  0  0  0  0  0
  1  2  1  0
  1  5  1  0
  1  6  1  0
  1 20  1  0
  2  3  1  0
  3  4  2  3
  4  7  1  0
  4  8  1  0
  9 10  1  0
  9 15  1  0
  9 16  1  0
  9 17  1  0
 10 11  2  0
 10 13  1  0
 11 12  2  0
 12 18  1  0
 12 19  1  0
 13 14  1  0
 14 21  1  0
 14 22  1  0
M  RAD  1  13   2
M  END
>  <reaction>  (14) 
rmg_rxn_15667

>  <mol_properties>  (14) 
{"0": {"label": "*3", "atom_type": "Cs"}, "1": {"label": "*4", "atom_type": "O2s"}, "9": {"label": "*0", "atom_type": "Cd"}, "12": {"label": "*1", "atom_type": "N3s"}, "19": {"label": "*2", "atom_type": "H0"}}

>  <type>  (14) 
unop_10

>  <geom_source>  (14) 
Heuristics

$$$$

     RDKit          3D

 22 20  0  0  0  0  0  0  0  0999 V2000
   -0.1274   -1.5424   -0.9637 C   0  0  0  0  0  3  0  0  0  0  0  0
   -1.4296   -1.5054   -0.4137 O   0  0  0  0  0  0  0  0  0  0  0  0
   -1.9403   -2.7795   -0.3463 N   0  0  0  0  0  0  0  0  0  0  0  0
   -3.1064   -2.7979    0.1402 C   0  0  0  0  0  0  0  0  0  0  0  0
    0.5431   -2.1385   -0.3406 H   0  0  0  0  0  0  0  0  0  0  0  0
   -0.1427   -1.9501   -1.9770 H   0  0  0  0  0  0  0  0  0  0  0  0
   -3.5802   -3.7665    0.2273 H   0  0  0  0  0  0  0  0  0  0  0  0
   -3.6222   -1.8952    0.4603 H   0  0  0  0  0  0  0  0  0  0  0  0
    1.1577    1.4416   -1.7599 C   0  0  0  0  0  0  0  0  0  0  0  0
    1.1577    1.4416   -0.2578 C   0  0  0  0  0  0  0  0  0  0  0  0
    1.1577    2.5482    0.4448 C   0  0  0  0  0  0  0  0  0  0  0  0
    1.2309    3.6620    1.1149 C   0  0  0  0  0  0  0  0  0  0  0  0
    1.2036    0.1649    0.3189 N   0  0  0  0  0  0  0  0  0  0  0  0
    0.9740    0.0335    1.6959 N   0  0  0  0  0  0  0  0  0  0  0  0
    2.0465    0.9300   -2.1350 H   0  0  0  0  0  0  0  0  0  0  0  0
    0.2791    0.9164   -2.1452 H   0  0  0  0  0  0  0  0  0  0  0  0
    1.1456    2.4582   -2.1450 H   0  0  0  0  0  0  0  0  0  0  0  0
    2.1869    4.1014    1.3869 H   0  0  0  0  0  0  0  0  0  0  0  0
    0.3415    4.2020    1.4263 H   0  0  0  0  0  0  0  0  0  0  0  0
    0.5636   -0.6560   -0.2978 H   0  0  0  0  0  0  0  0  0  0  0  0
    0.2873    0.7204    2.0010 H   0  0  0  0  0  0  0  0  0  0  0  0
    1.8377    0.2396    2.1810 H   0  0  0  0  0  0  0  0  0  0  0  0
  1  2  1  0
  1  5  1  0
  1  6  1  0
  2  3  1  0
  3  4  2  3
  4  7  1  0
  4  8  1  0
  9 10  1  0
  9 15  1  0
  9 16  1  0
  9 17  1  0
 10 11  2  0
 10 13  1  0
 11 12  2  0
 12 18  1  0
 12 19  1  0
 13 14  1  0
 13 20  1  0
 14 21  1  0
 14 22  1  0
M  RAD  1   1   2
M  END
>  <reaction>  (15) 
rmg_rxn_15667

>  <mol_properties>  (15) 
{"0": {"label": "*3", "atom_type": "Cs"}, "1": {"label": "*4", "atom_type": "O2s"}, "9": {"label": "*0", "atom_type": "Cd"}, "12": {"label": "*1", "atom_type": "N3s"}, "19": {"label": "*2", "atom_type": "H0"}}

>  <type>  (15) 
unop_11

>  <geom_source>  (15) 
Heuristics

$$$$

     RDKit          3D

 22 20  0  0  0  0  0  0  0  0999 V2000
   -1.8248    1.4068   -0.0568 C   0  0  0  0  0  0  0  0  0  0  0  0
   -2.0780    0.1701    0.5814 O   0  0  0  0  0  0  0  0  0  0  0  0
   -1.6868   -0.8851   -0.2149 N   0  0  0  0  0  0  0  0  0  0  0  0
   -1.8644   -2.0386    0.2594 C   0  0  0  0  0  0  0  0  0  0  0  0
   -2.4306    1.5256   -0.9569 H   0  0  0  0  0  0  0  0  0  0  0  0
   -2.0440    2.1759    0.6764 H   0  0  0  0  0  0  0  0  0  0  0  0
   -1.5635   -2.8659   -0.3593 H   0  0  0  0  0  0  0  0  0  0  0  0
   -2.2959   -2.2408    1.2352 H   0  0  0  0  0  0  0  0  0  0  0  0
    1.2335    1.3528    1.5767 C   0  0  0  0  0  0  0  0  0  0  0  0
    1.2681    0.5587    0.2992 C   0  0  0  0  0  0  0  0  0  0  0  0
    1.8603   -0.6288    0.2439 C   0  0  0  0  0  0  0  0  0  0  0  0
    2.5220   -1.7336    0.1340 C   0  0  0  0  0  0  0  0  0  0  0  0
    0.6219    1.1387   -0.7499 N   0  0  0  0  0  2  0  0  0  0  0  0
    0.6359    0.4433   -1.9240 N   0  0  0  0  0  0  0  0  0  0  0  0
    0.2535    1.2601    2.0433 H   0  0  0  0  0  0  0  0  0  0  0  0
    1.9871    0.9896    2.2695 H   0  0  0  0  0  0  0  0  0  0  0  0
    1.4126    2.4021    1.3572 H   0  0  0  0  0  0  0  0  0  0  0  0
    3.5596   -1.7615   -0.1733 H   0  0  0  0  0  0  0  0  0  0  0  0
    2.0783   -2.6933    0.3635 H   0  0  0  0  0  0  0  0  0  0  0  0
   -0.6047    1.4355   -0.3834 H   0  0  0  0  0  0  0  0  0  0  0  0
    0.5226   -0.5658   -1.8351 H   0  0  0  0  0  0  0  0  0  0  0  0
    0.0007    0.8574   -2.5930 H   0  0  0  0  0  0  0  0  0  0  0  0
  1  2  1  0
  1  5  1  0
  1  6  1  0
  1 20  1  0
  2  3  1  0
  3  4  2  3
  4  7  1  0
  4  8  1  0
  9 10  1  0
  9 15  1  0
  9 16  1  0
  9 17  1  0
 10 11  2  0
 10 13  1  0
 11 12  2  0
 12 18  1  0
 12 19  1  0
 13 14  1  0
 14 21  1  0
 14 22  1  0
M  RAD  1  13   2
M  END
>  <reaction>  (16) 
rmg_rxn_15667

>  <mol_properties>  (16) 
{"0": {"label": "*3", "atom_type": "Cs"}, "1": {"label": "*4", "atom_type": "O2s"}, "9": {"label": "*0", "atom_type": "Cd"}, "12": {"label": "*1", "atom_type": "N3s"}, "19": {"label": "*2", "atom_type": "H0"}}

>  <type>  (16) 
unop_12

>  <geom_source>  (16) 
Heuristics

$$$$

     RDKit          3D

 22 20  0  0  0  0  0  0  0  0999 V2000
   -0.3231   -1.3224   -1.0490 C   0  0  0  0  0  3  0  0  0  0  0  0
   -1.3009   -1.8025   -0.1473 O   0  0  0  0  0  0  0  0  0  0  0  0
   -1.4869   -3.1504   -0.3405 N   0  0  0  0  0  0  0  0  0  0  0  0
   -2.3546   -3.6267    0.4451 C   0  0  0  0  0  0  0  0  0  0  0  0
    0.6361   -1.8187   -0.8858 H   0  0  0  0  0  0  0  0  0  0  0  0
   -0.6395   -1.4709   -2.0839 H   0  0  0  0  0  0  0  0  0  0  0  0
   -2.5599   -4.6851    0.3565 H   0  0  0  0  0  0  0  0  0  0  0  0
   -2.8780   -3.0177    1.1791 H   0  0  0  0  0  0  0  0  0  0  0  0
    0.9620    1.6616   -1.8452 C   0  0  0  0  0  0  0  0  0  0  0  0
    0.9620    1.6616   -0.3432 C   0  0  0  0  0  0  0  0  0  0  0  0
    0.9620    2.7683    0.3595 C   0  0  0  0  0  0  0  0  0  0  0  0
    1.0352    3.8821    1.0296 C   0  0  0  0  0  0  0  0  0  0  0  0
    1.0079    0.3850    0.2335 N   0  0  0  0  0  0  0  0  0  0  0  0
    0.7783    0.2536    1.6106 N   0  0  0  0  0  0  0  0  0  0  0  0
    1.8508    1.1501   -2.2204 H   0  0  0  0  0  0  0  0  0  0  0  0
    0.0834    1.1365   -2.2306 H   0  0  0  0  0  0  0  0  0  0  0  0
    0.9499    2.6782   -2.2304 H   0  0  0  0  0  0  0  0  0  0  0  0
    1.9912    4.3215    1.3015 H   0  0  0  0  0  0  0  0  0  0  0  0
    0.1458    4.4221    1.3410 H   0  0  0  0  0  0  0  0  0  0  0  0
    0.3679   -0.4360   -0.3832 H   0  0  0  0  0  0  0  0  0  0  0  0
    0.0916    0.9404    1.9156 H   0  0  0  0  0  0  0  0  0  0  0  0
    1.6420    0.4597    2.0956 H   0  0  0  0  0  0  0  0  0  0  0  0
  1  2  1  0
  1  5  1  0
  1  6  1  0
  2  3  1  0
  3  4  2  3
  4  7  1  0
  4  8  1  0
  9 10  1  0
  9 15  1  0
  9 16  1  0
  9 17  1  0
 10 11  2  0
 10 13  1  0
 11 12  2  0
 12 18  1  0
 12 19  1  0
 13 14  1  0
 13 20  1  0
 14 21  1  0
 14 22  1  0
M  RAD  1   1   2
M  END
>  <reaction>  (17) 
rmg_rxn_15667

>  <mol_properties>  (17) 
{"0": {"label": "*3", "atom_type": "Cs"}, "1": {"label": "*4", "atom_type": "O2s"}, "9": {"label": "*0", "atom_type": "Cd"}, "12": {"label": "*1", "atom_type": "N3s"}, "19": {"label": "*2", "atom_type": "H0"}}

>  <type>  (17) 
unop_13

>  <geom_source>  (17) 
Heuristics

$$$$

     RDKit          3D

 22 20  0  0  0  0  0  0  0  0999 V2000
   -1.8533   -1.2161    0.2949 C   0  0  0  0  0  0  0  0  0  0  0  0
   -2.5138   -0.0918   -0.2600 O   0  0  0  0  0  0  0  0  0  0  0  0
   -2.2309    1.1526    0.1658 N   0  0  0  0  0  0  0  0  0  0  0  0
   -1.3756    1.4006    1.0588 C   0  0  0  0  0  0  0  0  0  0  0  0
   -1.8853   -1.2201    1.3857 H   0  0  0  0  0  0  0  0  0  0  0  0
   -2.3703   -2.0787   -0.1140 H   0  0  0  0  0  0  0  0  0  0  0  0
   -1.2531    2.4398    1.3098 H   0  0  0  0  0  0  0  0  0  0  0  0
   -0.7550    0.6817    1.5881 H   0  0  0  0  0  0  0  0  0  0  0  0
    1.7029   -1.5790    1.2398 C   0  0  0  0  0  0  0  0  0  0  0  0
    1.4338   -0.5855    0.1414 C   0  0  0  0  0  0  0  0  0  0  0  0
    2.0837    0.5717    0.0828 C   0  0  0  0  0  0  0  0  0  0  0  0
    2.7614    1.6627   -0.0618 C   0  0  0  0  0  0  0  0  0  0  0  0
    0.4724   -0.9682   -0.7445 N   0  0  0  0  0  2  0  0  0  0  0  0
    0.2489   -0.1437   -1.8053 N   0  0  0  0  0  0  0  0  0  0  0  0
    1.9531   -2.5430    0.8032 H   0  0  0  0  0  0  0  0  0  0  0  0
    2.5256   -1.2395    1.8625 H   0  0  0  0  0  0  0  0  0  0  0  0
    0.8167   -1.7111    1.8596 H   0  0  0  0  0  0  0  0  0  0  0  0
    2.4699    2.5885    0.4160 H   0  0  0  0  0  0  0  0  0  0  0  0
    3.6692    1.7071   -0.6493 H   0  0  0  0  0  0  0  0  0  0  0  0
   -0.6635   -1.2259   -0.1299 H   0  0  0  0  0  0  0  0  0  0  0  0
    0.3397    0.8563   -1.6291 H   0  0  0  0  0  0  0  0  0  0  0  0
   -0.6048   -0.3929   -2.2873 H   0  0  0  0  0  0  0  0  0  0  0  0
  1  2  1  0
  1  5  1  0
  1  6  1  0
  1 20  1  0
  2  3  1  0
  3  4  2  3
  4  7  1  0
  4  8  1  0
  9 10  1  0
  9 15  1  0
  9 16  1  0
  9 17  1  0
 10 11  2  0
 10 13  1  0
 11 12  2  0
 12 18  1  0
 12 19  1  0
 13 14  1  0
 14 21  1  0
 14 22  1  0
M  RAD  1  13   2
M  END
>  <reaction>  (18) 
rmg_rxn_15667

>  <mol_properties>  (18) 
{"0": {"label": "*3", "atom_type": "Cs"}, "1": {"label": "*4", "atom_type": "O2s"}, "9": {"label": "*0", "atom_type": "Cd"}, "12": {"label": "*1", "atom_type": "N3s"}, "19": {"label": "*2", "atom_type": "H0"}}

>  <type>  (18) 
unop_14

>  <geom_source>  (18) 
Heuristics

$$$$

     RDKit          3D

 22 20  0  0  0  0  0  0  0  0999 V2000
   -1.0554   -1.2916   -0.3345 C   0  0  0  0  0  3  0  0  0  0  0  0
   -0.1588   -1.8489   -1.2753 O   0  0  0  0  0  0  0  0  0  0  0  0
   -0.3930   -3.1978   -1.3955 N   0  0  0  0  0  0  0  0  0  0  0  0
    0.3865   -3.7420   -2.2280 C   0  0  0  0  0  0  0  0  0  0  0  0
   -2.0910   -1.4235   -0.6560 H   0  0  0  0  0  0  0  0  0  0  0  0
   -0.9188   -1.7434    0.6506 H   0  0  0  0  0  0  0  0  0  0  0  0
    0.2663   -4.8062   -2.3807 H   0  0  0  0  0  0  0  0  0  0  0  0
    1.1454   -3.1838   -2.7721 H   0  0  0  0  0  0  0  0  0  0  0  0
    0.2297    1.6924   -1.1307 C   0  0  0  0  0  0  0  0  0  0  0  0
    0.2297    1.6924    0.3714 C   0  0  0  0  0  0  0  0  0  0  0  0
    0.2297    2.7990    1.0740 C   0  0  0  0  0  0  0  0  0  0  0  0
    0.3029    3.9129    1.7441 C   0  0  0  0  0  0  0  0  0  0  0  0
    0.2756    0.4158    0.9481 N   0  0  0  0  0  0  0  0  0  0  0  0
    0.0460    0.2843    2.3251 N   0  0  0  0  0  0  0  0  0  0  0  0
    1.1185    1.1808   -1.5058 H   0  0  0  0  0  0  0  0  0  0  0  0
   -0.6489    1.1672   -1.5160 H   0  0  0  0  0  0  0  0  0  0  0  0
    0.2176    2.7090   -1.5158 H   0  0  0  0  0  0  0  0  0  0  0  0
    1.2589    4.3522    2.0161 H   0  0  0  0  0  0  0  0  0  0  0  0
   -0.5865    4.4529    2.0555 H   0  0  0  0  0  0  0  0  0  0  0  0
   -0.3644   -0.4052    0.3314 H   0  0  0  0  0  0  0  0  0  0  0  0
   -0.6407    0.9712    2.6302 H   0  0  0  0  0  0  0  0  0  0  0  0
    0.9096    0.4904    2.8102 H   0  0  0  0  0  0  0  0  0  0  0  0
  1  2  1  0
  1  5  1  0
  1  6  1  0
  2  3  1  0
  3  4  2  3
  4  7  1  0
  4  8  1  0
  9 10  1  0
  9 15  1  0
  9 16  1  0
  9 17  1  0
 10 11  2  0
 10 13  1  0
 11 12  2  0
 12 18  1  0
 12 19  1  0
 13 14  1  0
 13 20  1  0
 14 21  1  0
 14 22  1  0
M  RAD  1   1   2
M  END
>  <reaction>  (19) 
rmg_rxn_15667

>  <mol_properties>  (19) 
{"0": {"label": "*3", "atom_type": "Cs"}, "1": {"label": "*4", "atom_type": "O2s"}, "9": {"label": "*0", "atom_type": "Cd"}, "12": {"label": "*1", "atom_type": "N3s"}, "19": {"label": "*2", "atom_type": "H0"}}

>  <type>  (19) 
unop_15

>  <geom_source>  (19) 
Heuristics

$$$$

     RDKit          3D

 22 20  0  0  0  0  0  0  0  0999 V2000
   -1.8275   -1.4042    0.0529 C   0  0  0  0  0  0  0  0  0  0  0  0
   -2.0753   -0.1649   -0.5825 O   0  0  0  0  0  0  0  0  0  0  0  0
   -1.6806    0.8867    0.2169 N   0  0  0  0  0  0  0  0  0  0  0  0
   -1.8514    2.0421   -0.2553 C   0  0  0  0  0  0  0  0  0  0  0  0
   -2.4347   -1.5229    0.9522 H   0  0  0  0  0  0  0  0  0  0  0  0
   -2.0490   -2.1706   -0.6824 H   0  0  0  0  0  0  0  0  0  0  0  0
   -1.5477    2.8665    0.3659 H   0  0  0  0  0  0  0  0  0  0  0  0
   -2.2796    2.2485   -1.2316 H   0  0  0  0  0  0  0  0  0  0  0  0
    1.2311   -1.3505   -1.5795 C   0  0  0  0  0  0  0  0  0  0  0  0
    1.2650   -0.5599   -0.2998 C   0  0  0  0  0  0  0  0  0  0  0  0
    1.8565    0.6278   -0.2417 C   0  0  0  0  0  0  0  0  0  0  0  0
    2.5161    1.7339   -0.1311 C   0  0  0  0  0  0  0  0  0  0  0  0
    0.6193   -1.1434    0.7477 N   0  0  0  0  0  2  0  0  0  0  0  0
    0.6339   -0.4520    1.9241 N   0  0  0  0  0  0  0  0  0  0  0  0
    1.9812   -0.9815   -2.2730 H   0  0  0  0  0  0  0  0  0  0  0  0
    1.4159   -2.3996   -1.3636 H   0  0  0  0  0  0  0  0  0  0  0  0
    0.2496   -1.2613   -2.0434 H   0  0  0  0  0  0  0  0  0  0  0  0
    3.5538    1.7636    0.1756 H   0  0  0  0  0  0  0  0  0  0  0  0
    2.0701    2.6929   -0.3589 H   0  0  0  0  0  0  0  0  0  0  0  0
   -0.6078   -1.4376    0.3803 H   0  0  0  0  0  0  0  0  0  0  0  0
    0.5213    0.5575    1.8386 H   0  0  0  0  0  0  0  0  0  0  0  0
   -0.0015   -0.8680    2.5918 H   0  0  0  0  0  0  0  0  0  0  0  0
  1  2  1  0
  1  5  1  0
  1  6  1  0
  1 20  1  0
  2  3  1  0
  3  4  2  3
  4  7  1  0
  4  8  1  0
  9 10  1  0
  9 15  1  0
  9 16  1  0
  9 17  1  0
 10 11  2  0
 10 13  1  0
 11 12  2  0
 12 18  1  0
 12 19  1  0
 13 14  1  0
 14 21  1  0
 14 22  1  0
M  RAD  1  13   2
M  END
>  <reaction>  (20) 
rmg_rxn_15667

>  <mol_properties>  (20) 
{"0": {"label": "*3", "atom_type": "Cs"}, "1": {"label": "*4", "atom_type": "O2s"}, "9": {"label": "*0", "atom_type": "Cd"}, "12": {"label": "*1", "atom_type": "N3s"}, "19": {"label": "*2", "atom_type": "H0"}}

>  <type>  (20) 
unop_16

>  <geom_source>  (20) 
Heuristics

$$$$

     RDKit          3D

 22 20  0  0  0  0  0  0  0  0999 V2000
   -0.1230   -1.8943   -0.4161 C   0  0  0  0  0  3  0  0  0  0  0  0
   -1.1824   -1.1791   -1.0210 O   0  0  0  0  0  0  0  0  0  0  0  0
   -2.1788   -2.0509   -1.3895 N   0  0  0  0  0  0  0  0  0  0  0  0
   -3.1506   -1.4566   -1.9364 C   0  0  0  0  0  0  0  0  0  0  0  0
   -0.4643   -2.4112    0.4837 H   0  0  0  0  0  0  0  0  0  0  0  0
    0.3071   -2.6182   -1.1119 H   0  0  0  0  0  0  0  0  0  0  0  0
   -3.9787   -2.0746   -2.2566 H   0  0  0  0  0  0  0  0  0  0  0  0
   -3.1698   -0.3791   -2.0855 H   0  0  0  0  0  0  0  0  0  0  0  0
    1.1621    1.0897   -1.2123 C   0  0  0  0  0  0  0  0  0  0  0  0
    1.1621    1.0897    0.2898 C   0  0  0  0  0  0  0  0  0  0  0  0
    1.1621    2.1963    0.9924 C   0  0  0  0  0  0  0  0  0  0  0  0
    1.2353    3.3102    1.6625 C   0  0  0  0  0  0  0  0  0  0  0  0
    1.2080   -0.1869    0.8665 N   0  0  0  0  0  0  0  0  0  0  0  0
    0.9784   -0.3184    2.2435 N   0  0  0  0  0  0  0  0  0  0  0  0
    2.0509    0.5781   -1.5874 H   0  0  0  0  0  0  0  0  0  0  0  0
    0.2835    0.5645   -1.5976 H   0  0  0  0  0  0  0  0  0  0  0  0
    1.1500    2.1063   -1.5974 H   0  0  0  0  0  0  0  0  0  0  0  0
    2.1913    3.7495    1.9345 H   0  0  0  0  0  0  0  0  0  0  0  0
    0.3459    3.8502    1.9739 H   0  0  0  0  0  0  0  0  0  0  0  0
    0.5680   -1.0079    0.2498 H   0  0  0  0  0  0  0  0  0  0  0  0
    0.2917    0.3685    2.5486 H   0  0  0  0  0  0  0  0  0  0  0  0
    1.8420   -0.1123    2.7286 H   0  0  0  0  0  0  0  0  0  0  0  0
  1  2  1  0
  1  5  1  0
  1  6  1  0
  2  3  1  0
  3  4  2  3
  4  7  1  0
  4  8  1  0
  9 10  1  0
  9 15  1  0
  9 16  1  0
  9 17  1  0
 10 11  2  0
 10 13  1  0
 11 12  2  0
 12 18  1  0
 12 19  1  0
 13 14  1  0
 13 20  1  0
 14 21  1  0
 14 22  1  0
M  RAD  1   1   2
M  END
>  <reaction>  (21) 
rmg_rxn_15667

>  <mol_properties>  (21) 
{"0": {"label": "*3", "atom_type": "Cs"}, "1": {"label": "*4", "atom_type": "O2s"}, "9": {"label": "*0", "atom_type": "Cd"}, "12": {"label": "*1", "atom_type": "N3s"}, "19": {"label": "*2", "atom_type": "H0"}}

>  <type>  (21) 
unop_17

>  <geom_source>  (21) 
Heuristics

$$$$

     RDKit          3D

 22 20  0  0  0  0  0  0  0  0999 V2000
   -0.9523   -1.5130   -0.1131 C   0  0  0  0  0  3  0  0  0  0  0  0
   -0.3801   -1.5532   -1.4056 O   0  0  0  0  0  0  0  0  0  0  0  0
   -0.4920   -2.8217   -1.9224 N   0  0  0  0  0  0  0  0  0  0  0  0
    0.0070   -2.9078   -3.0802 C   0  0  0  0  0  0  0  0  0  0  0  0
   -2.0141   -1.7672   -0.1478 H   0  0  0  0  0  0  0  0  0  0  0  0
   -0.4354   -2.1964    0.5644 H   0  0  0  0  0  0  0  0  0  0  0  0
   -0.0411   -3.8772   -3.5580 H   0  0  0  0  0  0  0  0  0  0  0  0
    0.4653   -2.0603   -3.5854 H   0  0  0  0  0  0  0  0  0  0  0  0
    0.3329    1.4710   -0.9093 C   0  0  0  0  0  0  0  0  0  0  0  0
    0.3329    1.4710    0.5928 C   0  0  0  0  0  0  0  0  0  0  0  0
    0.3329    2.5776    1.2954 C   0  0  0  0  0  0  0  0  0  0  0  0
    0.4060    3.6914    1.9655 C   0  0  0  0  0  0  0  0  0  0  0  0
    0.3788    0.1943    1.1695 N   0  0  0  0  0  0  0  0  0  0  0  0
    0.1491    0.0629    2.5465 N   0  0  0  0  0  0  0  0  0  0  0  0
    1.2216    0.9594   -1.2844 H   0  0  0  0  0  0  0  0  0  0  0  0
   -0.5458    0.9458   -1.2946 H   0  0  0  0  0  0  0  0  0  0  0  0
    0.3208    2.4876   -1.2944 H   0  0  0  0  0  0  0  0  0  0  0  0
    1.3621    4.1308    2.2375 H   0  0  0  0  0  0  0  0  0  0  0  0
   -0.4834    4.2315    2.2769 H   0  0  0  0  0  0  0  0  0  0  0  0
   -0.2612   -0.6266    0.5528 H   0  0  0  0  0  0  0  0  0  0  0  0
   -0.5376    0.7498    2.8516 H   0  0  0  0  0  0  0  0  0  0  0  0
    1.0128    0.2690    3.0316 H   0  0  0  0  0  0  0  0  0  0  0  0
  1  2  1  0
  1  5  1  0
  1  6  1  0
  2  3  1  0
  3  4  2  3
  4  7  1  0
  4  8  1  0
  9 10  1  0
  9 15  1  0
  9 16  1  0
  9 17  1  0
 10 11  2  0
 10 13  1  0
 11 12  2  0
 12 18  1  0
 12 19  1  0
 13 14  1  0
 13 20  1  0
 14 21  1  0
 14 22  1  0
M  RAD  1   1   2
M  END
>  <reaction>  (22) 
rmg_rxn_15667

>  <mol_properties>  (22) 
{"0": {"label": "*3", "atom_type": "Cs"}, "1": {"label": "*4", "atom_type": "O2s"}, "9": {"label": "*0", "atom_type": "Cd"}, "12": {"label": "*1", "atom_type": "N3s"}, "19": {"label": "*2", "atom_type": "H0"}}

>  <type>  (22) 
unop_18

>  <geom_source>  (22) 
Heuristics

$$$$

     RDKit          3D

 22 20  0  0  0  0  0  0  0  0999 V2000
   -0.5289   -1.1682   -0.9867 C   0  0  0  0  0  3  0  0  0  0  0  0
   -0.9745   -2.1065   -0.0273 O   0  0  0  0  0  0  0  0  0  0  0  0
   -1.1846   -3.3228   -0.6317 N   0  0  0  0  0  0  0  0  0  0  0  0
   -1.5851   -4.1969    0.1882 C   0  0  0  0  0  0  0  0  0  0  0  0
    0.4153   -1.4860   -1.4348 H   0  0  0  0  0  0  0  0  0  0  0  0
   -1.2758   -1.0268   -1.7712 H   0  0  0  0  0  0  0  0  0  0  0  0
   -1.7741   -5.1847   -0.2101 H   0  0  0  0  0  0  0  0  0  0  0  0
   -1.7373   -3.9840    1.2441 H   0  0  0  0  0  0  0  0  0  0  0  0
    0.7563    1.8158   -1.7829 C   0  0  0  0  0  0  0  0  0  0  0  0
    0.7563    1.8158   -0.2809 C   0  0  0  0  0  0  0  0  0  0  0  0
    0.7563    2.9225    0.4218 C   0  0  0  0  0  0  0  0  0  0  0  0
    0.8294    4.0363    1.0919 C   0  0  0  0  0  0  0  0  0  0  0  0
    0.8022    0.5392    0.2958 N   0  0  0  0  0  0  0  0  0  0  0  0
    0.5725    0.4078    1.6729 N   0  0  0  0  0  0  0  0  0  0  0  0
    1.6450    1.3042   -2.1581 H   0  0  0  0  0  0  0  0  0  0  0  0
   -0.1224    1.2906   -2.1683 H   0  0  0  0  0  0  0  0  0  0  0  0
    0.7442    2.8324   -2.1681 H   0  0  0  0  0  0  0  0  0  0  0  0
    1.7855    4.4756    1.3638 H   0  0  0  0  0  0  0  0  0  0  0  0
   -0.0600    4.5763    1.4033 H   0  0  0  0  0  0  0  0  0  0  0  0
    0.1622   -0.2818   -0.3209 H   0  0  0  0  0  0  0  0  0  0  0  0
   -0.1142    1.0946    1.9779 H   0  0  0  0  0  0  0  0  0  0  0  0
    1.4362    0.6139    2.1579 H   0  0  0  0  0  0  0  0  0  0  0  0
  1  2  1  0
  1  5  1  0
  1  6  1  0
  2  3  1  0
  3  4  2  3
  4  7  1  0
  4  8  1  0
  9 10  1  0
  9 15  1  0
  9 16  1  0
  9 17  1  0
 10 11  2  0
 10 13  1  0
 11 12  2  0
 12 18  1  0
 12 19  1  0
 13 14  1  0
 13 20  1  0
 14 21  1  0
 14 22  1  0
M  RAD  1   1   2
M  END
>  <reaction>  (23) 
rmg_rxn_15667

>  <mol_properties>  (23) 
{"0": {"label": "*3", "atom_type": "Cs"}, "1": {"label": "*4", "atom_type": "O2s"}, "9": {"label": "*0", "atom_type": "Cd"}, "12": {"label": "*1", "atom_type": "N3s"}, "19": {"label": "*2", "atom_type": "H0"}}

>  <type>  (23) 
unop_19

>  <geom_source>  (23) 
Heuristics

$$$$

     RDKit          3D

 22 20  0  0  0  0  0  0  0  0999 V2000
   -0.3729   -1.8878   -0.1392 C   0  0  0  0  0  3  0  0  0  0  0  0
   -0.9300   -1.1933   -1.2377 O   0  0  0  0  0  0  0  0  0  0  0  0
   -1.6800   -2.0569   -1.9995 N   0  0  0  0  0  0  0  0  0  0  0  0
   -2.2001   -1.4805   -2.9965 C   0  0  0  0  0  0  0  0  0  0  0  0
   -1.1566   -2.3020    0.4993 H   0  0  0  0  0  0  0  0  0  0  0  0
    0.2847   -2.6916   -0.4779 H   0  0  0  0  0  0  0  0  0  0  0  0
   -2.8079   -2.0935   -3.6484 H   0  0  0  0  0  0  0  0  0  0  0  0
   -2.0545   -0.4224   -3.2036 H   0  0  0  0  0  0  0  0  0  0  0  0
    0.9122    1.0962   -0.9354 C   0  0  0  0  0  0  0  0  0  0  0  0
    0.9122    1.0962    0.5667 C   0  0  0  0  0  0  0  0  0  0  0  0
    0.9122    2.2028    1.2693 C   0  0  0  0  0  0  0  0  0  0  0  0
    0.9854    3.3167    1.9394 C   0  0  0  0  0  0  0  0  0  0  0  0
    0.9581   -0.1804    1.1434 N   0  0  0  0  0  0  0  0  0  0  0  0
    0.7285   -0.3119    2.5205 N   0  0  0  0  0  0  0  0  0  0  0  0
    1.8010    0.5846   -1.3105 H   0  0  0  0  0  0  0  0  0  0  0  0
    0.0336    0.5710   -1.3207 H   0  0  0  0  0  0  0  0  0  0  0  0
    0.9001    2.1128   -1.3205 H   0  0  0  0  0  0  0  0  0  0  0  0
    1.9414    3.7560    2.2114 H   0  0  0  0  0  0  0  0  0  0  0  0
    0.0959    3.8567    2.2508 H   0  0  0  0  0  0  0  0  0  0  0  0
    0.3181   -1.0014    0.5267 H   0  0  0  0  0  0  0  0  0  0  0  0
    0.0418    0.3750    2.8255 H   0  0  0  0  0  0  0  0  0  0  0  0
    1.5921   -0.1058    3.0055 H   0  0  0  0  0  0  0  0  0  0  0  0
  1  2  1  0
  1  5  1  0
  1  6  1  0
  2  3  1  0
  3  4  2  3
  4  7  1  0
  4  8  1  0
  9 10  1  0
  9 15  1  0
  9 16  1  0
  9 17  1  0
 10 11  2  0
 10 13  1  0
 11 12  2  0
 12 18  1  0
 12 19  1  0
 13 14  1  0
 13 20  1  0
 14 21  1  0
 14 22  1  0
M  RAD  1   1   2
M  END
>  <reaction>  (24) 
rmg_rxn_15667

>  <mol_properties>  (24) 
{"0": {"label": "*3", "atom_type": "Cs"}, "1": {"label": "*4", "atom_type": "O2s"}, "9": {"label": "*0", "atom_type": "Cd"}, "12": {"label": "*1", "atom_type": "N3s"}, "19": {"label": "*2", "atom_type": "H0"}}

>  <type>  (24) 
unop_20

>  <geom_source>  (24) 
Heuristics

$$$$

     RDKit          3D

 22 20  0  0  0  0  0  0  0  0999 V2000
   -0.6964   -1.7393   -0.0273 C   0  0  0  0  0  3  0  0  0  0  0  0
   -0.6563   -1.3213   -1.3776 O   0  0  0  0  0  0  0  0  0  0  0  0
   -0.9862   -2.3733   -2.1981 N   0  0  0  0  0  0  0  0  0  0  0  0
   -0.9641   -2.0476   -3.4188 C   0  0  0  0  0  0  0  0  0  0  0  0
   -1.6984   -2.0761    0.2478 H   0  0  0  0  0  0  0  0  0  0  0  0
    0.0213   -2.5425    0.1545 H   0  0  0  0  0  0  0  0  0  0  0  0
   -1.2129   -2.8222   -4.1319 H   0  0  0  0  0  0  0  0  0  0  0  0
   -0.7101   -1.0440   -3.7532 H   0  0  0  0  0  0  0  0  0  0  0  0
    0.5887    1.2447   -0.8235 C   0  0  0  0  0  0  0  0  0  0  0  0
    0.5887    1.2447    0.6785 C   0  0  0  0  0  0  0  0  0  0  0  0
    0.5887    2.3513    1.3812 C   0  0  0  0  0  0  0  0  0  0  0  0
    0.6619    3.4651    2.0513 C   0  0  0  0  0  0  0  0  0  0  0  0
    0.6346   -0.0319    1.2552 N   0  0  0  0  0  0  0  0  0  0  0  0
    0.4050   -0.1634    2.6323 N   0  0  0  0  0  0  0  0  0  0  0  0
    1.4775    0.7331   -1.1987 H   0  0  0  0  0  0  0  0  0  0  0  0
   -0.2899    0.7195   -1.2089 H   0  0  0  0  0  0  0  0  0  0  0  0
    0.5766    2.2613   -1.2087 H   0  0  0  0  0  0  0  0  0  0  0  0
    1.6179    3.9045    2.3232 H   0  0  0  0  0  0  0  0  0  0  0  0
   -0.2275    4.0052    2.3627 H   0  0  0  0  0  0  0  0  0  0  0  0
   -0.0054   -0.8529    0.6385 H   0  0  0  0  0  0  0  0  0  0  0  0
   -0.2817    0.5235    2.9373 H   0  0  0  0  0  0  0  0  0  0  0  0
    1.2687    0.0427    3.1173 H   0  0  0  0  0  0  0  0  0  0  0  0
  1  2  1  0
  1  5  1  0
  1  6  1  0
  2  3  1  0
  3  4  2  3
  4  7  1  0
  4  8  1  0
  9 10  1  0
  9 15  1  0
  9 16  1  0
  9 17  1  0
 10 11  2  0
 10 13  1  0
 11 12  2  0
 12 18  1  0
 12 19  1  0
 13 14  1  0
 13 20  1  0
 14 21  1  0
 14 22  1  0
M  RAD  1   1   2
M  END
>  <reaction>  (25) 
rmg_rxn_15667

>  <mol_properties>  (25) 
{"0": {"label": "*3", "atom_type": "Cs"}, "1": {"label": "*4", "atom_type": "O2s"}, "9": {"label": "*0", "atom_type": "Cd"}, "12": {"label": "*1", "atom_type": "N3s"}, "19": {"label": "*2", "atom_type": "H0"}}

>  <type>  (25) 
unop_21

>  <geom_source>  (25) 
gaussian_log

$$$$
