
     RDKit          3D

 18 17  0  0  0  0  0  0  0  0999 V2000
    2.2026   -0.7213   -0.2612 C   0  0  0  0  0  0  0  0  0  0  0  0
    1.5384    0.2638    0.6915 C   0  0  0  0  0  0  0  0  0  0  0  0
    2.2584    1.5946    0.7694 C   0  0  0  0  0  0  0  0  0  0  0  0
    2.2212    2.2185   -0.4893 O   0  0  0  0  0  0  0  0  0  0  0  0
    2.8988    3.4488   -0.5204 C   0  0  0  0  0  0  0  0  0  0  0  0
    2.7981    4.0296   -1.9118 C   0  0  0  0  0  0  0  0  0  0  0  0
    3.2294   -0.9309    0.0486 H   0  0  0  0  0  0  0  0  0  0  0  0
    2.2338   -0.3181   -1.2734 H   0  0  0  0  0  0  0  0  0  0  0  0
    1.6610   -1.6680   -0.2875 H   0  0  0  0  0  0  0  0  0  0  0  0
    1.4990   -0.1566    1.7002 H   0  0  0  0  0  0  0  0  0  0  0  0
    0.5055    0.4455    0.3835 H   0  0  0  0  0  0  0  0  0  0  0  0
    3.3038    1.4410    1.0808 H   0  0  0  0  0  0  0  0  0  0  0  0
    1.7844    2.2410    1.5226 H   0  0  0  0  0  0  0  0  0  0  0  0
    2.4596    4.1376    0.2164 H   0  0  0  0  0  0  0  0  0  0  0  0
    3.9524    3.3035   -0.2397 H   0  0  0  0  0  0  0  0  0  0  0  0
    1.7543    4.1869   -2.1856 H   0  0  0  0  0  0  0  0  0  0  0  0
    3.2472    3.3545   -2.6411 H   0  0  0  0  0  0  0  0  0  0  0  0
    3.3178    4.9878   -1.9600 H   0  0  0  0  0  0  0  0  0  0  0  0
  1  2  1  0
  1  7  1  0
  1  8  1  0
  1  9  1  0
  2  3  1  0
  2 10  1  0
  2 11  1  0
  3  4  1  0
  3 12  1  0
  3 13  1  0
  4  5  1  0
  5  6  1  0
  5 14  1  0
  5 15  1  0
  6 16  1  0
  6 17  1  0
  6 18  1  0
M  END
>  <reaction>  (1) 
rmg_rxn_151

>  <mol_properties>  (1) 
{"5": {"label": "donator", "atom_type": "Cs"}, "15": {"label": "d_hydrogen", "atom_type": "H0"}}

>  <type>  (1) 
r1h

$$$$

     RDKit          3D

  9  8  0  0  0  0  0  0  0  0999 V2000
    1.3246   -0.8124   -0.0809 C   0  0  0  0  0  2  0  0  0  0  0  0
    0.4082    0.3080    0.1518 C   0  0  0  0  0  0  0  0  0  0  0  0
   -1.0545   -0.0277   -0.1520 C   0  0  0  0  0  0  0  0  0  0  0  0
    2.3933   -0.9471    0.0203 H   0  0  0  0  0  0  0  0  0  0  0  0
    0.4898    0.6406    1.1970 H   0  0  0  0  0  0  0  0  0  0  0  0
    0.7134    1.1680   -0.4624 H   0  0  0  0  0  0  0  0  0  0  0  0
   -1.4014   -0.8515    0.4727 H   0  0  0  0  0  0  0  0  0  0  0  0
   -1.1767   -0.3214   -1.1952 H   0  0  0  0  0  0  0  0  0  0  0  0
   -1.6915    0.8372    0.0370 H   0  0  0  0  0  0  0  0  0  0  0  0
  1  2  1  0
  1  4  1  0
  2  3  1  0
  2  5  1  0
  2  6  1  0
  3  7  1  0
  3  8  1  0
  3  9  1  0
M  RAD  1   1   3
M  END
>  <reaction>  (2) 
rmg_rxn_151

>  <mol_properties>  (2) 
{"0": {"label": "acceptor", "atom_type": "Cs"}}

>  <type>  (2) 
r2

$$$$

     RDKit          3D

 10  9  0  0  0  0  0  0  0  0999 V2000
    1.4352    0.2660   -0.1351 C   0  0  0  0  0  3  0  0  0  0  0  0
    0.2236   -0.3243    0.4850 C   0  0  0  0  0  0  0  0  0  0  0  0
   -0.8893    0.6872    0.7364 C   0  0  0  0  0  0  0  0  0  0  0  0
    2.3577   -0.2958   -0.1940 H   0  0  0  0  0  0  0  0  0  0  0  0
    1.3935    1.2286   -0.6287 H   0  0  0  0  0  0  0  0  0  0  0  0
   -0.1633   -1.1318   -0.1556 H   0  0  0  0  0  0  0  0  0  0  0  0
    0.4945   -0.8215    1.4240 H   0  0  0  0  0  0  0  0  0  0  0  0
   -1.1991    1.1627   -0.1967 H   0  0  0  0  0  0  0  0  0  0  0  0
   -1.7660    0.2103    1.1768 H   0  0  0  0  0  0  0  0  0  0  0  0
   -0.5545    1.4732    1.4159 H   0  0  0  0  0  0  0  0  0  0  0  0
  1  2  1  0
  1  4  1  0
  1  5  1  0
  2  3  1  0
  2  6  1  0
  2  7  1  0
  3  8  1  0
  3  9  1  0
  3 10  1  0
M  RAD  1   1   2
M  END
>  <reaction>  (3) 
rmg_rxn_151

>  <mol_properties>  (3) 
{"0": {"label": "acceptor", "atom_type": "Cs"}, "9": {"label": "a_hydrogen", "atom_type": "H0"}}

>  <type>  (3) 
r2h

$$$$

     RDKit          3D

 27 25  0  0  0  0  0  0  0  0999 V2000
   -2.2785    1.7595    0.2834 C   0  0  0  0  0  2  0  0  0  0  0  0
   -2.2843    0.4277    0.9256 C   0  0  0  0  0  0  0  0  0  0  0  0
   -2.4359   -0.7221   -0.0813 C   0  0  0  0  0  0  0  0  0  0  0  0
   -3.1489    2.3863    0.1220 H   0  0  0  0  0  0  0  0  0  0  0  0
   -1.3455    0.2807    1.4697 H   0  0  0  0  0  0  0  0  0  0  0  0
   -3.0914    0.3753    1.6651 H   0  0  0  0  0  0  0  0  0  0  0  0
   -1.6039   -0.7116   -0.7858 H   0  0  0  0  0  0  0  0  0  0  0  0
   -3.3675   -0.6316   -0.6424 H   0  0  0  0  0  0  0  0  0  0  0  0
   -2.4400   -1.6862    0.4327 H   0  0  0  0  0  0  0  0  0  0  0  0
    1.3556   -2.3960   -1.0492 C   0  0  0  0  0  0  0  0  0  0  0  0
    1.2183   -1.9324    0.3945 C   0  0  0  0  0  0  0  0  0  0  0  0
    1.6367   -0.4911    0.6019 C   0  0  0  0  0  0  0  0  0  0  0  0
    0.8108    0.3427   -0.1706 O   0  0  0  0  0  0  0  0  0  0  0  0
    1.0457    1.7138    0.0280 C   0  0  0  0  0  0  0  0  0  0  0  0
    0.0516    2.4955   -0.7738 C   0  0  0  0  0  0  0  0  0  0  0  0
    2.3899   -2.3081   -1.3909 H   0  0  0  0  0  0  0  0  0  0  0  0
    0.7331   -1.7928   -1.7102 H   0  0  0  0  0  0  0  0  0  0  0  0
    1.0545   -3.4390   -1.1557 H   0  0  0  0  0  0  0  0  0  0  0  0
    1.8286   -2.5581    1.0514 H   0  0  0  0  0  0  0  0  0  0  0  0
    0.1817   -2.0421    0.7244 H   0  0  0  0  0  0  0  0  0  0  0  0
    2.6898   -0.3512    0.3119 H   0  0  0  0  0  0  0  0  0  0  0  0
    1.5507   -0.2218    1.6649 H   0  0  0  0  0  0  0  0  0  0  0  0
    0.9506    1.9616    1.0962 H   0  0  0  0  0  0  0  0  0  0  0  0
    2.0775    1.9643   -0.2693 H   0  0  0  0  0  0  0  0  0  0  0  0
   -1.1345    2.1662   -0.3038 H   0  0  0  0  0  0  0  0  0  0  0  0
    0.0219    2.2202   -1.8262 H   0  0  0  0  0  0  0  0  0  0  0  0
    0.1225    3.5714   -0.6280 H   0  0  0  0  0  0  0  0  0  0  0  0
  1  2  1  0
  1  4  1  0
  2  3  1  0
  2  5  1  0
  2  6  1  0
  3  7  1  0
  3  8  1  0
  3  9  1  0
 10 11  1  0
 10 16  1  0
 10 17  1  0
 10 18  1  0
 11 12  1  0
 11 19  1  0
 11 20  1  0
 12 13  1  0
 12 21  1  0
 12 22  1  0
 13 14  1  0
 14 15  1  0
 14 23  1  0
 14 24  1  0
 15 25  1  0
 15 26  1  0
 15 27  1  0
M  RAD  1   1   3
M  END
>  <reaction>  (4) 
rmg_rxn_151

>  <mol_properties>  (4) 
{"0": {"label": "*3", "atom_type": "Cs"}, "1": {"label": "*4", "atom_type": "Cs"}, "13": {"label": "*0", "atom_type": "Cs"}, "14": {"label": "*1", "atom_type": "Cs"}, "24": {"label": "*2", "atom_type": "H0"}}

>  <type>  (4) 
ts

$$$$

     RDKit          3D

 27 25  0  0  0  0  0  0  0  0999 V2000
   -2.1345    0.4712    0.5956 C   0  0  0  0  0  3  0  0  0  0  0  0
   -3.1394    1.1086    1.4815 C   0  0  0  0  0  0  0  0  0  0  0  0
   -4.5523    0.5674    1.2922 C   0  0  0  0  0  0  0  0  0  0  0  0
   -2.4401   -0.0781   -0.2857 H   0  0  0  0  0  0  0  0  0  0  0  0
   -2.8338    0.9945    2.5283 H   0  0  0  0  0  0  0  0  0  0  0  0
   -3.1457    2.1961    1.3107 H   0  0  0  0  0  0  0  0  0  0  0  0
   -4.5920   -0.5014    1.5101 H   0  0  0  0  0  0  0  0  0  0  0  0
   -4.8875    0.7106    0.2627 H   0  0  0  0  0  0  0  0  0  0  0  0
   -5.2615    1.0730    1.9490 H   0  0  0  0  0  0  0  0  0  0  0  0
    2.4456   -2.1602   -2.1072 C   0  0  0  0  0  0  0  0  0  0  0  0
    2.4456   -2.1602   -0.5843 C   0  0  0  0  0  0  0  0  0  0  0  0
    2.4456   -0.7672    0.0112 C   0  0  0  0  0  0  0  0  0  0  0  0
    1.2626   -0.1036   -0.3564 O   0  0  0  0  0  0  0  0  0  0  0  0
    1.1919    1.2145    0.1245 C   0  0  0  0  0  0  0  0  0  0  0  0
   -0.1114    1.8323   -0.3263 C   0  0  0  0  0  3  0  0  0  0  0  0
    3.3277   -1.6459   -2.4968 H   0  0  0  0  0  0  0  0  0  0  0  0
    1.5629   -1.6506   -2.4933 H   0  0  0  0  0  0  0  0  0  0  0  0
    2.4511   -3.1781   -2.4999 H   0  0  0  0  0  0  0  0  0  0  0  0
    3.3271   -2.6867   -0.2080 H   0  0  0  0  0  0  0  0  0  0  0  0
    1.5712   -2.6982   -0.2090 H   0  0  0  0  0  0  0  0  0  0  0  0
    3.3198   -0.2021   -0.3492 H   0  0  0  0  0  0  0  0  0  0  0  0
    2.5204   -0.8211    1.1073 H   0  0  0  0  0  0  0  0  0  0  0  0
    1.2592    1.2173    1.2226 H   0  0  0  0  0  0  0  0  0  0  0  0
    2.0448    1.7975   -0.2534 H   0  0  0  0  0  0  0  0  0  0  0  0
   -1.1270    1.1490    0.1365 H   0  0  0  0  0  0  0  0  0  0  0  0
   -0.1722    1.8441   -1.4151 H   0  0  0  0  0  0  0  0  0  0  0  0
   -0.1890    2.8583    0.0368 H   0  0  0  0  0  0  0  0  0  0  0  0
  1  2  1  0
  1  4  1  0
  1 25  1  0
  2  3  1  0
  2  5  1  0
  2  6  1  0
  3  7  1  0
  3  8  1  0
  3  9  1  0
 10 11  1  0
 10 16  1  0
 10 17  1  0
 10 18  1  0
 11 12  1  0
 11 19  1  0
 11 20  1  0
 12 13  1  0
 12 21  1  0
 12 22  1  0
 13 14  1  0
 14 15  1  0
 14 23  1  0
 14 24  1  0
 15 26  1  0
 15 27  1  0
M  RAD  2   1   2  15   2
M  END
>  <reaction>  (5) 
rmg_rxn_151

>  <mol_properties>  (5) 
{"0": {"label": "*3", "atom_type": "Cs"}, "1": {"label": "*4", "atom_type": "Cs"}, "13": {"label": "*0", "atom_type": "Cs"}, "14": {"label": "*1", "atom_type": "Cs"}, "24": {"label": "*2", "atom_type": "H0"}}

>  <type>  (5) 
unop_1

>  <geom_source>  (5) 
Heuristics

$$$$

     RDKit          3D

 27 25  0  0  0  0  0  0  0  0999 V2000
   -2.3934    0.7868    0.4250 C   0  0  0  0  0  3  0  0  0  0  0  0
   -2.2955    0.0576    1.7132 C   0  0  0  0  0  0  0  0  0  0  0  0
   -3.6139   -0.5583    2.1689 C   0  0  0  0  0  0  0  0  0  0  0  0
   -3.3538    1.0997    0.0356 H   0  0  0  0  0  0  0  0  0  0  0  0
   -1.5265   -0.7205    1.6394 H   0  0  0  0  0  0  0  0  0  0  0  0
   -1.9279    0.7385    2.4963 H   0  0  0  0  0  0  0  0  0  0  0  0
   -3.9778   -1.2832    1.4383 H   0  0  0  0  0  0  0  0  0  0  0  0
   -4.3807    0.2104    2.2867 H   0  0  0  0  0  0  0  0  0  0  0  0
   -3.5023   -1.0698    3.1260 H   0  0  0  0  0  0  0  0  0  0  0  0
    2.1867   -1.8447   -2.2778 C   0  0  0  0  0  0  0  0  0  0  0  0
    2.1867   -1.8447   -0.7549 C   0  0  0  0  0  0  0  0  0  0  0  0
    2.1867   -0.4516   -0.1594 C   0  0  0  0  0  0  0  0  0  0  0  0
    1.0037    0.2120   -0.5270 O   0  0  0  0  0  0  0  0  0  0  0  0
    0.9330    1.5300   -0.0461 C   0  0  0  0  0  0  0  0  0  0  0  0
   -0.3703    2.1478   -0.4969 C   0  0  0  0  0  3  0  0  0  0  0  0
    3.0688   -1.3304   -2.6674 H   0  0  0  0  0  0  0  0  0  0  0  0
    1.3040   -1.3350   -2.6639 H   0  0  0  0  0  0  0  0  0  0  0  0
    2.1922   -2.8625   -2.6705 H   0  0  0  0  0  0  0  0  0  0  0  0
    3.0682   -2.3712   -0.3786 H   0  0  0  0  0  0  0  0  0  0  0  0
    1.3123   -2.3827   -0.3796 H   0  0  0  0  0  0  0  0  0  0  0  0
    3.0609    0.1135   -0.5198 H   0  0  0  0  0  0  0  0  0  0  0  0
    2.2615   -0.5055    0.9367 H   0  0  0  0  0  0  0  0  0  0  0  0
    1.0003    1.5329    1.0520 H   0  0  0  0  0  0  0  0  0  0  0  0
    1.7859    2.1130   -0.4240 H   0  0  0  0  0  0  0  0  0  0  0  0
   -1.3860    1.4645   -0.0341 H   0  0  0  0  0  0  0  0  0  0  0  0
   -0.4311    2.1597   -1.5858 H   0  0  0  0  0  0  0  0  0  0  0  0
   -0.4479    3.1738   -0.1339 H   0  0  0  0  0  0  0  0  0  0  0  0
  1  2  1  0
  1  4  1  0
  1 25  1  0
  2  3  1  0
  2  5  1  0
  2  6  1  0
  3  7  1  0
  3  8  1  0
  3  9  1  0
 10 11  1  0
 10 16  1  0
 10 17  1  0
 10 18  1  0
 11 12  1  0
 11 19  1  0
 11 20  1  0
 12 13  1  0
 12 21  1  0
 12 22  1  0
 13 14  1  0
 14 15  1  0
 14 23  1  0
 14 24  1  0
 15 26  1  0
 15 27  1  0
M  RAD  2   1   2  15   2
M  END
>  <reaction>  (6) 
rmg_rxn_151

>  <mol_properties>  (6) 
{"0": {"label": "*3", "atom_type": "Cs"}, "1": {"label": "*4", "atom_type": "Cs"}, "13": {"label": "*0", "atom_type": "Cs"}, "14": {"label": "*1", "atom_type": "Cs"}, "24": {"label": "*2", "atom_type": "H0"}}

>  <type>  (6) 
unop_2

>  <geom_source>  (6) 
Heuristics

$$$$

     RDKit          3D

 27 25  0  0  0  0  0  0  0  0999 V2000
   -2.0956    0.5141    0.7138 C   0  0  0  0  0  3  0  0  0  0  0  0
   -3.3889    1.1790    1.0074 C   0  0  0  0  0  0  0  0  0  0  0  0
   -4.5876    0.2386    0.9466 C   0  0  0  0  0  0  0  0  0  0  0  0
   -2.0654   -0.4446    0.2119 H   0  0  0  0  0  0  0  0  0  0  0  0
   -3.3418    1.6595    1.9919 H   0  0  0  0  0  0  0  0  0  0  0  0
   -3.5470    2.0081    0.3007 H   0  0  0  0  0  0  0  0  0  0  0  0
   -4.4886   -0.5659    1.6778 H   0  0  0  0  0  0  0  0  0  0  0  0
   -4.6725   -0.2178   -0.0420 H   0  0  0  0  0  0  0  0  0  0  0  0
   -5.5183    0.7694    1.1518 H   0  0  0  0  0  0  0  0  0  0  0  0
    2.4845   -2.1173   -1.9889 C   0  0  0  0  0  0  0  0  0  0  0  0
    2.4845   -2.1173   -0.4660 C   0  0  0  0  0  0  0  0  0  0  0  0
    2.4845   -0.7243    0.1295 C   0  0  0  0  0  0  0  0  0  0  0  0
    1.3015   -0.0607   -0.2381 O   0  0  0  0  0  0  0  0  0  0  0  0
    1.2308    1.2574    0.2428 C   0  0  0  0  0  0  0  0  0  0  0  0
   -0.0725    1.8752   -0.2080 C   0  0  0  0  0  3  0  0  0  0  0  0
    3.3666   -1.6030   -2.3786 H   0  0  0  0  0  0  0  0  0  0  0  0
    1.6018   -1.6076   -2.3750 H   0  0  0  0  0  0  0  0  0  0  0  0
    2.4900   -3.1352   -2.3816 H   0  0  0  0  0  0  0  0  0  0  0  0
    3.3661   -2.6438   -0.0898 H   0  0  0  0  0  0  0  0  0  0  0  0
    1.6102   -2.6553   -0.0908 H   0  0  0  0  0  0  0  0  0  0  0  0
    3.3587   -0.1592   -0.2309 H   0  0  0  0  0  0  0  0  0  0  0  0
    2.5593   -0.7782    1.2255 H   0  0  0  0  0  0  0  0  0  0  0  0
    1.2981    1.2603    1.3409 H   0  0  0  0  0  0  0  0  0  0  0  0
    2.0837    1.8404   -0.1351 H   0  0  0  0  0  0  0  0  0  0  0  0
   -1.0881    1.1919    0.2548 H   0  0  0  0  0  0  0  0  0  0  0  0
   -0.1333    1.8870   -1.2969 H   0  0  0  0  0  0  0  0  0  0  0  0
   -0.1501    2.9012    0.1550 H   0  0  0  0  0  0  0  0  0  0  0  0
  1  2  1  0
  1  4  1  0
  1 25  1  0
  2  3  1  0
  2  5  1  0
  2  6  1  0
  3  7  1  0
  3  8  1  0
  3  9  1  0
 10 11  1  0
 10 16  1  0
 10 17  1  0
 10 18  1  0
 11 12  1  0
 11 19  1  0
 11 20  1  0
 12 13  1  0
 12 21  1  0
 12 22  1  0
 13 14  1  0
 14 15  1  0
 14 23  1  0
 14 24  1  0
 15 26  1  0
 15 27  1  0
M  RAD  2   1   2  15   2
M  END
>  <reaction>  (7) 
rmg_rxn_151

>  <mol_properties>  (7) 
{"0": {"label": "*3", "atom_type": "Cs"}, "1": {"label": "*4", "atom_type": "Cs"}, "13": {"label": "*0", "atom_type": "Cs"}, "14": {"label": "*1", "atom_type": "Cs"}, "24": {"label": "*2", "atom_type": "H0"}}

>  <type>  (7) 
unop_3

>  <geom_source>  (7) 
Heuristics

$$$$

     RDKit          3D

 27 25  0  0  0  0  0  0  0  0999 V2000
   -2.3182    0.9174    0.8898 C   0  0  0  0  0  3  0  0  0  0  0  0
   -2.4936   -0.5141    0.5417 C   0  0  0  0  0  0  0  0  0  0  0  0
   -3.9276   -0.8838    0.1783 C   0  0  0  0  0  0  0  0  0  0  0  0
   -3.1687    1.5327    1.1542 H   0  0  0  0  0  0  0  0  0  0  0  0
   -1.8203   -0.7786   -0.2823 H   0  0  0  0  0  0  0  0  0  0  0  0
   -2.1632   -1.1422    1.3832 H   0  0  0  0  0  0  0  0  0  0  0  0
   -4.2670   -0.3176   -0.6910 H   0  0  0  0  0  0  0  0  0  0  0  0
   -4.6060   -0.6638    1.0054 H   0  0  0  0  0  0  0  0  0  0  0  0
   -4.0160   -1.9459   -0.0543 H   0  0  0  0  0  0  0  0  0  0  0  0
    2.2619   -1.7141   -1.8130 C   0  0  0  0  0  0  0  0  0  0  0  0
    2.2619   -1.7141   -0.2901 C   0  0  0  0  0  0  0  0  0  0  0  0
    2.2619   -0.3210    0.3054 C   0  0  0  0  0  0  0  0  0  0  0  0
    1.0789    0.3426   -0.0622 O   0  0  0  0  0  0  0  0  0  0  0  0
    1.0082    1.6607    0.4187 C   0  0  0  0  0  0  0  0  0  0  0  0
   -0.2952    2.2784   -0.0321 C   0  0  0  0  0  3  0  0  0  0  0  0
    3.1440   -1.1997   -2.2027 H   0  0  0  0  0  0  0  0  0  0  0  0
    1.3792   -1.2044   -2.1991 H   0  0  0  0  0  0  0  0  0  0  0  0
    2.2674   -2.7319   -2.2057 H   0  0  0  0  0  0  0  0  0  0  0  0
    3.1434   -2.2405    0.0862 H   0  0  0  0  0  0  0  0  0  0  0  0
    1.3875   -2.2520    0.0851 H   0  0  0  0  0  0  0  0  0  0  0  0
    3.1361    0.2441   -0.0550 H   0  0  0  0  0  0  0  0  0  0  0  0
    2.3367   -0.3749    1.4014 H   0  0  0  0  0  0  0  0  0  0  0  0
    1.0754    1.6635    1.5168 H   0  0  0  0  0  0  0  0  0  0  0  0
    1.8610    2.2436    0.0408 H   0  0  0  0  0  0  0  0  0  0  0  0
   -1.3108    1.5951    0.4307 H   0  0  0  0  0  0  0  0  0  0  0  0
   -0.3560    2.2903   -1.1210 H   0  0  0  0  0  0  0  0  0  0  0  0
   -0.3728    3.3045    0.3309 H   0  0  0  0  0  0  0  0  0  0  0  0
  1  2  1  0
  1  4  1  0
  1 25  1  0
  2  3  1  0
  2  5  1  0
  2  6  1  0
  3  7  1  0
  3  8  1  0
  3  9  1  0
 10 11  1  0
 10 16  1  0
 10 17  1  0
 10 18  1  0
 11 12  1  0
 11 19  1  0
 11 20  1  0
 12 13  1  0
 12 21  1  0
 12 22  1  0
 13 14  1  0
 14 15  1  0
 14 23  1  0
 14 24  1  0
 15 26  1  0
 15 27  1  0
M  RAD  2   1   2  15   2
M  END
>  <reaction>  (8) 
rmg_rxn_151

>  <mol_properties>  (8) 
{"0": {"label": "*3", "atom_type": "Cs"}, "1": {"label": "*4", "atom_type": "Cs"}, "13": {"label": "*0", "atom_type": "Cs"}, "14": {"label": "*1", "atom_type": "Cs"}, "24": {"label": "*2", "atom_type": "H0"}}

>  <type>  (8) 
unop_4

>  <geom_source>  (8) 
Heuristics

$$$$

     RDKit          3D

 27 25  0  0  0  0  0  0  0  0999 V2000
   -2.0914    0.5484    0.7399 C   0  0  0  0  0  3  0  0  0  0  0  0
   -3.4847    0.9562    0.4345 C   0  0  0  0  0  0  0  0  0  0  0  0
   -4.5320    0.2293    1.2711 C   0  0  0  0  0  0  0  0  0  0  0  0
   -1.8858   -0.3754    1.2656 H   0  0  0  0  0  0  0  0  0  0  0  0
   -3.5893    2.0398    0.5660 H   0  0  0  0  0  0  0  0  0  0  0  0
   -3.6948    0.7840   -0.6323 H   0  0  0  0  0  0  0  0  0  0  0  0
   -4.3857    0.4263    2.3347 H   0  0  0  0  0  0  0  0  0  0  0  0
   -4.4676   -0.8505    1.1199 H   0  0  0  0  0  0  0  0  0  0  0  0
   -5.5414    0.5455    1.0043 H   0  0  0  0  0  0  0  0  0  0  0  0
    2.4887   -2.0831   -1.9629 C   0  0  0  0  0  0  0  0  0  0  0  0
    2.4887   -2.0831   -0.4400 C   0  0  0  0  0  0  0  0  0  0  0  0
    2.4887   -0.6900    0.1556 C   0  0  0  0  0  0  0  0  0  0  0  0
    1.3057   -0.0264   -0.2120 O   0  0  0  0  0  0  0  0  0  0  0  0
    1.2349    1.2917    0.2689 C   0  0  0  0  0  0  0  0  0  0  0  0
   -0.0684    1.9094   -0.1820 C   0  0  0  0  0  3  0  0  0  0  0  0
    3.3707   -1.5687   -2.3525 H   0  0  0  0  0  0  0  0  0  0  0  0
    1.6059   -1.5734   -2.3489 H   0  0  0  0  0  0  0  0  0  0  0  0
    2.4941   -3.1009   -2.3555 H   0  0  0  0  0  0  0  0  0  0  0  0
    3.3702   -2.6095   -0.0637 H   0  0  0  0  0  0  0  0  0  0  0  0
    1.6143   -2.6210   -0.0647 H   0  0  0  0  0  0  0  0  0  0  0  0
    3.3629   -0.1249   -0.2048 H   0  0  0  0  0  0  0  0  0  0  0  0
    2.5635   -0.7439    1.2516 H   0  0  0  0  0  0  0  0  0  0  0  0
    1.3022    1.2945    1.3669 H   0  0  0  0  0  0  0  0  0  0  0  0
    2.0878    1.8746   -0.1090 H   0  0  0  0  0  0  0  0  0  0  0  0
   -1.0840    1.2262    0.2809 H   0  0  0  0  0  0  0  0  0  0  0  0
   -0.1292    1.9213   -1.2708 H   0  0  0  0  0  0  0  0  0  0  0  0
   -0.1460    2.9355    0.1811 H   0  0  0  0  0  0  0  0  0  0  0  0
  1  2  1  0
  1  4  1  0
  1 25  1  0
  2  3  1  0
  2  5  1  0
  2  6  1  0
  3  7  1  0
  3  8  1  0
  3  9  1  0
 10 11  1  0
 10 16  1  0
 10 17  1  0
 10 18  1  0
 11 12  1  0
 11 19  1  0
 11 20  1  0
 12 13  1  0
 12 21  1  0
 12 22  1  0
 13 14  1  0
 14 15  1  0
 14 23  1  0
 14 24  1  0
 15 26  1  0
 15 27  1  0
M  RAD  2   1   2  15   2
M  END
>  <reaction>  (9) 
rmg_rxn_151

>  <mol_properties>  (9) 
{"0": {"label": "*3", "atom_type": "Cs"}, "1": {"label": "*4", "atom_type": "Cs"}, "13": {"label": "*0", "atom_type": "Cs"}, "14": {"label": "*1", "atom_type": "Cs"}, "24": {"label": "*2", "atom_type": "H0"}}

>  <type>  (9) 
unop_5

>  <geom_source>  (9) 
Heuristics

$$$$

     RDKit          3D

 27 25  0  0  0  0  0  0  0  0999 V2000
   -2.2202    0.7912    0.9693 C   0  0  0  0  0  3  0  0  0  0  0  0
   -2.7951   -0.3356    0.1942 C   0  0  0  0  0  0  0  0  0  0  0  0
   -4.2987   -0.2187   -0.0308 C   0  0  0  0  0  0  0  0  0  0  0  0
   -2.8544    1.4385    1.5615 H   0  0  0  0  0  0  0  0  0  0  0  0
   -2.2796   -0.4214   -0.7698 H   0  0  0  0  0  0  0  0  0  0  0  0
   -2.5819   -1.2850    0.7090 H   0  0  0  0  0  0  0  0  0  0  0  0
   -4.5392    0.6869   -0.5907 H   0  0  0  0  0  0  0  0  0  0  0  0
   -4.8308   -0.1732    0.9219 H   0  0  0  0  0  0  0  0  0  0  0  0
   -4.6833   -1.0735   -0.5890 H   0  0  0  0  0  0  0  0  0  0  0  0
    2.3599   -1.8403   -1.7335 C   0  0  0  0  0  0  0  0  0  0  0  0
    2.3599   -1.8403   -0.2106 C   0  0  0  0  0  0  0  0  0  0  0  0
    2.3599   -0.4472    0.3849 C   0  0  0  0  0  0  0  0  0  0  0  0
    1.1769    0.2164    0.0173 O   0  0  0  0  0  0  0  0  0  0  0  0
    1.1062    1.5345    0.4982 C   0  0  0  0  0  0  0  0  0  0  0  0
   -0.1971    2.1522    0.0474 C   0  0  0  0  0  3  0  0  0  0  0  0
    3.2420   -1.3259   -2.1231 H   0  0  0  0  0  0  0  0  0  0  0  0
    1.4772   -1.3306   -2.1196 H   0  0  0  0  0  0  0  0  0  0  0  0
    2.3654   -2.8581   -2.1262 H   0  0  0  0  0  0  0  0  0  0  0  0
    3.2414   -2.3667    0.1657 H   0  0  0  0  0  0  0  0  0  0  0  0
    1.4855   -2.3782    0.1647 H   0  0  0  0  0  0  0  0  0  0  0  0
    3.2341    0.1179    0.0245 H   0  0  0  0  0  0  0  0  0  0  0  0
    2.4347   -0.5011    1.4810 H   0  0  0  0  0  0  0  0  0  0  0  0
    1.1735    1.5373    1.5963 H   0  0  0  0  0  0  0  0  0  0  0  0
    1.9591    2.1174    0.1203 H   0  0  0  0  0  0  0  0  0  0  0  0
   -1.2127    1.4690    0.5102 H   0  0  0  0  0  0  0  0  0  0  0  0
   -0.2579    2.1641   -1.0414 H   0  0  0  0  0  0  0  0  0  0  0  0
   -0.2747    3.1783    0.4104 H   0  0  0  0  0  0  0  0  0  0  0  0
  1  2  1  0
  1  4  1  0
  1 25  1  0
  2  3  1  0
  2  5  1  0
  2  6  1  0
  3  7  1  0
  3  8  1  0
  3  9  1  0
 10 11  1  0
 10 16  1  0
 10 17  1  0
 10 18  1  0
 11 12  1  0
 11 19  1  0
 11 20  1  0
 12 13  1  0
 12 21  1  0
 12 22  1  0
 13 14  1  0
 14 15  1  0
 14 23  1  0
 14 24  1  0
 15 26  1  0
 15 27  1  0
M  RAD  2   1   2  15   2
M  END
>  <reaction>  (10) 
rmg_rxn_151

>  <mol_properties>  (10) 
{"0": {"label": "*3", "atom_type": "Cs"}, "1": {"label": "*4", "atom_type": "Cs"}, "13": {"label": "*0", "atom_type": "Cs"}, "14": {"label": "*1", "atom_type": "Cs"}, "24": {"label": "*2", "atom_type": "H0"}}

>  <type>  (10) 
unop_6

>  <geom_source>  (10) 
Heuristics

$$$$

     RDKit          3D

 27 25  0  0  0  0  0  0  0  0999 V2000
   -2.1375    0.6400    0.9470 C   0  0  0  0  0  3  0  0  0  0  0  0
   -3.1160    0.0134    0.0246 C   0  0  0  0  0  0  0  0  0  0  0  0
   -4.5544    0.4588    0.2646 C   0  0  0  0  0  0  0  0  0  0  0  0
   -2.4625    1.1053    1.8688 H   0  0  0  0  0  0  0  0  0  0  0  0
   -2.8299    0.2208   -1.0133 H   0  0  0  0  0  0  0  0  0  0  0  0
   -3.0598   -1.0823    0.1149 H   0  0  0  0  0  0  0  0  0  0  0  0
   -4.6562    1.5368    0.1263 H   0  0  0  0  0  0  0  0  0  0  0  0
   -4.8687    0.2221    1.2834 H   0  0  0  0  0  0  0  0  0  0  0  0
   -5.2423   -0.0366   -0.4221 H   0  0  0  0  0  0  0  0  0  0  0  0
    2.4427   -1.9915   -1.7558 C   0  0  0  0  0  0  0  0  0  0  0  0
    2.4427   -1.9915   -0.2329 C   0  0  0  0  0  0  0  0  0  0  0  0
    2.4427   -0.5984    0.3626 C   0  0  0  0  0  0  0  0  0  0  0  0
    1.2597    0.0652   -0.0049 O   0  0  0  0  0  0  0  0  0  0  0  0
    1.1889    1.3833    0.4759 C   0  0  0  0  0  0  0  0  0  0  0  0
   -0.1144    2.0010    0.0251 C   0  0  0  0  0  3  0  0  0  0  0  0
    3.3247   -1.4771   -2.1454 H   0  0  0  0  0  0  0  0  0  0  0  0
    1.5599   -1.4818   -2.1418 H   0  0  0  0  0  0  0  0  0  0  0  0
    2.4481   -3.0093   -2.1484 H   0  0  0  0  0  0  0  0  0  0  0  0
    3.3242   -2.5179    0.1434 H   0  0  0  0  0  0  0  0  0  0  0  0
    1.5683   -2.5294    0.1424 H   0  0  0  0  0  0  0  0  0  0  0  0
    3.3169   -0.0333    0.0023 H   0  0  0  0  0  0  0  0  0  0  0  0
    2.5174   -0.6523    1.4587 H   0  0  0  0  0  0  0  0  0  0  0  0
    1.2562    1.3861    1.5740 H   0  0  0  0  0  0  0  0  0  0  0  0
    2.0418    1.9662    0.0981 H   0  0  0  0  0  0  0  0  0  0  0  0
   -1.1300    1.3178    0.4879 H   0  0  0  0  0  0  0  0  0  0  0  0
   -0.1752    2.0129   -1.0637 H   0  0  0  0  0  0  0  0  0  0  0  0
   -0.1920    3.0271    0.3882 H   0  0  0  0  0  0  0  0  0  0  0  0
  1  2  1  0
  1  4  1  0
  1 25  1  0
  2  3  1  0
  2  5  1  0
  2  6  1  0
  3  7  1  0
  3  8  1  0
  3  9  1  0
 10 11  1  0
 10 16  1  0
 10 17  1  0
 10 18  1  0
 11 12  1  0
 11 19  1  0
 11 20  1  0
 12 13  1  0
 12 21  1  0
 12 22  1  0
 13 14  1  0
 14 15  1  0
 14 23  1  0
 14 24  1  0
 15 26  1  0
 15 27  1  0
M  RAD  2   1   2  15   2
M  END
>  <reaction>  (11) 
rmg_rxn_151

>  <mol_properties>  (11) 
{"0": {"label": "*3", "atom_type": "Cs"}, "1": {"label": "*4", "atom_type": "Cs"}, "13": {"label": "*0", "atom_type": "Cs"}, "14": {"label": "*1", "atom_type": "Cs"}, "24": {"label": "*2", "atom_type": "H0"}}

>  <type>  (11) 
unop_7

>  <geom_source>  (11) 
Heuristics

$$$$

     RDKit          3D

 27 25  0  0  0  0  0  0  0  0999 V2000
   -2.2149    0.5117    0.4661 C   0  0  0  0  0  3  0  0  0  0  0  0
   -2.8202    0.8445    1.7790 C   0  0  0  0  0  0  0  0  0  0  0  0
   -4.3102    0.5313    1.8623 C   0  0  0  0  0  0  0  0  0  0  0  0
   -2.8342    0.3641   -0.4095 H   0  0  0  0  0  0  0  0  0  0  0  0
   -2.2835    0.3177    2.5770 H   0  0  0  0  0  0  0  0  0  0  0  0
   -2.6651    1.9122    1.9975 H   0  0  0  0  0  0  0  0  0  0  0  0
   -4.4934   -0.5334    1.7063 H   0  0  0  0  0  0  0  0  0  0  0  0
   -4.8651    1.0807    1.0987 H   0  0  0  0  0  0  0  0  0  0  0  0
   -4.7188    0.8055    2.8359 H   0  0  0  0  0  0  0  0  0  0  0  0
    2.3652   -2.1197   -2.2367 C   0  0  0  0  0  0  0  0  0  0  0  0
    2.3652   -2.1197   -0.7138 C   0  0  0  0  0  0  0  0  0  0  0  0
    2.3652   -0.7267   -0.1183 C   0  0  0  0  0  0  0  0  0  0  0  0
    1.1822   -0.0631   -0.4859 O   0  0  0  0  0  0  0  0  0  0  0  0
    1.1115    1.2550   -0.0050 C   0  0  0  0  0  0  0  0  0  0  0  0
   -0.1918    1.8728   -0.4558 C   0  0  0  0  0  3  0  0  0  0  0  0
    3.2473   -1.6054   -2.6263 H   0  0  0  0  0  0  0  0  0  0  0  0
    1.4825   -1.6100   -2.6228 H   0  0  0  0  0  0  0  0  0  0  0  0
    2.3707   -3.1376   -2.6294 H   0  0  0  0  0  0  0  0  0  0  0  0
    3.2468   -2.6462   -0.3375 H   0  0  0  0  0  0  0  0  0  0  0  0
    1.4909   -2.6577   -0.3385 H   0  0  0  0  0  0  0  0  0  0  0  0
    3.2394   -0.1616   -0.4787 H   0  0  0  0  0  0  0  0  0  0  0  0
    2.4400   -0.7806    0.9778 H   0  0  0  0  0  0  0  0  0  0  0  0
    1.1788    1.2578    1.0931 H   0  0  0  0  0  0  0  0  0  0  0  0
    1.9644    1.8380   -0.3829 H   0  0  0  0  0  0  0  0  0  0  0  0
   -1.2074    1.1895    0.0070 H   0  0  0  0  0  0  0  0  0  0  0  0
   -0.2526    1.8846   -1.5446 H   0  0  0  0  0  0  0  0  0  0  0  0
   -0.2694    2.8988   -0.0928 H   0  0  0  0  0  0  0  0  0  0  0  0
  1  2  1  0
  1  4  1  0
  1 25  1  0
  2  3  1  0
  2  5  1  0
  2  6  1  0
  3  7  1  0
  3  8  1  0
  3  9  1  0
 10 11  1  0
 10 16  1  0
 10 17  1  0
 10 18  1  0
 11 12  1  0
 11 19  1  0
 11 20  1  0
 12 13  1  0
 12 21  1  0
 12 22  1  0
 13 14  1  0
 14 15  1  0
 14 23  1  0
 14 24  1  0
 15 26  1  0
 15 27  1  0
M  RAD  2   1   2  15   2
M  END
>  <reaction>  (12) 
rmg_rxn_151

>  <mol_properties>  (12) 
{"0": {"label": "*3", "atom_type": "Cs"}, "1": {"label": "*4", "atom_type": "Cs"}, "13": {"label": "*0", "atom_type": "Cs"}, "14": {"label": "*1", "atom_type": "Cs"}, "24": {"label": "*2", "atom_type": "H0"}}

>  <type>  (12) 
unop_8

>  <geom_source>  (12) 
Heuristics

$$$$

     RDKit          3D

 27 25  0  0  0  0  0  0  0  0999 V2000
   -2.3970    0.9685    0.7322 C   0  0  0  0  0  3  0  0  0  0  0  0
   -2.2839   -0.4905    0.9765 C   0  0  0  0  0  0  0  0  0  0  0  0
   -3.6015   -1.2411    0.8170 C   0  0  0  0  0  0  0  0  0  0  0  0
   -3.3604    1.4618    0.7521 H   0  0  0  0  0  0  0  0  0  0  0  0
   -1.5277   -0.9190    0.3081 H   0  0  0  0  0  0  0  0  0  0  0  0
   -1.8910   -0.6662    1.9897 H   0  0  0  0  0  0  0  0  0  0  0  0
   -3.9903   -1.1338   -0.1973 H   0  0  0  0  0  0  0  0  0  0  0  0
   -4.3548   -0.8525    1.5058 H   0  0  0  0  0  0  0  0  0  0  0  0
   -3.4782   -2.3056    1.0210 H   0  0  0  0  0  0  0  0  0  0  0  0
    2.1832   -1.6630   -1.9706 C   0  0  0  0  0  0  0  0  0  0  0  0
    2.1832   -1.6630   -0.4477 C   0  0  0  0  0  0  0  0  0  0  0  0
    2.1832   -0.2699    0.1478 C   0  0  0  0  0  0  0  0  0  0  0  0
    1.0002    0.3937   -0.2198 O   0  0  0  0  0  0  0  0  0  0  0  0
    0.9294    1.7117    0.2611 C   0  0  0  0  0  0  0  0  0  0  0  0
   -0.3739    2.3295   -0.1897 C   0  0  0  0  0  3  0  0  0  0  0  0
    3.0652   -1.1487   -2.3602 H   0  0  0  0  0  0  0  0  0  0  0  0
    1.3004   -1.1533   -2.3567 H   0  0  0  0  0  0  0  0  0  0  0  0
    2.1886   -2.6808   -2.3633 H   0  0  0  0  0  0  0  0  0  0  0  0
    3.0647   -2.1895   -0.0714 H   0  0  0  0  0  0  0  0  0  0  0  0
    1.3088   -2.2010   -0.0724 H   0  0  0  0  0  0  0  0  0  0  0  0
    3.0574    0.2952   -0.2126 H   0  0  0  0  0  0  0  0  0  0  0  0
    2.2580   -0.3238    1.2439 H   0  0  0  0  0  0  0  0  0  0  0  0
    0.9967    1.7146    1.3592 H   0  0  0  0  0  0  0  0  0  0  0  0
    1.7823    2.2947   -0.1167 H   0  0  0  0  0  0  0  0  0  0  0  0
   -1.3895    1.6462    0.2731 H   0  0  0  0  0  0  0  0  0  0  0  0
   -0.4347    2.3414   -1.2785 H   0  0  0  0  0  0  0  0  0  0  0  0
   -0.4515    3.3555    0.1734 H   0  0  0  0  0  0  0  0  0  0  0  0
  1  2  1  0
  1  4  1  0
  1 25  1  0
  2  3  1  0
  2  5  1  0
  2  6  1  0
  3  7  1  0
  3  8  1  0
  3  9  1  0
 10 11  1  0
 10 16  1  0
 10 17  1  0
 10 18  1  0
 11 12  1  0
 11 19  1  0
 11 20  1  0
 12 13  1  0
 12 21  1  0
 12 22  1  0
 13 14  1  0
 14 15  1  0
 14 23  1  0
 14 24  1  0
 15 26  1  0
 15 27  1  0
M  RAD  2   1   2  15   2
M  END
>  <reaction>  (13) 
rmg_rxn_151

>  <mol_properties>  (13) 
{"0": {"label": "*3", "atom_type": "Cs"}, "1": {"label": "*4", "atom_type": "Cs"}, "13": {"label": "*0", "atom_type": "Cs"}, "14": {"label": "*1", "atom_type": "Cs"}, "24": {"label": "*2", "atom_type": "H0"}}

>  <type>  (13) 
unop_9

>  <geom_source>  (13) 
Heuristics

$$$$

     RDKit          3D

 27 25  0  0  0  0  0  0  0  0999 V2000
   -2.3127    0.6302    0.3962 C   0  0  0  0  0  3  0  0  0  0  0  0
   -2.5144    0.4627    1.8564 C   0  0  0  0  0  0  0  0  0  0  0  0
   -3.9447    0.0976    2.2382 C   0  0  0  0  0  0  0  0  0  0  0  0
   -3.1548    0.7820   -0.2669 H   0  0  0  0  0  0  0  0  0  0  0  0
   -1.8212   -0.2952    2.2402 H   0  0  0  0  0  0  0  0  0  0  0  0
   -2.2292    1.3896    2.3775 H   0  0  0  0  0  0  0  0  0  0  0  0
   -4.2397   -0.8492    1.7819 H   0  0  0  0  0  0  0  0  0  0  0  0
   -4.6444    0.8641    1.8981 H   0  0  0  0  0  0  0  0  0  0  0  0
   -4.0536    0.0003    3.3193 H   0  0  0  0  0  0  0  0  0  0  0  0
    2.2675   -2.0013   -2.3066 C   0  0  0  0  0  0  0  0  0  0  0  0
    2.2675   -2.0013   -0.7837 C   0  0  0  0  0  0  0  0  0  0  0  0
    2.2675   -0.6082   -0.1882 C   0  0  0  0  0  0  0  0  0  0  0  0
    1.0845    0.0554   -0.5558 O   0  0  0  0  0  0  0  0  0  0  0  0
    1.0137    1.3735   -0.0749 C   0  0  0  0  0  0  0  0  0  0  0  0
   -0.2896    1.9912   -0.5257 C   0  0  0  0  0  3  0  0  0  0  0  0
    3.1495   -1.4869   -2.6962 H   0  0  0  0  0  0  0  0  0  0  0  0
    1.3847   -1.4916   -2.6927 H   0  0  0  0  0  0  0  0  0  0  0  0
    2.2729   -3.0191   -2.6993 H   0  0  0  0  0  0  0  0  0  0  0  0
    3.1490   -2.5277   -0.4074 H   0  0  0  0  0  0  0  0  0  0  0  0
    1.3931   -2.5392   -0.4084 H   0  0  0  0  0  0  0  0  0  0  0  0
    3.1417   -0.0431   -0.5486 H   0  0  0  0  0  0  0  0  0  0  0  0
    2.3422   -0.6621    0.9079 H   0  0  0  0  0  0  0  0  0  0  0  0
    1.0810    1.3763    1.0232 H   0  0  0  0  0  0  0  0  0  0  0  0
    1.8666    1.9564   -0.4528 H   0  0  0  0  0  0  0  0  0  0  0  0
   -1.3052    1.3079   -0.0629 H   0  0  0  0  0  0  0  0  0  0  0  0
   -0.3504    2.0031   -1.6145 H   0  0  0  0  0  0  0  0  0  0  0  0
   -0.3672    3.0173   -0.1626 H   0  0  0  0  0  0  0  0  0  0  0  0
  1  2  1  0
  1  4  1  0
  1 25  1  0
  2  3  1  0
  2  5  1  0
  2  6  1  0
  3  7  1  0
  3  8  1  0
  3  9  1  0
 10 11  1  0
 10 16  1  0
 10 17  1  0
 10 18  1  0
 11 12  1  0
 11 19  1  0
 11 20  1  0
 12 13  1  0
 12 21  1  0
 12 22  1  0
 13 14  1  0
 14 15  1  0
 14 23  1  0
 14 24  1  0
 15 26  1  0
 15 27  1  0
M  RAD  2   1   2  15   2
M  END
>  <reaction>  (14) 
rmg_rxn_151

>  <mol_properties>  (14) 
{"0": {"label": "*3", "atom_type": "Cs"}, "1": {"label": "*4", "atom_type": "Cs"}, "13": {"label": "*0", "atom_type": "Cs"}, "14": {"label": "*1", "atom_type": "Cs"}, "24": {"label": "*2", "atom_type": "H0"}}

>  <type>  (14) 
unop_10

>  <geom_source>  (14) 
Heuristics

$$$$

     RDKit          3D

 27 25  0  0  0  0  0  0  0  0999 V2000
   -2.0955    0.5342    0.8351 C   0  0  0  0  0  3  0  0  0  0  0  0
   -3.3736    0.4693    0.0846 C   0  0  0  0  0  0  0  0  0  0  0  0
   -4.6019    0.7495    0.9436 C   0  0  0  0  0  0  0  0  0  0  0  0
   -2.0826    0.4750    1.9159 H   0  0  0  0  0  0  0  0  0  0  0  0
   -3.3418    1.1684   -0.7595 H   0  0  0  0  0  0  0  0  0  0  0  0
   -3.4794   -0.5230   -0.3801 H   0  0  0  0  0  0  0  0  0  0  0  0
   -4.5551    1.7513    1.3746 H   0  0  0  0  0  0  0  0  0  0  0  0
   -4.6705    0.0351    1.7667 H   0  0  0  0  0  0  0  0  0  0  0  0
   -5.5197    0.6757    0.3584 H   0  0  0  0  0  0  0  0  0  0  0  0
    2.4846   -2.0973   -1.8677 C   0  0  0  0  0  0  0  0  0  0  0  0
    2.4846   -2.0973   -0.3448 C   0  0  0  0  0  0  0  0  0  0  0  0
    2.4846   -0.7042    0.2507 C   0  0  0  0  0  0  0  0  0  0  0  0
    1.3016   -0.0406   -0.1169 O   0  0  0  0  0  0  0  0  0  0  0  0
    1.2309    1.2775    0.3640 C   0  0  0  0  0  0  0  0  0  0  0  0
   -0.0725    1.8953   -0.0868 C   0  0  0  0  0  3  0  0  0  0  0  0
    3.3666   -1.5829   -2.2573 H   0  0  0  0  0  0  0  0  0  0  0  0
    1.6019   -1.5876   -2.2538 H   0  0  0  0  0  0  0  0  0  0  0  0
    2.4901   -3.1151   -2.2604 H   0  0  0  0  0  0  0  0  0  0  0  0
    3.3661   -2.6237    0.0315 H   0  0  0  0  0  0  0  0  0  0  0  0
    1.6102   -2.6352    0.0305 H   0  0  0  0  0  0  0  0  0  0  0  0
    3.3588   -0.1391   -0.1097 H   0  0  0  0  0  0  0  0  0  0  0  0
    2.5594   -0.7581    1.3468 H   0  0  0  0  0  0  0  0  0  0  0  0
    1.2981    1.2803    1.4621 H   0  0  0  0  0  0  0  0  0  0  0  0
    2.0837    1.8604   -0.0139 H   0  0  0  0  0  0  0  0  0  0  0  0
   -1.0881    1.2120    0.3760 H   0  0  0  0  0  0  0  0  0  0  0  0
   -0.1333    1.9071   -1.1756 H   0  0  0  0  0  0  0  0  0  0  0  0
   -0.1501    2.9213    0.2762 H   0  0  0  0  0  0  0  0  0  0  0  0
  1  2  1  0
  1  4  1  0
  1 25  1  0
  2  3  1  0
  2  5  1  0
  2  6  1  0
  3  7  1  0
  3  8  1  0
  3  9  1  0
 10 11  1  0
 10 16  1  0
 10 17  1  0
 10 18  1  0
 11 12  1  0
 11 19  1  0
 11 20  1  0
 12 13  1  0
 12 21  1  0
 12 22  1  0
 13 14  1  0
 14 15  1  0
 14 23  1  0
 14 24  1  0
 15 26  1  0
 15 27  1  0
M  RAD  2   1   2  15   2
M  END
>  <reaction>  (15) 
rmg_rxn_151

>  <mol_properties>  (15) 
{"0": {"label": "*3", "atom_type": "Cs"}, "1": {"label": "*4", "atom_type": "Cs"}, "13": {"label": "*0", "atom_type": "Cs"}, "14": {"label": "*1", "atom_type": "Cs"}, "24": {"label": "*2", "atom_type": "H0"}}

>  <type>  (15) 
unop_11

>  <geom_source>  (15) 
Heuristics

$$$$

     RDKit          3D

 27 25  0  0  0  0  0  0  0  0999 V2000
   -2.4260    0.9190    0.5529 C   0  0  0  0  0  3  0  0  0  0  0  0
   -2.2129   -0.2829    1.3962 C   0  0  0  0  0  0  0  0  0  0  0  0
   -3.4756   -1.1099    1.6122 C   0  0  0  0  0  0  0  0  0  0  0  0
   -3.4211    1.3116    0.3870 H   0  0  0  0  0  0  0  0  0  0  0  0
   -1.4284   -0.9089    0.9548 H   0  0  0  0  0  0  0  0  0  0  0  0
   -1.8098    0.0192    2.3750 H   0  0  0  0  0  0  0  0  0  0  0  0
   -3.8699   -1.4738    0.6616 H   0  0  0  0  0  0  0  0  0  0  0  0
   -4.2545   -0.5109    2.0890 H   0  0  0  0  0  0  0  0  0  0  0  0
   -3.2794   -1.9733    2.2495 H   0  0  0  0  0  0  0  0  0  0  0  0
    2.1541   -1.7125   -2.1498 C   0  0  0  0  0  0  0  0  0  0  0  0
    2.1541   -1.7125   -0.6269 C   0  0  0  0  0  0  0  0  0  0  0  0
    2.1541   -0.3194   -0.0314 C   0  0  0  0  0  0  0  0  0  0  0  0
    0.9711    0.3442   -0.3990 O   0  0  0  0  0  0  0  0  0  0  0  0
    0.9004    1.6623    0.0819 C   0  0  0  0  0  0  0  0  0  0  0  0
   -0.4029    2.2801   -0.3690 C   0  0  0  0  0  3  0  0  0  0  0  0
    3.0362   -1.1981   -2.5395 H   0  0  0  0  0  0  0  0  0  0  0  0
    1.2714   -1.2028   -2.5359 H   0  0  0  0  0  0  0  0  0  0  0  0
    2.1596   -2.7303   -2.5425 H   0  0  0  0  0  0  0  0  0  0  0  0
    3.0356   -2.2389   -0.2507 H   0  0  0  0  0  0  0  0  0  0  0  0
    1.2797   -2.2504   -0.2517 H   0  0  0  0  0  0  0  0  0  0  0  0
    3.0283    0.2457   -0.3918 H   0  0  0  0  0  0  0  0  0  0  0  0
    2.2289   -0.3733    1.0646 H   0  0  0  0  0  0  0  0  0  0  0  0
    0.9677    1.6651    1.1800 H   0  0  0  0  0  0  0  0  0  0  0  0
    1.7533    2.2452   -0.2960 H   0  0  0  0  0  0  0  0  0  0  0  0
   -1.4185    1.5968    0.0939 H   0  0  0  0  0  0  0  0  0  0  0  0
   -0.4637    2.2919   -1.4578 H   0  0  0  0  0  0  0  0  0  0  0  0
   -0.4805    3.3061   -0.0059 H   0  0  0  0  0  0  0  0  0  0  0  0
  1  2  1  0
  1  4  1  0
  1 25  1  0
  2  3  1  0
  2  5  1  0
  2  6  1  0
  3  7  1  0
  3  8  1  0
  3  9  1  0
 10 11  1  0
 10 16  1  0
 10 17  1  0
 10 18  1  0
 11 12  1  0
 11 19  1  0
 11 20  1  0
 12 13  1  0
 12 21  1  0
 12 22  1  0
 13 14  1  0
 14 15  1  0
 14 23  1  0
 14 24  1  0
 15 26  1  0
 15 27  1  0
M  RAD  2   1   2  15   2
M  END
>  <reaction>  (16) 
rmg_rxn_151

>  <mol_properties>  (16) 
{"0": {"label": "*3", "atom_type": "Cs"}, "1": {"label": "*4", "atom_type": "Cs"}, "13": {"label": "*0", "atom_type": "Cs"}, "14": {"label": "*1", "atom_type": "Cs"}, "24": {"label": "*2", "atom_type": "H0"}}

>  <type>  (16) 
unop_12

>  <geom_source>  (16) 
Heuristics

$$$$

     RDKit          3D

 27 25  0  0  0  0  0  0  0  0999 V2000
   -1.6446   -0.6490    0.8366 O   0  0  0  0  0  0  0  0  0  0  0  0
   -3.4918    0.0098   -0.5994 C   0  0  0  0  0  0  0  0  0  0  0  0
    4.1574    0.3686   -0.0074 C   0  0  0  0  0  0  0  0  0  0  0  0
   -2.7434   -1.1381    0.0887 C   0  0  0  0  0  0  0  0  0  0  0  0
   -0.4555   -0.7246    0.0784 C   0  0  0  0  0  0  0  0  0  0  0  0
   -4.0409    1.0181    0.4077 C   0  0  0  0  0  0  0  0  0  0  0  0
    3.8163   -0.1994   -1.3790 C   0  0  0  0  0  0  0  0  0  0  0  0
    2.9677    1.1183    0.5720 C   0  0  0  0  0  2  0  0  0  0  0  0
    0.6711   -0.0573    0.8475 C   0  0  0  0  0  0  0  0  0  0  0  0
   -4.3389   -0.4119   -1.1825 H   0  0  0  0  0  0  0  0  0  0  0  0
   -2.8158    0.5313   -1.3099 H   0  0  0  0  0  0  0  0  0  0  0  0
    4.4416   -0.4584    0.6779 H   0  0  0  0  0  0  0  0  0  0  0  0
    5.0169    1.0660   -0.1024 H   0  0  0  0  0  0  0  0  0  0  0  0
   -2.4578   -1.9064   -0.6689 H   0  0  0  0  0  0  0  0  0  0  0  0
   -3.4390   -1.6470    0.7898 H   0  0  0  0  0  0  0  0  0  0  0  0
    3.5354    0.6193   -2.0757 H   0  0  0  0  0  0  0  0  0  0  0  0
    4.7001   -0.7301   -1.7915 H   0  0  0  0  0  0  0  0  0  0  0  0
    2.9743   -0.9199   -1.3004 H   0  0  0  0  0  0  0  0  0  0  0  0
   -0.1740   -1.7867   -0.0974 H   0  0  0  0  0  0  0  0  0  0  0  0
   -0.5621   -0.2018   -0.8983 H   0  0  0  0  0  0  0  0  0  0  0  0
   -4.6045    1.8094   -0.1298 H   0  0  0  0  0  0  0  0  0  0  0  0
   -3.2112    1.4966    0.9700 H   0  0  0  0  0  0  0  0  0  0  0  0
   -4.7279    0.5161    1.1218 H   0  0  0  0  0  0  0  0  0  0  0  0
    3.2453    1.5763    1.5447 H   0  0  0  0  0  0  0  0  0  0  0  0
    1.9153    0.2573    0.7630 H   0  0  0  0  0  0  0  0  0  0  0  0
    0.4349    1.0135    1.0247 H   0  0  0  0  0  0  0  0  0  0  0  0
    0.8314   -0.5699    1.8197 H   0  0  0  0  0  0  0  0  0  0  0  0
  1  5  1  0
  1  4  1  0
  2  6  1  0
  2  4  1  0
  2 10  1  0
  2 11  1  0
  3  8  1  0
  3  7  1  0
  3 12  1  0
  3 13  1  0
  4 14  1  0
  4 15  1  0
  5  9  1  0
  5 19  1  0
  5 20  1  0
  6 21  1  0
  6 22  1  0
  6 23  1  0
  7 16  1  0
  7 17  1  0
  7 18  1  0
  8 24  1  0
  9 25  1  0
  9 26  1  0
  9 27  1  0
M  RAD  1   8   3
M  END
>  <reaction>  (17) 
rmg_rxn_151

>  <mol_properties>  (17) 
{"0": {"label": "*3", "atom_type": "Cs"}, "1": {"label": "*4", "atom_type": "Cs"}, "13": {"label": "*0", "atom_type": "Cs"}, "14": {"label": "*1", "atom_type": "Cs"}, "24": {"label": "*2", "atom_type": "H0"}}

>  <type>  (17) 
unop_13

>  <geom_source>  (17) 
AutoTST

$$$$

     RDKit          3D

 27 25  0  0  0  0  0  0  0  0999 V2000
   -2.3934    0.7867    0.4250 C   0  0  0  0  0  3  0  0  0  0  0  0
   -2.2955    0.0576    1.7132 C   0  0  0  0  0  0  0  0  0  0  0  0
   -3.6139   -0.5583    2.1689 C   0  0  0  0  0  0  0  0  0  0  0  0
   -3.3538    1.0997    0.0356 H   0  0  0  0  0  0  0  0  0  0  0  0
   -1.5265   -0.7205    1.6394 H   0  0  0  0  0  0  0  0  0  0  0  0
   -1.9279    0.7385    2.4963 H   0  0  0  0  0  0  0  0  0  0  0  0
   -3.9778   -1.2832    1.4383 H   0  0  0  0  0  0  0  0  0  0  0  0
   -4.3807    0.2104    2.2867 H   0  0  0  0  0  0  0  0  0  0  0  0
   -3.5023   -1.0698    3.1260 H   0  0  0  0  0  0  0  0  0  0  0  0
    2.1867   -1.8447   -2.2778 C   0  0  0  0  0  0  0  0  0  0  0  0
    2.1867   -1.8447   -0.7549 C   0  0  0  0  0  0  0  0  0  0  0  0
    2.1867   -0.4516   -0.1594 C   0  0  0  0  0  0  0  0  0  0  0  0
    1.0037    0.2120   -0.5270 O   0  0  0  0  0  0  0  0  0  0  0  0
    0.9330    1.5300   -0.0461 C   0  0  0  0  0  0  0  0  0  0  0  0
   -0.3703    2.1478   -0.4969 C   0  0  0  0  0  3  0  0  0  0  0  0
    3.0688   -1.3304   -2.6674 H   0  0  0  0  0  0  0  0  0  0  0  0
    1.3040   -1.3350   -2.6639 H   0  0  0  0  0  0  0  0  0  0  0  0
    2.1922   -2.8626   -2.6705 H   0  0  0  0  0  0  0  0  0  0  0  0
    3.0682   -2.3712   -0.3786 H   0  0  0  0  0  0  0  0  0  0  0  0
    1.3123   -2.3827   -0.3796 H   0  0  0  0  0  0  0  0  0  0  0  0
    3.0609    0.1135   -0.5198 H   0  0  0  0  0  0  0  0  0  0  0  0
    2.2615   -0.5055    0.9366 H   0  0  0  0  0  0  0  0  0  0  0  0
    1.0003    1.5329    1.0520 H   0  0  0  0  0  0  0  0  0  0  0  0
    1.7859    2.1130   -0.4240 H   0  0  0  0  0  0  0  0  0  0  0  0
   -1.3860    1.4645   -0.0341 H   0  0  0  0  0  0  0  0  0  0  0  0
   -0.4311    2.1597   -1.5857 H   0  0  0  0  0  0  0  0  0  0  0  0
   -0.4479    3.1738   -0.1339 H   0  0  0  0  0  0  0  0  0  0  0  0
  1  2  1  0
  1  4  1  0
  1 25  1  0
  2  3  1  0
  2  5  1  0
  2  6  1  0
  3  7  1  0
  3  8  1  0
  3  9  1  0
 10 11  1  0
 10 16  1  0
 10 17  1  0
 10 18  1  0
 11 12  1  0
 11 19  1  0
 11 20  1  0
 12 13  1  0
 12 21  1  0
 12 22  1  0
 13 14  1  0
 14 15  1  0
 14 23  1  0
 14 24  1  0
 15 26  1  0
 15 27  1  0
M  RAD  2   1   2  15   2
M  END
>  <reaction>  (18) 
rmg_rxn_151

>  <mol_properties>  (18) 
{"0": {"label": "*3", "atom_type": "Cs"}, "1": {"label": "*4", "atom_type": "Cs"}, "13": {"label": "*0", "atom_type": "Cs"}, "14": {"label": "*1", "atom_type": "Cs"}, "24": {"label": "*2", "atom_type": "H0"}}

>  <type>  (18) 
unop_14

>  <geom_source>  (18) 
gaussian_log

$$$$
