
     RDKit          3D

  8  7  0  0  0  0  0  0  0  0999 V2000
    0.9548    0.1194   -0.0790 C   0  0  0  0  0  0  0  0  0  0  0  0
   -0.4838   -0.2649    0.0193 C   0  0  0  0  0  0  0  0  0  0  0  0
   -0.8933   -1.1081    0.8664 N   0  0  0  0  0  0  0  0  0  0  0  0
    1.3360   -0.0983   -1.0800 H   0  0  0  0  0  0  0  0  0  0  0  0
    1.0698    1.1948    0.0786 H   0  0  0  0  0  0  0  0  0  0  0  0
    1.5426   -0.4219    0.6602 H   0  0  0  0  0  0  0  0  0  0  0  0
   -1.1575    0.2324   -0.6905 H   0  0  0  0  0  0  0  0  0  0  0  0
   -1.8989   -1.2455    0.7886 H   0  0  0  0  0  0  0  0  0  0  0  0
  1  2  1  0
  1  4  1  0
  1  5  1  0
  1  6  1  0
  2  3  2  3
  2  7  1  0
  3  8  1  0
M  END
>  <reaction>  (1) 
rmg_rxn_16548

>  <mol_properties>  (1) 
{"1": {"label": "donator", "atom_type": "Cd"}, "6": {"label": "d_hydrogen", "atom_type": "H0"}}

>  <type>  (1) 
r1h

$$$$

     RDKit          3D

 17 16  0  0  0  0  0  0  0  0999 V2000
    3.3619    0.3511   -1.0290 C   0  0  0  0  0  3  0  0  0  0  0  0
    2.1806    1.0643   -0.5073 C   0  0  0  0  0  0  0  0  0  0  0  0
    1.4028    0.1998    0.2757 O   0  0  0  0  0  0  0  0  0  0  0  0
    0.2433    0.8081    0.7885 C   0  0  0  0  0  0  0  0  0  0  0  0
   -0.5040   -0.1878    1.6510 C   0  0  0  0  0  0  0  0  0  0  0  0
    0.2852   -0.6298    2.8762 C   0  0  0  0  0  0  0  0  0  0  0  0
    4.1174    0.8902   -1.5820 H   0  0  0  0  0  0  0  0  0  0  0  0
    3.4399   -0.7198   -0.9141 H   0  0  0  0  0  0  0  0  0  0  0  0
    1.5724    1.4684   -1.3398 H   0  0  0  0  0  0  0  0  0  0  0  0
    2.4896    1.9442    0.0856 H   0  0  0  0  0  0  0  0  0  0  0  0
    0.5169    1.6937    1.3835 H   0  0  0  0  0  0  0  0  0  0  0  0
   -0.3954    1.1528   -0.0379 H   0  0  0  0  0  0  0  0  0  0  0  0
   -0.7611   -1.0545    1.0367 H   0  0  0  0  0  0  0  0  0  0  0  0
   -1.4466    0.2743    1.9571 H   0  0  0  0  0  0  0  0  0  0  0  0
    0.5263    0.2245    3.5136 H   0  0  0  0  0  0  0  0  0  0  0  0
    1.2220   -1.1033    2.5825 H   0  0  0  0  0  0  0  0  0  0  0  0
   -0.2849   -1.3427    3.4737 H   0  0  0  0  0  0  0  0  0  0  0  0
  1  2  1  0
  1  7  1  0
  1  8  1  0
  2  3  1  0
  2  9  1  0
  2 10  1  0
  3  4  1  0
  4  5  1  0
  4 11  1  0
  4 12  1  0
  5  6  1  0
  5 13  1  0
  5 14  1  0
  6 15  1  0
  6 16  1  0
  6 17  1  0
M  RAD  1   1   2
M  END
>  <reaction>  (2) 
rmg_rxn_16548

>  <mol_properties>  (2) 
{"0": {"label": "acceptor", "atom_type": "Cs"}}

>  <type>  (2) 
r2

$$$$

     RDKit          3D

 18 17  0  0  0  0  0  0  0  0999 V2000
    2.2026   -0.7213   -0.2612 C   0  0  0  0  0  0  0  0  0  0  0  0
    1.5384    0.2638    0.6915 C   0  0  0  0  0  0  0  0  0  0  0  0
    2.2584    1.5946    0.7694 C   0  0  0  0  0  0  0  0  0  0  0  0
    2.2212    2.2185   -0.4893 O   0  0  0  0  0  0  0  0  0  0  0  0
    2.8988    3.4488   -0.5204 C   0  0  0  0  0  0  0  0  0  0  0  0
    2.7981    4.0296   -1.9118 C   0  0  0  0  0  0  0  0  0  0  0  0
    3.2294   -0.9309    0.0486 H   0  0  0  0  0  0  0  0  0  0  0  0
    2.2338   -0.3181   -1.2734 H   0  0  0  0  0  0  0  0  0  0  0  0
    1.6610   -1.6680   -0.2875 H   0  0  0  0  0  0  0  0  0  0  0  0
    1.4990   -0.1566    1.7002 H   0  0  0  0  0  0  0  0  0  0  0  0
    0.5055    0.4455    0.3835 H   0  0  0  0  0  0  0  0  0  0  0  0
    3.3038    1.4410    1.0808 H   0  0  0  0  0  0  0  0  0  0  0  0
    1.7844    2.2410    1.5226 H   0  0  0  0  0  0  0  0  0  0  0  0
    2.4596    4.1376    0.2164 H   0  0  0  0  0  0  0  0  0  0  0  0
    3.9524    3.3035   -0.2397 H   0  0  0  0  0  0  0  0  0  0  0  0
    1.7543    4.1869   -2.1856 H   0  0  0  0  0  0  0  0  0  0  0  0
    3.2472    3.3545   -2.6411 H   0  0  0  0  0  0  0  0  0  0  0  0
    3.3178    4.9878   -1.9600 H   0  0  0  0  0  0  0  0  0  0  0  0
  1  2  1  0
  1  7  1  0
  1  8  1  0
  1  9  1  0
  2  3  1  0
  2 10  1  0
  2 11  1  0
  3  4  1  0
  3 12  1  0
  3 13  1  0
  4  5  1  0
  5  6  1  0
  5 14  1  0
  5 15  1  0
  6 16  1  0
  6 17  1  0
  6 18  1  0
M  END
>  <reaction>  (3) 
rmg_rxn_16548

>  <mol_properties>  (3) 
{"0": {"label": "a_hydrogen", "atom_type": "H0"}, "1": {"label": "acceptor", "atom_type": "Cs"}}

>  <type>  (3) 
r2h

$$$$

     RDKit          3D

 25 23  0  0  0  0  0  0  0  0999 V2000
   -3.4112    1.1057    0.6240 C   0  0  0  0  0  0  0  0  0  0  0  0
   -2.1473    0.6814   -0.0417 C   0  0  0  0  0  0  0  0  0  0  0  0
   -1.5252    1.3205   -0.9139 N   0  0  0  0  0  0  0  0  0  0  0  0
   -4.1921    0.3634    0.4450 H   0  0  0  0  0  0  0  0  0  0  0  0
   -3.2617    1.1603    1.7046 H   0  0  0  0  0  0  0  0  0  0  0  0
   -3.7372    2.0768    0.2499 H   0  0  0  0  0  0  0  0  0  0  0  0
   -1.6941   -0.4703    0.3656 H   0  0  0  0  0  0  0  0  0  0  0  0
   -0.6848    0.8233   -1.2155 H   0  0  0  0  0  0  0  0  0  0  0  0
   -1.0879   -1.7010    0.7282 C   0  0  0  0  0  3  0  0  0  0  0  0
   -0.0979   -1.9840   -0.3690 C   0  0  0  0  0  0  0  0  0  0  0  0
    0.6857   -0.8674   -0.7458 O   0  0  0  0  0  0  0  0  0  0  0  0
    1.5715   -0.4083    0.2483 C   0  0  0  0  0  0  0  0  0  0  0  0
    2.4477    0.6783   -0.3385 C   0  0  0  0  0  0  0  0  0  0  0  0
    3.4328    1.2304    0.6829 C   0  0  0  0  0  0  0  0  0  0  0  0
   -1.9122   -2.4089    0.7739 H   0  0  0  0  0  0  0  0  0  0  0  0
   -0.6674   -1.5006    1.7115 H   0  0  0  0  0  0  0  0  0  0  0  0
   -0.6224   -2.2853   -1.2768 H   0  0  0  0  0  0  0  0  0  0  0  0
    0.5705   -2.8128   -0.0845 H   0  0  0  0  0  0  0  0  0  0  0  0
    1.0174   -0.0102    1.1091 H   0  0  0  0  0  0  0  0  0  0  0  0
    2.1890   -1.2439    0.6114 H   0  0  0  0  0  0  0  0  0  0  0  0
    1.8060    1.4807   -0.7114 H   0  0  0  0  0  0  0  0  0  0  0  0
    2.9808    0.2715   -1.2008 H   0  0  0  0  0  0  0  0  0  0  0  0
    4.0972    0.4476    1.0561 H   0  0  0  0  0  0  0  0  0  0  0  0
    2.9125    1.6630    1.5404 H   0  0  0  0  0  0  0  0  0  0  0  0
    4.0540    2.0114    0.2438 H   0  0  0  0  0  0  0  0  0  0  0  0
  1  2  1  0
  1  4  1  0
  1  5  1  0
  1  6  1  0
  2  3  2  3
  2  7  1  0
  3  8  1  0
  9 10  1  0
  9 15  1  0
  9 16  1  0
 10 11  1  0
 10 17  1  0
 10 18  1  0
 11 12  1  0
 12 13  1  0
 12 19  1  0
 12 20  1  0
 13 14  1  0
 13 21  1  0
 13 22  1  0
 14 23  1  0
 14 24  1  0
 14 25  1  0
M  RAD  1   9   2
M  END
>  <reaction>  (4) 
rmg_rxn_16548

>  <mol_properties>  (4) 
{"1": {"label": "*1", "atom_type": "Cd"}, "2": {"label": "*0", "atom_type": "N3d"}, "6": {"label": "*2", "atom_type": "H0"}, "8": {"label": "*3", "atom_type": "Cs"}, "9": {"label": "*4", "atom_type": "Cs"}}

>  <type>  (4) 
ts

$$$$

     RDKit          3D

 25 23  0  0  0  0  0  0  0  0999 V2000
   -3.4140    1.0956    0.5974 C   0  0  0  0  0  0  0  0  0  0  0  0
   -2.1565    0.6555   -0.0454 C   0  0  0  0  0  3  0  0  0  0  0  0
   -1.5306    1.2867   -0.9100 N   0  0  0  0  0  0  0  0  0  0  0  0
   -4.1895    0.3538    0.4112 H   0  0  0  0  0  0  0  0  0  0  0  0
   -3.2654    1.1571    1.6747 H   0  0  0  0  0  0  0  0  0  0  0  0
   -3.7399    2.0649    0.2190 H   0  0  0  0  0  0  0  0  0  0  0  0
   -1.7010   -0.5438    0.3972 H   0  0  0  0  0  0  0  0  0  0  0  0
   -0.6757    0.8704   -1.2719 H   0  0  0  0  0  0  0  0  0  0  0  0
   -1.1475   -1.6713    0.7328 C   0  0  0  0  0  0  0  0  0  0  0  0
   -0.1123   -1.9618   -0.3331 C   0  0  0  0  0  0  0  0  0  0  0  0
    0.6584   -0.8313   -0.7051 O   0  0  0  0  0  0  0  0  0  0  0  0
    1.5806   -0.3988    0.2716 C   0  0  0  0  0  0  0  0  0  0  0  0
    2.4316    0.7168   -0.3254 C   0  0  0  0  0  0  0  0  0  0  0  0
    3.4798    1.2112    0.6619 C   0  0  0  0  0  0  0  0  0  0  0  0
   -1.9248   -2.4259    0.7544 H   0  0  0  0  0  0  0  0  0  0  0  0
   -0.7194   -1.5326    1.7203 H   0  0  0  0  0  0  0  0  0  0  0  0
   -0.6072   -2.2674   -1.2593 H   0  0  0  0  0  0  0  0  0  0  0  0
    0.5670   -2.7740   -0.0176 H   0  0  0  0  0  0  0  0  0  0  0  0
    1.0558   -0.0274    1.1638 H   0  0  0  0  0  0  0  0  0  0  0  0
    2.2199   -1.2424    0.5777 H   0  0  0  0  0  0  0  0  0  0  0  0
    1.7750    1.5391   -0.6147 H   0  0  0  0  0  0  0  0  0  0  0  0
    2.9130    0.3403   -1.2293 H   0  0  0  0  0  0  0  0  0  0  0  0
    4.1488    0.4025    0.9482 H   0  0  0  0  0  0  0  0  0  0  0  0
    3.0052    1.5978    1.5613 H   0  0  0  0  0  0  0  0  0  0  0  0
    4.0722    2.0064    0.2169 H   0  0  0  0  0  0  0  0  0  0  0  0
  1  2  1  0
  1  4  1  0
  1  5  1  0
  1  6  1  0
  2  3  2  3
  3  8  1  0
  7  9  1  0
  9 10  1  0
  9 15  1  0
  9 16  1  0
 10 11  1  0
 10 17  1  0
 10 18  1  0
 11 12  1  0
 12 13  1  0
 12 19  1  0
 12 20  1  0
 13 14  1  0
 13 21  1  0
 13 22  1  0
 14 23  1  0
 14 24  1  0
 14 25  1  0
M  RAD  1   2   2
M  END
>  <reaction>  (5) 
rmg_rxn_16548

>  <mol_properties>  (5) 
{"1": {"label": "*1", "atom_type": "Cd"}, "2": {"label": "*0", "atom_type": "N3d"}, "6": {"label": "*2", "atom_type": "H0"}, "8": {"label": "*3", "atom_type": "Cs"}, "9": {"label": "*4", "atom_type": "Cs"}}

>  <type>  (5) 
unop_1

>  <geom_source>  (5) 
crest_best.xyz

$$$$

     RDKit          3D

 25 23  0  0  0  0  0  0  0  0999 V2000
   -0.7253    2.2752   -3.7073 C   0  0  0  0  0  0  0  0  0  0  0  0
   -0.7253    2.2752   -2.2150 C   0  0  0  0  0  3  0  0  0  0  0  0
   -0.7253    3.3478   -1.5473 N   0  0  0  0  0  0  0  0  0  0  0  0
    0.1529    1.7452   -4.0847 H   0  0  0  0  0  0  0  0  0  0  0  0
   -1.6036    1.7452   -4.0847 H   0  0  0  0  0  0  0  0  0  0  0  0
   -0.7253    3.2958   -4.0859 H   0  0  0  0  0  0  0  0  0  0  0  0
   -0.7253    1.0875   -1.6454 H   0  0  0  0  0  0  0  0  0  0  0  0
   -0.7253    3.1560   -0.5477 H   0  0  0  0  0  0  0  0  0  0  0  0
   -0.7253   -0.0931   -1.0792 C   0  0  0  0  0  0  0  0  0  0  0  0
    0.5023   -0.2587   -0.2137 C   0  0  0  0  0  0  0  0  0  0  0  0
    0.1432   -0.9379    0.9624 O   0  0  0  0  0  0  0  0  0  0  0  0
    1.2230   -1.1429    1.8382 C   0  0  0  0  0  0  0  0  0  0  0  0
    0.7455   -1.9132    3.0522 C   0  0  0  0  0  0  0  0  0  0  0  0
    0.2365   -3.3081    2.7140 C   0  0  0  0  0  0  0  0  0  0  0  0
   -1.1429   -1.0661   -1.3403 H   0  0  0  0  0  0  0  0  0  0  0  0
   -1.4898    0.4793   -0.5526 H   0  0  0  0  0  0  0  0  0  0  0  0
    0.9318    0.7228    0.0361 H   0  0  0  0  0  0  0  0  0  0  0  0
    1.2780   -0.8241   -0.7509 H   0  0  0  0  0  0  0  0  0  0  0  0
    2.0207   -1.7030    1.3249 H   0  0  0  0  0  0  0  0  0  0  0  0
    1.6475   -0.1752    2.1434 H   0  0  0  0  0  0  0  0  0  0  0  0
   -0.0420   -1.3350    3.5426 H   0  0  0  0  0  0  0  0  0  0  0  0
    1.5779   -1.9774    3.7584 H   0  0  0  0  0  0  0  0  0  0  0  0
    1.0215   -3.9061    2.2443 H   0  0  0  0  0  0  0  0  0  0  0  0
   -0.6037   -3.2551    2.0217 H   0  0  0  0  0  0  0  0  0  0  0  0
   -0.0932   -3.8341    3.6112 H   0  0  0  0  0  0  0  0  0  0  0  0
  1  2  1  0
  1  4  1  0
  1  5  1  0
  1  6  1  0
  2  3  2  3
  3  8  1  0
  7  9  1  0
  9 10  1  0
  9 15  1  0
  9 16  1  0
 10 11  1  0
 10 17  1  0
 10 18  1  0
 11 12  1  0
 12 13  1  0
 12 19  1  0
 12 20  1  0
 13 14  1  0
 13 21  1  0
 13 22  1  0
 14 23  1  0
 14 24  1  0
 14 25  1  0
M  RAD  1   2   2
M  END
>  <reaction>  (6) 
rmg_rxn_16548

>  <mol_properties>  (6) 
{"1": {"label": "*1", "atom_type": "Cd"}, "2": {"label": "*0", "atom_type": "N3d"}, "6": {"label": "*2", "atom_type": "H0"}, "8": {"label": "*3", "atom_type": "Cs"}, "9": {"label": "*4", "atom_type": "Cs"}}

>  <type>  (6) 
unop_2

>  <geom_source>  (6) 
Heuristics

$$$$

     RDKit          3D

 25 23  0  0  0  0  0  0  0  0999 V2000
   -0.7067    3.2181   -2.0355 C   0  0  0  0  0  0  0  0  0  0  0  0
   -0.7067    3.2181   -0.5432 C   0  0  0  0  0  3  0  0  0  0  0  0
   -0.7067    4.2907    0.1245 N   0  0  0  0  0  0  0  0  0  0  0  0
    0.1715    2.6881   -2.4129 H   0  0  0  0  0  0  0  0  0  0  0  0
   -1.5850    2.6881   -2.4129 H   0  0  0  0  0  0  0  0  0  0  0  0
   -0.7067    4.2387   -2.4141 H   0  0  0  0  0  0  0  0  0  0  0  0
   -0.7067    2.0305    0.0264 H   0  0  0  0  0  0  0  0  0  0  0  0
   -0.7067    4.0989    1.1242 H   0  0  0  0  0  0  0  0  0  0  0  0
   -0.7067    0.8499    0.5926 C   0  0  0  0  0  0  0  0  0  0  0  0
    0.0020   -0.1531   -0.2879 C   0  0  0  0  0  0  0  0  0  0  0  0
    0.3557   -1.2706    0.4866 O   0  0  0  0  0  0  0  0  0  0  0  0
    1.0234   -2.2666   -0.2464 C   0  0  0  0  0  0  0  0  0  0  0  0
    1.3262   -3.4405    0.6622 C   0  0  0  0  0  0  0  0  0  0  0  0
    0.0739   -4.1167    1.2042 C   0  0  0  0  0  0  0  0  0  0  0  0
   -1.6082    0.4115    1.0222 H   0  0  0  0  0  0  0  0  0  0  0  0
   -0.0569    1.1688    1.4083 H   0  0  0  0  0  0  0  0  0  0  0  0
    0.9027    0.2950   -0.7332 H   0  0  0  0  0  0  0  0  0  0  0  0
   -0.6492   -0.4637   -1.1182 H   0  0  0  0  0  0  0  0  0  0  0  0
    0.3965   -2.5942   -1.0908 H   0  0  0  0  0  0  0  0  0  0  0  0
    1.9546   -1.8610   -0.6685 H   0  0  0  0  0  0  0  0  0  0  0  0
    1.9499   -3.0885    1.4880 H   0  0  0  0  0  0  0  0  0  0  0  0
    1.9261   -4.1581    0.0956 H   0  0  0  0  0  0  0  0  0  0  0  0
   -0.5482   -4.4952    0.3893 H   0  0  0  0  0  0  0  0  0  0  0  0
   -0.5244   -3.4136    1.7836 H   0  0  0  0  0  0  0  0  0  0  0  0
    0.3301   -4.9589    1.8486 H   0  0  0  0  0  0  0  0  0  0  0  0
  1  2  1  0
  1  4  1  0
  1  5  1  0
  1  6  1  0
  2  3  2  3
  3  8  1  0
  7  9  1  0
  9 10  1  0
  9 15  1  0
  9 16  1  0
 10 11  1  0
 10 17  1  0
 10 18  1  0
 11 12  1  0
 12 13  1  0
 12 19  1  0
 12 20  1  0
 13 14  1  0
 13 21  1  0
 13 22  1  0
 14 23  1  0
 14 24  1  0
 14 25  1  0
M  RAD  1   2   2
M  END
>  <reaction>  (7) 
rmg_rxn_16548

>  <mol_properties>  (7) 
{"1": {"label": "*1", "atom_type": "Cd"}, "2": {"label": "*0", "atom_type": "N3d"}, "6": {"label": "*2", "atom_type": "H0"}, "8": {"label": "*3", "atom_type": "Cs"}, "9": {"label": "*4", "atom_type": "Cs"}}

>  <type>  (7) 
unop_3

>  <geom_source>  (7) 
Heuristics

$$$$

     RDKit          3D

 25 23  0  0  0  0  0  0  0  0999 V2000
   -0.2489    2.3044   -3.8365 C   0  0  0  0  0  0  0  0  0  0  0  0
   -0.2489    2.3044   -2.3442 C   0  0  0  0  0  3  0  0  0  0  0  0
   -0.2489    3.3770   -1.6765 N   0  0  0  0  0  0  0  0  0  0  0  0
    0.6293    1.7744   -4.2139 H   0  0  0  0  0  0  0  0  0  0  0  0
   -1.1272    1.7744   -4.2139 H   0  0  0  0  0  0  0  0  0  0  0  0
   -0.2489    3.3250   -4.2151 H   0  0  0  0  0  0  0  0  0  0  0  0
   -0.2489    1.1168   -1.7746 H   0  0  0  0  0  0  0  0  0  0  0  0
   -0.2489    3.1852   -0.6768 H   0  0  0  0  0  0  0  0  0  0  0  0
   -0.2489   -0.0638   -1.2084 C   0  0  0  0  0  0  0  0  0  0  0  0
    0.4598   -0.0051    0.1249 C   0  0  0  0  0  0  0  0  0  0  0  0
   -0.0750   -0.9917    0.9699 O   0  0  0  0  0  0  0  0  0  0  0  0
    0.5226   -1.0187    2.2416 C   0  0  0  0  0  0  0  0  0  0  0  0
   -0.0913   -2.1353    3.0612 C   0  0  0  0  0  0  0  0  0  0  0  0
    0.1604   -3.5174    2.4734 C   0  0  0  0  0  0  0  0  0  0  0  0
   -0.1142   -1.0427   -1.6700 H   0  0  0  0  0  0  0  0  0  0  0  0
   -1.3176    0.1124   -1.0812 H   0  0  0  0  0  0  0  0  0  0  0  0
    0.3365    0.9878    0.5825 H   0  0  0  0  0  0  0  0  0  0  0  0
    1.5396   -0.1691   -0.0060 H   0  0  0  0  0  0  0  0  0  0  0  0
    1.6083   -1.1758    2.1422 H   0  0  0  0  0  0  0  0  0  0  0  0
    0.3770   -0.0517    2.7451 H   0  0  0  0  0  0  0  0  0  0  0  0
   -1.1658   -1.9534    3.1458 H   0  0  0  0  0  0  0  0  0  0  0  0
    0.3208   -2.0757    4.0724 H   0  0  0  0  0  0  0  0  0  0  0  0
    1.2317   -3.7226    2.4051 H   0  0  0  0  0  0  0  0  0  0  0  0
   -0.2596   -3.5927    1.4704 H   0  0  0  0  0  0  0  0  0  0  0  0
   -0.2906   -4.2951    3.0915 H   0  0  0  0  0  0  0  0  0  0  0  0
  1  2  1  0
  1  4  1  0
  1  5  1  0
  1  6  1  0
  2  3  2  3
  3  8  1  0
  7  9  1  0
  9 10  1  0
  9 15  1  0
  9 16  1  0
 10 11  1  0
 10 17  1  0
 10 18  1  0
 11 12  1  0
 12 13  1  0
 12 19  1  0
 12 20  1  0
 13 14  1  0
 13 21  1  0
 13 22  1  0
 14 23  1  0
 14 24  1  0
 14 25  1  0
M  RAD  1   2   2
M  END
>  <reaction>  (8) 
rmg_rxn_16548

>  <mol_properties>  (8) 
{"1": {"label": "*1", "atom_type": "Cd"}, "2": {"label": "*0", "atom_type": "N3d"}, "6": {"label": "*2", "atom_type": "H0"}, "8": {"label": "*3", "atom_type": "Cs"}, "9": {"label": "*4", "atom_type": "Cs"}}

>  <type>  (8) 
unop_4

>  <geom_source>  (8) 
Heuristics

$$$$

     RDKit          3D

 25 23  0  0  0  0  0  0  0  0999 V2000
    1.3682    2.6458   -2.7210 C   0  0  0  0  0  0  0  0  0  0  0  0
    1.3682    2.6458   -1.2287 C   0  0  0  0  0  3  0  0  0  0  0  0
    1.3682    3.7184   -0.5610 N   0  0  0  0  0  0  0  0  0  0  0  0
    2.2464    2.1158   -3.0984 H   0  0  0  0  0  0  0  0  0  0  0  0
    0.4899    2.1158   -3.0984 H   0  0  0  0  0  0  0  0  0  0  0  0
    1.3682    3.6664   -3.0996 H   0  0  0  0  0  0  0  0  0  0  0  0
    1.3682    1.4582   -0.6591 H   0  0  0  0  0  0  0  0  0  0  0  0
    1.3682    3.5266    0.4387 H   0  0  0  0  0  0  0  0  0  0  0  0
    1.3682    0.2776   -0.0929 C   0  0  0  0  0  0  0  0  0  0  0  0
    0.1406   -0.5011   -0.5055 C   0  0  0  0  0  0  0  0  0  0  0  0
   -0.2398   -1.3465    0.5500 O   0  0  0  0  0  0  0  0  0  0  0  0
   -1.3794   -2.1169    0.2627 C   0  0  0  0  0  0  0  0  0  0  0  0
   -1.7314   -2.9622    1.4697 C   0  0  0  0  0  0  0  0  0  0  0  0
   -2.1079   -2.1341    2.6912 C   0  0  0  0  0  0  0  0  0  0  0  0
    1.1590    0.8802    0.7917 H   0  0  0  0  0  0  0  0  0  0  0  0
    2.1904   -0.4002    0.1392 H   0  0  0  0  0  0  0  0  0  0  0  0
    0.3480   -1.0965   -1.4070 H   0  0  0  0  0  0  0  0  0  0  0  0
   -0.6840    0.1838   -0.7528 H   0  0  0  0  0  0  0  0  0  0  0  0
   -2.2227   -1.4569    0.0046 H   0  0  0  0  0  0  0  0  0  0  0  0
   -1.1880   -2.7590   -0.6096 H   0  0  0  0  0  0  0  0  0  0  0  0
   -0.8802   -3.6076    1.7017 H   0  0  0  0  0  0  0  0  0  0  0  0
   -2.5600   -3.6188    1.1903 H   0  0  0  0  0  0  0  0  0  0  0  0
   -2.9734   -1.5009    2.4809 H   0  0  0  0  0  0  0  0  0  0  0  0
   -1.2830   -1.4863    2.9876 H   0  0  0  0  0  0  0  0  0  0  0  0
   -2.3598   -2.7749    3.5375 H   0  0  0  0  0  0  0  0  0  0  0  0
  1  2  1  0
  1  4  1  0
  1  5  1  0
  1  6  1  0
  2  3  2  3
  3  8  1  0
  7  9  1  0
  9 10  1  0
  9 15  1  0
  9 16  1  0
 10 11  1  0
 10 17  1  0
 10 18  1  0
 11 12  1  0
 12 13  1  0
 12 19  1  0
 12 20  1  0
 13 14  1  0
 13 21  1  0
 13 22  1  0
 14 23  1  0
 14 24  1  0
 14 25  1  0
M  RAD  1   2   2
M  END
>  <reaction>  (9) 
rmg_rxn_16548

>  <mol_properties>  (9) 
{"1": {"label": "*1", "atom_type": "Cd"}, "2": {"label": "*0", "atom_type": "N3d"}, "6": {"label": "*2", "atom_type": "H0"}, "8": {"label": "*3", "atom_type": "Cs"}, "9": {"label": "*4", "atom_type": "Cs"}}

>  <type>  (9) 
unop_5

>  <geom_source>  (9) 
Heuristics

$$$$

     RDKit          3D

 25 23  0  0  0  0  0  0  0  0999 V2000
   -0.1550    2.3688   -3.8145 C   0  0  0  0  0  0  0  0  0  0  0  0
   -0.1550    2.3688   -2.3221 C   0  0  0  0  0  3  0  0  0  0  0  0
   -0.1550    3.4414   -1.6545 N   0  0  0  0  0  0  0  0  0  0  0  0
    0.7232    1.8388   -4.1919 H   0  0  0  0  0  0  0  0  0  0  0  0
   -1.0333    1.8388   -4.1919 H   0  0  0  0  0  0  0  0  0  0  0  0
   -0.1550    3.3894   -4.1931 H   0  0  0  0  0  0  0  0  0  0  0  0
   -0.1550    1.1811   -1.7526 H   0  0  0  0  0  0  0  0  0  0  0  0
   -0.1550    3.2496   -0.6548 H   0  0  0  0  0  0  0  0  0  0  0  0
   -0.1550    0.0005   -1.1864 C   0  0  0  0  0  0  0  0  0  0  0  0
   -0.1550    0.1414    0.3182 C   0  0  0  0  0  0  0  0  0  0  0  0
   -0.1558   -1.1389    0.8964 O   0  0  0  0  0  0  0  0  0  0  0  0
   -0.1549   -1.1148    2.3016 C   0  0  0  0  0  0  0  0  0  0  0  0
   -0.1162   -2.5348    2.8280 C   0  0  0  0  0  0  0  0  0  0  0  0
    1.1533   -3.2821    2.4417 C   0  0  0  0  0  0  0  0  0  0  0  0
    0.7295   -0.5437   -1.5192 H   0  0  0  0  0  0  0  0  0  0  0  0
   -1.0394   -0.5438   -1.5192 H   0  0  0  0  0  0  0  0  0  0  0  0
   -1.0396    0.7042    0.6516 H   0  0  0  0  0  0  0  0  0  0  0  0
    0.7302    0.7027    0.6518 H   0  0  0  0  0  0  0  0  0  0  0  0
    0.7194   -0.5525    2.6662 H   0  0  0  0  0  0  0  0  0  0  0  0
   -1.0530   -0.5965    2.6684 H   0  0  0  0  0  0  0  0  0  0  0  0
   -0.9940   -3.0679    2.4539 H   0  0  0  0  0  0  0  0  0  0  0  0
   -0.2113   -2.4925    3.9166 H   0  0  0  0  0  0  0  0  0  0  0  0
    2.0388   -2.7728    2.8302 H   0  0  0  0  0  0  0  0  0  0  0  0
    1.2506   -3.3432    1.3578 H   0  0  0  0  0  0  0  0  0  0  0  0
    1.1487   -4.2971    2.8417 H   0  0  0  0  0  0  0  0  0  0  0  0
  1  2  1  0
  1  4  1  0
  1  5  1  0
  1  6  1  0
  2  3  2  3
  3  8  1  0
  7  9  1  0
  9 10  1  0
  9 15  1  0
  9 16  1  0
 10 11  1  0
 10 17  1  0
 10 18  1  0
 11 12  1  0
 12 13  1  0
 12 19  1  0
 12 20  1  0
 13 14  1  0
 13 21  1  0
 13 22  1  0
 14 23  1  0
 14 24  1  0
 14 25  1  0
M  RAD  1   2   2
M  END
>  <reaction>  (10) 
rmg_rxn_16548

>  <mol_properties>  (10) 
{"1": {"label": "*1", "atom_type": "Cd"}, "2": {"label": "*0", "atom_type": "N3d"}, "6": {"label": "*2", "atom_type": "H0"}, "8": {"label": "*3", "atom_type": "Cs"}, "9": {"label": "*4", "atom_type": "Cs"}}

>  <type>  (10) 
unop_6

>  <geom_source>  (10) 
Heuristics

$$$$

     RDKit          3D

 25 23  0  0  0  0  0  0  0  0999 V2000
    1.2189    2.2266   -3.3888 C   0  0  0  0  0  0  0  0  0  0  0  0
    1.2189    2.2266   -1.8964 C   0  0  0  0  0  3  0  0  0  0  0  0
    1.2189    3.2992   -1.2287 N   0  0  0  0  0  0  0  0  0  0  0  0
    2.0972    1.6966   -3.7662 H   0  0  0  0  0  0  0  0  0  0  0  0
    0.3407    1.6966   -3.7662 H   0  0  0  0  0  0  0  0  0  0  0  0
    1.2189    3.2472   -3.7674 H   0  0  0  0  0  0  0  0  0  0  0  0
    1.2189    1.0390   -1.3269 H   0  0  0  0  0  0  0  0  0  0  0  0
    1.2189    3.1074   -0.2291 H   0  0  0  0  0  0  0  0  0  0  0  0
    1.2189   -0.1416   -0.7606 C   0  0  0  0  0  0  0  0  0  0  0  0
   -0.1986   -0.6138   -0.5342 C   0  0  0  0  0  0  0  0  0  0  0  0
   -0.2695   -1.2657    0.7082 O   0  0  0  0  0  0  0  0  0  0  0  0
   -1.5554   -1.7437    1.0130 C   0  0  0  0  0  0  0  0  0  0  0  0
   -1.5383   -2.3926    2.3819 C   0  0  0  0  0  0  0  0  0  0  0  0
   -1.1996   -1.4181    3.5021 C   0  0  0  0  0  0  0  0  0  0  0  0
    1.5211    0.5511    0.0256 H   0  0  0  0  0  0  0  0  0  0  0  0
    1.9082   -0.9868   -0.7582 H   0  0  0  0  0  0  0  0  0  0  0  0
   -0.5079   -1.3002   -1.3363 H   0  0  0  0  0  0  0  0  0  0  0  0
   -0.8948    0.2377   -0.5508 H   0  0  0  0  0  0  0  0  0  0  0  0
   -2.2777   -0.9121    0.9979 H   0  0  0  0  0  0  0  0  0  0  0  0
   -1.8763   -2.4693    0.2512 H   0  0  0  0  0  0  0  0  0  0  0  0
   -0.8170   -3.2137    2.3679 H   0  0  0  0  0  0  0  0  0  0  0  0
   -2.5220   -2.8379    2.5552 H   0  0  0  0  0  0  0  0  0  0  0  0
   -1.9273   -0.6037    3.5433 H   0  0  0  0  0  0  0  0  0  0  0  0
   -0.2141   -0.9792    3.3472 H   0  0  0  0  0  0  0  0  0  0  0  0
   -1.2019   -1.9182    4.4717 H   0  0  0  0  0  0  0  0  0  0  0  0
  1  2  1  0
  1  4  1  0
  1  5  1  0
  1  6  1  0
  2  3  2  3
  3  8  1  0
  7  9  1  0
  9 10  1  0
  9 15  1  0
  9 16  1  0
 10 11  1  0
 10 17  1  0
 10 18  1  0
 11 12  1  0
 12 13  1  0
 12 19  1  0
 12 20  1  0
 13 14  1  0
 13 21  1  0
 13 22  1  0
 14 23  1  0
 14 24  1  0
 14 25  1  0
M  RAD  1   2   2
M  END
>  <reaction>  (11) 
rmg_rxn_16548

>  <mol_properties>  (11) 
{"1": {"label": "*1", "atom_type": "Cd"}, "2": {"label": "*0", "atom_type": "N3d"}, "6": {"label": "*2", "atom_type": "H0"}, "8": {"label": "*3", "atom_type": "Cs"}, "9": {"label": "*4", "atom_type": "Cs"}}

>  <type>  (11) 
unop_7

>  <geom_source>  (11) 
Heuristics

$$$$

     RDKit          3D

 25 23  0  0  0  0  0  0  0  0999 V2000
    0.6645    2.0043   -3.8454 C   0  0  0  0  0  0  0  0  0  0  0  0
    0.6645    2.0043   -2.3531 C   0  0  0  0  0  3  0  0  0  0  0  0
    0.6645    3.0769   -1.6854 N   0  0  0  0  0  0  0  0  0  0  0  0
    1.5428    1.4743   -4.2228 H   0  0  0  0  0  0  0  0  0  0  0  0
   -0.2137    1.4743   -4.2228 H   0  0  0  0  0  0  0  0  0  0  0  0
    0.6645    3.0249   -4.2240 H   0  0  0  0  0  0  0  0  0  0  0  0
    0.6645    0.8167   -1.7835 H   0  0  0  0  0  0  0  0  0  0  0  0
    0.6645    2.8851   -0.6857 H   0  0  0  0  0  0  0  0  0  0  0  0
    0.6645   -0.3639   -1.2173 C   0  0  0  0  0  0  0  0  0  0  0  0
   -0.5631   -0.5296   -0.3518 C   0  0  0  0  0  0  0  0  0  0  0  0
   -0.2043   -1.2101    0.8237 O   0  0  0  0  0  0  0  0  0  0  0  0
   -1.2837   -1.4136    1.7002 C   0  0  0  0  0  0  0  0  0  0  0  0
   -0.7910   -2.1162    2.9488 C   0  0  0  0  0  0  0  0  0  0  0  0
    0.2158   -1.2929    3.7411 C   0  0  0  0  0  0  0  0  0  0  0  0
    1.4289    0.2086   -0.6907 H   0  0  0  0  0  0  0  0  0  0  0  0
    1.0822   -1.3369   -1.4783 H   0  0  0  0  0  0  0  0  0  0  0  0
   -1.3395   -1.0936   -0.8897 H   0  0  0  0  0  0  0  0  0  0  0  0
   -0.9917    0.4519   -0.1005 H   0  0  0  0  0  0  0  0  0  0  0  0
   -1.7386   -0.4461    1.9656 H   0  0  0  0  0  0  0  0  0  0  0  0
   -2.0604   -2.0152    1.2056 H   0  0  0  0  0  0  0  0  0  0  0  0
   -0.3478   -3.0719    2.6573 H   0  0  0  0  0  0  0  0  0  0  0  0
   -1.6608   -2.3467    3.5702 H   0  0  0  0  0  0  0  0  0  0  0  0
   -0.2220   -0.3437    4.0600 H   0  0  0  0  0  0  0  0  0  0  0  0
    1.0941   -1.0700    3.1354 H   0  0  0  0  0  0  0  0  0  0  0  0
    0.5436   -1.8270    4.6342 H   0  0  0  0  0  0  0  0  0  0  0  0
  1  2  1  0
  1  4  1  0
  1  5  1  0
  1  6  1  0
  2  3  2  3
  3  8  1  0
  7  9  1  0
  9 10  1  0
  9 15  1  0
  9 16  1  0
 10 11  1  0
 10 17  1  0
 10 18  1  0
 11 12  1  0
 12 13  1  0
 12 19  1  0
 12 20  1  0
 13 14  1  0
 13 21  1  0
 13 22  1  0
 14 23  1  0
 14 24  1  0
 14 25  1  0
M  RAD  1   2   2
M  END
>  <reaction>  (12) 
rmg_rxn_16548

>  <mol_properties>  (12) 
{"1": {"label": "*1", "atom_type": "Cd"}, "2": {"label": "*0", "atom_type": "N3d"}, "6": {"label": "*2", "atom_type": "H0"}, "8": {"label": "*3", "atom_type": "Cs"}, "9": {"label": "*4", "atom_type": "Cs"}}

>  <type>  (12) 
unop_8

>  <geom_source>  (12) 
Heuristics

$$$$

     RDKit          3D

 25 23  0  0  0  0  0  0  0  0999 V2000
   -1.1511    2.4961   -3.2514 C   0  0  0  0  0  0  0  0  0  0  0  0
   -1.1511    2.4961   -1.7591 C   0  0  0  0  0  3  0  0  0  0  0  0
   -1.1511    3.5687   -1.0914 N   0  0  0  0  0  0  0  0  0  0  0  0
   -0.2728    1.9661   -3.6288 H   0  0  0  0  0  0  0  0  0  0  0  0
   -2.0294    1.9661   -3.6288 H   0  0  0  0  0  0  0  0  0  0  0  0
   -1.1511    3.5167   -3.6300 H   0  0  0  0  0  0  0  0  0  0  0  0
   -1.1511    1.3085   -1.1895 H   0  0  0  0  0  0  0  0  0  0  0  0
   -1.1511    3.3769   -0.0917 H   0  0  0  0  0  0  0  0  0  0  0  0
   -1.1511    0.1279   -0.6233 C   0  0  0  0  0  0  0  0  0  0  0  0
    0.2664   -0.3443   -0.3968 C   0  0  0  0  0  0  0  0  0  0  0  0
    0.3377   -0.9949    0.8462 O   0  0  0  0  0  0  0  0  0  0  0  0
    1.6232   -1.4744    1.1503 C   0  0  0  0  0  0  0  0  0  0  0  0
    1.5892   -2.1906    2.4849 C   0  0  0  0  0  0  0  0  0  0  0  0
    0.6950   -3.4234    2.4801 C   0  0  0  0  0  0  0  0  0  0  0  0
   -1.8403   -0.7173   -0.6209 H   0  0  0  0  0  0  0  0  0  0  0  0
   -1.4534    0.8205    0.1630 H   0  0  0  0  0  0  0  0  0  0  0  0
    0.9628    0.5073   -0.4151 H   0  0  0  0  0  0  0  0  0  0  0  0
    0.5752   -1.0319   -1.1979 H   0  0  0  0  0  0  0  0  0  0  0  0
    1.9629   -2.1629    0.3604 H   0  0  0  0  0  0  0  0  0  0  0  0
    2.3371   -0.6383    1.1844 H   0  0  0  0  0  0  0  0  0  0  0  0
    1.2519   -1.4854    3.2488 H   0  0  0  0  0  0  0  0  0  0  0  0
    2.6144   -2.4704    2.7425 H   0  0  0  0  0  0  0  0  0  0  0  0
    1.0352   -4.1485    1.7366 H   0  0  0  0  0  0  0  0  0  0  0  0
   -0.3331   -3.1536    2.2389 H   0  0  0  0  0  0  0  0  0  0  0  0
    0.6993   -3.9154    3.4538 H   0  0  0  0  0  0  0  0  0  0  0  0
  1  2  1  0
  1  4  1  0
  1  5  1  0
  1  6  1  0
  2  3  2  3
  3  8  1  0
  7  9  1  0
  9 10  1  0
  9 15  1  0
  9 16  1  0
 10 11  1  0
 10 17  1  0
 10 18  1  0
 11 12  1  0
 12 13  1  0
 12 19  1  0
 12 20  1  0
 13 14  1  0
 13 21  1  0
 13 22  1  0
 14 23  1  0
 14 24  1  0
 14 25  1  0
M  RAD  1   2   2
M  END
>  <reaction>  (13) 
rmg_rxn_16548

>  <mol_properties>  (13) 
{"1": {"label": "*1", "atom_type": "Cd"}, "2": {"label": "*0", "atom_type": "N3d"}, "6": {"label": "*2", "atom_type": "H0"}, "8": {"label": "*3", "atom_type": "Cs"}, "9": {"label": "*4", "atom_type": "Cs"}}

>  <type>  (13) 
unop_9

>  <geom_source>  (13) 
Heuristics

$$$$

     RDKit          3D

 25 23  0  0  0  0  0  0  0  0999 V2000
   -3.4140    1.0956    0.5974 C   0  0  0  0  0  0  0  0  0  0  0  0
   -2.1565    0.6555   -0.0454 C   0  0  0  0  0  3  0  0  0  0  0  0
   -1.5306    1.2867   -0.9100 N   0  0  0  0  0  0  0  0  0  0  0  0
   -4.1895    0.3538    0.4112 H   0  0  0  0  0  0  0  0  0  0  0  0
   -3.2654    1.1571    1.6747 H   0  0  0  0  0  0  0  0  0  0  0  0
   -3.7399    2.0649    0.2190 H   0  0  0  0  0  0  0  0  0  0  0  0
   -1.7010   -0.5438    0.3972 H   0  0  0  0  0  0  0  0  0  0  0  0
   -0.6757    0.8704   -1.2719 H   0  0  0  0  0  0  0  0  0  0  0  0
   -1.1475   -1.6713    0.7328 C   0  0  0  0  0  0  0  0  0  0  0  0
   -0.1123   -1.9618   -0.3331 C   0  0  0  0  0  0  0  0  0  0  0  0
    0.6584   -0.8313   -0.7051 O   0  0  0  0  0  0  0  0  0  0  0  0
    1.5806   -0.3988    0.2716 C   0  0  0  0  0  0  0  0  0  0  0  0
    2.4316    0.7168   -0.3254 C   0  0  0  0  0  0  0  0  0  0  0  0
    3.4798    1.2112    0.6619 C   0  0  0  0  0  0  0  0  0  0  0  0
   -1.9248   -2.4259    0.7544 H   0  0  0  0  0  0  0  0  0  0  0  0
   -0.7194   -1.5326    1.7203 H   0  0  0  0  0  0  0  0  0  0  0  0
   -0.6072   -2.2674   -1.2593 H   0  0  0  0  0  0  0  0  0  0  0  0
    0.5670   -2.7740   -0.0176 H   0  0  0  0  0  0  0  0  0  0  0  0
    1.0558   -0.0274    1.1638 H   0  0  0  0  0  0  0  0  0  0  0  0
    2.2199   -1.2424    0.5777 H   0  0  0  0  0  0  0  0  0  0  0  0
    1.7750    1.5391   -0.6147 H   0  0  0  0  0  0  0  0  0  0  0  0
    2.9130    0.3403   -1.2293 H   0  0  0  0  0  0  0  0  0  0  0  0
    4.1488    0.4025    0.9482 H   0  0  0  0  0  0  0  0  0  0  0  0
    3.0052    1.5978    1.5613 H   0  0  0  0  0  0  0  0  0  0  0  0
    4.0722    2.0064    0.2169 H   0  0  0  0  0  0  0  0  0  0  0  0
  1  2  1  0
  1  4  1  0
  1  5  1  0
  1  6  1  0
  2  3  2  3
  3  8  1  0
  7  9  1  0
  9 10  1  0
  9 15  1  0
  9 16  1  0
 10 11  1  0
 10 17  1  0
 10 18  1  0
 11 12  1  0
 12 13  1  0
 12 19  1  0
 12 20  1  0
 13 14  1  0
 13 21  1  0
 13 22  1  0
 14 23  1  0
 14 24  1  0
 14 25  1  0
M  RAD  1   2   2
M  END
>  <reaction>  (14) 
rmg_rxn_16548

>  <mol_properties>  (14) 
{"1": {"label": "*1", "atom_type": "Cd"}, "2": {"label": "*0", "atom_type": "N3d"}, "6": {"label": "*2", "atom_type": "H0"}, "8": {"label": "*3", "atom_type": "Cs"}, "9": {"label": "*4", "atom_type": "Cs"}}

>  <type>  (14) 
unop_10

>  <geom_source>  (14) 
Heuristics

$$$$

     RDKit          3D

 25 23  0  0  0  0  0  0  0  0999 V2000
    0.9786    3.0854   -2.1032 C   0  0  0  0  0  0  0  0  0  0  0  0
    0.9786    3.0854   -0.6109 C   0  0  0  0  0  3  0  0  0  0  0  0
    0.9786    4.1580    0.0568 N   0  0  0  0  0  0  0  0  0  0  0  0
    1.8569    2.5554   -2.4806 H   0  0  0  0  0  0  0  0  0  0  0  0
    0.1004    2.5554   -2.4806 H   0  0  0  0  0  0  0  0  0  0  0  0
    0.9786    4.1060   -2.4818 H   0  0  0  0  0  0  0  0  0  0  0  0
    0.9786    1.8977   -0.0413 H   0  0  0  0  0  0  0  0  0  0  0  0
    0.9786    3.9662    1.0565 H   0  0  0  0  0  0  0  0  0  0  0  0
    0.9786    0.7171    0.5249 C   0  0  0  0  0  0  0  0  0  0  0  0
    0.2699   -0.2859   -0.3555 C   0  0  0  0  0  0  0  0  0  0  0  0
   -0.0825   -1.4040    0.4186 O   0  0  0  0  0  0  0  0  0  0  0  0
   -0.7517   -2.3992   -0.3140 C   0  0  0  0  0  0  0  0  0  0  0  0
   -1.1225   -3.5400    0.6115 C   0  0  0  0  0  0  0  0  0  0  0  0
   -2.0967   -3.1291    1.7075 C   0  0  0  0  0  0  0  0  0  0  0  0
    0.3287    1.0361    1.3406 H   0  0  0  0  0  0  0  0  0  0  0  0
    1.8800    0.2787    0.9546 H   0  0  0  0  0  0  0  0  0  0  0  0
    0.9207   -0.5951   -1.1869 H   0  0  0  0  0  0  0  0  0  0  0  0
   -0.6316    0.1616   -0.7995 H   0  0  0  0  0  0  0  0  0  0  0  0
   -1.6582   -1.9782   -0.7769 H   0  0  0  0  0  0  0  0  0  0  0  0
   -0.1076   -2.7627   -1.1281 H   0  0  0  0  0  0  0  0  0  0  0  0
   -0.2065   -3.9397    1.0541 H   0  0  0  0  0  0  0  0  0  0  0  0
   -1.5554   -4.3391    0.0034 H   0  0  0  0  0  0  0  0  0  0  0  0
   -3.0277   -2.7494    1.2791 H   0  0  0  0  0  0  0  0  0  0  0  0
   -1.6690   -2.3428    2.3294 H   0  0  0  0  0  0  0  0  0  0  0  0
   -2.3447   -3.9753    2.3499 H   0  0  0  0  0  0  0  0  0  0  0  0
  1  2  1  0
  1  4  1  0
  1  5  1  0
  1  6  1  0
  2  3  2  3
  3  8  1  0
  7  9  1  0
  9 10  1  0
  9 15  1  0
  9 16  1  0
 10 11  1  0
 10 17  1  0
 10 18  1  0
 11 12  1  0
 12 13  1  0
 12 19  1  0
 12 20  1  0
 13 14  1  0
 13 21  1  0
 13 22  1  0
 14 23  1  0
 14 24  1  0
 14 25  1  0
M  RAD  1   2   2
M  END
>  <reaction>  (15) 
rmg_rxn_16548

>  <mol_properties>  (15) 
{"1": {"label": "*1", "atom_type": "Cd"}, "2": {"label": "*0", "atom_type": "N3d"}, "6": {"label": "*2", "atom_type": "H0"}, "8": {"label": "*3", "atom_type": "Cs"}, "9": {"label": "*4", "atom_type": "Cs"}}

>  <type>  (15) 
unop_11

>  <geom_source>  (15) 
Heuristics

$$$$

     RDKit          3D

 25 23  0  0  0  0  0  0  0  0999 V2000
   -1.1874    2.8702   -2.6066 C   0  0  0  0  0  0  0  0  0  0  0  0
   -1.1874    2.8702   -1.1143 C   0  0  0  0  0  3  0  0  0  0  0  0
   -1.1874    3.9428   -0.4466 N   0  0  0  0  0  0  0  0  0  0  0  0
   -0.3091    2.3402   -2.9840 H   0  0  0  0  0  0  0  0  0  0  0  0
   -2.0657    2.3402   -2.9840 H   0  0  0  0  0  0  0  0  0  0  0  0
   -1.1874    3.8908   -2.9852 H   0  0  0  0  0  0  0  0  0  0  0  0
   -1.1874    1.6826   -0.5447 H   0  0  0  0  0  0  0  0  0  0  0  0
   -1.1874    3.7510    0.5531 H   0  0  0  0  0  0  0  0  0  0  0  0
   -1.1874    0.5020    0.0215 C   0  0  0  0  0  0  0  0  0  0  0  0
    0.0402   -0.2766   -0.3911 C   0  0  0  0  0  0  0  0  0  0  0  0
    0.4214   -1.1210    0.6650 O   0  0  0  0  0  0  0  0  0  0  0  0
    1.5601   -1.8927    0.3770 C   0  0  0  0  0  0  0  0  0  0  0  0
    1.8669   -2.7940    1.5555 C   0  0  0  0  0  0  0  0  0  0  0  0
    0.7629   -3.8037    1.8402 C   0  0  0  0  0  0  0  0  0  0  0  0
   -2.0097   -0.1758    0.2534 H   0  0  0  0  0  0  0  0  0  0  0  0
   -0.9783    1.1045    0.9061 H   0  0  0  0  0  0  0  0  0  0  0  0
    0.8643    0.4084   -0.6400 H   0  0  0  0  0  0  0  0  0  0  0  0
   -0.1676   -0.8733   -1.2916 H   0  0  0  0  0  0  0  0  0  0  0  0
    1.3838   -2.4983   -0.5261 H   0  0  0  0  0  0  0  0  0  0  0  0
    2.4161   -1.2346    0.1674 H   0  0  0  0  0  0  0  0  0  0  0  0
    2.0395   -2.1686    2.4351 H   0  0  0  0  0  0  0  0  0  0  0  0
    2.8065   -3.3128    1.3462 H   0  0  0  0  0  0  0  0  0  0  0  0
    0.5958   -4.4522    0.9766 H   0  0  0  0  0  0  0  0  0  0  0  0
   -0.1755   -3.2967    2.0648 H   0  0  0  0  0  0  0  0  0  0  0  0
    1.0202   -4.4377    2.6900 H   0  0  0  0  0  0  0  0  0  0  0  0
  1  2  1  0
  1  4  1  0
  1  5  1  0
  1  6  1  0
  2  3  2  3
  3  8  1  0
  7  9  1  0
  9 10  1  0
  9 15  1  0
  9 16  1  0
 10 11  1  0
 10 17  1  0
 10 18  1  0
 11 12  1  0
 12 13  1  0
 12 19  1  0
 12 20  1  0
 13 14  1  0
 13 21  1  0
 13 22  1  0
 14 23  1  0
 14 24  1  0
 14 25  1  0
M  RAD  1   2   2
M  END
>  <reaction>  (16) 
rmg_rxn_16548

>  <mol_properties>  (16) 
{"1": {"label": "*1", "atom_type": "Cd"}, "2": {"label": "*0", "atom_type": "N3d"}, "6": {"label": "*2", "atom_type": "H0"}, "8": {"label": "*3", "atom_type": "Cs"}, "9": {"label": "*4", "atom_type": "Cs"}}

>  <type>  (16) 
unop_12

>  <geom_source>  (16) 
Heuristics

$$$$

     RDKit          3D

 25 23  0  0  0  0  0  0  0  0999 V2000
    0.0380    2.1020   -3.9397 C   0  0  0  0  0  0  0  0  0  0  0  0
    0.0380    2.1020   -2.4474 C   0  0  0  0  0  3  0  0  0  0  0  0
    0.0380    3.1746   -1.7797 N   0  0  0  0  0  0  0  0  0  0  0  0
    0.9163    1.5720   -4.3171 H   0  0  0  0  0  0  0  0  0  0  0  0
   -0.8402    1.5720   -4.3171 H   0  0  0  0  0  0  0  0  0  0  0  0
    0.0380    3.1226   -4.3183 H   0  0  0  0  0  0  0  0  0  0  0  0
    0.0380    0.9143   -1.8778 H   0  0  0  0  0  0  0  0  0  0  0  0
    0.0380    2.9828   -0.7800 H   0  0  0  0  0  0  0  0  0  0  0  0
    0.0380   -0.2663   -1.3116 C   0  0  0  0  0  0  0  0  0  0  0  0
   -0.6707   -0.2076    0.0217 C   0  0  0  0  0  0  0  0  0  0  0  0
   -0.1369   -1.1952    0.8662 O   0  0  0  0  0  0  0  0  0  0  0  0
   -0.7333   -1.2210    2.1385 C   0  0  0  0  0  0  0  0  0  0  0  0
   -0.0667   -2.2870    2.9839 C   0  0  0  0  0  0  0  0  0  0  0  0
    1.4087   -2.0111    3.2411 C   0  0  0  0  0  0  0  0  0  0  0  0
    1.1067   -0.0899   -1.1843 H   0  0  0  0  0  0  0  0  0  0  0  0
   -0.0966   -1.2451   -1.7731 H   0  0  0  0  0  0  0  0  0  0  0  0
   -1.7509   -0.3700   -0.1096 H   0  0  0  0  0  0  0  0  0  0  0  0
   -0.5461    0.7846    0.4801 H   0  0  0  0  0  0  0  0  0  0  0  0
   -0.6296   -0.2363    2.6211 H   0  0  0  0  0  0  0  0  0  0  0  0
   -1.8096   -1.4271    2.0441 H   0  0  0  0  0  0  0  0  0  0  0  0
   -0.1866   -3.2517    2.4841 H   0  0  0  0  0  0  0  0  0  0  0  0
   -0.6083   -2.3517    3.9317 H   0  0  0  0  0  0  0  0  0  0  0  0
    1.5421   -1.0598    3.7623 H   0  0  0  0  0  0  0  0  0  0  0  0
    1.9611   -1.9593    2.3029 H   0  0  0  0  0  0  0  0  0  0  0  0
    1.8533   -2.7949    3.8562 H   0  0  0  0  0  0  0  0  0  0  0  0
  1  2  1  0
  1  4  1  0
  1  5  1  0
  1  6  1  0
  2  3  2  3
  3  8  1  0
  7  9  1  0
  9 10  1  0
  9 15  1  0
  9 16  1  0
 10 11  1  0
 10 17  1  0
 10 18  1  0
 11 12  1  0
 12 13  1  0
 12 19  1  0
 12 20  1  0
 13 14  1  0
 13 21  1  0
 13 22  1  0
 14 23  1  0
 14 24  1  0
 14 25  1  0
M  RAD  1   2   2
M  END
>  <reaction>  (17) 
rmg_rxn_16548

>  <mol_properties>  (17) 
{"1": {"label": "*1", "atom_type": "Cd"}, "2": {"label": "*0", "atom_type": "N3d"}, "6": {"label": "*2", "atom_type": "H0"}, "8": {"label": "*3", "atom_type": "Cs"}, "9": {"label": "*4", "atom_type": "Cs"}}

>  <type>  (17) 
unop_13

>  <geom_source>  (17) 
Heuristics

$$$$

     RDKit          3D

 25 23  0  0  0  0  0  0  0  0999 V2000
    0.1550    3.3232   -1.8244 C   0  0  0  0  0  0  0  0  0  0  0  0
    0.1550    3.3232   -0.3320 C   0  0  0  0  0  3  0  0  0  0  0  0
    0.1550    4.3958    0.3356 N   0  0  0  0  0  0  0  0  0  0  0  0
    1.0333    2.7932   -2.2018 H   0  0  0  0  0  0  0  0  0  0  0  0
   -0.7232    2.7932   -2.2018 H   0  0  0  0  0  0  0  0  0  0  0  0
    0.1550    4.3438   -2.2030 H   0  0  0  0  0  0  0  0  0  0  0  0
    0.1550    2.1356    0.2375 H   0  0  0  0  0  0  0  0  0  0  0  0
    0.1550    4.2040    1.3353 H   0  0  0  0  0  0  0  0  0  0  0  0
    0.1550    0.9550    0.8037 C   0  0  0  0  0  0  0  0  0  0  0  0
    0.1550   -0.1301   -0.2480 C   0  0  0  0  0  0  0  0  0  0  0  0
    0.1558   -1.3825    0.3885 O   0  0  0  0  0  0  0  0  0  0  0  0
    0.1549   -2.4632   -0.5100 C   0  0  0  0  0  0  0  0  0  0  0  0
    0.1162   -3.7627    0.2679 C   0  0  0  0  0  0  0  0  0  0  0  0
   -1.1533   -3.9292    1.0925 C   0  0  0  0  0  0  0  0  0  0  0  0
   -0.7295    0.8738    1.4365 H   0  0  0  0  0  0  0  0  0  0  0  0
    1.0394    0.8738    1.4366 H   0  0  0  0  0  0  0  0  0  0  0  0
    1.0396   -0.0378   -0.8956 H   0  0  0  0  0  0  0  0  0  0  0  0
   -0.7302   -0.0390   -0.8945 H   0  0  0  0  0  0  0  0  0  0  0  0
   -0.7194   -2.3955   -1.1767 H   0  0  0  0  0  0  0  0  0  0  0  0
    1.0530   -2.4248   -1.1437 H   0  0  0  0  0  0  0  0  0  0  0  0
    0.9940   -3.8046    0.9178 H   0  0  0  0  0  0  0  0  0  0  0  0
    0.2113   -4.5851   -0.4466 H   0  0  0  0  0  0  0  0  0  0  0  0
   -2.0388   -3.9133    0.4521 H   0  0  0  0  0  0  0  0  0  0  0  0
   -1.2506   -3.1222    1.8186 H   0  0  0  0  0  0  0  0  0  0  0  0
   -1.1486   -4.8765    1.6335 H   0  0  0  0  0  0  0  0  0  0  0  0
  1  2  1  0
  1  4  1  0
  1  5  1  0
  1  6  1  0
  2  3  2  3
  3  8  1  0
  7  9  1  0
  9 10  1  0
  9 15  1  0
  9 16  1  0
 10 11  1  0
 10 17  1  0
 10 18  1  0
 11 12  1  0
 12 13  1  0
 12 19  1  0
 12 20  1  0
 13 14  1  0
 13 21  1  0
 13 22  1  0
 14 23  1  0
 14 24  1  0
 14 25  1  0
M  RAD  1   2   2
M  END
>  <reaction>  (18) 
rmg_rxn_16548

>  <mol_properties>  (18) 
{"1": {"label": "*1", "atom_type": "Cd"}, "2": {"label": "*0", "atom_type": "N3d"}, "6": {"label": "*2", "atom_type": "H0"}, "8": {"label": "*3", "atom_type": "Cs"}, "9": {"label": "*4", "atom_type": "Cs"}}

>  <type>  (18) 
unop_14

>  <geom_source>  (18) 
Heuristics

$$$$

     RDKit          3D

 25 23  0  0  0  0  0  0  0  0999 V2000
    1.4481    0.0114   -0.8571 O   0  0  0  0  0  0  0  0  0  0  0  0
   -4.0129   -0.3847   -1.5580 N   0  0  0  0  0  0  0  0  0  0  0  0
    2.9126    0.0272    1.0828 C   0  0  0  0  0  0  0  0  0  0  0  0
    2.5404   -0.6482   -0.2425 C   0  0  0  0  0  0  0  0  0  0  0  0
    0.2334   -0.6314   -0.5316 C   0  0  0  0  0  0  0  0  0  0  0  0
    3.3155    1.4871    0.8861 C   0  0  0  0  0  0  0  0  0  0  0  0
   -0.9259    0.1847   -1.0779 C   0  0  0  0  0  3  0  0  0  0  0  0
   -4.0934   -0.1640    0.8394 C   0  0  0  0  0  0  0  0  0  0  0  0
   -3.3714   -0.3763   -0.4488 C   0  0  0  0  0  0  0  0  0  0  0  0
    3.7649   -0.5214    1.5389 H   0  0  0  0  0  0  0  0  0  0  0  0
    2.0569   -0.0257    1.7890 H   0  0  0  0  0  0  0  0  0  0  0  0
    0.1951   -1.6435   -0.9931 H   0  0  0  0  0  0  0  0  0  0  0  0
    0.1040   -0.7205    0.5705 H   0  0  0  0  0  0  0  0  0  0  0  0
    2.3622   -1.7367   -0.0711 H   0  0  0  0  0  0  0  0  0  0  0  0
    3.4111   -0.5878   -0.9299 H   0  0  0  0  0  0  0  0  0  0  0  0
   -0.8415    0.2756   -2.1817 H   0  0  0  0  0  0  0  0  0  0  0  0
   -0.9229    1.1994   -0.6260 H   0  0  0  0  0  0  0  0  0  0  0  0
   -2.1084   -0.4382   -0.7700 H   0  0  0  0  0  0  0  0  0  0  0  0
    4.1775    1.5597    0.1893 H   0  0  0  0  0  0  0  0  0  0  0  0
    2.4641    2.0737    0.4803 H   0  0  0  0  0  0  0  0  0  0  0  0
    3.6111    1.9249    1.8627 H   0  0  0  0  0  0  0  0  0  0  0  0
   -4.6000    0.8239    0.8300 H   0  0  0  0  0  0  0  0  0  0  0  0
   -4.8469   -0.9660    0.9864 H   0  0  0  0  0  0  0  0  0  0  0  0
   -3.3651   -0.1914    1.6757 H   0  0  0  0  0  0  0  0  0  0  0  0
   -3.5084   -0.5317   -2.4432 H   0  0  0  0  0  0  0  0  0  0  0  0
  1  5  1  0
  1  4  1  0
  2  9  2  3
  2 25  1  0
  3  6  1  0
  3  4  1  0
  3 10  1  0
  3 11  1  0
  4 14  1  0
  4 15  1  0
  5  7  1  0
  5 12  1  0
  5 13  1  0
  6 19  1  0
  6 20  1  0
  6 21  1  0
  7 16  1  0
  7 17  1  0
  8  9  1  0
  8 22  1  0
  8 23  1  0
  8 24  1  0
  9 18  1  0
M  RAD  1   7   2
M  END
>  <reaction>  (19) 
rmg_rxn_16548

>  <mol_properties>  (19) 
{"1": {"label": "*1", "atom_type": "Cd"}, "2": {"label": "*0", "atom_type": "N3d"}, "6": {"label": "*2", "atom_type": "H0"}, "8": {"label": "*3", "atom_type": "Cs"}, "9": {"label": "*4", "atom_type": "Cs"}}

>  <type>  (19) 
unop_15

>  <geom_source>  (19) 
AutoTST

$$$$

     RDKit          3D

 25 23  0  0  0  0  0  0  0  0999 V2000
   -0.7067    3.2181   -2.0355 C   0  0  0  0  0  0  0  0  0  0  0  0
   -0.7067    3.2181   -0.5432 C   0  0  0  0  0  3  0  0  0  0  0  0
   -0.7067    4.2907    0.1245 N   0  0  0  0  0  0  0  0  0  0  0  0
    0.1715    2.6881   -2.4129 H   0  0  0  0  0  0  0  0  0  0  0  0
   -1.5850    2.6881   -2.4129 H   0  0  0  0  0  0  0  0  0  0  0  0
   -0.7067    4.2387   -2.4141 H   0  0  0  0  0  0  0  0  0  0  0  0
   -0.7067    2.0305    0.0264 H   0  0  0  0  0  0  0  0  0  0  0  0
   -0.7067    4.0989    1.1241 H   0  0  0  0  0  0  0  0  0  0  0  0
   -0.7067    0.8499    0.5926 C   0  0  0  0  0  0  0  0  0  0  0  0
    0.0020   -0.1531   -0.2879 C   0  0  0  0  0  0  0  0  0  0  0  0
    0.3557   -1.2706    0.4866 O   0  0  0  0  0  0  0  0  0  0  0  0
    1.0234   -2.2666   -0.2464 C   0  0  0  0  0  0  0  0  0  0  0  0
    1.3262   -3.4405    0.6622 C   0  0  0  0  0  0  0  0  0  0  0  0
    0.0739   -4.1167    1.2042 C   0  0  0  0  0  0  0  0  0  0  0  0
   -1.6082    0.4115    1.0222 H   0  0  0  0  0  0  0  0  0  0  0  0
   -0.0569    1.1688    1.4083 H   0  0  0  0  0  0  0  0  0  0  0  0
    0.9027    0.2950   -0.7332 H   0  0  0  0  0  0  0  0  0  0  0  0
   -0.6492   -0.4637   -1.1182 H   0  0  0  0  0  0  0  0  0  0  0  0
    0.3965   -2.5942   -1.0909 H   0  0  0  0  0  0  0  0  0  0  0  0
    1.9546   -1.8610   -0.6685 H   0  0  0  0  0  0  0  0  0  0  0  0
    1.9499   -3.0885    1.4880 H   0  0  0  0  0  0  0  0  0  0  0  0
    1.9261   -4.1581    0.0956 H   0  0  0  0  0  0  0  0  0  0  0  0
   -0.5482   -4.4952    0.3892 H   0  0  0  0  0  0  0  0  0  0  0  0
   -0.5244   -3.4136    1.7836 H   0  0  0  0  0  0  0  0  0  0  0  0
    0.3301   -4.9589    1.8486 H   0  0  0  0  0  0  0  0  0  0  0  0
  1  2  1  0
  1  4  1  0
  1  5  1  0
  1  6  1  0
  2  3  2  3
  3  8  1  0
  7  9  1  0
  9 10  1  0
  9 15  1  0
  9 16  1  0
 10 11  1  0
 10 17  1  0
 10 18  1  0
 11 12  1  0
 12 13  1  0
 12 19  1  0
 12 20  1  0
 13 14  1  0
 13 21  1  0
 13 22  1  0
 14 23  1  0
 14 24  1  0
 14 25  1  0
M  RAD  1   2   2
M  END
>  <reaction>  (20) 
rmg_rxn_16548

>  <mol_properties>  (20) 
{"1": {"label": "*1", "atom_type": "Cd"}, "2": {"label": "*0", "atom_type": "N3d"}, "6": {"label": "*2", "atom_type": "H0"}, "8": {"label": "*3", "atom_type": "Cs"}, "9": {"label": "*4", "atom_type": "Cs"}}

>  <type>  (20) 
unop_16

>  <geom_source>  (20) 
gaussian_log

$$$$
