
     RDKit          3D

  9  8  0  0  0  0  0  0  0  0999 V2000
   -1.0314    0.2323   -0.1227 C   0  0  0  0  0  0  0  0  0  0  0  0
    0.3094   -0.4511    0.0063 C   0  0  0  0  0  0  0  0  0  0  0  0
    0.3197   -1.7698    0.6841 N   0  0  0  0  0  0  0  0  0  0  0  0
   -0.7498   -2.1455    1.0557 O   0  0  0  0  0  0  0  0  0  0  0  0
   -1.4744    0.4198    0.8552 H   0  0  0  0  0  0  0  0  0  0  0  0
   -0.9073    1.1865   -0.6350 H   0  0  0  0  0  0  0  0  0  0  0  0
   -1.7319   -0.3778   -0.6927 H   0  0  0  0  0  0  0  0  0  0  0  0
    1.0375    0.1401    0.5713 H   0  0  0  0  0  0  0  0  0  0  0  0
    0.7826   -0.6494   -0.9609 H   0  0  0  0  0  0  0  0  0  0  0  0
  1  2  1  0
  1  5  1  0
  1  6  1  0
  1  7  1  0
  2  3  1  0
  2  8  1  0
  2  9  1  0
  3  4  2  0
M  END
>  <reaction>  (1) 
rmg_rxn_175

>  <mol_properties>  (1) 
{"1": {"label": "donator", "atom_type": "Cs"}, "7": {"label": "d_hydrogen", "atom_type": "H0"}}

>  <type>  (1) 
r1h

$$$$

     RDKit          3D

  8  7  0  0  0  0  0  0  0  0999 V2000
   -1.0336    0.3440   -0.0356 C   0  0  0  0  0  3  0  0  0  0  0  0
    0.1991   -0.4326   -0.0698 C   0  0  0  0  0  0  0  0  0  0  0  0
    0.9631   -0.0368    1.2269 N   0  0  0  0  0  0  0  0  0  0  0  0
    0.8138   -0.8074    2.1160 O   0  0  0  0  0  0  0  0  0  0  0  0
   -1.0668    1.3490   -0.4321 H   0  0  0  0  0  0  0  0  0  0  0  0
   -1.8598    0.0102    0.5774 H   0  0  0  0  0  0  0  0  0  0  0  0
    0.0447   -1.5108   -0.0264 H   0  0  0  0  0  0  0  0  0  0  0  0
    0.8639   -0.1518   -0.8851 H   0  0  0  0  0  0  0  0  0  0  0  0
  1  2  1  0
  1  5  1  0
  1  6  1  0
  2  3  1  0
  2  7  1  0
  2  8  1  0
  3  4  2  0
M  RAD  1   1   2
M  END
>  <reaction>  (2) 
rmg_rxn_175

>  <mol_properties>  (2) 
{"0": {"label": "acceptor", "atom_type": "Cs"}}

>  <type>  (2) 
r2

$$$$

     RDKit          3D

  9  8  0  0  0  0  0  0  0  0999 V2000
   -1.0314    0.2323   -0.1227 C   0  0  0  0  0  0  0  0  0  0  0  0
    0.3094   -0.4511    0.0063 C   0  0  0  0  0  0  0  0  0  0  0  0
    0.3197   -1.7698    0.6841 N   0  0  0  0  0  0  0  0  0  0  0  0
   -0.7498   -2.1455    1.0557 O   0  0  0  0  0  0  0  0  0  0  0  0
   -1.4744    0.4198    0.8552 H   0  0  0  0  0  0  0  0  0  0  0  0
   -0.9073    1.1865   -0.6350 H   0  0  0  0  0  0  0  0  0  0  0  0
   -1.7319   -0.3778   -0.6927 H   0  0  0  0  0  0  0  0  0  0  0  0
    1.0375    0.1401    0.5713 H   0  0  0  0  0  0  0  0  0  0  0  0
    0.7826   -0.6494   -0.9609 H   0  0  0  0  0  0  0  0  0  0  0  0
  1  2  1  0
  1  5  1  0
  1  6  1  0
  1  7  1  0
  2  3  1  0
  2  8  1  0
  2  9  1  0
  3  4  2  0
M  END
>  <reaction>  (3) 
rmg_rxn_175

>  <mol_properties>  (3) 
{"0": {"label": "acceptor", "atom_type": "Cs"}, "8": {"label": "a_hydrogen", "atom_type": "H0"}}

>  <type>  (3) 
r2h

$$$$

     RDKit          3D

 17 15  0  0  0  0  0  0  0  0999 V2000
    0.3852   -1.2043    0.2115 C   0  0  0  0  0  3  0  0  0  0  0  0
    1.1312   -0.1265    0.9110 C   0  0  0  0  0  0  0  0  0  0  0  0
    2.3078   -0.5590    1.7424 N   0  0  0  0  0  0  0  0  0  0  0  0
    2.5166   -1.7295    1.7486 O   0  0  0  0  0  0  0  0  0  0  0  0
    0.8538   -1.6458   -0.6618 H   0  0  0  0  0  0  0  0  0  0  0  0
   -0.1480   -1.9159    0.8333 H   0  0  0  0  0  0  0  0  0  0  0  0
    1.5533    0.6164    0.2286 H   0  0  0  0  0  0  0  0  0  0  0  0
    0.5105    0.4339    1.6170 H   0  0  0  0  0  0  0  0  0  0  0  0
   -1.2406   -0.0170   -2.5241 C   0  0  0  0  0  0  0  0  0  0  0  0
   -1.6156    0.1368   -1.0727 C   0  0  0  0  0  0  0  0  0  0  0  0
   -1.5580    1.4484   -0.4896 N   0  0  0  0  0  0  0  0  0  0  0  0
   -0.7751    2.2047   -1.0137 O   0  0  0  0  0  0  0  0  0  0  0  0
   -0.2449    0.3815   -2.7135 H   0  0  0  0  0  0  0  0  0  0  0  0
   -1.2605   -1.0712   -2.8005 H   0  0  0  0  0  0  0  0  0  0  0  0
   -1.9441    0.5189   -3.1639 H   0  0  0  0  0  0  0  0  0  0  0  0
   -0.7607   -0.4631   -0.4129 H   0  0  0  0  0  0  0  0  0  0  0  0
   -2.5479   -0.3377   -0.7707 H   0  0  0  0  0  0  0  0  0  0  0  0
  1  2  1  0
  1  5  1  0
  1  6  1  0
  2  3  1  0
  2  7  1  0
  2  8  1  0
  3  4  2  0
  9 10  1  0
  9 13  1  0
  9 14  1  0
  9 15  1  0
 10 11  1  0
 10 16  1  0
 10 17  1  0
 11 12  2  0
M  RAD  1   1   2
M  END
>  <reaction>  (4) 
rmg_rxn_175

>  <mol_properties>  (4) 
{"0": {"label": "*3", "atom_type": "Cs"}, "1": {"label": "*4", "atom_type": "Cs"}, "9": {"label": "*1", "atom_type": "Cs"}, "10": {"label": "*0", "atom_type": "N3d"}, "15": {"label": "*2", "atom_type": "H0"}}

>  <type>  (4) 
ts

$$$$

     RDKit          3D

 17 15  0  0  0  0  0  0  0  0999 V2000
    0.6418   -1.1405   -0.0276 C   0  0  0  0  0  0  0  0  0  0  0  0
    1.4248   -0.1702    0.8250 C   0  0  0  0  0  0  0  0  0  0  0  0
    1.9932   -0.7041    2.0861 N   0  0  0  0  0  0  0  0  0  0  0  0
    1.7629   -1.8575    2.2856 O   0  0  0  0  0  0  0  0  0  0  0  0
    1.2609   -1.9823   -0.3371 H   0  0  0  0  0  0  0  0  0  0  0  0
   -0.2146   -1.5404    0.5150 H   0  0  0  0  0  0  0  0  0  0  0  0
    2.2906    0.2528    0.3052 H   0  0  0  0  0  0  0  0  0  0  0  0
    0.8301    0.6902    1.1487 H   0  0  0  0  0  0  0  0  0  0  0  0
   -1.4446    0.0744   -2.5610 C   0  0  0  0  0  0  0  0  0  0  0  0
   -1.4446    0.0744   -1.0506 C   0  0  0  0  0  0  0  0  0  0  0  0
   -1.4446    1.4004   -0.3870 N   0  0  0  0  0  0  0  0  0  0  0  0
   -1.4446    2.3299   -1.1347 O   0  0  0  0  0  1  0  0  0  0  0  0
   -0.5644    0.5818   -2.9555 H   0  0  0  0  0  0  0  0  0  0  0  0
   -1.4446   -0.9527   -2.9263 H   0  0  0  0  0  0  0  0  0  0  0  0
   -2.3247    0.5818   -2.9555 H   0  0  0  0  0  0  0  0  0  0  0  0
   -0.3991   -0.5344   -0.5380 H   0  0  0  0  0  0  0  0  0  0  0  0
   -2.3158   -0.4329   -0.6234 H   0  0  0  0  0  0  0  0  0  0  0  0
  1  2  1  0
  1  5  1  0
  1  6  1  0
  1 16  1  0
  2  3  1  0
  2  7  1  0
  2  8  1  0
  3  4  2  0
  9 10  1  0
  9 13  1  0
  9 14  1  0
  9 15  1  0
 10 11  2  3
 10 17  1  0
 11 12  1  0
M  RAD  1  12   2
M  END
>  <reaction>  (5) 
rmg_rxn_175

>  <mol_properties>  (5) 
{"0": {"label": "*3", "atom_type": "Cs"}, "1": {"label": "*4", "atom_type": "Cs"}, "9": {"label": "*1", "atom_type": "Cs"}, "10": {"label": "*0", "atom_type": "N3d"}, "15": {"label": "*2", "atom_type": "H0"}}

>  <type>  (5) 
unop_1

>  <geom_source>  (5) 
Heuristics

$$$$

     RDKit          3D

 17 15  0  0  0  0  0  0  0  0999 V2000
    0.2645   -1.0188    0.6901 C   0  0  0  0  0  0  0  0  0  0  0  0
    1.4408   -0.8804   -0.2473 C   0  0  0  0  0  0  0  0  0  0  0  0
    2.7831   -1.1300    0.3309 N   0  0  0  0  0  0  0  0  0  0  0  0
    2.7796   -1.4161    1.4891 O   0  0  0  0  0  0  0  0  0  0  0  0
    0.2055   -2.0256    1.1030 H   0  0  0  0  0  0  0  0  0  0  0  0
    0.3408   -0.3219    1.5244 H   0  0  0  0  0  0  0  0  0  0  0  0
    1.3906   -1.5657   -1.0998 H   0  0  0  0  0  0  0  0  0  0  0  0
    1.5245    0.1208   -0.6827 H   0  0  0  0  0  0  0  0  0  0  0  0
   -1.8219    0.1961   -1.8434 C   0  0  0  0  0  0  0  0  0  0  0  0
   -1.8219    0.1961   -0.3329 C   0  0  0  0  0  0  0  0  0  0  0  0
   -1.8219    1.5221    0.3307 N   0  0  0  0  0  0  0  0  0  0  0  0
   -1.8219    2.4516   -0.4170 O   0  0  0  0  0  1  0  0  0  0  0  0
   -0.9417    0.7035   -2.2379 H   0  0  0  0  0  0  0  0  0  0  0  0
   -1.8219   -0.8310   -2.2087 H   0  0  0  0  0  0  0  0  0  0  0  0
   -2.7020    0.7035   -2.2379 H   0  0  0  0  0  0  0  0  0  0  0  0
   -0.7764   -0.4127    0.1797 H   0  0  0  0  0  0  0  0  0  0  0  0
   -2.6931   -0.3112    0.0943 H   0  0  0  0  0  0  0  0  0  0  0  0
  1  2  1  0
  1  5  1  0
  1  6  1  0
  1 16  1  0
  2  3  1  0
  2  7  1  0
  2  8  1  0
  3  4  2  0
  9 10  1  0
  9 13  1  0
  9 14  1  0
  9 15  1  0
 10 11  2  3
 10 17  1  0
 11 12  1  0
M  RAD  1  12   2
M  END
>  <reaction>  (6) 
rmg_rxn_175

>  <mol_properties>  (6) 
{"0": {"label": "*3", "atom_type": "Cs"}, "1": {"label": "*4", "atom_type": "Cs"}, "9": {"label": "*1", "atom_type": "Cs"}, "10": {"label": "*0", "atom_type": "N3d"}, "15": {"label": "*2", "atom_type": "H0"}}

>  <type>  (6) 
unop_2

>  <geom_source>  (6) 
Heuristics

$$$$

     RDKit          3D

 17 15  0  0  0  0  0  0  0  0999 V2000
    0.7227   -0.9265   -0.0597 C   0  0  0  0  0  0  0  0  0  0  0  0
    1.0680   -0.3041    1.2726 C   0  0  0  0  0  0  0  0  0  0  0  0
    1.7380   -1.1824    2.2616 N   0  0  0  0  0  0  0  0  0  0  0  0
    1.9305   -2.2979    1.8851 O   0  0  0  0  0  0  0  0  0  0  0  0
    1.6156   -1.2875   -0.5697 H   0  0  0  0  0  0  0  0  0  0  0  0
    0.0462   -1.7720    0.0634 H   0  0  0  0  0  0  0  0  0  0  0  0
    1.7440    0.5523    1.1816 H   0  0  0  0  0  0  0  0  0  0  0  0
    0.1905    0.0728    1.8082 H   0  0  0  0  0  0  0  0  0  0  0  0
   -1.3636    0.2884   -2.5931 C   0  0  0  0  0  0  0  0  0  0  0  0
   -1.3636    0.2884   -1.0827 C   0  0  0  0  0  0  0  0  0  0  0  0
   -1.3636    1.6144   -0.4191 N   0  0  0  0  0  0  0  0  0  0  0  0
   -1.3636    2.5439   -1.1668 O   0  0  0  0  0  1  0  0  0  0  0  0
   -0.4835    0.7958   -2.9876 H   0  0  0  0  0  0  0  0  0  0  0  0
   -1.3636   -0.7387   -2.9584 H   0  0  0  0  0  0  0  0  0  0  0  0
   -2.2438    0.7958   -2.9876 H   0  0  0  0  0  0  0  0  0  0  0  0
   -0.3182   -0.3204   -0.5701 H   0  0  0  0  0  0  0  0  0  0  0  0
   -2.2348   -0.2189   -0.6555 H   0  0  0  0  0  0  0  0  0  0  0  0
  1  2  1  0
  1  5  1  0
  1  6  1  0
  1 16  1  0
  2  3  1  0
  2  7  1  0
  2  8  1  0
  3  4  2  0
  9 10  1  0
  9 13  1  0
  9 14  1  0
  9 15  1  0
 10 11  2  3
 10 17  1  0
 11 12  1  0
M  RAD  1  12   2
M  END
>  <reaction>  (7) 
rmg_rxn_175

>  <mol_properties>  (7) 
{"0": {"label": "*3", "atom_type": "Cs"}, "1": {"label": "*4", "atom_type": "Cs"}, "9": {"label": "*1", "atom_type": "Cs"}, "10": {"label": "*0", "atom_type": "N3d"}, "15": {"label": "*2", "atom_type": "H0"}}

>  <type>  (7) 
unop_3

>  <geom_source>  (7) 
Heuristics

$$$$

     RDKit          3D

 17 15  0  0  0  0  0  0  0  0999 V2000
    0.8415   -0.3384    0.4336 C   0  0  0  0  0  0  0  0  0  0  0  0
    0.8639   -1.7776   -0.0242 C   0  0  0  0  0  0  0  0  0  0  0  0
    1.4410   -2.7652    0.9194 N   0  0  0  0  0  0  0  0  0  0  0  0
    1.8276   -2.3017    1.9484 O   0  0  0  0  0  0  0  0  0  0  0  0
    0.2573   -0.2238    1.3464 H   0  0  0  0  0  0  0  0  0  0  0  0
    1.8482    0.0270    0.6359 H   0  0  0  0  0  0  0  0  0  0  0  0
   -0.1341   -2.1728   -0.2399 H   0  0  0  0  0  0  0  0  0  0  0  0
    1.4406   -1.9247   -0.9432 H   0  0  0  0  0  0  0  0  0  0  0  0
   -1.2448    0.8766   -2.0999 C   0  0  0  0  0  0  0  0  0  0  0  0
   -1.2448    0.8766   -0.5894 C   0  0  0  0  0  0  0  0  0  0  0  0
   -1.2448    2.2025    0.0742 N   0  0  0  0  0  0  0  0  0  0  0  0
   -1.2448    3.1321   -0.6735 O   0  0  0  0  0  1  0  0  0  0  0  0
   -0.3647    1.3839   -2.4943 H   0  0  0  0  0  0  0  0  0  0  0  0
   -1.2448   -0.1506   -2.4651 H   0  0  0  0  0  0  0  0  0  0  0  0
   -2.1249    1.3839   -2.4943 H   0  0  0  0  0  0  0  0  0  0  0  0
   -0.1994    0.2678   -0.0768 H   0  0  0  0  0  0  0  0  0  0  0  0
   -2.1160    0.3693   -0.1622 H   0  0  0  0  0  0  0  0  0  0  0  0
  1  2  1  0
  1  5  1  0
  1  6  1  0
  1 16  1  0
  2  3  1  0
  2  7  1  0
  2  8  1  0
  3  4  2  0
  9 10  1  0
  9 13  1  0
  9 14  1  0
  9 15  1  0
 10 11  2  3
 10 17  1  0
 11 12  1  0
M  RAD  1  12   2
M  END
>  <reaction>  (8) 
rmg_rxn_175

>  <mol_properties>  (8) 
{"0": {"label": "*3", "atom_type": "Cs"}, "1": {"label": "*4", "atom_type": "Cs"}, "9": {"label": "*1", "atom_type": "Cs"}, "10": {"label": "*0", "atom_type": "N3d"}, "15": {"label": "*2", "atom_type": "H0"}}

>  <type>  (8) 
unop_4

>  <geom_source>  (8) 
Heuristics

$$$$

     RDKit          3D

 17 15  0  0  0  0  0  0  0  0999 V2000
    0.6805   -0.8542   -0.0191 C   0  0  0  0  0  0  0  0  0  0  0  0
    0.6034   -0.8093    1.4887 C   0  0  0  0  0  0  0  0  0  0  0  0
    1.7133   -1.4557    2.2295 N   0  0  0  0  0  0  0  0  0  0  0  0
    2.5534   -1.9448    1.5380 O   0  0  0  0  0  0  0  0  0  0  0  0
    1.5812   -0.3602   -0.3829 H   0  0  0  0  0  0  0  0  0  0  0  0
    0.6954   -1.8814   -0.3829 H   0  0  0  0  0  0  0  0  0  0  0  0
    0.5823    0.2111    1.8852 H   0  0  0  0  0  0  0  0  0  0  0  0
   -0.2945   -1.2946    1.8852 H   0  0  0  0  0  0  0  0  0  0  0  0
   -1.4059    0.3607   -2.5526 C   0  0  0  0  0  0  0  0  0  0  0  0
   -1.4059    0.3607   -1.0421 C   0  0  0  0  0  0  0  0  0  0  0  0
   -1.4059    1.6867   -0.3785 N   0  0  0  0  0  0  0  0  0  0  0  0
   -1.4059    2.6163   -1.1262 O   0  0  0  0  0  1  0  0  0  0  0  0
   -0.5257    0.8681   -2.9470 H   0  0  0  0  0  0  0  0  0  0  0  0
   -1.4059   -0.6664   -2.9178 H   0  0  0  0  0  0  0  0  0  0  0  0
   -2.2860    0.8681   -2.9470 H   0  0  0  0  0  0  0  0  0  0  0  0
   -0.3604   -0.2480   -0.5295 H   0  0  0  0  0  0  0  0  0  0  0  0
   -2.2771   -0.1466   -0.6149 H   0  0  0  0  0  0  0  0  0  0  0  0
  1  2  1  0
  1  5  1  0
  1  6  1  0
  1 16  1  0
  2  3  1  0
  2  7  1  0
  2  8  1  0
  3  4  2  0
  9 10  1  0
  9 13  1  0
  9 14  1  0
  9 15  1  0
 10 11  2  3
 10 17  1  0
 11 12  1  0
M  RAD  1  12   2
M  END
>  <reaction>  (9) 
rmg_rxn_175

>  <mol_properties>  (9) 
{"0": {"label": "*3", "atom_type": "Cs"}, "1": {"label": "*4", "atom_type": "Cs"}, "9": {"label": "*1", "atom_type": "Cs"}, "10": {"label": "*0", "atom_type": "N3d"}, "15": {"label": "*2", "atom_type": "H0"}}

>  <type>  (9) 
unop_5

>  <geom_source>  (9) 
Heuristics

$$$$

     RDKit          3D

 17 15  0  0  0  0  0  0  0  0999 V2000
    0.9490   -0.4573    0.1565 C   0  0  0  0  0  0  0  0  0  0  0  0
    0.6355   -1.9216    0.3539 C   0  0  0  0  0  0  0  0  0  0  0  0
    1.1617   -2.5523    1.5884 N   0  0  0  0  0  0  0  0  0  0  0  0
    1.7823   -1.8186    2.2952 O   0  0  0  0  0  0  0  0  0  0  0  0
    0.5453    0.1457    0.9696 H   0  0  0  0  0  0  0  0  0  0  0  0
    2.0245   -0.2857    0.1186 H   0  0  0  0  0  0  0  0  0  0  0  0
   -0.4393   -2.1271    0.3918 H   0  0  0  0  0  0  0  0  0  0  0  0
    1.0250   -2.5541   -0.4505 H   0  0  0  0  0  0  0  0  0  0  0  0
   -1.1374    0.7576   -2.3770 C   0  0  0  0  0  0  0  0  0  0  0  0
   -1.1374    0.7576   -0.8665 C   0  0  0  0  0  0  0  0  0  0  0  0
   -1.1374    2.0836   -0.2029 N   0  0  0  0  0  0  0  0  0  0  0  0
   -1.1374    3.0131   -0.9506 O   0  0  0  0  0  1  0  0  0  0  0  0
   -0.2572    1.2650   -2.7714 H   0  0  0  0  0  0  0  0  0  0  0  0
   -1.1374   -0.2695   -2.7422 H   0  0  0  0  0  0  0  0  0  0  0  0
   -2.0175    1.2650   -2.7714 H   0  0  0  0  0  0  0  0  0  0  0  0
   -0.0919    0.1489   -0.3539 H   0  0  0  0  0  0  0  0  0  0  0  0
   -2.0086    0.2503   -0.4393 H   0  0  0  0  0  0  0  0  0  0  0  0
  1  2  1  0
  1  5  1  0
  1  6  1  0
  1 16  1  0
  2  3  1  0
  2  7  1  0
  2  8  1  0
  3  4  2  0
  9 10  1  0
  9 13  1  0
  9 14  1  0
  9 15  1  0
 10 11  2  3
 10 17  1  0
 11 12  1  0
M  RAD  1  12   2
M  END
>  <reaction>  (10) 
rmg_rxn_175

>  <mol_properties>  (10) 
{"0": {"label": "*3", "atom_type": "Cs"}, "1": {"label": "*4", "atom_type": "Cs"}, "9": {"label": "*1", "atom_type": "Cs"}, "10": {"label": "*0", "atom_type": "N3d"}, "15": {"label": "*2", "atom_type": "H0"}}

>  <type>  (10) 
unop_6

>  <geom_source>  (10) 
Heuristics

$$$$

     RDKit          3D

 17 15  0  0  0  0  0  0  0  0999 V2000
    0.9104   -0.6792   -0.0276 C   0  0  0  0  0  0  0  0  0  0  0  0
    0.4530   -1.8391    0.8250 C   0  0  0  0  0  0  0  0  0  0  0  0
    1.1979   -2.0700    2.0861 N   0  0  0  0  0  0  0  0  0  0  0  0
    2.0873   -1.3005    2.2856 O   0  0  0  0  0  0  0  0  0  0  0  0
    0.8355    0.2629    0.5150 H   0  0  0  0  0  0  0  0  0  0  0  0
    1.9481   -0.8023   -0.3371 H   0  0  0  0  0  0  0  0  0  0  0  0
   -0.5889   -1.7466    1.1487 H   0  0  0  0  0  0  0  0  0  0  0  0
    0.5124   -2.8009    0.3052 H   0  0  0  0  0  0  0  0  0  0  0  0
   -1.1760    0.5357   -2.5610 C   0  0  0  0  0  0  0  0  0  0  0  0
   -1.1760    0.5357   -1.0506 C   0  0  0  0  0  0  0  0  0  0  0  0
   -1.1760    1.8617   -0.3870 N   0  0  0  0  0  0  0  0  0  0  0  0
   -1.1760    2.7912   -1.1347 O   0  0  0  0  0  1  0  0  0  0  0  0
   -0.2958    1.0431   -2.9555 H   0  0  0  0  0  0  0  0  0  0  0  0
   -1.1760   -0.4914   -2.9263 H   0  0  0  0  0  0  0  0  0  0  0  0
   -2.0561    1.0431   -2.9555 H   0  0  0  0  0  0  0  0  0  0  0  0
   -0.1305   -0.0731   -0.5380 H   0  0  0  0  0  0  0  0  0  0  0  0
   -2.0472    0.0284   -0.6234 H   0  0  0  0  0  0  0  0  0  0  0  0
  1  2  1  0
  1  5  1  0
  1  6  1  0
  1 16  1  0
  2  3  1  0
  2  7  1  0
  2  8  1  0
  3  4  2  0
  9 10  1  0
  9 13  1  0
  9 14  1  0
  9 15  1  0
 10 11  2  3
 10 17  1  0
 11 12  1  0
M  RAD  1  12   2
M  END
>  <reaction>  (11) 
rmg_rxn_175

>  <mol_properties>  (11) 
{"0": {"label": "*3", "atom_type": "Cs"}, "1": {"label": "*4", "atom_type": "Cs"}, "9": {"label": "*1", "atom_type": "Cs"}, "10": {"label": "*0", "atom_type": "N3d"}, "15": {"label": "*2", "atom_type": "H0"}}

>  <type>  (11) 
unop_7

>  <geom_source>  (11) 
Heuristics

$$$$

     RDKit          3D

 17 15  0  0  0  0  0  0  0  0999 V2000
    0.4678   -1.2836    0.1565 C   0  0  0  0  0  0  0  0  0  0  0  0
    1.5867   -0.2883    0.3539 C   0  0  0  0  0  0  0  0  0  0  0  0
    2.3949   -0.4347    1.5884 N   0  0  0  0  0  0  0  0  0  0  0  0
    2.0631   -1.3365    2.2952 O   0  0  0  0  0  0  0  0  0  0  0  0
    0.8494   -2.3037    0.1186 H   0  0  0  0  0  0  0  0  0  0  0  0
   -0.2559   -1.2301    0.9696 H   0  0  0  0  0  0  0  0  0  0  0  0
    2.3290   -0.3149   -0.4505 H   0  0  0  0  0  0  0  0  0  0  0  0
    1.2349    0.7479    0.3918 H   0  0  0  0  0  0  0  0  0  0  0  0
   -1.6185   -0.0687   -2.3770 C   0  0  0  0  0  0  0  0  0  0  0  0
   -1.6185   -0.0687   -0.8665 C   0  0  0  0  0  0  0  0  0  0  0  0
   -1.6185    1.2573   -0.2029 N   0  0  0  0  0  0  0  0  0  0  0  0
   -1.6185    2.1868   -0.9506 O   0  0  0  0  0  1  0  0  0  0  0  0
   -0.7384    0.4387   -2.7714 H   0  0  0  0  0  0  0  0  0  0  0  0
   -1.6185   -1.0958   -2.7422 H   0  0  0  0  0  0  0  0  0  0  0  0
   -2.4987    0.4387   -2.7714 H   0  0  0  0  0  0  0  0  0  0  0  0
   -0.5731   -0.6775   -0.3539 H   0  0  0  0  0  0  0  0  0  0  0  0
   -2.4897   -0.5760   -0.4393 H   0  0  0  0  0  0  0  0  0  0  0  0
  1  2  1  0
  1  5  1  0
  1  6  1  0
  1 16  1  0
  2  3  1  0
  2  7  1  0
  2  8  1  0
  3  4  2  0
  9 10  1  0
  9 13  1  0
  9 14  1  0
  9 15  1  0
 10 11  2  3
 10 17  1  0
 11 12  1  0
M  RAD  1  12   2
M  END
>  <reaction>  (12) 
rmg_rxn_175

>  <mol_properties>  (12) 
{"0": {"label": "*3", "atom_type": "Cs"}, "1": {"label": "*4", "atom_type": "Cs"}, "9": {"label": "*1", "atom_type": "Cs"}, "10": {"label": "*0", "atom_type": "N3d"}, "15": {"label": "*2", "atom_type": "H0"}}

>  <type>  (12) 
unop_8

>  <geom_source>  (12) 
Heuristics

$$$$

     RDKit          3D

 17 15  0  0  0  0  0  0  0  0999 V2000
    0.6183   -0.4112    0.6901 C   0  0  0  0  0  0  0  0  0  0  0  0
    1.0785   -1.5025   -0.2473 C   0  0  0  0  0  0  0  0  0  0  0  0
    1.9580   -2.5468    0.3309 N   0  0  0  0  0  0  0  0  0  0  0  0
    2.2052   -2.4025    1.4891 O   0  0  0  0  0  0  0  0  0  0  0  0
    0.0499   -0.8215    1.5244 H   0  0  0  0  0  0  0  0  0  0  0  0
    1.4649    0.1370    1.1030 H   0  0  0  0  0  0  0  0  0  0  0  0
    0.2491   -2.0695   -0.6827 H   0  0  0  0  0  0  0  0  0  0  0  0
    1.6497   -1.1207   -1.0998 H   0  0  0  0  0  0  0  0  0  0  0  0
   -1.4680    0.8038   -1.8434 C   0  0  0  0  0  0  0  0  0  0  0  0
   -1.4680    0.8038   -0.3329 C   0  0  0  0  0  0  0  0  0  0  0  0
   -1.4680    2.1297    0.3307 N   0  0  0  0  0  0  0  0  0  0  0  0
   -1.4680    3.0593   -0.4170 O   0  0  0  0  0  1  0  0  0  0  0  0
   -0.5879    1.3112   -2.2379 H   0  0  0  0  0  0  0  0  0  0  0  0
   -1.4680   -0.2234   -2.2087 H   0  0  0  0  0  0  0  0  0  0  0  0
   -2.3481    1.3112   -2.2379 H   0  0  0  0  0  0  0  0  0  0  0  0
   -0.4226    0.1950    0.1797 H   0  0  0  0  0  0  0  0  0  0  0  0
   -2.3392    0.2965    0.0943 H   0  0  0  0  0  0  0  0  0  0  0  0
  1  2  1  0
  1  5  1  0
  1  6  1  0
  1 16  1  0
  2  3  1  0
  2  7  1  0
  2  8  1  0
  3  4  2  0
  9 10  1  0
  9 13  1  0
  9 14  1  0
  9 15  1  0
 10 11  2  3
 10 17  1  0
 11 12  1  0
M  RAD  1  12   2
M  END
>  <reaction>  (13) 
rmg_rxn_175

>  <mol_properties>  (13) 
{"0": {"label": "*3", "atom_type": "Cs"}, "1": {"label": "*4", "atom_type": "Cs"}, "9": {"label": "*1", "atom_type": "Cs"}, "10": {"label": "*0", "atom_type": "N3d"}, "15": {"label": "*2", "atom_type": "H0"}}

>  <type>  (13) 
unop_9

>  <geom_source>  (13) 
Heuristics

$$$$

     RDKit          3D

 17 15  0  0  0  0  0  0  0  0999 V2000
    0.3113   -1.2489    0.4336 C   0  0  0  0  0  0  0  0  0  0  0  0
    1.5742   -0.5580   -0.0242 C   0  0  0  0  0  0  0  0  0  0  0  0
    2.7178   -0.5725    0.9194 N   0  0  0  0  0  0  0  0  0  0  0  0
    2.5056   -1.1374    1.9484 O   0  0  0  0  0  0  0  0  0  0  0  0
    0.4904   -2.3047    0.6359 H   0  0  0  0  0  0  0  0  0  0  0  0
   -0.0767   -0.7973    1.3464 H   0  0  0  0  0  0  0  0  0  0  0  0
    1.9866   -0.9870   -0.9432 H   0  0  0  0  0  0  0  0  0  0  0  0
    1.4253    0.5051   -0.2399 H   0  0  0  0  0  0  0  0  0  0  0  0
   -1.7750   -0.0339   -2.0999 C   0  0  0  0  0  0  0  0  0  0  0  0
   -1.7750   -0.0339   -0.5894 C   0  0  0  0  0  0  0  0  0  0  0  0
   -1.7750    1.2920    0.0742 N   0  0  0  0  0  0  0  0  0  0  0  0
   -1.7750    2.2216   -0.6735 O   0  0  0  0  0  1  0  0  0  0  0  0
   -0.8949    0.4734   -2.4943 H   0  0  0  0  0  0  0  0  0  0  0  0
   -1.7750   -1.0611   -2.4651 H   0  0  0  0  0  0  0  0  0  0  0  0
   -2.6551    0.4734   -2.4943 H   0  0  0  0  0  0  0  0  0  0  0  0
   -0.7296   -0.6427   -0.0768 H   0  0  0  0  0  0  0  0  0  0  0  0
   -2.6462   -0.5412   -0.1622 H   0  0  0  0  0  0  0  0  0  0  0  0
  1  2  1  0
  1  5  1  0
  1  6  1  0
  1 16  1  0
  2  3  1  0
  2  7  1  0
  2  8  1  0
  3  4  2  0
  9 10  1  0
  9 13  1  0
  9 14  1  0
  9 15  1  0
 10 11  2  3
 10 17  1  0
 11 12  1  0
M  RAD  1  12   2
M  END
>  <reaction>  (14) 
rmg_rxn_175

>  <mol_properties>  (14) 
{"0": {"label": "*3", "atom_type": "Cs"}, "1": {"label": "*4", "atom_type": "Cs"}, "9": {"label": "*1", "atom_type": "Cs"}, "10": {"label": "*0", "atom_type": "N3d"}, "15": {"label": "*2", "atom_type": "H0"}}

>  <type>  (14) 
unop_10

>  <geom_source>  (14) 
Heuristics

$$$$

     RDKit          3D

 17 15  0  0  0  0  0  0  0  0999 V2000
    0.7642   -0.8552   -0.0597 C   0  0  0  0  0  0  0  0  0  0  0  0
    0.3933   -1.4627    1.2726 C   0  0  0  0  0  0  0  0  0  0  0  0
    1.4879   -1.6120    2.2616 N   0  0  0  0  0  0  0  0  0  0  0  0
    2.5531   -1.2289    1.8851 O   0  0  0  0  0  0  0  0  0  0  0  0
    1.1657    0.1504    0.0634 H   0  0  0  0  0  0  0  0  0  0  0  0
    1.5189   -1.4536   -0.5697 H   0  0  0  0  0  0  0  0  0  0  0  0
   -0.3675   -0.8856    1.8082 H   0  0  0  0  0  0  0  0  0  0  0  0
   -0.0179   -2.4734    1.1816 H   0  0  0  0  0  0  0  0  0  0  0  0
   -1.3221    0.3597   -2.5931 C   0  0  0  0  0  0  0  0  0  0  0  0
   -1.3221    0.3597   -1.0827 C   0  0  0  0  0  0  0  0  0  0  0  0
   -1.3221    1.6857   -0.4191 N   0  0  0  0  0  0  0  0  0  0  0  0
   -1.3221    2.6152   -1.1668 O   0  0  0  0  0  1  0  0  0  0  0  0
   -0.4420    0.8671   -2.9876 H   0  0  0  0  0  0  0  0  0  0  0  0
   -1.3221   -0.6675   -2.9584 H   0  0  0  0  0  0  0  0  0  0  0  0
   -2.2023    0.8671   -2.9876 H   0  0  0  0  0  0  0  0  0  0  0  0
   -0.2767   -0.2491   -0.5701 H   0  0  0  0  0  0  0  0  0  0  0  0
   -2.1933   -0.1476   -0.6555 H   0  0  0  0  0  0  0  0  0  0  0  0
  1  2  1  0
  1  5  1  0
  1  6  1  0
  1 16  1  0
  2  3  1  0
  2  7  1  0
  2  8  1  0
  3  4  2  0
  9 10  1  0
  9 13  1  0
  9 14  1  0
  9 15  1  0
 10 11  2  3
 10 17  1  0
 11 12  1  0
M  RAD  1  12   2
M  END
>  <reaction>  (15) 
rmg_rxn_175

>  <mol_properties>  (15) 
{"0": {"label": "*3", "atom_type": "Cs"}, "1": {"label": "*4", "atom_type": "Cs"}, "9": {"label": "*1", "atom_type": "Cs"}, "10": {"label": "*0", "atom_type": "N3d"}, "15": {"label": "*2", "atom_type": "H0"}}

>  <type>  (15) 
unop_11

>  <geom_source>  (15) 
Heuristics

$$$$

     RDKit          3D

 17 15  0  0  0  0  0  0  0  0999 V2000
    0.3817   -0.6802    0.7970 C   0  0  0  0  0  0  0  0  0  0  0  0
    1.2642   -1.1941   -0.3160 C   0  0  0  0  0  0  0  0  0  0  0  0
    2.4961   -1.9115    0.0916 N   0  0  0  0  0  0  0  0  0  0  0  0
    2.6512   -2.0018    1.2709 O   0  0  0  0  0  0  0  0  0  0  0  0
    0.0313   -1.4947    1.4307 H   0  0  0  0  0  0  0  0  0  0  0  0
    0.9171    0.0265    1.4307 H   0  0  0  0  0  0  0  0  0  0  0  0
    0.7523   -1.9042   -0.9737 H   0  0  0  0  0  0  0  0  0  0  0  0
    1.6291   -0.3985   -0.9737 H   0  0  0  0  0  0  0  0  0  0  0  0
   -1.7047    0.5348   -1.7365 C   0  0  0  0  0  0  0  0  0  0  0  0
   -1.7047    0.5348   -0.2260 C   0  0  0  0  0  0  0  0  0  0  0  0
   -1.7047    1.8607    0.4376 N   0  0  0  0  0  0  0  0  0  0  0  0
   -1.7047    2.7903   -0.3101 O   0  0  0  0  0  1  0  0  0  0  0  0
   -0.8246    1.0421   -2.1310 H   0  0  0  0  0  0  0  0  0  0  0  0
   -1.7047   -0.4924   -2.1017 H   0  0  0  0  0  0  0  0  0  0  0  0
   -2.5848    1.0421   -2.1310 H   0  0  0  0  0  0  0  0  0  0  0  0
   -0.6593   -0.0740    0.2866 H   0  0  0  0  0  0  0  0  0  0  0  0
   -2.5759    0.0274    0.2012 H   0  0  0  0  0  0  0  0  0  0  0  0
  1  2  1  0
  1  5  1  0
  1  6  1  0
  1 16  1  0
  2  3  1  0
  2  7  1  0
  2  8  1  0
  3  4  2  0
  9 10  1  0
  9 13  1  0
  9 14  1  0
  9 15  1  0
 10 11  2  3
 10 17  1  0
 11 12  1  0
M  RAD  1  12   2
M  END
>  <reaction>  (16) 
rmg_rxn_175

>  <mol_properties>  (16) 
{"0": {"label": "*3", "atom_type": "Cs"}, "1": {"label": "*4", "atom_type": "Cs"}, "9": {"label": "*1", "atom_type": "Cs"}, "10": {"label": "*0", "atom_type": "N3d"}, "15": {"label": "*2", "atom_type": "H0"}}

>  <type>  (16) 
unop_12

>  <geom_source>  (16) 
Heuristics

$$$$

     RDKit          3D

 17 15  0  0  0  0  0  0  0  0999 V2000
   -4.3174    0.2185    0.6805 O   0  0  0  0  0  0  0  0  0  0  0  0
    3.5498   -0.0988   -1.6013 O   0  0  0  0  0  1  0  0  0  0  0  0
   -3.3211   -0.3539    0.3579 N   0  0  0  0  0  0  0  0  0  0  0  0
    2.4443   -0.5274   -1.4615 N   0  0  0  0  0  0  0  0  0  0  0  0
   -2.1066    0.3798    0.1101 C   0  0  0  0  0  0  0  0  0  0  0  0
   -0.9942   -0.5798   -0.2826 C   0  0  0  0  0  0  0  0  0  0  0  0
    1.9107    0.0081    0.8611 C   0  0  0  0  0  0  0  0  0  0  0  0
    1.5000    0.1392   -0.5992 C   0  0  0  0  0  0  0  0  0  0  0  0
   -2.2716    1.1083   -0.7128 H   0  0  0  0  0  0  0  0  0  0  0  0
   -1.8096    0.9313    1.0281 H   0  0  0  0  0  0  0  0  0  0  0  0
   -1.2719   -1.1303   -1.2067 H   0  0  0  0  0  0  0  0  0  0  0  0
   -0.8094   -1.3074    0.5362 H   0  0  0  0  0  0  0  0  0  0  0  0
    0.0697    0.0731   -0.4986 H   0  0  0  0  0  0  0  0  0  0  0  0
    2.8877    0.5073    1.0337 H   0  0  0  0  0  0  0  0  0  0  0  0
    1.1428    0.4873    1.5032 H   0  0  0  0  0  0  0  0  0  0  0  0
    1.9892   -1.0645    1.1372 H   0  0  0  0  0  0  0  0  0  0  0  0
    1.4074    1.2093   -0.8854 H   0  0  0  0  0  0  0  0  0  0  0  0
  1  3  2  0
  2  4  1  0
  3  5  1  0
  4  8  2  3
  5  6  1  0
  5  9  1  0
  5 10  1  0
  6 11  1  0
  6 12  1  0
  6 13  1  0
  7  8  1  0
  7 14  1  0
  7 15  1  0
  7 16  1  0
  8 17  1  0
M  RAD  1   2   2
M  END
>  <reaction>  (17) 
rmg_rxn_175

>  <mol_properties>  (17) 
{"0": {"label": "*3", "atom_type": "Cs"}, "1": {"label": "*4", "atom_type": "Cs"}, "9": {"label": "*1", "atom_type": "Cs"}, "10": {"label": "*0", "atom_type": "N3d"}, "15": {"label": "*2", "atom_type": "H0"}}

>  <type>  (17) 
unop_13

>  <geom_source>  (17) 
AutoTST

$$$$

     RDKit          3D

 17 15  0  0  0  0  0  0  0  0999 V2000
    0.2645   -1.0188    0.6901 C   0  0  0  0  0  0  0  0  0  0  0  0
    1.4408   -0.8804   -0.2473 C   0  0  0  0  0  0  0  0  0  0  0  0
    2.7831   -1.1300    0.3309 N   0  0  0  0  0  0  0  0  0  0  0  0
    2.7795   -1.4161    1.4891 O   0  0  0  0  0  0  0  0  0  0  0  0
    0.2055   -2.0256    1.1030 H   0  0  0  0  0  0  0  0  0  0  0  0
    0.3408   -0.3219    1.5244 H   0  0  0  0  0  0  0  0  0  0  0  0
    1.3906   -1.5657   -1.0998 H   0  0  0  0  0  0  0  0  0  0  0  0
    1.5245    0.1208   -0.6827 H   0  0  0  0  0  0  0  0  0  0  0  0
   -1.8219    0.1961   -1.8434 C   0  0  0  0  0  0  0  0  0  0  0  0
   -1.8219    0.1961   -0.3329 C   0  0  0  0  0  0  0  0  0  0  0  0
   -1.8219    1.5221    0.3307 N   0  0  0  0  0  0  0  0  0  0  0  0
   -1.8219    2.4516   -0.4170 O   0  0  0  0  0  1  0  0  0  0  0  0
   -0.9417    0.7035   -2.2379 H   0  0  0  0  0  0  0  0  0  0  0  0
   -1.8219   -0.8310   -2.2087 H   0  0  0  0  0  0  0  0  0  0  0  0
   -2.7020    0.7035   -2.2379 H   0  0  0  0  0  0  0  0  0  0  0  0
   -0.7764   -0.4127    0.1797 H   0  0  0  0  0  0  0  0  0  0  0  0
   -2.6931   -0.3112    0.0943 H   0  0  0  0  0  0  0  0  0  0  0  0
  1  2  1  0
  1  5  1  0
  1  6  1  0
  1 16  1  0
  2  3  1  0
  2  7  1  0
  2  8  1  0
  3  4  2  0
  9 10  1  0
  9 13  1  0
  9 14  1  0
  9 15  1  0
 10 11  2  3
 10 17  1  0
 11 12  1  0
M  RAD  1  12   2
M  END
>  <reaction>  (18) 
rmg_rxn_175

>  <mol_properties>  (18) 
{"0": {"label": "*3", "atom_type": "Cs"}, "1": {"label": "*4", "atom_type": "Cs"}, "9": {"label": "*1", "atom_type": "Cs"}, "10": {"label": "*0", "atom_type": "N3d"}, "15": {"label": "*2", "atom_type": "H0"}}

>  <type>  (18) 
unop_14

>  <geom_source>  (18) 
gaussian_log

$$$$
