
     RDKit          3D

 15 14  0  0  0  0  0  0  0  0999 V2000
   -2.0554    0.0723   -0.4910 C   0  0  0  0  0  0  0  0  0  0  0  0
   -0.7461   -0.6266   -0.8178 C   0  0  0  0  0  0  0  0  0  0  0  0
    0.3249    0.2591   -1.9782 S   0  0  0  0  0  0  0  0  0  0  0  0
   -0.7172    0.3642   -3.4551 C   0  0  0  0  0  0  0  0  0  0  0  0
   -1.1375   -0.9737   -4.0409 C   0  0  0  0  0  0  0  0  0  0  0  0
   -2.7005    0.1427   -1.3684 H   0  0  0  0  0  0  0  0  0  0  0  0
   -2.6016   -0.4848    0.2733 H   0  0  0  0  0  0  0  0  0  0  0  0
   -1.8758    1.0825   -0.1213 H   0  0  0  0  0  0  0  0  0  0  0  0
   -0.1320   -0.7246    0.0789 H   0  0  0  0  0  0  0  0  0  0  0  0
   -0.9254   -1.6374   -1.1879 H   0  0  0  0  0  0  0  0  0  0  0  0
   -1.5873    0.9874   -3.2422 H   0  0  0  0  0  0  0  0  0  0  0  0
   -0.1021    0.9161   -4.1678 H   0  0  0  0  0  0  0  0  0  0  0  0
   -1.7876   -1.5224   -3.3574 H   0  0  0  0  0  0  0  0  0  0  0  0
   -0.2676   -1.5962   -4.2534 H   0  0  0  0  0  0  0  0  0  0  0  0
   -1.6916   -0.8229   -4.9700 H   0  0  0  0  0  0  0  0  0  0  0  0
  1  2  1  0
  1  6  1  0
  1  7  1  0
  1  8  1  0
  2  3  1  0
  2  9  1  0
  2 10  1  0
  3  4  1  0
  4  5  1  0
  4 11  1  0
  4 12  1  0
  5 13  1  0
  5 14  1  0
  5 15  1  0
M  END
>  <reaction>  (1) 
rmg_rxn_238

>  <mol_properties>  (1) 
{"1": {"label": "donator", "atom_type": "Cs"}, "8": {"label": "d_hydrogen", "atom_type": "H0"}}

>  <type>  (1) 
r1h

$$$$

     RDKit          3D

 17 16  0  0  0  0  0  0  0  0999 V2000
    2.3128   -0.1525    1.1777 C   0  0  0  0  0  3  0  0  0  0  0  0
    1.7469    0.7266    0.1254 C   0  0  0  0  0  0  0  0  0  0  0  0
    1.6374    2.1830    0.5408 C   0  0  0  0  0  0  0  0  0  0  0  0
    2.9245    2.6874    0.7877 O   0  0  0  0  0  0  0  0  0  0  0  0
    2.9227    4.0197    1.2361 C   0  0  0  0  0  0  0  0  0  0  0  0
    4.3491    4.4603    1.4693 C   0  0  0  0  0  0  0  0  0  0  0  0
    2.1393   -1.2196    1.1557 H   0  0  0  0  0  0  0  0  0  0  0  0
    3.0313    0.2400    1.8838 H   0  0  0  0  0  0  0  0  0  0  0  0
    0.7555    0.3746   -0.1764 H   0  0  0  0  0  0  0  0  0  0  0  0
    2.3678    0.6841   -0.7826 H   0  0  0  0  0  0  0  0  0  0  0  0
    1.0170    2.2718    1.4449 H   0  0  0  0  0  0  0  0  0  0  0  0
    1.1499    2.7653   -0.2546 H   0  0  0  0  0  0  0  0  0  0  0  0
    2.4379    4.6655    0.4891 H   0  0  0  0  0  0  0  0  0  0  0  0
    2.3377    4.1015    2.1638 H   0  0  0  0  0  0  0  0  0  0  0  0
    4.9261    4.3920    0.5465 H   0  0  0  0  0  0  0  0  0  0  0  0
    4.3728    5.4939    1.8180 H   0  0  0  0  0  0  0  0  0  0  0  0
    4.8260    3.8299    2.2206 H   0  0  0  0  0  0  0  0  0  0  0  0
  1  2  1  0
  1  7  1  0
  1  8  1  0
  2  3  1  0
  2  9  1  0
  2 10  1  0
  3  4  1  0
  3 11  1  0
  3 12  1  0
  4  5  1  0
  5  6  1  0
  5 13  1  0
  5 14  1  0
  6 15  1  0
  6 16  1  0
  6 17  1  0
M  RAD  1   1   2
M  END
>  <reaction>  (2) 
rmg_rxn_238

>  <mol_properties>  (2) 
{"0": {"label": "acceptor", "atom_type": "Cs"}}

>  <type>  (2) 
r2

$$$$

     RDKit          3D

 18 17  0  0  0  0  0  0  0  0999 V2000
    2.2026   -0.7213   -0.2612 C   0  0  0  0  0  0  0  0  0  0  0  0
    1.5384    0.2638    0.6915 C   0  0  0  0  0  0  0  0  0  0  0  0
    2.2584    1.5946    0.7694 C   0  0  0  0  0  0  0  0  0  0  0  0
    2.2212    2.2185   -0.4893 O   0  0  0  0  0  0  0  0  0  0  0  0
    2.8988    3.4488   -0.5204 C   0  0  0  0  0  0  0  0  0  0  0  0
    2.7981    4.0296   -1.9118 C   0  0  0  0  0  0  0  0  0  0  0  0
    3.2294   -0.9309    0.0486 H   0  0  0  0  0  0  0  0  0  0  0  0
    2.2338   -0.3181   -1.2734 H   0  0  0  0  0  0  0  0  0  0  0  0
    1.6610   -1.6680   -0.2875 H   0  0  0  0  0  0  0  0  0  0  0  0
    1.4990   -0.1566    1.7002 H   0  0  0  0  0  0  0  0  0  0  0  0
    0.5055    0.4455    0.3835 H   0  0  0  0  0  0  0  0  0  0  0  0
    3.3038    1.4410    1.0808 H   0  0  0  0  0  0  0  0  0  0  0  0
    1.7844    2.2410    1.5226 H   0  0  0  0  0  0  0  0  0  0  0  0
    2.4596    4.1376    0.2164 H   0  0  0  0  0  0  0  0  0  0  0  0
    3.9524    3.3035   -0.2397 H   0  0  0  0  0  0  0  0  0  0  0  0
    1.7543    4.1869   -2.1856 H   0  0  0  0  0  0  0  0  0  0  0  0
    3.2472    3.3545   -2.6411 H   0  0  0  0  0  0  0  0  0  0  0  0
    3.3178    4.9878   -1.9600 H   0  0  0  0  0  0  0  0  0  0  0  0
  1  2  1  0
  1  7  1  0
  1  8  1  0
  1  9  1  0
  2  3  1  0
  2 10  1  0
  2 11  1  0
  3  4  1  0
  3 12  1  0
  3 13  1  0
  4  5  1  0
  5  6  1  0
  5 14  1  0
  5 15  1  0
  6 16  1  0
  6 17  1  0
  6 18  1  0
M  END
>  <reaction>  (3) 
rmg_rxn_238

>  <mol_properties>  (3) 
{"0": {"label": "a_hydrogen", "atom_type": "H0"}, "1": {"label": "acceptor", "atom_type": "Cs"}}

>  <type>  (3) 
r2h

$$$$

     RDKit          3D

 32 30  0  0  0  0  0  0  0  0999 V2000
    3.6201   -0.9041   -1.4599 C   0  0  0  0  0  0  0  0  0  0  0  0
    2.6875    0.0744   -0.7856 C   0  0  0  0  0  0  0  0  0  0  0  0
    1.8280    1.1039   -1.9492 S   0  0  0  0  0  0  0  0  0  0  0  0
    1.1384    2.3871   -0.8755 C   0  0  0  0  0  0  0  0  0  0  0  0
    0.1571    1.8967    0.1765 C   0  0  0  0  0  0  0  0  0  0  0  0
    4.4363   -0.3981   -1.9809 H   0  0  0  0  0  0  0  0  0  0  0  0
    4.0532   -1.5772   -0.7178 H   0  0  0  0  0  0  0  0  0  0  0  0
    3.0822   -1.5137   -2.1895 H   0  0  0  0  0  0  0  0  0  0  0  0
    1.8385   -0.6769   -0.1441 H   0  0  0  0  0  0  0  0  0  0  0  0
    3.1696    0.6688   -0.0074 H   0  0  0  0  0  0  0  0  0  0  0  0
    1.9664    2.9297   -0.4140 H   0  0  0  0  0  0  0  0  0  0  0  0
    0.6497    3.0749   -1.5677 H   0  0  0  0  0  0  0  0  0  0  0  0
    0.6559    1.2751    0.9195 H   0  0  0  0  0  0  0  0  0  0  0  0
   -0.6455    1.3040   -0.2624 H   0  0  0  0  0  0  0  0  0  0  0  0
   -0.2852    2.7483    0.6989 H   0  0  0  0  0  0  0  0  0  0  0  0
    0.9258   -1.5752    0.4237 C   0  0  0  0  0  3  0  0  0  0  0  0
   -0.0674   -1.8694   -0.6705 C   0  0  0  0  0  0  0  0  0  0  0  0
   -1.4664   -2.1678   -0.1572 C   0  0  0  0  0  0  0  0  0  0  0  0
   -1.9754   -1.0092    0.4560 O   0  0  0  0  0  0  0  0  0  0  0  0
   -3.2499   -1.1826    1.0199 C   0  0  0  0  0  0  0  0  0  0  0  0
   -3.6889    0.1239    1.6399 C   0  0  0  0  0  0  0  0  0  0  0  0
    0.5227   -1.0006    1.2538 H   0  0  0  0  0  0  0  0  0  0  0  0
    1.5349   -2.4141    0.7538 H   0  0  0  0  0  0  0  0  0  0  0  0
    0.2688   -2.7145   -1.2758 H   0  0  0  0  0  0  0  0  0  0  0  0
   -0.1422   -1.0119   -1.3485 H   0  0  0  0  0  0  0  0  0  0  0  0
   -1.4452   -2.9975    0.5652 H   0  0  0  0  0  0  0  0  0  0  0  0
   -2.1191   -2.4684   -0.9899 H   0  0  0  0  0  0  0  0  0  0  0  0
   -3.9637   -1.5002    0.2456 H   0  0  0  0  0  0  0  0  0  0  0  0
   -3.2192   -1.9781    1.7787 H   0  0  0  0  0  0  0  0  0  0  0  0
   -3.7342    0.9090    0.8842 H   0  0  0  0  0  0  0  0  0  0  0  0
   -4.6774    0.0174    2.0892 H   0  0  0  0  0  0  0  0  0  0  0  0
   -2.9868    0.4330    2.4152 H   0  0  0  0  0  0  0  0  0  0  0  0
  1  2  1  0
  1  6  1  0
  1  7  1  0
  1  8  1  0
  2  3  1  0
  2  9  1  0
  2 10  1  0
  3  4  1  0
  4  5  1  0
  4 11  1  0
  4 12  1  0
  5 13  1  0
  5 14  1  0
  5 15  1  0
 16 17  1  0
 16 22  1  0
 16 23  1  0
 17 18  1  0
 17 24  1  0
 17 25  1  0
 18 19  1  0
 18 26  1  0
 18 27  1  0
 19 20  1  0
 20 21  1  0
 20 28  1  0
 20 29  1  0
 21 30  1  0
 21 31  1  0
 21 32  1  0
M  RAD  1  16   2
M  END
>  <reaction>  (4) 
rmg_rxn_238

>  <mol_properties>  (4) 
{"1": {"label": "*1", "atom_type": "Cs"}, "2": {"label": "*0", "atom_type": "S2s"}, "8": {"label": "*2", "atom_type": "H0"}, "15": {"label": "*3", "atom_type": "Cs"}, "16": {"label": "*4", "atom_type": "Cs"}}

>  <type>  (4) 
ts

$$$$

     RDKit          3D

 32 30  0  0  0  0  0  0  0  0999 V2000
    1.4784    0.5434   -2.8361 C   0  0  0  0  0  0  0  0  0  0  0  0
    1.4784    0.5434   -1.3164 C   0  0  0  0  0  3  0  0  0  0  0  0
    1.4784    2.1844   -0.5515 S   0  0  0  0  0  0  0  0  0  0  0  0
    3.0190    2.8984   -1.1801 C   0  0  0  0  0  0  0  0  0  0  0  0
    4.2799    2.1395   -0.8009 C   0  0  0  0  0  0  0  0  0  0  0  0
    2.4014    0.9669   -3.2355 H   0  0  0  0  0  0  0  0  0  0  0  0
    1.3959   -0.4778   -3.2148 H   0  0  0  0  0  0  0  0  0  0  0  0
    0.6427    1.1258   -3.2255 H   0  0  0  0  0  0  0  0  0  0  0  0
    0.3850   -0.0133   -0.8588 H   0  0  0  0  0  0  0  0  0  0  0  0
    2.3146   -0.0393   -0.9263 H   0  0  0  0  0  0  0  0  0  0  0  0
    2.9479    3.0206   -2.2621 H   0  0  0  0  0  0  0  0  0  0  0  0
    3.0341    3.9015   -0.7508 H   0  0  0  0  0  0  0  0  0  0  0  0
    4.3011    1.1477   -1.2555 H   0  0  0  0  0  0  0  0  0  0  0  0
    4.3506    2.0175    0.2806 H   0  0  0  0  0  0  0  0  0  0  0  0
    5.1647    2.6779   -1.1478 H   0  0  0  0  0  0  0  0  0  0  0  0
   -0.7082   -0.5698   -0.4014 C   0  0  0  0  0  0  0  0  0  0  0  0
   -0.3865   -1.7867    0.4558 C   0  0  0  0  0  0  0  0  0  0  0  0
   -1.2635   -1.8972    1.6862 C   0  0  0  0  0  0  0  0  0  0  0  0
   -2.6010   -2.0694    1.2907 O   0  0  0  0  0  0  0  0  0  0  0  0
   -3.4950   -2.1462    2.3717 C   0  0  0  0  0  0  0  0  0  0  0  0
   -4.8967   -2.3289    1.8374 C   0  0  0  0  0  0  0  0  0  0  0  0
   -1.7403   -0.6051   -0.7500 H   0  0  0  0  0  0  0  0  0  0  0  0
   -0.5776    0.3537    0.1684 H   0  0  0  0  0  0  0  0  0  0  0  0
    0.6549   -1.7486    0.7875 H   0  0  0  0  0  0  0  0  0  0  0  0
   -0.4980   -2.7007   -0.1332 H   0  0  0  0  0  0  0  0  0  0  0  0
   -1.1685   -0.9881    2.3009 H   0  0  0  0  0  0  0  0  0  0  0  0
   -0.9437   -2.7468    2.3073 H   0  0  0  0  0  0  0  0  0  0  0  0
   -3.2206   -2.9865    3.0265 H   0  0  0  0  0  0  0  0  0  0  0  0
   -3.4307   -1.2299    2.9770 H   0  0  0  0  0  0  0  0  0  0  0  0
   -4.9649   -3.2443    1.2486 H   0  0  0  0  0  0  0  0  0  0  0  0
   -5.6099   -2.3919    2.6607 H   0  0  0  0  0  0  0  0  0  0  0  0
   -5.1755   -1.4886    1.2005 H   0  0  0  0  0  0  0  0  0  0  0  0
  1  2  1  0
  1  6  1  0
  1  7  1  0
  1  8  1  0
  2  3  1  0
  2 10  1  0
  3  4  1  0
  4  5  1  0
  4 11  1  0
  4 12  1  0
  5 13  1  0
  5 14  1  0
  5 15  1  0
  9 16  1  0
 16 17  1  0
 16 22  1  0
 16 23  1  0
 17 18  1  0
 17 24  1  0
 17 25  1  0
 18 19  1  0
 18 26  1  0
 18 27  1  0
 19 20  1  0
 20 21  1  0
 20 28  1  0
 20 29  1  0
 21 30  1  0
 21 31  1  0
 21 32  1  0
M  RAD  1   2   2
M  END
>  <reaction>  (5) 
rmg_rxn_238

>  <mol_properties>  (5) 
{"1": {"label": "*1", "atom_type": "Cs"}, "2": {"label": "*0", "atom_type": "S2s"}, "8": {"label": "*2", "atom_type": "H0"}, "15": {"label": "*3", "atom_type": "Cs"}, "16": {"label": "*4", "atom_type": "Cs"}}

>  <type>  (5) 
unop_1

>  <geom_source>  (5) 
Heuristics

$$$$

     RDKit          3D

 32 30  0  0  0  0  0  0  0  0999 V2000
    1.7977    0.5863   -2.1008 C   0  0  0  0  0  0  0  0  0  0  0  0
    1.7977    0.5863   -0.5810 C   0  0  0  0  0  3  0  0  0  0  0  0
    1.7977    2.2274    0.1839 S   0  0  0  0  0  0  0  0  0  0  0  0
    3.3383    2.9413   -0.4447 C   0  0  0  0  0  0  0  0  0  0  0  0
    4.5992    2.1825   -0.0655 C   0  0  0  0  0  0  0  0  0  0  0  0
    2.7207    1.0099   -2.5002 H   0  0  0  0  0  0  0  0  0  0  0  0
    1.7151   -0.4349   -2.4794 H   0  0  0  0  0  0  0  0  0  0  0  0
    0.9620    1.1688   -2.4902 H   0  0  0  0  0  0  0  0  0  0  0  0
    0.7042    0.0297   -0.1235 H   0  0  0  0  0  0  0  0  0  0  0  0
    2.6339    0.0037   -0.1910 H   0  0  0  0  0  0  0  0  0  0  0  0
    3.2671    3.0635   -1.5268 H   0  0  0  0  0  0  0  0  0  0  0  0
    3.3533    3.9445   -0.0155 H   0  0  0  0  0  0  0  0  0  0  0  0
    4.6204    1.1906   -0.5202 H   0  0  0  0  0  0  0  0  0  0  0  0
    4.6699    2.0604    1.0159 H   0  0  0  0  0  0  0  0  0  0  0  0
    5.4839    2.7209   -0.4125 H   0  0  0  0  0  0  0  0  0  0  0  0
   -0.3889   -0.5268    0.3340 C   0  0  0  0  0  0  0  0  0  0  0  0
   -0.9075   -1.5880   -0.6275 C   0  0  0  0  0  0  0  0  0  0  0  0
   -1.8790   -2.5539    0.0194 C   0  0  0  0  0  0  0  0  0  0  0  0
   -3.0206   -1.8524    0.4431 O   0  0  0  0  0  0  0  0  0  0  0  0
   -3.9655   -2.6665    1.0896 C   0  0  0  0  0  0  0  0  0  0  0  0
   -5.1451   -1.8169    1.5021 C   0  0  0  0  0  0  0  0  0  0  0  0
   -1.2107    0.0688    0.7314 H   0  0  0  0  0  0  0  0  0  0  0  0
    0.1314   -0.9866    1.1779 H   0  0  0  0  0  0  0  0  0  0  0  0
   -0.0740   -2.1694   -1.0313 H   0  0  0  0  0  0  0  0  0  0  0  0
   -1.4041   -1.1135   -1.4778 H   0  0  0  0  0  0  0  0  0  0  0  0
   -1.4026   -3.0494    0.8802 H   0  0  0  0  0  0  0  0  0  0  0  0
   -2.1655   -3.3411   -0.6935 H   0  0  0  0  0  0  0  0  0  0  0  0
   -4.2898   -3.4730    0.4152 H   0  0  0  0  0  0  0  0  0  0  0  0
   -3.5093   -3.1441    1.9692 H   0  0  0  0  0  0  0  0  0  0  0  0
   -5.6065   -1.3540    0.6292 H   0  0  0  0  0  0  0  0  0  0  0  0
   -5.8940   -2.4292    2.0069 H   0  0  0  0  0  0  0  0  0  0  0  0
   -4.8272   -1.0265    2.1830 H   0  0  0  0  0  0  0  0  0  0  0  0
  1  2  1  0
  1  6  1  0
  1  7  1  0
  1  8  1  0
  2  3  1  0
  2 10  1  0
  3  4  1  0
  4  5  1  0
  4 11  1  0
  4 12  1  0
  5 13  1  0
  5 14  1  0
  5 15  1  0
  9 16  1  0
 16 17  1  0
 16 22  1  0
 16 23  1  0
 17 18  1  0
 17 24  1  0
 17 25  1  0
 18 19  1  0
 18 26  1  0
 18 27  1  0
 19 20  1  0
 20 21  1  0
 20 28  1  0
 20 29  1  0
 21 30  1  0
 21 31  1  0
 21 32  1  0
M  RAD  1   2   2
M  END
>  <reaction>  (6) 
rmg_rxn_238

>  <mol_properties>  (6) 
{"1": {"label": "*1", "atom_type": "Cs"}, "2": {"label": "*0", "atom_type": "S2s"}, "8": {"label": "*2", "atom_type": "H0"}, "15": {"label": "*3", "atom_type": "Cs"}, "16": {"label": "*4", "atom_type": "Cs"}}

>  <type>  (6) 
unop_2

>  <geom_source>  (6) 
Heuristics

$$$$

     RDKit          3D

 32 30  0  0  0  0  0  0  0  0999 V2000
    1.5596    0.4956   -2.7882 C   0  0  0  0  0  0  0  0  0  0  0  0
    1.5596    0.4956   -1.2685 C   0  0  0  0  0  3  0  0  0  0  0  0
    1.5596    2.1367   -0.5036 S   0  0  0  0  0  0  0  0  0  0  0  0
    3.1001    2.8506   -1.1322 C   0  0  0  0  0  0  0  0  0  0  0  0
    4.3611    2.0918   -0.7530 C   0  0  0  0  0  0  0  0  0  0  0  0
    2.4826    0.9192   -3.1876 H   0  0  0  0  0  0  0  0  0  0  0  0
    1.4770   -0.5256   -3.1669 H   0  0  0  0  0  0  0  0  0  0  0  0
    0.7238    1.0781   -3.1776 H   0  0  0  0  0  0  0  0  0  0  0  0
    0.4661   -0.0610   -0.8109 H   0  0  0  0  0  0  0  0  0  0  0  0
    2.3958   -0.0870   -0.8784 H   0  0  0  0  0  0  0  0  0  0  0  0
    3.0290    2.9728   -2.2142 H   0  0  0  0  0  0  0  0  0  0  0  0
    3.1152    3.8538   -0.7029 H   0  0  0  0  0  0  0  0  0  0  0  0
    4.3823    1.0999   -1.2076 H   0  0  0  0  0  0  0  0  0  0  0  0
    4.4317    1.9697    0.3284 H   0  0  0  0  0  0  0  0  0  0  0  0
    5.2458    2.6302   -1.0999 H   0  0  0  0  0  0  0  0  0  0  0  0
   -0.6271   -0.6175   -0.3535 C   0  0  0  0  0  0  0  0  0  0  0  0
   -0.3793   -1.2886    0.9910 C   0  0  0  0  0  0  0  0  0  0  0  0
   -1.6089   -1.3220    1.8754 C   0  0  0  0  0  0  0  0  0  0  0  0
   -2.6064   -2.0950    1.2571 O   0  0  0  0  0  0  0  0  0  0  0  0
   -3.8016   -2.1527    1.9932 C   0  0  0  0  0  0  0  0  0  0  0  0
   -4.8001   -3.0027    1.2423 C   0  0  0  0  0  0  0  0  0  0  0  0
   -1.4034   -1.1426   -0.9098 H   0  0  0  0  0  0  0  0  0  0  0  0
   -0.9521    0.4171   -0.2185 H   0  0  0  0  0  0  0  0  0  0  0  0
    0.4111   -0.7630    1.5339 H   0  0  0  0  0  0  0  0  0  0  0  0
   -0.0321   -2.3140    0.8402 H   0  0  0  0  0  0  0  0  0  0  0  0
   -1.9796   -0.2989    2.0462 H   0  0  0  0  0  0  0  0  0  0  0  0
   -1.3599   -1.7479    2.8585 H   0  0  0  0  0  0  0  0  0  0  0  0
   -3.6082   -2.5767    2.9898 H   0  0  0  0  0  0  0  0  0  0  0  0
   -4.1976   -1.1377    2.1448 H   0  0  0  0  0  0  0  0  0  0  0  0
   -4.4140   -4.0131    1.1037 H   0  0  0  0  0  0  0  0  0  0  0  0
   -5.7381   -3.0625    1.7965 H   0  0  0  0  0  0  0  0  0  0  0  0
   -5.0043   -2.5746    0.2602 H   0  0  0  0  0  0  0  0  0  0  0  0
  1  2  1  0
  1  6  1  0
  1  7  1  0
  1  8  1  0
  2  3  1  0
  2 10  1  0
  3  4  1  0
  4  5  1  0
  4 11  1  0
  4 12  1  0
  5 13  1  0
  5 14  1  0
  5 15  1  0
  9 16  1  0
 16 17  1  0
 16 22  1  0
 16 23  1  0
 17 18  1  0
 17 24  1  0
 17 25  1  0
 18 19  1  0
 18 26  1  0
 18 27  1  0
 19 20  1  0
 20 21  1  0
 20 28  1  0
 20 29  1  0
 21 30  1  0
 21 31  1  0
 21 32  1  0
M  RAD  1   2   2
M  END
>  <reaction>  (7) 
rmg_rxn_238

>  <mol_properties>  (7) 
{"1": {"label": "*1", "atom_type": "Cs"}, "2": {"label": "*0", "atom_type": "S2s"}, "8": {"label": "*2", "atom_type": "H0"}, "15": {"label": "*3", "atom_type": "Cs"}, "16": {"label": "*4", "atom_type": "Cs"}}

>  <type>  (7) 
unop_3

>  <geom_source>  (7) 
Heuristics

$$$$

     RDKit          3D

 32 30  0  0  0  0  0  0  0  0999 V2000
    1.6350   -0.5751   -2.7373 C   0  0  0  0  0  0  0  0  0  0  0  0
    1.6350   -0.5751   -1.2175 C   0  0  0  0  0  3  0  0  0  0  0  0
    1.6350    1.0660   -0.4527 S   0  0  0  0  0  0  0  0  0  0  0  0
    3.1756    1.7799   -1.0812 C   0  0  0  0  0  0  0  0  0  0  0  0
    4.4365    1.0210   -0.7020 C   0  0  0  0  0  0  0  0  0  0  0  0
    2.5580   -0.1516   -3.1367 H   0  0  0  0  0  0  0  0  0  0  0  0
    1.5524   -1.5963   -3.1159 H   0  0  0  0  0  0  0  0  0  0  0  0
    0.7993    0.0073   -3.1267 H   0  0  0  0  0  0  0  0  0  0  0  0
    0.5415   -1.1318   -0.7600 H   0  0  0  0  0  0  0  0  0  0  0  0
    2.4712   -1.1578   -0.8275 H   0  0  0  0  0  0  0  0  0  0  0  0
    3.1044    1.9021   -2.1633 H   0  0  0  0  0  0  0  0  0  0  0  0
    3.1906    2.7830   -0.6520 H   0  0  0  0  0  0  0  0  0  0  0  0
    4.4577    0.0292   -1.1567 H   0  0  0  0  0  0  0  0  0  0  0  0
    4.5072    0.8990    0.3794 H   0  0  0  0  0  0  0  0  0  0  0  0
    5.3212    1.5594   -1.0490 H   0  0  0  0  0  0  0  0  0  0  0  0
   -0.5516   -1.6883   -0.3026 C   0  0  0  0  0  0  0  0  0  0  0  0
   -1.7888   -0.9373   -0.7767 C   0  0  0  0  0  0  0  0  0  0  0  0
   -2.9329   -0.9884    0.2150 C   0  0  0  0  0  0  0  0  0  0  0  0
   -2.5471   -0.3472    1.4046 O   0  0  0  0  0  0  0  0  0  0  0  0
   -3.5386   -0.3773    2.3994 C   0  0  0  0  0  0  0  0  0  0  0  0
   -3.0226    0.3345    3.6285 C   0  0  0  0  0  0  0  0  0  0  0  0
   -0.1798   -1.2686    0.6321 H   0  0  0  0  0  0  0  0  0  0  0  0
   -0.7785   -2.7433   -0.1302 H   0  0  0  0  0  0  0  0  0  0  0  0
   -2.1442   -1.3566   -1.7220 H   0  0  0  0  0  0  0  0  0  0  0  0
   -1.5416    0.1102   -0.9679 H   0  0  0  0  0  0  0  0  0  0  0  0
   -3.2050   -2.0350    0.4246 H   0  0  0  0  0  0  0  0  0  0  0  0
   -3.8232   -0.4969   -0.2043 H   0  0  0  0  0  0  0  0  0  0  0  0
   -4.4548    0.1074    2.0307 H   0  0  0  0  0  0  0  0  0  0  0  0
   -3.7977   -1.4192    2.6388 H   0  0  0  0  0  0  0  0  0  0  0  0
   -2.7785    1.3715    3.3953 H   0  0  0  0  0  0  0  0  0  0  0  0
   -3.7776    0.3243    4.4162 H   0  0  0  0  0  0  0  0  0  0  0  0
   -2.1231   -0.1547    4.0039 H   0  0  0  0  0  0  0  0  0  0  0  0
  1  2  1  0
  1  6  1  0
  1  7  1  0
  1  8  1  0
  2  3  1  0
  2 10  1  0
  3  4  1  0
  4  5  1  0
  4 11  1  0
  4 12  1  0
  5 13  1  0
  5 14  1  0
  5 15  1  0
  9 16  1  0
 16 17  1  0
 16 22  1  0
 16 23  1  0
 17 18  1  0
 17 24  1  0
 17 25  1  0
 18 19  1  0
 18 26  1  0
 18 27  1  0
 19 20  1  0
 20 21  1  0
 20 28  1  0
 20 29  1  0
 21 30  1  0
 21 31  1  0
 21 32  1  0
M  RAD  1   2   2
M  END
>  <reaction>  (8) 
rmg_rxn_238

>  <mol_properties>  (8) 
{"1": {"label": "*1", "atom_type": "Cs"}, "2": {"label": "*0", "atom_type": "S2s"}, "8": {"label": "*2", "atom_type": "H0"}, "15": {"label": "*3", "atom_type": "Cs"}, "16": {"label": "*4", "atom_type": "Cs"}}

>  <type>  (8) 
unop_4

>  <geom_source>  (8) 
Heuristics

$$$$

     RDKit          3D

 32 30  0  0  0  0  0  0  0  0999 V2000
    1.3453    0.7187   -2.7990 C   0  0  0  0  0  0  0  0  0  0  0  0
    1.3453    0.7187   -1.2793 C   0  0  0  0  0  3  0  0  0  0  0  0
    1.3453    2.3597   -0.5144 S   0  0  0  0  0  0  0  0  0  0  0  0
    2.8859    3.0737   -1.1430 C   0  0  0  0  0  0  0  0  0  0  0  0
    4.1468    2.3148   -0.7638 C   0  0  0  0  0  0  0  0  0  0  0  0
    2.2683    1.1422   -3.1985 H   0  0  0  0  0  0  0  0  0  0  0  0
    1.2628   -0.3025   -3.1777 H   0  0  0  0  0  0  0  0  0  0  0  0
    0.5096    1.3011   -3.1884 H   0  0  0  0  0  0  0  0  0  0  0  0
    0.2519    0.1620   -0.8218 H   0  0  0  0  0  0  0  0  0  0  0  0
    2.1815    0.1360   -0.8893 H   0  0  0  0  0  0  0  0  0  0  0  0
    2.8148    3.1959   -2.2251 H   0  0  0  0  0  0  0  0  0  0  0  0
    2.9010    4.0768   -0.7137 H   0  0  0  0  0  0  0  0  0  0  0  0
    4.1680    1.3230   -1.2185 H   0  0  0  0  0  0  0  0  0  0  0  0
    4.2175    2.1928    0.3176 H   0  0  0  0  0  0  0  0  0  0  0  0
    5.0316    2.8532   -1.1107 H   0  0  0  0  0  0  0  0  0  0  0  0
   -0.8413   -0.3945   -0.3643 C   0  0  0  0  0  0  0  0  0  0  0  0
   -0.8566   -0.4022    1.1585 C   0  0  0  0  0  0  0  0  0  0  0  0
   -2.1073   -1.0305    1.7383 C   0  0  0  0  0  0  0  0  0  0  0  0
   -2.1656   -2.3836    1.3632 O   0  0  0  0  0  0  0  0  0  0  0  0
   -3.3164   -3.0409    1.8292 C   0  0  0  0  0  0  0  0  0  0  0  0
   -3.2789   -4.4805    1.3714 C   0  0  0  0  0  0  0  0  0  0  0  0
   -0.8967   -1.4101   -0.7562 H   0  0  0  0  0  0  0  0  0  0  0  0
   -1.6929    0.1649   -0.7597 H   0  0  0  0  0  0  0  0  0  0  0  0
   -0.7856    0.6199    1.5407 H   0  0  0  0  0  0  0  0  0  0  0  0
    0.0128   -0.9441    1.5397 H   0  0  0  0  0  0  0  0  0  0  0  0
   -3.0010   -0.5011    1.3716 H   0  0  0  0  0  0  0  0  0  0  0  0
   -2.1037   -0.9451    2.8349 H   0  0  0  0  0  0  0  0  0  0  0  0
   -3.3601   -2.9877    2.9272 H   0  0  0  0  0  0  0  0  0  0  0  0
   -4.2164   -2.5385    1.4449 H   0  0  0  0  0  0  0  0  0  0  0  0
   -2.3941   -4.9832    1.7634 H   0  0  0  0  0  0  0  0  0  0  0  0
   -4.1645   -5.0122    1.7229 H   0  0  0  0  0  0  0  0  0  0  0  0
   -3.2513   -4.5346    0.2825 H   0  0  0  0  0  0  0  0  0  0  0  0
  1  2  1  0
  1  6  1  0
  1  7  1  0
  1  8  1  0
  2  3  1  0
  2 10  1  0
  3  4  1  0
  4  5  1  0
  4 11  1  0
  4 12  1  0
  5 13  1  0
  5 14  1  0
  5 15  1  0
  9 16  1  0
 16 17  1  0
 16 22  1  0
 16 23  1  0
 17 18  1  0
 17 24  1  0
 17 25  1  0
 18 19  1  0
 18 26  1  0
 18 27  1  0
 19 20  1  0
 20 21  1  0
 20 28  1  0
 20 29  1  0
 21 30  1  0
 21 31  1  0
 21 32  1  0
M  RAD  1   2   2
M  END
>  <reaction>  (9) 
rmg_rxn_238

>  <mol_properties>  (9) 
{"1": {"label": "*1", "atom_type": "Cs"}, "2": {"label": "*0", "atom_type": "S2s"}, "8": {"label": "*2", "atom_type": "H0"}, "15": {"label": "*3", "atom_type": "Cs"}, "16": {"label": "*4", "atom_type": "Cs"}}

>  <type>  (9) 
unop_5

>  <geom_source>  (9) 
Heuristics

$$$$

     RDKit          3D

 32 30  0  0  0  0  0  0  0  0999 V2000
    1.2705   -0.4199   -3.1133 C   0  0  0  0  0  0  0  0  0  0  0  0
    1.2705   -0.4199   -1.5935 C   0  0  0  0  0  3  0  0  0  0  0  0
    1.2705    1.2211   -0.8286 S   0  0  0  0  0  0  0  0  0  0  0  0
    2.8111    1.9351   -1.4572 C   0  0  0  0  0  0  0  0  0  0  0  0
    4.0720    1.1762   -1.0780 C   0  0  0  0  0  0  0  0  0  0  0  0
    2.1935    0.0036   -3.5127 H   0  0  0  0  0  0  0  0  0  0  0  0
    1.1879   -1.4411   -3.4919 H   0  0  0  0  0  0  0  0  0  0  0  0
    0.4348    0.1625   -3.5027 H   0  0  0  0  0  0  0  0  0  0  0  0
    0.1770   -0.9766   -1.1360 H   0  0  0  0  0  0  0  0  0  0  0  0
    2.1067   -1.0026   -1.2035 H   0  0  0  0  0  0  0  0  0  0  0  0
    2.7399    2.0573   -2.5393 H   0  0  0  0  0  0  0  0  0  0  0  0
    2.8262    2.9382   -1.0280 H   0  0  0  0  0  0  0  0  0  0  0  0
    4.0932    0.1844   -1.5327 H   0  0  0  0  0  0  0  0  0  0  0  0
    4.1427    1.0542    0.0034 H   0  0  0  0  0  0  0  0  0  0  0  0
    4.9567    1.7146   -1.4250 H   0  0  0  0  0  0  0  0  0  0  0  0
   -0.9161   -1.5331   -0.6786 C   0  0  0  0  0  0  0  0  0  0  0  0
   -2.0184   -0.4998   -0.4870 C   0  0  0  0  0  0  0  0  0  0  0  0
   -2.8431   -0.7334    0.7622 C   0  0  0  0  0  0  0  0  0  0  0  0
   -2.0199   -0.6068    1.8941 O   0  0  0  0  0  0  0  0  0  0  0  0
   -2.6959   -0.8432    3.1027 C   0  0  0  0  0  0  0  0  0  0  0  0
   -1.7237   -0.6830    4.2484 C   0  0  0  0  0  0  0  0  0  0  0  0
   -0.2251   -1.5211    0.1642 H   0  0  0  0  0  0  0  0  0  0  0  0
   -1.3347   -2.5397   -0.7553 H   0  0  0  0  0  0  0  0  0  0  0  0
   -2.6969   -0.5101   -1.3446 H   0  0  0  0  0  0  0  0  0  0  0  0
   -1.5876    0.5034   -0.4360 H   0  0  0  0  0  0  0  0  0  0  0  0
   -3.2922   -1.7389    0.7360 H   0  0  0  0  0  0  0  0  0  0  0  0
   -3.6683   -0.0081    0.8155 H   0  0  0  0  0  0  0  0  0  0  0  0
   -3.5338   -0.1382    3.2080 H   0  0  0  0  0  0  0  0  0  0  0  0
   -3.1240   -1.8565    3.1005 H   0  0  0  0  0  0  0  0  0  0  0  0
   -1.3092    0.3256    4.2596 H   0  0  0  0  0  0  0  0  0  0  0  0
   -2.2276   -0.8617    5.1996 H   0  0  0  0  0  0  0  0  0  0  0  0
   -0.9007   -1.3922    4.1533 H   0  0  0  0  0  0  0  0  0  0  0  0
  1  2  1  0
  1  6  1  0
  1  7  1  0
  1  8  1  0
  2  3  1  0
  2 10  1  0
  3  4  1  0
  4  5  1  0
  4 11  1  0
  4 12  1  0
  5 13  1  0
  5 14  1  0
  5 15  1  0
  9 16  1  0
 16 17  1  0
 16 22  1  0
 16 23  1  0
 17 18  1  0
 17 24  1  0
 17 25  1  0
 18 19  1  0
 18 26  1  0
 18 27  1  0
 19 20  1  0
 20 21  1  0
 20 28  1  0
 20 29  1  0
 21 30  1  0
 21 31  1  0
 21 32  1  0
M  RAD  1   2   2
M  END
>  <reaction>  (10) 
rmg_rxn_238

>  <mol_properties>  (10) 
{"1": {"label": "*1", "atom_type": "Cs"}, "2": {"label": "*0", "atom_type": "S2s"}, "8": {"label": "*2", "atom_type": "H0"}, "15": {"label": "*3", "atom_type": "Cs"}, "16": {"label": "*4", "atom_type": "Cs"}}

>  <type>  (10) 
unop_6

>  <geom_source>  (10) 
Heuristics

$$$$

     RDKit          3D

 32 30  0  0  0  0  0  0  0  0999 V2000
    0.9750    0.0181   -3.2683 C   0  0  0  0  0  0  0  0  0  0  0  0
    0.9750    0.0181   -1.7485 C   0  0  0  0  0  3  0  0  0  0  0  0
    0.9750    1.6592   -0.9836 S   0  0  0  0  0  0  0  0  0  0  0  0
    2.5156    2.3731   -1.6122 C   0  0  0  0  0  0  0  0  0  0  0  0
    3.7765    1.6142   -1.2330 C   0  0  0  0  0  0  0  0  0  0  0  0
    1.8980    0.4416   -3.6677 H   0  0  0  0  0  0  0  0  0  0  0  0
    0.8924   -1.0031   -3.6469 H   0  0  0  0  0  0  0  0  0  0  0  0
    0.1393    0.6005   -3.6577 H   0  0  0  0  0  0  0  0  0  0  0  0
   -0.1185   -0.5386   -1.2910 H   0  0  0  0  0  0  0  0  0  0  0  0
    1.8112   -0.5646   -1.3585 H   0  0  0  0  0  0  0  0  0  0  0  0
    2.4444    2.4953   -2.6943 H   0  0  0  0  0  0  0  0  0  0  0  0
    2.5307    3.3762   -1.1830 H   0  0  0  0  0  0  0  0  0  0  0  0
    3.7977    0.6224   -1.6877 H   0  0  0  0  0  0  0  0  0  0  0  0
    3.8472    1.4922   -0.1516 H   0  0  0  0  0  0  0  0  0  0  0  0
    4.6612    2.1526   -1.5800 H   0  0  0  0  0  0  0  0  0  0  0  0
   -1.2116   -1.0951   -0.8335 C   0  0  0  0  0  0  0  0  0  0  0  0
   -2.0063   -0.1189    0.0236 C   0  0  0  0  0  0  0  0  0  0  0  0
   -2.6241   -0.7662    1.2462 C   0  0  0  0  0  0  0  0  0  0  0  0
   -1.6036   -1.2455    2.0851 O   0  0  0  0  0  0  0  0  0  0  0  0
   -2.0867   -1.8962    3.2326 C   0  0  0  0  0  0  0  0  0  0  0  0
   -0.9135   -2.3700    4.0589 C   0  0  0  0  0  0  0  0  0  0  0  0
   -0.3950   -1.5351   -0.2612 H   0  0  0  0  0  0  0  0  0  0  0  0
   -1.8486   -1.9085   -1.1898 H   0  0  0  0  0  0  0  0  0  0  0  0
   -2.8131    0.3276   -0.5643 H   0  0  0  0  0  0  0  0  0  0  0  0
   -1.3630    0.7013    0.3527 H   0  0  0  0  0  0  0  0  0  0  0  0
   -3.2810   -1.5968    0.9428 H   0  0  0  0  0  0  0  0  0  0  0  0
   -3.2458   -0.0394    1.7893 H   0  0  0  0  0  0  0  0  0  0  0  0
   -2.7158   -1.2084    3.8170 H   0  0  0  0  0  0  0  0  0  0  0  0
   -2.7208   -2.7468    2.9420 H   0  0  0  0  0  0  0  0  0  0  0  0
   -0.2918   -1.5258    4.3591 H   0  0  0  0  0  0  0  0  0  0  0  0
   -1.2651   -2.8790    4.9577 H   0  0  0  0  0  0  0  0  0  0  0  0
   -0.2978   -3.0640    3.4856 H   0  0  0  0  0  0  0  0  0  0  0  0
  1  2  1  0
  1  6  1  0
  1  7  1  0
  1  8  1  0
  2  3  1  0
  2 10  1  0
  3  4  1  0
  4  5  1  0
  4 11  1  0
  4 12  1  0
  5 13  1  0
  5 14  1  0
  5 15  1  0
  9 16  1  0
 16 17  1  0
 16 22  1  0
 16 23  1  0
 17 18  1  0
 17 24  1  0
 17 25  1  0
 18 19  1  0
 18 26  1  0
 18 27  1  0
 19 20  1  0
 20 21  1  0
 20 28  1  0
 20 29  1  0
 21 30  1  0
 21 31  1  0
 21 32  1  0
M  RAD  1   2   2
M  END
>  <reaction>  (11) 
rmg_rxn_238

>  <mol_properties>  (11) 
{"1": {"label": "*1", "atom_type": "Cs"}, "2": {"label": "*0", "atom_type": "S2s"}, "8": {"label": "*2", "atom_type": "H0"}, "15": {"label": "*3", "atom_type": "Cs"}, "16": {"label": "*4", "atom_type": "Cs"}}

>  <type>  (11) 
unop_7

>  <geom_source>  (11) 
Heuristics

$$$$

     RDKit          3D

 32 30  0  0  0  0  0  0  0  0999 V2000
    1.4473    0.7331   -2.6851 C   0  0  0  0  0  0  0  0  0  0  0  0
    1.4473    0.7331   -1.1653 C   0  0  0  0  0  3  0  0  0  0  0  0
    1.4473    2.3741   -0.4005 S   0  0  0  0  0  0  0  0  0  0  0  0
    2.9879    3.0881   -1.0290 C   0  0  0  0  0  0  0  0  0  0  0  0
    4.2488    2.3292   -0.6498 C   0  0  0  0  0  0  0  0  0  0  0  0
    2.3703    1.1566   -3.0845 H   0  0  0  0  0  0  0  0  0  0  0  0
    1.3647   -0.2881   -3.0637 H   0  0  0  0  0  0  0  0  0  0  0  0
    0.6116    1.3155   -3.0745 H   0  0  0  0  0  0  0  0  0  0  0  0
    0.3538    0.1764   -0.7078 H   0  0  0  0  0  0  0  0  0  0  0  0
    2.2835    0.1504   -0.7753 H   0  0  0  0  0  0  0  0  0  0  0  0
    2.9167    3.2103   -2.1111 H   0  0  0  0  0  0  0  0  0  0  0  0
    3.0029    4.0912   -0.5998 H   0  0  0  0  0  0  0  0  0  0  0  0
    4.2700    1.3374   -1.1045 H   0  0  0  0  0  0  0  0  0  0  0  0
    4.3194    2.2072    0.4316 H   0  0  0  0  0  0  0  0  0  0  0  0
    5.1335    2.8676   -0.9968 H   0  0  0  0  0  0  0  0  0  0  0  0
   -0.7394   -0.3801   -0.2504 C   0  0  0  0  0  0  0  0  0  0  0  0
   -0.5525   -1.8793   -0.0588 C   0  0  0  0  0  0  0  0  0  0  0  0
   -1.2140   -2.4061    1.1982 C   0  0  0  0  0  0  0  0  0  0  0  0
   -2.6037   -2.2176    1.1071 O   0  0  0  0  0  0  0  0  0  0  0  0
   -3.2992   -2.6468    2.2497 C   0  0  0  0  0  0  0  0  0  0  0  0
   -4.7761   -2.3988    2.0474 C   0  0  0  0  0  0  0  0  0  0  0  0
   -1.7977   -0.1287   -0.3201 H   0  0  0  0  0  0  0  0  0  0  0  0
   -0.3168    0.1758    0.5904 H   0  0  0  0  0  0  0  0  0  0  0  0
    0.5125   -2.1219   -0.0052 H   0  0  0  0  0  0  0  0  0  0  0  0
   -0.9578   -2.4207   -0.9175 H   0  0  0  0  0  0  0  0  0  0  0  0
   -0.8213   -1.8782    2.0816 H   0  0  0  0  0  0  0  0  0  0  0  0
   -0.9882   -3.4746    1.3287 H   0  0  0  0  0  0  0  0  0  0  0  0
   -3.1094   -3.7162    2.4247 H   0  0  0  0  0  0  0  0  0  0  0  0
   -2.9360   -2.1046    3.1351 H   0  0  0  0  0  0  0  0  0  0  0  0
   -5.1400   -2.9470    1.1777 H   0  0  0  0  0  0  0  0  0  0  0  0
   -5.3379   -2.7257    2.9238 H   0  0  0  0  0  0  0  0  0  0  0  0
   -4.9671   -1.3368    1.8893 H   0  0  0  0  0  0  0  0  0  0  0  0
  1  2  1  0
  1  6  1  0
  1  7  1  0
  1  8  1  0
  2  3  1  0
  2 10  1  0
  3  4  1  0
  4  5  1  0
  4 11  1  0
  4 12  1  0
  5 13  1  0
  5 14  1  0
  5 15  1  0
  9 16  1  0
 16 17  1  0
 16 22  1  0
 16 23  1  0
 17 18  1  0
 17 24  1  0
 17 25  1  0
 18 19  1  0
 18 26  1  0
 18 27  1  0
 19 20  1  0
 20 21  1  0
 20 28  1  0
 20 29  1  0
 21 30  1  0
 21 31  1  0
 21 32  1  0
M  RAD  1   2   2
M  END
>  <reaction>  (12) 
rmg_rxn_238

>  <mol_properties>  (12) 
{"1": {"label": "*1", "atom_type": "Cs"}, "2": {"label": "*0", "atom_type": "S2s"}, "8": {"label": "*2", "atom_type": "H0"}, "15": {"label": "*3", "atom_type": "Cs"}, "16": {"label": "*4", "atom_type": "Cs"}}

>  <type>  (12) 
unop_8

>  <geom_source>  (12) 
Heuristics

$$$$

     RDKit          3D

 32 30  0  0  0  0  0  0  0  0999 V2000
    1.9116   -0.3718   -2.3103 C   0  0  0  0  0  0  0  0  0  0  0  0
    1.9116   -0.3718   -0.7906 C   0  0  0  0  0  3  0  0  0  0  0  0
    1.9116    1.2692   -0.0257 S   0  0  0  0  0  0  0  0  0  0  0  0
    3.4522    1.9832   -0.6543 C   0  0  0  0  0  0  0  0  0  0  0  0
    4.7131    1.2243   -0.2751 C   0  0  0  0  0  0  0  0  0  0  0  0
    2.8347    0.0517   -2.7098 H   0  0  0  0  0  0  0  0  0  0  0  0
    1.8291   -1.3930   -2.6890 H   0  0  0  0  0  0  0  0  0  0  0  0
    1.0759    0.2106   -2.6997 H   0  0  0  0  0  0  0  0  0  0  0  0
    0.8182   -0.9285   -0.3331 H   0  0  0  0  0  0  0  0  0  0  0  0
    2.7478   -0.9545   -0.4006 H   0  0  0  0  0  0  0  0  0  0  0  0
    3.3811    2.1054   -1.7364 H   0  0  0  0  0  0  0  0  0  0  0  0
    3.4673    2.9863   -0.2250 H   0  0  0  0  0  0  0  0  0  0  0  0
    4.7344    0.2325   -0.7298 H   0  0  0  0  0  0  0  0  0  0  0  0
    4.7838    1.1023    0.8063 H   0  0  0  0  0  0  0  0  0  0  0  0
    5.5979    1.7627   -0.6220 H   0  0  0  0  0  0  0  0  0  0  0  0
   -0.2750   -1.4850    0.1244 C   0  0  0  0  0  0  0  0  0  0  0  0
   -1.4381   -1.2799   -0.8370 C   0  0  0  0  0  0  0  0  0  0  0  0
   -2.7902   -1.5116   -0.1940 C   0  0  0  0  0  0  0  0  0  0  0  0
   -2.9875   -0.5677    0.8283 O   0  0  0  0  0  0  0  0  0  0  0  0
   -4.2068   -0.7298    1.5071 C   0  0  0  0  0  0  0  0  0  0  0  0
   -4.3162    0.3293    2.5795 C   0  0  0  0  0  0  0  0  0  0  0  0
   -0.3462   -0.7990    0.9684 H   0  0  0  0  0  0  0  0  0  0  0  0
   -0.2709   -2.5040    0.5192 H   0  0  0  0  0  0  0  0  0  0  0  0
   -1.3487   -1.9623   -1.6869 H   0  0  0  0  0  0  0  0  0  0  0  0
   -1.4157   -0.2649   -1.2421 H   0  0  0  0  0  0  0  0  0  0  0  0
   -2.8415   -2.5304    0.2216 H   0  0  0  0  0  0  0  0  0  0  0  0
   -3.5894   -1.4241   -0.9447 H   0  0  0  0  0  0  0  0  0  0  0  0
   -5.0444   -0.6475    0.7986 H   0  0  0  0  0  0  0  0  0  0  0  0
   -4.2571   -1.7344    1.9523 H   0  0  0  0  0  0  0  0  0  0  0  0
   -4.2802    1.3257    2.1376 H   0  0  0  0  0  0  0  0  0  0  0  0
   -5.2576    0.2234    3.1208 H   0  0  0  0  0  0  0  0  0  0  0  0
   -3.4948    0.2387    3.2912 H   0  0  0  0  0  0  0  0  0  0  0  0
  1  2  1  0
  1  6  1  0
  1  7  1  0
  1  8  1  0
  2  3  1  0
  2 10  1  0
  3  4  1  0
  4  5  1  0
  4 11  1  0
  4 12  1  0
  5 13  1  0
  5 14  1  0
  5 15  1  0
  9 16  1  0
 16 17  1  0
 16 22  1  0
 16 23  1  0
 17 18  1  0
 17 24  1  0
 17 25  1  0
 18 19  1  0
 18 26  1  0
 18 27  1  0
 19 20  1  0
 20 21  1  0
 20 28  1  0
 20 29  1  0
 21 30  1  0
 21 31  1  0
 21 32  1  0
M  RAD  1   2   2
M  END
>  <reaction>  (13) 
rmg_rxn_238

>  <mol_properties>  (13) 
{"1": {"label": "*1", "atom_type": "Cs"}, "2": {"label": "*0", "atom_type": "S2s"}, "8": {"label": "*2", "atom_type": "H0"}, "15": {"label": "*3", "atom_type": "Cs"}, "16": {"label": "*4", "atom_type": "Cs"}}

>  <type>  (13) 
unop_9

>  <geom_source>  (13) 
Heuristics

$$$$

     RDKit          3D

 32 30  0  0  0  0  0  0  0  0999 V2000
    1.5684    0.8007   -2.3819 C   0  0  0  0  0  0  0  0  0  0  0  0
    1.5684    0.8007   -0.8622 C   0  0  0  0  0  3  0  0  0  0  0  0
    1.5684    2.4418   -0.0973 S   0  0  0  0  0  0  0  0  0  0  0  0
    3.1089    3.1557   -0.7259 C   0  0  0  0  0  0  0  0  0  0  0  0
    4.3699    2.3969   -0.3467 C   0  0  0  0  0  0  0  0  0  0  0  0
    2.4914    1.2243   -2.7814 H   0  0  0  0  0  0  0  0  0  0  0  0
    1.4858   -0.2205   -2.7606 H   0  0  0  0  0  0  0  0  0  0  0  0
    0.7326    1.3832   -2.7713 H   0  0  0  0  0  0  0  0  0  0  0  0
    0.4749    0.2441   -0.4047 H   0  0  0  0  0  0  0  0  0  0  0  0
    2.4046    0.2181   -0.4722 H   0  0  0  0  0  0  0  0  0  0  0  0
    3.0378    3.2779   -1.8080 H   0  0  0  0  0  0  0  0  0  0  0  0
    3.1240    4.1589   -0.2966 H   0  0  0  0  0  0  0  0  0  0  0  0
    4.3911    1.4050   -0.8014 H   0  0  0  0  0  0  0  0  0  0  0  0
    4.4405    2.2748    0.7347 H   0  0  0  0  0  0  0  0  0  0  0  0
    5.2546    2.9353   -0.6936 H   0  0  0  0  0  0  0  0  0  0  0  0
   -0.6183   -0.3124    0.0528 C   0  0  0  0  0  0  0  0  0  0  0  0
   -0.7389   -1.7546   -0.4214 C   0  0  0  0  0  0  0  0  0  0  0  0
   -1.4403   -2.6529    0.5768 C   0  0  0  0  0  0  0  0  0  0  0  0
   -2.7630   -2.2115    0.7515 O   0  0  0  0  0  0  0  0  0  0  0  0
   -3.4823   -2.9681    1.6915 C   0  0  0  0  0  0  0  0  0  0  0  0
   -4.8827   -2.4112    1.8019 C   0  0  0  0  0  0  0  0  0  0  0  0
   -1.6032    0.1194    0.2302 H   0  0  0  0  0  0  0  0  0  0  0  0
   -0.0533   -0.2552    0.9866 H   0  0  0  0  0  0  0  0  0  0  0  0
    0.2536   -2.1728   -0.6105 H   0  0  0  0  0  0  0  0  0  0  0  0
   -1.2849   -1.7941   -1.3675 H   0  0  0  0  0  0  0  0  0  0  0  0
   -0.9084   -2.6339    1.5413 H   0  0  0  0  0  0  0  0  0  0  0  0
   -1.4361   -3.6939    0.2216 H   0  0  0  0  0  0  0  0  0  0  0  0
   -3.5115   -4.0231    1.3807 H   0  0  0  0  0  0  0  0  0  0  0  0
   -2.9762   -2.9323    2.6675 H   0  0  0  0  0  0  0  0  0  0  0  0
   -5.3901   -2.4590    0.8378 H   0  0  0  0  0  0  0  0  0  0  0  0
   -5.4616   -2.9847    2.5276 H   0  0  0  0  0  0  0  0  0  0  0  0
   -4.8555   -1.3699    2.1251 H   0  0  0  0  0  0  0  0  0  0  0  0
  1  2  1  0
  1  6  1  0
  1  7  1  0
  1  8  1  0
  2  3  1  0
  2 10  1  0
  3  4  1  0
  4  5  1  0
  4 11  1  0
  4 12  1  0
  5 13  1  0
  5 14  1  0
  5 15  1  0
  9 16  1  0
 16 17  1  0
 16 22  1  0
 16 23  1  0
 17 18  1  0
 17 24  1  0
 17 25  1  0
 18 19  1  0
 18 26  1  0
 18 27  1  0
 19 20  1  0
 20 21  1  0
 20 28  1  0
 20 29  1  0
 21 30  1  0
 21 31  1  0
 21 32  1  0
M  RAD  1   2   2
M  END
>  <reaction>  (14) 
rmg_rxn_238

>  <mol_properties>  (14) 
{"1": {"label": "*1", "atom_type": "Cs"}, "2": {"label": "*0", "atom_type": "S2s"}, "8": {"label": "*2", "atom_type": "H0"}, "15": {"label": "*3", "atom_type": "Cs"}, "16": {"label": "*4", "atom_type": "Cs"}}

>  <type>  (14) 
unop_10

>  <geom_source>  (14) 
Heuristics

$$$$

     RDKit          3D

 32 30  0  0  0  0  0  0  0  0999 V2000
    0.9526    0.5472   -3.1138 C   0  0  0  0  0  0  0  0  0  0  0  0
    0.9526    0.5472   -1.5940 C   0  0  0  0  0  3  0  0  0  0  0  0
    0.9526    2.1882   -0.8291 S   0  0  0  0  0  0  0  0  0  0  0  0
    2.4932    2.9022   -1.4577 C   0  0  0  0  0  0  0  0  0  0  0  0
    3.7541    2.1433   -1.0785 C   0  0  0  0  0  0  0  0  0  0  0  0
    1.8757    0.9707   -3.5132 H   0  0  0  0  0  0  0  0  0  0  0  0
    0.8701   -0.4740   -3.4924 H   0  0  0  0  0  0  0  0  0  0  0  0
    0.1169    1.1296   -3.5032 H   0  0  0  0  0  0  0  0  0  0  0  0
   -0.1408   -0.0095   -1.1365 H   0  0  0  0  0  0  0  0  0  0  0  0
    1.7888   -0.0355   -1.2040 H   0  0  0  0  0  0  0  0  0  0  0  0
    2.4221    3.0244   -2.5398 H   0  0  0  0  0  0  0  0  0  0  0  0
    2.5083    3.9053   -1.0285 H   0  0  0  0  0  0  0  0  0  0  0  0
    3.7754    1.1515   -1.5332 H   0  0  0  0  0  0  0  0  0  0  0  0
    3.8248    2.0213    0.0029 H   0  0  0  0  0  0  0  0  0  0  0  0
    4.6389    2.6817   -1.4255 H   0  0  0  0  0  0  0  0  0  0  0  0
   -1.2340   -0.5660   -0.6791 C   0  0  0  0  0  0  0  0  0  0  0  0
   -1.6308    0.0292    0.6654 C   0  0  0  0  0  0  0  0  0  0  0  0
   -2.3943   -0.9406    1.5439 C   0  0  0  0  0  0  0  0  0  0  0  0
   -1.5696   -2.0351    1.8555 O   0  0  0  0  0  0  0  0  0  0  0  0
   -2.2096   -3.0076    2.6418 C   0  0  0  0  0  0  0  0  0  0  0  0
   -1.2396   -4.1334    2.9158 C   0  0  0  0  0  0  0  0  0  0  0  0
   -0.5959   -1.4389   -0.5416 H   0  0  0  0  0  0  0  0  0  0  0  0
   -2.1166   -0.8804   -1.2417 H   0  0  0  0  0  0  0  0  0  0  0  0
   -2.2580    0.9124    0.5155 H   0  0  0  0  0  0  0  0  0  0  0  0
   -0.7408    0.3609    1.2063 H   0  0  0  0  0  0  0  0  0  0  0  0
   -3.2999   -1.2900    1.0231 H   0  0  0  0  0  0  0  0  0  0  0  0
   -2.7207   -0.4418    2.4683 H   0  0  0  0  0  0  0  0  0  0  0  0
   -2.5549   -2.5594    3.5853 H   0  0  0  0  0  0  0  0  0  0  0  0
   -3.1000   -3.3860    2.1185 H   0  0  0  0  0  0  0  0  0  0  0  0
   -0.3627   -3.7616    3.4469 H   0  0  0  0  0  0  0  0  0  0  0  0
   -1.7154   -4.9021    3.5269 H   0  0  0  0  0  0  0  0  0  0  0  0
   -0.9087   -4.5886    1.9816 H   0  0  0  0  0  0  0  0  0  0  0  0
  1  2  1  0
  1  6  1  0
  1  7  1  0
  1  8  1  0
  2  3  1  0
  2 10  1  0
  3  4  1  0
  4  5  1  0
  4 11  1  0
  4 12  1  0
  5 13  1  0
  5 14  1  0
  5 15  1  0
  9 16  1  0
 16 17  1  0
 16 22  1  0
 16 23  1  0
 17 18  1  0
 17 24  1  0
 17 25  1  0
 18 19  1  0
 18 26  1  0
 18 27  1  0
 19 20  1  0
 20 21  1  0
 20 28  1  0
 20 29  1  0
 21 30  1  0
 21 31  1  0
 21 32  1  0
M  RAD  1   2   2
M  END
>  <reaction>  (15) 
rmg_rxn_238

>  <mol_properties>  (15) 
{"1": {"label": "*1", "atom_type": "Cs"}, "2": {"label": "*0", "atom_type": "S2s"}, "8": {"label": "*2", "atom_type": "H0"}, "15": {"label": "*3", "atom_type": "Cs"}, "16": {"label": "*4", "atom_type": "Cs"}}

>  <type>  (15) 
unop_11

>  <geom_source>  (15) 
Heuristics

$$$$

     RDKit          3D

 32 30  0  0  0  0  0  0  0  0999 V2000
    1.9687    0.1093   -2.0507 C   0  0  0  0  0  0  0  0  0  0  0  0
    1.9687    0.1093   -0.5309 C   0  0  0  0  0  3  0  0  0  0  0  0
    1.9687    1.7504    0.2340 S   0  0  0  0  0  0  0  0  0  0  0  0
    3.5093    2.4643   -0.3946 C   0  0  0  0  0  0  0  0  0  0  0  0
    4.7702    1.7054   -0.0154 C   0  0  0  0  0  0  0  0  0  0  0  0
    2.8917    0.5328   -2.4501 H   0  0  0  0  0  0  0  0  0  0  0  0
    1.8861   -0.9119   -2.4293 H   0  0  0  0  0  0  0  0  0  0  0  0
    1.1330    0.6917   -2.4401 H   0  0  0  0  0  0  0  0  0  0  0  0
    0.8752   -0.4474   -0.0734 H   0  0  0  0  0  0  0  0  0  0  0  0
    2.8049   -0.4734   -0.1409 H   0  0  0  0  0  0  0  0  0  0  0  0
    3.4381    2.5865   -1.4767 H   0  0  0  0  0  0  0  0  0  0  0  0
    3.5243    3.4675    0.0346 H   0  0  0  0  0  0  0  0  0  0  0  0
    4.7914    0.7136   -0.4701 H   0  0  0  0  0  0  0  0  0  0  0  0
    4.8409    1.5834    1.0660 H   0  0  0  0  0  0  0  0  0  0  0  0
    5.6549    2.2438   -0.3624 H   0  0  0  0  0  0  0  0  0  0  0  0
   -0.2179   -1.0038    0.3841 C   0  0  0  0  0  0  0  0  0  0  0  0
   -1.1181   -1.4621   -0.7557 C   0  0  0  0  0  0  0  0  0  0  0  0
   -2.3958   -2.1209   -0.2775 C   0  0  0  0  0  0  0  0  0  0  0  0
   -3.1604   -1.1867    0.4419 O   0  0  0  0  0  0  0  0  0  0  0  0
   -4.3528   -1.7223    0.9564 C   0  0  0  0  0  0  0  0  0  0  0  0
   -5.0928   -0.6403    1.7082 C   0  0  0  0  0  0  0  0  0  0  0  0
   -0.7321   -0.2782    1.0142 H   0  0  0  0  0  0  0  0  0  0  0  0
    0.0739   -1.8482    1.0136 H   0  0  0  0  0  0  0  0  0  0  0  0
   -0.5875   -2.1780   -1.3896 H   0  0  0  0  0  0  0  0  0  0  0  0
   -1.3822   -0.6121   -1.3903 H   0  0  0  0  0  0  0  0  0  0  0  0
   -2.1585   -2.9845    0.3639 H   0  0  0  0  0  0  0  0  0  0  0  0
   -2.9735   -2.4986   -1.1338 H   0  0  0  0  0  0  0  0  0  0  0  0
   -4.9730   -2.1135    0.1363 H   0  0  0  0  0  0  0  0  0  0  0  0
   -4.1269   -2.5679    1.6228 H   0  0  0  0  0  0  0  0  0  0  0  0
   -5.3294    0.1924    1.0449 H   0  0  0  0  0  0  0  0  0  0  0  0
   -6.0247   -1.0338    2.1173 H   0  0  0  0  0  0  0  0  0  0  0  0
   -4.4850   -0.2627    2.5312 H   0  0  0  0  0  0  0  0  0  0  0  0
  1  2  1  0
  1  6  1  0
  1  7  1  0
  1  8  1  0
  2  3  1  0
  2 10  1  0
  3  4  1  0
  4  5  1  0
  4 11  1  0
  4 12  1  0
  5 13  1  0
  5 14  1  0
  5 15  1  0
  9 16  1  0
 16 17  1  0
 16 22  1  0
 16 23  1  0
 17 18  1  0
 17 24  1  0
 17 25  1  0
 18 19  1  0
 18 26  1  0
 18 27  1  0
 19 20  1  0
 20 21  1  0
 20 28  1  0
 20 29  1  0
 21 30  1  0
 21 31  1  0
 21 32  1  0
M  RAD  1   2   2
M  END
>  <reaction>  (16) 
rmg_rxn_238

>  <mol_properties>  (16) 
{"1": {"label": "*1", "atom_type": "Cs"}, "2": {"label": "*0", "atom_type": "S2s"}, "8": {"label": "*2", "atom_type": "H0"}, "15": {"label": "*3", "atom_type": "Cs"}, "16": {"label": "*4", "atom_type": "Cs"}}

>  <type>  (16) 
unop_12

>  <geom_source>  (16) 
Heuristics

$$$$

     RDKit          3D

 32 30  0  0  0  0  0  0  0  0999 V2000
   -2.0903    1.2052    0.3727 S   0  0  0  0  0  0  0  0  0  0  0  0
    2.6581   -0.2692    0.1009 O   0  0  0  0  0  0  0  0  0  0  0  0
    1.4247   -0.5692   -1.9424 C   0  0  0  0  0  0  0  0  0  0  0  0
    1.9938    0.4279   -0.9327 C   0  0  0  0  0  0  0  0  0  0  0  0
    3.1638    0.6534    1.0416 C   0  0  0  0  0  0  0  0  0  0  0  0
   -2.9657   -0.1850    1.1622 C   0  0  0  0  0  0  0  0  0  0  0  0
    0.3404   -1.4466   -1.3223 C   0  0  0  0  0  0  0  0  0  0  0  0
    3.8860   -0.1046    2.1448 C   0  0  0  0  0  0  0  0  0  0  0  0
   -3.4967    0.2411    2.5224 C   0  0  0  0  0  0  0  0  0  0  0  0
   -2.6378    0.4765   -2.2237 C   0  0  0  0  0  0  0  0  0  0  0  0
   -1.6380    0.2391   -1.1030 C   0  0  0  0  0  3  0  0  0  0  0  0
    2.2430   -1.2125   -2.3326 H   0  0  0  0  0  0  0  0  0  0  0  0
    0.9866   -0.0094   -2.7967 H   0  0  0  0  0  0  0  0  0  0  0  0
    2.7070    1.0913   -1.4731 H   0  0  0  0  0  0  0  0  0  0  0  0
    1.1597    1.0473   -0.5289 H   0  0  0  0  0  0  0  0  0  0  0  0
    2.3374    1.2390    1.5054 H   0  0  0  0  0  0  0  0  0  0  0  0
    3.8906    1.3494    0.5637 H   0  0  0  0  0  0  0  0  0  0  0  0
   -3.8153   -0.5058    0.5228 H   0  0  0  0  0  0  0  0  0  0  0  0
   -2.2668   -1.0389    1.2929 H   0  0  0  0  0  0  0  0  0  0  0  0
    0.7583   -2.0534   -0.4912 H   0  0  0  0  0  0  0  0  0  0  0  0
   -0.0659   -2.1351   -2.0930 H   0  0  0  0  0  0  0  0  0  0  0  0
   -0.6049   -0.7272   -0.8824 H   0  0  0  0  0  0  0  0  0  0  0  0
    4.2879    0.6117    2.8921 H   0  0  0  0  0  0  0  0  0  0  0  0
    4.7281   -0.6885    1.7162 H   0  0  0  0  0  0  0  0  0  0  0  0
    3.1825   -0.7983    2.6525 H   0  0  0  0  0  0  0  0  0  0  0  0
   -4.2070    1.0872    2.4076 H   0  0  0  0  0  0  0  0  0  0  0  0
   -4.0278   -0.6098    2.9987 H   0  0  0  0  0  0  0  0  0  0  0  0
   -2.6577    0.5525    3.1802 H   0  0  0  0  0  0  0  0  0  0  0  0
   -2.3434   -0.1208   -3.1115 H   0  0  0  0  0  0  0  0  0  0  0  0
   -2.6549    1.5518   -2.5011 H   0  0  0  0  0  0  0  0  0  0  0  0
   -3.6527    0.1615   -1.9038 H   0  0  0  0  0  0  0  0  0  0  0  0
   -0.6233    0.5395   -1.4387 H   0  0  0  0  0  0  0  0  0  0  0  0
  1 11  1  0
  1  6  1  0
  2  5  1  0
  2  4  1  0
  3  7  1  0
  3  4  1  0
  3 12  1  0
  3 13  1  0
  4 14  1  0
  4 15  1  0
  5  8  1  0
  5 16  1  0
  5 17  1  0
  6  9  1  0
  6 18  1  0
  6 19  1  0
  7 20  1  0
  7 21  1  0
  7 22  1  0
  8 23  1  0
  8 24  1  0
  8 25  1  0
  9 26  1  0
  9 27  1  0
  9 28  1  0
 10 11  1  0
 10 29  1  0
 10 30  1  0
 10 31  1  0
 11 32  1  0
M  RAD  1  11   2
M  END
>  <reaction>  (17) 
rmg_rxn_238

>  <mol_properties>  (17) 
{"1": {"label": "*1", "atom_type": "Cs"}, "2": {"label": "*0", "atom_type": "S2s"}, "8": {"label": "*2", "atom_type": "H0"}, "15": {"label": "*3", "atom_type": "Cs"}, "16": {"label": "*4", "atom_type": "Cs"}}

>  <type>  (17) 
unop_13

>  <geom_source>  (17) 
AutoTST

$$$$

     RDKit          3D

 32 30  0  0  0  0  0  0  0  0999 V2000
    1.7977    0.5863   -2.1008 C   0  0  0  0  0  0  0  0  0  0  0  0
    1.7977    0.5863   -0.5810 C   0  0  0  0  0  3  0  0  0  0  0  0
    1.7977    2.2274    0.1839 S   0  0  0  0  0  0  0  0  0  0  0  0
    3.3383    2.9413   -0.4447 C   0  0  0  0  0  0  0  0  0  0  0  0
    4.5992    2.1825   -0.0655 C   0  0  0  0  0  0  0  0  0  0  0  0
    2.7207    1.0099   -2.5002 H   0  0  0  0  0  0  0  0  0  0  0  0
    1.7151   -0.4349   -2.4794 H   0  0  0  0  0  0  0  0  0  0  0  0
    0.9620    1.1688   -2.4902 H   0  0  0  0  0  0  0  0  0  0  0  0
    0.7042    0.0297   -0.1235 H   0  0  0  0  0  0  0  0  0  0  0  0
    2.6339    0.0037   -0.1910 H   0  0  0  0  0  0  0  0  0  0  0  0
    3.2671    3.0635   -1.5268 H   0  0  0  0  0  0  0  0  0  0  0  0
    3.3533    3.9445   -0.0155 H   0  0  0  0  0  0  0  0  0  0  0  0
    4.6204    1.1906   -0.5202 H   0  0  0  0  0  0  0  0  0  0  0  0
    4.6699    2.0604    1.0159 H   0  0  0  0  0  0  0  0  0  0  0  0
    5.4839    2.7209   -0.4125 H   0  0  0  0  0  0  0  0  0  0  0  0
   -0.3889   -0.5268    0.3340 C   0  0  0  0  0  0  0  0  0  0  0  0
   -0.9075   -1.5880   -0.6275 C   0  0  0  0  0  0  0  0  0  0  0  0
   -1.8790   -2.5539    0.0194 C   0  0  0  0  0  0  0  0  0  0  0  0
   -3.0206   -1.8524    0.4431 O   0  0  0  0  0  0  0  0  0  0  0  0
   -3.9655   -2.6665    1.0896 C   0  0  0  0  0  0  0  0  0  0  0  0
   -5.1451   -1.8169    1.5022 C   0  0  0  0  0  0  0  0  0  0  0  0
   -1.2107    0.0688    0.7314 H   0  0  0  0  0  0  0  0  0  0  0  0
    0.1314   -0.9866    1.1779 H   0  0  0  0  0  0  0  0  0  0  0  0
   -0.0740   -2.1694   -1.0313 H   0  0  0  0  0  0  0  0  0  0  0  0
   -1.4041   -1.1135   -1.4778 H   0  0  0  0  0  0  0  0  0  0  0  0
   -1.4026   -3.0494    0.8802 H   0  0  0  0  0  0  0  0  0  0  0  0
   -2.1655   -3.3411   -0.6935 H   0  0  0  0  0  0  0  0  0  0  0  0
   -4.2898   -3.4730    0.4153 H   0  0  0  0  0  0  0  0  0  0  0  0
   -3.5093   -3.1441    1.9692 H   0  0  0  0  0  0  0  0  0  0  0  0
   -5.6066   -1.3540    0.6292 H   0  0  0  0  0  0  0  0  0  0  0  0
   -5.8940   -2.4292    2.0069 H   0  0  0  0  0  0  0  0  0  0  0  0
   -4.8272   -1.0265    2.1830 H   0  0  0  0  0  0  0  0  0  0  0  0
  1  2  1  0
  1  6  1  0
  1  7  1  0
  1  8  1  0
  2  3  1  0
  2 10  1  0
  3  4  1  0
  4  5  1  0
  4 11  1  0
  4 12  1  0
  5 13  1  0
  5 14  1  0
  5 15  1  0
  9 16  1  0
 16 17  1  0
 16 22  1  0
 16 23  1  0
 17 18  1  0
 17 24  1  0
 17 25  1  0
 18 19  1  0
 18 26  1  0
 18 27  1  0
 19 20  1  0
 20 21  1  0
 20 28  1  0
 20 29  1  0
 21 30  1  0
 21 31  1  0
 21 32  1  0
M  RAD  1   2   2
M  END
>  <reaction>  (18) 
rmg_rxn_238

>  <mol_properties>  (18) 
{"1": {"label": "*1", "atom_type": "Cs"}, "2": {"label": "*0", "atom_type": "S2s"}, "8": {"label": "*2", "atom_type": "H0"}, "15": {"label": "*3", "atom_type": "Cs"}, "16": {"label": "*4", "atom_type": "Cs"}}

>  <type>  (18) 
unop_14

>  <geom_source>  (18) 
gaussian_log

$$$$
