
     RDKit          3D

  6  5  0  0  0  0  0  0  0  0999 V2000
   -0.4547   -0.0097   -0.0070 C   0  0  0  0  0  0  0  0  0  0  0  0
    0.8695   -0.1987   -0.6218 N   0  0  0  0  0  0  0  0  0  0  0  0
    1.0322   -1.2809   -1.0969 O   0  0  0  0  0  0  0  0  0  0  0  0
   -0.2820    0.2687    1.0347 H   0  0  0  0  0  0  0  0  0  0  0  0
   -1.0716   -0.9051   -0.0916 H   0  0  0  0  0  0  0  0  0  0  0  0
   -0.9130    0.8487   -0.5026 H   0  0  0  0  0  0  0  0  0  0  0  0
  1  2  1  0
  1  4  1  0
  1  5  1  0
  1  6  1  0
  2  3  2  0
M  END
>  <reaction>  (1) 
rmg_rxn_691

>  <mol_properties>  (1) 
{"0": {"label": "donator", "atom_type": "Cs"}, "3": {"label": "d_hydrogen", "atom_type": "H0"}}

>  <type>  (1) 
r1h

$$$$

     RDKit          3D

 14 13  0  0  0  0  0  0  0  0999 V2000
    2.7687   -0.0362   -0.0732 C   0  0  0  0  0  3  0  0  0  0  0  0
    1.6543    0.2105    0.6386 O   0  0  0  0  0  0  0  0  0  0  0  0
    1.8652    0.6968    1.9544 C   0  0  0  0  0  0  0  0  0  0  0  0
    0.5252    0.9355    2.6156 C   0  0  0  0  0  0  0  0  0  0  0  0
   -0.2992    2.0181    1.9317 C   0  0  0  0  0  0  0  0  0  0  0  0
    2.5851   -0.4757   -1.0422 H   0  0  0  0  0  0  0  0  0  0  0  0
    3.6974   -0.2083    0.4611 H   0  0  0  0  0  0  0  0  0  0  0  0
    2.4441    1.6271    1.9039 H   0  0  0  0  0  0  0  0  0  0  0  0
    2.4506   -0.0397    2.5179 H   0  0  0  0  0  0  0  0  0  0  0  0
    0.7150    1.2089    3.6572 H   0  0  0  0  0  0  0  0  0  0  0  0
   -0.0287   -0.0066    2.6327 H   0  0  0  0  0  0  0  0  0  0  0  0
   -0.5056    1.7522    0.8949 H   0  0  0  0  0  0  0  0  0  0  0  0
   -1.2524    2.1635    2.4416 H   0  0  0  0  0  0  0  0  0  0  0  0
    0.2319    2.9729    1.9340 H   0  0  0  0  0  0  0  0  0  0  0  0
  1  2  1  0
  1  6  1  0
  1  7  1  0
  2  3  1  0
  3  4  1  0
  3  8  1  0
  3  9  1  0
  4  5  1  0
  4 10  1  0
  4 11  1  0
  5 12  1  0
  5 13  1  0
  5 14  1  0
M  RAD  1   1   2
M  END
>  <reaction>  (2) 
rmg_rxn_691

>  <mol_properties>  (2) 
{"0": {"label": "acceptor", "atom_type": "Cs"}}

>  <type>  (2) 
r2

$$$$

     RDKit          3D

 15 14  0  0  0  0  0  0  0  0999 V2000
   -1.2811   -0.4129    1.0228 C   0  0  0  0  0  0  0  0  0  0  0  0
   -1.0023   -0.5809   -0.4650 C   0  0  0  0  0  0  0  0  0  0  0  0
   -2.0576    0.0568   -1.3449 C   0  0  0  0  0  0  0  0  0  0  0  0
   -2.0663    1.4464   -1.1307 O   0  0  0  0  0  0  0  0  0  0  0  0
   -3.0424    2.1072   -1.8849 C   0  0  0  0  0  0  0  0  0  0  0  0
   -2.2382   -0.8657    1.2935 H   0  0  0  0  0  0  0  0  0  0  0  0
   -1.3219    0.6426    1.2914 H   0  0  0  0  0  0  0  0  0  0  0  0
   -0.5042   -0.8881    1.6236 H   0  0  0  0  0  0  0  0  0  0  0  0
   -0.0316   -0.1460   -0.7167 H   0  0  0  0  0  0  0  0  0  0  0  0
   -0.9494   -1.6429   -0.7203 H   0  0  0  0  0  0  0  0  0  0  0  0
   -1.8518   -0.1570   -2.4041 H   0  0  0  0  0  0  0  0  0  0  0  0
   -3.0491   -0.3636   -1.1124 H   0  0  0  0  0  0  0  0  0  0  0  0
   -4.0521    1.7545   -1.6343 H   0  0  0  0  0  0  0  0  0  0  0  0
   -2.8850    1.9634   -2.9626 H   0  0  0  0  0  0  0  0  0  0  0  0
   -2.9730    3.1700   -1.6570 H   0  0  0  0  0  0  0  0  0  0  0  0
  1  2  1  0
  1  6  1  0
  1  7  1  0
  1  8  1  0
  2  3  1  0
  2  9  1  0
  2 10  1  0
  3  4  1  0
  3 11  1  0
  3 12  1  0
  4  5  1  0
  5 13  1  0
  5 14  1  0
  5 15  1  0
M  END
>  <reaction>  (3) 
rmg_rxn_691

>  <mol_properties>  (3) 
{"0": {"label": "a_hydrogen", "atom_type": "H0"}, "1": {"label": "acceptor", "atom_type": "Cs"}}

>  <type>  (3) 
r2h

$$$$

     RDKit          3D

 20 18  0  0  0  0  0  0  0  0999 V2000
    2.3270    1.1421   -0.2584 C   0  0  0  0  0  0  0  0  0  0  0  0
    2.3875   -0.2360   -0.5096 N   0  0  0  0  0  0  0  0  0  0  0  0
    1.6809   -0.6229   -1.4277 O   0  0  0  0  0  0  0  0  0  0  0  0
    1.2677    1.3232    0.4602 H   0  0  0  0  0  0  0  0  0  0  0  0
    2.1232    1.7586   -1.1360 H   0  0  0  0  0  0  0  0  0  0  0  0
    3.1404    1.4815    0.3769 H   0  0  0  0  0  0  0  0  0  0  0  0
    0.0462    1.4930    1.1664 C   0  0  0  0  0  3  0  0  0  0  0  0
   -0.6170    0.3280    1.0848 O   0  0  0  0  0  0  0  0  0  0  0  0
   -1.2779    0.0875   -0.1575 C   0  0  0  0  0  0  0  0  0  0  0  0
   -1.9090   -1.2849   -0.1184 C   0  0  0  0  0  0  0  0  0  0  0  0
   -2.9858   -1.4299    0.9484 C   0  0  0  0  0  0  0  0  0  0  0  0
    0.3913    1.6907    2.1773 H   0  0  0  0  0  0  0  0  0  0  0  0
   -0.4034    2.3420    0.6454 H   0  0  0  0  0  0  0  0  0  0  0  0
   -0.5411    0.1489   -0.9650 H   0  0  0  0  0  0  0  0  0  0  0  0
   -2.0358    0.8676   -0.3050 H   0  0  0  0  0  0  0  0  0  0  0  0
   -1.1175   -2.0224    0.0323 H   0  0  0  0  0  0  0  0  0  0  0  0
   -2.3298   -1.4764   -1.1088 H   0  0  0  0  0  0  0  0  0  0  0  0
   -3.4197   -2.4302    0.9298 H   0  0  0  0  0  0  0  0  0  0  0  0
   -2.5751   -1.2596    1.9440 H   0  0  0  0  0  0  0  0  0  0  0  0
   -3.7940   -0.7115    0.7901 H   0  0  0  0  0  0  0  0  0  0  0  0
  1  2  1  0
  1  4  1  0
  1  5  1  0
  1  6  1  0
  2  3  2  0
  7  8  1  0
  7 12  1  0
  7 13  1  0
  8  9  1  0
  9 10  1  0
  9 14  1  0
  9 15  1  0
 10 11  1  0
 10 16  1  0
 10 17  1  0
 11 18  1  0
 11 19  1  0
 11 20  1  0
M  RAD  1   7   2
M  END
>  <reaction>  (4) 
rmg_rxn_691

>  <mol_properties>  (4) 
{"0": {"label": "*1", "atom_type": "Cs"}, "1": {"label": "*0", "atom_type": "N3d"}, "3": {"label": "*2", "atom_type": "H0"}, "6": {"label": "*3", "atom_type": "Cs"}, "7": {"label": "*4", "atom_type": "O2s"}}

>  <type>  (4) 
ts

$$$$

     RDKit          3D

 20 18  0  0  0  0  0  0  0  0999 V2000
    1.1888    0.3344   -2.0406 C   0  0  0  0  0  0  0  0  0  0  0  0
    1.1888   -1.0114   -2.6374 N   0  0  0  0  0  0  0  0  0  0  0  0
    1.1888   -1.0114   -3.8305 O   0  0  0  0  0  0  0  0  0  0  0  0
    0.1328    0.4058   -1.2680 H   0  0  0  0  0  0  0  0  0  0  0  0
    1.1888    1.1149   -2.8024 H   0  0  0  0  0  0  0  0  0  0  0  0
    2.0688    0.3939   -1.3968 H   0  0  0  0  0  0  0  0  0  0  0  0
   -0.9296    0.4776   -0.4908 C   0  0  0  0  0  3  0  0  0  0  0  0
   -0.5766    0.7317    0.8392 O   0  0  0  0  0  0  0  0  0  0  0  0
   -0.5840   -0.4257    1.6376 C   0  0  0  0  0  0  0  0  0  0  0  0
   -0.2297   -0.0554    3.0631 C   0  0  0  0  0  0  0  0  0  0  0  0
   -1.2456    0.8765    3.7102 C   0  0  0  0  0  0  0  0  0  0  0  0
   -0.8945    1.4240   -1.0288 H   0  0  0  0  0  0  0  0  0  0  0  0
   -1.9439    0.0626   -0.5660 H   0  0  0  0  0  0  0  0  0  0  0  0
    0.1367   -1.1570    1.2426 H   0  0  0  0  0  0  0  0  0  0  0  0
   -1.5796   -0.8963    1.6047 H   0  0  0  0  0  0  0  0  0  0  0  0
    0.7601    0.4082    3.0653 H   0  0  0  0  0  0  0  0  0  0  0  0
   -0.1474   -0.9809    3.6397 H   0  0  0  0  0  0  0  0  0  0  0  0
   -0.9602    1.1167    4.7354 H   0  0  0  0  0  0  0  0  0  0  0  0
   -1.3256    1.8088    3.1513 H   0  0  0  0  0  0  0  0  0  0  0  0
   -2.2359    0.4151    3.7373 H   0  0  0  0  0  0  0  0  0  0  0  0
  1  2  1  0
  1  4  1  0
  1  5  1  0
  1  6  1  0
  2  3  2  0
  7  8  1  0
  7 12  1  0
  7 13  1  0
  8  9  1  0
  9 10  1  0
  9 14  1  0
  9 15  1  0
 10 11  1  0
 10 16  1  0
 10 17  1  0
 11 18  1  0
 11 19  1  0
 11 20  1  0
M  RAD  1   7   2
M  END
>  <reaction>  (5) 
rmg_rxn_691

>  <mol_properties>  (5) 
{"0": {"label": "*1", "atom_type": "Cs"}, "1": {"label": "*0", "atom_type": "N3d"}, "3": {"label": "*2", "atom_type": "H0"}, "6": {"label": "*3", "atom_type": "Cs"}, "7": {"label": "*4", "atom_type": "O2s"}}

>  <type>  (5) 
unop_1

>  <geom_source>  (5) 
Heuristics

$$$$

     RDKit          3D

 20 18  0  0  0  0  0  0  0  0999 V2000
    1.9463    1.4684   -0.8875 C   0  0  0  0  0  0  0  0  0  0  0  0
    1.9463    0.1226   -1.4843 N   0  0  0  0  0  0  0  0  0  0  0  0
    1.9463    0.1226   -2.6774 O   0  0  0  0  0  0  0  0  0  0  0  0
    0.8903    1.5398   -0.1149 H   0  0  0  0  0  0  0  0  0  0  0  0
    1.9463    2.2488   -1.6492 H   0  0  0  0  0  0  0  0  0  0  0  0
    2.8264    1.5279   -0.2437 H   0  0  0  0  0  0  0  0  0  0  0  0
   -0.1720    1.6116    0.6624 C   0  0  0  0  0  3  0  0  0  0  0  0
   -0.5086    0.3596    1.1891 O   0  0  0  0  0  0  0  0  0  0  0  0
   -1.1868   -0.4571    0.2672 C   0  0  0  0  0  0  0  0  0  0  0  0
   -1.5454   -1.7717    0.9289 C   0  0  0  0  0  0  0  0  0  0  0  0
   -2.5089   -1.6113    2.0973 C   0  0  0  0  0  0  0  0  0  0  0  0
    0.3474    2.1690    1.4407 H   0  0  0  0  0  0  0  0  0  0  0  0
   -1.0653    2.1736    0.3577 H   0  0  0  0  0  0  0  0  0  0  0  0
   -0.5521   -0.6336   -0.6138 H   0  0  0  0  0  0  0  0  0  0  0  0
   -2.0990    0.0519   -0.0829 H   0  0  0  0  0  0  0  0  0  0  0  0
   -0.6237   -2.2534    1.2655 H   0  0  0  0  0  0  0  0  0  0  0  0
   -1.9830   -2.4227    0.1669 H   0  0  0  0  0  0  0  0  0  0  0  0
   -2.7474   -2.5774    2.5446 H   0  0  0  0  0  0  0  0  0  0  0  0
   -2.0770   -0.9753    2.8698 H   0  0  0  0  0  0  0  0  0  0  0  0
   -3.4456   -1.1532    1.7699 H   0  0  0  0  0  0  0  0  0  0  0  0
  1  2  1  0
  1  4  1  0
  1  5  1  0
  1  6  1  0
  2  3  2  0
  7  8  1  0
  7 12  1  0
  7 13  1  0
  8  9  1  0
  9 10  1  0
  9 14  1  0
  9 15  1  0
 10 11  1  0
 10 16  1  0
 10 17  1  0
 11 18  1  0
 11 19  1  0
 11 20  1  0
M  RAD  1   7   2
M  END
>  <reaction>  (6) 
rmg_rxn_691

>  <mol_properties>  (6) 
{"0": {"label": "*1", "atom_type": "Cs"}, "1": {"label": "*0", "atom_type": "N3d"}, "3": {"label": "*2", "atom_type": "H0"}, "6": {"label": "*3", "atom_type": "Cs"}, "7": {"label": "*4", "atom_type": "O2s"}}

>  <type>  (6) 
unop_2

>  <geom_source>  (6) 
Heuristics

$$$$

     RDKit          3D

 20 18  0  0  0  0  0  0  0  0999 V2000
    1.1424   -0.2611   -1.9428 C   0  0  0  0  0  0  0  0  0  0  0  0
    1.1424   -1.6069   -2.5396 N   0  0  0  0  0  0  0  0  0  0  0  0
    1.1424   -1.6069   -3.7327 O   0  0  0  0  0  0  0  0  0  0  0  0
    0.0864   -0.1897   -1.1702 H   0  0  0  0  0  0  0  0  0  0  0  0
    1.1424    0.5194   -2.7045 H   0  0  0  0  0  0  0  0  0  0  0  0
    2.0224   -0.2016   -1.2989 H   0  0  0  0  0  0  0  0  0  0  0  0
   -0.9760   -0.1179   -0.3929 C   0  0  0  0  0  3  0  0  0  0  0  0
   -0.7644    0.7458    0.6875 O   0  0  0  0  0  0  0  0  0  0  0  0
   -0.2188    0.0958    1.8085 C   0  0  0  0  0  0  0  0  0  0  0  0
   -0.0591    1.0916    2.9388 C   0  0  0  0  0  0  0  0  0  0  0  0
   -1.3838    1.6668    3.4223 C   0  0  0  0  0  0  0  0  0  0  0  0
   -1.3949    0.4696   -1.2089 H   0  0  0  0  0  0  0  0  0  0  0  0
   -1.6796   -0.9210   -0.1347 H   0  0  0  0  0  0  0  0  0  0  0  0
    0.7546   -0.3454    1.5479 H   0  0  0  0  0  0  0  0  0  0  0  0
   -0.8792   -0.7288    2.1208 H   0  0  0  0  0  0  0  0  0  0  0  0
    0.5991    1.8965    2.6016 H   0  0  0  0  0  0  0  0  0  0  0  0
    0.4543    0.5862    3.7614 H   0  0  0  0  0  0  0  0  0  0  0  0
   -1.2297    2.3747    4.2380 H   0  0  0  0  0  0  0  0  0  0  0  0
   -1.8981    2.1855    2.6134 H   0  0  0  0  0  0  0  0  0  0  0  0
   -2.0430    0.8746    3.7860 H   0  0  0  0  0  0  0  0  0  0  0  0
  1  2  1  0
  1  4  1  0
  1  5  1  0
  1  6  1  0
  2  3  2  0
  7  8  1  0
  7 12  1  0
  7 13  1  0
  8  9  1  0
  9 10  1  0
  9 14  1  0
  9 15  1  0
 10 11  1  0
 10 16  1  0
 10 17  1  0
 11 18  1  0
 11 19  1  0
 11 20  1  0
M  RAD  1   7   2
M  END
>  <reaction>  (7) 
rmg_rxn_691

>  <mol_properties>  (7) 
{"0": {"label": "*1", "atom_type": "Cs"}, "1": {"label": "*0", "atom_type": "N3d"}, "3": {"label": "*2", "atom_type": "H0"}, "6": {"label": "*3", "atom_type": "Cs"}, "7": {"label": "*4", "atom_type": "O2s"}}

>  <type>  (7) 
unop_3

>  <geom_source>  (7) 
Heuristics

$$$$

     RDKit          3D

 20 18  0  0  0  0  0  0  0  0999 V2000
    2.3317    0.1315    0.2979 C   0  0  0  0  0  0  0  0  0  0  0  0
    2.3317   -1.2142   -0.2989 N   0  0  0  0  0  0  0  0  0  0  0  0
    2.3317   -1.2142   -1.4920 O   0  0  0  0  0  0  0  0  0  0  0  0
    1.2757    0.2029    1.0705 H   0  0  0  0  0  0  0  0  0  0  0  0
    2.3317    0.9120   -0.4639 H   0  0  0  0  0  0  0  0  0  0  0  0
    3.2117    0.1910    0.9417 H   0  0  0  0  0  0  0  0  0  0  0  0
    0.2133    0.2748    1.8477 C   0  0  0  0  0  3  0  0  0  0  0  0
   -0.9673    0.0767    1.1232 O   0  0  0  0  0  0  0  0  0  0  0  0
   -0.8610    0.4852   -0.2180 C   0  0  0  0  0  0  0  0  0  0  0  0
   -2.1888    0.2722   -0.9152 C   0  0  0  0  0  0  0  0  0  0  0  0
   -3.3136    1.1180   -0.3333 C   0  0  0  0  0  0  0  0  0  0  0  0
    0.0382   -0.0697    2.8660 H   0  0  0  0  0  0  0  0  0  0  0  0
    0.4962    1.3358    1.8744 H   0  0  0  0  0  0  0  0  0  0  0  0
   -0.0688   -0.0882   -0.7218 H   0  0  0  0  0  0  0  0  0  0  0  0
   -0.5755    1.5483   -0.2636 H   0  0  0  0  0  0  0  0  0  0  0  0
   -2.4464   -0.7883   -0.8545 H   0  0  0  0  0  0  0  0  0  0  0  0
   -2.0526    0.5049   -1.9749 H   0  0  0  0  0  0  0  0  0  0  0  0
   -4.2511    0.9419   -0.8627 H   0  0  0  0  0  0  0  0  0  0  0  0
   -3.4678    0.8841    0.7200 H   0  0  0  0  0  0  0  0  0  0  0  0
   -3.0802    2.1829   -0.4102 H   0  0  0  0  0  0  0  0  0  0  0  0
  1  2  1  0
  1  4  1  0
  1  5  1  0
  1  6  1  0
  2  3  2  0
  7  8  1  0
  7 12  1  0
  7 13  1  0
  8  9  1  0
  9 10  1  0
  9 14  1  0
  9 15  1  0
 10 11  1  0
 10 16  1  0
 10 17  1  0
 11 18  1  0
 11 19  1  0
 11 20  1  0
M  RAD  1   7   2
M  END
>  <reaction>  (8) 
rmg_rxn_691

>  <mol_properties>  (8) 
{"0": {"label": "*1", "atom_type": "Cs"}, "1": {"label": "*0", "atom_type": "N3d"}, "3": {"label": "*2", "atom_type": "H0"}, "6": {"label": "*3", "atom_type": "Cs"}, "7": {"label": "*4", "atom_type": "O2s"}}

>  <type>  (8) 
unop_4

>  <geom_source>  (8) 
Heuristics

$$$$

     RDKit          3D

 20 18  0  0  0  0  0  0  0  0999 V2000
    1.1602   -0.8148   -1.5491 C   0  0  0  0  0  0  0  0  0  0  0  0
    1.1602   -2.1606   -2.1459 N   0  0  0  0  0  0  0  0  0  0  0  0
    1.1602   -2.1606   -3.3390 O   0  0  0  0  0  0  0  0  0  0  0  0
    0.1042   -0.7434   -0.7765 H   0  0  0  0  0  0  0  0  0  0  0  0
    1.1602   -0.0343   -2.3109 H   0  0  0  0  0  0  0  0  0  0  0  0
    2.0402   -0.7553   -0.9053 H   0  0  0  0  0  0  0  0  0  0  0  0
   -0.9582   -0.6716    0.0007 C   0  0  0  0  0  3  0  0  0  0  0  0
   -1.0556    0.5779    0.6232 O   0  0  0  0  0  0  0  0  0  0  0  0
    0.0505    0.8691    1.4410 C   0  0  0  0  0  0  0  0  0  0  0  0
   -0.1544    2.2163    2.1026 C   0  0  0  0  0  0  0  0  0  0  0  0
   -1.3557    2.2480    3.0380 C   0  0  0  0  0  0  0  0  0  0  0  0
   -1.8508   -0.8080   -0.6084 H   0  0  0  0  0  0  0  0  0  0  0  0
   -0.9017   -1.4849    0.7369 H   0  0  0  0  0  0  0  0  0  0  0  0
    0.9703    0.8759    0.8376 H   0  0  0  0  0  0  0  0  0  0  0  0
    0.1664    0.0850    2.2062 H   0  0  0  0  0  0  0  0  0  0  0  0
   -0.2662    2.9729    1.3217 H   0  0  0  0  0  0  0  0  0  0  0  0
    0.7579    2.4619    2.6533 H   0  0  0  0  0  0  0  0  0  0  0  0
   -1.4683    3.2305    3.4987 H   0  0  0  0  0  0  0  0  0  0  0  0
   -2.2733    2.0184    2.4964 H   0  0  0  0  0  0  0  0  0  0  0  0
   -1.2455    1.5129    3.8390 H   0  0  0  0  0  0  0  0  0  0  0  0
  1  2  1  0
  1  4  1  0
  1  5  1  0
  1  6  1  0
  2  3  2  0
  7  8  1  0
  7 12  1  0
  7 13  1  0
  8  9  1  0
  9 10  1  0
  9 14  1  0
  9 15  1  0
 10 11  1  0
 10 16  1  0
 10 17  1  0
 11 18  1  0
 11 19  1  0
 11 20  1  0
M  RAD  1   7   2
M  END
>  <reaction>  (9) 
rmg_rxn_691

>  <mol_properties>  (9) 
{"0": {"label": "*1", "atom_type": "Cs"}, "1": {"label": "*0", "atom_type": "N3d"}, "3": {"label": "*2", "atom_type": "H0"}, "6": {"label": "*3", "atom_type": "Cs"}, "7": {"label": "*4", "atom_type": "O2s"}}

>  <type>  (9) 
unop_5

>  <geom_source>  (9) 
Heuristics

$$$$

     RDKit          3D

 20 18  0  0  0  0  0  0  0  0999 V2000
    2.1496   -0.5088    0.1752 C   0  0  0  0  0  0  0  0  0  0  0  0
    2.1496   -1.8546   -0.4216 N   0  0  0  0  0  0  0  0  0  0  0  0
    2.1496   -1.8546   -1.6147 O   0  0  0  0  0  0  0  0  0  0  0  0
    1.0936   -0.4374    0.9478 H   0  0  0  0  0  0  0  0  0  0  0  0
    2.1496    0.2717   -0.5866 H   0  0  0  0  0  0  0  0  0  0  0  0
    3.0297   -0.4493    0.8190 H   0  0  0  0  0  0  0  0  0  0  0  0
    0.0313   -0.3656    1.7250 C   0  0  0  0  0  3  0  0  0  0  0  0
   -1.0853    0.1066    1.0262 O   0  0  0  0  0  0  0  0  0  0  0  0
   -0.7417    0.8221   -0.1344 C   0  0  0  0  0  0  0  0  0  0  0  0
   -2.0024    1.3272   -0.8053 C   0  0  0  0  0  0  0  0  0  0  0  0
   -2.7820    2.3160    0.0512 C   0  0  0  0  0  0  0  0  0  0  0  0
   -0.3298   -0.9044    2.6001 H   0  0  0  0  0  0  0  0  0  0  0  0
    0.6774    0.4588    2.0561 H   0  0  0  0  0  0  0  0  0  0  0  0
   -0.1777    0.1731   -0.8206 H   0  0  0  0  0  0  0  0  0  0  0  0
   -0.0872    1.6685    0.1282 H   0  0  0  0  0  0  0  0  0  0  0  0
   -2.6311    0.4683   -1.0539 H   0  0  0  0  0  0  0  0  0  0  0  0
   -1.7151    1.7939   -1.7516 H   0  0  0  0  0  0  0  0  0  0  0  0
   -3.6788    2.6608   -0.4656 H   0  0  0  0  0  0  0  0  0  0  0  0
   -3.0861    1.8567    0.9917 H   0  0  0  0  0  0  0  0  0  0  0  0
   -2.1731    3.1924    0.2867 H   0  0  0  0  0  0  0  0  0  0  0  0
  1  2  1  0
  1  4  1  0
  1  5  1  0
  1  6  1  0
  2  3  2  0
  7  8  1  0
  7 12  1  0
  7 13  1  0
  8  9  1  0
  9 10  1  0
  9 14  1  0
  9 15  1  0
 10 11  1  0
 10 16  1  0
 10 17  1  0
 11 18  1  0
 11 19  1  0
 11 20  1  0
M  RAD  1   7   2
M  END
>  <reaction>  (10) 
rmg_rxn_691

>  <mol_properties>  (10) 
{"0": {"label": "*1", "atom_type": "Cs"}, "1": {"label": "*0", "atom_type": "N3d"}, "3": {"label": "*2", "atom_type": "H0"}, "6": {"label": "*3", "atom_type": "Cs"}, "7": {"label": "*4", "atom_type": "O2s"}}

>  <type>  (10) 
unop_6

>  <geom_source>  (10) 
Heuristics

$$$$

     RDKit          3D

 20 18  0  0  0  0  0  0  0  0999 V2000
    1.8168   -0.9883   -0.2312 C   0  0  0  0  0  0  0  0  0  0  0  0
    1.8168   -2.3341   -0.8280 N   0  0  0  0  0  0  0  0  0  0  0  0
    1.8168   -2.3341   -2.0211 O   0  0  0  0  0  0  0  0  0  0  0  0
    0.7608   -0.9169    0.5414 H   0  0  0  0  0  0  0  0  0  0  0  0
    1.8168   -0.2078   -0.9929 H   0  0  0  0  0  0  0  0  0  0  0  0
    2.6968   -0.9288    0.4127 H   0  0  0  0  0  0  0  0  0  0  0  0
   -0.3016   -0.8451    1.3187 C   0  0  0  0  0  3  0  0  0  0  0  0
   -1.1658    0.1783    0.9138 O   0  0  0  0  0  0  0  0  0  0  0  0
   -0.5287    1.1516    0.1239 C   0  0  0  0  0  0  0  0  0  0  0  0
   -1.5228    2.2363   -0.2362 C   0  0  0  0  0  0  0  0  0  0  0  0
   -2.0481    2.9941    0.9758 C   0  0  0  0  0  0  0  0  0  0  0  0
   -0.8788   -1.5474    1.9186 H   0  0  0  0  0  0  0  0  0  0  0  0
    0.5273   -0.4558    1.9254 H   0  0  0  0  0  0  0  0  0  0  0  0
   -0.1235    0.6871   -0.7872 H   0  0  0  0  0  0  0  0  0  0  0  0
    0.3205    1.5844    0.6765 H   0  0  0  0  0  0  0  0  0  0  0  0
   -2.3523    1.7794   -0.7820 H   0  0  0  0  0  0  0  0  0  0  0  0
   -1.0308    2.9265   -0.9272 H   0  0  0  0  0  0  0  0  0  0  0  0
   -2.7562    3.7687    0.6776 H   0  0  0  0  0  0  0  0  0  0  0  0
   -2.5533    2.3177    1.6653 H   0  0  0  0  0  0  0  0  0  0  0  0
   -1.2312    3.4773    1.5175 H   0  0  0  0  0  0  0  0  0  0  0  0
  1  2  1  0
  1  4  1  0
  1  5  1  0
  1  6  1  0
  2  3  2  0
  7  8  1  0
  7 12  1  0
  7 13  1  0
  8  9  1  0
  9 10  1  0
  9 14  1  0
  9 15  1  0
 10 11  1  0
 10 16  1  0
 10 17  1  0
 11 18  1  0
 11 19  1  0
 11 20  1  0
M  RAD  1   7   2
M  END
>  <reaction>  (11) 
rmg_rxn_691

>  <mol_properties>  (11) 
{"0": {"label": "*1", "atom_type": "Cs"}, "1": {"label": "*0", "atom_type": "N3d"}, "3": {"label": "*2", "atom_type": "H0"}, "6": {"label": "*3", "atom_type": "Cs"}, "7": {"label": "*4", "atom_type": "O2s"}}

>  <type>  (11) 
unop_7

>  <geom_source>  (11) 
Heuristics

$$$$

     RDKit          3D

 20 18  0  0  0  0  0  0  0  0999 V2000
    1.3442    0.9160   -1.8771 C   0  0  0  0  0  0  0  0  0  0  0  0
    1.3442   -0.4298   -2.4740 N   0  0  0  0  0  0  0  0  0  0  0  0
    1.3442   -0.4298   -3.6671 O   0  0  0  0  0  0  0  0  0  0  0  0
    0.2882    0.9874   -1.1046 H   0  0  0  0  0  0  0  0  0  0  0  0
    1.3442    1.6965   -2.6389 H   0  0  0  0  0  0  0  0  0  0  0  0
    2.2243    0.9755   -1.2333 H   0  0  0  0  0  0  0  0  0  0  0  0
   -0.7741    1.0592   -0.3273 C   0  0  0  0  0  3  0  0  0  0  0  0
   -0.4852    0.6430    0.9770 O   0  0  0  0  0  0  0  0  0  0  0  0
   -0.8888   -0.6797    1.2310 C   0  0  0  0  0  0  0  0  0  0  0  0
   -0.5747   -1.0337    2.6700 C   0  0  0  0  0  0  0  0  0  0  0  0
   -1.3422   -0.1870    3.6766 C   0  0  0  0  0  0  0  0  0  0  0  0
   -0.4267    2.0863   -0.4313 H   0  0  0  0  0  0  0  0  0  0  0  0
   -1.8531    1.0260   -0.5310 H   0  0  0  0  0  0  0  0  0  0  0  0
   -0.3698   -1.3670    0.5466 H   0  0  0  0  0  0  0  0  0  0  0  0
   -1.9693   -0.7837    1.0426 H   0  0  0  0  0  0  0  0  0  0  0  0
    0.5011   -0.9218    2.8279 H   0  0  0  0  0  0  0  0  0  0  0  0
   -0.8076   -2.0924    2.8137 H   0  0  0  0  0  0  0  0  0  0  0  0
   -1.0944   -0.4731    4.6998 H   0  0  0  0  0  0  0  0  0  0  0  0
   -1.1068    0.8699    3.5518 H   0  0  0  0  0  0  0  0  0  0  0  0
   -2.4204   -0.3086    3.5464 H   0  0  0  0  0  0  0  0  0  0  0  0
  1  2  1  0
  1  4  1  0
  1  5  1  0
  1  6  1  0
  2  3  2  0
  7  8  1  0
  7 12  1  0
  7 13  1  0
  8  9  1  0
  9 10  1  0
  9 14  1  0
  9 15  1  0
 10 11  1  0
 10 16  1  0
 10 17  1  0
 11 18  1  0
 11 19  1  0
 11 20  1  0
M  RAD  1   7   2
M  END
>  <reaction>  (12) 
rmg_rxn_691

>  <mol_properties>  (12) 
{"0": {"label": "*1", "atom_type": "Cs"}, "1": {"label": "*0", "atom_type": "N3d"}, "3": {"label": "*2", "atom_type": "H0"}, "6": {"label": "*3", "atom_type": "Cs"}, "7": {"label": "*4", "atom_type": "O2s"}}

>  <type>  (12) 
unop_8

>  <geom_source>  (12) 
Heuristics

$$$$

     RDKit          3D

 20 18  0  0  0  0  0  0  0  0999 V2000
    2.3489    0.7675    0.1272 C   0  0  0  0  0  0  0  0  0  0  0  0
    2.3489   -0.5782   -0.4696 N   0  0  0  0  0  0  0  0  0  0  0  0
    2.3489   -0.5782   -1.6627 O   0  0  0  0  0  0  0  0  0  0  0  0
    1.2929    0.8389    0.8998 H   0  0  0  0  0  0  0  0  0  0  0  0
    2.3489    1.5480   -0.6346 H   0  0  0  0  0  0  0  0  0  0  0  0
    3.2289    0.8270    0.7710 H   0  0  0  0  0  0  0  0  0  0  0  0
    0.2305    0.9108    1.6770 C   0  0  0  0  0  3  0  0  0  0  0  0
   -0.8087    0.1030    1.2021 O   0  0  0  0  0  0  0  0  0  0  0  0
   -0.9705    0.1835   -0.1923 C   0  0  0  0  0  0  0  0  0  0  0  0
   -2.1355   -0.6878   -0.6144 C   0  0  0  0  0  0  0  0  0  0  0  0
   -3.4674   -0.2291   -0.0357 C   0  0  0  0  0  0  0  0  0  0  0  0
    0.2817    0.7826    2.7574 H   0  0  0  0  0  0  0  0  0  0  0  0
    0.0514    1.9710    1.4523 H   0  0  0  0  0  0  0  0  0  0  0  0
   -0.0480   -0.1424   -0.6952 H   0  0  0  0  0  0  0  0  0  0  0  0
   -1.1529    1.2291   -0.4878 H   0  0  0  0  0  0  0  0  0  0  0  0
   -1.9277   -1.7166   -0.3092 H   0  0  0  0  0  0  0  0  0  0  0  0
   -2.1787   -0.6841   -1.7071 H   0  0  0  0  0  0  0  0  0  0  0  0
   -4.2818   -0.8762   -0.3647 H   0  0  0  0  0  0  0  0  0  0  0  0
   -3.4404   -0.2423    1.0538 H   0  0  0  0  0  0  0  0  0  0  0  0
   -3.7000    0.7903   -0.3536 H   0  0  0  0  0  0  0  0  0  0  0  0
  1  2  1  0
  1  4  1  0
  1  5  1  0
  1  6  1  0
  2  3  2  0
  7  8  1  0
  7 12  1  0
  7 13  1  0
  8  9  1  0
  9 10  1  0
  9 14  1  0
  9 15  1  0
 10 11  1  0
 10 16  1  0
 10 17  1  0
 11 18  1  0
 11 19  1  0
 11 20  1  0
M  RAD  1   7   2
M  END
>  <reaction>  (13) 
rmg_rxn_691

>  <mol_properties>  (13) 
{"0": {"label": "*1", "atom_type": "Cs"}, "1": {"label": "*0", "atom_type": "N3d"}, "3": {"label": "*2", "atom_type": "H0"}, "6": {"label": "*3", "atom_type": "Cs"}, "7": {"label": "*4", "atom_type": "O2s"}}

>  <type>  (13) 
unop_9

>  <geom_source>  (13) 
Heuristics

$$$$

     RDKit          3D

 20 18  0  0  0  0  0  0  0  0999 V2000
    1.6207    1.3394   -1.4646 C   0  0  0  0  0  0  0  0  0  0  0  0
    1.6207   -0.0064   -2.0615 N   0  0  0  0  0  0  0  0  0  0  0  0
    1.6207   -0.0064   -3.2546 O   0  0  0  0  0  0  0  0  0  0  0  0
    0.5647    1.4108   -0.6921 H   0  0  0  0  0  0  0  0  0  0  0  0
    1.6207    2.1199   -2.2264 H   0  0  0  0  0  0  0  0  0  0  0  0
    2.5007    1.3989   -0.8208 H   0  0  0  0  0  0  0  0  0  0  0  0
   -0.4977    1.4826    0.0852 C   0  0  0  0  0  3  0  0  0  0  0  0
   -0.4612    0.5152    1.0955 O   0  0  0  0  0  0  0  0  0  0  0  0
   -1.1091   -0.6789    0.7330 C   0  0  0  0  0  0  0  0  0  0  0  0
   -1.0558   -1.6519    1.8927 C   0  0  0  0  0  0  0  0  0  0  0  0
   -1.8015   -1.1570    3.1249 C   0  0  0  0  0  0  0  0  0  0  0  0
    0.0261    2.3642    0.4524 H   0  0  0  0  0  0  0  0  0  0  0  0
   -1.5295    1.7613   -0.1684 H   0  0  0  0  0  0  0  0  0  0  0  0
   -0.6233   -1.1138   -0.1530 H   0  0  0  0  0  0  0  0  0  0  0  0
   -2.1562   -0.4689    0.4625 H   0  0  0  0  0  0  0  0  0  0  0  0
   -0.0078   -1.8413    2.1388 H   0  0  0  0  0  0  0  0  0  0  0  0
   -1.4783   -2.6018    1.5535 H   0  0  0  0  0  0  0  0  0  0  0  0
   -1.7455   -1.8845    3.9359 H   0  0  0  0  0  0  0  0  0  0  0  0
   -1.3794   -0.2171    3.4804 H   0  0  0  0  0  0  0  0  0  0  0  0
   -2.8573   -0.9871    2.8994 H   0  0  0  0  0  0  0  0  0  0  0  0
  1  2  1  0
  1  4  1  0
  1  5  1  0
  1  6  1  0
  2  3  2  0
  7  8  1  0
  7 12  1  0
  7 13  1  0
  8  9  1  0
  9 10  1  0
  9 14  1  0
  9 15  1  0
 10 11  1  0
 10 16  1  0
 10 17  1  0
 11 18  1  0
 11 19  1  0
 11 20  1  0
M  RAD  1   7   2
M  END
>  <reaction>  (14) 
rmg_rxn_691

>  <mol_properties>  (14) 
{"0": {"label": "*1", "atom_type": "Cs"}, "1": {"label": "*0", "atom_type": "N3d"}, "3": {"label": "*2", "atom_type": "H0"}, "6": {"label": "*3", "atom_type": "Cs"}, "7": {"label": "*4", "atom_type": "O2s"}}

>  <type>  (14) 
unop_10

>  <geom_source>  (14) 
Heuristics

$$$$

     RDKit          3D

 20 18  0  0  0  0  0  0  0  0999 V2000
    1.4148   -1.1320   -0.8643 C   0  0  0  0  0  0  0  0  0  0  0  0
    1.4148   -2.4778   -1.4612 N   0  0  0  0  0  0  0  0  0  0  0  0
    1.4148   -2.4778   -2.6543 O   0  0  0  0  0  0  0  0  0  0  0  0
    0.3588   -1.0606   -0.0918 H   0  0  0  0  0  0  0  0  0  0  0  0
    1.4148   -0.3515   -1.6261 H   0  0  0  0  0  0  0  0  0  0  0  0
    2.2948   -1.0725   -0.2205 H   0  0  0  0  0  0  0  0  0  0  0  0
   -0.7036   -0.9888    0.6855 C   0  0  0  0  0  3  0  0  0  0  0  0
   -1.1947    0.3191    0.7643 O   0  0  0  0  0  0  0  0  0  0  0  0
   -0.1836    1.2904    0.6568 C   0  0  0  0  0  0  0  0  0  0  0  0
   -0.7953    2.6697    0.7905 C   0  0  0  0  0  0  0  0  0  0  0  0
   -1.4330    2.9131    2.1518 C   0  0  0  0  0  0  0  0  0  0  0  0
   -1.5515   -1.6664    0.7754 H   0  0  0  0  0  0  0  0  0  0  0  0
    0.0090   -1.2008    1.4942 H   0  0  0  0  0  0  0  0  0  0  0  0
    0.3282    1.1917   -0.3119 H   0  0  0  0  0  0  0  0  0  0  0  0
    0.5712    1.1329    1.4437 H   0  0  0  0  0  0  0  0  0  0  0  0
   -1.5385    2.7978   -0.0008 H   0  0  0  0  0  0  0  0  0  0  0  0
   -0.0074    3.4055    0.6071 H   0  0  0  0  0  0  0  0  0  0  0  0
   -1.8576    3.9163    2.2124 H   0  0  0  0  0  0  0  0  0  0  0  0
   -2.2300    2.1937    2.3394 H   0  0  0  0  0  0  0  0  0  0  0  0
   -0.6948    2.8128    2.9515 H   0  0  0  0  0  0  0  0  0  0  0  0
  1  2  1  0
  1  4  1  0
  1  5  1  0
  1  6  1  0
  2  3  2  0
  7  8  1  0
  7 12  1  0
  7 13  1  0
  8  9  1  0
  9 10  1  0
  9 14  1  0
  9 15  1  0
 10 11  1  0
 10 16  1  0
 10 17  1  0
 11 18  1  0
 11 19  1  0
 11 20  1  0
M  RAD  1   7   2
M  END
>  <reaction>  (15) 
rmg_rxn_691

>  <mol_properties>  (15) 
{"0": {"label": "*1", "atom_type": "Cs"}, "1": {"label": "*0", "atom_type": "N3d"}, "3": {"label": "*2", "atom_type": "H0"}, "6": {"label": "*3", "atom_type": "Cs"}, "7": {"label": "*4", "atom_type": "O2s"}}

>  <type>  (15) 
unop_11

>  <geom_source>  (15) 
Heuristics

$$$$

     RDKit          3D

 20 18  0  0  0  0  0  0  0  0999 V2000
    2.2130    1.2551   -0.3013 C   0  0  0  0  0  0  0  0  0  0  0  0
    2.2130   -0.0906   -0.8981 N   0  0  0  0  0  0  0  0  0  0  0  0
    2.2130   -0.0906   -2.0912 O   0  0  0  0  0  0  0  0  0  0  0  0
    1.1570    1.3265    0.4713 H   0  0  0  0  0  0  0  0  0  0  0  0
    2.2130    2.0356   -1.0631 H   0  0  0  0  0  0  0  0  0  0  0  0
    3.0930    1.3146    0.3425 H   0  0  0  0  0  0  0  0  0  0  0  0
    0.0946    1.3983    1.2485 C   0  0  0  0  0  3  0  0  0  0  0  0
   -0.6357    0.2048    1.2316 O   0  0  0  0  0  0  0  0  0  0  0  0
   -1.1078   -0.1292   -0.0500 C   0  0  0  0  0  0  0  0  0  0  0  0
   -1.9160   -1.4079    0.0296 C   0  0  0  0  0  0  0  0  0  0  0  0
   -3.1667   -1.2739    0.8881 C   0  0  0  0  0  0  0  0  0  0  0  0
    0.4187    1.5733    2.2736 H   0  0  0  0  0  0  0  0  0  0  0  0
   -0.5166    2.2492    0.9182 H   0  0  0  0  0  0  0  0  0  0  0  0
   -0.2601   -0.2555   -0.7396 H   0  0  0  0  0  0  0  0  0  0  0  0
   -1.7315    0.6892   -0.4438 H   0  0  0  0  0  0  0  0  0  0  0  0
   -1.2739   -2.2004    0.4225 H   0  0  0  0  0  0  0  0  0  0  0  0
   -2.1883   -1.6968   -0.9894 H   0  0  0  0  0  0  0  0  0  0  0  0
   -3.7245   -2.2110    0.9178 H   0  0  0  0  0  0  0  0  0  0  0  0
   -2.9061   -0.9998    1.9103 H   0  0  0  0  0  0  0  0  0  0  0  0
   -3.8304   -0.5013    0.4919 H   0  0  0  0  0  0  0  0  0  0  0  0
  1  2  1  0
  1  4  1  0
  1  5  1  0
  1  6  1  0
  2  3  2  0
  7  8  1  0
  7 12  1  0
  7 13  1  0
  8  9  1  0
  9 10  1  0
  9 14  1  0
  9 15  1  0
 10 11  1  0
 10 16  1  0
 10 17  1  0
 11 18  1  0
 11 19  1  0
 11 20  1  0
M  RAD  1   7   2
M  END
>  <reaction>  (16) 
rmg_rxn_691

>  <mol_properties>  (16) 
{"0": {"label": "*1", "atom_type": "Cs"}, "1": {"label": "*0", "atom_type": "N3d"}, "3": {"label": "*2", "atom_type": "H0"}, "6": {"label": "*3", "atom_type": "Cs"}, "7": {"label": "*4", "atom_type": "O2s"}}

>  <type>  (16) 
unop_12

>  <geom_source>  (16) 
Heuristics

$$$$

     RDKit          3D

 20 18  0  0  0  0  0  0  0  0999 V2000
   -0.5688   -1.3994   -0.6151 O   0  0  0  0  0  0  0  0  0  0  0  0
    3.5642    0.7468    1.9666 O   0  0  0  0  0  0  0  0  0  0  0  0
    3.4619    0.6352    0.7832 N   0  0  0  0  0  0  0  0  0  0  0  0
   -1.3226    0.7509    0.2214 C   0  0  0  0  0  0  0  0  0  0  0  0
   -1.3218   -0.7710    0.4054 C   0  0  0  0  0  0  0  0  0  0  0  0
   -1.9578    1.1654   -1.1044 C   0  0  0  0  0  0  0  0  0  0  0  0
    0.7180   -1.7233   -0.1413 C   0  0  0  0  0  3  0  0  0  0  0  0
    2.1792    0.3717    0.1906 C   0  0  0  0  0  0  0  0  0  0  0  0
   -1.8964    1.2137    1.0533 H   0  0  0  0  0  0  0  0  0  0  0  0
   -0.2828    1.1385    0.2671 H   0  0  0  0  0  0  0  0  0  0  0  0
   -0.9774   -1.0208    1.4380 H   0  0  0  0  0  0  0  0  0  0  0  0
   -2.3681   -1.1389    0.3391 H   0  0  0  0  0  0  0  0  0  0  0  0
   -1.9667    2.2731   -1.1807 H   0  0  0  0  0  0  0  0  0  0  0  0
   -1.3760    0.7579   -1.9582 H   0  0  0  0  0  0  0  0  0  0  0  0
   -3.0043    0.7975   -1.1634 H   0  0  0  0  0  0  0  0  0  0  0  0
    0.6637   -2.5601    0.5891 H   0  0  0  0  0  0  0  0  0  0  0  0
    1.3394   -2.0567   -0.9975 H   0  0  0  0  0  0  0  0  0  0  0  0
    1.3268   -0.6467    0.4232 H   0  0  0  0  0  0  0  0  0  0  0  0
    2.2981    0.2455   -0.9052 H   0  0  0  0  0  0  0  0  0  0  0  0
    1.4914    1.2207    0.3887 H   0  0  0  0  0  0  0  0  0  0  0  0
  1  7  1  0
  1  5  1  0
  2  3  2  0
  3  8  1  0
  4  6  1  0
  4  5  1  0
  4  9  1  0
  4 10  1  0
  5 11  1  0
  5 12  1  0
  6 13  1  0
  6 14  1  0
  6 15  1  0
  7 16  1  0
  7 17  1  0
  8 18  1  0
  8 19  1  0
  8 20  1  0
M  RAD  1   7   2
M  END
>  <reaction>  (17) 
rmg_rxn_691

>  <mol_properties>  (17) 
{"0": {"label": "*1", "atom_type": "Cs"}, "1": {"label": "*0", "atom_type": "N3d"}, "3": {"label": "*2", "atom_type": "H0"}, "6": {"label": "*3", "atom_type": "Cs"}, "7": {"label": "*4", "atom_type": "O2s"}}

>  <type>  (17) 
unop_13

>  <geom_source>  (17) 
AutoTST

$$$$

     RDKit          3D

 20 18  0  0  0  0  0  0  0  0999 V2000
    1.9463    1.4684   -0.8875 C   0  0  0  0  0  0  0  0  0  0  0  0
    1.9463    0.1226   -1.4843 N   0  0  0  0  0  0  0  0  0  0  0  0
    1.9463    0.1226   -2.6774 O   0  0  0  0  0  0  0  0  0  0  0  0
    0.8903    1.5397   -0.1149 H   0  0  0  0  0  0  0  0  0  0  0  0
    1.9463    2.2488   -1.6492 H   0  0  0  0  0  0  0  0  0  0  0  0
    2.8264    1.5279   -0.2437 H   0  0  0  0  0  0  0  0  0  0  0  0
   -0.1721    1.6116    0.6624 C   0  0  0  0  0  3  0  0  0  0  0  0
   -0.5086    0.3596    1.1891 O   0  0  0  0  0  0  0  0  0  0  0  0
   -1.1868   -0.4571    0.2672 C   0  0  0  0  0  0  0  0  0  0  0  0
   -1.5454   -1.7717    0.9289 C   0  0  0  0  0  0  0  0  0  0  0  0
   -2.5089   -1.6113    2.0972 C   0  0  0  0  0  0  0  0  0  0  0  0
    0.3474    2.1690    1.4407 H   0  0  0  0  0  0  0  0  0  0  0  0
   -1.0653    2.1736    0.3577 H   0  0  0  0  0  0  0  0  0  0  0  0
   -0.5521   -0.6336   -0.6138 H   0  0  0  0  0  0  0  0  0  0  0  0
   -2.0990    0.0519   -0.0829 H   0  0  0  0  0  0  0  0  0  0  0  0
   -0.6237   -2.2534    1.2655 H   0  0  0  0  0  0  0  0  0  0  0  0
   -1.9830   -2.4227    0.1669 H   0  0  0  0  0  0  0  0  0  0  0  0
   -2.7473   -2.5774    2.5446 H   0  0  0  0  0  0  0  0  0  0  0  0
   -2.0770   -0.9753    2.8698 H   0  0  0  0  0  0  0  0  0  0  0  0
   -3.4456   -1.1533    1.7699 H   0  0  0  0  0  0  0  0  0  0  0  0
  1  2  1  0
  1  4  1  0
  1  5  1  0
  1  6  1  0
  2  3  2  0
  7  8  1  0
  7 12  1  0
  7 13  1  0
  8  9  1  0
  9 10  1  0
  9 14  1  0
  9 15  1  0
 10 11  1  0
 10 16  1  0
 10 17  1  0
 11 18  1  0
 11 19  1  0
 11 20  1  0
M  RAD  1   7   2
M  END
>  <reaction>  (18) 
rmg_rxn_691

>  <mol_properties>  (18) 
{"0": {"label": "*1", "atom_type": "Cs"}, "1": {"label": "*0", "atom_type": "N3d"}, "3": {"label": "*2", "atom_type": "H0"}, "6": {"label": "*3", "atom_type": "Cs"}, "7": {"label": "*4", "atom_type": "O2s"}}

>  <type>  (18) 
unop_14

>  <geom_source>  (18) 
gaussian_log

$$$$
