
     RDKit          3D

 14 14  0  0  0  0  0  0  0  0999 V2000
   -1.1778    0.2241    0.1818 C   0  0  0  0  0  0  0  0  0  0  0  0
   -0.5633   -1.1636    0.0678 C   0  0  0  0  0  0  0  0  0  0  0  0
    0.6943   -1.1996    0.7146 O   0  0  0  0  0  0  0  0  0  0  0  0
    1.5547   -0.2288    0.2011 C   0  0  0  0  0  0  0  0  0  0  0  0
    1.0729    1.0696    0.3698 O   0  0  0  0  0  0  0  0  0  0  0  0
   -0.1607    1.2493   -0.2989 C   0  0  0  0  0  0  0  0  0  0  0  0
   -2.0927    0.2866   -0.4117 H   0  0  0  0  0  0  0  0  0  0  0  0
   -1.4303    0.4248    1.2248 H   0  0  0  0  0  0  0  0  0  0  0  0
   -1.1822   -1.9235    0.5431 H   0  0  0  0  0  0  0  0  0  0  0  0
   -0.4389   -1.4347   -0.9919 H   0  0  0  0  0  0  0  0  0  0  0  0
    1.7250   -0.4207   -0.8742 H   0  0  0  0  0  0  0  0  0  0  0  0
    2.4896   -0.3010    0.7524 H   0  0  0  0  0  0  0  0  0  0  0  0
   -0.0080    1.1481   -1.3844 H   0  0  0  0  0  0  0  0  0  0  0  0
   -0.4826    2.2695   -0.0942 H   0  0  0  0  0  0  0  0  0  0  0  0
  1  2  1  0
  1  6  1  0
  1  7  1  0
  1  8  1  0
  2  3  1  0
  2  9  1  0
  2 10  1  0
  3  4  1  0
  4  5  1  0
  4 11  1  0
  4 12  1  0
  5  6  1  0
  6 13  1  0
  6 14  1  0
M  END
>  <reaction>  (1) 
rmg_rxn_377

>  <mol_properties>  (1) 
{"0": {"label": "donator", "atom_type": "Cs"}, "6": {"label": "d_hydrogen", "atom_type": "H0"}}

>  <type>  (1) 
r1h

$$$$

     RDKit          3D

  8  7  0  0  0  0  0  0  0  0999 V2000
   -0.7780    0.1298   -0.1106 C   0  0  0  0  0  0  0  0  0  0  0  0
    0.7217   -0.1070   -0.1617 C   0  0  0  0  0  0  0  0  0  0  0  0
    1.1956   -0.6471   -1.3135 O   0  0  0  0  0  1  0  0  0  0  0  0
   -1.3158   -0.8099   -0.2407 H   0  0  0  0  0  0  0  0  0  0  0  0
   -1.0675    0.5644    0.8483 H   0  0  0  0  0  0  0  0  0  0  0  0
   -1.0823    0.8120   -0.9052 H   0  0  0  0  0  0  0  0  0  0  0  0
    1.2875    0.8267    0.0156 H   0  0  0  0  0  0  0  0  0  0  0  0
    1.0592   -0.7592    0.6654 H   0  0  0  0  0  0  0  0  0  0  0  0
  1  2  1  0
  1  4  1  0
  1  5  1  0
  1  6  1  0
  2  3  1  0
  2  7  1  0
  2  8  1  0
M  RAD  1   3   2
M  END
>  <reaction>  (2) 
rmg_rxn_377

>  <mol_properties>  (2) 
{"2": {"label": "acceptor", "atom_type": "O2s"}}

>  <type>  (2) 
r2

$$$$

     RDKit          3D

  9  8  0  0  0  0  0  0  0  0999 V2000
   -0.9895    0.3048    0.1041 C   0  0  0  0  0  0  0  0  0  0  0  0
    0.3761   -0.3562    0.0721 C   0  0  0  0  0  0  0  0  0  0  0  0
    0.3441   -1.6564   -0.4834 O   0  0  0  0  0  0  0  0  0  0  0  0
   -1.6997   -0.3114    0.6572 H   0  0  0  0  0  0  0  0  0  0  0  0
   -0.9320    1.2848    0.5822 H   0  0  0  0  0  0  0  0  0  0  0  0
   -1.3774    0.4507   -0.9077 H   0  0  0  0  0  0  0  0  0  0  0  0
    0.7581   -0.4813    1.0862 H   0  0  0  0  0  0  0  0  0  0  0  0
    1.0900    0.2787   -0.4681 H   0  0  0  0  0  0  0  0  0  0  0  0
    0.0089   -1.5959   -1.3792 H   0  0  0  0  0  0  0  0  0  0  0  0
  1  2  1  0
  1  4  1  0
  1  5  1  0
  1  6  1  0
  2  3  1  0
  2  7  1  0
  2  8  1  0
  3  9  1  0
M  END
>  <reaction>  (3) 
rmg_rxn_377

>  <mol_properties>  (3) 
{"2": {"label": "acceptor", "atom_type": "O2s"}, "8": {"label": "a_hydrogen", "atom_type": "H0"}}

>  <type>  (3) 
r2h

$$$$

     RDKit          3D

 22 21  0  0  0  0  0  0  0  0999 V2000
    1.5481   -3.0491   -0.1232 C   0  0  0  0  0  0  0  0  0  0  0  0
    0.0464   -2.9152    0.0592 C   0  0  0  0  0  0  0  0  0  0  0  0
   -0.3231   -2.0598    1.0992 O   0  0  0  0  0  0  0  0  0  0  0  0
    2.0185   -3.3625    0.8093 H   0  0  0  0  0  0  0  0  0  0  0  0
    1.7785   -3.7843   -0.8968 H   0  0  0  0  0  0  0  0  0  0  0  0
    1.9873   -2.0947   -0.4223 H   0  0  0  0  0  0  0  0  0  0  0  0
   -0.4342   -2.6235   -0.8852 H   0  0  0  0  0  0  0  0  0  0  0  0
   -0.3871   -3.8849    0.3345 H   0  0  0  0  0  0  0  0  0  0  0  0
    0.2949    0.2388    0.3356 C   0  0  0  0  0  3  0  0  0  0  0  0
   -0.0780    0.2753   -1.1272 C   0  0  0  0  0  0  0  0  0  0  0  0
   -0.0472    1.6164   -1.5893 O   0  0  0  0  0  0  0  0  0  0  0  0
   -0.8798    2.4326   -0.8192 C   0  0  0  0  0  0  0  0  0  0  0  0
   -0.4997    2.4840    0.5223 O   0  0  0  0  0  0  0  0  0  0  0  0
   -0.5652    1.1993    1.1241 C   0  0  0  0  0  0  0  0  0  0  0  0
    0.0229   -0.9187    0.7837 H   0  0  0  0  0  0  0  0  0  0  0  0
    1.3619    0.3683    0.5133 H   0  0  0  0  0  0  0  0  0  0  0  0
    0.6179   -0.2883   -1.7470 H   0  0  0  0  0  0  0  0  0  0  0  0
   -1.0867   -0.1407   -1.2671 H   0  0  0  0  0  0  0  0  0  0  0  0
   -1.9205    2.0698   -0.8941 H   0  0  0  0  0  0  0  0  0  0  0  0
   -0.7971    3.4415   -1.2170 H   0  0  0  0  0  0  0  0  0  0  0  0
   -1.6063    0.8478    1.1374 H   0  0  0  0  0  0  0  0  0  0  0  0
   -0.2233    1.3116    2.1507 H   0  0  0  0  0  0  0  0  0  0  0  0
  1  2  1  0
  1  4  1  0
  1  5  1  0
  1  6  1  0
  2  3  1  0
  2  7  1  0
  2  8  1  0
  3 15  1  0
  9 10  1  0
  9 14  1  0
  9 16  1  0
 10 11  1  0
 10 17  1  0
 10 18  1  0
 11 12  1  0
 12 13  1  0
 12 19  1  0
 12 20  1  0
 13 14  1  0
 14 21  1  0
 14 22  1  0
M  RAD  1   9   2
M  END
>  <reaction>  (4) 
rmg_rxn_377

>  <mol_properties>  (4) 
{"1": {"label": "*0", "atom_type": "Cs"}, "2": {"label": "*1", "atom_type": "O2s"}, "8": {"label": "*3", "atom_type": "Cs"}, "9": {"label": "*4", "atom_type": "Cs"}, "14": {"label": "*2", "atom_type": "H0"}}

>  <type>  (4) 
ts

$$$$

     RDKit          3D

 22 21  0  0  0  0  0  0  0  0999 V2000
    1.7857   -1.3865    2.0597 C   0  0  0  0  0  0  0  0  0  0  0  0
    0.9890   -2.6135    1.6566 C   0  0  0  0  0  0  0  0  0  0  0  0
   -0.1445   -2.2990    0.8716 O   0  0  0  0  0  0  0  0  0  0  0  0
    1.1531   -0.6798    2.5983 H   0  0  0  0  0  0  0  0  0  0  0  0
    2.6231   -1.6650    2.7028 H   0  0  0  0  0  0  0  0  0  0  0  0
    2.1951   -0.8800    1.1814 H   0  0  0  0  0  0  0  0  0  0  0  0
    1.6366   -3.3287    1.1334 H   0  0  0  0  0  0  0  0  0  0  0  0
    0.6000   -3.1179    2.5422 H   0  0  0  0  0  0  0  0  0  0  0  0
    0.1138   -0.0079    0.0113 C   0  0  0  0  0  3  0  0  0  0  0  0
    0.1138   -0.0079   -1.5108 C   0  0  0  0  0  0  0  0  0  0  0  0
    0.1138    1.3185   -2.0029 O   0  0  0  0  0  0  0  0  0  0  0  0
   -0.9690    2.0428   -1.5036 C   0  0  0  0  0  0  0  0  0  0  0  0
   -0.9578    2.1491   -0.1125 O   0  0  0  0  0  0  0  0  0  0  0  0
   -1.0256    0.8754    0.4994 C   0  0  0  0  0  0  0  0  0  0  0  0
   -0.0238   -1.2282    0.4695 H   0  0  0  0  0  0  0  0  0  0  0  0
    1.0631    0.3906    0.3743 H   0  0  0  0  0  0  0  0  0  0  0  0
    0.9995   -0.4934   -1.9181 H   0  0  0  0  0  0  0  0  0  0  0  0
   -0.7738   -0.5391   -1.8875 H   0  0  0  0  0  0  0  0  0  0  0  0
   -1.9116    1.5647   -1.8278 H   0  0  0  0  0  0  0  0  0  0  0  0
   -0.8968    3.0510   -1.9055 H   0  0  0  0  0  0  0  0  0  0  0  0
   -1.9933    0.4062    0.2641 H   0  0  0  0  0  0  0  0  0  0  0  0
   -0.9804    1.0414    1.5748 H   0  0  0  0  0  0  0  0  0  0  0  0
  1  2  1  0
  1  4  1  0
  1  5  1  0
  1  6  1  0
  2  3  1  0
  2  7  1  0
  2  8  1  0
  3 15  1  0
  9 10  1  0
  9 14  1  0
  9 16  1  0
 10 11  1  0
 10 17  1  0
 10 18  1  0
 11 12  1  0
 12 13  1  0
 12 19  1  0
 12 20  1  0
 13 14  1  0
 14 21  1  0
 14 22  1  0
M  RAD  1   9   2
M  END
>  <reaction>  (5) 
rmg_rxn_377

>  <mol_properties>  (5) 
{"1": {"label": "*0", "atom_type": "Cs"}, "2": {"label": "*1", "atom_type": "O2s"}, "8": {"label": "*3", "atom_type": "Cs"}, "9": {"label": "*4", "atom_type": "Cs"}, "14": {"label": "*2", "atom_type": "H0"}}

>  <type>  (5) 
unop_1

>  <geom_source>  (5) 
Heuristics

$$$$

     RDKit          3D

 22 21  0  0  0  0  0  0  0  0999 V2000
    1.7840   -2.4574   -0.1722 C   0  0  0  0  0  0  0  0  0  0  0  0
    0.4996   -2.9857    0.4395 C   0  0  0  0  0  0  0  0  0  0  0  0
   -0.0743   -2.0896    1.3711 O   0  0  0  0  0  0  0  0  0  0  0  0
    2.5112   -2.2250    0.6069 H   0  0  0  0  0  0  0  0  0  0  0  0
    2.2208   -3.1955   -0.8481 H   0  0  0  0  0  0  0  0  0  0  0  0
    1.5971   -1.5477   -0.7493 H   0  0  0  0  0  0  0  0  0  0  0  0
   -0.2195   -3.2364   -0.3509 H   0  0  0  0  0  0  0  0  0  0  0  0
    0.6973   -3.9012    0.9987 H   0  0  0  0  0  0  0  0  0  0  0  0
    0.1840    0.2015    0.5108 C   0  0  0  0  0  3  0  0  0  0  0  0
    0.1840    0.2015   -1.0113 C   0  0  0  0  0  0  0  0  0  0  0  0
    0.1840    1.5279   -1.5034 O   0  0  0  0  0  0  0  0  0  0  0  0
   -0.8988    2.2522   -1.0041 C   0  0  0  0  0  0  0  0  0  0  0  0
   -0.8875    2.3585    0.3870 O   0  0  0  0  0  0  0  0  0  0  0  0
   -0.9554    1.0847    0.9989 C   0  0  0  0  0  0  0  0  0  0  0  0
    0.0464   -1.0189    0.9690 H   0  0  0  0  0  0  0  0  0  0  0  0
    1.1333    0.6000    0.8738 H   0  0  0  0  0  0  0  0  0  0  0  0
    1.0697   -0.2840   -1.4186 H   0  0  0  0  0  0  0  0  0  0  0  0
   -0.7035   -0.3297   -1.3880 H   0  0  0  0  0  0  0  0  0  0  0  0
   -1.8414    1.7741   -1.3283 H   0  0  0  0  0  0  0  0  0  0  0  0
   -0.8265    3.2603   -1.4060 H   0  0  0  0  0  0  0  0  0  0  0  0
   -1.9231    0.6156    0.7636 H   0  0  0  0  0  0  0  0  0  0  0  0
   -0.9102    1.2508    2.0743 H   0  0  0  0  0  0  0  0  0  0  0  0
  1  2  1  0
  1  4  1  0
  1  5  1  0
  1  6  1  0
  2  3  1  0
  2  7  1  0
  2  8  1  0
  3 15  1  0
  9 10  1  0
  9 14  1  0
  9 16  1  0
 10 11  1  0
 10 17  1  0
 10 18  1  0
 11 12  1  0
 12 13  1  0
 12 19  1  0
 12 20  1  0
 13 14  1  0
 14 21  1  0
 14 22  1  0
M  RAD  1   9   2
M  END
>  <reaction>  (6) 
rmg_rxn_377

>  <mol_properties>  (6) 
{"1": {"label": "*0", "atom_type": "Cs"}, "2": {"label": "*1", "atom_type": "O2s"}, "8": {"label": "*3", "atom_type": "Cs"}, "9": {"label": "*4", "atom_type": "Cs"}, "14": {"label": "*2", "atom_type": "H0"}}

>  <type>  (6) 
unop_2

>  <geom_source>  (6) 
Heuristics

$$$$

     RDKit          3D

 22 21  0  0  0  0  0  0  0  0999 V2000
    0.7675   -1.1224    2.7094 C   0  0  0  0  0  0  0  0  0  0  0  0
    0.7088   -2.4498    1.9764 C   0  0  0  0  0  0  0  0  0  0  0  0
    0.0439   -2.3608    0.7313 O   0  0  0  0  0  0  0  0  0  0  0  0
   -0.2367   -0.7236    2.8592 H   0  0  0  0  0  0  0  0  0  0  0  0
    1.2444   -1.2415    3.6845 H   0  0  0  0  0  0  0  0  0  0  0  0
    1.3471   -0.3882    2.1433 H   0  0  0  0  0  0  0  0  0  0  0  0
    1.7208   -2.8546    1.8474 H   0  0  0  0  0  0  0  0  0  0  0  0
    0.1417   -3.1772    2.5589 H   0  0  0  0  0  0  0  0  0  0  0  0
    0.3022   -0.0697   -0.1290 C   0  0  0  0  0  3  0  0  0  0  0  0
    0.3022   -0.0697   -1.6510 C   0  0  0  0  0  0  0  0  0  0  0  0
    0.3022    1.2567   -2.1431 O   0  0  0  0  0  0  0  0  0  0  0  0
   -0.7806    1.9810   -1.6438 C   0  0  0  0  0  0  0  0  0  0  0  0
   -0.7693    2.0873   -0.2527 O   0  0  0  0  0  0  0  0  0  0  0  0
   -0.8372    0.8136    0.3591 C   0  0  0  0  0  0  0  0  0  0  0  0
    0.1646   -1.2900    0.3293 H   0  0  0  0  0  0  0  0  0  0  0  0
    1.2515    0.3288    0.2340 H   0  0  0  0  0  0  0  0  0  0  0  0
    1.1879   -0.5552   -2.0583 H   0  0  0  0  0  0  0  0  0  0  0  0
   -0.5853   -0.6009   -2.0277 H   0  0  0  0  0  0  0  0  0  0  0  0
   -1.7232    1.5029   -1.9680 H   0  0  0  0  0  0  0  0  0  0  0  0
   -0.7084    2.9891   -2.0458 H   0  0  0  0  0  0  0  0  0  0  0  0
   -1.8049    0.3444    0.1238 H   0  0  0  0  0  0  0  0  0  0  0  0
   -0.7920    0.9796    1.4346 H   0  0  0  0  0  0  0  0  0  0  0  0
  1  2  1  0
  1  4  1  0
  1  5  1  0
  1  6  1  0
  2  3  1  0
  2  7  1  0
  2  8  1  0
  3 15  1  0
  9 10  1  0
  9 14  1  0
  9 16  1  0
 10 11  1  0
 10 17  1  0
 10 18  1  0
 11 12  1  0
 12 13  1  0
 12 19  1  0
 12 20  1  0
 13 14  1  0
 14 21  1  0
 14 22  1  0
M  RAD  1   9   2
M  END
>  <reaction>  (7) 
rmg_rxn_377

>  <mol_properties>  (7) 
{"1": {"label": "*0", "atom_type": "Cs"}, "2": {"label": "*1", "atom_type": "O2s"}, "8": {"label": "*3", "atom_type": "Cs"}, "9": {"label": "*4", "atom_type": "Cs"}, "14": {"label": "*2", "atom_type": "H0"}}

>  <type>  (7) 
unop_3

>  <geom_source>  (7) 
Heuristics

$$$$

     RDKit          3D

 22 21  0  0  0  0  0  0  0  0999 V2000
   -0.6181   -3.3443   -0.4089 C   0  0  0  0  0  0  0  0  0  0  0  0
   -0.7700   -2.5444    0.8717 C   0  0  0  0  0  0  0  0  0  0  0  0
    0.4576   -2.0241    1.3433 O   0  0  0  0  0  0  0  0  0  0  0  0
    0.0941   -4.1586   -0.2688 H   0  0  0  0  0  0  0  0  0  0  0  0
   -1.5769   -3.7683   -0.7143 H   0  0  0  0  0  0  0  0  0  0  0  0
   -0.2592   -2.7115   -1.2251 H   0  0  0  0  0  0  0  0  0  0  0  0
   -1.5028   -1.7398    0.7293 H   0  0  0  0  0  0  0  0  0  0  0  0
   -1.1434   -3.1834    1.6731 H   0  0  0  0  0  0  0  0  0  0  0  0
    0.7159    0.2670    0.4830 C   0  0  0  0  0  3  0  0  0  0  0  0
    0.7159    0.2670   -1.0390 C   0  0  0  0  0  0  0  0  0  0  0  0
    0.7159    1.5934   -1.5311 O   0  0  0  0  0  0  0  0  0  0  0  0
   -0.3669    2.3177   -1.0318 C   0  0  0  0  0  0  0  0  0  0  0  0
   -0.3556    2.4240    0.3592 O   0  0  0  0  0  0  0  0  0  0  0  0
   -0.4235    1.1502    0.9711 C   0  0  0  0  0  0  0  0  0  0  0  0
    0.5783   -0.9534    0.9413 H   0  0  0  0  0  0  0  0  0  0  0  0
    1.6652    0.6655    0.8460 H   0  0  0  0  0  0  0  0  0  0  0  0
    1.6016   -0.2185   -1.4464 H   0  0  0  0  0  0  0  0  0  0  0  0
   -0.1716   -0.2643   -1.4158 H   0  0  0  0  0  0  0  0  0  0  0  0
   -1.3095    1.8396   -1.3560 H   0  0  0  0  0  0  0  0  0  0  0  0
   -0.2946    3.3258   -1.4338 H   0  0  0  0  0  0  0  0  0  0  0  0
   -1.3912    0.6811    0.7358 H   0  0  0  0  0  0  0  0  0  0  0  0
   -0.3783    1.3162    2.0466 H   0  0  0  0  0  0  0  0  0  0  0  0
  1  2  1  0
  1  4  1  0
  1  5  1  0
  1  6  1  0
  2  3  1  0
  2  7  1  0
  2  8  1  0
  3 15  1  0
  9 10  1  0
  9 14  1  0
  9 16  1  0
 10 11  1  0
 10 17  1  0
 10 18  1  0
 11 12  1  0
 12 13  1  0
 12 19  1  0
 12 20  1  0
 13 14  1  0
 14 21  1  0
 14 22  1  0
M  RAD  1   9   2
M  END
>  <reaction>  (8) 
rmg_rxn_377

>  <mol_properties>  (8) 
{"1": {"label": "*0", "atom_type": "Cs"}, "2": {"label": "*1", "atom_type": "O2s"}, "8": {"label": "*3", "atom_type": "Cs"}, "9": {"label": "*4", "atom_type": "Cs"}, "14": {"label": "*2", "atom_type": "H0"}}

>  <type>  (8) 
unop_4

>  <geom_source>  (8) 
Heuristics

$$$$

     RDKit          3D

 22 21  0  0  0  0  0  0  0  0999 V2000
   -0.7840   -1.4275    2.6905 C   0  0  0  0  0  0  0  0  0  0  0  0
    0.3293   -2.2906    2.1261 C   0  0  0  0  0  0  0  0  0  0  0  0
    0.3238   -2.3391    0.7127 O   0  0  0  0  0  0  0  0  0  0  0  0
   -1.7554   -1.7796    2.3409 H   0  0  0  0  0  0  0  0  0  0  0  0
   -0.7759   -1.4536    3.7821 H   0  0  0  0  0  0  0  0  0  0  0  0
   -0.6656   -0.3852    2.3820 H   0  0  0  0  0  0  0  0  0  0  0  0
    1.3016   -1.9431    2.4983 H   0  0  0  0  0  0  0  0  0  0  0  0
    0.2082   -3.3239    2.4542 H   0  0  0  0  0  0  0  0  0  0  0  0
    0.5821   -0.0480   -0.1476 C   0  0  0  0  0  3  0  0  0  0  0  0
    0.5821   -0.0480   -1.6696 C   0  0  0  0  0  0  0  0  0  0  0  0
    0.5821    1.2784   -2.1617 O   0  0  0  0  0  0  0  0  0  0  0  0
   -0.5007    2.0027   -1.6624 C   0  0  0  0  0  0  0  0  0  0  0  0
   -0.4895    2.1090   -0.2714 O   0  0  0  0  0  0  0  0  0  0  0  0
   -0.5573    0.8352    0.3405 C   0  0  0  0  0  0  0  0  0  0  0  0
    0.4445   -1.2684    0.3106 H   0  0  0  0  0  0  0  0  0  0  0  0
    1.5314    0.3505    0.2154 H   0  0  0  0  0  0  0  0  0  0  0  0
    1.4678   -0.5335   -2.0770 H   0  0  0  0  0  0  0  0  0  0  0  0
   -0.3055   -0.5793   -2.0464 H   0  0  0  0  0  0  0  0  0  0  0  0
   -1.4433    1.5246   -1.9866 H   0  0  0  0  0  0  0  0  0  0  0  0
   -0.4285    3.0108   -2.0644 H   0  0  0  0  0  0  0  0  0  0  0  0
   -1.5250    0.3661    0.1052 H   0  0  0  0  0  0  0  0  0  0  0  0
   -0.5121    1.0012    1.4160 H   0  0  0  0  0  0  0  0  0  0  0  0
  1  2  1  0
  1  4  1  0
  1  5  1  0
  1  6  1  0
  2  3  1  0
  2  7  1  0
  2  8  1  0
  3 15  1  0
  9 10  1  0
  9 14  1  0
  9 16  1  0
 10 11  1  0
 10 17  1  0
 10 18  1  0
 11 12  1  0
 12 13  1  0
 12 19  1  0
 12 20  1  0
 13 14  1  0
 14 21  1  0
 14 22  1  0
M  RAD  1   9   2
M  END
>  <reaction>  (9) 
rmg_rxn_377

>  <mol_properties>  (9) 
{"1": {"label": "*0", "atom_type": "Cs"}, "2": {"label": "*1", "atom_type": "O2s"}, "8": {"label": "*3", "atom_type": "Cs"}, "9": {"label": "*4", "atom_type": "Cs"}, "14": {"label": "*2", "atom_type": "H0"}}

>  <type>  (9) 
unop_5

>  <geom_source>  (9) 
Heuristics

$$$$

     RDKit          3D

 22 21  0  0  0  0  0  0  0  0999 V2000
   -1.3739   -3.1930    0.2196 C   0  0  0  0  0  0  0  0  0  0  0  0
   -0.8072   -2.3423    1.3412 C   0  0  0  0  0  0  0  0  0  0  0  0
    0.5727   -2.0752    1.1844 O   0  0  0  0  0  0  0  0  0  0  0  0
   -0.8267   -4.1332    0.1388 H   0  0  0  0  0  0  0  0  0  0  0  0
   -2.4272   -3.4171    0.4006 H   0  0  0  0  0  0  0  0  0  0  0  0
   -1.3048   -2.6725   -0.7394 H   0  0  0  0  0  0  0  0  0  0  0  0
   -1.3754   -1.4075    1.4298 H   0  0  0  0  0  0  0  0  0  0  0  0
   -0.8968   -2.8663    2.2938 H   0  0  0  0  0  0  0  0  0  0  0  0
    0.8310    0.2159    0.3241 C   0  0  0  0  0  3  0  0  0  0  0  0
    0.8310    0.2159   -1.1979 C   0  0  0  0  0  0  0  0  0  0  0  0
    0.8310    1.5423   -1.6900 O   0  0  0  0  0  0  0  0  0  0  0  0
   -0.2518    2.2666   -1.1907 C   0  0  0  0  0  0  0  0  0  0  0  0
   -0.2405    2.3729    0.2004 O   0  0  0  0  0  0  0  0  0  0  0  0
   -0.3084    1.0992    0.8122 C   0  0  0  0  0  0  0  0  0  0  0  0
    0.6934   -1.0044    0.7824 H   0  0  0  0  0  0  0  0  0  0  0  0
    1.7803    0.6144    0.6871 H   0  0  0  0  0  0  0  0  0  0  0  0
    1.7168   -0.2696   -1.6052 H   0  0  0  0  0  0  0  0  0  0  0  0
   -0.0565   -0.3153   -1.5746 H   0  0  0  0  0  0  0  0  0  0  0  0
   -1.1944    1.7885   -1.5149 H   0  0  0  0  0  0  0  0  0  0  0  0
   -0.1795    3.2748   -1.5927 H   0  0  0  0  0  0  0  0  0  0  0  0
   -1.2761    0.6301    0.5769 H   0  0  0  0  0  0  0  0  0  0  0  0
   -0.2631    1.2652    1.8877 H   0  0  0  0  0  0  0  0  0  0  0  0
  1  2  1  0
  1  4  1  0
  1  5  1  0
  1  6  1  0
  2  3  1  0
  2  7  1  0
  2  8  1  0
  3 15  1  0
  9 10  1  0
  9 14  1  0
  9 16  1  0
 10 11  1  0
 10 17  1  0
 10 18  1  0
 11 12  1  0
 12 13  1  0
 12 19  1  0
 12 20  1  0
 13 14  1  0
 14 21  1  0
 14 22  1  0
M  RAD  1   9   2
M  END
>  <reaction>  (10) 
rmg_rxn_377

>  <mol_properties>  (10) 
{"1": {"label": "*0", "atom_type": "Cs"}, "2": {"label": "*1", "atom_type": "O2s"}, "8": {"label": "*3", "atom_type": "Cs"}, "9": {"label": "*4", "atom_type": "Cs"}, "14": {"label": "*2", "atom_type": "H0"}}

>  <type>  (10) 
unop_6

>  <geom_source>  (10) 
Heuristics

$$$$

     RDKit          3D

 22 21  0  0  0  0  0  0  0  0999 V2000
   -1.7464   -2.8448    1.0568 C   0  0  0  0  0  0  0  0  0  0  0  0
   -0.5808   -2.2005    1.7842 C   0  0  0  0  0  0  0  0  0  0  0  0
    0.5942   -2.1462    0.9991 O   0  0  0  0  0  0  0  0  0  0  0  0
   -1.4818   -3.8498    0.7253 H   0  0  0  0  0  0  0  0  0  0  0  0
   -2.6188   -2.9116    1.7101 H   0  0  0  0  0  0  0  0  0  0  0  0
   -2.0323   -2.2584    0.1793 H   0  0  0  0  0  0  0  0  0  0  0  0
   -0.8611   -1.1981    2.1324 H   0  0  0  0  0  0  0  0  0  0  0  0
   -0.3163   -2.7864    2.6655 H   0  0  0  0  0  0  0  0  0  0  0  0
    0.8525    0.1450    0.1388 C   0  0  0  0  0  3  0  0  0  0  0  0
    0.8525    0.1450   -1.3832 C   0  0  0  0  0  0  0  0  0  0  0  0
    0.8525    1.4713   -1.8753 O   0  0  0  0  0  0  0  0  0  0  0  0
   -0.2303    2.1957   -1.3760 C   0  0  0  0  0  0  0  0  0  0  0  0
   -0.2190    2.3019    0.0150 O   0  0  0  0  0  0  0  0  0  0  0  0
   -0.2869    1.0282    0.6269 C   0  0  0  0  0  0  0  0  0  0  0  0
    0.7149   -1.0754    0.5971 H   0  0  0  0  0  0  0  0  0  0  0  0
    1.8018    0.5435    0.5018 H   0  0  0  0  0  0  0  0  0  0  0  0
    1.7383   -0.3406   -1.7906 H   0  0  0  0  0  0  0  0  0  0  0  0
   -0.0350   -0.3863   -1.7599 H   0  0  0  0  0  0  0  0  0  0  0  0
   -1.1729    1.7176   -1.7002 H   0  0  0  0  0  0  0  0  0  0  0  0
   -0.1580    3.2038   -1.7780 H   0  0  0  0  0  0  0  0  0  0  0  0
   -1.2546    0.5591    0.3916 H   0  0  0  0  0  0  0  0  0  0  0  0
   -0.2416    1.1942    1.7024 H   0  0  0  0  0  0  0  0  0  0  0  0
  1  2  1  0
  1  4  1  0
  1  5  1  0
  1  6  1  0
  2  3  1  0
  2  7  1  0
  2  8  1  0
  3 15  1  0
  9 10  1  0
  9 14  1  0
  9 16  1  0
 10 11  1  0
 10 17  1  0
 10 18  1  0
 11 12  1  0
 12 13  1  0
 12 19  1  0
 12 20  1  0
 13 14  1  0
 14 21  1  0
 14 22  1  0
M  RAD  1   9   2
M  END
>  <reaction>  (11) 
rmg_rxn_377

>  <mol_properties>  (11) 
{"1": {"label": "*0", "atom_type": "Cs"}, "2": {"label": "*1", "atom_type": "O2s"}, "8": {"label": "*3", "atom_type": "Cs"}, "9": {"label": "*4", "atom_type": "Cs"}, "14": {"label": "*2", "atom_type": "H0"}}

>  <type>  (11) 
unop_7

>  <geom_source>  (11) 
Heuristics

$$$$

     RDKit          3D

 22 21  0  0  0  0  0  0  0  0999 V2000
    2.1787   -1.7502    1.2154 C   0  0  0  0  0  0  0  0  0  0  0  0
    1.0721   -2.7886    1.2145 C   0  0  0  0  0  0  0  0  0  0  0  0
   -0.2137   -2.2210    1.0578 O   0  0  0  0  0  0  0  0  0  0  0  0
    2.0081   -1.0103    1.9985 H   0  0  0  0  0  0  0  0  0  0  0  0
    3.1489   -2.2213    1.3862 H   0  0  0  0  0  0  0  0  0  0  0  0
    2.2266   -1.2288    0.2555 H   0  0  0  0  0  0  0  0  0  0  0  0
    1.2611   -3.5407    0.4379 H   0  0  0  0  0  0  0  0  0  0  0  0
    1.0456   -3.3119    2.1713 H   0  0  0  0  0  0  0  0  0  0  0  0
    0.0445    0.0702    0.1975 C   0  0  0  0  0  3  0  0  0  0  0  0
    0.0445    0.0702   -1.3245 C   0  0  0  0  0  0  0  0  0  0  0  0
    0.0445    1.3965   -1.8167 O   0  0  0  0  0  0  0  0  0  0  0  0
   -1.0383    2.1209   -1.3173 C   0  0  0  0  0  0  0  0  0  0  0  0
   -1.0270    2.2271    0.0737 O   0  0  0  0  0  0  0  0  0  0  0  0
   -1.0949    0.9534    0.6856 C   0  0  0  0  0  0  0  0  0  0  0  0
   -0.0931   -1.1502    0.6557 H   0  0  0  0  0  0  0  0  0  0  0  0
    0.9938    0.4687    0.5605 H   0  0  0  0  0  0  0  0  0  0  0  0
    0.9303   -0.4154   -1.7319 H   0  0  0  0  0  0  0  0  0  0  0  0
   -0.8430   -0.4611   -1.7013 H   0  0  0  0  0  0  0  0  0  0  0  0
   -1.9809    1.6428   -1.6415 H   0  0  0  0  0  0  0  0  0  0  0  0
   -0.9660    3.1290   -1.7193 H   0  0  0  0  0  0  0  0  0  0  0  0
   -2.0626    0.4843    0.4503 H   0  0  0  0  0  0  0  0  0  0  0  0
   -1.0496    1.1194    1.7611 H   0  0  0  0  0  0  0  0  0  0  0  0
  1  2  1  0
  1  4  1  0
  1  5  1  0
  1  6  1  0
  2  3  1  0
  2  7  1  0
  2  8  1  0
  3 15  1  0
  9 10  1  0
  9 14  1  0
  9 16  1  0
 10 11  1  0
 10 17  1  0
 10 18  1  0
 11 12  1  0
 12 13  1  0
 12 19  1  0
 12 20  1  0
 13 14  1  0
 14 21  1  0
 14 22  1  0
M  RAD  1   9   2
M  END
>  <reaction>  (12) 
rmg_rxn_377

>  <mol_properties>  (12) 
{"1": {"label": "*0", "atom_type": "Cs"}, "2": {"label": "*1", "atom_type": "O2s"}, "8": {"label": "*3", "atom_type": "Cs"}, "9": {"label": "*4", "atom_type": "Cs"}, "14": {"label": "*2", "atom_type": "H0"}}

>  <type>  (12) 
unop_8

>  <geom_source>  (12) 
Heuristics

$$$$

     RDKit          3D

 22 21  0  0  0  0  0  0  0  0999 V2000
    0.3402   -3.2326   -0.6790 C   0  0  0  0  0  0  0  0  0  0  0  0
   -0.4820   -2.7557    0.5039 C   0  0  0  0  0  0  0  0  0  0  0  0
    0.2769   -2.0099    1.4355 O   0  0  0  0  0  0  0  0  0  0  0  0
    1.1890   -3.8278   -0.3395 H   0  0  0  0  0  0  0  0  0  0  0  0
   -0.2678   -3.8433   -1.3496 H   0  0  0  0  0  0  0  0  0  0  0  0
    0.7234   -2.3864   -1.2556 H   0  0  0  0  0  0  0  0  0  0  0  0
   -1.3452   -2.1752    0.1539 H   0  0  0  0  0  0  0  0  0  0  0  0
   -0.8712   -3.6091    1.0610 H   0  0  0  0  0  0  0  0  0  0  0  0
    0.5352    0.2812    0.5752 C   0  0  0  0  0  3  0  0  0  0  0  0
    0.5352    0.2812   -0.9468 C   0  0  0  0  0  0  0  0  0  0  0  0
    0.5352    1.6076   -1.4389 O   0  0  0  0  0  0  0  0  0  0  0  0
   -0.5476    2.3319   -0.9396 C   0  0  0  0  0  0  0  0  0  0  0  0
   -0.5363    2.4382    0.4514 O   0  0  0  0  0  0  0  0  0  0  0  0
   -0.6042    1.1644    1.0633 C   0  0  0  0  0  0  0  0  0  0  0  0
    0.3976   -0.9392    1.0335 H   0  0  0  0  0  0  0  0  0  0  0  0
    1.4845    0.6797    0.9382 H   0  0  0  0  0  0  0  0  0  0  0  0
    1.4209   -0.2043   -1.3542 H   0  0  0  0  0  0  0  0  0  0  0  0
   -0.3523   -0.2500   -1.3236 H   0  0  0  0  0  0  0  0  0  0  0  0
   -1.4902    1.8538   -1.2638 H   0  0  0  0  0  0  0  0  0  0  0  0
   -0.4753    3.3400   -1.3416 H   0  0  0  0  0  0  0  0  0  0  0  0
   -1.5719    0.6953    0.8280 H   0  0  0  0  0  0  0  0  0  0  0  0
   -0.5590    1.3305    2.1388 H   0  0  0  0  0  0  0  0  0  0  0  0
  1  2  1  0
  1  4  1  0
  1  5  1  0
  1  6  1  0
  2  3  1  0
  2  7  1  0
  2  8  1  0
  3 15  1  0
  9 10  1  0
  9 14  1  0
  9 16  1  0
 10 11  1  0
 10 17  1  0
 10 18  1  0
 11 12  1  0
 12 13  1  0
 12 19  1  0
 12 20  1  0
 13 14  1  0
 14 21  1  0
 14 22  1  0
M  RAD  1   9   2
M  END
>  <reaction>  (13) 
rmg_rxn_377

>  <mol_properties>  (13) 
{"1": {"label": "*0", "atom_type": "Cs"}, "2": {"label": "*1", "atom_type": "O2s"}, "8": {"label": "*3", "atom_type": "Cs"}, "9": {"label": "*4", "atom_type": "Cs"}, "14": {"label": "*2", "atom_type": "H0"}}

>  <type>  (13) 
unop_9

>  <geom_source>  (13) 
Heuristics

$$$$

     RDKit          3D

 22 21  0  0  0  0  0  0  0  0999 V2000
    2.1248   -2.0995    0.4306 C   0  0  0  0  0  0  0  0  0  0  0  0
    0.8997   -2.9302    0.7649 C   0  0  0  0  0  0  0  0  0  0  0  0
   -0.1813   -2.1497    1.2365 O   0  0  0  0  0  0  0  0  0  0  0  0
    2.4433   -1.5212    1.2990 H   0  0  0  0  0  0  0  0  0  0  0  0
    2.9511   -2.7406    0.1166 H   0  0  0  0  0  0  0  0  0  0  0  0
    1.9147   -1.4038   -0.3863 H   0  0  0  0  0  0  0  0  0  0  0  0
    0.5974   -3.5245   -0.1069 H   0  0  0  0  0  0  0  0  0  0  0  0
    1.1273   -3.6304    1.5699 H   0  0  0  0  0  0  0  0  0  0  0  0
    0.0770    0.1414    0.3762 C   0  0  0  0  0  3  0  0  0  0  0  0
    0.0770    0.1414   -1.1458 C   0  0  0  0  0  0  0  0  0  0  0  0
    0.0770    1.4678   -1.6379 O   0  0  0  0  0  0  0  0  0  0  0  0
   -1.0058    2.1921   -1.1386 C   0  0  0  0  0  0  0  0  0  0  0  0
   -0.9946    2.2984    0.2525 O   0  0  0  0  0  0  0  0  0  0  0  0
   -1.0624    1.0246    0.8643 C   0  0  0  0  0  0  0  0  0  0  0  0
   -0.0606   -1.0790    0.8345 H   0  0  0  0  0  0  0  0  0  0  0  0
    1.0263    0.5399    0.7392 H   0  0  0  0  0  0  0  0  0  0  0  0
    0.9627   -0.3441   -1.5531 H   0  0  0  0  0  0  0  0  0  0  0  0
   -0.8106   -0.3899   -1.5225 H   0  0  0  0  0  0  0  0  0  0  0  0
   -1.9484    1.7140   -1.4628 H   0  0  0  0  0  0  0  0  0  0  0  0
   -0.9336    3.2002   -1.5406 H   0  0  0  0  0  0  0  0  0  0  0  0
   -2.0301    0.5555    0.6290 H   0  0  0  0  0  0  0  0  0  0  0  0
   -1.0172    1.1906    1.9398 H   0  0  0  0  0  0  0  0  0  0  0  0
  1  2  1  0
  1  4  1  0
  1  5  1  0
  1  6  1  0
  2  3  1  0
  2  7  1  0
  2  8  1  0
  3 15  1  0
  9 10  1  0
  9 14  1  0
  9 16  1  0
 10 11  1  0
 10 17  1  0
 10 18  1  0
 11 12  1  0
 12 13  1  0
 12 19  1  0
 12 20  1  0
 13 14  1  0
 14 21  1  0
 14 22  1  0
M  RAD  1   9   2
M  END
>  <reaction>  (14) 
rmg_rxn_377

>  <mol_properties>  (14) 
{"1": {"label": "*0", "atom_type": "Cs"}, "2": {"label": "*1", "atom_type": "O2s"}, "8": {"label": "*3", "atom_type": "Cs"}, "9": {"label": "*4", "atom_type": "Cs"}, "14": {"label": "*2", "atom_type": "H0"}}

>  <type>  (14) 
unop_10

>  <geom_source>  (14) 
Heuristics

$$$$

     RDKit          3D

 22 21  0  0  0  0  0  0  0  0999 V2000
   -1.6569   -2.2739    1.9397 C   0  0  0  0  0  0  0  0  0  0  0  0
   -0.1488   -2.1719    2.0743 C   0  0  0  0  0  0  0  0  0  0  0  0
    0.5192   -2.2332    0.8292 O   0  0  0  0  0  0  0  0  0  0  0  0
   -1.9333   -3.1933    1.4217 H   0  0  0  0  0  0  0  0  0  0  0  0
   -2.1325   -2.2711    2.9226 H   0  0  0  0  0  0  0  0  0  0  0  0
   -2.0573   -1.4281    1.3742 H   0  0  0  0  0  0  0  0  0  0  0  0
    0.1206   -1.2551    2.6141 H   0  0  0  0  0  0  0  0  0  0  0  0
    0.2355   -3.0126    2.6535 H   0  0  0  0  0  0  0  0  0  0  0  0
    0.7774    0.0580   -0.0311 C   0  0  0  0  0  3  0  0  0  0  0  0
    0.7774    0.0580   -1.5531 C   0  0  0  0  0  0  0  0  0  0  0  0
    0.7774    1.3843   -2.0452 O   0  0  0  0  0  0  0  0  0  0  0  0
   -0.3054    2.1087   -1.5459 C   0  0  0  0  0  0  0  0  0  0  0  0
   -0.2941    2.2149   -0.1549 O   0  0  0  0  0  0  0  0  0  0  0  0
   -0.3620    0.9412    0.4570 C   0  0  0  0  0  0  0  0  0  0  0  0
    0.6398   -1.1624    0.4272 H   0  0  0  0  0  0  0  0  0  0  0  0
    1.7267    0.4565    0.3319 H   0  0  0  0  0  0  0  0  0  0  0  0
    1.6632   -0.4276   -1.9605 H   0  0  0  0  0  0  0  0  0  0  0  0
   -0.1101   -0.4733   -1.9298 H   0  0  0  0  0  0  0  0  0  0  0  0
   -1.2480    1.6306   -1.8701 H   0  0  0  0  0  0  0  0  0  0  0  0
   -0.2331    3.1168   -1.9479 H   0  0  0  0  0  0  0  0  0  0  0  0
   -1.3297    0.4721    0.2217 H   0  0  0  0  0  0  0  0  0  0  0  0
   -0.3167    1.1072    1.5325 H   0  0  0  0  0  0  0  0  0  0  0  0
  1  2  1  0
  1  4  1  0
  1  5  1  0
  1  6  1  0
  2  3  1  0
  2  7  1  0
  2  8  1  0
  3 15  1  0
  9 10  1  0
  9 14  1  0
  9 16  1  0
 10 11  1  0
 10 17  1  0
 10 18  1  0
 11 12  1  0
 12 13  1  0
 12 19  1  0
 12 20  1  0
 13 14  1  0
 14 21  1  0
 14 22  1  0
M  RAD  1   9   2
M  END
>  <reaction>  (15) 
rmg_rxn_377

>  <mol_properties>  (15) 
{"1": {"label": "*0", "atom_type": "Cs"}, "2": {"label": "*1", "atom_type": "O2s"}, "8": {"label": "*3", "atom_type": "Cs"}, "9": {"label": "*4", "atom_type": "Cs"}, "14": {"label": "*2", "atom_type": "H0"}}

>  <type>  (15) 
unop_11

>  <geom_source>  (15) 
Heuristics

$$$$

     RDKit          3D

 22 21  0  0  0  0  0  0  0  0999 V2000
    1.2010   -2.8734   -0.5644 C   0  0  0  0  0  0  0  0  0  0  0  0
   -0.0150   -2.9216    0.3422 C   0  0  0  0  0  0  0  0  0  0  0  0
    0.0846   -2.0383    1.4421 O   0  0  0  0  0  0  0  0  0  0  0  0
    2.1078   -3.0940    0.0003 H   0  0  0  0  0  0  0  0  0  0  0  0
    1.1079   -3.6016   -1.3728 H   0  0  0  0  0  0  0  0  0  0  0  0
    1.3115   -1.8849   -1.0184 H   0  0  0  0  0  0  0  0  0  0  0  0
   -0.9253   -2.7190   -0.2365 H   0  0  0  0  0  0  0  0  0  0  0  0
   -0.1226   -3.9168    0.7758 H   0  0  0  0  0  0  0  0  0  0  0  0
    0.3428    0.2529    0.5818 C   0  0  0  0  0  3  0  0  0  0  0  0
    0.3428    0.2529   -0.9402 C   0  0  0  0  0  0  0  0  0  0  0  0
    0.3428    1.5792   -1.4323 O   0  0  0  0  0  0  0  0  0  0  0  0
   -0.7400    2.3036   -0.9330 C   0  0  0  0  0  0  0  0  0  0  0  0
   -0.7287    2.4098    0.4581 O   0  0  0  0  0  0  0  0  0  0  0  0
   -0.7966    1.1361    1.0699 C   0  0  0  0  0  0  0  0  0  0  0  0
    0.2052   -0.9675    1.0401 H   0  0  0  0  0  0  0  0  0  0  0  0
    1.2921    0.6514    0.9448 H   0  0  0  0  0  0  0  0  0  0  0  0
    1.2286   -0.2327   -1.3475 H   0  0  0  0  0  0  0  0  0  0  0  0
   -0.5447   -0.2784   -1.3169 H   0  0  0  0  0  0  0  0  0  0  0  0
   -1.6826    1.8255   -1.2572 H   0  0  0  0  0  0  0  0  0  0  0  0
   -0.6677    3.3117   -1.3350 H   0  0  0  0  0  0  0  0  0  0  0  0
   -1.7643    0.6670    0.8346 H   0  0  0  0  0  0  0  0  0  0  0  0
   -0.7513    1.3021    2.1454 H   0  0  0  0  0  0  0  0  0  0  0  0
  1  2  1  0
  1  4  1  0
  1  5  1  0
  1  6  1  0
  2  3  1  0
  2  7  1  0
  2  8  1  0
  3 15  1  0
  9 10  1  0
  9 14  1  0
  9 16  1  0
 10 11  1  0
 10 17  1  0
 10 18  1  0
 11 12  1  0
 12 13  1  0
 12 19  1  0
 12 20  1  0
 13 14  1  0
 14 21  1  0
 14 22  1  0
M  RAD  1   9   2
M  END
>  <reaction>  (16) 
rmg_rxn_377

>  <mol_properties>  (16) 
{"1": {"label": "*0", "atom_type": "Cs"}, "2": {"label": "*1", "atom_type": "O2s"}, "8": {"label": "*3", "atom_type": "Cs"}, "9": {"label": "*4", "atom_type": "Cs"}, "14": {"label": "*2", "atom_type": "H0"}}

>  <type>  (16) 
unop_12

>  <geom_source>  (16) 
Heuristics

$$$$

     RDKit          3D

 22 21  0  0  0  0  0  0  0  0999 V2000
    2.2031    0.9463   -0.9310 O   0  0  0  0  0  0  0  0  0  0  0  0
    2.7464    0.1822    1.2768 O   0  0  0  0  0  0  0  0  0  0  0  0
   -1.5271    0.0034    0.4893 O   0  0  0  0  0  0  0  0  0  0  0  0
   -2.3993   -0.2246   -0.5790 C   0  0  0  0  0  0  0  0  0  0  0  0
    1.6350   -0.3405   -1.0360 C   0  0  0  0  0  0  0  0  0  0  0  0
    1.3427    0.1028    1.3937 C   0  0  0  0  0  0  0  0  0  0  0  0
   -3.8379   -0.1327   -0.0948 C   0  0  0  0  0  0  0  0  0  0  0  0
    3.1079    1.0013    0.1684 C   0  0  0  0  0  0  0  0  0  0  0  0
    0.7596   -0.6212    0.1826 C   0  0  0  0  0  3  0  0  0  0  0  0
   -2.2161   -1.2365   -1.0012 H   0  0  0  0  0  0  0  0  0  0  0  0
   -2.2272    0.5367   -1.3705 H   0  0  0  0  0  0  0  0  0  0  0  0
   -4.0239   -0.8950    0.6914 H   0  0  0  0  0  0  0  0  0  0  0  0
   -4.0350    0.8777    0.3222 H   0  0  0  0  0  0  0  0  0  0  0  0
   -4.5310   -0.3138   -0.9432 H   0  0  0  0  0  0  0  0  0  0  0  0
    1.0017   -0.3839   -1.9458 H   0  0  0  0  0  0  0  0  0  0  0  0
    2.4304   -1.1147   -1.1387 H   0  0  0  0  0  0  0  0  0  0  0  0
    0.8951    1.1188    1.4811 H   0  0  0  0  0  0  0  0  0  0  0  0
    1.0851   -0.4559    2.3179 H   0  0  0  0  0  0  0  0  0  0  0  0
    3.1849    2.0549    0.5111 H   0  0  0  0  0  0  0  0  0  0  0  0
    4.1172    0.6978   -0.1820 H   0  0  0  0  0  0  0  0  0  0  0  0
    0.7060   -1.7170    0.3624 H   0  0  0  0  0  0  0  0  0  0  0  0
   -0.4179   -0.0863    0.0253 H   0  0  0  0  0  0  0  0  0  0  0  0
  1  5  1  0
  1  8  1  0
  2  6  1  0
  2  8  1  0
  3  4  1  0
  3 22  1  0
  4  7  1  0
  4 10  1  0
  4 11  1  0
  5  9  1  0
  5 15  1  0
  5 16  1  0
  6  9  1  0
  6 17  1  0
  6 18  1  0
  7 12  1  0
  7 13  1  0
  7 14  1  0
  8 19  1  0
  8 20  1  0
  9 21  1  0
M  RAD  1   9   2
M  END
>  <reaction>  (17) 
rmg_rxn_377

>  <mol_properties>  (17) 
{"1": {"label": "*0", "atom_type": "Cs"}, "2": {"label": "*1", "atom_type": "O2s"}, "8": {"label": "*3", "atom_type": "Cs"}, "9": {"label": "*4", "atom_type": "Cs"}, "14": {"label": "*2", "atom_type": "H0"}}

>  <type>  (17) 
unop_13

>  <geom_source>  (17) 
AutoTST

$$$$

     RDKit          3D

 22 21  0  0  0  0  0  0  0  0999 V2000
    1.7840   -2.4574   -0.1722 C   0  0  0  0  0  0  0  0  0  0  0  0
    0.4996   -2.9857    0.4395 C   0  0  0  0  0  0  0  0  0  0  0  0
   -0.0743   -2.0896    1.3711 O   0  0  0  0  0  0  0  0  0  0  0  0
    2.5112   -2.2250    0.6069 H   0  0  0  0  0  0  0  0  0  0  0  0
    2.2208   -3.1955   -0.8480 H   0  0  0  0  0  0  0  0  0  0  0  0
    1.5971   -1.5476   -0.7493 H   0  0  0  0  0  0  0  0  0  0  0  0
   -0.2195   -3.2364   -0.3509 H   0  0  0  0  0  0  0  0  0  0  0  0
    0.6973   -3.9012    0.9987 H   0  0  0  0  0  0  0  0  0  0  0  0
    0.1840    0.2015    0.5108 C   0  0  0  0  0  3  0  0  0  0  0  0
    0.1840    0.2015   -1.0113 C   0  0  0  0  0  0  0  0  0  0  0  0
    0.1840    1.5279   -1.5034 O   0  0  0  0  0  0  0  0  0  0  0  0
   -0.8988    2.2522   -1.0041 C   0  0  0  0  0  0  0  0  0  0  0  0
   -0.8875    2.3585    0.3870 O   0  0  0  0  0  0  0  0  0  0  0  0
   -0.9554    1.0847    0.9989 C   0  0  0  0  0  0  0  0  0  0  0  0
    0.0464   -1.0189    0.9690 H   0  0  0  0  0  0  0  0  0  0  0  0
    1.1333    0.6000    0.8738 H   0  0  0  0  0  0  0  0  0  0  0  0
    1.0697   -0.2840   -1.4186 H   0  0  0  0  0  0  0  0  0  0  0  0
   -0.7035   -0.3297   -1.3880 H   0  0  0  0  0  0  0  0  0  0  0  0
   -1.8414    1.7741   -1.3283 H   0  0  0  0  0  0  0  0  0  0  0  0
   -0.8265    3.2603   -1.4060 H   0  0  0  0  0  0  0  0  0  0  0  0
   -1.9231    0.6156    0.7636 H   0  0  0  0  0  0  0  0  0  0  0  0
   -0.9102    1.2508    2.0743 H   0  0  0  0  0  0  0  0  0  0  0  0
  1  2  1  0
  1  4  1  0
  1  5  1  0
  1  6  1  0
  2  3  1  0
  2  7  1  0
  2  8  1  0
  3 15  1  0
  9 10  1  0
  9 14  1  0
  9 16  1  0
 10 11  1  0
 10 17  1  0
 10 18  1  0
 11 12  1  0
 12 13  1  0
 12 19  1  0
 12 20  1  0
 13 14  1  0
 14 21  1  0
 14 22  1  0
M  RAD  1   9   2
M  END
>  <reaction>  (18) 
rmg_rxn_377

>  <mol_properties>  (18) 
{"1": {"label": "*0", "atom_type": "Cs"}, "2": {"label": "*1", "atom_type": "O2s"}, "8": {"label": "*3", "atom_type": "Cs"}, "9": {"label": "*4", "atom_type": "Cs"}, "14": {"label": "*2", "atom_type": "H0"}}

>  <type>  (18) 
unop_14

>  <geom_source>  (18) 
gaussian_log

$$$$
