
     RDKit          3D

  9  8  0  0  0  0  0  0  0  0999 V2000
   -1.0314    0.2323   -0.1227 C   0  0  0  0  0  0  0  0  0  0  0  0
    0.3094   -0.4511    0.0063 C   0  0  0  0  0  0  0  0  0  0  0  0
    0.3197   -1.7698    0.6841 N   0  0  0  0  0  0  0  0  0  0  0  0
   -0.7498   -2.1455    1.0557 O   0  0  0  0  0  0  0  0  0  0  0  0
   -1.4744    0.4198    0.8552 H   0  0  0  0  0  0  0  0  0  0  0  0
   -0.9073    1.1865   -0.6350 H   0  0  0  0  0  0  0  0  0  0  0  0
   -1.7319   -0.3778   -0.6927 H   0  0  0  0  0  0  0  0  0  0  0  0
    1.0375    0.1401    0.5713 H   0  0  0  0  0  0  0  0  0  0  0  0
    0.7826   -0.6494   -0.9609 H   0  0  0  0  0  0  0  0  0  0  0  0
  1  2  1  0
  1  5  1  0
  1  6  1  0
  1  7  1  0
  2  3  1  0
  2  8  1  0
  2  9  1  0
  3  4  2  0
M  END
>  <reaction>  (1) 
rmg_rxn_356

>  <mol_properties>  (1) 
{"1": {"label": "donator", "atom_type": "Cs"}, "7": {"label": "d_hydrogen", "atom_type": "H0"}}

>  <type>  (1) 
r1h

$$$$

     RDKit          3D

  8  7  0  0  0  0  0  0  0  0999 V2000
    1.3778   -0.6812    0.2772 C   0  0  0  0  0  3  0  0  0  0  0  0
    0.4890    0.2108   -0.0590 C   0  0  0  0  0  0  0  0  0  0  0  0
   -1.0010    0.0286   -0.0323 C   0  0  0  0  0  0  0  0  0  0  0  0
    2.4535   -0.7507    0.3287 H   0  0  0  0  0  0  0  0  0  0  0  0
    0.8447    1.1899   -0.3945 H   0  0  0  0  0  0  0  0  0  0  0  0
   -1.4635    0.7638    0.6301 H   0  0  0  0  0  0  0  0  0  0  0  0
   -1.2709   -0.9687    0.3117 H   0  0  0  0  0  0  0  0  0  0  0  0
   -1.4218    0.1801   -1.0289 H   0  0  0  0  0  0  0  0  0  0  0  0
  1  2  2  3
  1  4  1  0
  2  3  1  0
  2  5  1  0
  3  6  1  0
  3  7  1  0
  3  8  1  0
M  RAD  1   1   2
M  END
>  <reaction>  (2) 
rmg_rxn_356

>  <mol_properties>  (2) 
{"0": {"label": "acceptor", "atom_type": "Cd"}}

>  <type>  (2) 
r2

$$$$

     RDKit          3D

  9  8  0  0  0  0  0  0  0  0999 V2000
    1.1303   -0.2933   -0.7510 C   0  0  0  0  0  0  0  0  0  0  0  0
    0.2866    0.4560   -0.0588 C   0  0  0  0  0  0  0  0  0  0  0  0
   -0.9719   -0.0331    0.5823 C   0  0  0  0  0  0  0  0  0  0  0  0
    2.0274    0.1230   -1.1916 H   0  0  0  0  0  0  0  0  0  0  0  0
    0.9532   -1.3530   -0.9023 H   0  0  0  0  0  0  0  0  0  0  0  0
    0.5065    1.5132    0.0659 H   0  0  0  0  0  0  0  0  0  0  0  0
   -0.9526    0.1426    1.6610 H   0  0  0  0  0  0  0  0  0  0  0  0
   -1.1182   -1.1002    0.4106 H   0  0  0  0  0  0  0  0  0  0  0  0
   -1.8412    0.5010    0.1901 H   0  0  0  0  0  0  0  0  0  0  0  0
  1  2  2  3
  1  4  1  0
  1  5  1  0
  2  3  1  0
  2  6  1  0
  3  7  1  0
  3  8  1  0
  3  9  1  0
M  END
>  <reaction>  (3) 
rmg_rxn_356

>  <mol_properties>  (3) 
{"0": {"label": "a_hydrogen", "atom_type": "H0"}, "1": {"label": "acceptor", "atom_type": "Cd"}}

>  <type>  (3) 
r2h

$$$$

     RDKit          3D

 17 15  0  0  0  0  0  0  0  0999 V2000
   -1.6819   -0.5036   -1.7410 C   0  0  0  0  0  0  0  0  0  0  0  0
   -1.3665    0.0317   -0.3687 C   0  0  0  0  0  0  0  0  0  0  0  0
   -0.9009    1.3958   -0.2581 N   0  0  0  0  0  0  0  0  0  0  0  0
   -0.4935    1.8740   -1.2864 O   0  0  0  0  0  0  0  0  0  0  0  0
   -0.8163   -0.4289   -2.3975 H   0  0  0  0  0  0  0  0  0  0  0  0
   -1.9802   -1.5496   -1.6677 H   0  0  0  0  0  0  0  0  0  0  0  0
   -2.4992    0.0564   -2.1994 H   0  0  0  0  0  0  0  0  0  0  0  0
   -0.4307   -0.5840    0.0791 H   0  0  0  0  0  0  0  0  0  0  0  0
   -2.1396   -0.1166    0.3855 H   0  0  0  0  0  0  0  0  0  0  0  0
    0.8374   -1.3408    0.5336 C   0  0  0  0  0  3  0  0  0  0  0  0
    1.7663   -0.5219    0.9558 C   0  0  0  0  0  0  0  0  0  0  0  0
    3.1269   -0.9336    1.4424 C   0  0  0  0  0  0  0  0  0  0  0  0
    0.7835   -2.4158    0.4243 H   0  0  0  0  0  0  0  0  0  0  0  0
    1.5558    0.5467    0.9620 H   0  0  0  0  0  0  0  0  0  0  0  0
    3.9024   -0.4669    0.8312 H   0  0  0  0  0  0  0  0  0  0  0  0
    3.2578   -2.0146    1.4062 H   0  0  0  0  0  0  0  0  0  0  0  0
    3.2771   -0.5977    2.4708 H   0  0  0  0  0  0  0  0  0  0  0  0
  1  2  1  0
  1  5  1  0
  1  6  1  0
  1  7  1  0
  2  3  1  0
  2  8  1  0
  2  9  1  0
  3  4  2  0
 10 11  2  3
 10 13  1  0
 11 12  1  0
 11 14  1  0
 12 15  1  0
 12 16  1  0
 12 17  1  0
M  RAD  1  10   2
M  END
>  <reaction>  (4) 
rmg_rxn_356

>  <mol_properties>  (4) 
{"1": {"label": "*1", "atom_type": "Cs"}, "2": {"label": "*0", "atom_type": "N3d"}, "7": {"label": "*2", "atom_type": "H0"}, "9": {"label": "*3", "atom_type": "Cd"}, "10": {"label": "*4", "atom_type": "Cd"}}

>  <type>  (4) 
ts

$$$$

     RDKit          3D

 17 15  0  0  0  0  0  0  0  0999 V2000
   -1.1782   -0.1319   -2.2035 C   0  0  0  0  0  0  0  0  0  0  0  0
   -1.1782   -0.1319   -0.6930 C   0  0  0  0  0  0  0  0  0  0  0  0
   -1.1782    1.1941   -0.0294 N   0  0  0  0  0  0  0  0  0  0  0  0
   -1.1782    2.1236   -0.7771 O   0  0  0  0  0  1  0  0  0  0  0  0
   -0.2981    0.3755   -2.5980 H   0  0  0  0  0  0  0  0  0  0  0  0
   -1.1782   -1.1590   -2.5688 H   0  0  0  0  0  0  0  0  0  0  0  0
   -2.0583    0.3755   -2.5980 H   0  0  0  0  0  0  0  0  0  0  0  0
   -0.1328   -0.7407   -0.1804 H   0  0  0  0  0  0  0  0  0  0  0  0
   -2.0494   -0.6392   -0.2659 H   0  0  0  0  0  0  0  0  0  0  0  0
    0.9010   -1.3427    0.3265 C   0  0  0  0  0  0  0  0  0  0  0  0
    1.7536   -0.7086    1.1160 C   0  0  0  0  0  0  0  0  0  0  0  0
    2.2921   -1.2409    2.4048 C   0  0  0  0  0  0  0  0  0  0  0  0
    0.5246   -2.3291    0.5762 H   0  0  0  0  0  0  0  0  0  0  0  0
    2.1030    0.2784    0.8238 H   0  0  0  0  0  0  0  0  0  0  0  0
    3.3826   -1.3076    2.3726 H   0  0  0  0  0  0  0  0  0  0  0  0
    1.8936   -2.2322    2.6242 H   0  0  0  0  0  0  0  0  0  0  0  0
    2.0399   -0.5768    3.2355 H   0  0  0  0  0  0  0  0  0  0  0  0
  1  2  1  0
  1  5  1  0
  1  6  1  0
  1  7  1  0
  2  3  2  3
  2  9  1  0
  3  4  1  0
  8 10  1  0
 10 11  2  3
 10 13  1  0
 11 12  1  0
 11 14  1  0
 12 15  1  0
 12 16  1  0
 12 17  1  0
M  RAD  1   4   2
M  END
>  <reaction>  (5) 
rmg_rxn_356

>  <mol_properties>  (5) 
{"1": {"label": "*1", "atom_type": "Cs"}, "2": {"label": "*0", "atom_type": "N3d"}, "7": {"label": "*2", "atom_type": "H0"}, "9": {"label": "*3", "atom_type": "Cd"}, "10": {"label": "*4", "atom_type": "Cd"}}

>  <type>  (5) 
unop_1

>  <geom_source>  (5) 
Heuristics

$$$$

     RDKit          3D

 17 15  0  0  0  0  0  0  0  0999 V2000
   -1.3880    0.0194   -1.7028 C   0  0  0  0  0  0  0  0  0  0  0  0
   -1.3880    0.0194   -0.1924 C   0  0  0  0  0  0  0  0  0  0  0  0
   -1.3880    1.3453    0.4712 N   0  0  0  0  0  0  0  0  0  0  0  0
   -1.3880    2.2749   -0.2765 O   0  0  0  0  0  1  0  0  0  0  0  0
   -0.5078    0.5268   -2.0973 H   0  0  0  0  0  0  0  0  0  0  0  0
   -1.3880   -1.0078   -2.0681 H   0  0  0  0  0  0  0  0  0  0  0  0
   -2.2681    0.5268   -2.0973 H   0  0  0  0  0  0  0  0  0  0  0  0
   -0.3425   -0.5894    0.3202 H   0  0  0  0  0  0  0  0  0  0  0  0
   -2.2592   -0.4879    0.2348 H   0  0  0  0  0  0  0  0  0  0  0  0
    0.6913   -1.1914    0.8271 C   0  0  0  0  0  0  0  0  0  0  0  0
    1.8556   -1.2167    0.1978 C   0  0  0  0  0  0  0  0  0  0  0  0
    3.1703   -1.5366    0.8329 C   0  0  0  0  0  0  0  0  0  0  0  0
    0.6160   -1.4104    1.8871 H   0  0  0  0  0  0  0  0  0  0  0  0
    1.8812   -0.9902   -0.8651 H   0  0  0  0  0  0  0  0  0  0  0  0
    3.6330   -2.4033    0.3538 H   0  0  0  0  0  0  0  0  0  0  0  0
    3.0577   -1.7511    1.8963 H   0  0  0  0  0  0  0  0  0  0  0  0
    3.8688   -0.7032    0.7219 H   0  0  0  0  0  0  0  0  0  0  0  0
  1  2  1  0
  1  5  1  0
  1  6  1  0
  1  7  1  0
  2  3  2  3
  2  9  1  0
  3  4  1  0
  8 10  1  0
 10 11  2  3
 10 13  1  0
 11 12  1  0
 11 14  1  0
 12 15  1  0
 12 16  1  0
 12 17  1  0
M  RAD  1   4   2
M  END
>  <reaction>  (6) 
rmg_rxn_356

>  <mol_properties>  (6) 
{"1": {"label": "*1", "atom_type": "Cs"}, "2": {"label": "*0", "atom_type": "N3d"}, "7": {"label": "*2", "atom_type": "H0"}, "9": {"label": "*3", "atom_type": "Cd"}, "10": {"label": "*4", "atom_type": "Cd"}}

>  <type>  (6) 
unop_2

>  <geom_source>  (6) 
Heuristics

$$$$

     RDKit          3D

 17 15  0  0  0  0  0  0  0  0999 V2000
   -1.0842    0.0095   -2.2676 C   0  0  0  0  0  0  0  0  0  0  0  0
   -1.0842    0.0095   -0.7571 C   0  0  0  0  0  0  0  0  0  0  0  0
   -1.0842    1.3355   -0.0936 N   0  0  0  0  0  0  0  0  0  0  0  0
   -1.0842    2.2650   -0.8413 O   0  0  0  0  0  1  0  0  0  0  0  0
   -0.2041    0.5169   -2.6621 H   0  0  0  0  0  0  0  0  0  0  0  0
   -1.0842   -1.0176   -2.6329 H   0  0  0  0  0  0  0  0  0  0  0  0
   -1.9643    0.5169   -2.6621 H   0  0  0  0  0  0  0  0  0  0  0  0
   -0.0388   -0.5993   -0.2445 H   0  0  0  0  0  0  0  0  0  0  0  0
   -1.9554   -0.4978   -0.3300 H   0  0  0  0  0  0  0  0  0  0  0  0
    0.9950   -1.2013    0.2623 C   0  0  0  0  0  0  0  0  0  0  0  0
    1.5006   -0.8430    1.4321 C   0  0  0  0  0  0  0  0  0  0  0  0
    2.0596   -1.7819    2.4519 C   0  0  0  0  0  0  0  0  0  0  0  0
    0.9534   -2.2420   -0.0414 H   0  0  0  0  0  0  0  0  0  0  0  0
    1.5209    0.2122    1.6925 H   0  0  0  0  0  0  0  0  0  0  0  0
    3.1057   -1.5470    2.6648 H   0  0  0  0  0  0  0  0  0  0  0  0
    2.0019   -2.8175    2.1145 H   0  0  0  0  0  0  0  0  0  0  0  0
    1.5174   -1.6971    3.3972 H   0  0  0  0  0  0  0  0  0  0  0  0
  1  2  1  0
  1  5  1  0
  1  6  1  0
  1  7  1  0
  2  3  2  3
  2  9  1  0
  3  4  1  0
  8 10  1  0
 10 11  2  3
 10 13  1  0
 11 12  1  0
 11 14  1  0
 12 15  1  0
 12 16  1  0
 12 17  1  0
M  RAD  1   4   2
M  END
>  <reaction>  (7) 
rmg_rxn_356

>  <mol_properties>  (7) 
{"1": {"label": "*1", "atom_type": "Cs"}, "2": {"label": "*0", "atom_type": "N3d"}, "7": {"label": "*2", "atom_type": "H0"}, "9": {"label": "*3", "atom_type": "Cd"}, "10": {"label": "*4", "atom_type": "Cd"}}

>  <type>  (7) 
unop_3

>  <geom_source>  (7) 
Heuristics

$$$$

     RDKit          3D

 17 15  0  0  0  0  0  0  0  0999 V2000
   -1.0271    0.4693   -1.8592 C   0  0  0  0  0  0  0  0  0  0  0  0
   -1.0271    0.4693   -0.3487 C   0  0  0  0  0  0  0  0  0  0  0  0
   -1.0271    1.7953    0.3149 N   0  0  0  0  0  0  0  0  0  0  0  0
   -1.0271    2.7248   -0.4328 O   0  0  0  0  0  1  0  0  0  0  0  0
   -0.1470    0.9767   -2.2537 H   0  0  0  0  0  0  0  0  0  0  0  0
   -1.0271   -0.5578   -2.2245 H   0  0  0  0  0  0  0  0  0  0  0  0
   -1.9073    0.9767   -2.2537 H   0  0  0  0  0  0  0  0  0  0  0  0
    0.0183   -0.1394    0.1639 H   0  0  0  0  0  0  0  0  0  0  0  0
   -1.8983   -0.0380    0.0784 H   0  0  0  0  0  0  0  0  0  0  0  0
    1.0521   -0.7415    0.6707 C   0  0  0  0  0  0  0  0  0  0  0  0
    1.3017   -2.0174    0.4216 C   0  0  0  0  0  0  0  0  0  0  0  0
    1.9535   -2.9684    1.3728 C   0  0  0  0  0  0  0  0  0  0  0  0
    1.3162   -0.2880    1.6204 H   0  0  0  0  0  0  0  0  0  0  0  0
    1.0188   -2.4272   -0.5447 H   0  0  0  0  0  0  0  0  0  0  0  0
    1.2962   -3.8147    1.5882 H   0  0  0  0  0  0  0  0  0  0  0  0
    2.2050   -2.4801    2.3151 H   0  0  0  0  0  0  0  0  0  0  0  0
    2.8702   -3.3809    0.9434 H   0  0  0  0  0  0  0  0  0  0  0  0
  1  2  1  0
  1  5  1  0
  1  6  1  0
  1  7  1  0
  2  3  2  3
  2  9  1  0
  3  4  1  0
  8 10  1  0
 10 11  2  3
 10 13  1  0
 11 12  1  0
 11 14  1  0
 12 15  1  0
 12 16  1  0
 12 17  1  0
M  RAD  1   4   2
M  END
>  <reaction>  (8) 
rmg_rxn_356

>  <mol_properties>  (8) 
{"1": {"label": "*1", "atom_type": "Cs"}, "2": {"label": "*0", "atom_type": "N3d"}, "7": {"label": "*2", "atom_type": "H0"}, "9": {"label": "*3", "atom_type": "Cd"}, "10": {"label": "*4", "atom_type": "Cd"}}

>  <type>  (8) 
unop_4

>  <geom_source>  (8) 
Heuristics

$$$$

     RDKit          3D

 17 15  0  0  0  0  0  0  0  0999 V2000
   -1.0844    0.0958   -2.2512 C   0  0  0  0  0  0  0  0  0  0  0  0
   -1.0844    0.0958   -0.7407 C   0  0  0  0  0  0  0  0  0  0  0  0
   -1.0844    1.4218   -0.0771 N   0  0  0  0  0  0  0  0  0  0  0  0
   -1.0844    2.3513   -0.8248 O   0  0  0  0  0  1  0  0  0  0  0  0
   -0.2043    0.6032   -2.6457 H   0  0  0  0  0  0  0  0  0  0  0  0
   -1.0844   -0.9313   -2.6165 H   0  0  0  0  0  0  0  0  0  0  0  0
   -1.9646    0.6032   -2.6457 H   0  0  0  0  0  0  0  0  0  0  0  0
   -0.0390   -0.5130   -0.2281 H   0  0  0  0  0  0  0  0  0  0  0  0
   -1.9556   -0.4115   -0.3136 H   0  0  0  0  0  0  0  0  0  0  0  0
    0.9948   -1.1150    0.2788 C   0  0  0  0  0  0  0  0  0  0  0  0
    1.1656   -1.2144    1.5877 C   0  0  0  0  0  0  0  0  0  0  0  0
    2.3209   -1.8872    2.2561 C   0  0  0  0  0  0  0  0  0  0  0  0
    1.7127   -1.5330   -0.4191 H   0  0  0  0  0  0  0  0  0  0  0  0
    0.4191   -0.7797    2.2475 H   0  0  0  0  0  0  0  0  0  0  0  0
    2.8612   -1.1861    2.8975 H   0  0  0  0  0  0  0  0  0  0  0  0
    3.0214   -2.2951    1.5264 H   0  0  0  0  0  0  0  0  0  0  0  0
    1.9778   -2.7031    2.8975 H   0  0  0  0  0  0  0  0  0  0  0  0
  1  2  1  0
  1  5  1  0
  1  6  1  0
  1  7  1  0
  2  3  2  3
  2  9  1  0
  3  4  1  0
  8 10  1  0
 10 11  2  3
 10 13  1  0
 11 12  1  0
 11 14  1  0
 12 15  1  0
 12 16  1  0
 12 17  1  0
M  RAD  1   4   2
M  END
>  <reaction>  (9) 
rmg_rxn_356

>  <mol_properties>  (9) 
{"1": {"label": "*1", "atom_type": "Cs"}, "2": {"label": "*0", "atom_type": "N3d"}, "7": {"label": "*2", "atom_type": "H0"}, "9": {"label": "*3", "atom_type": "Cd"}, "10": {"label": "*4", "atom_type": "Cd"}}

>  <type>  (9) 
unop_5

>  <geom_source>  (9) 
Heuristics

$$$$

     RDKit          3D

 17 15  0  0  0  0  0  0  0  0999 V2000
   -0.9391    0.4242   -2.0489 C   0  0  0  0  0  0  0  0  0  0  0  0
   -0.9391    0.4242   -0.5384 C   0  0  0  0  0  0  0  0  0  0  0  0
   -0.9391    1.7502    0.1251 N   0  0  0  0  0  0  0  0  0  0  0  0
   -0.9391    2.6797   -0.6226 O   0  0  0  0  0  1  0  0  0  0  0  0
   -0.0590    0.9316   -2.4434 H   0  0  0  0  0  0  0  0  0  0  0  0
   -0.9391   -0.6029   -2.4142 H   0  0  0  0  0  0  0  0  0  0  0  0
   -1.8193    0.9316   -2.4434 H   0  0  0  0  0  0  0  0  0  0  0  0
    0.1063   -0.1846   -0.0259 H   0  0  0  0  0  0  0  0  0  0  0  0
   -1.8103   -0.0831   -0.1113 H   0  0  0  0  0  0  0  0  0  0  0  0
    1.1401   -0.7866    0.4810 C   0  0  0  0  0  0  0  0  0  0  0  0
    1.1235   -2.0824    0.7512 C   0  0  0  0  0  0  0  0  0  0  0  0
    1.6904   -2.7120    1.9827 C   0  0  0  0  0  0  0  0  0  0  0  0
    1.5847   -0.0714    1.1651 H   0  0  0  0  0  0  0  0  0  0  0  0
    0.6666   -2.7606    0.0351 H   0  0  0  0  0  0  0  0  0  0  0  0
    0.9169   -3.2522    2.5346 H   0  0  0  0  0  0  0  0  0  0  0  0
    2.1283   -1.9656    2.6466 H   0  0  0  0  0  0  0  0  0  0  0  0
    2.4637   -3.4406    1.7262 H   0  0  0  0  0  0  0  0  0  0  0  0
  1  2  1  0
  1  5  1  0
  1  6  1  0
  1  7  1  0
  2  3  2  3
  2  9  1  0
  3  4  1  0
  8 10  1  0
 10 11  2  3
 10 13  1  0
 11 12  1  0
 11 14  1  0
 12 15  1  0
 12 16  1  0
 12 17  1  0
M  RAD  1   4   2
M  END
>  <reaction>  (10) 
rmg_rxn_356

>  <mol_properties>  (10) 
{"1": {"label": "*1", "atom_type": "Cs"}, "2": {"label": "*0", "atom_type": "N3d"}, "7": {"label": "*2", "atom_type": "H0"}, "9": {"label": "*3", "atom_type": "Cd"}, "10": {"label": "*4", "atom_type": "Cd"}}

>  <type>  (10) 
unop_6

>  <geom_source>  (10) 
Heuristics

$$$$

     RDKit          3D

 17 15  0  0  0  0  0  0  0  0999 V2000
   -0.9327    0.2897   -2.2035 C   0  0  0  0  0  0  0  0  0  0  0  0
   -0.9327    0.2897   -0.6930 C   0  0  0  0  0  0  0  0  0  0  0  0
   -0.9327    1.6157   -0.0294 N   0  0  0  0  0  0  0  0  0  0  0  0
   -0.9327    2.5453   -0.7771 O   0  0  0  0  0  1  0  0  0  0  0  0
   -0.0526    0.7971   -2.5980 H   0  0  0  0  0  0  0  0  0  0  0  0
   -0.9327   -0.7374   -2.5688 H   0  0  0  0  0  0  0  0  0  0  0  0
   -1.8128    0.7971   -2.5980 H   0  0  0  0  0  0  0  0  0  0  0  0
    0.1127   -0.3190   -0.1804 H   0  0  0  0  0  0  0  0  0  0  0  0
   -1.8039   -0.2176   -0.2659 H   0  0  0  0  0  0  0  0  0  0  0  0
    1.1466   -0.9211    0.3265 C   0  0  0  0  0  0  0  0  0  0  0  0
    1.0158   -1.9755    1.1160 C   0  0  0  0  0  0  0  0  0  0  0  0
    1.7446   -2.1811    2.4048 C   0  0  0  0  0  0  0  0  0  0  0  0
    1.8187   -0.1068    0.5762 H   0  0  0  0  0  0  0  0  0  0  0  0
    0.3299   -2.7665    0.8238 H   0  0  0  0  0  0  0  0  0  0  0  0
    1.0425   -2.2896    3.2355 H   0  0  0  0  0  0  0  0  0  0  0  0
    2.4100   -1.3453    2.6242 H   0  0  0  0  0  0  0  0  0  0  0  0
    2.3408   -3.0967    2.3726 H   0  0  0  0  0  0  0  0  0  0  0  0
  1  2  1  0
  1  5  1  0
  1  6  1  0
  1  7  1  0
  2  3  2  3
  2  9  1  0
  3  4  1  0
  8 10  1  0
 10 11  2  3
 10 13  1  0
 11 12  1  0
 11 14  1  0
 12 15  1  0
 12 16  1  0
 12 17  1  0
M  RAD  1   4   2
M  END
>  <reaction>  (11) 
rmg_rxn_356

>  <mol_properties>  (11) 
{"1": {"label": "*1", "atom_type": "Cs"}, "2": {"label": "*0", "atom_type": "N3d"}, "7": {"label": "*2", "atom_type": "H0"}, "9": {"label": "*3", "atom_type": "Cd"}, "10": {"label": "*4", "atom_type": "Cd"}}

>  <type>  (11) 
unop_7

>  <geom_source>  (11) 
Heuristics

$$$$

     RDKit          3D

 17 15  0  0  0  0  0  0  0  0999 V2000
   -1.2983   -0.1926   -2.0489 C   0  0  0  0  0  0  0  0  0  0  0  0
   -1.2983   -0.1926   -0.5384 C   0  0  0  0  0  0  0  0  0  0  0  0
   -1.2983    1.1333    0.1251 N   0  0  0  0  0  0  0  0  0  0  0  0
   -1.2983    2.0629   -0.6226 O   0  0  0  0  0  1  0  0  0  0  0  0
   -0.4182    0.3147   -2.4434 H   0  0  0  0  0  0  0  0  0  0  0  0
   -1.2983   -1.2198   -2.4142 H   0  0  0  0  0  0  0  0  0  0  0  0
   -2.1785    0.3147   -2.4434 H   0  0  0  0  0  0  0  0  0  0  0  0
   -0.2529   -0.8014   -0.0259 H   0  0  0  0  0  0  0  0  0  0  0  0
   -2.1695   -0.7000   -0.1113 H   0  0  0  0  0  0  0  0  0  0  0  0
    0.7809   -1.4034    0.4810 C   0  0  0  0  0  0  0  0  0  0  0  0
    1.8997   -0.7495    0.7512 C   0  0  0  0  0  0  0  0  0  0  0  0
    2.7270   -0.9318    1.9827 C   0  0  0  0  0  0  0  0  0  0  0  0
    0.3783   -2.1431    1.1651 H   0  0  0  0  0  0  0  0  0  0  0  0
    2.2641   -0.0174    0.0351 H   0  0  0  0  0  0  0  0  0  0  0  0
    3.7424   -1.2447    1.7262 H   0  0  0  0  0  0  0  0  0  0  0  0
    2.2940   -1.6810    2.6466 H   0  0  0  0  0  0  0  0  0  0  0  0
    2.8152    0.0076    2.5346 H   0  0  0  0  0  0  0  0  0  0  0  0
  1  2  1  0
  1  5  1  0
  1  6  1  0
  1  7  1  0
  2  3  2  3
  2  9  1  0
  3  4  1  0
  8 10  1  0
 10 11  2  3
 10 13  1  0
 11 12  1  0
 11 14  1  0
 12 15  1  0
 12 16  1  0
 12 17  1  0
M  RAD  1   4   2
M  END
>  <reaction>  (12) 
rmg_rxn_356

>  <mol_properties>  (12) 
{"1": {"label": "*1", "atom_type": "Cs"}, "2": {"label": "*0", "atom_type": "N3d"}, "7": {"label": "*2", "atom_type": "H0"}, "9": {"label": "*3", "atom_type": "Cd"}, "10": {"label": "*4", "atom_type": "Cd"}}

>  <type>  (12) 
unop_8

>  <geom_source>  (12) 
Heuristics

$$$$

     RDKit          3D

 17 15  0  0  0  0  0  0  0  0999 V2000
   -1.1678    0.3975   -1.7028 C   0  0  0  0  0  0  0  0  0  0  0  0
   -1.1678    0.3975   -0.1924 C   0  0  0  0  0  0  0  0  0  0  0  0
   -1.1678    1.7235    0.4712 N   0  0  0  0  0  0  0  0  0  0  0  0
   -1.1678    2.6530   -0.2765 O   0  0  0  0  0  1  0  0  0  0  0  0
   -0.2876    0.9049   -2.0973 H   0  0  0  0  0  0  0  0  0  0  0  0
   -1.1678   -0.6296   -2.0681 H   0  0  0  0  0  0  0  0  0  0  0  0
   -2.0479    0.9049   -2.0973 H   0  0  0  0  0  0  0  0  0  0  0  0
   -0.1223   -0.2113    0.3202 H   0  0  0  0  0  0  0  0  0  0  0  0
   -2.0390   -0.1098    0.2348 H   0  0  0  0  0  0  0  0  0  0  0  0
    0.9115   -0.8133    0.8271 C   0  0  0  0  0  0  0  0  0  0  0  0
    1.5081   -1.8134    0.1978 C   0  0  0  0  0  0  0  0  0  0  0  0
    2.4352   -2.7990    0.8329 C   0  0  0  0  0  0  0  0  0  0  0  0
    1.0648   -0.6397    1.8871 H   0  0  0  0  0  0  0  0  0  0  0  0
    1.3237   -1.9475   -0.8651 H   0  0  0  0  0  0  0  0  0  0  0  0
    2.0551   -3.8178    0.7219 H   0  0  0  0  0  0  0  0  0  0  0  0
    2.5662   -2.5951    1.8963 H   0  0  0  0  0  0  0  0  0  0  0  0
    3.4173   -2.7737    0.3538 H   0  0  0  0  0  0  0  0  0  0  0  0
  1  2  1  0
  1  5  1  0
  1  6  1  0
  1  7  1  0
  2  3  2  3
  2  9  1  0
  3  4  1  0
  8 10  1  0
 10 11  2  3
 10 13  1  0
 11 12  1  0
 11 14  1  0
 12 15  1  0
 12 16  1  0
 12 17  1  0
M  RAD  1   4   2
M  END
>  <reaction>  (13) 
rmg_rxn_356

>  <mol_properties>  (13) 
{"1": {"label": "*1", "atom_type": "Cs"}, "2": {"label": "*0", "atom_type": "N3d"}, "7": {"label": "*2", "atom_type": "H0"}, "9": {"label": "*3", "atom_type": "Cd"}, "10": {"label": "*4", "atom_type": "Cd"}}

>  <type>  (13) 
unop_9

>  <geom_source>  (13) 
Heuristics

$$$$

     RDKit          3D

 17 15  0  0  0  0  0  0  0  0999 V2000
   -1.3810   -0.1384   -1.8592 C   0  0  0  0  0  0  0  0  0  0  0  0
   -1.3810   -0.1384   -0.3487 C   0  0  0  0  0  0  0  0  0  0  0  0
   -1.3810    1.1876    0.3149 N   0  0  0  0  0  0  0  0  0  0  0  0
   -1.3810    2.1171   -0.4328 O   0  0  0  0  0  1  0  0  0  0  0  0
   -0.5009    0.3690   -2.2537 H   0  0  0  0  0  0  0  0  0  0  0  0
   -1.3810   -1.1655   -2.2245 H   0  0  0  0  0  0  0  0  0  0  0  0
   -2.2611    0.3690   -2.2537 H   0  0  0  0  0  0  0  0  0  0  0  0
   -0.3356   -0.7472    0.1639 H   0  0  0  0  0  0  0  0  0  0  0  0
   -2.2522   -0.6457    0.0784 H   0  0  0  0  0  0  0  0  0  0  0  0
    0.6982   -1.3492    0.6707 C   0  0  0  0  0  0  0  0  0  0  0  0
    1.9311   -0.9366    0.4216 C   0  0  0  0  0  0  0  0  0  0  0  0
    3.0800   -1.0341    1.3728 C   0  0  0  0  0  0  0  0  0  0  0  0
    0.4342   -1.8026    1.6204 H   0  0  0  0  0  0  0  0  0  0  0  0
    2.1479   -0.4883   -0.5447 H   0  0  0  0  0  0  0  0  0  0  0  0
    3.8911   -1.6278    0.9434 H   0  0  0  0  0  0  0  0  0  0  0  0
    2.7794   -1.4938    2.3151 H   0  0  0  0  0  0  0  0  0  0  0  0
    3.4916   -0.0447    1.5882 H   0  0  0  0  0  0  0  0  0  0  0  0
  1  2  1  0
  1  5  1  0
  1  6  1  0
  1  7  1  0
  2  3  2  3
  2  9  1  0
  3  4  1  0
  8 10  1  0
 10 11  2  3
 10 13  1  0
 11 12  1  0
 11 14  1  0
 12 15  1  0
 12 16  1  0
 12 17  1  0
M  RAD  1   4   2
M  END
>  <reaction>  (14) 
rmg_rxn_356

>  <mol_properties>  (14) 
{"1": {"label": "*1", "atom_type": "Cs"}, "2": {"label": "*0", "atom_type": "N3d"}, "7": {"label": "*2", "atom_type": "H0"}, "9": {"label": "*3", "atom_type": "Cd"}, "10": {"label": "*4", "atom_type": "Cd"}}

>  <type>  (14) 
unop_10

>  <geom_source>  (14) 
Heuristics

$$$$

     RDKit          3D

 17 15  0  0  0  0  0  0  0  0999 V2000
   -1.0093    0.1382   -2.2676 C   0  0  0  0  0  0  0  0  0  0  0  0
   -1.0093    0.1382   -0.7571 C   0  0  0  0  0  0  0  0  0  0  0  0
   -1.0093    1.4642   -0.0936 N   0  0  0  0  0  0  0  0  0  0  0  0
   -1.0093    2.3937   -0.8413 O   0  0  0  0  0  1  0  0  0  0  0  0
   -0.1291    0.6456   -2.6621 H   0  0  0  0  0  0  0  0  0  0  0  0
   -1.0093   -0.8889   -2.6329 H   0  0  0  0  0  0  0  0  0  0  0  0
   -1.8894    0.6456   -2.6621 H   0  0  0  0  0  0  0  0  0  0  0  0
    0.0362   -0.4706   -0.2445 H   0  0  0  0  0  0  0  0  0  0  0  0
   -1.8805   -0.3691   -0.3300 H   0  0  0  0  0  0  0  0  0  0  0  0
    1.0700   -1.0726    0.2623 C   0  0  0  0  0  0  0  0  0  0  0  0
    1.0078   -1.6891    1.4321 C   0  0  0  0  0  0  0  0  0  0  0  0
    2.1004   -1.7119    2.4519 C   0  0  0  0  0  0  0  0  0  0  0  0
    1.9546   -0.5227   -0.0414 H   0  0  0  0  0  0  0  0  0  0  0  0
    0.1002   -2.2276    1.6925 H   0  0  0  0  0  0  0  0  0  0  0  0
    1.7590   -1.2822    3.3972 H   0  0  0  0  0  0  0  0  0  0  0  0
    2.9725   -1.1506    2.1145 H   0  0  0  0  0  0  0  0  0  0  0  0
    2.4123   -2.7377    2.6648 H   0  0  0  0  0  0  0  0  0  0  0  0
  1  2  1  0
  1  5  1  0
  1  6  1  0
  1  7  1  0
  2  3  2  3
  2  9  1  0
  3  4  1  0
  8 10  1  0
 10 11  2  3
 10 13  1  0
 11 12  1  0
 11 14  1  0
 12 15  1  0
 12 16  1  0
 12 17  1  0
M  RAD  1   4   2
M  END
>  <reaction>  (15) 
rmg_rxn_356

>  <mol_properties>  (15) 
{"1": {"label": "*1", "atom_type": "Cs"}, "2": {"label": "*0", "atom_type": "N3d"}, "7": {"label": "*2", "atom_type": "H0"}, "9": {"label": "*3", "atom_type": "Cd"}, "10": {"label": "*4", "atom_type": "Cd"}}

>  <type>  (15) 
unop_11

>  <geom_source>  (15) 
Heuristics

$$$$

     RDKit          3D

 17 15  0  0  0  0  0  0  0  0999 V2000
   -1.3075    0.2257   -1.6418 C   0  0  0  0  0  0  0  0  0  0  0  0
   -1.3075    0.2257   -0.1314 C   0  0  0  0  0  0  0  0  0  0  0  0
   -1.3075    1.5517    0.5322 N   0  0  0  0  0  0  0  0  0  0  0  0
   -1.3075    2.4812   -0.2155 O   0  0  0  0  0  1  0  0  0  0  0  0
   -0.4274    0.7331   -2.0363 H   0  0  0  0  0  0  0  0  0  0  0  0
   -1.3075   -0.8014   -2.0071 H   0  0  0  0  0  0  0  0  0  0  0  0
   -2.1877    0.7331   -2.0363 H   0  0  0  0  0  0  0  0  0  0  0  0
   -0.2621   -0.3830    0.3812 H   0  0  0  0  0  0  0  0  0  0  0  0
   -2.1787   -0.2816    0.2958 H   0  0  0  0  0  0  0  0  0  0  0  0
    0.7717   -0.9851    0.8881 C   0  0  0  0  0  0  0  0  0  0  0  0
    1.7031   -1.5274    0.1196 C   0  0  0  0  0  0  0  0  0  0  0  0
    2.9217   -2.2371    0.6151 C   0  0  0  0  0  0  0  0  0  0  0  0
    0.8378   -1.0236    1.9704 H   0  0  0  0  0  0  0  0  0  0  0  0
    1.5935   -1.4636   -0.9600 H   0  0  0  0  0  0  0  0  0  0  0  0
    2.9468   -3.2674    0.2510 H   0  0  0  0  0  0  0  0  0  0  0  0
    2.9559   -2.2570    1.7051 H   0  0  0  0  0  0  0  0  0  0  0  0
    3.8302   -1.7504    0.2510 H   0  0  0  0  0  0  0  0  0  0  0  0
  1  2  1  0
  1  5  1  0
  1  6  1  0
  1  7  1  0
  2  3  2  3
  2  9  1  0
  3  4  1  0
  8 10  1  0
 10 11  2  3
 10 13  1  0
 11 12  1  0
 11 14  1  0
 12 15  1  0
 12 16  1  0
 12 17  1  0
M  RAD  1   4   2
M  END
>  <reaction>  (16) 
rmg_rxn_356

>  <mol_properties>  (16) 
{"1": {"label": "*1", "atom_type": "Cs"}, "2": {"label": "*0", "atom_type": "N3d"}, "7": {"label": "*2", "atom_type": "H0"}, "9": {"label": "*3", "atom_type": "Cd"}, "10": {"label": "*4", "atom_type": "Cd"}}

>  <type>  (16) 
unop_12

>  <geom_source>  (16) 
Heuristics

$$$$

     RDKit          3D

 17 15  0  0  0  0  0  0  0  0999 V2000
   -1.1187    0.8829    2.6671 O   0  0  0  0  0  1  0  0  0  0  0  0
   -1.7670    0.2836    1.8648 N   0  0  0  0  0  0  0  0  0  0  0  0
    2.1756   -0.9907   -0.3354 C   0  0  0  0  0  0  0  0  0  0  0  0
   -2.3097   -0.6172   -0.3199 C   0  0  0  0  0  0  0  0  0  0  0  0
    2.1044    0.5028   -0.3984 C   0  0  0  0  0  0  0  0  0  0  0  0
   -1.3850    0.2876    0.4774 C   0  0  0  0  0  0  0  0  0  0  0  0
    0.9313    1.1372   -0.3575 C   0  0  0  0  0  0  0  0  0  0  0  0
    3.2355   -1.3172   -0.3834 H   0  0  0  0  0  0  0  0  0  0  0  0
    1.6245   -1.4332   -1.1920 H   0  0  0  0  0  0  0  0  0  0  0  0
    1.7315   -1.3519    0.6163 H   0  0  0  0  0  0  0  0  0  0  0  0
   -3.3576   -0.2559   -0.2469 H   0  0  0  0  0  0  0  0  0  0  0  0
   -2.2491   -1.6560    0.0676 H   0  0  0  0  0  0  0  0  0  0  0  0
   -1.9994   -0.6144   -1.3855 H   0  0  0  0  0  0  0  0  0  0  0  0
    3.0217    1.0785   -0.4786 H   0  0  0  0  0  0  0  0  0  0  0  0
   -1.4333    1.3233    0.0770 H   0  0  0  0  0  0  0  0  0  0  0  0
    0.8969    2.2208   -0.4042 H   0  0  0  0  0  0  0  0  0  0  0  0
   -0.1016    0.5196   -0.2685 H   0  0  0  0  0  0  0  0  0  0  0  0
  1  2  1  0
  2  6  2  3
  3  5  1  0
  3  8  1  0
  3  9  1  0
  3 10  1  0
  4  6  1  0
  4 11  1  0
  4 12  1  0
  4 13  1  0
  5  7  2  3
  5 14  1  0
  6 15  1  0
  7 16  1  0
  7 17  1  0
M  RAD  1   1   2
M  END
>  <reaction>  (17) 
rmg_rxn_356

>  <mol_properties>  (17) 
{"1": {"label": "*1", "atom_type": "Cs"}, "2": {"label": "*0", "atom_type": "N3d"}, "7": {"label": "*2", "atom_type": "H0"}, "9": {"label": "*3", "atom_type": "Cd"}, "10": {"label": "*4", "atom_type": "Cd"}}

>  <type>  (17) 
unop_13

>  <geom_source>  (17) 
AutoTST

$$$$

     RDKit          3D

 17 15  0  0  0  0  0  0  0  0999 V2000
   -1.3880    0.0194   -1.7028 C   0  0  0  0  0  0  0  0  0  0  0  0
   -1.3880    0.0194   -0.1924 C   0  0  0  0  0  0  0  0  0  0  0  0
   -1.3880    1.3453    0.4712 N   0  0  0  0  0  0  0  0  0  0  0  0
   -1.3880    2.2749   -0.2765 O   0  0  0  0  0  1  0  0  0  0  0  0
   -0.5078    0.5268   -2.0973 H   0  0  0  0  0  0  0  0  0  0  0  0
   -1.3880   -1.0078   -2.0681 H   0  0  0  0  0  0  0  0  0  0  0  0
   -2.2681    0.5268   -2.0973 H   0  0  0  0  0  0  0  0  0  0  0  0
   -0.3425   -0.5894    0.3202 H   0  0  0  0  0  0  0  0  0  0  0  0
   -2.2592   -0.4879    0.2348 H   0  0  0  0  0  0  0  0  0  0  0  0
    0.6913   -1.1914    0.8271 C   0  0  0  0  0  0  0  0  0  0  0  0
    1.8556   -1.2167    0.1978 C   0  0  0  0  0  0  0  0  0  0  0  0
    3.1703   -1.5366    0.8328 C   0  0  0  0  0  0  0  0  0  0  0  0
    0.6160   -1.4104    1.8871 H   0  0  0  0  0  0  0  0  0  0  0  0
    1.8812   -0.9902   -0.8651 H   0  0  0  0  0  0  0  0  0  0  0  0
    3.6330   -2.4033    0.3538 H   0  0  0  0  0  0  0  0  0  0  0  0
    3.0577   -1.7511    1.8963 H   0  0  0  0  0  0  0  0  0  0  0  0
    3.8688   -0.7032    0.7219 H   0  0  0  0  0  0  0  0  0  0  0  0
  1  2  1  0
  1  5  1  0
  1  6  1  0
  1  7  1  0
  2  3  2  3
  2  9  1  0
  3  4  1  0
  8 10  1  0
 10 11  2  3
 10 13  1  0
 11 12  1  0
 11 14  1  0
 12 15  1  0
 12 16  1  0
 12 17  1  0
M  RAD  1   4   2
M  END
>  <reaction>  (18) 
rmg_rxn_356

>  <mol_properties>  (18) 
{"1": {"label": "*1", "atom_type": "Cs"}, "2": {"label": "*0", "atom_type": "N3d"}, "7": {"label": "*2", "atom_type": "H0"}, "9": {"label": "*3", "atom_type": "Cd"}, "10": {"label": "*4", "atom_type": "Cd"}}

>  <type>  (18) 
unop_14

>  <geom_source>  (18) 
gaussian_log

$$$$
