
     RDKit          3D

  9  8  0  0  0  0  0  0  0  0999 V2000
    1.0366    1.3666   -1.0040 O   0  0  0  0  0  1  0  0  0  0  0  0
    0.8763    0.9651    0.1786 N   0  0  0  0  0  0  0  0  0  0  0  0
    0.0999    0.0100    0.5787 C   0  0  0  0  0  3  0  0  0  0  0  0
   -0.7197   -0.7380   -0.4015 C   0  0  0  0  0  0  0  0  0  0  0  0
    1.4193    1.4472    0.9012 H   0  0  0  0  0  0  0  0  0  0  0  0
    0.0997   -0.1874    1.6410 H   0  0  0  0  0  0  0  0  0  0  0  0
   -1.3136   -1.5037    0.0930 H   0  0  0  0  0  0  0  0  0  0  0  0
   -1.3825   -0.0572   -0.9424 H   0  0  0  0  0  0  0  0  0  0  0  0
   -0.0802   -1.2049   -1.1555 H   0  0  0  0  0  0  0  0  0  0  0  0
  1  2  1  0
  2  3  1  0
  2  5  1  0
  3  4  1  0
  3  6  1  0
  4  7  1  0
  4  8  1  0
  4  9  1  0
M  CHG  2   1  -1   3   1
M  END
>  <reaction>  (1) 
rmg_rxn_15486

>  <mol_properties>  (1) 
{"3": {"label": "donator", "atom_type": "Cs"}, "6": {"label": "d_hydrogen", "atom_type": "H0"}}

>  <type>  (1) 
r1h

$$$$

     RDKit          3D

  5  4  0  0  0  0  0  0  0  0999 V2000
    0.8934    0.3742    0.4948 O   0  0  0  0  0  0  0  0  0  0  0  0
    0.1582   -0.1610   -0.5904 N   0  0  0  0  0  0  0  0  0  0  0  0
   -1.0297   -0.3739   -0.4689 C   0  0  0  0  0  3  0  0  0  0  0  0
    1.7804    0.4382    0.1306 H   0  0  0  0  0  0  0  0  0  0  0  0
   -1.8023   -0.2775    0.2859 H   0  0  0  0  0  0  0  0  0  0  0  0
  1  2  1  0
  1  4  1  0
  2  3  2  3
  3  5  1  0
M  RAD  1   3   2
M  END
>  <reaction>  (2) 
rmg_rxn_15486

>  <mol_properties>  (2) 
{"2": {"label": "acceptor", "atom_type": "Cd"}}

>  <type>  (2) 
r2

$$$$

     RDKit          3D

  6  5  0  0  0  0  0  0  0  0999 V2000
    1.2314    0.0428    0.5088 O   0  0  0  0  0  0  0  0  0  0  0  0
    0.2987    0.2341   -0.4915 N   0  0  0  0  0  0  0  0  0  0  0  0
   -0.8599   -0.1122   -0.1290 C   0  0  0  0  0  0  0  0  0  0  0  0
    2.0507    0.3401    0.1082 H   0  0  0  0  0  0  0  0  0  0  0  0
   -1.0700   -0.5112    0.8610 H   0  0  0  0  0  0  0  0  0  0  0  0
   -1.6509    0.0064   -0.8574 H   0  0  0  0  0  0  0  0  0  0  0  0
  1  2  1  0
  1  4  1  0
  2  3  2  3
  3  5  1  0
  3  6  1  0
M  END
>  <reaction>  (3) 
rmg_rxn_15486

>  <mol_properties>  (3) 
{"2": {"label": "acceptor", "atom_type": "Cd"}, "5": {"label": "a_hydrogen", "atom_type": "H0"}}

>  <type>  (3) 
r2h

$$$$

     RDKit          3D

 14 12  0  0  0  0  0  0  0  0999 V2000
    0.4856    2.6007    2.0755 O   0  0  0  0  0  0  0  0  0  0  0  0
    0.0368    1.6365    1.1595 N   0  0  0  0  0  0  0  0  0  0  0  0
    0.5541    1.6794    0.0399 C   0  0  0  0  0  3  0  0  0  0  0  0
   -0.0186    2.3922    2.8655 H   0  0  0  0  0  0  0  0  0  0  0  0
    1.3201    2.3331   -0.3717 H   0  0  0  0  0  0  0  0  0  0  0  0
    1.5871   -1.9476   -0.0066 O   0  0  0  0  0  1  0  0  0  0  0  0
    0.3829   -2.0530    0.3450 N   0  0  0  0  0  0  0  0  0  0  0  0
   -0.6428   -1.4498   -0.1949 C   0  0  0  0  0  3  0  0  0  0  0  0
   -0.4537   -0.5175   -1.2832 C   0  0  0  0  0  0  0  0  0  0  0  0
    0.1901   -2.6746    1.1337 H   0  0  0  0  0  0  0  0  0  0  0  0
   -1.5950   -1.6270    0.2839 H   0  0  0  0  0  0  0  0  0  0  0  0
   -0.0028    0.4983   -0.8053 H   0  0  0  0  0  0  0  0  0  0  0  0
    0.3278   -0.8235   -1.9771 H   0  0  0  0  0  0  0  0  0  0  0  0
   -1.3775   -0.2360   -1.7803 H   0  0  0  0  0  0  0  0  0  0  0  0
  1  2  1  0
  1  4  1  0
  2  3  2  3
  3  5  1  0
  6  7  1  0
  7  8  1  0
  7 10  1  0
  8  9  1  0
  8 11  1  0
  9 12  1  0
  9 13  1  0
  9 14  1  0
M  CHG  2   6  -1   8   1
M  RAD  1   3   2
M  END
>  <reaction>  (4) 
rmg_rxn_15486

>  <mol_properties>  (4) 
{"1": {"label": "*4", "atom_type": "N3d"}, "2": {"label": "*3", "atom_type": "Cd"}, "7": {"label": "*0", "atom_type": "Csc"}, "8": {"label": "*1", "atom_type": "Cs"}, "11": {"label": "*2", "atom_type": "H0"}}

>  <type>  (4) 
ts

$$$$

     RDKit          3D

 14 12  0  0  0  0  0  0  0  0999 V2000
   -3.6222    0.3475    0.2407 O   0  0  0  0  0  0  0  0  0  0  0  0
   -2.3910   -0.2680   -0.0088 N   0  0  0  0  0  0  0  0  0  0  0  0
   -1.3912    0.4438   -0.2108 C   0  0  0  0  0  0  0  0  0  0  0  0
   -4.2428   -0.3856    0.3573 H   0  0  0  0  0  0  0  0  0  0  0  0
   -1.3265    1.5253   -0.2239 H   0  0  0  0  0  0  0  0  0  0  0  0
    2.7280    1.0326   -0.2981 O   0  0  0  0  0  1  0  0  0  0  0  0
    2.5255    0.0957    0.5318 N   0  0  0  0  0  0  0  0  0  0  0  0
    1.6397   -0.8898    0.3894 C   0  0  0  0  0  0  0  0  0  0  0  0
    0.7754   -0.9541   -0.6995 C   0  0  0  0  0  0  0  0  0  0  0  0
    3.1135    0.0925    1.3735 H   0  0  0  0  0  0  0  0  0  0  0  0
    1.5631   -1.5739    1.2206 H   0  0  0  0  0  0  0  0  0  0  0  0
   -0.3446   -0.2006   -0.4165 H   0  0  0  0  0  0  0  0  0  0  0  0
    1.0869   -0.3946   -1.5727 H   0  0  0  0  0  0  0  0  0  0  0  0
    0.2741   -1.8907   -0.8879 H   0  0  0  0  0  0  0  0  0  0  0  0
  1  2  1  0
  1  4  1  0
  2  3  2  3
  3  5  1  0
  3 12  1  0
  6  7  1  0
  7  8  1  0
  7 10  1  0
  8  9  2  3
  8 11  1  0
  9 13  1  0
  9 14  1  0
M  RAD  1   6   2
M  END
>  <reaction>  (5) 
rmg_rxn_15486

>  <mol_properties>  (5) 
{"1": {"label": "*4", "atom_type": "N3d"}, "2": {"label": "*3", "atom_type": "Cd"}, "7": {"label": "*0", "atom_type": "Csc"}, "8": {"label": "*1", "atom_type": "Cs"}, "11": {"label": "*2", "atom_type": "H0"}}

>  <type>  (5) 
unop_1

>  <geom_source>  (5) 
crest_best.xyz

$$$$

     RDKit          3D

 14 12  0  0  0  0  0  0  0  0999 V2000
    0.3519    3.5625    1.4548 O   0  0  0  0  0  0  0  0  0  0  0  0
    0.7513    2.2620    1.2177 N   0  0  0  0  0  0  0  0  0  0  0  0
   -0.2262    1.4635    1.2015 C   0  0  0  0  0  0  0  0  0  0  0  0
    1.1756    4.0537    1.4412 H   0  0  0  0  0  0  0  0  0  0  0  0
   -1.2523    1.7891    1.3588 H   0  0  0  0  0  0  0  0  0  0  0  0
   -0.2262   -2.7376   -2.1360 O   0  0  0  0  0  1  0  0  0  0  0  0
   -0.2262   -2.7376   -0.8769 N   0  0  0  0  0  0  0  0  0  0  0  0
   -0.2262   -1.7042   -0.0977 C   0  0  0  0  0  0  0  0  0  0  0  0
   -0.2262   -0.3410   -0.6754 C   0  0  0  0  0  0  0  0  0  0  0  0
   -0.2262   -3.6550   -0.4210 H   0  0  0  0  0  0  0  0  0  0  0  0
   -0.2262   -1.9100    0.9630 H   0  0  0  0  0  0  0  0  0  0  0  0
   -0.2262    0.5638    0.2657 H   0  0  0  0  0  0  0  0  0  0  0  0
    0.6482   -0.1987   -1.3161 H   0  0  0  0  0  0  0  0  0  0  0  0
   -1.1007   -0.1987   -1.3161 H   0  0  0  0  0  0  0  0  0  0  0  0
  1  2  1  0
  1  4  1  0
  2  3  2  3
  3  5  1  0
  3 12  1  0
  6  7  1  0
  7  8  1  0
  7 10  1  0
  8  9  2  3
  8 11  1  0
  9 13  1  0
  9 14  1  0
M  RAD  1   6   2
M  END
>  <reaction>  (6) 
rmg_rxn_15486

>  <mol_properties>  (6) 
{"1": {"label": "*4", "atom_type": "N3d"}, "2": {"label": "*3", "atom_type": "Cd"}, "7": {"label": "*0", "atom_type": "Csc"}, "8": {"label": "*1", "atom_type": "Cs"}, "11": {"label": "*2", "atom_type": "H0"}}

>  <type>  (6) 
unop_2

>  <geom_source>  (6) 
Heuristics

$$$$

     RDKit          3D

 14 12  0  0  0  0  0  0  0  0999 V2000
   -3.6249   -0.3472   -0.2375 O   0  0  0  0  0  0  0  0  0  0  0  0
   -2.3938    0.2680    0.0133 N   0  0  0  0  0  0  0  0  0  0  0  0
   -1.3907   -0.4438    0.1982 C   0  0  0  0  0  0  0  0  0  0  0  0
   -4.2483    0.3857   -0.3388 H   0  0  0  0  0  0  0  0  0  0  0  0
   -1.3228   -1.5251    0.1945 H   0  0  0  0  0  0  0  0  0  0  0  0
    2.7278   -1.0331    0.3011 O   0  0  0  0  0  1  0  0  0  0  0  0
    2.5292   -0.0952   -0.5286 N   0  0  0  0  0  0  0  0  0  0  0  0
    1.6430    0.8902   -0.3890 C   0  0  0  0  0  0  0  0  0  0  0  0
    0.7740    0.9535    0.6961 C   0  0  0  0  0  0  0  0  0  0  0  0
    3.1211   -0.0912   -1.3677 H   0  0  0  0  0  0  0  0  0  0  0  0
    1.5701    1.5751   -1.2200 H   0  0  0  0  0  0  0  0  0  0  0  0
   -0.3448    0.2004    0.4080 H   0  0  0  0  0  0  0  0  0  0  0  0
    1.0818    0.3932    1.5702 H   0  0  0  0  0  0  0  0  0  0  0  0
    0.2719    1.8900    0.8833 H   0  0  0  0  0  0  0  0  0  0  0  0
  1  2  1  0
  1  4  1  0
  2  3  2  3
  3  5  1  0
  3 12  1  0
  6  7  1  0
  7  8  1  0
  7 10  1  0
  8  9  2  3
  8 11  1  0
  9 13  1  0
  9 14  1  0
M  RAD  1   6   2
M  END
>  <reaction>  (7) 
rmg_rxn_15486

>  <mol_properties>  (7) 
{"1": {"label": "*4", "atom_type": "N3d"}, "2": {"label": "*3", "atom_type": "Cd"}, "7": {"label": "*0", "atom_type": "Csc"}, "8": {"label": "*1", "atom_type": "Cs"}, "11": {"label": "*2", "atom_type": "H0"}}

>  <type>  (7) 
unop_3

>  <geom_source>  (7) 
Heuristics

$$$$

     RDKit          3D

 14 12  0  0  0  0  0  0  0  0999 V2000
    0.6422    2.6277    2.6397 O   0  0  0  0  0  0  0  0  0  0  0  0
    0.3433    1.5179    1.8741 N   0  0  0  0  0  0  0  0  0  0  0  0
   -0.2211    1.8310    0.7892 C   0  0  0  0  0  0  0  0  0  0  0  0
    1.0586    2.2542    3.4189 H   0  0  0  0  0  0  0  0  0  0  0  0
   -0.4347    2.8619    0.5153 H   0  0  0  0  0  0  0  0  0  0  0  0
   -0.2211   -2.3701   -2.5483 O   0  0  0  0  0  1  0  0  0  0  0  0
   -0.2211   -2.3701   -1.2892 N   0  0  0  0  0  0  0  0  0  0  0  0
   -0.2211   -1.3367   -0.5100 C   0  0  0  0  0  0  0  0  0  0  0  0
   -0.2211    0.0265   -1.0877 C   0  0  0  0  0  0  0  0  0  0  0  0
   -0.2211   -3.2875   -0.8333 H   0  0  0  0  0  0  0  0  0  0  0  0
   -0.2211   -1.5425    0.5507 H   0  0  0  0  0  0  0  0  0  0  0  0
   -0.2211    0.9312   -0.1466 H   0  0  0  0  0  0  0  0  0  0  0  0
    0.6533    0.1688   -1.7284 H   0  0  0  0  0  0  0  0  0  0  0  0
   -1.0955    0.1688   -1.7284 H   0  0  0  0  0  0  0  0  0  0  0  0
  1  2  1  0
  1  4  1  0
  2  3  2  3
  3  5  1  0
  3 12  1  0
  6  7  1  0
  7  8  1  0
  7 10  1  0
  8  9  2  3
  8 11  1  0
  9 13  1  0
  9 14  1  0
M  RAD  1   6   2
M  END
>  <reaction>  (8) 
rmg_rxn_15486

>  <mol_properties>  (8) 
{"1": {"label": "*4", "atom_type": "N3d"}, "2": {"label": "*3", "atom_type": "Cd"}, "7": {"label": "*0", "atom_type": "Csc"}, "8": {"label": "*1", "atom_type": "Cs"}, "11": {"label": "*2", "atom_type": "H0"}}

>  <type>  (8) 
unop_4

>  <geom_source>  (8) 
Heuristics

$$$$

     RDKit          3D

 14 12  0  0  0  0  0  0  0  0999 V2000
   -3.6294    0.3481   -0.2311 O   0  0  0  0  0  0  0  0  0  0  0  0
   -2.3998   -0.2681    0.0242 N   0  0  0  0  0  0  0  0  0  0  0  0
   -1.3891    0.4416    0.1716 C   0  0  0  0  0  0  0  0  0  0  0  0
   -4.2597   -0.3828   -0.2992 H   0  0  0  0  0  0  0  0  0  0  0  0
   -1.3134    1.5217    0.1315 H   0  0  0  0  0  0  0  0  0  0  0  0
    2.7254    1.0350    0.3092 O   0  0  0  0  0  1  0  0  0  0  0  0
    2.5362    0.0962   -0.5218 N   0  0  0  0  0  0  0  0  0  0  0  0
    1.6503   -0.8907   -0.3898 C   0  0  0  0  0  0  0  0  0  0  0  0
    0.7719   -0.9551    0.6876 C   0  0  0  0  0  0  0  0  0  0  0  0
    3.1357    0.0928   -1.3554 H   0  0  0  0  0  0  0  0  0  0  0  0
    1.5862   -1.5761   -1.2211 H   0  0  0  0  0  0  0  0  0  0  0  0
   -0.3450   -0.2029    0.3895 H   0  0  0  0  0  0  0  0  0  0  0  0
    0.2691   -1.8919    0.8706 H   0  0  0  0  0  0  0  0  0  0  0  0
    1.0711   -0.3942    1.5643 H   0  0  0  0  0  0  0  0  0  0  0  0
  1  2  1  0
  1  4  1  0
  2  3  2  3
  3  5  1  0
  3 12  1  0
  6  7  1  0
  7  8  1  0
  7 10  1  0
  8  9  2  3
  8 11  1  0
  9 13  1  0
  9 14  1  0
M  RAD  1   6   2
M  END
>  <reaction>  (9) 
rmg_rxn_15486

>  <mol_properties>  (9) 
{"1": {"label": "*4", "atom_type": "N3d"}, "2": {"label": "*3", "atom_type": "Cd"}, "7": {"label": "*0", "atom_type": "Csc"}, "8": {"label": "*1", "atom_type": "Cs"}, "11": {"label": "*2", "atom_type": "H0"}}

>  <type>  (9) 
unop_5

>  <geom_source>  (9) 
Heuristics

$$$$

     RDKit          3D

 14 12  0  0  0  0  0  0  0  0999 V2000
   -0.1132    3.5754    1.5811 O   0  0  0  0  0  0  0  0  0  0  0  0
    0.4990    2.5103    0.9503 N   0  0  0  0  0  0  0  0  0  0  0  0
   -0.0654    1.4140    1.2205 C   0  0  0  0  0  0  0  0  0  0  0  0
    0.4050    4.3303    1.2953 H   0  0  0  0  0  0  0  0  0  0  0  0
   -0.9308    1.3456    1.8763 H   0  0  0  0  0  0  0  0  0  0  0  0
   -0.0654   -2.7871   -2.1170 O   0  0  0  0  0  1  0  0  0  0  0  0
   -0.0654   -2.7871   -0.8579 N   0  0  0  0  0  0  0  0  0  0  0  0
   -0.0654   -1.7537   -0.0787 C   0  0  0  0  0  0  0  0  0  0  0  0
   -0.0654   -0.3905   -0.6564 C   0  0  0  0  0  0  0  0  0  0  0  0
   -0.0654   -3.7045   -0.4020 H   0  0  0  0  0  0  0  0  0  0  0  0
   -0.0654   -1.9595    0.9820 H   0  0  0  0  0  0  0  0  0  0  0  0
   -0.0654    0.5142    0.2846 H   0  0  0  0  0  0  0  0  0  0  0  0
    0.8090   -0.2482   -1.2971 H   0  0  0  0  0  0  0  0  0  0  0  0
   -0.9398   -0.2482   -1.2971 H   0  0  0  0  0  0  0  0  0  0  0  0
  1  2  1  0
  1  4  1  0
  2  3  2  3
  3  5  1  0
  3 12  1  0
  6  7  1  0
  7  8  1  0
  7 10  1  0
  8  9  2  3
  8 11  1  0
  9 13  1  0
  9 14  1  0
M  RAD  1   6   2
M  END
>  <reaction>  (10) 
rmg_rxn_15486

>  <mol_properties>  (10) 
{"1": {"label": "*4", "atom_type": "N3d"}, "2": {"label": "*3", "atom_type": "Cd"}, "7": {"label": "*0", "atom_type": "Csc"}, "8": {"label": "*1", "atom_type": "Cs"}, "11": {"label": "*2", "atom_type": "H0"}}

>  <type>  (10) 
unop_6

>  <geom_source>  (10) 
Heuristics

$$$$

     RDKit          3D

 14 12  0  0  0  0  0  0  0  0999 V2000
   -0.9471    2.9653    2.1784 O   0  0  0  0  0  0  0  0  0  0  0  0
   -0.6286    1.6993    1.7278 N   0  0  0  0  0  0  0  0  0  0  0  0
    0.3489    1.7145    0.9293 C   0  0  0  0  0  0  0  0  0  0  0  0
   -1.6907    2.8118    2.7645 H   0  0  0  0  0  0  0  0  0  0  0  0
    0.8615    2.6317    0.6469 H   0  0  0  0  0  0  0  0  0  0  0  0
    0.3489   -2.4866   -2.4082 O   0  0  0  0  0  1  0  0  0  0  0  0
    0.3489   -2.4866   -1.1490 N   0  0  0  0  0  0  0  0  0  0  0  0
    0.3489   -1.4532   -0.3698 C   0  0  0  0  0  0  0  0  0  0  0  0
    0.3489   -0.0899   -0.9476 C   0  0  0  0  0  0  0  0  0  0  0  0
    0.3489   -3.4040   -0.6932 H   0  0  0  0  0  0  0  0  0  0  0  0
    0.3489   -1.6590    0.6908 H   0  0  0  0  0  0  0  0  0  0  0  0
    0.3489    0.8148   -0.0065 H   0  0  0  0  0  0  0  0  0  0  0  0
    1.2234    0.0524   -1.5883 H   0  0  0  0  0  0  0  0  0  0  0  0
   -0.5255    0.0524   -1.5883 H   0  0  0  0  0  0  0  0  0  0  0  0
  1  2  1  0
  1  4  1  0
  2  3  2  3
  3  5  1  0
  3 12  1  0
  6  7  1  0
  7  8  1  0
  7 10  1  0
  8  9  2  3
  8 11  1  0
  9 13  1  0
  9 14  1  0
M  RAD  1   6   2
M  END
>  <reaction>  (11) 
rmg_rxn_15486

>  <mol_properties>  (11) 
{"1": {"label": "*4", "atom_type": "N3d"}, "2": {"label": "*3", "atom_type": "Cd"}, "7": {"label": "*0", "atom_type": "Csc"}, "8": {"label": "*1", "atom_type": "Cs"}, "11": {"label": "*2", "atom_type": "H0"}}

>  <type>  (11) 
unop_7

>  <geom_source>  (11) 
Heuristics

$$$$

     RDKit          3D

 14 12  0  0  0  0  0  0  0  0999 V2000
   -3.6274    0.3473   -0.2342 O   0  0  0  0  0  0  0  0  0  0  0  0
   -2.3969   -0.2679    0.0192 N   0  0  0  0  0  0  0  0  0  0  0  0
   -1.3900    0.4434    0.1840 C   0  0  0  0  0  0  0  0  0  0  0  0
   -4.2543   -0.3849   -0.3175 H   0  0  0  0  0  0  0  0  0  0  0  0
   -1.3186    1.5242    0.1614 H   0  0  0  0  0  0  0  0  0  0  0  0
    2.7276    1.0333    0.3053 O   0  0  0  0  0  1  0  0  0  0  0  0
    2.5328    0.0954   -0.5253 N   0  0  0  0  0  0  0  0  0  0  0  0
    1.6462   -0.8903   -0.3894 C   0  0  0  0  0  0  0  0  0  0  0  0
    0.7727   -0.9536    0.6921 C   0  0  0  0  0  0  0  0  0  0  0  0
    3.1281    0.0915   -1.3619 H   0  0  0  0  0  0  0  0  0  0  0  0
    1.5770   -1.5752   -1.2207 H   0  0  0  0  0  0  0  0  0  0  0  0
   -0.3451   -0.2006    0.3991 H   0  0  0  0  0  0  0  0  0  0  0  0
    0.2699   -1.8900    0.8774 H   0  0  0  0  0  0  0  0  0  0  0  0
    1.0767   -0.3930    1.5673 H   0  0  0  0  0  0  0  0  0  0  0  0
  1  2  1  0
  1  4  1  0
  2  3  2  3
  3  5  1  0
  3 12  1  0
  6  7  1  0
  7  8  1  0
  7 10  1  0
  8  9  2  3
  8 11  1  0
  9 13  1  0
  9 14  1  0
M  RAD  1   6   2
M  END
>  <reaction>  (12) 
rmg_rxn_15486

>  <mol_properties>  (12) 
{"1": {"label": "*4", "atom_type": "N3d"}, "2": {"label": "*3", "atom_type": "Cd"}, "7": {"label": "*0", "atom_type": "Csc"}, "8": {"label": "*1", "atom_type": "Cs"}, "11": {"label": "*2", "atom_type": "H0"}}

>  <type>  (12) 
unop_8

>  <geom_source>  (12) 
Heuristics

$$$$

     RDKit          3D

 14 12  0  0  0  0  0  0  0  0999 V2000
    0.0000    3.4927    1.8717 O   0  0  0  0  0  0  0  0  0  0  0  0
    0.0000    2.6192    0.8021 N   0  0  0  0  0  0  0  0  0  0  0  0
    0.0000    1.4139    1.1771 C   0  0  0  0  0  0  0  0  0  0  0  0
    0.0000    4.3559    1.4534 H   0  0  0  0  0  0  0  0  0  0  0  0
    0.0000    1.1259    2.2262 H   0  0  0  0  0  0  0  0  0  0  0  0
   -0.0000   -2.7872   -2.1604 O   0  0  0  0  0  1  0  0  0  0  0  0
   -0.0000   -2.7872   -0.9013 N   0  0  0  0  0  0  0  0  0  0  0  0
   -0.0000   -1.7538   -0.1221 C   0  0  0  0  0  0  0  0  0  0  0  0
   -0.0000   -0.3906   -0.6998 C   0  0  0  0  0  0  0  0  0  0  0  0
   -0.0000   -3.7046   -0.4455 H   0  0  0  0  0  0  0  0  0  0  0  0
   -0.0000   -1.9596    0.9386 H   0  0  0  0  0  0  0  0  0  0  0  0
   -0.0000    0.5141    0.2412 H   0  0  0  0  0  0  0  0  0  0  0  0
    0.8744   -0.2483   -1.3406 H   0  0  0  0  0  0  0  0  0  0  0  0
   -0.8744   -0.2483   -1.3406 H   0  0  0  0  0  0  0  0  0  0  0  0
  1  2  1  0
  1  4  1  0
  2  3  2  3
  3  5  1  0
  3 12  1  0
  6  7  1  0
  7  8  1  0
  7 10  1  0
  8  9  2  3
  8 11  1  0
  9 13  1  0
  9 14  1  0
M  RAD  1   6   2
M  END
>  <reaction>  (13) 
rmg_rxn_15486

>  <mol_properties>  (13) 
{"1": {"label": "*4", "atom_type": "N3d"}, "2": {"label": "*3", "atom_type": "Cd"}, "7": {"label": "*0", "atom_type": "Csc"}, "8": {"label": "*1", "atom_type": "Cs"}, "11": {"label": "*2", "atom_type": "H0"}}

>  <type>  (13) 
unop_9

>  <geom_source>  (13) 
Heuristics

$$$$

     RDKit          3D

 14 12  0  0  0  0  0  0  0  0999 V2000
   -3.6223    0.3485   -0.2397 O   0  0  0  0  0  0  0  0  0  0  0  0
   -2.3919   -0.2685    0.0101 N   0  0  0  0  0  0  0  0  0  0  0  0
   -1.3905    0.4423    0.2076 C   0  0  0  0  0  0  0  0  0  0  0  0
   -4.2446   -0.3836   -0.3524 H   0  0  0  0  0  0  0  0  0  0  0  0
   -1.3243    1.5237    0.2165 H   0  0  0  0  0  0  0  0  0  0  0  0
    2.7263    1.0335    0.2998 O   0  0  0  0  0  1  0  0  0  0  0  0
    2.5260    0.0967   -0.5308 N   0  0  0  0  0  0  0  0  0  0  0  0
    1.6413   -0.8899   -0.3900 C   0  0  0  0  0  0  0  0  0  0  0  0
    0.7757   -0.9557    0.6978 C   0  0  0  0  0  0  0  0  0  0  0  0
    3.1149    0.0950   -1.3720 H   0  0  0  0  0  0  0  0  0  0  0  0
    1.5663   -1.5733   -1.2220 H   0  0  0  0  0  0  0  0  0  0  0  0
   -0.3445   -0.2025    0.4143 H   0  0  0  0  0  0  0  0  0  0  0  0
    0.2748   -1.8927    0.8850 H   0  0  0  0  0  0  0  0  0  0  0  0
    1.0852   -0.3961    1.5716 H   0  0  0  0  0  0  0  0  0  0  0  0
  1  2  1  0
  1  4  1  0
  2  3  2  3
  3  5  1  0
  3 12  1  0
  6  7  1  0
  7  8  1  0
  7 10  1  0
  8  9  2  3
  8 11  1  0
  9 13  1  0
  9 14  1  0
M  RAD  1   6   2
M  END
>  <reaction>  (14) 
rmg_rxn_15486

>  <mol_properties>  (14) 
{"1": {"label": "*4", "atom_type": "N3d"}, "2": {"label": "*3", "atom_type": "Cd"}, "7": {"label": "*0", "atom_type": "Csc"}, "8": {"label": "*1", "atom_type": "Cs"}, "11": {"label": "*2", "atom_type": "H0"}}

>  <type>  (14) 
unop_10

>  <geom_source>  (14) 
Heuristics

$$$$

     RDKit          3D

 14 12  0  0  0  0  0  0  0  0999 V2000
   -0.8114    3.3310    1.7080 O   0  0  0  0  0  0  0  0  0  0  0  0
   -0.7841    1.9668    1.4952 N   0  0  0  0  0  0  0  0  0  0  0  0
    0.3447    1.5752    1.0878 C   0  0  0  0  0  0  0  0  0  0  0  0
   -1.7080    3.4908    2.0089 H   0  0  0  0  0  0  0  0  0  0  0  0
    1.1801    2.2545    0.9315 H   0  0  0  0  0  0  0  0  0  0  0  0
    0.3447   -2.6259   -2.2497 O   0  0  0  0  0  1  0  0  0  0  0  0
    0.3447   -2.6259   -0.9906 N   0  0  0  0  0  0  0  0  0  0  0  0
    0.3447   -1.5925   -0.2114 C   0  0  0  0  0  0  0  0  0  0  0  0
    0.3447   -0.2293   -0.7891 C   0  0  0  0  0  0  0  0  0  0  0  0
    0.3447   -3.5433   -0.5347 H   0  0  0  0  0  0  0  0  0  0  0  0
    0.3447   -1.7983    0.8493 H   0  0  0  0  0  0  0  0  0  0  0  0
    0.3447    0.6754    0.1520 H   0  0  0  0  0  0  0  0  0  0  0  0
    1.2192   -0.0870   -1.4298 H   0  0  0  0  0  0  0  0  0  0  0  0
   -0.5297   -0.0870   -1.4298 H   0  0  0  0  0  0  0  0  0  0  0  0
  1  2  1  0
  1  4  1  0
  2  3  2  3
  3  5  1  0
  3 12  1  0
  6  7  1  0
  7  8  1  0
  7 10  1  0
  8  9  2  3
  8 11  1  0
  9 13  1  0
  9 14  1  0
M  RAD  1   6   2
M  END
>  <reaction>  (15) 
rmg_rxn_15486

>  <mol_properties>  (15) 
{"1": {"label": "*4", "atom_type": "N3d"}, "2": {"label": "*3", "atom_type": "Cd"}, "7": {"label": "*0", "atom_type": "Csc"}, "8": {"label": "*1", "atom_type": "Cs"}, "11": {"label": "*2", "atom_type": "H0"}}

>  <type>  (15) 
unop_11

>  <geom_source>  (15) 
Heuristics

$$$$

     RDKit          3D

 14 12  0  0  0  0  0  0  0  0999 V2000
   -3.6195    0.3491   -0.2421 O   0  0  0  0  0  0  0  0  0  0  0  0
   -2.3886   -0.2685    0.0041 N   0  0  0  0  0  0  0  0  0  0  0  0
   -1.3906    0.4416    0.2204 C   0  0  0  0  0  0  0  0  0  0  0  0
   -4.2388   -0.3829   -0.3718 H   0  0  0  0  0  0  0  0  0  0  0  0
   -1.3273    1.5227    0.2490 H   0  0  0  0  0  0  0  0  0  0  0  0
    2.7249    1.0339    0.2966 O   0  0  0  0  0  1  0  0  0  0  0  0
    2.5220    0.0976   -0.5338 N   0  0  0  0  0  0  0  0  0  0  0  0
    1.6386   -0.8898   -0.3901 C   0  0  0  0  0  0  0  0  0  0  0  0
    0.7774   -0.9569    0.7011 C   0  0  0  0  0  0  0  0  0  0  0  0
    3.1077    0.0966   -1.3772 H   0  0  0  0  0  0  0  0  0  0  0  0
    1.5609   -1.5730   -1.2221 H   0  0  0  0  0  0  0  0  0  0  0  0
   -0.3439   -0.2039    0.4228 H   0  0  0  0  0  0  0  0  0  0  0  0
    0.2783   -1.8947    0.8896 H   0  0  0  0  0  0  0  0  0  0  0  0
    1.0909   -0.3984    1.5743 H   0  0  0  0  0  0  0  0  0  0  0  0
  1  2  1  0
  1  4  1  0
  2  3  2  3
  3  5  1  0
  3 12  1  0
  6  7  1  0
  7  8  1  0
  7 10  1  0
  8  9  2  3
  8 11  1  0
  9 13  1  0
  9 14  1  0
M  RAD  1   6   2
M  END
>  <reaction>  (16) 
rmg_rxn_15486

>  <mol_properties>  (16) 
{"1": {"label": "*4", "atom_type": "N3d"}, "2": {"label": "*3", "atom_type": "Cd"}, "7": {"label": "*0", "atom_type": "Csc"}, "8": {"label": "*1", "atom_type": "Cs"}, "11": {"label": "*2", "atom_type": "H0"}}

>  <type>  (16) 
unop_12

>  <geom_source>  (16) 
Heuristics

$$$$

     RDKit          3D

 14 12  0  0  0  0  0  0  0  0999 V2000
   -0.3519    3.5625    1.4548 O   0  0  0  0  0  0  0  0  0  0  0  0
   -0.7513    2.2620    1.2177 N   0  0  0  0  0  0  0  0  0  0  0  0
    0.2262    1.4635    1.2015 C   0  0  0  0  0  0  0  0  0  0  0  0
   -1.1756    4.0537    1.4412 H   0  0  0  0  0  0  0  0  0  0  0  0
    1.2523    1.7891    1.3588 H   0  0  0  0  0  0  0  0  0  0  0  0
    0.2262   -2.7376   -2.1360 O   0  0  0  0  0  1  0  0  0  0  0  0
    0.2262   -2.7376   -0.8769 N   0  0  0  0  0  0  0  0  0  0  0  0
    0.2262   -1.7042   -0.0977 C   0  0  0  0  0  0  0  0  0  0  0  0
    0.2262   -0.3410   -0.6754 C   0  0  0  0  0  0  0  0  0  0  0  0
    0.2262   -3.6550   -0.4210 H   0  0  0  0  0  0  0  0  0  0  0  0
    0.2262   -1.9100    0.9630 H   0  0  0  0  0  0  0  0  0  0  0  0
    0.2262    0.5638    0.2657 H   0  0  0  0  0  0  0  0  0  0  0  0
    1.1007   -0.1987   -1.3161 H   0  0  0  0  0  0  0  0  0  0  0  0
   -0.6482   -0.1987   -1.3161 H   0  0  0  0  0  0  0  0  0  0  0  0
  1  2  1  0
  1  4  1  0
  2  3  2  3
  3  5  1  0
  3 12  1  0
  6  7  1  0
  7  8  1  0
  7 10  1  0
  8  9  2  3
  8 11  1  0
  9 13  1  0
  9 14  1  0
M  RAD  1   6   2
M  END
>  <reaction>  (17) 
rmg_rxn_15486

>  <mol_properties>  (17) 
{"1": {"label": "*4", "atom_type": "N3d"}, "2": {"label": "*3", "atom_type": "Cd"}, "7": {"label": "*0", "atom_type": "Csc"}, "8": {"label": "*1", "atom_type": "Cs"}, "11": {"label": "*2", "atom_type": "H0"}}

>  <type>  (17) 
unop_13

>  <geom_source>  (17) 
Heuristics

$$$$

     RDKit          3D

 14 12  0  0  0  0  0  0  0  0999 V2000
    0.8114    3.3310    1.7080 O   0  0  0  0  0  0  0  0  0  0  0  0
    0.7841    1.9668    1.4951 N   0  0  0  0  0  0  0  0  0  0  0  0
   -0.3447    1.5752    1.0878 C   0  0  0  0  0  0  0  0  0  0  0  0
    1.7080    3.4908    2.0089 H   0  0  0  0  0  0  0  0  0  0  0  0
   -1.1801    2.2545    0.9315 H   0  0  0  0  0  0  0  0  0  0  0  0
   -0.3447   -2.6259   -2.2497 O   0  0  0  0  0  1  0  0  0  0  0  0
   -0.3447   -2.6259   -0.9906 N   0  0  0  0  0  0  0  0  0  0  0  0
   -0.3447   -1.5925   -0.2114 C   0  0  0  0  0  0  0  0  0  0  0  0
   -0.3447   -0.2293   -0.7891 C   0  0  0  0  0  0  0  0  0  0  0  0
   -0.3447   -3.5433   -0.5347 H   0  0  0  0  0  0  0  0  0  0  0  0
   -0.3447   -1.7983    0.8493 H   0  0  0  0  0  0  0  0  0  0  0  0
   -0.3447    0.6754    0.1520 H   0  0  0  0  0  0  0  0  0  0  0  0
    0.5297   -0.0870   -1.4298 H   0  0  0  0  0  0  0  0  0  0  0  0
   -1.2192   -0.0870   -1.4298 H   0  0  0  0  0  0  0  0  0  0  0  0
  1  2  1  0
  1  4  1  0
  2  3  2  3
  3  5  1  0
  3 12  1  0
  6  7  1  0
  7  8  1  0
  7 10  1  0
  8  9  2  3
  8 11  1  0
  9 13  1  0
  9 14  1  0
M  RAD  1   6   2
M  END
>  <reaction>  (18) 
rmg_rxn_15486

>  <mol_properties>  (18) 
{"1": {"label": "*4", "atom_type": "N3d"}, "2": {"label": "*3", "atom_type": "Cd"}, "7": {"label": "*0", "atom_type": "Csc"}, "8": {"label": "*1", "atom_type": "Cs"}, "11": {"label": "*2", "atom_type": "H0"}}

>  <type>  (18) 
unop_14

>  <geom_source>  (18) 
Heuristics

$$$$

     RDKit          3D

 14 12  0  0  0  0  0  0  0  0999 V2000
   -3.6222    0.3475    0.2407 O   0  0  0  0  0  0  0  0  0  0  0  0
   -2.3910   -0.2680   -0.0088 N   0  0  0  0  0  0  0  0  0  0  0  0
   -1.3912    0.4438   -0.2108 C   0  0  0  0  0  0  0  0  0  0  0  0
   -4.2428   -0.3856    0.3573 H   0  0  0  0  0  0  0  0  0  0  0  0
   -1.3265    1.5253   -0.2239 H   0  0  0  0  0  0  0  0  0  0  0  0
    2.7280    1.0326   -0.2981 O   0  0  0  0  0  1  0  0  0  0  0  0
    2.5255    0.0957    0.5318 N   0  0  0  0  0  0  0  0  0  0  0  0
    1.6397   -0.8898    0.3894 C   0  0  0  0  0  0  0  0  0  0  0  0
    0.7754   -0.9541   -0.6995 C   0  0  0  0  0  0  0  0  0  0  0  0
    3.1135    0.0925    1.3735 H   0  0  0  0  0  0  0  0  0  0  0  0
    1.5631   -1.5739    1.2206 H   0  0  0  0  0  0  0  0  0  0  0  0
   -0.3446   -0.2006   -0.4165 H   0  0  0  0  0  0  0  0  0  0  0  0
    1.0869   -0.3946   -1.5727 H   0  0  0  0  0  0  0  0  0  0  0  0
    0.2741   -1.8907   -0.8879 H   0  0  0  0  0  0  0  0  0  0  0  0
  1  2  1  0
  1  4  1  0
  2  3  2  3
  3  5  1  0
  3 12  1  0
  6  7  1  0
  7  8  1  0
  7 10  1  0
  8  9  2  3
  8 11  1  0
  9 13  1  0
  9 14  1  0
M  RAD  1   6   2
M  END
>  <reaction>  (19) 
rmg_rxn_15486

>  <mol_properties>  (19) 
{"1": {"label": "*4", "atom_type": "N3d"}, "2": {"label": "*3", "atom_type": "Cd"}, "7": {"label": "*0", "atom_type": "Csc"}, "8": {"label": "*1", "atom_type": "Cs"}, "11": {"label": "*2", "atom_type": "H0"}}

>  <type>  (19) 
unop_15

>  <geom_source>  (19) 
Heuristics

$$$$

     RDKit          3D

 14 12  0  0  0  0  0  0  0  0999 V2000
   -0.6422    2.6277    2.6397 O   0  0  0  0  0  0  0  0  0  0  0  0
   -0.3433    1.5179    1.8741 N   0  0  0  0  0  0  0  0  0  0  0  0
    0.2211    1.8310    0.7892 C   0  0  0  0  0  0  0  0  0  0  0  0
   -1.0586    2.2542    3.4189 H   0  0  0  0  0  0  0  0  0  0  0  0
    0.4347    2.8619    0.5153 H   0  0  0  0  0  0  0  0  0  0  0  0
    0.2211   -2.3701   -2.5483 O   0  0  0  0  0  1  0  0  0  0  0  0
    0.2211   -2.3701   -1.2892 N   0  0  0  0  0  0  0  0  0  0  0  0
    0.2211   -1.3367   -0.5100 C   0  0  0  0  0  0  0  0  0  0  0  0
    0.2211    0.0265   -1.0877 C   0  0  0  0  0  0  0  0  0  0  0  0
    0.2211   -3.2875   -0.8333 H   0  0  0  0  0  0  0  0  0  0  0  0
    0.2211   -1.5425    0.5507 H   0  0  0  0  0  0  0  0  0  0  0  0
    0.2211    0.9312   -0.1466 H   0  0  0  0  0  0  0  0  0  0  0  0
    1.0955    0.1688   -1.7284 H   0  0  0  0  0  0  0  0  0  0  0  0
   -0.6533    0.1688   -1.7284 H   0  0  0  0  0  0  0  0  0  0  0  0
  1  2  1  0
  1  4  1  0
  2  3  2  3
  3  5  1  0
  3 12  1  0
  6  7  1  0
  7  8  1  0
  7 10  1  0
  8  9  2  3
  8 11  1  0
  9 13  1  0
  9 14  1  0
M  RAD  1   6   2
M  END
>  <reaction>  (20) 
rmg_rxn_15486

>  <mol_properties>  (20) 
{"1": {"label": "*4", "atom_type": "N3d"}, "2": {"label": "*3", "atom_type": "Cd"}, "7": {"label": "*0", "atom_type": "Csc"}, "8": {"label": "*1", "atom_type": "Cs"}, "11": {"label": "*2", "atom_type": "H0"}}

>  <type>  (20) 
unop_16

>  <geom_source>  (20) 
Heuristics

$$$$

     RDKit          3D

 14 12  0  0  0  0  0  0  0  0999 V2000
    0.9471    2.9653    2.1784 O   0  0  0  0  0  0  0  0  0  0  0  0
    0.6286    1.6993    1.7278 N   0  0  0  0  0  0  0  0  0  0  0  0
   -0.3489    1.7145    0.9293 C   0  0  0  0  0  0  0  0  0  0  0  0
    1.6907    2.8118    2.7645 H   0  0  0  0  0  0  0  0  0  0  0  0
   -0.8615    2.6317    0.6469 H   0  0  0  0  0  0  0  0  0  0  0  0
   -0.3489   -2.4866   -2.4082 O   0  0  0  0  0  1  0  0  0  0  0  0
   -0.3489   -2.4866   -1.1490 N   0  0  0  0  0  0  0  0  0  0  0  0
   -0.3489   -1.4532   -0.3698 C   0  0  0  0  0  0  0  0  0  0  0  0
   -0.3489   -0.0899   -0.9476 C   0  0  0  0  0  0  0  0  0  0  0  0
   -0.3489   -3.4040   -0.6932 H   0  0  0  0  0  0  0  0  0  0  0  0
   -0.3489   -1.6590    0.6908 H   0  0  0  0  0  0  0  0  0  0  0  0
   -0.3489    0.8148   -0.0065 H   0  0  0  0  0  0  0  0  0  0  0  0
    0.5255    0.0524   -1.5883 H   0  0  0  0  0  0  0  0  0  0  0  0
   -1.2234    0.0524   -1.5883 H   0  0  0  0  0  0  0  0  0  0  0  0
  1  2  1  0
  1  4  1  0
  2  3  2  3
  3  5  1  0
  3 12  1  0
  6  7  1  0
  7  8  1  0
  7 10  1  0
  8  9  2  3
  8 11  1  0
  9 13  1  0
  9 14  1  0
M  RAD  1   6   2
M  END
>  <reaction>  (21) 
rmg_rxn_15486

>  <mol_properties>  (21) 
{"1": {"label": "*4", "atom_type": "N3d"}, "2": {"label": "*3", "atom_type": "Cd"}, "7": {"label": "*0", "atom_type": "Csc"}, "8": {"label": "*1", "atom_type": "Cs"}, "11": {"label": "*2", "atom_type": "H0"}}

>  <type>  (21) 
unop_17

>  <geom_source>  (21) 
Heuristics

$$$$

     RDKit          3D

 14 12  0  0  0  0  0  0  0  0999 V2000
    0.1132    3.5754    1.5811 O   0  0  0  0  0  0  0  0  0  0  0  0
   -0.4990    2.5103    0.9503 N   0  0  0  0  0  0  0  0  0  0  0  0
    0.0654    1.4140    1.2205 C   0  0  0  0  0  0  0  0  0  0  0  0
   -0.4050    4.3303    1.2953 H   0  0  0  0  0  0  0  0  0  0  0  0
    0.9308    1.3456    1.8763 H   0  0  0  0  0  0  0  0  0  0  0  0
    0.0654   -2.7871   -2.1170 O   0  0  0  0  0  1  0  0  0  0  0  0
    0.0654   -2.7871   -0.8579 N   0  0  0  0  0  0  0  0  0  0  0  0
    0.0654   -1.7537   -0.0787 C   0  0  0  0  0  0  0  0  0  0  0  0
    0.0654   -0.3905   -0.6564 C   0  0  0  0  0  0  0  0  0  0  0  0
    0.0654   -3.7045   -0.4020 H   0  0  0  0  0  0  0  0  0  0  0  0
    0.0654   -1.9595    0.9820 H   0  0  0  0  0  0  0  0  0  0  0  0
    0.0654    0.5142    0.2846 H   0  0  0  0  0  0  0  0  0  0  0  0
    0.9398   -0.2482   -1.2971 H   0  0  0  0  0  0  0  0  0  0  0  0
   -0.8090   -0.2482   -1.2971 H   0  0  0  0  0  0  0  0  0  0  0  0
  1  2  1  0
  1  4  1  0
  2  3  2  3
  3  5  1  0
  3 12  1  0
  6  7  1  0
  7  8  1  0
  7 10  1  0
  8  9  2  3
  8 11  1  0
  9 13  1  0
  9 14  1  0
M  RAD  1   6   2
M  END
>  <reaction>  (22) 
rmg_rxn_15486

>  <mol_properties>  (22) 
{"1": {"label": "*4", "atom_type": "N3d"}, "2": {"label": "*3", "atom_type": "Cd"}, "7": {"label": "*0", "atom_type": "Csc"}, "8": {"label": "*1", "atom_type": "Cs"}, "11": {"label": "*2", "atom_type": "H0"}}

>  <type>  (22) 
unop_18

>  <geom_source>  (22) 
Heuristics

$$$$

     RDKit          3D

 14 12  0  0  0  0  0  0  0  0999 V2000
    0.0000    2.4890    2.8367 O   0  0  0  0  0  0  0  0  0  0  0  0
    0.0000    1.4546    1.9218 N   0  0  0  0  0  0  0  0  0  0  0  0
    0.0000    1.8767    0.7321 C   0  0  0  0  0  0  0  0  0  0  0  0
    0.0000    2.0371    3.6828 H   0  0  0  0  0  0  0  0  0  0  0  0
    0.0000    2.9363    0.4856 H   0  0  0  0  0  0  0  0  0  0  0  0
   -0.0000   -2.3244   -2.6054 O   0  0  0  0  0  1  0  0  0  0  0  0
   -0.0000   -2.3244   -1.3463 N   0  0  0  0  0  0  0  0  0  0  0  0
   -0.0000   -1.2910   -0.5670 C   0  0  0  0  0  0  0  0  0  0  0  0
   -0.0000    0.0722   -1.1448 C   0  0  0  0  0  0  0  0  0  0  0  0
   -0.0000   -3.2418   -0.8904 H   0  0  0  0  0  0  0  0  0  0  0  0
   -0.0000   -1.4968    0.4936 H   0  0  0  0  0  0  0  0  0  0  0  0
   -0.0000    0.9769   -0.2037 H   0  0  0  0  0  0  0  0  0  0  0  0
    0.8744    0.2145   -1.7855 H   0  0  0  0  0  0  0  0  0  0  0  0
   -0.8744    0.2145   -1.7855 H   0  0  0  0  0  0  0  0  0  0  0  0
  1  2  1  0
  1  4  1  0
  2  3  2  3
  3  5  1  0
  3 12  1  0
  6  7  1  0
  7  8  1  0
  7 10  1  0
  8  9  2  3
  8 11  1  0
  9 13  1  0
  9 14  1  0
M  RAD  1   6   2
M  END
>  <reaction>  (23) 
rmg_rxn_15486

>  <mol_properties>  (23) 
{"1": {"label": "*4", "atom_type": "N3d"}, "2": {"label": "*3", "atom_type": "Cd"}, "7": {"label": "*0", "atom_type": "Csc"}, "8": {"label": "*1", "atom_type": "Cs"}, "11": {"label": "*2", "atom_type": "H0"}}

>  <type>  (23) 
unop_19

>  <geom_source>  (23) 
Heuristics

$$$$

     RDKit          3D

 14 12  0  0  0  0  0  0  0  0999 V2000
   -3.6125   -0.0601   -0.9568 O   0  0  0  0  0  0  0  0  0  0  0  0
    1.0217   -2.2803    0.0452 O   0  0  0  0  0  1  0  0  0  0  0  0
    1.9975   -1.5695    0.7067 N   0  0  0  0  0  0  0  0  0  0  0  0
   -2.3208   -0.2522   -0.5144 N   0  0  0  0  0  0  0  0  0  0  0  0
    2.0324   -0.2736    0.6653 C   0  0  0  0  0  0  0  0  0  0  0  0
    1.0147    0.5102   -0.0989 C   0  0  0  0  0  0  0  0  0  0  0  0
   -1.5661    0.7390   -0.1637 C   0  0  0  0  0  0  0  0  0  0  0  0
    2.8080    0.2578    1.2039 H   0  0  0  0  0  0  0  0  0  0  0  0
    2.7200   -2.0889    1.2531 H   0  0  0  0  0  0  0  0  0  0  0  0
    1.0883    0.2708   -1.1805 H   0  0  0  0  0  0  0  0  0  0  0  0
    1.1855    1.5974    0.0461 H   0  0  0  0  0  0  0  0  0  0  0  0
   -1.9306    1.7575   -0.2080 H   0  0  0  0  0  0  0  0  0  0  0  0
   -0.4197    0.5252    0.2254 H   0  0  0  0  0  0  0  0  0  0  0  0
   -4.0184    0.8669   -1.0235 H   0  0  0  0  0  0  0  0  0  0  0  0
  1  4  1  0
  1 14  1  0
  2  3  1  0
  3  5  1  0
  3  9  1  0
  4  7  2  3
  5  6  2  3
  5  8  1  0
  6 10  1  0
  6 11  1  0
  7 12  1  0
  7 13  1  0
M  RAD  1   2   2
M  END
>  <reaction>  (24) 
rmg_rxn_15486

>  <mol_properties>  (24) 
{"1": {"label": "*4", "atom_type": "N3d"}, "2": {"label": "*3", "atom_type": "Cd"}, "7": {"label": "*0", "atom_type": "Csc"}, "8": {"label": "*1", "atom_type": "Cs"}, "11": {"label": "*2", "atom_type": "H0"}}

>  <type>  (24) 
unop_20

>  <geom_source>  (24) 
AutoTST

$$$$

     RDKit          3D

 14 12  0  0  0  0  0  0  0  0999 V2000
    0.6422    2.6277    2.6397 O   0  0  0  0  0  0  0  0  0  0  0  0
    0.3433    1.5179    1.8741 N   0  0  0  0  0  0  0  0  0  0  0  0
   -0.2211    1.8310    0.7892 C   0  0  0  0  0  0  0  0  0  0  0  0
    1.0587    2.2542    3.4189 H   0  0  0  0  0  0  0  0  0  0  0  0
   -0.4348    2.8619    0.5153 H   0  0  0  0  0  0  0  0  0  0  0  0
   -0.2211   -2.3701   -2.5483 O   0  0  0  0  0  1  0  0  0  0  0  0
   -0.2211   -2.3701   -1.2892 N   0  0  0  0  0  0  0  0  0  0  0  0
   -0.2211   -1.3368   -0.5100 C   0  0  0  0  0  0  0  0  0  0  0  0
   -0.2211    0.0265   -1.0877 C   0  0  0  0  0  0  0  0  0  0  0  0
   -0.2211   -3.2875   -0.8333 H   0  0  0  0  0  0  0  0  0  0  0  0
   -0.2211   -1.5425    0.5507 H   0  0  0  0  0  0  0  0  0  0  0  0
   -0.2211    0.9312   -0.1466 H   0  0  0  0  0  0  0  0  0  0  0  0
    0.6533    0.1688   -1.7284 H   0  0  0  0  0  0  0  0  0  0  0  0
   -1.0955    0.1688   -1.7284 H   0  0  0  0  0  0  0  0  0  0  0  0
  1  2  1  0
  1  4  1  0
  2  3  2  3
  3  5  1  0
  3 12  1  0
  6  7  1  0
  7  8  1  0
  7 10  1  0
  8  9  2  3
  8 11  1  0
  9 13  1  0
  9 14  1  0
M  RAD  1   6   2
M  END
>  <reaction>  (25) 
rmg_rxn_15486

>  <mol_properties>  (25) 
{"1": {"label": "*4", "atom_type": "N3d"}, "2": {"label": "*3", "atom_type": "Cd"}, "7": {"label": "*0", "atom_type": "Csc"}, "8": {"label": "*1", "atom_type": "Cs"}, "11": {"label": "*2", "atom_type": "H0"}}

>  <type>  (25) 
unop_21

>  <geom_source>  (25) 
gaussian_log

$$$$
