
     RDKit          3D

  9  8  0  0  0  0  0  0  0  0999 V2000
   -1.0434   -0.0834    0.0221 C   0  0  0  0  0  0  0  0  0  0  0  0
    0.4680   -0.2131    0.0785 C   0  0  0  0  0  0  0  0  0  0  0  0
    0.9450   -1.3136   -0.7058 N   0  0  0  0  0  2  0  0  0  0  0  0
   -1.5170   -0.9919    0.3960 H   0  0  0  0  0  0  0  0  0  0  0  0
   -1.3864    0.7592    0.6249 H   0  0  0  0  0  0  0  0  0  0  0  0
   -1.3736    0.0696   -1.0061 H   0  0  0  0  0  0  0  0  0  0  0  0
    0.8045   -0.3309    1.1214 H   0  0  0  0  0  0  0  0  0  0  0  0
    0.9463    0.7186   -0.2648 H   0  0  0  0  0  0  0  0  0  0  0  0
    1.9638   -1.3321   -0.6157 H   0  0  0  0  0  0  0  0  0  0  0  0
  1  2  1  0
  1  4  1  0
  1  5  1  0
  1  6  1  0
  2  3  1  0
  2  7  1  0
  2  8  1  0
  3  9  1  0
M  RAD  1   3   2
M  END
>  <reaction>  (1) 
rmg_rxn_676

>  <mol_properties>  (1) 
{"2": {"label": "donator", "atom_type": "N3s"}, "8": {"label": "d_hydrogen", "atom_type": "H0"}}

>  <type>  (1) 
r1h

$$$$

     RDKit          3D

 14 13  0  0  0  0  0  0  0  0999 V2000
    2.7687   -0.0362   -0.0732 C   0  0  0  0  0  3  0  0  0  0  0  0
    1.6543    0.2105    0.6386 O   0  0  0  0  0  0  0  0  0  0  0  0
    1.8652    0.6968    1.9544 C   0  0  0  0  0  0  0  0  0  0  0  0
    0.5252    0.9355    2.6156 C   0  0  0  0  0  0  0  0  0  0  0  0
   -0.2992    2.0181    1.9317 C   0  0  0  0  0  0  0  0  0  0  0  0
    2.5851   -0.4757   -1.0422 H   0  0  0  0  0  0  0  0  0  0  0  0
    3.6974   -0.2083    0.4611 H   0  0  0  0  0  0  0  0  0  0  0  0
    2.4441    1.6271    1.9039 H   0  0  0  0  0  0  0  0  0  0  0  0
    2.4506   -0.0397    2.5179 H   0  0  0  0  0  0  0  0  0  0  0  0
    0.7150    1.2089    3.6572 H   0  0  0  0  0  0  0  0  0  0  0  0
   -0.0287   -0.0066    2.6327 H   0  0  0  0  0  0  0  0  0  0  0  0
   -0.5056    1.7522    0.8949 H   0  0  0  0  0  0  0  0  0  0  0  0
   -1.2524    2.1635    2.4416 H   0  0  0  0  0  0  0  0  0  0  0  0
    0.2319    2.9729    1.9340 H   0  0  0  0  0  0  0  0  0  0  0  0
  1  2  1  0
  1  6  1  0
  1  7  1  0
  2  3  1  0
  3  4  1  0
  3  8  1  0
  3  9  1  0
  4  5  1  0
  4 10  1  0
  4 11  1  0
  5 12  1  0
  5 13  1  0
  5 14  1  0
M  RAD  1   1   2
M  END
>  <reaction>  (2) 
rmg_rxn_676

>  <mol_properties>  (2) 
{"0": {"label": "acceptor", "atom_type": "Cs"}}

>  <type>  (2) 
r2

$$$$

     RDKit          3D

 15 14  0  0  0  0  0  0  0  0999 V2000
   -1.2811   -0.4129    1.0228 C   0  0  0  0  0  0  0  0  0  0  0  0
   -1.0023   -0.5809   -0.4650 C   0  0  0  0  0  0  0  0  0  0  0  0
   -2.0576    0.0568   -1.3449 C   0  0  0  0  0  0  0  0  0  0  0  0
   -2.0663    1.4464   -1.1307 O   0  0  0  0  0  0  0  0  0  0  0  0
   -3.0424    2.1072   -1.8849 C   0  0  0  0  0  0  0  0  0  0  0  0
   -2.2382   -0.8657    1.2935 H   0  0  0  0  0  0  0  0  0  0  0  0
   -1.3219    0.6426    1.2914 H   0  0  0  0  0  0  0  0  0  0  0  0
   -0.5042   -0.8881    1.6236 H   0  0  0  0  0  0  0  0  0  0  0  0
   -0.0316   -0.1460   -0.7167 H   0  0  0  0  0  0  0  0  0  0  0  0
   -0.9494   -1.6429   -0.7203 H   0  0  0  0  0  0  0  0  0  0  0  0
   -1.8518   -0.1570   -2.4041 H   0  0  0  0  0  0  0  0  0  0  0  0
   -3.0491   -0.3636   -1.1124 H   0  0  0  0  0  0  0  0  0  0  0  0
   -4.0521    1.7545   -1.6343 H   0  0  0  0  0  0  0  0  0  0  0  0
   -2.8850    1.9634   -2.9626 H   0  0  0  0  0  0  0  0  0  0  0  0
   -2.9730    3.1700   -1.6570 H   0  0  0  0  0  0  0  0  0  0  0  0
  1  2  1  0
  1  6  1  0
  1  7  1  0
  1  8  1  0
  2  3  1  0
  2  9  1  0
  2 10  1  0
  3  4  1  0
  3 11  1  0
  3 12  1  0
  4  5  1  0
  5 13  1  0
  5 14  1  0
  5 15  1  0
M  END
>  <reaction>  (3) 
rmg_rxn_676

>  <mol_properties>  (3) 
{"0": {"label": "a_hydrogen", "atom_type": "H0"}, "1": {"label": "acceptor", "atom_type": "Cs"}}

>  <type>  (3) 
r2h

$$$$

     RDKit          3D

 23 21  0  0  0  0  0  0  0  0999 V2000
   -1.0028   -1.9491   -2.8926 C   0  0  0  0  0  0  0  0  0  0  0  0
   -0.9684   -0.6616   -2.0796 C   0  0  0  0  0  0  0  0  0  0  0  0
   -2.0739   -0.5617   -1.1821 N   0  0  0  0  0  2  0  0  0  0  0  0
   -1.9275   -2.0148   -3.4668 H   0  0  0  0  0  0  0  0  0  0  0  0
   -0.1600   -1.9906   -3.5850 H   0  0  0  0  0  0  0  0  0  0  0  0
   -0.9510   -2.8178   -2.2350 H   0  0  0  0  0  0  0  0  0  0  0  0
   -0.9871    0.2120   -2.7521 H   0  0  0  0  0  0  0  0  0  0  0  0
   -0.0178   -0.5718   -1.5306 H   0  0  0  0  0  0  0  0  0  0  0  0
   -1.8070    0.4186   -0.4801 H   0  0  0  0  0  0  0  0  0  0  0  0
   -1.2519    1.4696    0.2352 C   0  0  0  0  0  3  0  0  0  0  0  0
    0.0608    1.1770    0.4869 O   0  0  0  0  0  0  0  0  0  0  0  0
    0.2485    0.1343    1.4277 C   0  0  0  0  0  0  0  0  0  0  0  0
    1.7302   -0.1195    1.5994 C   0  0  0  0  0  0  0  0  0  0  0  0
    2.4842    1.0752    2.1679 C   0  0  0  0  0  0  0  0  0  0  0  0
   -1.8869    1.5171    1.1258 H   0  0  0  0  0  0  0  0  0  0  0  0
   -1.3283    2.3403   -0.4115 H   0  0  0  0  0  0  0  0  0  0  0  0
   -0.2630   -0.7689    1.0738 H   0  0  0  0  0  0  0  0  0  0  0  0
   -0.2086    0.4247    2.3840 H   0  0  0  0  0  0  0  0  0  0  0  0
    2.1497   -0.4036    0.6307 H   0  0  0  0  0  0  0  0  0  0  0  0
    1.8439   -0.9849    2.2577 H   0  0  0  0  0  0  0  0  0  0  0  0
    3.5449    0.8490    2.2836 H   0  0  0  0  0  0  0  0  0  0  0  0
    2.3912    1.9412    1.5124 H   0  0  0  0  0  0  0  0  0  0  0  0
    2.0917    1.3529    3.1491 H   0  0  0  0  0  0  0  0  0  0  0  0
  1  2  1  0
  1  4  1  0
  1  5  1  0
  1  6  1  0
  2  3  1  0
  2  7  1  0
  2  8  1  0
  3  9  1  0
 10 11  1  0
 10 15  1  0
 10 16  1  0
 11 12  1  0
 12 13  1  0
 12 17  1  0
 12 18  1  0
 13 14  1  0
 13 19  1  0
 13 20  1  0
 14 21  1  0
 14 22  1  0
 14 23  1  0
M  RAD  2   3   2  10   2
M  END
>  <reaction>  (4) 
rmg_rxn_676

>  <mol_properties>  (4) 
{"1": {"label": "*0", "atom_type": "Cs"}, "2": {"label": "*1", "atom_type": "N3s"}, "8": {"label": "*2", "atom_type": "H0"}, "9": {"label": "*3", "atom_type": "Cs"}, "10": {"label": "*4", "atom_type": "O2s"}}

>  <type>  (4) 
ts

$$$$

     RDKit          3D

 23 21  0  0  0  0  0  0  0  0999 V2000
   -0.8709   -1.7375   -3.9857 C   0  0  0  0  0  0  0  0  0  0  0  0
   -0.8709   -1.7375   -2.4677 C   0  0  0  0  0  0  0  0  0  0  0  0
   -0.8709   -0.4099   -1.9280 N   0  0  0  0  0  2  0  0  0  0  0  0
    0.0113   -1.2210   -4.3658 H   0  0  0  0  0  0  0  0  0  0  0  0
   -0.8709   -2.7564   -4.3768 H   0  0  0  0  0  0  0  0  0  0  0  0
   -1.7532   -1.2210   -4.3658 H   0  0  0  0  0  0  0  0  0  0  0  0
    0.0013   -2.2912   -2.0838 H   0  0  0  0  0  0  0  0  0  0  0  0
   -1.7432   -2.2912   -2.0838 H   0  0  0  0  0  0  0  0  0  0  0  0
   -0.8709   -0.5135   -0.7048 H   0  0  0  0  0  0  0  0  0  0  0  0
   -0.8709   -0.6237    0.5976 C   0  0  0  0  0  3  0  0  0  0  0  0
    0.2837    0.0047    1.0772 O   0  0  0  0  0  0  0  0  0  0  0  0
    0.0664    0.7069    2.2759 C   0  0  0  0  0  0  0  0  0  0  0  0
    1.3524    1.3850    2.7014 C   0  0  0  0  0  0  0  0  0  0  0  0
    1.8318    2.4367    1.7097 C   0  0  0  0  0  0  0  0  0  0  0  0
   -1.2592   -1.3572    1.3174 H   0  0  0  0  0  0  0  0  0  0  0  0
   -1.6662    0.1035    0.3844 H   0  0  0  0  0  0  0  0  0  0  0  0
   -0.2768    0.0139    3.0582 H   0  0  0  0  0  0  0  0  0  0  0  0
   -0.7274    1.4569    2.1312 H   0  0  0  0  0  0  0  0  0  0  0  0
    2.1202    0.6190    2.8371 H   0  0  0  0  0  0  0  0  0  0  0  0
    1.1832    1.8410    3.6809 H   0  0  0  0  0  0  0  0  0  0  0  0
    2.7556    2.9059    2.0514 H   0  0  0  0  0  0  0  0  0  0  0  0
    2.0174    1.9904    0.7328 H   0  0  0  0  0  0  0  0  0  0  0  0
    1.0834    3.2229    1.5832 H   0  0  0  0  0  0  0  0  0  0  0  0
  1  2  1  0
  1  4  1  0
  1  5  1  0
  1  6  1  0
  2  3  1  0
  2  7  1  0
  2  8  1  0
  3  9  1  0
 10 11  1  0
 10 15  1  0
 10 16  1  0
 11 12  1  0
 12 13  1  0
 12 17  1  0
 12 18  1  0
 13 14  1  0
 13 19  1  0
 13 20  1  0
 14 21  1  0
 14 22  1  0
 14 23  1  0
M  RAD  2   3   2  10   2
M  END
>  <reaction>  (5) 
rmg_rxn_676

>  <mol_properties>  (5) 
{"1": {"label": "*0", "atom_type": "Cs"}, "2": {"label": "*1", "atom_type": "N3s"}, "8": {"label": "*2", "atom_type": "H0"}, "9": {"label": "*3", "atom_type": "Cs"}, "10": {"label": "*4", "atom_type": "O2s"}}

>  <type>  (5) 
unop_1

>  <geom_source>  (5) 
Heuristics

$$$$

     RDKit          3D

 23 21  0  0  0  0  0  0  0  0999 V2000
   -0.8404    0.0873   -3.9429 C   0  0  0  0  0  0  0  0  0  0  0  0
   -0.8404    0.0873   -2.4249 C   0  0  0  0  0  0  0  0  0  0  0  0
   -0.8404    1.4148   -1.8851 N   0  0  0  0  0  2  0  0  0  0  0  0
    0.0418    0.6037   -4.3229 H   0  0  0  0  0  0  0  0  0  0  0  0
   -0.8404   -0.9316   -4.3339 H   0  0  0  0  0  0  0  0  0  0  0  0
   -1.7227    0.6037   -4.3229 H   0  0  0  0  0  0  0  0  0  0  0  0
    0.0318   -0.4664   -2.0409 H   0  0  0  0  0  0  0  0  0  0  0  0
   -1.7127   -0.4664   -2.0409 H   0  0  0  0  0  0  0  0  0  0  0  0
   -0.8404    1.3113   -0.6619 H   0  0  0  0  0  0  0  0  0  0  0  0
   -0.8404    1.2011    0.6405 C   0  0  0  0  0  3  0  0  0  0  0  0
   -0.1738    0.0147    0.9664 O   0  0  0  0  0  0  0  0  0  0  0  0
    0.2507   -0.0236    2.3064 C   0  0  0  0  0  0  0  0  0  0  0  0
    0.9929   -1.3192    2.5617 C   0  0  0  0  0  0  0  0  0  0  0  0
    2.2683   -1.4511    1.7400 C   0  0  0  0  0  0  0  0  0  0  0  0
   -1.7424    1.3380    1.2526 H   0  0  0  0  0  0  0  0  0  0  0  0
   -0.1935    2.0778    0.7798 H   0  0  0  0  0  0  0  0  0  0  0  0
   -0.6181    0.0572    2.9763 H   0  0  0  0  0  0  0  0  0  0  0  0
    0.9068    0.8363    2.5155 H   0  0  0  0  0  0  0  0  0  0  0  0
    0.3196   -2.1530    2.3466 H   0  0  0  0  0  0  0  0  0  0  0  0
    1.2262   -1.3676    3.6289 H   0  0  0  0  0  0  0  0  0  0  0  0
    2.7771   -2.3922    1.9537 H   0  0  0  0  0  0  0  0  0  0  0  0
    2.0460   -1.4183    0.6735 H   0  0  0  0  0  0  0  0  0  0  0  0
    2.9620   -0.6368    1.9637 H   0  0  0  0  0  0  0  0  0  0  0  0
  1  2  1  0
  1  4  1  0
  1  5  1  0
  1  6  1  0
  2  3  1  0
  2  7  1  0
  2  8  1  0
  3  9  1  0
 10 11  1  0
 10 15  1  0
 10 16  1  0
 11 12  1  0
 12 13  1  0
 12 17  1  0
 12 18  1  0
 13 14  1  0
 13 19  1  0
 13 20  1  0
 14 21  1  0
 14 22  1  0
 14 23  1  0
M  RAD  2   3   2  10   2
M  END
>  <reaction>  (6) 
rmg_rxn_676

>  <mol_properties>  (6) 
{"1": {"label": "*0", "atom_type": "Cs"}, "2": {"label": "*1", "atom_type": "N3s"}, "8": {"label": "*2", "atom_type": "H0"}, "9": {"label": "*3", "atom_type": "Cs"}, "10": {"label": "*4", "atom_type": "O2s"}}

>  <type>  (6) 
unop_2

>  <geom_source>  (6) 
Heuristics

$$$$

     RDKit          3D

 23 21  0  0  0  0  0  0  0  0999 V2000
   -0.3156   -1.9992   -4.0751 C   0  0  0  0  0  0  0  0  0  0  0  0
   -0.3156   -1.9992   -2.5571 C   0  0  0  0  0  0  0  0  0  0  0  0
   -0.3156   -0.6716   -2.0174 N   0  0  0  0  0  2  0  0  0  0  0  0
    0.5666   -1.4827   -4.4552 H   0  0  0  0  0  0  0  0  0  0  0  0
   -0.3156   -3.0180   -4.4662 H   0  0  0  0  0  0  0  0  0  0  0  0
   -1.1978   -1.4827   -4.4552 H   0  0  0  0  0  0  0  0  0  0  0  0
    0.5566   -2.5529   -2.1732 H   0  0  0  0  0  0  0  0  0  0  0  0
   -1.1878   -2.5529   -2.1732 H   0  0  0  0  0  0  0  0  0  0  0  0
   -0.3156   -0.7751   -0.7942 H   0  0  0  0  0  0  0  0  0  0  0  0
   -0.3156   -0.8854    0.5082 C   0  0  0  0  0  3  0  0  0  0  0  0
    0.3510    0.2293    1.0289 O   0  0  0  0  0  0  0  0  0  0  0  0
   -0.0706    0.5608    2.3287 C   0  0  0  0  0  0  0  0  0  0  0  0
    0.6707    1.7956    2.7981 C   0  0  0  0  0  0  0  0  0  0  0  0
    0.3699    3.0303    1.9590 C   0  0  0  0  0  0  0  0  0  0  0  0
   -0.1469   -1.7797    1.1235 H   0  0  0  0  0  0  0  0  0  0  0  0
   -1.3983   -0.7124    0.4419 H   0  0  0  0  0  0  0  0  0  0  0  0
    0.1205   -0.2815    3.0100 H   0  0  0  0  0  0  0  0  0  0  0  0
   -1.1566    0.7463    2.3336 H   0  0  0  0  0  0  0  0  0  0  0  0
    1.7428    1.5833    2.7830 H   0  0  0  0  0  0  0  0  0  0  0  0
    0.3978    1.9744    3.8418 H   0  0  0  0  0  0  0  0  0  0  0  0
    0.9166    3.8989    2.3290 H   0  0  0  0  0  0  0  0  0  0  0  0
    0.6513    2.8684    0.9185 H   0  0  0  0  0  0  0  0  0  0  0  0
   -0.6962    3.2692    1.9853 H   0  0  0  0  0  0  0  0  0  0  0  0
  1  2  1  0
  1  4  1  0
  1  5  1  0
  1  6  1  0
  2  3  1  0
  2  7  1  0
  2  8  1  0
  3  9  1  0
 10 11  1  0
 10 15  1  0
 10 16  1  0
 11 12  1  0
 12 13  1  0
 12 17  1  0
 12 18  1  0
 13 14  1  0
 13 19  1  0
 13 20  1  0
 14 21  1  0
 14 22  1  0
 14 23  1  0
M  RAD  2   3   2  10   2
M  END
>  <reaction>  (7) 
rmg_rxn_676

>  <mol_properties>  (7) 
{"1": {"label": "*0", "atom_type": "Cs"}, "2": {"label": "*1", "atom_type": "N3s"}, "8": {"label": "*2", "atom_type": "H0"}, "9": {"label": "*3", "atom_type": "Cs"}, "10": {"label": "*4", "atom_type": "O2s"}}

>  <type>  (7) 
unop_3

>  <geom_source>  (7) 
Heuristics

$$$$

     RDKit          3D

 23 21  0  0  0  0  0  0  0  0999 V2000
    1.0293   -0.2615   -4.0738 C   0  0  0  0  0  0  0  0  0  0  0  0
    1.0293   -0.2615   -2.5558 C   0  0  0  0  0  0  0  0  0  0  0  0
    1.0293    1.0660   -2.0160 N   0  0  0  0  0  2  0  0  0  0  0  0
    1.9115    0.2550   -4.4538 H   0  0  0  0  0  0  0  0  0  0  0  0
    1.0293   -1.2804   -4.4649 H   0  0  0  0  0  0  0  0  0  0  0  0
    0.1471    0.2550   -4.4538 H   0  0  0  0  0  0  0  0  0  0  0  0
    1.9015   -0.8152   -2.1719 H   0  0  0  0  0  0  0  0  0  0  0  0
    0.1571   -0.8152   -2.1719 H   0  0  0  0  0  0  0  0  0  0  0  0
    1.0293    0.9625   -0.7928 H   0  0  0  0  0  0  0  0  0  0  0  0
    1.0293    0.8523    0.5096 C   0  0  0  0  0  3  0  0  0  0  0  0
   -0.1253    0.1522    0.8767 O   0  0  0  0  0  0  0  0  0  0  0  0
   -0.6298    0.5475    2.1282 C   0  0  0  0  0  0  0  0  0  0  0  0
   -1.8513   -0.2834    2.4630 C   0  0  0  0  0  0  0  0  0  0  0  0
   -1.5439   -1.7675    2.6126 C   0  0  0  0  0  0  0  0  0  0  0  0
    0.8403    1.9321    0.4375 H   0  0  0  0  0  0  0  0  0  0  0  0
    1.8432    0.6926    1.2298 H   0  0  0  0  0  0  0  0  0  0  0  0
   -0.8893    1.6163    2.1061 H   0  0  0  0  0  0  0  0  0  0  0  0
    0.1429    0.4139    2.9020 H   0  0  0  0  0  0  0  0  0  0  0  0
   -2.5992   -0.1318    1.6805 H   0  0  0  0  0  0  0  0  0  0  0  0
   -2.2793    0.1075    3.3903 H   0  0  0  0  0  0  0  0  0  0  0  0
   -2.4447   -2.3319    2.8580 H   0  0  0  0  0  0  0  0  0  0  0  0
   -1.1296   -2.1713    1.6889 H   0  0  0  0  0  0  0  0  0  0  0  0
   -0.8152   -1.9361    3.4095 H   0  0  0  0  0  0  0  0  0  0  0  0
  1  2  1  0
  1  4  1  0
  1  5  1  0
  1  6  1  0
  2  3  1  0
  2  7  1  0
  2  8  1  0
  3  9  1  0
 10 11  1  0
 10 15  1  0
 10 16  1  0
 11 12  1  0
 12 13  1  0
 12 17  1  0
 12 18  1  0
 13 14  1  0
 13 19  1  0
 13 20  1  0
 14 21  1  0
 14 22  1  0
 14 23  1  0
M  RAD  2   3   2  10   2
M  END
>  <reaction>  (8) 
rmg_rxn_676

>  <mol_properties>  (8) 
{"1": {"label": "*0", "atom_type": "Cs"}, "2": {"label": "*1", "atom_type": "N3s"}, "8": {"label": "*2", "atom_type": "H0"}, "9": {"label": "*3", "atom_type": "Cs"}, "10": {"label": "*4", "atom_type": "O2s"}}

>  <type>  (8) 
unop_4

>  <geom_source>  (8) 
Heuristics

$$$$

     RDKit          3D

 23 21  0  0  0  0  0  0  0  0999 V2000
    0.1718   -1.9496   -4.1858 C   0  0  0  0  0  0  0  0  0  0  0  0
    0.1718   -1.9496   -2.6678 C   0  0  0  0  0  0  0  0  0  0  0  0
    0.1718   -0.6220   -2.1280 N   0  0  0  0  0  2  0  0  0  0  0  0
    1.0540   -1.4331   -4.5658 H   0  0  0  0  0  0  0  0  0  0  0  0
    0.1718   -2.9685   -4.5769 H   0  0  0  0  0  0  0  0  0  0  0  0
   -0.7105   -1.4331   -4.5658 H   0  0  0  0  0  0  0  0  0  0  0  0
    1.0440   -2.5033   -2.2839 H   0  0  0  0  0  0  0  0  0  0  0  0
   -0.7005   -2.5033   -2.2839 H   0  0  0  0  0  0  0  0  0  0  0  0
    0.1718   -0.7256   -0.9048 H   0  0  0  0  0  0  0  0  0  0  0  0
    0.1718   -0.8358    0.3976 C   0  0  0  0  0  3  0  0  0  0  0  0
    0.1718    0.4569    0.9333 O   0  0  0  0  0  0  0  0  0  0  0  0
    0.1745    0.4661    2.3394 C   0  0  0  0  0  0  0  0  0  0  0  0
    0.1354    1.8977    2.8328 C   0  0  0  0  0  0  0  0  0  0  0  0
   -1.1374    2.6337    2.4361 C   0  0  0  0  0  0  0  0  0  0  0  0
    1.0620   -1.4004    0.7068 H   0  0  0  0  0  0  0  0  0  0  0  0
   -0.7184   -1.4000    0.7072 H   0  0  0  0  0  0  0  0  0  0  0  0
    1.0746   -0.0429    2.7149 H   0  0  0  0  0  0  0  0  0  0  0  0
   -0.6982   -0.0892    2.7186 H   0  0  0  0  0  0  0  0  0  0  0  0
    1.0105    2.4234    2.4422 H   0  0  0  0  0  0  0  0  0  0  0  0
    0.2362    1.8804    3.9216 H   0  0  0  0  0  0  0  0  0  0  0  0
   -1.1319    3.6578    2.8122 H   0  0  0  0  0  0  0  0  0  0  0  0
   -1.2410    2.6696    1.3516 H   0  0  0  0  0  0  0  0  0  0  0  0
   -2.0199    2.1325    2.8415 H   0  0  0  0  0  0  0  0  0  0  0  0
  1  2  1  0
  1  4  1  0
  1  5  1  0
  1  6  1  0
  2  3  1  0
  2  7  1  0
  2  8  1  0
  3  9  1  0
 10 11  1  0
 10 15  1  0
 10 16  1  0
 11 12  1  0
 12 13  1  0
 12 17  1  0
 12 18  1  0
 13 14  1  0
 13 19  1  0
 13 20  1  0
 14 21  1  0
 14 22  1  0
 14 23  1  0
M  RAD  2   3   2  10   2
M  END
>  <reaction>  (9) 
rmg_rxn_676

>  <mol_properties>  (9) 
{"1": {"label": "*0", "atom_type": "Cs"}, "2": {"label": "*1", "atom_type": "N3s"}, "8": {"label": "*2", "atom_type": "H0"}, "9": {"label": "*3", "atom_type": "Cs"}, "10": {"label": "*4", "atom_type": "O2s"}}

>  <type>  (9) 
unop_5

>  <geom_source>  (9) 
Heuristics

$$$$

     RDKit          3D

 23 21  0  0  0  0  0  0  0  0999 V2000
    1.1579   -0.8959   -4.1177 C   0  0  0  0  0  0  0  0  0  0  0  0
    1.1579   -0.8959   -2.5997 C   0  0  0  0  0  0  0  0  0  0  0  0
    1.1579    0.4317   -2.0600 N   0  0  0  0  0  2  0  0  0  0  0  0
    2.0402   -0.3794   -4.4978 H   0  0  0  0  0  0  0  0  0  0  0  0
    1.1579   -1.9148   -4.5088 H   0  0  0  0  0  0  0  0  0  0  0  0
    0.2757   -0.3794   -4.4978 H   0  0  0  0  0  0  0  0  0  0  0  0
    2.0302   -1.4496   -2.2158 H   0  0  0  0  0  0  0  0  0  0  0  0
    0.2857   -1.4496   -2.2158 H   0  0  0  0  0  0  0  0  0  0  0  0
    1.1579    0.3281   -0.8368 H   0  0  0  0  0  0  0  0  0  0  0  0
    1.1579    0.2179    0.4656 C   0  0  0  0  0  3  0  0  0  0  0  0
   -0.1753    0.1821    0.8889 O   0  0  0  0  0  0  0  0  0  0  0  0
   -0.3902    0.8974    2.0803 C   0  0  0  0  0  0  0  0  0  0  0  0
   -1.8448    0.7745    2.4850 C   0  0  0  0  0  0  0  0  0  0  0  0
   -2.2594   -0.6559    2.8035 C   0  0  0  0  0  0  0  0  0  0  0  0
    1.4917    1.2463    0.2710 H   0  0  0  0  0  0  0  0  0  0  0  0
    1.8297   -0.2264    1.2126 H   0  0  0  0  0  0  0  0  0  0  0  0
   -0.1221    1.9543    1.9354 H   0  0  0  0  0  0  0  0  0  0  0  0
    0.2594    0.5008    2.8768 H   0  0  0  0  0  0  0  0  0  0  0  0
   -2.4643    1.1744    1.6782 H   0  0  0  0  0  0  0  0  0  0  0  0
   -2.0061    1.4158    3.3559 H   0  0  0  0  0  0  0  0  0  0  0  0
   -3.3096   -0.7042    3.0950 H   0  0  0  0  0  0  0  0  0  0  0  0
   -2.1160   -1.3017    1.9373 H   0  0  0  0  0  0  0  0  0  0  0  0
   -1.6643   -1.0601    3.6261 H   0  0  0  0  0  0  0  0  0  0  0  0
  1  2  1  0
  1  4  1  0
  1  5  1  0
  1  6  1  0
  2  3  1  0
  2  7  1  0
  2  8  1  0
  3  9  1  0
 10 11  1  0
 10 15  1  0
 10 16  1  0
 11 12  1  0
 12 13  1  0
 12 17  1  0
 12 18  1  0
 13 14  1  0
 13 19  1  0
 13 20  1  0
 14 21  1  0
 14 22  1  0
 14 23  1  0
M  RAD  2   3   2  10   2
M  END
>  <reaction>  (10) 
rmg_rxn_676

>  <mol_properties>  (10) 
{"1": {"label": "*0", "atom_type": "Cs"}, "2": {"label": "*1", "atom_type": "N3s"}, "8": {"label": "*2", "atom_type": "H0"}, "9": {"label": "*3", "atom_type": "Cs"}, "10": {"label": "*4", "atom_type": "O2s"}}

>  <type>  (10) 
unop_6

>  <geom_source>  (10) 
Heuristics

$$$$

     RDKit          3D

 23 21  0  0  0  0  0  0  0  0999 V2000
    0.9495   -1.4557   -4.1658 C   0  0  0  0  0  0  0  0  0  0  0  0
    0.9495   -1.4557   -2.6478 C   0  0  0  0  0  0  0  0  0  0  0  0
    0.9495   -0.1281   -2.1081 N   0  0  0  0  0  2  0  0  0  0  0  0
    1.8317   -0.9392   -4.5459 H   0  0  0  0  0  0  0  0  0  0  0  0
    0.9495   -2.4746   -4.5569 H   0  0  0  0  0  0  0  0  0  0  0  0
    0.0673   -0.9392   -4.5459 H   0  0  0  0  0  0  0  0  0  0  0  0
    1.8217   -2.0094   -2.2639 H   0  0  0  0  0  0  0  0  0  0  0  0
    0.0773   -2.0094   -2.2639 H   0  0  0  0  0  0  0  0  0  0  0  0
    0.9495   -0.2316   -0.8848 H   0  0  0  0  0  0  0  0  0  0  0  0
    0.9495   -0.3419    0.4175 C   0  0  0  0  0  3  0  0  0  0  0  0
   -0.2051    0.2865    0.8971 O   0  0  0  0  0  0  0  0  0  0  0  0
    0.0134    0.9932    2.0929 C   0  0  0  0  0  0  0  0  0  0  0  0
   -1.2904    1.6072    2.5594 C   0  0  0  0  0  0  0  0  0  0  0  0
   -2.3521    0.5706    2.9022 C   0  0  0  0  0  0  0  0  0  0  0  0
    1.7450    0.3850    0.2040 H   0  0  0  0  0  0  0  0  0  0  0  0
    1.3375   -1.0751    1.1376 H   0  0  0  0  0  0  0  0  0  0  0  0
    0.7684    1.7768    1.9316 H   0  0  0  0  0  0  0  0  0  0  0  0
    0.4081    0.3115    2.8632 H   0  0  0  0  0  0  0  0  0  0  0  0
   -1.6579    2.2769    1.7776 H   0  0  0  0  0  0  0  0  0  0  0  0
   -1.0751    2.2284    3.4333 H   0  0  0  0  0  0  0  0  0  0  0  0
   -3.2734    1.0489    3.2381 H   0  0  0  0  0  0  0  0  0  0  0  0
   -2.5851   -0.0456    2.0339 H   0  0  0  0  0  0  0  0  0  0  0  0
   -2.0074   -0.0909    3.7009 H   0  0  0  0  0  0  0  0  0  0  0  0
  1  2  1  0
  1  4  1  0
  1  5  1  0
  1  6  1  0
  2  3  1  0
  2  7  1  0
  2  8  1  0
  3  9  1  0
 10 11  1  0
 10 15  1  0
 10 16  1  0
 11 12  1  0
 12 13  1  0
 12 17  1  0
 12 18  1  0
 13 14  1  0
 13 19  1  0
 13 20  1  0
 14 21  1  0
 14 22  1  0
 14 23  1  0
M  RAD  2   3   2  10   2
M  END
>  <reaction>  (11) 
rmg_rxn_676

>  <mol_properties>  (11) 
{"1": {"label": "*0", "atom_type": "Cs"}, "2": {"label": "*1", "atom_type": "N3s"}, "8": {"label": "*2", "atom_type": "H0"}, "9": {"label": "*3", "atom_type": "Cs"}, "10": {"label": "*4", "atom_type": "O2s"}}

>  <type>  (11) 
unop_7

>  <geom_source>  (11) 
Heuristics

$$$$

     RDKit          3D

 23 21  0  0  0  0  0  0  0  0999 V2000
   -1.2232   -1.1801   -3.9361 C   0  0  0  0  0  0  0  0  0  0  0  0
   -1.2232   -1.1801   -2.4181 C   0  0  0  0  0  0  0  0  0  0  0  0
   -1.2232    0.1475   -1.8784 N   0  0  0  0  0  2  0  0  0  0  0  0
   -0.3410   -0.6636   -4.3162 H   0  0  0  0  0  0  0  0  0  0  0  0
   -1.2232   -2.1990   -4.3272 H   0  0  0  0  0  0  0  0  0  0  0  0
   -2.1055   -0.6636   -4.3162 H   0  0  0  0  0  0  0  0  0  0  0  0
   -0.3510   -1.7338   -2.0342 H   0  0  0  0  0  0  0  0  0  0  0  0
   -2.0955   -1.7338   -2.0342 H   0  0  0  0  0  0  0  0  0  0  0  0
   -1.2232    0.0439   -0.6551 H   0  0  0  0  0  0  0  0  0  0  0  0
   -1.2232   -0.0663    0.6472 C   0  0  0  0  0  3  0  0  0  0  0  0
    0.1100   -0.1021    1.0706 O   0  0  0  0  0  0  0  0  0  0  0  0
    0.3239    0.6086    2.2648 C   0  0  0  0  0  0  0  0  0  0  0  0
    1.7933    0.5505    2.6282 C   0  0  0  0  0  0  0  0  0  0  0  0
    2.6918    1.2261    1.6008 C   0  0  0  0  0  0  0  0  0  0  0  0
   -1.8954   -0.5107    1.3939 H   0  0  0  0  0  0  0  0  0  0  0  0
   -1.5566    0.9622    0.4530 H   0  0  0  0  0  0  0  0  0  0  0  0
   -0.2864    0.1765    3.0716 H   0  0  0  0  0  0  0  0  0  0  0  0
    0.0061    1.6559    2.1386 H   0  0  0  0  0  0  0  0  0  0  0  0
    2.0802   -0.4976    2.7466 H   0  0  0  0  0  0  0  0  0  0  0  0
    1.9164    1.0250    3.6056 H   0  0  0  0  0  0  0  0  0  0  0  0
    3.7399    1.1685    1.8981 H   0  0  0  0  0  0  0  0  0  0  0  0
    2.5878    0.7516    0.6251 H   0  0  0  0  0  0  0  0  0  0  0  0
    2.4322    2.2819    1.4904 H   0  0  0  0  0  0  0  0  0  0  0  0
  1  2  1  0
  1  4  1  0
  1  5  1  0
  1  6  1  0
  2  3  1  0
  2  7  1  0
  2  8  1  0
  3  9  1  0
 10 11  1  0
 10 15  1  0
 10 16  1  0
 11 12  1  0
 12 13  1  0
 12 17  1  0
 12 18  1  0
 13 14  1  0
 13 19  1  0
 13 20  1  0
 14 21  1  0
 14 22  1  0
 14 23  1  0
M  RAD  2   3   2  10   2
M  END
>  <reaction>  (12) 
rmg_rxn_676

>  <mol_properties>  (12) 
{"1": {"label": "*0", "atom_type": "Cs"}, "2": {"label": "*1", "atom_type": "N3s"}, "8": {"label": "*2", "atom_type": "H0"}, "9": {"label": "*3", "atom_type": "Cs"}, "10": {"label": "*4", "atom_type": "O2s"}}

>  <type>  (12) 
unop_8

>  <geom_source>  (12) 
Heuristics

$$$$

     RDKit          3D

 23 21  0  0  0  0  0  0  0  0999 V2000
    0.5416    0.2301   -4.0341 C   0  0  0  0  0  0  0  0  0  0  0  0
    0.5416    0.2301   -2.5161 C   0  0  0  0  0  0  0  0  0  0  0  0
    0.5416    1.5577   -1.9764 N   0  0  0  0  0  2  0  0  0  0  0  0
    1.4238    0.7466   -4.4142 H   0  0  0  0  0  0  0  0  0  0  0  0
    0.5416   -0.7888   -4.4252 H   0  0  0  0  0  0  0  0  0  0  0  0
   -0.3406    0.7466   -4.4142 H   0  0  0  0  0  0  0  0  0  0  0  0
    1.4138   -0.3236   -2.1322 H   0  0  0  0  0  0  0  0  0  0  0  0
   -0.3306   -0.3236   -2.1322 H   0  0  0  0  0  0  0  0  0  0  0  0
    0.5416    1.4541   -0.7532 H   0  0  0  0  0  0  0  0  0  0  0  0
    0.5416    1.3439    0.5492 C   0  0  0  0  0  3  0  0  0  0  0  0
   -0.1250    0.1575    0.8752 O   0  0  0  0  0  0  0  0  0  0  0  0
   -0.5543    0.1215    2.2136 C   0  0  0  0  0  0  0  0  0  0  0  0
   -1.2284   -1.2066    2.4897 C   0  0  0  0  0  0  0  0  0  0  0  0
   -0.2896   -2.3969    2.3444 C   0  0  0  0  0  0  0  0  0  0  0  0
   -0.1051    2.2210    0.6883 H   0  0  0  0  0  0  0  0  0  0  0  0
    1.4433    1.4805    1.1616 H   0  0  0  0  0  0  0  0  0  0  0  0
   -1.2512    0.9507    2.4053 H   0  0  0  0  0  0  0  0  0  0  0  0
    0.3077    0.2558    2.8865 H   0  0  0  0  0  0  0  0  0  0  0  0
   -2.0775   -1.3127    1.8096 H   0  0  0  0  0  0  0  0  0  0  0  0
   -1.6371   -1.1713    3.5034 H   0  0  0  0  0  0  0  0  0  0  0  0
   -0.8080   -3.3334    2.5551 H   0  0  0  0  0  0  0  0  0  0  0  0
    0.1129   -2.4503    1.3329 H   0  0  0  0  0  0  0  0  0  0  0  0
    0.5519   -2.3164    3.0370 H   0  0  0  0  0  0  0  0  0  0  0  0
  1  2  1  0
  1  4  1  0
  1  5  1  0
  1  6  1  0
  2  3  1  0
  2  7  1  0
  2  8  1  0
  3  9  1  0
 10 11  1  0
 10 15  1  0
 10 16  1  0
 11 12  1  0
 12 13  1  0
 12 17  1  0
 12 18  1  0
 13 14  1  0
 13 19  1  0
 13 20  1  0
 14 21  1  0
 14 22  1  0
 14 23  1  0
M  RAD  2   3   2  10   2
M  END
>  <reaction>  (13) 
rmg_rxn_676

>  <mol_properties>  (13) 
{"1": {"label": "*0", "atom_type": "Cs"}, "2": {"label": "*1", "atom_type": "N3s"}, "8": {"label": "*2", "atom_type": "H0"}, "9": {"label": "*3", "atom_type": "Cs"}, "10": {"label": "*4", "atom_type": "O2s"}}

>  <type>  (13) 
unop_9

>  <geom_source>  (13) 
Heuristics

$$$$

     RDKit          3D

 23 21  0  0  0  0  0  0  0  0999 V2000
   -1.2229   -0.5007   -3.9209 C   0  0  0  0  0  0  0  0  0  0  0  0
   -1.2229   -0.5007   -2.4030 C   0  0  0  0  0  0  0  0  0  0  0  0
   -1.2229    0.8269   -1.8632 N   0  0  0  0  0  2  0  0  0  0  0  0
   -0.3407    0.0158   -4.3010 H   0  0  0  0  0  0  0  0  0  0  0  0
   -1.2229   -1.5195   -4.3120 H   0  0  0  0  0  0  0  0  0  0  0  0
   -2.1051    0.0158   -4.3010 H   0  0  0  0  0  0  0  0  0  0  0  0
   -0.3507   -1.0544   -2.0190 H   0  0  0  0  0  0  0  0  0  0  0  0
   -2.0951   -1.0544   -2.0190 H   0  0  0  0  0  0  0  0  0  0  0  0
   -1.2229    0.7234   -0.6400 H   0  0  0  0  0  0  0  0  0  0  0  0
   -1.2229    0.6131    0.6624 C   0  0  0  0  0  3  0  0  0  0  0  0
   -0.0683   -0.0869    1.0295 O   0  0  0  0  0  0  0  0  0  0  0  0
    0.4332    0.3045    2.2834 C   0  0  0  0  0  0  0  0  0  0  0  0
    1.6987   -0.4720    2.5835 C   0  0  0  0  0  0  0  0  0  0  0  0
    2.8258   -0.1839    1.6006 C   0  0  0  0  0  0  0  0  0  0  0  0
   -2.0372    0.4536    1.3824 H   0  0  0  0  0  0  0  0  0  0  0  0
   -1.0335    1.6928    0.5907 H   0  0  0  0  0  0  0  0  0  0  0  0
   -0.3217    0.1203    3.0621 H   0  0  0  0  0  0  0  0  0  0  0  0
    0.6439    1.3859    2.2808 H   0  0  0  0  0  0  0  0  0  0  0  0
    1.4604   -1.5387    2.5796 H   0  0  0  0  0  0  0  0  0  0  0  0
    2.0131   -0.2213    3.6004 H   0  0  0  0  0  0  0  0  0  0  0  0
    3.7203   -0.7561    1.8509 H   0  0  0  0  0  0  0  0  0  0  0  0
    2.5283   -0.4435    0.5847 H   0  0  0  0  0  0  0  0  0  0  0  0
    3.0917    0.8760    1.6123 H   0  0  0  0  0  0  0  0  0  0  0  0
  1  2  1  0
  1  4  1  0
  1  5  1  0
  1  6  1  0
  2  3  1  0
  2  7  1  0
  2  8  1  0
  3  9  1  0
 10 11  1  0
 10 15  1  0
 10 16  1  0
 11 12  1  0
 12 13  1  0
 12 17  1  0
 12 18  1  0
 13 14  1  0
 13 19  1  0
 13 20  1  0
 14 21  1  0
 14 22  1  0
 14 23  1  0
M  RAD  2   3   2  10   2
M  END
>  <reaction>  (14) 
rmg_rxn_676

>  <mol_properties>  (14) 
{"1": {"label": "*0", "atom_type": "Cs"}, "2": {"label": "*1", "atom_type": "N3s"}, "8": {"label": "*2", "atom_type": "H0"}, "9": {"label": "*3", "atom_type": "Cs"}, "10": {"label": "*4", "atom_type": "O2s"}}

>  <type>  (14) 
unop_10

>  <geom_source>  (14) 
Heuristics

$$$$

     RDKit          3D

 23 21  0  0  0  0  0  0  0  0999 V2000
    0.5571   -1.7933   -4.2067 C   0  0  0  0  0  0  0  0  0  0  0  0
    0.5571   -1.7933   -2.6887 C   0  0  0  0  0  0  0  0  0  0  0  0
    0.5571   -0.4657   -2.1490 N   0  0  0  0  0  2  0  0  0  0  0  0
    1.4393   -1.2768   -4.5868 H   0  0  0  0  0  0  0  0  0  0  0  0
    0.5571   -2.8122   -4.5978 H   0  0  0  0  0  0  0  0  0  0  0  0
   -0.3251   -1.2768   -4.5868 H   0  0  0  0  0  0  0  0  0  0  0  0
    1.4293   -2.3470   -2.3048 H   0  0  0  0  0  0  0  0  0  0  0  0
   -0.3151   -2.3470   -2.3048 H   0  0  0  0  0  0  0  0  0  0  0  0
    0.5571   -0.5692   -0.9257 H   0  0  0  0  0  0  0  0  0  0  0  0
    0.5571   -0.6795    0.3766 C   0  0  0  0  0  3  0  0  0  0  0  0
   -0.1095    0.4352    0.8973 O   0  0  0  0  0  0  0  0  0  0  0  0
    0.3160    0.7700    2.1950 C   0  0  0  0  0  0  0  0  0  0  0  0
   -0.4803    1.9579    2.6944 C   0  0  0  0  0  0  0  0  0  0  0  0
   -1.9690    1.6670    2.8302 C   0  0  0  0  0  0  0  0  0  0  0  0
    1.6400   -0.5069    0.3100 H   0  0  0  0  0  0  0  0  0  0  0  0
    0.3883   -1.5735    0.9922 H   0  0  0  0  0  0  0  0  0  0  0  0
    1.3903    1.0065    2.1869 H   0  0  0  0  0  0  0  0  0  0  0  0
    0.1750   -0.0906    2.8684 H   0  0  0  0  0  0  0  0  0  0  0  0
   -0.3221    2.7945    2.0090 H   0  0  0  0  0  0  0  0  0  0  0  0
   -0.0658    2.2574    3.6609 H   0  0  0  0  0  0  0  0  0  0  0  0
   -2.5080    2.5422    3.1960 H   0  0  0  0  0  0  0  0  0  0  0  0
   -2.3961    1.3809    1.8691 H   0  0  0  0  0  0  0  0  0  0  0  0
   -2.1436    0.8481    3.5325 H   0  0  0  0  0  0  0  0  0  0  0  0
  1  2  1  0
  1  4  1  0
  1  5  1  0
  1  6  1  0
  2  3  1  0
  2  7  1  0
  2  8  1  0
  3  9  1  0
 10 11  1  0
 10 15  1  0
 10 16  1  0
 11 12  1  0
 12 13  1  0
 12 17  1  0
 12 18  1  0
 13 14  1  0
 13 19  1  0
 13 20  1  0
 14 21  1  0
 14 22  1  0
 14 23  1  0
M  RAD  2   3   2  10   2
M  END
>  <reaction>  (15) 
rmg_rxn_676

>  <mol_properties>  (15) 
{"1": {"label": "*0", "atom_type": "Cs"}, "2": {"label": "*1", "atom_type": "N3s"}, "8": {"label": "*2", "atom_type": "H0"}, "9": {"label": "*3", "atom_type": "Cs"}, "10": {"label": "*4", "atom_type": "O2s"}}

>  <type>  (15) 
unop_11

>  <geom_source>  (15) 
Heuristics

$$$$

     RDKit          3D

 23 21  0  0  0  0  0  0  0  0999 V2000
   -0.1718    0.3714   -3.9893 C   0  0  0  0  0  0  0  0  0  0  0  0
   -0.1718    0.3714   -2.4713 C   0  0  0  0  0  0  0  0  0  0  0  0
   -0.1718    1.6990   -1.9316 N   0  0  0  0  0  2  0  0  0  0  0  0
    0.7105    0.8879   -4.3694 H   0  0  0  0  0  0  0  0  0  0  0  0
   -0.1718   -0.6475   -4.3804 H   0  0  0  0  0  0  0  0  0  0  0  0
   -1.0540    0.8879   -4.3694 H   0  0  0  0  0  0  0  0  0  0  0  0
    0.7005   -0.1823   -2.0874 H   0  0  0  0  0  0  0  0  0  0  0  0
   -1.0440   -0.1823   -2.0874 H   0  0  0  0  0  0  0  0  0  0  0  0
   -0.1718    1.5954   -0.7084 H   0  0  0  0  0  0  0  0  0  0  0  0
   -0.1718    1.4852    0.5940 C   0  0  0  0  0  3  0  0  0  0  0  0
   -0.1718    0.1209    0.9049 O   0  0  0  0  0  0  0  0  0  0  0  0
   -0.1745   -0.1245    2.2894 C   0  0  0  0  0  0  0  0  0  0  0  0
   -0.1354   -1.6187    2.5352 C   0  0  0  0  0  0  0  0  0  0  0  0
    1.1374   -2.2776    2.0204 C   0  0  0  0  0  0  0  0  0  0  0  0
   -1.0620    1.9898    0.9938 H   0  0  0  0  0  0  0  0  0  0  0  0
    0.7184    1.9894    0.9940 H   0  0  0  0  0  0  0  0  0  0  0  0
   -1.0746    0.3141    2.7451 H   0  0  0  0  0  0  0  0  0  0  0  0
    0.6982    0.3591    2.7566 H   0  0  0  0  0  0  0  0  0  0  0  0
   -1.0105   -2.0712    2.0617 H   0  0  0  0  0  0  0  0  0  0  0  0
   -0.2362   -1.7846    3.6114 H   0  0  0  0  0  0  0  0  0  0  0  0
    1.1319   -3.3503    2.2191 H   0  0  0  0  0  0  0  0  0  0  0  0
    1.2410   -2.1306    0.9453 H   0  0  0  0  0  0  0  0  0  0  0  0
    2.0199   -1.8516    2.5042 H   0  0  0  0  0  0  0  0  0  0  0  0
  1  2  1  0
  1  4  1  0
  1  5  1  0
  1  6  1  0
  2  3  1  0
  2  7  1  0
  2  8  1  0
  3  9  1  0
 10 11  1  0
 10 15  1  0
 10 16  1  0
 11 12  1  0
 12 13  1  0
 12 17  1  0
 12 18  1  0
 13 14  1  0
 13 19  1  0
 13 20  1  0
 14 21  1  0
 14 22  1  0
 14 23  1  0
M  RAD  2   3   2  10   2
M  END
>  <reaction>  (16) 
rmg_rxn_676

>  <mol_properties>  (16) 
{"1": {"label": "*0", "atom_type": "Cs"}, "2": {"label": "*1", "atom_type": "N3s"}, "8": {"label": "*2", "atom_type": "H0"}, "9": {"label": "*3", "atom_type": "Cs"}, "10": {"label": "*4", "atom_type": "O2s"}}

>  <type>  (16) 
unop_12

>  <geom_source>  (16) 
Heuristics

$$$$

     RDKit          3D

 23 21  0  0  0  0  0  0  0  0999 V2000
   -0.8404    0.0873   -3.9428 C   0  0  0  0  0  0  0  0  0  0  0  0
   -0.8404    0.0873   -2.4249 C   0  0  0  0  0  0  0  0  0  0  0  0
   -0.8404    1.4148   -1.8851 N   0  0  0  0  0  2  0  0  0  0  0  0
    0.0418    0.6038   -4.3229 H   0  0  0  0  0  0  0  0  0  0  0  0
   -0.8404   -0.9316   -4.3339 H   0  0  0  0  0  0  0  0  0  0  0  0
   -1.7227    0.6038   -4.3229 H   0  0  0  0  0  0  0  0  0  0  0  0
    0.0318   -0.4664   -2.0410 H   0  0  0  0  0  0  0  0  0  0  0  0
   -1.7127   -0.4664   -2.0410 H   0  0  0  0  0  0  0  0  0  0  0  0
   -0.8404    1.3113   -0.6619 H   0  0  0  0  0  0  0  0  0  0  0  0
   -0.8404    1.2011    0.6405 C   0  0  0  0  0  3  0  0  0  0  0  0
   -0.1738    0.0147    0.9664 O   0  0  0  0  0  0  0  0  0  0  0  0
    0.2507   -0.0236    2.3064 C   0  0  0  0  0  0  0  0  0  0  0  0
    0.9929   -1.3192    2.5617 C   0  0  0  0  0  0  0  0  0  0  0  0
    2.2683   -1.4511    1.7400 C   0  0  0  0  0  0  0  0  0  0  0  0
   -1.7424    1.3380    1.2526 H   0  0  0  0  0  0  0  0  0  0  0  0
   -0.1935    2.0779    0.7798 H   0  0  0  0  0  0  0  0  0  0  0  0
   -0.6181    0.0572    2.9763 H   0  0  0  0  0  0  0  0  0  0  0  0
    0.9068    0.8363    2.5155 H   0  0  0  0  0  0  0  0  0  0  0  0
    0.3196   -2.1530    2.3466 H   0  0  0  0  0  0  0  0  0  0  0  0
    1.2262   -1.3676    3.6289 H   0  0  0  0  0  0  0  0  0  0  0  0
    2.7771   -2.3922    1.9537 H   0  0  0  0  0  0  0  0  0  0  0  0
    2.0460   -1.4183    0.6734 H   0  0  0  0  0  0  0  0  0  0  0  0
    2.9620   -0.6368    1.9637 H   0  0  0  0  0  0  0  0  0  0  0  0
  1  2  1  0
  1  4  1  0
  1  5  1  0
  1  6  1  0
  2  3  1  0
  2  7  1  0
  2  8  1  0
  3  9  1  0
 10 11  1  0
 10 15  1  0
 10 16  1  0
 11 12  1  0
 12 13  1  0
 12 17  1  0
 12 18  1  0
 13 14  1  0
 13 19  1  0
 13 20  1  0
 14 21  1  0
 14 22  1  0
 14 23  1  0
M  RAD  2   3   2  10   2
M  END
>  <reaction>  (17) 
rmg_rxn_676

>  <mol_properties>  (17) 
{"1": {"label": "*0", "atom_type": "Cs"}, "2": {"label": "*1", "atom_type": "N3s"}, "8": {"label": "*2", "atom_type": "H0"}, "9": {"label": "*3", "atom_type": "Cs"}, "10": {"label": "*4", "atom_type": "O2s"}}

>  <type>  (17) 
unop_13

>  <geom_source>  (17) 
gaussian_log

$$$$
