
     RDKit          3D

 17 16  0  0  0  0  0  0  0  0999 V2000
   -2.7869   -0.6779    0.5598 C   0  0  0  0  0  0  0  0  0  0  0  0
   -2.1882    0.4794   -0.4540 C   0  0  0  0  0  0  0  0  0  0  0  0
   -0.8614    0.6466   -0.6309 C   0  0  0  0  0  0  0  0  0  0  0  0
    0.0462   -0.2590    0.1147 O   0  0  0  0  0  0  0  0  0  0  0  0
    1.4144   -0.0462   -0.2689 N   0  0  0  0  0  0  0  0  0  0  0  0
    2.2735   -1.2242   -0.0705 N   0  0  0  0  0  0  0  0  0  0  0  0
    1.7506    1.2328    0.5709 C   0  0  0  0  0  0  0  0  0  0  0  0
   -3.5441    0.2632    1.1191 H   0  0  0  0  0  0  0  0  0  0  0  0
   -2.1352   -0.7714    1.3813 H   0  0  0  0  0  0  0  0  0  0  0  0
   -3.4264   -1.3209    0.3013 H   0  0  0  0  0  0  0  0  0  0  0  0
   -2.8344    0.6835   -1.3073 H   0  0  0  0  0  0  0  0  0  0  0  0
   -0.4114    0.8849   -1.5492 H   0  0  0  0  0  0  0  0  0  0  0  0
    1.5006   -1.9601   -0.3411 H   0  0  0  0  0  0  0  0  0  0  0  0
    2.8357   -1.1182   -1.0817 H   0  0  0  0  0  0  0  0  0  0  0  0
    1.4790    1.0086    1.8088 H   0  0  0  0  0  0  0  0  0  0  0  0
    1.7873    2.1776    0.1795 H   0  0  0  0  0  0  0  0  0  0  0  0
    3.0785    1.0316    0.6735 H   0  0  0  0  0  0  0  0  0  0  0  0
  1  2  1  0
  1  8  1  0
  1  9  1  0
  1 10  1  0
  2  3  2  3
  2 11  1  0
  3  4  1  0
  3 12  1  0
  4  5  1  0
  5  7  1  0
  5  6  1  0
  6 13  1  0
  6 14  1  0
  7 15  1  0
  7 16  1  0
  7 17  1  0
M  END
>  <reaction>  (1) 
rmg_rxn_16791

>  <mol_properties>  (1) 
{"5": {"label": "donator", "atom_type": "N3s"}, "12": {"label": "d_hydrogen", "atom_type": "H0"}}

>  <type>  (1) 
r1h

$$$$

     RDKit          3D

  7  6  0  0  0  0  0  0  0  0999 V2000
    1.1443   -0.1870   -0.0026 C   0  0  0  0  0  0  0  0  0  0  0  0
   -0.1897    0.4747   -0.0008 C   0  0  0  0  0  0  0  0  0  0  0  0
   -1.4128   -0.3182   -0.0012 N   0  0  0  0  0  2  0  0  0  0  0  0
    1.7295    0.1072   -0.8768 H   0  0  0  0  0  0  0  0  0  0  0  0
    1.0018   -1.2707   -0.0040 H   0  0  0  0  0  0  0  0  0  0  0  0
    1.6793    0.0928    0.9085 H   0  0  0  0  0  0  0  0  0  0  0  0
   -0.2483    1.5721    0.0008 H   0  0  0  0  0  0  0  0  0  0  0  0
  1  2  1  0
  1  4  1  0
  1  5  1  0
  1  6  1  0
  2  3  2  0
  2  7  1  0
M  RAD  1   3   2
M  END
>  <reaction>  (2) 
rmg_rxn_16791

>  <mol_properties>  (2) 
{"2": {"label": "acceptor", "atom_type": "N3d"}}

>  <type>  (2) 
r2

$$$$

     RDKit          3D

  8  7  0  0  0  0  0  0  0  0999 V2000
    1.2099   -0.1388    0.0025 C   0  0  0  0  0  0  0  0  0  0  0  0
   -0.1788    0.4141    0.0007 C   0  0  0  0  0  0  0  0  0  0  0  0
   -1.2100   -0.3603    0.0013 N   0  0  0  0  0  0  0  0  0  0  0  0
    1.7355    0.2223   -0.8851 H   0  0  0  0  0  0  0  0  0  0  0  0
    1.7521    0.1663    0.9007 H   0  0  0  0  0  0  0  0  0  0  0  0
    1.1564   -1.2296   -0.0424 H   0  0  0  0  0  0  0  0  0  0  0  0
   -0.2911    1.5112   -0.0010 H   0  0  0  0  0  0  0  0  0  0  0  0
   -2.0699    0.2005   -0.0002 H   0  0  0  0  0  0  0  0  0  0  0  0
  1  2  1  0
  1  4  1  0
  1  5  1  0
  1  6  1  0
  2  3  2  3
  2  7  1  0
  3  8  1  0
M  END
>  <reaction>  (3) 
rmg_rxn_16791

>  <mol_properties>  (3) 
{"2": {"label": "acceptor", "atom_type": "N3d"}, "7": {"label": "a_hydrogen", "atom_type": "H0"}}

>  <type>  (3) 
r2h

$$$$

     RDKit          3D

 24 22  0  0  0  0  0  0  0  0999 V2000
   -4.1856   -0.9326    0.0034 C   0  0  0  0  0  0  0  0  0  0  0  0
   -2.8908   -0.2997   -0.3928 C   0  0  0  0  0  0  0  0  0  0  0  0
   -1.9021   -0.2203    0.4314 N   0  0  0  0  0  2  0  0  0  0  0  0
   -4.9866   -0.1968   -0.1043 H   0  0  0  0  0  0  0  0  0  0  0  0
   -4.1258   -1.2335    1.0524 H   0  0  0  0  0  0  0  0  0  0  0  0
   -4.4016   -1.8051   -0.6179 H   0  0  0  0  0  0  0  0  0  0  0  0
   -2.8101    0.0984   -1.4182 H   0  0  0  0  0  0  0  0  0  0  0  0
    2.2768   -2.4820   -0.7380 C   0  0  0  0  0  0  0  0  0  0  0  0
    2.0837   -1.8217    0.5876 C   0  0  0  0  0  0  0  0  0  0  0  0
    1.6203   -0.5791    0.7731 C   0  0  0  0  0  0  0  0  0  0  0  0
    1.2598    0.2533   -0.2580 O   0  0  0  0  0  0  0  0  0  0  0  0
    0.8114    1.5226    0.3028 N   0  0  0  0  0  0  0  0  0  0  0  0
   -0.5548    1.7751   -0.0629 N   0  0  0  0  0  0  0  0  0  0  0  0
    1.6624    2.5231   -0.3514 C   0  0  0  0  0  0  0  0  0  0  0  0
    3.3271   -2.7629   -0.8628 H   0  0  0  0  0  0  0  0  0  0  0  0
    1.9962   -1.8376   -1.5765 H   0  0  0  0  0  0  0  0  0  0  0  0
    1.6702   -3.3912   -0.7912 H   0  0  0  0  0  0  0  0  0  0  0  0
    2.3454   -2.4113    1.4626 H   0  0  0  0  0  0  0  0  0  0  0  0
    1.5008   -0.1526    1.7606 H   0  0  0  0  0  0  0  0  0  0  0  0
   -1.2268    0.7799    0.1836 H   0  0  0  0  0  0  0  0  0  0  0  0
   -0.9411    2.5154    0.5253 H   0  0  0  0  0  0  0  0  0  0  0  0
    1.5718    2.4952   -1.4440 H   0  0  0  0  0  0  0  0  0  0  0  0
    2.7128    2.3537   -0.0894 H   0  0  0  0  0  0  0  0  0  0  0  0
    1.4066    3.5317   -0.0070 H   0  0  0  0  0  0  0  0  0  0  0  0
  1  2  1  0
  1  4  1  0
  1  5  1  0
  1  6  1  0
  2  3  2  0
  2  7  1  0
  8  9  1  0
  8 15  1  0
  8 16  1  0
  8 17  1  0
  9 10  2  3
  9 18  1  0
 10 11  1  0
 10 19  1  0
 11 12  1  0
 12 14  1  0
 12 13  1  0
 13 20  1  0
 13 21  1  0
 14 22  1  0
 14 23  1  0
 14 24  1  0
M  RAD  1   3   2
M  END
>  <reaction>  (4) 
rmg_rxn_16791

>  <mol_properties>  (4) 
{"1": {"label": "*4", "atom_type": "Cd"}, "2": {"label": "*3", "atom_type": "N3d"}, "11": {"label": "*0", "atom_type": "N3s"}, "12": {"label": "*1", "atom_type": "N3s"}, "19": {"label": "*2", "atom_type": "H0"}}

>  <type>  (4) 
ts

$$$$

     RDKit          3D

 24 22  0  0  0  0  0  0  0  0999 V2000
   -4.1950   -1.3526    0.2434 C   0  0  0  0  0  0  0  0  0  0  0  0
   -3.2095   -0.3204   -0.2102 C   0  0  0  0  0  0  0  0  0  0  0  0
   -1.9966   -0.3923    0.0491 N   0  0  0  0  0  0  0  0  0  0  0  0
   -4.6891   -1.7875   -0.6242 H   0  0  0  0  0  0  0  0  0  0  0  0
   -4.9542   -0.8794    0.8644 H   0  0  0  0  0  0  0  0  0  0  0  0
   -3.6936   -2.1335    0.8087 H   0  0  0  0  0  0  0  0  0  0  0  0
   -3.6588    0.5001   -0.7896 H   0  0  0  0  0  0  0  0  0  0  0  0
    3.7761   -1.2948   -0.0510 C   0  0  0  0  0  0  0  0  0  0  0  0
    2.3299   -1.5820    0.1829 C   0  0  0  0  0  0  0  0  0  0  0  0
    1.3522   -0.7029    0.0283 C   0  0  0  0  0  0  0  0  0  0  0  0
    1.6016    0.5848   -0.4020 O   0  0  0  0  0  0  0  0  0  0  0  0
    0.5629    1.5397   -0.1723 N   0  0  0  0  0  0  0  0  0  0  0  0
   -0.5665    1.4080   -0.8592 N   0  0  0  0  0  2  0  0  0  0  0  0
    0.3855    1.8366    1.2272 C   0  0  0  0  0  0  0  0  0  0  0  0
    3.9173   -0.2426   -0.2803 H   0  0  0  0  0  0  0  0  0  0  0  0
    4.1507   -1.8899   -0.8837 H   0  0  0  0  0  0  0  0  0  0  0  0
    4.3603   -1.5539    0.8315 H   0  0  0  0  0  0  0  0  0  0  0  0
    2.0675   -2.5861    0.4793 H   0  0  0  0  0  0  0  0  0  0  0  0
    0.3108   -0.9497    0.1951 H   0  0  0  0  0  0  0  0  0  0  0  0
   -1.3341    0.5219   -0.3958 H   0  0  0  0  0  0  0  0  0  0  0  0
   -0.3623    1.1436   -1.8195 H   0  0  0  0  0  0  0  0  0  0  0  0
    1.3626    2.0463    1.6572 H   0  0  0  0  0  0  0  0  0  0  0  0
   -0.0877    1.0081    1.7662 H   0  0  0  0  0  0  0  0  0  0  0  0
   -0.2496    2.7162    1.2952 H   0  0  0  0  0  0  0  0  0  0  0  0
  1  2  1  0
  1  4  1  0
  1  5  1  0
  1  6  1  0
  2  3  2  3
  2  7  1  0
  3 20  1  0
  8  9  1  0
  8 15  1  0
  8 16  1  0
  8 17  1  0
  9 10  2  3
  9 18  1  0
 10 11  1  0
 10 19  1  0
 11 12  1  0
 12 14  1  0
 12 13  1  0
 13 21  1  0
 14 22  1  0
 14 23  1  0
 14 24  1  0
M  RAD  1  13   2
M  END
>  <reaction>  (5) 
rmg_rxn_16791

>  <mol_properties>  (5) 
{"1": {"label": "*4", "atom_type": "Cd"}, "2": {"label": "*3", "atom_type": "N3d"}, "11": {"label": "*0", "atom_type": "N3s"}, "12": {"label": "*1", "atom_type": "N3s"}, "19": {"label": "*2", "atom_type": "H0"}}

>  <type>  (5) 
unop_1

>  <geom_source>  (5) 
crest_best.xyz

$$$$

     RDKit          3D

 24 22  0  0  0  0  0  0  0  0999 V2000
   -4.1873    0.5576    1.0443 C   0  0  0  0  0  0  0  0  0  0  0  0
   -2.7070    0.4723    1.2325 C   0  0  0  0  0  0  0  0  0  0  0  0
   -1.9108    0.3118    0.2308 N   0  0  0  0  0  2  0  0  0  0  0  0
   -4.6632   -0.2437    1.6152 H   0  0  0  0  0  0  0  0  0  0  0  0
   -4.4179    0.4170   -0.0148 H   0  0  0  0  0  0  0  0  0  0  0  0
   -4.5698    1.5249    1.3788 H   0  0  0  0  0  0  0  0  0  0  0  0
   -2.3180    0.5516    2.2614 H   0  0  0  0  0  0  0  0  0  0  0  0
    1.2388   -2.4049   -2.3472 C   0  0  0  0  0  0  0  0  0  0  0  0
    1.2388   -2.4049   -0.8537 C   0  0  0  0  0  0  0  0  0  0  0  0
    1.2388   -1.3120   -0.0799 C   0  0  0  0  0  0  0  0  0  0  0  0
    1.2388   -0.0332   -0.5804 O   0  0  0  0  0  0  0  0  0  0  0  0
    1.2472    0.9044    0.5365 N   0  0  0  0  0  0  0  0  0  0  0  0
    0.0753    1.7346    0.5001 N   0  0  0  0  0  0  0  0  0  0  0  0
    2.4234    1.7460    0.2881 C   0  0  0  0  0  0  0  0  0  0  0  0
    2.1254   -2.9283   -2.7180 H   0  0  0  0  0  0  0  0  0  0  0  0
    1.2391   -1.3960   -2.7703 H   0  0  0  0  0  0  0  0  0  0  0  0
    0.3519   -2.9279   -2.7180 H   0  0  0  0  0  0  0  0  0  0  0  0
    1.2387   -3.3792   -0.3716 H   0  0  0  0  0  0  0  0  0  0  0  0
    1.2384   -1.3740    1.0007 H   0  0  0  0  0  0  0  0  0  0  0  0
   -0.9153    1.0249    0.3657 H   0  0  0  0  0  0  0  0  0  0  0  0
   -0.0470    2.2032    1.3994 H   0  0  0  0  0  0  0  0  0  0  0  0
    2.3731    2.2544   -0.6823 H   0  0  0  0  0  0  0  0  0  0  0  0
    3.3339    1.1369    0.3100 H   0  0  0  0  0  0  0  0  0  0  0  0
    2.5279    2.5040    1.0728 H   0  0  0  0  0  0  0  0  0  0  0  0
  1  2  1  0
  1  4  1  0
  1  5  1  0
  1  6  1  0
  2  3  2  0
  2  7  1  0
  8  9  1  0
  8 15  1  0
  8 16  1  0
  8 17  1  0
  9 10  2  3
  9 18  1  0
 10 11  1  0
 10 19  1  0
 11 12  1  0
 12 14  1  0
 12 13  1  0
 13 20  1  0
 13 21  1  0
 14 22  1  0
 14 23  1  0
 14 24  1  0
M  RAD  1   3   2
M  END
>  <reaction>  (6) 
rmg_rxn_16791

>  <mol_properties>  (6) 
{"1": {"label": "*4", "atom_type": "Cd"}, "2": {"label": "*3", "atom_type": "N3d"}, "11": {"label": "*0", "atom_type": "N3s"}, "12": {"label": "*1", "atom_type": "N3s"}, "19": {"label": "*2", "atom_type": "H0"}}

>  <type>  (6) 
unop_2

>  <geom_source>  (6) 
Heuristics

$$$$

     RDKit          3D

 24 22  0  0  0  0  0  0  0  0999 V2000
   -3.0757   -1.3780    1.1698 C   0  0  0  0  0  0  0  0  0  0  0  0
   -1.9418   -0.4737    0.8081 C   0  0  0  0  0  0  0  0  0  0  0  0
   -2.1480    0.6780    0.2658 N   0  0  0  0  0  2  0  0  0  0  0  0
   -2.9590   -2.3233    0.6339 H   0  0  0  0  0  0  0  0  0  0  0  0
   -4.0134   -0.9120    0.8569 H   0  0  0  0  0  0  0  0  0  0  0  0
   -3.0993   -1.5657    2.2460 H   0  0  0  0  0  0  0  0  0  0  0  0
   -0.9192   -0.8270    1.0220 H   0  0  0  0  0  0  0  0  0  0  0  0
    1.0016   -2.0386   -2.3122 C   0  0  0  0  0  0  0  0  0  0  0  0
    1.0016   -2.0386   -0.8187 C   0  0  0  0  0  0  0  0  0  0  0  0
    1.0016   -0.9457   -0.0448 C   0  0  0  0  0  0  0  0  0  0  0  0
    1.0016    0.3331   -0.5454 O   0  0  0  0  0  0  0  0  0  0  0  0
    1.0100    1.2707    0.5715 N   0  0  0  0  0  0  0  0  0  0  0  0
   -0.1620    2.1009    0.5351 N   0  0  0  0  0  0  0  0  0  0  0  0
    2.1862    2.1122    0.3232 C   0  0  0  0  0  0  0  0  0  0  0  0
    1.8882   -2.5621   -2.6829 H   0  0  0  0  0  0  0  0  0  0  0  0
    1.0018   -1.0297   -2.7353 H   0  0  0  0  0  0  0  0  0  0  0  0
    0.1147   -2.5616   -2.6830 H   0  0  0  0  0  0  0  0  0  0  0  0
    1.0015   -3.0129   -0.3365 H   0  0  0  0  0  0  0  0  0  0  0  0
    1.0011   -1.0077    1.0358 H   0  0  0  0  0  0  0  0  0  0  0  0
   -1.1525    1.3912    0.4008 H   0  0  0  0  0  0  0  0  0  0  0  0
   -0.2843    2.5694    1.4345 H   0  0  0  0  0  0  0  0  0  0  0  0
    2.1359    2.6207   -0.6472 H   0  0  0  0  0  0  0  0  0  0  0  0
    3.0967    1.5032    0.3450 H   0  0  0  0  0  0  0  0  0  0  0  0
    2.2907    2.8703    1.1079 H   0  0  0  0  0  0  0  0  0  0  0  0
  1  2  1  0
  1  4  1  0
  1  5  1  0
  1  6  1  0
  2  3  2  0
  2  7  1  0
  8  9  1  0
  8 15  1  0
  8 16  1  0
  8 17  1  0
  9 10  2  3
  9 18  1  0
 10 11  1  0
 10 19  1  0
 11 12  1  0
 12 14  1  0
 12 13  1  0
 13 20  1  0
 13 21  1  0
 14 22  1  0
 14 23  1  0
 14 24  1  0
M  RAD  1   3   2
M  END
>  <reaction>  (7) 
rmg_rxn_16791

>  <mol_properties>  (7) 
{"1": {"label": "*4", "atom_type": "Cd"}, "2": {"label": "*3", "atom_type": "N3d"}, "11": {"label": "*0", "atom_type": "N3s"}, "12": {"label": "*1", "atom_type": "N3s"}, "19": {"label": "*2", "atom_type": "H0"}}

>  <type>  (7) 
unop_3

>  <geom_source>  (7) 
Heuristics

$$$$

     RDKit          3D

 24 22  0  0  0  0  0  0  0  0999 V2000
   -4.2820    0.6000    0.4066 C   0  0  0  0  0  0  0  0  0  0  0  0
   -2.8942    0.8177    0.9175 C   0  0  0  0  0  0  0  0  0  0  0  0
   -1.8759    0.2645    0.3517 N   0  0  0  0  0  2  0  0  0  0  0  0
   -4.8868    0.1586    1.2028 H   0  0  0  0  0  0  0  0  0  0  0  0
   -4.2444   -0.0992   -0.4326 H   0  0  0  0  0  0  0  0  0  0  0  0
   -4.7320    1.5411    0.0815 H   0  0  0  0  0  0  0  0  0  0  0  0
   -2.7712    1.4701    1.7981 H   0  0  0  0  0  0  0  0  0  0  0  0
    1.2737   -2.4521   -2.2263 C   0  0  0  0  0  0  0  0  0  0  0  0
    1.2737   -2.4521   -0.7327 C   0  0  0  0  0  0  0  0  0  0  0  0
    1.2737   -1.3592    0.0411 C   0  0  0  0  0  0  0  0  0  0  0  0
    1.2737   -0.0804   -0.4595 O   0  0  0  0  0  0  0  0  0  0  0  0
    1.2821    0.8572    0.6574 N   0  0  0  0  0  0  0  0  0  0  0  0
    0.1102    1.6874    0.6210 N   0  0  0  0  0  0  0  0  0  0  0  0
    2.4583    1.6988    0.4091 C   0  0  0  0  0  0  0  0  0  0  0  0
    2.1603   -2.9756   -2.5970 H   0  0  0  0  0  0  0  0  0  0  0  0
    1.2740   -1.4432   -2.6493 H   0  0  0  0  0  0  0  0  0  0  0  0
    0.3868   -2.9751   -2.5971 H   0  0  0  0  0  0  0  0  0  0  0  0
    1.2737   -3.4264   -0.2506 H   0  0  0  0  0  0  0  0  0  0  0  0
    1.2733   -1.4212    1.1217 H   0  0  0  0  0  0  0  0  0  0  0  0
   -0.8804    0.9777    0.4867 H   0  0  0  0  0  0  0  0  0  0  0  0
   -0.0121    2.1559    1.5204 H   0  0  0  0  0  0  0  0  0  0  0  0
    2.4080    2.2072   -0.5613 H   0  0  0  0  0  0  0  0  0  0  0  0
    3.3688    1.0897    0.4309 H   0  0  0  0  0  0  0  0  0  0  0  0
    2.5629    2.4568    1.1938 H   0  0  0  0  0  0  0  0  0  0  0  0
  1  2  1  0
  1  4  1  0
  1  5  1  0
  1  6  1  0
  2  3  2  0
  2  7  1  0
  8  9  1  0
  8 15  1  0
  8 16  1  0
  8 17  1  0
  9 10  2  3
  9 18  1  0
 10 11  1  0
 10 19  1  0
 11 12  1  0
 12 14  1  0
 12 13  1  0
 13 20  1  0
 13 21  1  0
 14 22  1  0
 14 23  1  0
 14 24  1  0
M  RAD  1   3   2
M  END
>  <reaction>  (8) 
rmg_rxn_16791

>  <mol_properties>  (8) 
{"1": {"label": "*4", "atom_type": "Cd"}, "2": {"label": "*3", "atom_type": "N3d"}, "11": {"label": "*0", "atom_type": "N3s"}, "12": {"label": "*1", "atom_type": "N3s"}, "19": {"label": "*2", "atom_type": "H0"}}

>  <type>  (8) 
unop_4

>  <geom_source>  (8) 
Heuristics

$$$$

     RDKit          3D

 24 22  0  0  0  0  0  0  0  0999 V2000
   -3.2478   -0.4934   -1.1788 C   0  0  0  0  0  0  0  0  0  0  0  0
   -2.0308   -0.1477   -0.3827 C   0  0  0  0  0  0  0  0  0  0  0  0
   -2.1149    0.5230    0.7155 N   0  0  0  0  0  2  0  0  0  0  0  0
   -3.1482   -0.0670   -2.1802 H   0  0  0  0  0  0  0  0  0  0  0  0
   -4.1233   -0.0519   -0.6961 H   0  0  0  0  0  0  0  0  0  0  0  0
   -3.3743   -1.5763   -1.2509 H   0  0  0  0  0  0  0  0  0  0  0  0
   -1.0551   -0.4875   -0.7687 H   0  0  0  0  0  0  0  0  0  0  0  0
    1.0347   -2.1936   -1.8624 C   0  0  0  0  0  0  0  0  0  0  0  0
    1.0347   -2.1936   -0.3689 C   0  0  0  0  0  0  0  0  0  0  0  0
    1.0347   -1.1008    0.4049 C   0  0  0  0  0  0  0  0  0  0  0  0
    1.0347    0.1780   -0.0956 O   0  0  0  0  0  0  0  0  0  0  0  0
    1.0431    1.1156    1.0212 N   0  0  0  0  0  0  0  0  0  0  0  0
   -0.1288    1.9458    0.9848 N   0  0  0  0  0  0  0  0  0  0  0  0
    2.2193    1.9572    0.7729 C   0  0  0  0  0  0  0  0  0  0  0  0
    1.9213   -2.7171   -2.2332 H   0  0  0  0  0  0  0  0  0  0  0  0
    1.0350   -1.1847   -2.2855 H   0  0  0  0  0  0  0  0  0  0  0  0
    0.1478   -2.7167   -2.2332 H   0  0  0  0  0  0  0  0  0  0  0  0
    1.0347   -3.1679    0.1132 H   0  0  0  0  0  0  0  0  0  0  0  0
    1.0343   -1.1627    1.4855 H   0  0  0  0  0  0  0  0  0  0  0  0
   -1.1194    1.2361    0.8505 H   0  0  0  0  0  0  0  0  0  0  0  0
   -0.2511    2.4144    1.8842 H   0  0  0  0  0  0  0  0  0  0  0  0
    2.1690    2.4657   -0.1975 H   0  0  0  0  0  0  0  0  0  0  0  0
    3.1298    1.3481    0.7947 H   0  0  0  0  0  0  0  0  0  0  0  0
    2.3239    2.7152    1.5576 H   0  0  0  0  0  0  0  0  0  0  0  0
  1  2  1  0
  1  4  1  0
  1  5  1  0
  1  6  1  0
  2  3  2  0
  2  7  1  0
  8  9  1  0
  8 15  1  0
  8 16  1  0
  8 17  1  0
  9 10  2  3
  9 18  1  0
 10 11  1  0
 10 19  1  0
 11 12  1  0
 12 14  1  0
 12 13  1  0
 13 20  1  0
 13 21  1  0
 14 22  1  0
 14 23  1  0
 14 24  1  0
M  RAD  1   3   2
M  END
>  <reaction>  (9) 
rmg_rxn_16791

>  <mol_properties>  (9) 
{"1": {"label": "*4", "atom_type": "Cd"}, "2": {"label": "*3", "atom_type": "N3d"}, "11": {"label": "*0", "atom_type": "N3s"}, "12": {"label": "*1", "atom_type": "N3s"}, "19": {"label": "*2", "atom_type": "H0"}}

>  <type>  (9) 
unop_5

>  <geom_source>  (9) 
Heuristics

$$$$

     RDKit          3D

 24 22  0  0  0  0  0  0  0  0999 V2000
   -4.2896    0.3908    0.2432 C   0  0  0  0  0  0  0  0  0  0  0  0
   -2.9333    0.9990    0.4005 C   0  0  0  0  0  0  0  0  0  0  0  0
   -1.8702    0.2698    0.4352 N   0  0  0  0  0  2  0  0  0  0  0  0
   -4.9026    0.6657    1.1053 H   0  0  0  0  0  0  0  0  0  0  0  0
   -4.1886   -0.6972    0.2185 H   0  0  0  0  0  0  0  0  0  0  0  0
   -4.7700    0.7366   -0.6751 H   0  0  0  0  0  0  0  0  0  0  0  0
   -2.8732    2.0969    0.4860 H   0  0  0  0  0  0  0  0  0  0  0  0
    1.2794   -2.4469   -2.1428 C   0  0  0  0  0  0  0  0  0  0  0  0
    1.2794   -2.4469   -0.6493 C   0  0  0  0  0  0  0  0  0  0  0  0
    1.2794   -1.3540    0.1246 C   0  0  0  0  0  0  0  0  0  0  0  0
    1.2794   -0.0752   -0.3760 O   0  0  0  0  0  0  0  0  0  0  0  0
    1.2878    0.8624    0.7409 N   0  0  0  0  0  0  0  0  0  0  0  0
    0.1159    1.6926    0.7045 N   0  0  0  0  0  0  0  0  0  0  0  0
    2.4640    1.7040    0.4926 C   0  0  0  0  0  0  0  0  0  0  0  0
    2.1660   -2.9703   -2.5135 H   0  0  0  0  0  0  0  0  0  0  0  0
    1.2797   -1.4380   -2.5659 H   0  0  0  0  0  0  0  0  0  0  0  0
    0.3925   -2.9699   -2.5136 H   0  0  0  0  0  0  0  0  0  0  0  0
    1.2793   -3.4212   -0.1671 H   0  0  0  0  0  0  0  0  0  0  0  0
    1.2790   -1.4160    1.2052 H   0  0  0  0  0  0  0  0  0  0  0  0
   -0.8747    0.9829    0.5702 H   0  0  0  0  0  0  0  0  0  0  0  0
   -0.0064    2.1612    1.6039 H   0  0  0  0  0  0  0  0  0  0  0  0
    2.4137    2.2124   -0.4778 H   0  0  0  0  0  0  0  0  0  0  0  0
    3.3745    1.0949    0.5144 H   0  0  0  0  0  0  0  0  0  0  0  0
    2.5686    2.4620    1.2773 H   0  0  0  0  0  0  0  0  0  0  0  0
  1  2  1  0
  1  4  1  0
  1  5  1  0
  1  6  1  0
  2  3  2  0
  2  7  1  0
  8  9  1  0
  8 15  1  0
  8 16  1  0
  8 17  1  0
  9 10  2  3
  9 18  1  0
 10 11  1  0
 10 19  1  0
 11 12  1  0
 12 14  1  0
 12 13  1  0
 13 20  1  0
 13 21  1  0
 14 22  1  0
 14 23  1  0
 14 24  1  0
M  RAD  1   3   2
M  END
>  <reaction>  (10) 
rmg_rxn_16791

>  <mol_properties>  (10) 
{"1": {"label": "*4", "atom_type": "Cd"}, "2": {"label": "*3", "atom_type": "N3d"}, "11": {"label": "*0", "atom_type": "N3s"}, "12": {"label": "*1", "atom_type": "N3s"}, "19": {"label": "*2", "atom_type": "H0"}}

>  <type>  (10) 
unop_6

>  <geom_source>  (10) 
Heuristics

$$$$

     RDKit          3D

 24 22  0  0  0  0  0  0  0  0999 V2000
   -3.6851    0.2436   -1.0538 C   0  0  0  0  0  0  0  0  0  0  0  0
   -2.2834    0.2162   -0.5354 C   0  0  0  0  0  0  0  0  0  0  0  0
   -2.0274    0.3830    0.7175 N   0  0  0  0  0  2  0  0  0  0  0  0
   -3.7714    1.0391   -1.7982 H   0  0  0  0  0  0  0  0  0  0  0  0
   -4.3641    0.4638   -0.2261 H   0  0  0  0  0  0  0  0  0  0  0  0
   -3.9545   -0.7140   -1.5057 H   0  0  0  0  0  0  0  0  0  0  0  0
   -1.4730    0.0479   -1.2643 H   0  0  0  0  0  0  0  0  0  0  0  0
    1.1222   -2.3337   -1.8605 C   0  0  0  0  0  0  0  0  0  0  0  0
    1.1222   -2.3337   -0.3670 C   0  0  0  0  0  0  0  0  0  0  0  0
    1.1222   -1.2408    0.4069 C   0  0  0  0  0  0  0  0  0  0  0  0
    1.1222    0.0380   -0.0937 O   0  0  0  0  0  0  0  0  0  0  0  0
    1.1306    0.9756    1.0232 N   0  0  0  0  0  0  0  0  0  0  0  0
   -0.0413    1.8058    0.9868 N   0  0  0  0  0  0  0  0  0  0  0  0
    2.3068    1.8172    0.7748 C   0  0  0  0  0  0  0  0  0  0  0  0
    2.0088   -2.8571   -2.2312 H   0  0  0  0  0  0  0  0  0  0  0  0
    1.1225   -1.3248   -2.2836 H   0  0  0  0  0  0  0  0  0  0  0  0
    0.2353   -2.8567   -2.2313 H   0  0  0  0  0  0  0  0  0  0  0  0
    1.1222   -3.3080    0.1152 H   0  0  0  0  0  0  0  0  0  0  0  0
    1.1218   -1.3028    1.4875 H   0  0  0  0  0  0  0  0  0  0  0  0
   -1.0319    1.0961    0.8525 H   0  0  0  0  0  0  0  0  0  0  0  0
   -0.1636    2.2744    1.8862 H   0  0  0  0  0  0  0  0  0  0  0  0
    2.2565    2.3256   -0.1955 H   0  0  0  0  0  0  0  0  0  0  0  0
    3.2173    1.2081    0.7967 H   0  0  0  0  0  0  0  0  0  0  0  0
    2.4114    2.5752    1.5595 H   0  0  0  0  0  0  0  0  0  0  0  0
  1  2  1  0
  1  4  1  0
  1  5  1  0
  1  6  1  0
  2  3  2  0
  2  7  1  0
  8  9  1  0
  8 15  1  0
  8 16  1  0
  8 17  1  0
  9 10  2  3
  9 18  1  0
 10 11  1  0
 10 19  1  0
 11 12  1  0
 12 14  1  0
 12 13  1  0
 13 20  1  0
 13 21  1  0
 14 22  1  0
 14 23  1  0
 14 24  1  0
M  RAD  1   3   2
M  END
>  <reaction>  (11) 
rmg_rxn_16791

>  <mol_properties>  (11) 
{"1": {"label": "*4", "atom_type": "Cd"}, "2": {"label": "*3", "atom_type": "N3d"}, "11": {"label": "*0", "atom_type": "N3s"}, "12": {"label": "*1", "atom_type": "N3s"}, "19": {"label": "*2", "atom_type": "H0"}}

>  <type>  (11) 
unop_7

>  <geom_source>  (11) 
Heuristics

$$$$

     RDKit          3D

 24 22  0  0  0  0  0  0  0  0999 V2000
   -4.0594    0.6702   -0.4971 C   0  0  0  0  0  0  0  0  0  0  0  0
   -2.5673    0.5952   -0.4502 C   0  0  0  0  0  0  0  0  0  0  0  0
   -1.9443    0.2816    0.6345 N   0  0  0  0  0  2  0  0  0  0  0  0
   -4.3537    1.6800   -0.7941 H   0  0  0  0  0  0  0  0  0  0  0  0
   -4.4551    0.4701    0.5019 H   0  0  0  0  0  0  0  0  0  0  0  0
   -4.4661   -0.0550   -1.2059 H   0  0  0  0  0  0  0  0  0  0  0  0
   -2.0158    0.8183   -1.3789 H   0  0  0  0  0  0  0  0  0  0  0  0
    1.2052   -2.4350   -1.9435 C   0  0  0  0  0  0  0  0  0  0  0  0
    1.2052   -2.4350   -0.4500 C   0  0  0  0  0  0  0  0  0  0  0  0
    1.2052   -1.3421    0.3239 C   0  0  0  0  0  0  0  0  0  0  0  0
    1.2053   -0.0633   -0.1767 O   0  0  0  0  0  0  0  0  0  0  0  0
    1.2136    0.8743    0.9402 N   0  0  0  0  0  0  0  0  0  0  0  0
    0.0417    1.7045    0.9038 N   0  0  0  0  0  0  0  0  0  0  0  0
    2.3898    1.7159    0.6919 C   0  0  0  0  0  0  0  0  0  0  0  0
    2.0919   -2.9584   -2.3142 H   0  0  0  0  0  0  0  0  0  0  0  0
    1.2055   -1.4261   -2.3666 H   0  0  0  0  0  0  0  0  0  0  0  0
    0.3184   -2.9580   -2.3143 H   0  0  0  0  0  0  0  0  0  0  0  0
    1.2052   -3.4093    0.0322 H   0  0  0  0  0  0  0  0  0  0  0  0
    1.2048   -1.4041    1.4045 H   0  0  0  0  0  0  0  0  0  0  0  0
   -0.9489    0.9948    0.7695 H   0  0  0  0  0  0  0  0  0  0  0  0
   -0.0806    2.1730    1.8032 H   0  0  0  0  0  0  0  0  0  0  0  0
    2.3395    2.2243   -0.2785 H   0  0  0  0  0  0  0  0  0  0  0  0
    3.3004    1.1068    0.7137 H   0  0  0  0  0  0  0  0  0  0  0  0
    2.4944    2.4739    1.4766 H   0  0  0  0  0  0  0  0  0  0  0  0
  1  2  1  0
  1  4  1  0
  1  5  1  0
  1  6  1  0
  2  3  2  0
  2  7  1  0
  8  9  1  0
  8 15  1  0
  8 16  1  0
  8 17  1  0
  9 10  2  3
  9 18  1  0
 10 11  1  0
 10 19  1  0
 11 12  1  0
 12 14  1  0
 12 13  1  0
 13 20  1  0
 13 21  1  0
 14 22  1  0
 14 23  1  0
 14 24  1  0
M  RAD  1   3   2
M  END
>  <reaction>  (12) 
rmg_rxn_16791

>  <mol_properties>  (12) 
{"1": {"label": "*4", "atom_type": "Cd"}, "2": {"label": "*3", "atom_type": "N3d"}, "11": {"label": "*0", "atom_type": "N3s"}, "12": {"label": "*1", "atom_type": "N3s"}, "19": {"label": "*2", "atom_type": "H0"}}

>  <type>  (12) 
unop_8

>  <geom_source>  (12) 
Heuristics

$$$$

     RDKit          3D

 24 22  0  0  0  0  0  0  0  0999 V2000
   -3.9044    0.0503    1.5872 C   0  0  0  0  0  0  0  0  0  0  0  0
   -2.4364    0.0815    1.3074 C   0  0  0  0  0  0  0  0  0  0  0  0
   -1.9803    0.4250    0.1510 N   0  0  0  0  0  2  0  0  0  0  0  0
   -4.1859   -0.9625    1.8863 H   0  0  0  0  0  0  0  0  0  0  0  0
   -4.4444    0.3077    0.6725 H   0  0  0  0  0  0  0  0  0  0  0  0
   -4.1672    0.7545    2.3801 H   0  0  0  0  0  0  0  0  0  0  0  0
   -1.7546   -0.2004    2.1271 H   0  0  0  0  0  0  0  0  0  0  0  0
    1.1693   -2.2916   -2.4270 C   0  0  0  0  0  0  0  0  0  0  0  0
    1.1693   -2.2916   -0.9334 C   0  0  0  0  0  0  0  0  0  0  0  0
    1.1693   -1.1987   -0.1596 C   0  0  0  0  0  0  0  0  0  0  0  0
    1.1693    0.0800   -0.6601 O   0  0  0  0  0  0  0  0  0  0  0  0
    1.1777    1.0176    0.4567 N   0  0  0  0  0  0  0  0  0  0  0  0
    0.0057    1.8478    0.4203 N   0  0  0  0  0  0  0  0  0  0  0  0
    2.3539    1.8592    0.2084 C   0  0  0  0  0  0  0  0  0  0  0  0
    2.0559   -2.8151   -2.7977 H   0  0  0  0  0  0  0  0  0  0  0  0
    1.1695   -1.2827   -2.8500 H   0  0  0  0  0  0  0  0  0  0  0  0
    0.2824   -2.8147   -2.7977 H   0  0  0  0  0  0  0  0  0  0  0  0
    1.1692   -3.2659   -0.4513 H   0  0  0  0  0  0  0  0  0  0  0  0
    1.1688   -1.2607    0.9210 H   0  0  0  0  0  0  0  0  0  0  0  0
   -0.9848    1.1382    0.2860 H   0  0  0  0  0  0  0  0  0  0  0  0
   -0.1165    2.3164    1.3197 H   0  0  0  0  0  0  0  0  0  0  0  0
    2.3036    2.3677   -0.7620 H   0  0  0  0  0  0  0  0  0  0  0  0
    3.2644    1.2501    0.2302 H   0  0  0  0  0  0  0  0  0  0  0  0
    2.4584    2.6172    0.9931 H   0  0  0  0  0  0  0  0  0  0  0  0
  1  2  1  0
  1  4  1  0
  1  5  1  0
  1  6  1  0
  2  3  2  0
  2  7  1  0
  8  9  1  0
  8 15  1  0
  8 16  1  0
  8 17  1  0
  9 10  2  3
  9 18  1  0
 10 11  1  0
 10 19  1  0
 11 12  1  0
 12 14  1  0
 12 13  1  0
 13 20  1  0
 13 21  1  0
 14 22  1  0
 14 23  1  0
 14 24  1  0
M  RAD  1   3   2
M  END
>  <reaction>  (13) 
rmg_rxn_16791

>  <mol_properties>  (13) 
{"1": {"label": "*4", "atom_type": "Cd"}, "2": {"label": "*3", "atom_type": "N3d"}, "11": {"label": "*0", "atom_type": "N3s"}, "12": {"label": "*1", "atom_type": "N3s"}, "19": {"label": "*2", "atom_type": "H0"}}

>  <type>  (13) 
unop_9

>  <geom_source>  (13) 
Heuristics

$$$$

     RDKit          3D

 24 22  0  0  0  0  0  0  0  0999 V2000
   -4.1950   -1.3526    0.2434 C   0  0  0  0  0  0  0  0  0  0  0  0
   -3.2095   -0.3204   -0.2102 C   0  0  0  0  0  0  0  0  0  0  0  0
   -1.9966   -0.3923    0.0491 N   0  0  0  0  0  0  0  0  0  0  0  0
   -4.6891   -1.7875   -0.6242 H   0  0  0  0  0  0  0  0  0  0  0  0
   -4.9542   -0.8794    0.8644 H   0  0  0  0  0  0  0  0  0  0  0  0
   -3.6936   -2.1335    0.8087 H   0  0  0  0  0  0  0  0  0  0  0  0
   -3.6588    0.5001   -0.7896 H   0  0  0  0  0  0  0  0  0  0  0  0
    3.7761   -1.2948   -0.0510 C   0  0  0  0  0  0  0  0  0  0  0  0
    2.3299   -1.5820    0.1829 C   0  0  0  0  0  0  0  0  0  0  0  0
    1.3522   -0.7029    0.0283 C   0  0  0  0  0  0  0  0  0  0  0  0
    1.6016    0.5848   -0.4020 O   0  0  0  0  0  0  0  0  0  0  0  0
    0.5629    1.5397   -0.1723 N   0  0  0  0  0  0  0  0  0  0  0  0
   -0.5665    1.4080   -0.8592 N   0  0  0  0  0  2  0  0  0  0  0  0
    0.3855    1.8366    1.2272 C   0  0  0  0  0  0  0  0  0  0  0  0
    3.9173   -0.2426   -0.2803 H   0  0  0  0  0  0  0  0  0  0  0  0
    4.1507   -1.8899   -0.8837 H   0  0  0  0  0  0  0  0  0  0  0  0
    4.3603   -1.5539    0.8315 H   0  0  0  0  0  0  0  0  0  0  0  0
    2.0675   -2.5861    0.4793 H   0  0  0  0  0  0  0  0  0  0  0  0
    0.3108   -0.9497    0.1951 H   0  0  0  0  0  0  0  0  0  0  0  0
   -1.3341    0.5219   -0.3958 H   0  0  0  0  0  0  0  0  0  0  0  0
   -0.3623    1.1436   -1.8195 H   0  0  0  0  0  0  0  0  0  0  0  0
    1.3626    2.0463    1.6572 H   0  0  0  0  0  0  0  0  0  0  0  0
   -0.0877    1.0081    1.7662 H   0  0  0  0  0  0  0  0  0  0  0  0
   -0.2496    2.7162    1.2952 H   0  0  0  0  0  0  0  0  0  0  0  0
  1  2  1  0
  1  4  1  0
  1  5  1  0
  1  6  1  0
  2  3  2  3
  2  7  1  0
  3 20  1  0
  8  9  1  0
  8 15  1  0
  8 16  1  0
  8 17  1  0
  9 10  2  3
  9 18  1  0
 10 11  1  0
 10 19  1  0
 11 12  1  0
 12 14  1  0
 12 13  1  0
 13 21  1  0
 14 22  1  0
 14 23  1  0
 14 24  1  0
M  RAD  1  13   2
M  END
>  <reaction>  (14) 
rmg_rxn_16791

>  <mol_properties>  (14) 
{"1": {"label": "*4", "atom_type": "Cd"}, "2": {"label": "*3", "atom_type": "N3d"}, "11": {"label": "*0", "atom_type": "N3s"}, "12": {"label": "*1", "atom_type": "N3s"}, "19": {"label": "*2", "atom_type": "H0"}}

>  <type>  (14) 
unop_10

>  <geom_source>  (14) 
Heuristics

$$$$

     RDKit          3D

 24 22  0  0  0  0  0  0  0  0999 V2000
   -2.9190   -1.2398   -0.7173 C   0  0  0  0  0  0  0  0  0  0  0  0
   -1.8708   -0.4112   -0.0473 C   0  0  0  0  0  0  0  0  0  0  0  0
   -2.1770    0.6522    0.6150 N   0  0  0  0  0  2  0  0  0  0  0  0
   -2.7039   -1.2842   -1.7880 H   0  0  0  0  0  0  0  0  0  0  0  0
   -3.8917   -0.7620   -0.5755 H   0  0  0  0  0  0  0  0  0  0  0  0
   -2.9423   -2.2511   -0.3045 H   0  0  0  0  0  0  0  0  0  0  0  0
   -0.8228   -0.7421   -0.1394 H   0  0  0  0  0  0  0  0  0  0  0  0
    0.9725   -2.0645   -1.9630 C   0  0  0  0  0  0  0  0  0  0  0  0
    0.9725   -2.0645   -0.4695 C   0  0  0  0  0  0  0  0  0  0  0  0
    0.9725   -0.9716    0.3044 C   0  0  0  0  0  0  0  0  0  0  0  0
    0.9726    0.3072   -0.1962 O   0  0  0  0  0  0  0  0  0  0  0  0
    0.9810    1.2448    0.9207 N   0  0  0  0  0  0  0  0  0  0  0  0
   -0.1910    2.0750    0.8843 N   0  0  0  0  0  0  0  0  0  0  0  0
    2.1572    2.0864    0.6724 C   0  0  0  0  0  0  0  0  0  0  0  0
    1.8592   -2.5879   -2.3337 H   0  0  0  0  0  0  0  0  0  0  0  0
    0.9728   -1.0555   -2.3861 H   0  0  0  0  0  0  0  0  0  0  0  0
    0.0857   -2.5875   -2.3338 H   0  0  0  0  0  0  0  0  0  0  0  0
    0.9725   -3.0388    0.0127 H   0  0  0  0  0  0  0  0  0  0  0  0
    0.9721   -1.0336    1.3850 H   0  0  0  0  0  0  0  0  0  0  0  0
   -1.1816    1.3653    0.7500 H   0  0  0  0  0  0  0  0  0  0  0  0
   -0.3133    2.5436    1.7837 H   0  0  0  0  0  0  0  0  0  0  0  0
    2.1069    2.5949   -0.2980 H   0  0  0  0  0  0  0  0  0  0  0  0
    3.0677    1.4773    0.6942 H   0  0  0  0  0  0  0  0  0  0  0  0
    2.2617    2.8444    1.4571 H   0  0  0  0  0  0  0  0  0  0  0  0
  1  2  1  0
  1  4  1  0
  1  5  1  0
  1  6  1  0
  2  3  2  0
  2  7  1  0
  8  9  1  0
  8 15  1  0
  8 16  1  0
  8 17  1  0
  9 10  2  3
  9 18  1  0
 10 11  1  0
 10 19  1  0
 11 12  1  0
 12 14  1  0
 12 13  1  0
 13 20  1  0
 13 21  1  0
 14 22  1  0
 14 23  1  0
 14 24  1  0
M  RAD  1   3   2
M  END
>  <reaction>  (15) 
rmg_rxn_16791

>  <mol_properties>  (15) 
{"1": {"label": "*4", "atom_type": "Cd"}, "2": {"label": "*3", "atom_type": "N3d"}, "11": {"label": "*0", "atom_type": "N3s"}, "12": {"label": "*1", "atom_type": "N3s"}, "19": {"label": "*2", "atom_type": "H0"}}

>  <type>  (15) 
unop_11

>  <geom_source>  (15) 
Heuristics

$$$$

     RDKit          3D

 24 22  0  0  0  0  0  0  0  0999 V2000
   -3.4846   -0.7023    1.6743 C   0  0  0  0  0  0  0  0  0  0  0  0
   -2.1578   -0.2596    1.1473 C   0  0  0  0  0  0  0  0  0  0  0  0
   -2.0686    0.5642    0.1591 N   0  0  0  0  0  2  0  0  0  0  0  0
   -3.5522   -1.7902    1.5933 H   0  0  0  0  0  0  0  0  0  0  0  0
   -4.2742   -0.2565    1.0641 H   0  0  0  0  0  0  0  0  0  0  0  0
   -3.6120   -0.4024    2.7172 H   0  0  0  0  0  0  0  0  0  0  0  0
   -1.2547   -0.6634    1.6347 H   0  0  0  0  0  0  0  0  0  0  0  0
    1.0809   -2.1524   -2.4189 C   0  0  0  0  0  0  0  0  0  0  0  0
    1.0809   -2.1524   -0.9254 C   0  0  0  0  0  0  0  0  0  0  0  0
    1.0809   -1.0595   -0.1515 C   0  0  0  0  0  0  0  0  0  0  0  0
    1.0810    0.2192   -0.6521 O   0  0  0  0  0  0  0  0  0  0  0  0
    1.0894    1.1569    0.4648 N   0  0  0  0  0  0  0  0  0  0  0  0
   -0.0826    1.9870    0.4284 N   0  0  0  0  0  0  0  0  0  0  0  0
    2.2655    1.9984    0.2164 C   0  0  0  0  0  0  0  0  0  0  0  0
    1.9676   -2.6759   -2.7897 H   0  0  0  0  0  0  0  0  0  0  0  0
    1.0812   -1.1435   -2.8420 H   0  0  0  0  0  0  0  0  0  0  0  0
    0.1941   -2.6755   -2.7897 H   0  0  0  0  0  0  0  0  0  0  0  0
    1.0809   -3.1267   -0.4433 H   0  0  0  0  0  0  0  0  0  0  0  0
    1.0805   -1.1215    0.9290 H   0  0  0  0  0  0  0  0  0  0  0  0
   -1.0732    1.2774    0.2941 H   0  0  0  0  0  0  0  0  0  0  0  0
   -0.2049    2.4556    1.3277 H   0  0  0  0  0  0  0  0  0  0  0  0
    2.2153    2.5069   -0.7539 H   0  0  0  0  0  0  0  0  0  0  0  0
    3.1761    1.3893    0.2383 H   0  0  0  0  0  0  0  0  0  0  0  0
    2.3701    2.7564    1.0011 H   0  0  0  0  0  0  0  0  0  0  0  0
  1  2  1  0
  1  4  1  0
  1  5  1  0
  1  6  1  0
  2  3  2  0
  2  7  1  0
  8  9  1  0
  8 15  1  0
  8 16  1  0
  8 17  1  0
  9 10  2  3
  9 18  1  0
 10 11  1  0
 10 19  1  0
 11 12  1  0
 12 14  1  0
 12 13  1  0
 13 20  1  0
 13 21  1  0
 14 22  1  0
 14 23  1  0
 14 24  1  0
M  RAD  1   3   2
M  END
>  <reaction>  (16) 
rmg_rxn_16791

>  <mol_properties>  (16) 
{"1": {"label": "*4", "atom_type": "Cd"}, "2": {"label": "*3", "atom_type": "N3d"}, "11": {"label": "*0", "atom_type": "N3s"}, "12": {"label": "*1", "atom_type": "N3s"}, "19": {"label": "*2", "atom_type": "H0"}}

>  <type>  (16) 
unop_12

>  <geom_source>  (16) 
Heuristics

$$$$

     RDKit          3D

 24 22  0  0  0  0  0  0  0  0999 V2000
   -4.2578    0.6210    0.1155 C   0  0  0  0  0  0  0  0  0  0  0  0
   -2.8078    0.8937   -0.1237 C   0  0  0  0  0  0  0  0  0  0  0  0
   -1.8894    0.2522    0.5151 N   0  0  0  0  0  2  0  0  0  0  0  0
   -4.7409    1.5431    0.4487 H   0  0  0  0  0  0  0  0  0  0  0  0
   -4.3512   -0.1281    0.9058 H   0  0  0  0  0  0  0  0  0  0  0  0
   -4.7437    0.2590   -0.7937 H   0  0  0  0  0  0  0  0  0  0  0  0
   -2.5498    1.6654   -0.8683 H   0  0  0  0  0  0  0  0  0  0  0  0
    1.2601   -2.4644   -2.0629 C   0  0  0  0  0  0  0  0  0  0  0  0
    1.2601   -2.4644   -0.5693 C   0  0  0  0  0  0  0  0  0  0  0  0
    1.2601   -1.3716    0.2045 C   0  0  0  0  0  0  0  0  0  0  0  0
    1.2601   -0.0928   -0.2960 O   0  0  0  0  0  0  0  0  0  0  0  0
    1.2685    0.8448    0.8208 N   0  0  0  0  0  0  0  0  0  0  0  0
    0.0966    1.6750    0.7844 N   0  0  0  0  0  0  0  0  0  0  0  0
    2.4447    1.6864    0.5725 C   0  0  0  0  0  0  0  0  0  0  0  0
    2.1467   -2.9879   -2.4336 H   0  0  0  0  0  0  0  0  0  0  0  0
    1.2604   -1.4555   -2.4859 H   0  0  0  0  0  0  0  0  0  0  0  0
    0.3733   -2.9875   -2.4336 H   0  0  0  0  0  0  0  0  0  0  0  0
    1.2601   -3.4388   -0.0872 H   0  0  0  0  0  0  0  0  0  0  0  0
    1.2597   -1.4335    1.2851 H   0  0  0  0  0  0  0  0  0  0  0  0
   -0.8940    0.9653    0.6501 H   0  0  0  0  0  0  0  0  0  0  0  0
   -0.0257    2.1436    1.6838 H   0  0  0  0  0  0  0  0  0  0  0  0
    2.3944    2.1949   -0.3979 H   0  0  0  0  0  0  0  0  0  0  0  0
    3.3553    1.0773    0.5943 H   0  0  0  0  0  0  0  0  0  0  0  0
    2.5493    2.4444    1.3572 H   0  0  0  0  0  0  0  0  0  0  0  0
  1  2  1  0
  1  4  1  0
  1  5  1  0
  1  6  1  0
  2  3  2  0
  2  7  1  0
  8  9  1  0
  8 15  1  0
  8 16  1  0
  8 17  1  0
  9 10  2  3
  9 18  1  0
 10 11  1  0
 10 19  1  0
 11 12  1  0
 12 14  1  0
 12 13  1  0
 13 20  1  0
 13 21  1  0
 14 22  1  0
 14 23  1  0
 14 24  1  0
M  RAD  1   3   2
M  END
>  <reaction>  (17) 
rmg_rxn_16791

>  <mol_properties>  (17) 
{"1": {"label": "*4", "atom_type": "Cd"}, "2": {"label": "*3", "atom_type": "N3d"}, "11": {"label": "*0", "atom_type": "N3s"}, "12": {"label": "*1", "atom_type": "N3s"}, "19": {"label": "*2", "atom_type": "H0"}}

>  <type>  (17) 
unop_13

>  <geom_source>  (17) 
Heuristics

$$$$

     RDKit          3D

 24 22  0  0  0  0  0  0  0  0999 V2000
   -2.8504   -1.6129    0.2162 C   0  0  0  0  0  0  0  0  0  0  0  0
   -1.8389   -0.5248    0.3800 C   0  0  0  0  0  0  0  0  0  0  0  0
   -2.1898    0.7147    0.4418 N   0  0  0  0  0  2  0  0  0  0  0  0
   -2.6280   -2.1677   -0.6988 H   0  0  0  0  0  0  0  0  0  0  0  0
   -3.8417   -1.1628    0.1201 H   0  0  0  0  0  0  0  0  0  0  0  0
   -2.8364   -2.2930    1.0713 H   0  0  0  0  0  0  0  0  0  0  0  0
   -0.7783   -0.8198    0.4464 H   0  0  0  0  0  0  0  0  0  0  0  0
    0.9598   -2.0020   -2.1362 C   0  0  0  0  0  0  0  0  0  0  0  0
    0.9598   -2.0020   -0.6427 C   0  0  0  0  0  0  0  0  0  0  0  0
    0.9598   -0.9091    0.1312 C   0  0  0  0  0  0  0  0  0  0  0  0
    0.9598    0.3697   -0.3694 O   0  0  0  0  0  0  0  0  0  0  0  0
    0.9682    1.3073    0.7475 N   0  0  0  0  0  0  0  0  0  0  0  0
   -0.2038    2.1375    0.7111 N   0  0  0  0  0  0  0  0  0  0  0  0
    2.1444    2.1489    0.4992 C   0  0  0  0  0  0  0  0  0  0  0  0
    1.8464   -2.5254   -2.5069 H   0  0  0  0  0  0  0  0  0  0  0  0
    0.9600   -0.9930   -2.5593 H   0  0  0  0  0  0  0  0  0  0  0  0
    0.0729   -2.5250   -2.5070 H   0  0  0  0  0  0  0  0  0  0  0  0
    0.9597   -2.9763   -0.1605 H   0  0  0  0  0  0  0  0  0  0  0  0
    0.9593   -0.9711    1.2118 H   0  0  0  0  0  0  0  0  0  0  0  0
   -1.1943    1.4278    0.5768 H   0  0  0  0  0  0  0  0  0  0  0  0
   -0.3260    2.6061    1.6105 H   0  0  0  0  0  0  0  0  0  0  0  0
    2.0941    2.6574   -0.4712 H   0  0  0  0  0  0  0  0  0  0  0  0
    3.0549    1.5398    0.5210 H   0  0  0  0  0  0  0  0  0  0  0  0
    2.2489    2.9069    1.2839 H   0  0  0  0  0  0  0  0  0  0  0  0
  1  2  1  0
  1  4  1  0
  1  5  1  0
  1  6  1  0
  2  3  2  0
  2  7  1  0
  8  9  1  0
  8 15  1  0
  8 16  1  0
  8 17  1  0
  9 10  2  3
  9 18  1  0
 10 11  1  0
 10 19  1  0
 11 12  1  0
 12 14  1  0
 12 13  1  0
 13 20  1  0
 13 21  1  0
 14 22  1  0
 14 23  1  0
 14 24  1  0
M  RAD  1   3   2
M  END
>  <reaction>  (18) 
rmg_rxn_16791

>  <mol_properties>  (18) 
{"1": {"label": "*4", "atom_type": "Cd"}, "2": {"label": "*3", "atom_type": "N3d"}, "11": {"label": "*0", "atom_type": "N3s"}, "12": {"label": "*1", "atom_type": "N3s"}, "19": {"label": "*2", "atom_type": "H0"}}

>  <type>  (18) 
unop_14

>  <geom_source>  (18) 
Heuristics

$$$$

     RDKit          3D

 24 22  0  0  0  0  0  0  0  0999 V2000
   -3.0757   -1.3780    1.1699 C   0  0  0  0  0  0  0  0  0  0  0  0
   -1.9418   -0.4737    0.8082 C   0  0  0  0  0  0  0  0  0  0  0  0
   -2.1480    0.6780    0.2658 N   0  0  0  0  0  2  0  0  0  0  0  0
   -2.9590   -2.3233    0.6339 H   0  0  0  0  0  0  0  0  0  0  0  0
   -4.0134   -0.9120    0.8569 H   0  0  0  0  0  0  0  0  0  0  0  0
   -3.0993   -1.5657    2.2460 H   0  0  0  0  0  0  0  0  0  0  0  0
   -0.9192   -0.8270    1.0220 H   0  0  0  0  0  0  0  0  0  0  0  0
    1.0015   -2.0386   -2.3122 C   0  0  0  0  0  0  0  0  0  0  0  0
    1.0015   -2.0386   -0.8186 C   0  0  0  0  0  0  0  0  0  0  0  0
    1.0015   -0.9457   -0.0448 C   0  0  0  0  0  0  0  0  0  0  0  0
    1.0016    0.3331   -0.5454 O   0  0  0  0  0  0  0  0  0  0  0  0
    1.0100    1.2707    0.5715 N   0  0  0  0  0  0  0  0  0  0  0  0
   -0.1620    2.1009    0.5351 N   0  0  0  0  0  0  0  0  0  0  0  0
    2.1862    2.1122    0.3231 C   0  0  0  0  0  0  0  0  0  0  0  0
    1.8882   -2.5621   -2.6829 H   0  0  0  0  0  0  0  0  0  0  0  0
    1.0018   -1.0297   -2.7353 H   0  0  0  0  0  0  0  0  0  0  0  0
    0.1147   -2.5616   -2.6830 H   0  0  0  0  0  0  0  0  0  0  0  0
    1.0015   -3.0129   -0.3365 H   0  0  0  0  0  0  0  0  0  0  0  0
    1.0011   -1.0077    1.0358 H   0  0  0  0  0  0  0  0  0  0  0  0
   -1.1525    1.3912    0.4008 H   0  0  0  0  0  0  0  0  0  0  0  0
   -0.2843    2.5694    1.4345 H   0  0  0  0  0  0  0  0  0  0  0  0
    2.1359    2.6207   -0.6472 H   0  0  0  0  0  0  0  0  0  0  0  0
    3.0967    1.5032    0.3450 H   0  0  0  0  0  0  0  0  0  0  0  0
    2.2907    2.8702    1.1079 H   0  0  0  0  0  0  0  0  0  0  0  0
  1  2  1  0
  1  4  1  0
  1  5  1  0
  1  6  1  0
  2  3  2  0
  2  7  1  0
  8  9  1  0
  8 15  1  0
  8 16  1  0
  8 17  1  0
  9 10  2  3
  9 18  1  0
 10 11  1  0
 10 19  1  0
 11 12  1  0
 12 14  1  0
 12 13  1  0
 13 20  1  0
 13 21  1  0
 14 22  1  0
 14 23  1  0
 14 24  1  0
M  RAD  1   3   2
M  END
>  <reaction>  (19) 
rmg_rxn_16791

>  <mol_properties>  (19) 
{"1": {"label": "*4", "atom_type": "Cd"}, "2": {"label": "*3", "atom_type": "N3d"}, "11": {"label": "*0", "atom_type": "N3s"}, "12": {"label": "*1", "atom_type": "N3s"}, "19": {"label": "*2", "atom_type": "H0"}}

>  <type>  (19) 
unop_15

>  <geom_source>  (19) 
gaussian_log

$$$$
