
     RDKit          3D

 10  9  0  0  0  0  0  0  0  0999 V2000
   -1.1238    0.2714    0.2496 C   0  0  0  0  0  0  0  0  0  0  0  0
    0.0881   -0.5850   -0.0680 C   0  0  0  0  0  0  0  0  0  0  0  0
   -0.0512   -1.4242   -1.3070 C   0  0  0  0  0  0  0  0  0  0  0  0
   -1.0187   -1.4480   -2.0158 O   0  0  0  0  0  0  0  0  0  0  0  0
   -2.0096   -0.3470    0.3939 H   0  0  0  0  0  0  0  0  0  0  0  0
   -0.9564    0.8523    1.1567 H   0  0  0  0  0  0  0  0  0  0  0  0
   -1.3376    0.9606   -0.5673 H   0  0  0  0  0  0  0  0  0  0  0  0
    0.3267   -1.2715    0.7528 H   0  0  0  0  0  0  0  0  0  0  0  0
    0.9917    0.0222   -0.1983 H   0  0  0  0  0  0  0  0  0  0  0  0
    0.8330   -2.0534   -1.5447 H   0  0  0  0  0  0  0  0  0  0  0  0
  1  2  1  0
  1  5  1  0
  1  6  1  0
  1  7  1  0
  2  3  1  0
  2  8  1  0
  2  9  1  0
  3  4  2  0
  3 10  1  0
M  END
>  <reaction>  (1) 
rmg_rxn_15504

>  <mol_properties>  (1) 
{"1": {"label": "donator", "atom_type": "Cs"}, "7": {"label": "d_hydrogen", "atom_type": "H0"}}

>  <type>  (1) 
r1h

$$$$

     RDKit          3D

  5  4  0  0  0  0  0  0  0  0999 V2000
    0.8934    0.3742    0.4948 O   0  0  0  0  0  0  0  0  0  0  0  0
    0.1582   -0.1610   -0.5904 N   0  0  0  0  0  0  0  0  0  0  0  0
   -1.0297   -0.3739   -0.4689 C   0  0  0  0  0  3  0  0  0  0  0  0
    1.7804    0.4382    0.1306 H   0  0  0  0  0  0  0  0  0  0  0  0
   -1.8023   -0.2775    0.2859 H   0  0  0  0  0  0  0  0  0  0  0  0
  1  2  1  0
  1  4  1  0
  2  3  2  3
  3  5  1  0
M  RAD  1   3   2
M  END
>  <reaction>  (2) 
rmg_rxn_15504

>  <mol_properties>  (2) 
{"2": {"label": "acceptor", "atom_type": "Cd"}}

>  <type>  (2) 
r2

$$$$

     RDKit          3D

  6  5  0  0  0  0  0  0  0  0999 V2000
    1.2314    0.0428    0.5088 O   0  0  0  0  0  0  0  0  0  0  0  0
    0.2987    0.2341   -0.4915 N   0  0  0  0  0  0  0  0  0  0  0  0
   -0.8599   -0.1122   -0.1290 C   0  0  0  0  0  0  0  0  0  0  0  0
    2.0507    0.3401    0.1082 H   0  0  0  0  0  0  0  0  0  0  0  0
   -1.0700   -0.5112    0.8610 H   0  0  0  0  0  0  0  0  0  0  0  0
   -1.6509    0.0064   -0.8574 H   0  0  0  0  0  0  0  0  0  0  0  0
  1  2  1  0
  1  4  1  0
  2  3  2  3
  3  5  1  0
  3  6  1  0
M  END
>  <reaction>  (3) 
rmg_rxn_15504

>  <mol_properties>  (3) 
{"2": {"label": "acceptor", "atom_type": "Cd"}, "5": {"label": "a_hydrogen", "atom_type": "H0"}}

>  <type>  (3) 
r2h

$$$$

     RDKit          3D

 15 13  0  0  0  0  0  0  0  0999 V2000
    2.4667   -2.3511    0.3886 O   0  0  0  0  0  0  0  0  0  0  0  0
    1.2658   -1.7125    0.0722 N   0  0  0  0  0  0  0  0  0  0  0  0
    0.9417   -0.7916    0.8316 C   0  0  0  0  0  3  0  0  0  0  0  0
    2.5458   -3.0129   -0.3030 H   0  0  0  0  0  0  0  0  0  0  0  0
    1.4418   -0.3893    1.7110 H   0  0  0  0  0  0  0  0  0  0  0  0
   -1.0799    0.3212   -1.6001 C   0  0  0  0  0  0  0  0  0  0  0  0
   -1.3562    0.2862   -0.1199 C   0  0  0  0  0  0  0  0  0  0  0  0
   -1.5791    1.5836    0.5615 C   0  0  0  0  0  0  0  0  0  0  0  0
   -1.3311    2.6598    0.0811 O   0  0  0  0  0  0  0  0  0  0  0  0
   -0.3254    1.0718   -1.8325 H   0  0  0  0  0  0  0  0  0  0  0  0
   -0.7274   -0.6513   -1.9440 H   0  0  0  0  0  0  0  0  0  0  0  0
   -1.9845    0.5774   -2.1559 H   0  0  0  0  0  0  0  0  0  0  0  0
   -0.3257   -0.1442    0.4231 H   0  0  0  0  0  0  0  0  0  0  0  0
   -2.0867   -0.4616    0.1936 H   0  0  0  0  0  0  0  0  0  0  0  0
   -1.9711    1.5099    1.5971 H   0  0  0  0  0  0  0  0  0  0  0  0
  1  2  1  0
  1  4  1  0
  2  3  2  3
  3  5  1  0
  6  7  1  0
  6 10  1  0
  6 11  1  0
  6 12  1  0
  7  8  1  0
  7 13  1  0
  7 14  1  0
  8  9  2  0
  8 15  1  0
M  RAD  1   3   2
M  END
>  <reaction>  (4) 
rmg_rxn_15504

>  <mol_properties>  (4) 
{"1": {"label": "*4", "atom_type": "N3d"}, "2": {"label": "*3", "atom_type": "Cd"}, "6": {"label": "*1", "atom_type": "Cs"}, "7": {"label": "*0", "atom_type": "CO"}, "12": {"label": "*2", "atom_type": "H0"}}

>  <type>  (4) 
ts

$$$$

     RDKit          3D

 15 13  0  0  0  0  0  0  0  0999 V2000
    3.3214    0.1915   -0.2729 O   0  0  0  0  0  0  0  0  0  0  0  0
    1.9957   -0.1376   -0.0095 N   0  0  0  0  0  0  0  0  0  0  0  0
    1.1777    0.7279    0.3300 C   0  0  0  0  0  0  0  0  0  0  0  0
    3.7412   -0.6433   -0.5271 H   0  0  0  0  0  0  0  0  0  0  0  0
    1.3000    1.7934    0.4716 H   0  0  0  0  0  0  0  0  0  0  0  0
   -0.9884   -1.5991   -0.2088 C   0  0  0  0  0  0  0  0  0  0  0  0
   -1.1475   -0.4201    0.7047 C   0  0  0  0  0  0  0  0  0  0  0  0
   -2.1549    0.5639    0.3601 C   0  0  0  0  0  0  0  0  0  0  0  0
   -2.6494    0.7068   -0.7421 O   0  0  0  0  0  1  0  0  0  0  0  0
    0.0229   -1.9979   -0.1543 H   0  0  0  0  0  0  0  0  0  0  0  0
   -1.6830   -2.3912    0.0737 H   0  0  0  0  0  0  0  0  0  0  0  0
   -1.2079   -1.2987   -1.2306 H   0  0  0  0  0  0  0  0  0  0  0  0
    0.0186    0.2561    0.5163 H   0  0  0  0  0  0  0  0  0  0  0  0
   -1.0558   -0.6344    1.7660 H   0  0  0  0  0  0  0  0  0  0  0  0
   -2.4375    1.2368    1.1942 H   0  0  0  0  0  0  0  0  0  0  0  0
  1  2  1  0
  1  4  1  0
  2  3  2  3
  3  5  1  0
  3 13  1  0
  6  7  1  0
  6 10  1  0
  6 11  1  0
  6 12  1  0
  7  8  2  3
  7 14  1  0
  8  9  1  0
  8 15  1  0
M  RAD  1   9   2
M  END
>  <reaction>  (5) 
rmg_rxn_15504

>  <mol_properties>  (5) 
{"1": {"label": "*4", "atom_type": "N3d"}, "2": {"label": "*3", "atom_type": "Cd"}, "6": {"label": "*1", "atom_type": "Cs"}, "7": {"label": "*0", "atom_type": "CO"}, "12": {"label": "*2", "atom_type": "H0"}}

>  <type>  (5) 
unop_1

>  <geom_source>  (5) 
crest_best.xyz

$$$$

     RDKit          3D

 15 13  0  0  0  0  0  0  0  0999 V2000
    2.0473   -1.3815    2.1182 O   0  0  0  0  0  0  0  0  0  0  0  0
    1.6501   -0.6707    1.0028 N   0  0  0  0  0  0  0  0  0  0  0  0
    0.8710   -1.3403    0.2692 C   0  0  0  0  0  0  0  0  0  0  0  0
    2.6240   -0.7685    2.5784 H   0  0  0  0  0  0  0  0  0  0  0  0
    0.5650   -2.3558    0.5116 H   0  0  0  0  0  0  0  0  0  0  0  0
   -1.2008   -0.0744   -2.2167 C   0  0  0  0  0  0  0  0  0  0  0  0
   -1.2008   -0.0744   -0.6991 C   0  0  0  0  0  0  0  0  0  0  0  0
   -1.2008    1.2940   -0.0774 C   0  0  0  0  0  0  0  0  0  0  0  0
   -1.2008    2.3263   -0.6883 O   0  0  0  0  0  1  0  0  0  0  0  0
   -0.3225    0.4409   -2.6054 H   0  0  0  0  0  0  0  0  0  0  0  0
   -1.2008   -1.0946   -2.6007 H   0  0  0  0  0  0  0  0  0  0  0  0
   -2.0790    0.4409   -2.6054 H   0  0  0  0  0  0  0  0  0  0  0  0
   -0.1580   -0.7116   -0.2117 H   0  0  0  0  0  0  0  0  0  0  0  0
   -2.0698   -0.6054   -0.2929 H   0  0  0  0  0  0  0  0  0  0  0  0
   -1.2008    1.3004    1.0334 H   0  0  0  0  0  0  0  0  0  0  0  0
  1  2  1  0
  1  4  1  0
  2  3  2  3
  3  5  1  0
  3 13  1  0
  6  7  1  0
  6 10  1  0
  6 11  1  0
  6 12  1  0
  7  8  2  3
  7 14  1  0
  8  9  1  0
  8 15  1  0
M  RAD  1   9   2
M  END
>  <reaction>  (6) 
rmg_rxn_15504

>  <mol_properties>  (6) 
{"1": {"label": "*4", "atom_type": "N3d"}, "2": {"label": "*3", "atom_type": "Cd"}, "6": {"label": "*1", "atom_type": "Cs"}, "7": {"label": "*0", "atom_type": "CO"}, "12": {"label": "*2", "atom_type": "H0"}}

>  <type>  (6) 
unop_2

>  <geom_source>  (6) 
Heuristics

$$$$

     RDKit          3D

 15 13  0  0  0  0  0  0  0  0999 V2000
    2.8328   -1.5212    0.8108 O   0  0  0  0  0  0  0  0  0  0  0  0
    1.7151   -1.1885    0.0711 N   0  0  0  0  0  0  0  0  0  0  0  0
    0.6639   -1.2076    0.7698 C   0  0  0  0  0  0  0  0  0  0  0  0
    3.5458   -1.4688    0.1713 H   0  0  0  0  0  0  0  0  0  0  0  0
    0.6674   -1.4601    1.8280 H   0  0  0  0  0  0  0  0  0  0  0  0
   -1.4079    0.0582   -1.7161 C   0  0  0  0  0  0  0  0  0  0  0  0
   -1.4079    0.0582   -0.1986 C   0  0  0  0  0  0  0  0  0  0  0  0
   -1.4079    1.4266    0.4231 C   0  0  0  0  0  0  0  0  0  0  0  0
   -1.4079    2.4590   -0.1878 O   0  0  0  0  0  1  0  0  0  0  0  0
   -0.5296    0.5735   -2.1049 H   0  0  0  0  0  0  0  0  0  0  0  0
   -1.4079   -0.9620   -2.1001 H   0  0  0  0  0  0  0  0  0  0  0  0
   -2.2861    0.5735   -2.1048 H   0  0  0  0  0  0  0  0  0  0  0  0
   -0.3651   -0.5789    0.2888 H   0  0  0  0  0  0  0  0  0  0  0  0
   -2.2769   -0.4728    0.2076 H   0  0  0  0  0  0  0  0  0  0  0  0
   -1.4079    1.4330    1.5340 H   0  0  0  0  0  0  0  0  0  0  0  0
  1  2  1  0
  1  4  1  0
  2  3  2  3
  3  5  1  0
  3 13  1  0
  6  7  1  0
  6 10  1  0
  6 11  1  0
  6 12  1  0
  7  8  2  3
  7 14  1  0
  8  9  1  0
  8 15  1  0
M  RAD  1   9   2
M  END
>  <reaction>  (7) 
rmg_rxn_15504

>  <mol_properties>  (7) 
{"1": {"label": "*4", "atom_type": "N3d"}, "2": {"label": "*3", "atom_type": "Cd"}, "6": {"label": "*1", "atom_type": "Cs"}, "7": {"label": "*0", "atom_type": "CO"}, "12": {"label": "*2", "atom_type": "H0"}}

>  <type>  (7) 
unop_3

>  <geom_source>  (7) 
Heuristics

$$$$

     RDKit          3D

 15 13  0  0  0  0  0  0  0  0999 V2000
    1.9096   -1.8405    2.0821 O   0  0  0  0  0  0  0  0  0  0  0  0
    1.3879   -0.8043    1.3331 N   0  0  0  0  0  0  0  0  0  0  0  0
    0.9548   -1.2011    0.2157 C   0  0  0  0  0  0  0  0  0  0  0  0
    2.1966   -1.4086    2.8891 H   0  0  0  0  0  0  0  0  0  0  0  0
    1.0000   -2.2429   -0.0946 H   0  0  0  0  0  0  0  0  0  0  0  0
   -1.1170    0.0647   -2.2702 C   0  0  0  0  0  0  0  0  0  0  0  0
   -1.1170    0.0647   -0.7527 C   0  0  0  0  0  0  0  0  0  0  0  0
   -1.1170    1.4331   -0.1310 C   0  0  0  0  0  0  0  0  0  0  0  0
   -1.1170    2.4655   -0.7419 O   0  0  0  0  0  1  0  0  0  0  0  0
   -0.2388    0.5800   -2.6589 H   0  0  0  0  0  0  0  0  0  0  0  0
   -1.1170   -0.9555   -2.6542 H   0  0  0  0  0  0  0  0  0  0  0  0
   -1.9952    0.5800   -2.6589 H   0  0  0  0  0  0  0  0  0  0  0  0
   -0.0742   -0.5724   -0.2652 H   0  0  0  0  0  0  0  0  0  0  0  0
   -1.9860   -0.4662   -0.3465 H   0  0  0  0  0  0  0  0  0  0  0  0
   -1.1170    1.4396    0.9799 H   0  0  0  0  0  0  0  0  0  0  0  0
  1  2  1  0
  1  4  1  0
  2  3  2  3
  3  5  1  0
  3 13  1  0
  6  7  1  0
  6 10  1  0
  6 11  1  0
  6 12  1  0
  7  8  2  3
  7 14  1  0
  8  9  1  0
  8 15  1  0
M  RAD  1   9   2
M  END
>  <reaction>  (8) 
rmg_rxn_15504

>  <mol_properties>  (8) 
{"1": {"label": "*4", "atom_type": "N3d"}, "2": {"label": "*3", "atom_type": "Cd"}, "6": {"label": "*1", "atom_type": "Cs"}, "7": {"label": "*0", "atom_type": "CO"}, "12": {"label": "*2", "atom_type": "H0"}}

>  <type>  (8) 
unop_4

>  <geom_source>  (8) 
Heuristics

$$$$

     RDKit          3D

 15 13  0  0  0  0  0  0  0  0999 V2000
    1.7517   -2.7165    1.2957 O   0  0  0  0  0  0  0  0  0  0  0  0
    1.1547   -1.9786    0.2927 N   0  0  0  0  0  0  0  0  0  0  0  0
    1.0381   -0.7617    0.6076 C   0  0  0  0  0  0  0  0  0  0  0  0
    1.7780   -3.6040    0.9327 H   0  0  0  0  0  0  0  0  0  0  0  0
    1.3768   -0.3681    1.5636 H   0  0  0  0  0  0  0  0  0  0  0  0
   -1.0337    0.5041   -1.8783 C   0  0  0  0  0  0  0  0  0  0  0  0
   -1.0337    0.5041   -0.3608 C   0  0  0  0  0  0  0  0  0  0  0  0
   -1.0337    1.8725    0.2609 C   0  0  0  0  0  0  0  0  0  0  0  0
   -1.0337    2.9049   -0.3500 O   0  0  0  0  0  1  0  0  0  0  0  0
   -0.1555    1.0195   -2.2670 H   0  0  0  0  0  0  0  0  0  0  0  0
   -1.0337   -0.5161   -2.2623 H   0  0  0  0  0  0  0  0  0  0  0  0
   -1.9119    1.0195   -2.2670 H   0  0  0  0  0  0  0  0  0  0  0  0
    0.0091   -0.1330    0.1266 H   0  0  0  0  0  0  0  0  0  0  0  0
   -1.9027   -0.0268    0.0454 H   0  0  0  0  0  0  0  0  0  0  0  0
   -1.0337    1.8790    1.3718 H   0  0  0  0  0  0  0  0  0  0  0  0
  1  2  1  0
  1  4  1  0
  2  3  2  3
  3  5  1  0
  3 13  1  0
  6  7  1  0
  6 10  1  0
  6 11  1  0
  6 12  1  0
  7  8  2  3
  7 14  1  0
  8  9  1  0
  8 15  1  0
M  RAD  1   9   2
M  END
>  <reaction>  (9) 
rmg_rxn_15504

>  <mol_properties>  (9) 
{"1": {"label": "*4", "atom_type": "N3d"}, "2": {"label": "*3", "atom_type": "Cd"}, "6": {"label": "*1", "atom_type": "Cs"}, "7": {"label": "*0", "atom_type": "CO"}, "12": {"label": "*2", "atom_type": "H0"}}

>  <type>  (9) 
unop_5

>  <geom_source>  (9) 
Heuristics

$$$$

     RDKit          3D

 15 13  0  0  0  0  0  0  0  0999 V2000
    3.3212    0.1912   -0.2729 O   0  0  0  0  0  0  0  0  0  0  0  0
    1.9950   -0.1373   -0.0113 N   0  0  0  0  0  0  0  0  0  0  0  0
    1.1781    0.7276    0.3319 C   0  0  0  0  0  0  0  0  0  0  0  0
    3.7401   -0.6431   -0.5304 H   0  0  0  0  0  0  0  0  0  0  0  0
    1.3015    1.7924    0.4785 H   0  0  0  0  0  0  0  0  0  0  0  0
   -0.9886   -1.5994   -0.2077 C   0  0  0  0  0  0  0  0  0  0  0  0
   -1.1477   -0.4197    0.7051 C   0  0  0  0  0  0  0  0  0  0  0  0
   -2.1547    0.5644    0.3594 C   0  0  0  0  0  0  0  0  0  0  0  0
   -2.6489    0.7067   -0.7429 O   0  0  0  0  0  1  0  0  0  0  0  0
   -1.6817   -2.3921    0.0765 H   0  0  0  0  0  0  0  0  0  0  0  0
   -1.2099   -1.3000   -1.2294 H   0  0  0  0  0  0  0  0  0  0  0  0
    0.0234   -1.9969   -0.1545 H   0  0  0  0  0  0  0  0  0  0  0  0
    0.0185    0.2562    0.5167 H   0  0  0  0  0  0  0  0  0  0  0  0
   -1.0566   -0.6334    1.7665 H   0  0  0  0  0  0  0  0  0  0  0  0
   -2.4371    1.2380    1.1930 H   0  0  0  0  0  0  0  0  0  0  0  0
  1  2  1  0
  1  4  1  0
  2  3  2  3
  3  5  1  0
  3 13  1  0
  6  7  1  0
  6 10  1  0
  6 11  1  0
  6 12  1  0
  7  8  2  3
  7 14  1  0
  8  9  1  0
  8 15  1  0
M  RAD  1   9   2
M  END
>  <reaction>  (10) 
rmg_rxn_15504

>  <mol_properties>  (10) 
{"1": {"label": "*4", "atom_type": "N3d"}, "2": {"label": "*3", "atom_type": "Cd"}, "6": {"label": "*1", "atom_type": "Cs"}, "7": {"label": "*0", "atom_type": "CO"}, "12": {"label": "*2", "atom_type": "H0"}}

>  <type>  (10) 
unop_6

>  <geom_source>  (10) 
Heuristics

$$$$

     RDKit          3D

 15 13  0  0  0  0  0  0  0  0999 V2000
    2.1718   -1.8673    1.8962 O   0  0  0  0  0  0  0  0  0  0  0  0
    1.0455   -1.1792    1.4900 N   0  0  0  0  0  0  0  0  0  0  0  0
    0.9545   -1.1236    0.2321 C   0  0  0  0  0  0  0  0  0  0  0  0
    2.1186   -1.8348    2.8534 H   0  0  0  0  0  0  0  0  0  0  0  0
    1.6912   -1.5737   -0.4298 H   0  0  0  0  0  0  0  0  0  0  0  0
   -1.1172    0.1423   -2.2538 C   0  0  0  0  0  0  0  0  0  0  0  0
   -1.1172    0.1423   -0.7362 C   0  0  0  0  0  0  0  0  0  0  0  0
   -1.1172    1.5107   -0.1145 C   0  0  0  0  0  0  0  0  0  0  0  0
   -1.1172    2.5430   -0.7254 O   0  0  0  0  0  1  0  0  0  0  0  0
   -0.2390    0.6576   -2.6425 H   0  0  0  0  0  0  0  0  0  0  0  0
   -1.1172   -0.8779   -2.6378 H   0  0  0  0  0  0  0  0  0  0  0  0
   -1.9955    0.6576   -2.6425 H   0  0  0  0  0  0  0  0  0  0  0  0
   -0.0744   -0.4949   -0.2488 H   0  0  0  0  0  0  0  0  0  0  0  0
   -1.9862   -0.3887   -0.3300 H   0  0  0  0  0  0  0  0  0  0  0  0
   -1.1172    1.5171    0.9963 H   0  0  0  0  0  0  0  0  0  0  0  0
  1  2  1  0
  1  4  1  0
  2  3  2  3
  3  5  1  0
  3 13  1  0
  6  7  1  0
  6 10  1  0
  6 11  1  0
  6 12  1  0
  7  8  2  3
  7 14  1  0
  8  9  1  0
  8 15  1  0
M  RAD  1   9   2
M  END
>  <reaction>  (11) 
rmg_rxn_15504

>  <mol_properties>  (11) 
{"1": {"label": "*4", "atom_type": "N3d"}, "2": {"label": "*3", "atom_type": "Cd"}, "6": {"label": "*1", "atom_type": "Cs"}, "7": {"label": "*0", "atom_type": "CO"}, "12": {"label": "*2", "atom_type": "H0"}}

>  <type>  (11) 
unop_7

>  <geom_source>  (11) 
Heuristics

$$$$

     RDKit          3D

 15 13  0  0  0  0  0  0  0  0999 V2000
    3.3207    0.1912   -0.2737 O   0  0  0  0  0  0  0  0  0  0  0  0
    1.9947   -0.1372   -0.0110 N   0  0  0  0  0  0  0  0  0  0  0  0
    1.1781    0.7276    0.3331 C   0  0  0  0  0  0  0  0  0  0  0  0
    3.7393   -0.6430   -0.5319 H   0  0  0  0  0  0  0  0  0  0  0  0
    1.3015    1.7923    0.4799 H   0  0  0  0  0  0  0  0  0  0  0  0
   -0.9881   -1.5993   -0.2076 C   0  0  0  0  0  0  0  0  0  0  0  0
   -1.1479   -0.4198    0.7053 C   0  0  0  0  0  0  0  0  0  0  0  0
   -2.1545    0.5645    0.3591 C   0  0  0  0  0  0  0  0  0  0  0  0
   -2.6485    0.7065   -0.7434 O   0  0  0  0  0  1  0  0  0  0  0  0
   -1.2072   -1.2994   -1.2296 H   0  0  0  0  0  0  0  0  0  0  0  0
    0.0234   -1.9977   -0.1525 H   0  0  0  0  0  0  0  0  0  0  0  0
   -1.6825   -2.3915    0.0750 H   0  0  0  0  0  0  0  0  0  0  0  0
    0.0185    0.2560    0.5181 H   0  0  0  0  0  0  0  0  0  0  0  0
   -1.0577   -0.6337    1.7668 H   0  0  0  0  0  0  0  0  0  0  0  0
   -2.4370    1.2384    1.1922 H   0  0  0  0  0  0  0  0  0  0  0  0
  1  2  1  0
  1  4  1  0
  2  3  2  3
  3  5  1  0
  3 13  1  0
  6  7  1  0
  6 10  1  0
  6 11  1  0
  6 12  1  0
  7  8  2  3
  7 14  1  0
  8  9  1  0
  8 15  1  0
M  RAD  1   9   2
M  END
>  <reaction>  (12) 
rmg_rxn_15504

>  <mol_properties>  (12) 
{"1": {"label": "*4", "atom_type": "N3d"}, "2": {"label": "*3", "atom_type": "Cd"}, "6": {"label": "*1", "atom_type": "Cs"}, "7": {"label": "*0", "atom_type": "CO"}, "12": {"label": "*2", "atom_type": "H0"}}

>  <type>  (12) 
unop_8

>  <geom_source>  (12) 
Heuristics

$$$$

     RDKit          3D

 15 13  0  0  0  0  0  0  0  0999 V2000
    1.5689   -2.4459    1.8099 O   0  0  0  0  0  0  0  0  0  0  0  0
    0.9764   -2.0519    0.6263 N   0  0  0  0  0  0  0  0  0  0  0  0
    1.1171   -0.8150    0.4170 C   0  0  0  0  0  0  0  0  0  0  0  0
    1.3906   -3.3877    1.8446 H   0  0  0  0  0  0  0  0  0  0  0  0
    1.6474   -0.1601    1.1051 H   0  0  0  0  0  0  0  0  0  0  0  0
   -0.9547    0.4509   -2.0690 C   0  0  0  0  0  0  0  0  0  0  0  0
   -0.9547    0.4509   -0.5514 C   0  0  0  0  0  0  0  0  0  0  0  0
   -0.9547    1.8193    0.0703 C   0  0  0  0  0  0  0  0  0  0  0  0
   -0.9547    2.8516   -0.5406 O   0  0  0  0  0  1  0  0  0  0  0  0
   -0.0764    0.9662   -2.4577 H   0  0  0  0  0  0  0  0  0  0  0  0
   -0.9547   -0.5694   -2.4530 H   0  0  0  0  0  0  0  0  0  0  0  0
   -1.8329    0.9662   -2.4577 H   0  0  0  0  0  0  0  0  0  0  0  0
    0.0881   -0.1863   -0.0640 H   0  0  0  0  0  0  0  0  0  0  0  0
   -1.8237   -0.0801   -0.1452 H   0  0  0  0  0  0  0  0  0  0  0  0
   -0.9547    1.8257    1.1811 H   0  0  0  0  0  0  0  0  0  0  0  0
  1  2  1  0
  1  4  1  0
  2  3  2  3
  3  5  1  0
  3 13  1  0
  6  7  1  0
  6 10  1  0
  6 11  1  0
  6 12  1  0
  7  8  2  3
  7 14  1  0
  8  9  1  0
  8 15  1  0
M  RAD  1   9   2
M  END
>  <reaction>  (13) 
rmg_rxn_15504

>  <mol_properties>  (13) 
{"1": {"label": "*4", "atom_type": "N3d"}, "2": {"label": "*3", "atom_type": "Cd"}, "6": {"label": "*1", "atom_type": "Cs"}, "7": {"label": "*0", "atom_type": "CO"}, "12": {"label": "*2", "atom_type": "H0"}}

>  <type>  (13) 
unop_9

>  <geom_source>  (13) 
Heuristics

$$$$

     RDKit          3D

 15 13  0  0  0  0  0  0  0  0999 V2000
    3.3357   -0.3467    0.1089 O   0  0  0  0  0  0  0  0  0  0  0  0
    2.0130    0.0638   -0.0312 N   0  0  0  0  0  0  0  0  0  0  0  0
    1.0929   -0.7618   -0.1029 C   0  0  0  0  0  0  0  0  0  0  0  0
    3.8506    0.4728    0.1422 H   0  0  0  0  0  0  0  0  0  0  0  0
    1.1097   -1.8427   -0.0766 H   0  0  0  0  0  0  0  0  0  0  0  0
   -0.7518    1.8827    0.0678 C   0  0  0  0  0  0  0  0  0  0  0  0
   -1.1717    0.5214   -0.3986 C   0  0  0  0  0  0  0  0  0  0  0  0
   -2.1634   -0.2043    0.3648 C   0  0  0  0  0  0  0  0  0  0  0  0
   -2.8138   -1.1456   -0.0501 O   0  0  0  0  0  1  0  0  0  0  0  0
   -1.4643    2.6354   -0.2720 H   0  0  0  0  0  0  0  0  0  0  0  0
   -0.7038    1.9216    1.1538 H   0  0  0  0  0  0  0  0  0  0  0  0
    0.2257    2.1392   -0.3364 H   0  0  0  0  0  0  0  0  0  0  0  0
   -0.0427   -0.2165   -0.2225 H   0  0  0  0  0  0  0  0  0  0  0  0
   -1.2777    0.4147   -1.4760 H   0  0  0  0  0  0  0  0  0  0  0  0
   -2.2773    0.1419    1.4111 H   0  0  0  0  0  0  0  0  0  0  0  0
  1  2  1  0
  1  4  1  0
  2  3  2  3
  3  5  1  0
  3 13  1  0
  6  7  1  0
  6 10  1  0
  6 11  1  0
  6 12  1  0
  7  8  2  3
  7 14  1  0
  8  9  1  0
  8 15  1  0
M  RAD  1   9   2
M  END
>  <reaction>  (14) 
rmg_rxn_15504

>  <mol_properties>  (14) 
{"1": {"label": "*4", "atom_type": "N3d"}, "2": {"label": "*3", "atom_type": "Cd"}, "6": {"label": "*1", "atom_type": "Cs"}, "7": {"label": "*0", "atom_type": "CO"}, "12": {"label": "*2", "atom_type": "H0"}}

>  <type>  (14) 
unop_10

>  <geom_source>  (14) 
Heuristics

$$$$

     RDKit          3D

 15 13  0  0  0  0  0  0  0  0999 V2000
    1.6827   -1.9783    2.1182 O   0  0  0  0  0  0  0  0  0  0  0  0
    0.8690   -1.9492    1.0028 N   0  0  0  0  0  0  0  0  0  0  0  0
    1.1092   -0.9504    0.2692 C   0  0  0  0  0  0  0  0  0  0  0  0
    1.4003   -2.7711    2.5784 H   0  0  0  0  0  0  0  0  0  0  0  0
    1.8732   -0.2147    0.5116 H   0  0  0  0  0  0  0  0  0  0  0  0
   -0.9625    0.3155   -2.2167 C   0  0  0  0  0  0  0  0  0  0  0  0
   -0.9625    0.3155   -0.6991 C   0  0  0  0  0  0  0  0  0  0  0  0
   -0.9625    1.6839   -0.0774 C   0  0  0  0  0  0  0  0  0  0  0  0
   -0.9625    2.7162   -0.6883 O   0  0  0  0  0  1  0  0  0  0  0  0
   -0.0843    0.8308   -2.6054 H   0  0  0  0  0  0  0  0  0  0  0  0
   -0.9625   -0.7047   -2.6007 H   0  0  0  0  0  0  0  0  0  0  0  0
   -1.8408    0.8308   -2.6054 H   0  0  0  0  0  0  0  0  0  0  0  0
    0.0803   -0.3217   -0.2117 H   0  0  0  0  0  0  0  0  0  0  0  0
   -1.8315   -0.2155   -0.2929 H   0  0  0  0  0  0  0  0  0  0  0  0
   -0.9625    1.6903    1.0334 H   0  0  0  0  0  0  0  0  0  0  0  0
  1  2  1  0
  1  4  1  0
  2  3  2  3
  3  5  1  0
  3 13  1  0
  6  7  1  0
  6 10  1  0
  6 11  1  0
  6 12  1  0
  7  8  2  3
  7 14  1  0
  8  9  1  0
  8 15  1  0
M  RAD  1   9   2
M  END
>  <reaction>  (15) 
rmg_rxn_15504

>  <mol_properties>  (15) 
{"1": {"label": "*4", "atom_type": "N3d"}, "2": {"label": "*3", "atom_type": "Cd"}, "6": {"label": "*1", "atom_type": "Cs"}, "7": {"label": "*0", "atom_type": "CO"}, "12": {"label": "*2", "atom_type": "H0"}}

>  <type>  (15) 
unop_11

>  <geom_source>  (15) 
Heuristics

$$$$

     RDKit          3D

 15 13  0  0  0  0  0  0  0  0999 V2000
    2.4115   -1.0669    1.8099 O   0  0  0  0  0  0  0  0  0  0  0  0
    1.7905   -0.7195    0.6263 N   0  0  0  0  0  0  0  0  0  0  0  0
    0.7541   -1.4091    0.4170 C   0  0  0  0  0  0  0  0  0  0  0  0
    3.1682   -0.4785    1.8446 H   0  0  0  0  0  0  0  0  0  0  0  0
    0.4134   -2.1798    1.1051 H   0  0  0  0  0  0  0  0  0  0  0  0
   -1.3176   -0.1432   -2.0690 C   0  0  0  0  0  0  0  0  0  0  0  0
   -1.3176   -0.1432   -0.5514 C   0  0  0  0  0  0  0  0  0  0  0  0
   -1.3176    1.2252    0.0703 C   0  0  0  0  0  0  0  0  0  0  0  0
   -1.3176    2.2575   -0.5406 O   0  0  0  0  0  1  0  0  0  0  0  0
   -0.4394    0.3721   -2.4577 H   0  0  0  0  0  0  0  0  0  0  0  0
   -1.3176   -1.1634   -2.4530 H   0  0  0  0  0  0  0  0  0  0  0  0
   -2.1959    0.3721   -2.4577 H   0  0  0  0  0  0  0  0  0  0  0  0
   -0.2748   -0.7804   -0.0640 H   0  0  0  0  0  0  0  0  0  0  0  0
   -2.1866   -0.6742   -0.1452 H   0  0  0  0  0  0  0  0  0  0  0  0
   -1.3176    1.2316    1.1811 H   0  0  0  0  0  0  0  0  0  0  0  0
  1  2  1  0
  1  4  1  0
  2  3  2  3
  3  5  1  0
  3 13  1  0
  6  7  1  0
  6 10  1  0
  6 11  1  0
  6 12  1  0
  7  8  2  3
  7 14  1  0
  8  9  1  0
  8 15  1  0
M  RAD  1   9   2
M  END
>  <reaction>  (16) 
rmg_rxn_15504

>  <mol_properties>  (16) 
{"1": {"label": "*4", "atom_type": "N3d"}, "2": {"label": "*3", "atom_type": "Cd"}, "6": {"label": "*1", "atom_type": "Cs"}, "7": {"label": "*0", "atom_type": "CO"}, "12": {"label": "*2", "atom_type": "H0"}}

>  <type>  (16) 
unop_12

>  <geom_source>  (16) 
Heuristics

$$$$

     RDKit          3D

 15 13  0  0  0  0  0  0  0  0999 V2000
    3.3214    0.1915   -0.2729 O   0  0  0  0  0  0  0  0  0  0  0  0
    1.9957   -0.1376   -0.0095 N   0  0  0  0  0  0  0  0  0  0  0  0
    1.1777    0.7279    0.3300 C   0  0  0  0  0  0  0  0  0  0  0  0
    3.7412   -0.6433   -0.5271 H   0  0  0  0  0  0  0  0  0  0  0  0
    1.3000    1.7934    0.4716 H   0  0  0  0  0  0  0  0  0  0  0  0
   -0.9884   -1.5991   -0.2088 C   0  0  0  0  0  0  0  0  0  0  0  0
   -1.1475   -0.4201    0.7047 C   0  0  0  0  0  0  0  0  0  0  0  0
   -2.1549    0.5639    0.3601 C   0  0  0  0  0  0  0  0  0  0  0  0
   -2.6494    0.7068   -0.7421 O   0  0  0  0  0  1  0  0  0  0  0  0
    0.0229   -1.9979   -0.1543 H   0  0  0  0  0  0  0  0  0  0  0  0
   -1.6830   -2.3912    0.0737 H   0  0  0  0  0  0  0  0  0  0  0  0
   -1.2079   -1.2987   -1.2306 H   0  0  0  0  0  0  0  0  0  0  0  0
    0.0186    0.2561    0.5163 H   0  0  0  0  0  0  0  0  0  0  0  0
   -1.0558   -0.6344    1.7660 H   0  0  0  0  0  0  0  0  0  0  0  0
   -2.4375    1.2368    1.1942 H   0  0  0  0  0  0  0  0  0  0  0  0
  1  2  1  0
  1  4  1  0
  2  3  2  3
  3  5  1  0
  3 13  1  0
  6  7  1  0
  6 10  1  0
  6 11  1  0
  6 12  1  0
  7  8  2  3
  7 14  1  0
  8  9  1  0
  8 15  1  0
M  RAD  1   9   2
M  END
>  <reaction>  (17) 
rmg_rxn_15504

>  <mol_properties>  (17) 
{"1": {"label": "*4", "atom_type": "N3d"}, "2": {"label": "*3", "atom_type": "Cd"}, "6": {"label": "*1", "atom_type": "Cs"}, "7": {"label": "*0", "atom_type": "CO"}, "12": {"label": "*2", "atom_type": "H0"}}

>  <type>  (17) 
unop_13

>  <geom_source>  (17) 
Heuristics

$$$$

     RDKit          3D

 15 13  0  0  0  0  0  0  0  0999 V2000
    2.1654   -2.6135    0.8108 O   0  0  0  0  0  0  0  0  0  0  0  0
    1.3594   -1.7707    0.0711 N   0  0  0  0  0  0  0  0  0  0  0  0
    0.8967   -0.8266    0.7698 C   0  0  0  0  0  0  0  0  0  0  0  0
    2.4442   -3.2718    0.1713 H   0  0  0  0  0  0  0  0  0  0  0  0
    1.1229   -0.7145    1.8280 H   0  0  0  0  0  0  0  0  0  0  0  0
   -1.1750    0.4393   -1.7161 C   0  0  0  0  0  0  0  0  0  0  0  0
   -1.1750    0.4393   -0.1986 C   0  0  0  0  0  0  0  0  0  0  0  0
   -1.1750    1.8076    0.4231 C   0  0  0  0  0  0  0  0  0  0  0  0
   -1.1750    2.8400   -0.1878 O   0  0  0  0  0  1  0  0  0  0  0  0
   -0.2968    0.9546   -2.1049 H   0  0  0  0  0  0  0  0  0  0  0  0
   -1.1750   -0.5810   -2.1001 H   0  0  0  0  0  0  0  0  0  0  0  0
   -2.0533    0.9546   -2.1048 H   0  0  0  0  0  0  0  0  0  0  0  0
   -0.1322   -0.1979    0.2888 H   0  0  0  0  0  0  0  0  0  0  0  0
   -2.0440   -0.0917    0.2076 H   0  0  0  0  0  0  0  0  0  0  0  0
   -1.1750    1.8141    1.5340 H   0  0  0  0  0  0  0  0  0  0  0  0
  1  2  1  0
  1  4  1  0
  2  3  2  3
  3  5  1  0
  3 13  1  0
  6  7  1  0
  6 10  1  0
  6 11  1  0
  6 12  1  0
  7  8  2  3
  7 14  1  0
  8  9  1  0
  8 15  1  0
M  RAD  1   9   2
M  END
>  <reaction>  (18) 
rmg_rxn_15504

>  <mol_properties>  (18) 
{"1": {"label": "*4", "atom_type": "N3d"}, "2": {"label": "*3", "atom_type": "Cd"}, "6": {"label": "*1", "atom_type": "Cs"}, "7": {"label": "*0", "atom_type": "CO"}, "12": {"label": "*2", "atom_type": "H0"}}

>  <type>  (18) 
unop_14

>  <geom_source>  (18) 
Heuristics

$$$$

     RDKit          3D

 15 13  0  0  0  0  0  0  0  0999 V2000
    2.7357   -1.1060    1.2957 O   0  0  0  0  0  0  0  0  0  0  0  0
    1.8066   -0.9115    0.2927 N   0  0  0  0  0  0  0  0  0  0  0  0
    0.6706   -1.3630    0.6076 C   0  0  0  0  0  0  0  0  0  0  0  0
    3.5374   -0.7244    0.9327 H   0  0  0  0  0  0  0  0  0  0  0  0
    0.4750   -1.8441    1.5636 H   0  0  0  0  0  0  0  0  0  0  0  0
   -1.4011   -0.0972   -1.8783 C   0  0  0  0  0  0  0  0  0  0  0  0
   -1.4011   -0.0972   -0.3608 C   0  0  0  0  0  0  0  0  0  0  0  0
   -1.4011    1.2712    0.2609 C   0  0  0  0  0  0  0  0  0  0  0  0
   -1.4011    2.3036   -0.3500 O   0  0  0  0  0  1  0  0  0  0  0  0
   -0.5229    0.4181   -2.2670 H   0  0  0  0  0  0  0  0  0  0  0  0
   -1.4011   -1.1174   -2.2623 H   0  0  0  0  0  0  0  0  0  0  0  0
   -2.2793    0.4181   -2.2670 H   0  0  0  0  0  0  0  0  0  0  0  0
   -0.3583   -0.7343    0.1266 H   0  0  0  0  0  0  0  0  0  0  0  0
   -2.2701   -0.6281    0.0454 H   0  0  0  0  0  0  0  0  0  0  0  0
   -1.4011    1.2777    1.3718 H   0  0  0  0  0  0  0  0  0  0  0  0
  1  2  1  0
  1  4  1  0
  2  3  2  3
  3  5  1  0
  3 13  1  0
  6  7  1  0
  6 10  1  0
  6 11  1  0
  6 12  1  0
  7  8  2  3
  7 14  1  0
  8  9  1  0
  8 15  1  0
M  RAD  1   9   2
M  END
>  <reaction>  (19) 
rmg_rxn_15504

>  <mol_properties>  (19) 
{"1": {"label": "*4", "atom_type": "N3d"}, "2": {"label": "*3", "atom_type": "Cd"}, "6": {"label": "*1", "atom_type": "Cs"}, "7": {"label": "*0", "atom_type": "CO"}, "12": {"label": "*2", "atom_type": "H0"}}

>  <type>  (19) 
unop_15

>  <geom_source>  (19) 
Heuristics

$$$$

     RDKit          3D

 15 13  0  0  0  0  0  0  0  0999 V2000
    2.0283   -1.6463    2.0821 O   0  0  0  0  0  0  0  0  0  0  0  0
    0.8682   -1.6548    1.3331 N   0  0  0  0  0  0  0  0  0  0  0  0
    1.0236   -1.0884    0.2157 C   0  0  0  0  0  0  0  0  0  0  0  0
    1.7749   -2.0987    2.8891 H   0  0  0  0  0  0  0  0  0  0  0  0
    1.9712   -0.6533   -0.0946 H   0  0  0  0  0  0  0  0  0  0  0  0
   -1.0481    0.1775   -2.2702 C   0  0  0  0  0  0  0  0  0  0  0  0
   -1.0481    0.1775   -0.7527 C   0  0  0  0  0  0  0  0  0  0  0  0
   -1.0481    1.5458   -0.1310 C   0  0  0  0  0  0  0  0  0  0  0  0
   -1.0481    2.5782   -0.7419 O   0  0  0  0  0  1  0  0  0  0  0  0
   -0.1699    0.6928   -2.6589 H   0  0  0  0  0  0  0  0  0  0  0  0
   -1.0481   -0.8428   -2.6542 H   0  0  0  0  0  0  0  0  0  0  0  0
   -1.9263    0.6928   -2.6589 H   0  0  0  0  0  0  0  0  0  0  0  0
   -0.0053   -0.4597   -0.2652 H   0  0  0  0  0  0  0  0  0  0  0  0
   -1.9171   -0.3535   -0.3465 H   0  0  0  0  0  0  0  0  0  0  0  0
   -1.0481    1.5523    0.9799 H   0  0  0  0  0  0  0  0  0  0  0  0
  1  2  1  0
  1  4  1  0
  2  3  2  3
  3  5  1  0
  3 13  1  0
  6  7  1  0
  6 10  1  0
  6 11  1  0
  6 12  1  0
  7  8  2  3
  7 14  1  0
  8  9  1  0
  8 15  1  0
M  RAD  1   9   2
M  END
>  <reaction>  (20) 
rmg_rxn_15504

>  <mol_properties>  (20) 
{"1": {"label": "*4", "atom_type": "N3d"}, "2": {"label": "*3", "atom_type": "Cd"}, "6": {"label": "*1", "atom_type": "Cs"}, "7": {"label": "*0", "atom_type": "CO"}, "12": {"label": "*2", "atom_type": "H0"}}

>  <type>  (20) 
unop_16

>  <geom_source>  (20) 
Heuristics

$$$$

     RDKit          3D

 15 13  0  0  0  0  0  0  0  0999 V2000
    2.6100   -2.1351    0.6087 O   0  0  0  0  0  0  0  0  0  0  0  0
    1.5543   -1.4900   -0.0049 N   0  0  0  0  0  0  0  0  0  0  0  0
    0.7496   -0.9983    0.8343 C   0  0  0  0  0  0  0  0  0  0  0  0
    3.1335   -2.4550   -0.1286 H   0  0  0  0  0  0  0  0  0  0  0  0
    0.8953   -1.0874    1.9087 H   0  0  0  0  0  0  0  0  0  0  0  0
   -1.3222    0.2675   -1.6517 C   0  0  0  0  0  0  0  0  0  0  0  0
   -1.3222    0.2675   -0.1341 C   0  0  0  0  0  0  0  0  0  0  0  0
   -1.3222    1.6359    0.4876 C   0  0  0  0  0  0  0  0  0  0  0  0
   -1.3222    2.6683   -0.1233 O   0  0  0  0  0  1  0  0  0  0  0  0
   -0.4440    0.7828   -2.0404 H   0  0  0  0  0  0  0  0  0  0  0  0
   -1.3222   -0.7527   -2.0357 H   0  0  0  0  0  0  0  0  0  0  0  0
   -2.2004    0.7828   -2.0404 H   0  0  0  0  0  0  0  0  0  0  0  0
   -0.2794   -0.3696    0.3533 H   0  0  0  0  0  0  0  0  0  0  0  0
   -2.1912   -0.2635    0.2721 H   0  0  0  0  0  0  0  0  0  0  0  0
   -1.3222    1.6423    1.5984 H   0  0  0  0  0  0  0  0  0  0  0  0
  1  2  1  0
  1  4  1  0
  2  3  2  3
  3  5  1  0
  3 13  1  0
  6  7  1  0
  6 10  1  0
  6 11  1  0
  6 12  1  0
  7  8  2  3
  7 14  1  0
  8  9  1  0
  8 15  1  0
M  RAD  1   9   2
M  END
>  <reaction>  (21) 
rmg_rxn_15504

>  <mol_properties>  (21) 
{"1": {"label": "*4", "atom_type": "N3d"}, "2": {"label": "*3", "atom_type": "Cd"}, "6": {"label": "*1", "atom_type": "Cs"}, "7": {"label": "*0", "atom_type": "CO"}, "12": {"label": "*2", "atom_type": "H0"}}

>  <type>  (21) 
unop_17

>  <geom_source>  (21) 
Heuristics

$$$$

     RDKit          3D

 15 11  0  0  0  0  0  0  0  0999 V2000
    3.5474   -0.3946   -0.7368 O   0  0  0  0  0  0  0  0  0  0  0  0
   -1.6607    2.6649    0.2476 O   0  0  0  0  0  0  0  0  0  0  0  0
    2.3263    0.2351   -0.6203 N   0  0  0  0  0  0  0  0  0  0  0  0
   -1.8625   -0.7130    0.2293 C   0  0  0  0  0  3  0  0  0  0  0  0
   -1.0354    0.4529    0.7517 C   0  0  0  0  0  1  0  0  0  0  0  0
   -1.1464    1.6351   -0.1554 C   0  0  0  0  0  3  0  0  0  0  0  0
    1.3404   -0.3034    0.0224 C   0  0  0  0  0  0  0  0  0  0  0  0
   -2.9315   -0.4204    0.1563 H   0  0  0  0  0  0  0  0  0  0  0  0
   -1.7758   -1.5677    0.9319 H   0  0  0  0  0  0  0  0  0  0  0  0
   -1.4959   -1.0309   -0.7703 H   0  0  0  0  0  0  0  0  0  0  0  0
    0.0299    0.1532    0.8451 H   0  0  0  0  0  0  0  0  0  0  0  0
   -0.7753    1.5798   -1.1738 H   0  0  0  0  0  0  0  0  0  0  0  0
    1.4469   -1.2733    0.4917 H   0  0  0  0  0  0  0  0  0  0  0  0
    0.2753    0.2865    0.1026 H   0  0  0  0  0  0  0  0  0  0  0  0
    3.7171   -1.3043   -0.3221 H   0  0  0  0  0  0  0  0  0  0  0  0
  1  3  1  0
  1 15  1  0
  2  6  2  0
  3  7  2  3
  4  8  1  0
  4  9  1  0
  4 10  1  0
  5 11  1  0
  6 12  1  0
  7 13  1  0
  7 14  1  0
M  RAD  3   4   2   5   2   6   2
M  END
>  <reaction>  (22) 
rmg_rxn_15504

>  <mol_properties>  (22) 
{"1": {"label": "*4", "atom_type": "N3d"}, "2": {"label": "*3", "atom_type": "Cd"}, "6": {"label": "*1", "atom_type": "Cs"}, "7": {"label": "*0", "atom_type": "CO"}, "12": {"label": "*2", "atom_type": "H0"}}

>  <type>  (22) 
unop_18

>  <geom_source>  (22) 
AutoTST

$$$$

     RDKit          3D

 15 13  0  0  0  0  0  0  0  0999 V2000
    2.8328   -1.5212    0.8108 O   0  0  0  0  0  0  0  0  0  0  0  0
    1.7151   -1.1885    0.0711 N   0  0  0  0  0  0  0  0  0  0  0  0
    0.6639   -1.2076    0.7698 C   0  0  0  0  0  0  0  0  0  0  0  0
    3.5458   -1.4688    0.1713 H   0  0  0  0  0  0  0  0  0  0  0  0
    0.6673   -1.4601    1.8280 H   0  0  0  0  0  0  0  0  0  0  0  0
   -1.4079    0.0582   -1.7161 C   0  0  0  0  0  0  0  0  0  0  0  0
   -1.4079    0.0582   -0.1986 C   0  0  0  0  0  0  0  0  0  0  0  0
   -1.4079    1.4266    0.4231 C   0  0  0  0  0  0  0  0  0  0  0  0
   -1.4079    2.4590   -0.1878 O   0  0  0  0  0  1  0  0  0  0  0  0
   -0.5296    0.5735   -2.1048 H   0  0  0  0  0  0  0  0  0  0  0  0
   -1.4079   -0.9620   -2.1001 H   0  0  0  0  0  0  0  0  0  0  0  0
   -2.2861    0.5735   -2.1048 H   0  0  0  0  0  0  0  0  0  0  0  0
   -0.3651   -0.5789    0.2888 H   0  0  0  0  0  0  0  0  0  0  0  0
   -2.2769   -0.4728    0.2076 H   0  0  0  0  0  0  0  0  0  0  0  0
   -1.4079    1.4330    1.5340 H   0  0  0  0  0  0  0  0  0  0  0  0
  1  2  1  0
  1  4  1  0
  2  3  2  3
  3  5  1  0
  3 13  1  0
  6  7  1  0
  6 10  1  0
  6 11  1  0
  6 12  1  0
  7  8  2  3
  7 14  1  0
  8  9  1  0
  8 15  1  0
M  RAD  1   9   2
M  END
>  <reaction>  (23) 
rmg_rxn_15504

>  <mol_properties>  (23) 
{"1": {"label": "*4", "atom_type": "N3d"}, "2": {"label": "*3", "atom_type": "Cd"}, "6": {"label": "*1", "atom_type": "Cs"}, "7": {"label": "*0", "atom_type": "CO"}, "12": {"label": "*2", "atom_type": "H0"}}

>  <type>  (23) 
unop_19

>  <geom_source>  (23) 
gaussian_log

$$$$
