
     RDKit          3D

  8  7  0  0  0  0  0  0  0  0999 V2000
    0.9548    0.1194   -0.0790 C   0  0  0  0  0  0  0  0  0  0  0  0
   -0.4838   -0.2649    0.0193 C   0  0  0  0  0  0  0  0  0  0  0  0
   -0.8933   -1.1081    0.8664 N   0  0  0  0  0  0  0  0  0  0  0  0
    1.3360   -0.0983   -1.0800 H   0  0  0  0  0  0  0  0  0  0  0  0
    1.0698    1.1948    0.0786 H   0  0  0  0  0  0  0  0  0  0  0  0
    1.5426   -0.4219    0.6602 H   0  0  0  0  0  0  0  0  0  0  0  0
   -1.1575    0.2324   -0.6905 H   0  0  0  0  0  0  0  0  0  0  0  0
   -1.8989   -1.2455    0.7886 H   0  0  0  0  0  0  0  0  0  0  0  0
  1  2  1  0
  1  4  1  0
  1  5  1  0
  1  6  1  0
  2  3  2  3
  2  7  1  0
  3  8  1  0
M  END
>  <reaction>  (1) 
rmg_rxn_16648

>  <mol_properties>  (1) 
{"1": {"label": "donator", "atom_type": "Cd"}, "6": {"label": "d_hydrogen", "atom_type": "H0"}}

>  <type>  (1) 
r1h

$$$$

     RDKit          3D

 13 12  0  0  0  0  0  0  0  0999 V2000
   -1.5801    1.1066    0.0514 C   0  0  0  0  0  3  0  0  0  0  0  0
   -0.9927   -0.2392    0.2618 C   0  0  0  0  0  0  0  0  0  0  0  0
   -1.7553   -1.0998    1.2550 C   0  0  0  0  0  0  0  0  0  0  0  0
   -1.8362   -0.4776    2.5484 O   0  0  0  0  0  0  0  0  0  0  0  0
   -0.7919   -0.6298    3.3579 C   0  0  0  0  0  0  0  0  0  0  0  0
    0.2062   -1.2441    3.1188 O   0  0  0  0  0  0  0  0  0  0  0  0
   -1.2814    1.7056   -0.7974 H   0  0  0  0  0  0  0  0  0  0  0  0
   -2.2054    1.5630    0.8065 H   0  0  0  0  0  0  0  0  0  0  0  0
    0.0499   -0.1626    0.6013 H   0  0  0  0  0  0  0  0  0  0  0  0
   -0.9457   -0.7884   -0.6852 H   0  0  0  0  0  0  0  0  0  0  0  0
   -1.2846   -2.0771    1.3590 H   0  0  0  0  0  0  0  0  0  0  0  0
   -2.7927   -1.2238    0.9481 H   0  0  0  0  0  0  0  0  0  0  0  0
   -0.9867   -0.1021    4.3012 H   0  0  0  0  0  0  0  0  0  0  0  0
  1  2  1  0
  1  7  1  0
  1  8  1  0
  2  3  1  0
  2  9  1  0
  2 10  1  0
  3  4  1  0
  3 11  1  0
  3 12  1  0
  4  5  1  0
  5  6  2  0
  5 13  1  0
M  RAD  1   1   2
M  END
>  <reaction>  (2) 
rmg_rxn_16648

>  <mol_properties>  (2) 
{"0": {"label": "acceptor", "atom_type": "Cs"}}

>  <type>  (2) 
r2

$$$$

     RDKit          3D

 14 13  0  0  0  0  0  0  0  0999 V2000
    2.1277    0.0527   -0.0768 C   0  0  0  0  0  0  0  0  0  0  0  0
    0.8550    0.0849    0.7591 C   0  0  0  0  0  0  0  0  0  0  0  0
    0.7150    1.3361    1.5963 C   0  0  0  0  0  0  0  0  0  0  0  0
    0.5975    2.4604    0.7083 O   0  0  0  0  0  0  0  0  0  0  0  0
    0.5113    3.6572    1.2782 C   0  0  0  0  0  0  0  0  0  0  0  0
    0.5224    3.8788    2.4534 O   0  0  0  0  0  0  0  0  0  0  0  0
    3.0138    0.1211    0.5584 H   0  0  0  0  0  0  0  0  0  0  0  0
    2.1544    0.8845   -0.7813 H   0  0  0  0  0  0  0  0  0  0  0  0
    2.1955   -0.8742   -0.6473 H   0  0  0  0  0  0  0  0  0  0  0  0
    0.8361   -0.7663    1.4449 H   0  0  0  0  0  0  0  0  0  0  0  0
   -0.0232   -0.0114    0.1158 H   0  0  0  0  0  0  0  0  0  0  0  0
   -0.1715    1.3001    2.2317 H   0  0  0  0  0  0  0  0  0  0  0  0
    1.5840    1.4884    2.2407 H   0  0  0  0  0  0  0  0  0  0  0  0
    0.4263    4.4265    0.4986 H   0  0  0  0  0  0  0  0  0  0  0  0
  1  2  1  0
  1  7  1  0
  1  8  1  0
  1  9  1  0
  2  3  1  0
  2 10  1  0
  2 11  1  0
  3  4  1  0
  3 12  1  0
  3 13  1  0
  4  5  1  0
  5  6  2  0
  5 14  1  0
M  END
>  <reaction>  (3) 
rmg_rxn_16648

>  <mol_properties>  (3) 
{"0": {"label": "a_hydrogen", "atom_type": "H0"}, "1": {"label": "acceptor", "atom_type": "Cs"}}

>  <type>  (3) 
r2h

$$$$

     RDKit          3D

 21 19  0  0  0  0  0  0  0  0999 V2000
   -3.4479   -0.4138   -0.0445 C   0  0  0  0  0  0  0  0  0  0  0  0
   -2.1290    0.2565    0.1445 C   0  0  0  0  0  0  0  0  0  0  0  0
   -1.8881    1.4612   -0.0702 N   0  0  0  0  0  0  0  0  0  0  0  0
   -3.3483   -1.2390   -0.7534 H   0  0  0  0  0  0  0  0  0  0  0  0
   -3.7836   -0.8432    0.9020 H   0  0  0  0  0  0  0  0  0  0  0  0
   -4.1926    0.2942   -0.4094 H   0  0  0  0  0  0  0  0  0  0  0  0
   -1.1995   -0.5568    0.5641 H   0  0  0  0  0  0  0  0  0  0  0  0
   -0.9190    1.7159    0.1274 H   0  0  0  0  0  0  0  0  0  0  0  0
   -0.1759   -1.4692    0.9235 C   0  0  0  0  0  3  0  0  0  0  0  0
    0.5486   -1.8069   -0.3516 C   0  0  0  0  0  0  0  0  0  0  0  0
    1.2341   -0.6238   -1.0088 C   0  0  0  0  0  0  0  0  0  0  0  0
    2.3272   -0.1547   -0.1960 O   0  0  0  0  0  0  0  0  0  0  0  0
    2.1814    0.9758    0.4787 C   0  0  0  0  0  0  0  0  0  0  0  0
    1.2144    1.6833    0.5021 O   0  0  0  0  0  0  0  0  0  0  0  0
    0.4028   -0.9209    1.6637 H   0  0  0  0  0  0  0  0  0  0  0  0
   -0.7215   -2.2987    1.3674 H   0  0  0  0  0  0  0  0  0  0  0  0
   -0.1559   -2.2154   -1.0835 H   0  0  0  0  0  0  0  0  0  0  0  0
    1.2968   -2.5899   -0.1792 H   0  0  0  0  0  0  0  0  0  0  0  0
    0.5381    0.1956   -1.1839 H   0  0  0  0  0  0  0  0  0  0  0  0
    1.6902   -0.9173   -1.9533 H   0  0  0  0  0  0  0  0  0  0  0  0
    3.1055    1.1861    1.0326 H   0  0  0  0  0  0  0  0  0  0  0  0
  1  2  1  0
  1  4  1  0
  1  5  1  0
  1  6  1  0
  2  3  2  3
  2  7  1  0
  3  8  1  0
  9 10  1  0
  9 15  1  0
  9 16  1  0
 10 11  1  0
 10 17  1  0
 10 18  1  0
 11 12  1  0
 11 19  1  0
 11 20  1  0
 12 13  1  0
 13 14  2  0
 13 21  1  0
M  RAD  1   9   2
M  END
>  <reaction>  (4) 
rmg_rxn_16648

>  <mol_properties>  (4) 
{"1": {"label": "*1", "atom_type": "Cd"}, "2": {"label": "*0", "atom_type": "N3d"}, "6": {"label": "*2", "atom_type": "H0"}, "8": {"label": "*3", "atom_type": "Cs"}, "9": {"label": "*4", "atom_type": "Cs"}}

>  <type>  (4) 
ts

$$$$

     RDKit          3D

 21 19  0  0  0  0  0  0  0  0999 V2000
   -3.4082   -0.3435   -0.1149 C   0  0  0  0  0  0  0  0  0  0  0  0
   -2.0899    0.3169    0.0278 C   0  0  0  0  0  3  0  0  0  0  0  0
   -1.8585    1.5020   -0.2518 N   0  0  0  0  0  0  0  0  0  0  0  0
   -4.1580    0.3396   -0.5143 H   0  0  0  0  0  0  0  0  0  0  0  0
   -3.3108   -1.2041   -0.7754 H   0  0  0  0  0  0  0  0  0  0  0  0
   -3.7311   -0.7073    0.8595 H   0  0  0  0  0  0  0  0  0  0  0  0
   -1.1517   -0.5357    0.5193 H   0  0  0  0  0  0  0  0  0  0  0  0
   -0.9218    1.8727   -0.1199 H   0  0  0  0  0  0  0  0  0  0  0  0
   -0.2723   -1.3679    0.9861 C   0  0  0  0  0  0  0  0  0  0  0  0
    0.5611   -1.9100   -0.1541 C   0  0  0  0  0  0  0  0  0  0  0  0
    1.2957   -0.8075   -0.9160 C   0  0  0  0  0  0  0  0  0  0  0  0
    2.2967   -0.2017   -0.0867 O   0  0  0  0  0  0  0  0  0  0  0  0
    2.0874    1.0138    0.3613 C   0  0  0  0  0  0  0  0  0  0  0  0
    1.1540    1.7301    0.1336 O   0  0  0  0  0  0  0  0  0  0  0  0
    0.3214   -0.8131    1.7068 H   0  0  0  0  0  0  0  0  0  0  0  0
   -0.8306   -2.1522    1.4868 H   0  0  0  0  0  0  0  0  0  0  0  0
   -0.0775   -2.4370   -0.8665 H   0  0  0  0  0  0  0  0  0  0  0  0
    1.3063   -2.6226    0.2179 H   0  0  0  0  0  0  0  0  0  0  0  0
    0.5966   -0.0363   -1.2530 H   0  0  0  0  0  0  0  0  0  0  0  0
    1.8297   -1.2233   -1.7745 H   0  0  0  0  0  0  0  0  0  0  0  0
    2.9390    1.3063    0.9999 H   0  0  0  0  0  0  0  0  0  0  0  0
  1  2  1  0
  1  4  1  0
  1  5  1  0
  1  6  1  0
  2  3  2  3
  3  8  1  0
  7  9  1  0
  9 10  1  0
  9 15  1  0
  9 16  1  0
 10 11  1  0
 10 17  1  0
 10 18  1  0
 11 12  1  0
 11 19  1  0
 11 20  1  0
 12 13  1  0
 13 14  2  0
 13 21  1  0
M  RAD  1   2   2
M  END
>  <reaction>  (5) 
rmg_rxn_16648

>  <mol_properties>  (5) 
{"1": {"label": "*1", "atom_type": "Cd"}, "2": {"label": "*0", "atom_type": "N3d"}, "6": {"label": "*2", "atom_type": "H0"}, "8": {"label": "*3", "atom_type": "Cs"}, "9": {"label": "*4", "atom_type": "Cs"}}

>  <type>  (5) 
unop_1

>  <geom_source>  (5) 
crest_best.xyz

$$$$

     RDKit          3D

 21 19  0  0  0  0  0  0  0  0999 V2000
   -0.3314    2.4820   -3.5252 C   0  0  0  0  0  0  0  0  0  0  0  0
   -0.3314    2.4820   -2.0329 C   0  0  0  0  0  3  0  0  0  0  0  0
   -0.3314    3.5547   -1.3652 N   0  0  0  0  0  0  0  0  0  0  0  0
    0.5469    1.9520   -3.9026 H   0  0  0  0  0  0  0  0  0  0  0  0
   -1.2097    1.9520   -3.9026 H   0  0  0  0  0  0  0  0  0  0  0  0
   -0.3314    3.5026   -3.9038 H   0  0  0  0  0  0  0  0  0  0  0  0
   -0.3314    1.2944   -1.4633 H   0  0  0  0  0  0  0  0  0  0  0  0
   -0.3314    3.3628   -0.3655 H   0  0  0  0  0  0  0  0  0  0  0  0
   -0.3314    0.1145   -0.8974 C   0  0  0  0  0  0  0  0  0  0  0  0
    0.9005   -0.0684   -0.0209 C   0  0  0  0  0  0  0  0  0  0  0  0
    0.6107   -0.7661    1.2888 C   0  0  0  0  0  0  0  0  0  0  0  0
    0.1676   -2.1023    0.9977 O   0  0  0  0  0  0  0  0  0  0  0  0
   -0.1776   -2.8505    2.0396 C   0  0  0  0  0  0  0  0  0  0  0  0
   -0.1520   -2.5133    3.1868 O   0  0  0  0  0  0  0  0  0  0  0  0
   -1.0961    0.6977   -0.3792 H   0  0  0  0  0  0  0  0  0  0  0  0
   -0.7675   -0.8483   -1.1654 H   0  0  0  0  0  0  0  0  0  0  0  0
    1.3355    0.9050    0.2211 H   0  0  0  0  0  0  0  0  0  0  0  0
    1.6685   -0.6295   -0.5592 H   0  0  0  0  0  0  0  0  0  0  0  0
   -0.1714   -0.2532    1.8534 H   0  0  0  0  0  0  0  0  0  0  0  0
    1.4982   -0.8235    1.9211 H   0  0  0  0  0  0  0  0  0  0  0  0
   -0.4950   -3.8415    1.6872 H   0  0  0  0  0  0  0  0  0  0  0  0
  1  2  1  0
  1  4  1  0
  1  5  1  0
  1  6  1  0
  2  3  2  3
  3  8  1  0
  7  9  1  0
  9 10  1  0
  9 15  1  0
  9 16  1  0
 10 11  1  0
 10 17  1  0
 10 18  1  0
 11 12  1  0
 11 19  1  0
 11 20  1  0
 12 13  1  0
 13 14  2  0
 13 21  1  0
M  RAD  1   2   2
M  END
>  <reaction>  (6) 
rmg_rxn_16648

>  <mol_properties>  (6) 
{"1": {"label": "*1", "atom_type": "Cd"}, "2": {"label": "*0", "atom_type": "N3d"}, "6": {"label": "*2", "atom_type": "H0"}, "8": {"label": "*3", "atom_type": "Cs"}, "9": {"label": "*4", "atom_type": "Cs"}}

>  <type>  (6) 
unop_2

>  <geom_source>  (6) 
Heuristics

$$$$

     RDKit          3D

 21 19  0  0  0  0  0  0  0  0999 V2000
   -0.3730    3.1472   -2.3775 C   0  0  0  0  0  0  0  0  0  0  0  0
   -0.3730    3.1472   -0.8852 C   0  0  0  0  0  3  0  0  0  0  0  0
   -0.3730    4.2198   -0.2175 N   0  0  0  0  0  0  0  0  0  0  0  0
    0.5053    2.6172   -2.7549 H   0  0  0  0  0  0  0  0  0  0  0  0
   -1.2512    2.6172   -2.7549 H   0  0  0  0  0  0  0  0  0  0  0  0
   -0.3730    4.1678   -2.7561 H   0  0  0  0  0  0  0  0  0  0  0  0
   -0.3730    1.9595   -0.3156 H   0  0  0  0  0  0  0  0  0  0  0  0
   -0.3730    4.0280    0.7822 H   0  0  0  0  0  0  0  0  0  0  0  0
   -0.3730    0.7796    0.2503 C   0  0  0  0  0  0  0  0  0  0  0  0
    0.3383   -0.2435   -0.6253 C   0  0  0  0  0  0  0  0  0  0  0  0
    0.7813   -1.4776    0.1277 C   0  0  0  0  0  0  0  0  0  0  0  0
   -0.3915   -2.1578    0.6055 O   0  0  0  0  0  0  0  0  0  0  0  0
   -0.1859   -3.2492    1.3342 C   0  0  0  0  0  0  0  0  0  0  0  0
    0.8786   -3.7108    1.6243 O   0  0  0  0  0  0  0  0  0  0  0  0
    0.2725    1.1101    1.0674 H   0  0  0  0  0  0  0  0  0  0  0  0
   -1.2789    0.3586    0.6872 H   0  0  0  0  0  0  0  0  0  0  0  0
    1.2322    0.2016   -1.0702 H   0  0  0  0  0  0  0  0  0  0  0  0
   -0.3065   -0.5463   -1.4541 H   0  0  0  0  0  0  0  0  0  0  0  0
    1.4109   -1.2224    0.9832 H   0  0  0  0  0  0  0  0  0  0  0  0
    1.3440   -2.1604   -0.5111 H   0  0  0  0  0  0  0  0  0  0  0  0
   -1.1534   -3.6731    1.6361 H   0  0  0  0  0  0  0  0  0  0  0  0
  1  2  1  0
  1  4  1  0
  1  5  1  0
  1  6  1  0
  2  3  2  3
  3  8  1  0
  7  9  1  0
  9 10  1  0
  9 15  1  0
  9 16  1  0
 10 11  1  0
 10 17  1  0
 10 18  1  0
 11 12  1  0
 11 19  1  0
 11 20  1  0
 12 13  1  0
 13 14  2  0
 13 21  1  0
M  RAD  1   2   2
M  END
>  <reaction>  (7) 
rmg_rxn_16648

>  <mol_properties>  (7) 
{"1": {"label": "*1", "atom_type": "Cd"}, "2": {"label": "*0", "atom_type": "N3d"}, "6": {"label": "*2", "atom_type": "H0"}, "8": {"label": "*3", "atom_type": "Cs"}, "9": {"label": "*4", "atom_type": "Cs"}}

>  <type>  (7) 
unop_3

>  <geom_source>  (7) 
Heuristics

$$$$

     RDKit          3D

 21 19  0  0  0  0  0  0  0  0999 V2000
   -0.0754    2.5824   -3.4848 C   0  0  0  0  0  0  0  0  0  0  0  0
   -0.0754    2.5824   -1.9924 C   0  0  0  0  0  3  0  0  0  0  0  0
   -0.0754    3.6550   -1.3248 N   0  0  0  0  0  0  0  0  0  0  0  0
    0.8028    2.0524   -3.8622 H   0  0  0  0  0  0  0  0  0  0  0  0
   -0.9537    2.0524   -3.8622 H   0  0  0  0  0  0  0  0  0  0  0  0
   -0.0754    3.6030   -3.8634 H   0  0  0  0  0  0  0  0  0  0  0  0
   -0.0754    1.3948   -1.4229 H   0  0  0  0  0  0  0  0  0  0  0  0
   -0.0754    3.4632   -0.3251 H   0  0  0  0  0  0  0  0  0  0  0  0
   -0.0754    0.2148   -0.8570 C   0  0  0  0  0  0  0  0  0  0  0  0
    0.6358    0.2572    0.4890 C   0  0  0  0  0  0  0  0  0  0  0  0
    0.1052   -0.7507    1.4834 C   0  0  0  0  0  0  0  0  0  0  0  0
    0.3686   -2.0681    0.9721 O   0  0  0  0  0  0  0  0  0  0  0  0
   -0.0749   -3.0851    1.7026 C   0  0  0  0  0  0  0  0  0  0  0  0
   -0.6678   -3.0013    2.7380 O   0  0  0  0  0  0  0  0  0  0  0  0
   -1.1449    0.4043   -0.7395 H   0  0  0  0  0  0  0  0  0  0  0  0
    0.0429   -0.7596   -1.3318 H   0  0  0  0  0  0  0  0  0  0  0  0
    0.5236    1.2464    0.9407 H   0  0  0  0  0  0  0  0  0  0  0  0
    1.7081    0.0934    0.3561 H   0  0  0  0  0  0  0  0  0  0  0  0
   -0.9717   -0.6414    1.6313 H   0  0  0  0  0  0  0  0  0  0  0  0
    0.5892   -0.6516    2.4565 H   0  0  0  0  0  0  0  0  0  0  0  0
    0.1876   -4.0304    1.2083 H   0  0  0  0  0  0  0  0  0  0  0  0
  1  2  1  0
  1  4  1  0
  1  5  1  0
  1  6  1  0
  2  3  2  3
  3  8  1  0
  7  9  1  0
  9 10  1  0
  9 15  1  0
  9 16  1  0
 10 11  1  0
 10 17  1  0
 10 18  1  0
 11 12  1  0
 11 19  1  0
 11 20  1  0
 12 13  1  0
 13 14  2  0
 13 21  1  0
M  RAD  1   2   2
M  END
>  <reaction>  (8) 
rmg_rxn_16648

>  <mol_properties>  (8) 
{"1": {"label": "*1", "atom_type": "Cd"}, "2": {"label": "*0", "atom_type": "N3d"}, "6": {"label": "*2", "atom_type": "H0"}, "8": {"label": "*3", "atom_type": "Cs"}, "9": {"label": "*4", "atom_type": "Cs"}}

>  <type>  (8) 
unop_4

>  <geom_source>  (8) 
Heuristics

$$$$

     RDKit          3D

 21 19  0  0  0  0  0  0  0  0999 V2000
    1.1491    2.3991   -3.0622 C   0  0  0  0  0  0  0  0  0  0  0  0
    1.1491    2.3991   -1.5698 C   0  0  0  0  0  3  0  0  0  0  0  0
    1.1491    3.4717   -0.9021 N   0  0  0  0  0  0  0  0  0  0  0  0
    2.0273    1.8691   -3.4396 H   0  0  0  0  0  0  0  0  0  0  0  0
    0.2708    1.8691   -3.4396 H   0  0  0  0  0  0  0  0  0  0  0  0
    1.1491    3.4197   -3.4408 H   0  0  0  0  0  0  0  0  0  0  0  0
    1.1491    1.2114   -1.0003 H   0  0  0  0  0  0  0  0  0  0  0  0
    1.1491    3.2799    0.0975 H   0  0  0  0  0  0  0  0  0  0  0  0
    1.1491    0.0315   -0.4344 C   0  0  0  0  0  0  0  0  0  0  0  0
   -0.0829   -0.7665   -0.8405 C   0  0  0  0  0  0  0  0  0  0  0  0
   -0.5543   -1.7313    0.2239 C   0  0  0  0  0  0  0  0  0  0  0  0
   -0.9737   -0.9685    1.3680 O   0  0  0  0  0  0  0  0  0  0  0  0
   -1.3793   -1.6633    2.4250 C   0  0  0  0  0  0  0  0  0  0  0  0
   -1.4258   -2.8556    2.5072 O   0  0  0  0  0  0  0  0  0  0  0  0
    1.9851   -0.6323   -0.2023 H   0  0  0  0  0  0  0  0  0  0  0  0
    0.9482    0.6397    0.4480 H   0  0  0  0  0  0  0  0  0  0  0  0
    0.1308   -1.3542   -1.7373 H   0  0  0  0  0  0  0  0  0  0  0  0
   -0.9037   -0.0919   -1.0963 H   0  0  0  0  0  0  0  0  0  0  0  0
    0.2425   -2.4128    0.5306 H   0  0  0  0  0  0  0  0  0  0  0  0
   -1.3966   -2.3334   -0.1210 H   0  0  0  0  0  0  0  0  0  0  0  0
   -1.6711   -0.9705    3.2261 H   0  0  0  0  0  0  0  0  0  0  0  0
  1  2  1  0
  1  4  1  0
  1  5  1  0
  1  6  1  0
  2  3  2  3
  3  8  1  0
  7  9  1  0
  9 10  1  0
  9 15  1  0
  9 16  1  0
 10 11  1  0
 10 17  1  0
 10 18  1  0
 11 12  1  0
 11 19  1  0
 11 20  1  0
 12 13  1  0
 13 14  2  0
 13 21  1  0
M  RAD  1   2   2
M  END
>  <reaction>  (9) 
rmg_rxn_16648

>  <mol_properties>  (9) 
{"1": {"label": "*1", "atom_type": "Cd"}, "2": {"label": "*0", "atom_type": "N3d"}, "6": {"label": "*2", "atom_type": "H0"}, "8": {"label": "*3", "atom_type": "Cs"}, "9": {"label": "*4", "atom_type": "Cs"}}

>  <type>  (9) 
unop_5

>  <geom_source>  (9) 
Heuristics

$$$$

     RDKit          3D

 21 19  0  0  0  0  0  0  0  0999 V2000
   -0.3381    2.5956   -3.4316 C   0  0  0  0  0  0  0  0  0  0  0  0
   -0.3381    2.5956   -1.9392 C   0  0  0  0  0  3  0  0  0  0  0  0
   -0.3381    3.6682   -1.2715 N   0  0  0  0  0  0  0  0  0  0  0  0
    0.5402    2.0656   -3.8090 H   0  0  0  0  0  0  0  0  0  0  0  0
   -1.2163    2.0656   -3.8090 H   0  0  0  0  0  0  0  0  0  0  0  0
   -0.3381    3.6162   -3.8102 H   0  0  0  0  0  0  0  0  0  0  0  0
   -0.3381    1.4080   -1.3697 H   0  0  0  0  0  0  0  0  0  0  0  0
   -0.3381    3.4764   -0.2719 H   0  0  0  0  0  0  0  0  0  0  0  0
   -0.3381    0.2280   -0.8038 C   0  0  0  0  0  0  0  0  0  0  0  0
   -0.3381    0.3528    0.7141 C   0  0  0  0  0  0  0  0  0  0  0  0
   -0.3655   -0.9794    1.4286 C   0  0  0  0  0  0  0  0  0  0  0  0
    0.8508   -1.6804    1.1195 O   0  0  0  0  0  0  0  0  0  0  0  0
    0.9766   -2.8997    1.6313 C   0  0  0  0  0  0  0  0  0  0  0  0
    0.1747   -3.4594    2.3200 O   0  0  0  0  0  0  0  0  0  0  0  0
   -1.2229   -0.3104   -1.1512 H   0  0  0  0  0  0  0  0  0  0  0  0
    0.5424   -0.3126   -1.1521 H   0  0  0  0  0  0  0  0  0  0  0  0
   -1.2165    0.9141    1.0435 H   0  0  0  0  0  0  0  0  0  0  0  0
    0.5369    0.9162    1.0478 H   0  0  0  0  0  0  0  0  0  0  0  0
   -1.2127   -1.5904    1.1083 H   0  0  0  0  0  0  0  0  0  0  0  0
   -0.4310   -0.8561    2.5110 H   0  0  0  0  0  0  0  0  0  0  0  0
    1.9416   -3.3257    1.3246 H   0  0  0  0  0  0  0  0  0  0  0  0
  1  2  1  0
  1  4  1  0
  1  5  1  0
  1  6  1  0
  2  3  2  3
  3  8  1  0
  7  9  1  0
  9 10  1  0
  9 15  1  0
  9 16  1  0
 10 11  1  0
 10 17  1  0
 10 18  1  0
 11 12  1  0
 11 19  1  0
 11 20  1  0
 12 13  1  0
 13 14  2  0
 13 21  1  0
M  RAD  1   2   2
M  END
>  <reaction>  (10) 
rmg_rxn_16648

>  <mol_properties>  (10) 
{"1": {"label": "*1", "atom_type": "Cd"}, "2": {"label": "*0", "atom_type": "N3d"}, "6": {"label": "*2", "atom_type": "H0"}, "8": {"label": "*3", "atom_type": "Cs"}, "9": {"label": "*4", "atom_type": "Cs"}}

>  <type>  (10) 
unop_6

>  <geom_source>  (10) 
Heuristics

$$$$

     RDKit          3D

 21 19  0  0  0  0  0  0  0  0999 V2000
    0.8355    2.0193   -3.5731 C   0  0  0  0  0  0  0  0  0  0  0  0
    0.8355    2.0193   -2.0807 C   0  0  0  0  0  3  0  0  0  0  0  0
    0.8355    3.0919   -1.4131 N   0  0  0  0  0  0  0  0  0  0  0  0
    1.7138    1.4893   -3.9505 H   0  0  0  0  0  0  0  0  0  0  0  0
   -0.0427    1.4893   -3.9505 H   0  0  0  0  0  0  0  0  0  0  0  0
    0.8355    3.0399   -3.9517 H   0  0  0  0  0  0  0  0  0  0  0  0
    0.8355    0.8316   -1.5112 H   0  0  0  0  0  0  0  0  0  0  0  0
    0.8355    2.9001   -0.4134 H   0  0  0  0  0  0  0  0  0  0  0  0
    0.8355   -0.3483   -0.9453 C   0  0  0  0  0  0  0  0  0  0  0  0
   -0.5870   -0.8387   -0.7101 C   0  0  0  0  0  0  0  0  0  0  0  0
   -0.7609   -1.5808    0.5957 C   0  0  0  0  0  0  0  0  0  0  0  0
   -0.5085   -0.6618    1.6720 O   0  0  0  0  0  0  0  0  0  0  0  0
   -0.5726   -1.1600    2.9017 C   0  0  0  0  0  0  0  0  0  0  0  0
   -0.8197   -2.2944    3.1888 O   0  0  0  0  0  0  0  0  0  0  0  0
    1.5407   -1.1827   -0.9477 H   0  0  0  0  0  0  0  0  0  0  0  0
    1.1431    0.3491   -0.1656 H   0  0  0  0  0  0  0  0  0  0  0  0
   -0.8851   -1.5204   -1.5111 H   0  0  0  0  0  0  0  0  0  0  0  0
   -1.2863    0.0007   -0.7368 H   0  0  0  0  0  0  0  0  0  0  0  0
   -0.0634   -2.4174    0.6790 H   0  0  0  0  0  0  0  0  0  0  0  0
   -1.7726   -1.9753    0.7047 H   0  0  0  0  0  0  0  0  0  0  0  0
   -0.3623   -0.3637    3.6287 H   0  0  0  0  0  0  0  0  0  0  0  0
  1  2  1  0
  1  4  1  0
  1  5  1  0
  1  6  1  0
  2  3  2  3
  3  8  1  0
  7  9  1  0
  9 10  1  0
  9 15  1  0
  9 16  1  0
 10 11  1  0
 10 17  1  0
 10 18  1  0
 11 12  1  0
 11 19  1  0
 11 20  1  0
 12 13  1  0
 13 14  2  0
 13 21  1  0
M  RAD  1   2   2
M  END
>  <reaction>  (11) 
rmg_rxn_16648

>  <mol_properties>  (11) 
{"1": {"label": "*1", "atom_type": "Cd"}, "2": {"label": "*0", "atom_type": "N3d"}, "6": {"label": "*2", "atom_type": "H0"}, "8": {"label": "*3", "atom_type": "Cs"}, "9": {"label": "*4", "atom_type": "Cs"}}

>  <type>  (11) 
unop_7

>  <geom_source>  (11) 
Heuristics

$$$$

     RDKit          3D

 21 19  0  0  0  0  0  0  0  0999 V2000
    0.2048    1.8902   -3.8267 C   0  0  0  0  0  0  0  0  0  0  0  0
    0.2048    1.8902   -2.3343 C   0  0  0  0  0  3  0  0  0  0  0  0
    0.2048    2.9628   -1.6667 N   0  0  0  0  0  0  0  0  0  0  0  0
    1.0830    1.3602   -4.2041 H   0  0  0  0  0  0  0  0  0  0  0  0
   -0.6735    1.3602   -4.2041 H   0  0  0  0  0  0  0  0  0  0  0  0
    0.2048    2.9108   -4.2053 H   0  0  0  0  0  0  0  0  0  0  0  0
    0.2048    0.7025   -1.7648 H   0  0  0  0  0  0  0  0  0  0  0  0
    0.2048    2.7710   -0.6670 H   0  0  0  0  0  0  0  0  0  0  0  0
    0.2048   -0.4774   -1.1989 C   0  0  0  0  0  0  0  0  0  0  0  0
   -1.0272   -0.6602   -0.3223 C   0  0  0  0  0  0  0  0  0  0  0  0
   -0.7476   -1.4060    0.9628 C   0  0  0  0  0  0  0  0  0  0  0  0
    0.1511   -0.6129    1.7564 O   0  0  0  0  0  0  0  0  0  0  0  0
    0.5434   -1.1409    2.9104 C   0  0  0  0  0  0  0  0  0  0  0  0
    0.2174   -2.2074    3.3426 O   0  0  0  0  0  0  0  0  0  0  0  0
    0.6380   -1.4430   -1.4696 H   0  0  0  0  0  0  0  0  0  0  0  0
    0.9707    0.1013   -0.6818 H   0  0  0  0  0  0  0  0  0  0  0  0
   -1.7912   -1.2246   -0.8636 H   0  0  0  0  0  0  0  0  0  0  0  0
   -1.4674    0.3104   -0.0805 H   0  0  0  0  0  0  0  0  0  0  0  0
   -0.2829   -2.3761    0.7721 H   0  0  0  0  0  0  0  0  0  0  0  0
   -1.6597   -1.5780    1.5368 H   0  0  0  0  0  0  0  0  0  0  0  0
    1.2223   -0.4425    3.4185 H   0  0  0  0  0  0  0  0  0  0  0  0
  1  2  1  0
  1  4  1  0
  1  5  1  0
  1  6  1  0
  2  3  2  3
  3  8  1  0
  7  9  1  0
  9 10  1  0
  9 15  1  0
  9 16  1  0
 10 11  1  0
 10 17  1  0
 10 18  1  0
 11 12  1  0
 11 19  1  0
 11 20  1  0
 12 13  1  0
 13 14  2  0
 13 21  1  0
M  RAD  1   2   2
M  END
>  <reaction>  (12) 
rmg_rxn_16648

>  <mol_properties>  (12) 
{"1": {"label": "*1", "atom_type": "Cd"}, "2": {"label": "*0", "atom_type": "N3d"}, "6": {"label": "*2", "atom_type": "H0"}, "8": {"label": "*3", "atom_type": "Cs"}, "9": {"label": "*4", "atom_type": "Cs"}}

>  <type>  (12) 
unop_8

>  <geom_source>  (12) 
Heuristics

$$$$

     RDKit          3D

 21 19  0  0  0  0  0  0  0  0999 V2000
   -0.6826    2.6062   -3.2741 C   0  0  0  0  0  0  0  0  0  0  0  0
   -0.6826    2.6062   -1.7818 C   0  0  0  0  0  3  0  0  0  0  0  0
   -0.6826    3.6788   -1.1141 N   0  0  0  0  0  0  0  0  0  0  0  0
    0.1956    2.0762   -3.6515 H   0  0  0  0  0  0  0  0  0  0  0  0
   -1.5609    2.0762   -3.6515 H   0  0  0  0  0  0  0  0  0  0  0  0
   -0.6826    3.6268   -3.6527 H   0  0  0  0  0  0  0  0  0  0  0  0
   -0.6826    1.4185   -1.2122 H   0  0  0  0  0  0  0  0  0  0  0  0
   -0.6826    3.4870   -0.1145 H   0  0  0  0  0  0  0  0  0  0  0  0
   -0.6826    0.2386   -0.6463 C   0  0  0  0  0  0  0  0  0  0  0  0
    0.7399   -0.2518   -0.4111 C   0  0  0  0  0  0  0  0  0  0  0  0
    0.9262   -0.9462    0.9190 C   0  0  0  0  0  0  0  0  0  0  0  0
    0.1237   -2.1389    0.9197 O   0  0  0  0  0  0  0  0  0  0  0  0
    0.1309   -2.8553    2.0382 C   0  0  0  0  0  0  0  0  0  0  0  0
    0.7407   -2.5978    3.0343 O   0  0  0  0  0  0  0  0  0  0  0  0
   -0.9876    0.9402    0.1336 H   0  0  0  0  0  0  0  0  0  0  0  0
   -1.3884   -0.5925   -0.6452 H   0  0  0  0  0  0  0  0  0  0  0  0
    1.4353    0.5914   -0.4354 H   0  0  0  0  0  0  0  0  0  0  0  0
    1.0435   -0.9313   -1.2115 H   0  0  0  0  0  0  0  0  0  0  0  0
    0.6118   -0.3123    1.7513 H   0  0  0  0  0  0  0  0  0  0  0  0
    1.9675   -1.2271    1.0858 H   0  0  0  0  0  0  0  0  0  0  0  0
   -0.5159   -3.7343    1.9119 H   0  0  0  0  0  0  0  0  0  0  0  0
  1  2  1  0
  1  4  1  0
  1  5  1  0
  1  6  1  0
  2  3  2  3
  3  8  1  0
  7  9  1  0
  9 10  1  0
  9 15  1  0
  9 16  1  0
 10 11  1  0
 10 17  1  0
 10 18  1  0
 11 12  1  0
 11 19  1  0
 11 20  1  0
 12 13  1  0
 13 14  2  0
 13 21  1  0
M  RAD  1   2   2
M  END
>  <reaction>  (13) 
rmg_rxn_16648

>  <mol_properties>  (13) 
{"1": {"label": "*1", "atom_type": "Cd"}, "2": {"label": "*0", "atom_type": "N3d"}, "6": {"label": "*2", "atom_type": "H0"}, "8": {"label": "*3", "atom_type": "Cs"}, "9": {"label": "*4", "atom_type": "Cs"}}

>  <type>  (13) 
unop_9

>  <geom_source>  (13) 
Heuristics

$$$$

     RDKit          3D

 21 19  0  0  0  0  0  0  0  0999 V2000
   -3.4082   -0.3435   -0.1149 C   0  0  0  0  0  0  0  0  0  0  0  0
   -2.0899    0.3169    0.0278 C   0  0  0  0  0  3  0  0  0  0  0  0
   -1.8585    1.5020   -0.2518 N   0  0  0  0  0  0  0  0  0  0  0  0
   -4.1580    0.3396   -0.5143 H   0  0  0  0  0  0  0  0  0  0  0  0
   -3.3108   -1.2041   -0.7754 H   0  0  0  0  0  0  0  0  0  0  0  0
   -3.7311   -0.7073    0.8595 H   0  0  0  0  0  0  0  0  0  0  0  0
   -1.1517   -0.5357    0.5193 H   0  0  0  0  0  0  0  0  0  0  0  0
   -0.9218    1.8727   -0.1199 H   0  0  0  0  0  0  0  0  0  0  0  0
   -0.2723   -1.3679    0.9861 C   0  0  0  0  0  0  0  0  0  0  0  0
    0.5611   -1.9100   -0.1541 C   0  0  0  0  0  0  0  0  0  0  0  0
    1.2957   -0.8075   -0.9160 C   0  0  0  0  0  0  0  0  0  0  0  0
    2.2967   -0.2017   -0.0867 O   0  0  0  0  0  0  0  0  0  0  0  0
    2.0874    1.0138    0.3613 C   0  0  0  0  0  0  0  0  0  0  0  0
    1.1540    1.7301    0.1336 O   0  0  0  0  0  0  0  0  0  0  0  0
    0.3214   -0.8131    1.7068 H   0  0  0  0  0  0  0  0  0  0  0  0
   -0.8306   -2.1522    1.4868 H   0  0  0  0  0  0  0  0  0  0  0  0
   -0.0775   -2.4370   -0.8665 H   0  0  0  0  0  0  0  0  0  0  0  0
    1.3063   -2.6226    0.2179 H   0  0  0  0  0  0  0  0  0  0  0  0
    0.5966   -0.0363   -1.2530 H   0  0  0  0  0  0  0  0  0  0  0  0
    1.8297   -1.2233   -1.7745 H   0  0  0  0  0  0  0  0  0  0  0  0
    2.9390    1.3063    0.9999 H   0  0  0  0  0  0  0  0  0  0  0  0
  1  2  1  0
  1  4  1  0
  1  5  1  0
  1  6  1  0
  2  3  2  3
  3  8  1  0
  7  9  1  0
  9 10  1  0
  9 15  1  0
  9 16  1  0
 10 11  1  0
 10 17  1  0
 10 18  1  0
 11 12  1  0
 11 19  1  0
 11 20  1  0
 12 13  1  0
 13 14  2  0
 13 21  1  0
M  RAD  1   2   2
M  END
>  <reaction>  (14) 
rmg_rxn_16648

>  <mol_properties>  (14) 
{"1": {"label": "*1", "atom_type": "Cd"}, "2": {"label": "*0", "atom_type": "N3d"}, "6": {"label": "*2", "atom_type": "H0"}, "8": {"label": "*3", "atom_type": "Cs"}, "9": {"label": "*4", "atom_type": "Cs"}}

>  <type>  (14) 
unop_10

>  <geom_source>  (14) 
Heuristics

$$$$

     RDKit          3D

 21 19  0  0  0  0  0  0  0  0999 V2000
    0.9671    2.8595   -2.5240 C   0  0  0  0  0  0  0  0  0  0  0  0
    0.9671    2.8595   -1.0317 C   0  0  0  0  0  3  0  0  0  0  0  0
    0.9671    3.9322   -0.3640 N   0  0  0  0  0  0  0  0  0  0  0  0
    1.8453    2.3295   -2.9014 H   0  0  0  0  0  0  0  0  0  0  0  0
    0.0888    2.3295   -2.9014 H   0  0  0  0  0  0  0  0  0  0  0  0
    0.9671    3.8802   -2.9026 H   0  0  0  0  0  0  0  0  0  0  0  0
    0.9671    1.6719   -0.4621 H   0  0  0  0  0  0  0  0  0  0  0  0
    0.9671    3.7404    0.6357 H   0  0  0  0  0  0  0  0  0  0  0  0
    0.9671    0.4920    0.1038 C   0  0  0  0  0  0  0  0  0  0  0  0
    0.2558   -0.5312   -0.7718 C   0  0  0  0  0  0  0  0  0  0  0  0
   -0.1389   -1.7886   -0.0308 C   0  0  0  0  0  0  0  0  0  0  0  0
   -1.1037   -1.4339    0.9742 O   0  0  0  0  0  0  0  0  0  0  0  0
   -1.5303   -2.4183    1.7574 C   0  0  0  0  0  0  0  0  0  0  0  0
   -1.1856   -3.5621    1.7001 O   0  0  0  0  0  0  0  0  0  0  0  0
    1.8765    0.0697    0.5374 H   0  0  0  0  0  0  0  0  0  0  0  0
    0.3257    0.8201    0.9222 H   0  0  0  0  0  0  0  0  0  0  0  0
    0.9056   -0.8334   -1.5974 H   0  0  0  0  0  0  0  0  0  0  0  0
   -0.6370   -0.0895   -1.2214 H   0  0  0  0  0  0  0  0  0  0  0  0
    0.7202   -2.2542    0.4577 H   0  0  0  0  0  0  0  0  0  0  0  0
   -0.5865   -2.5271   -0.6979 H   0  0  0  0  0  0  0  0  0  0  0  0
   -2.2587   -2.0212    2.4775 H   0  0  0  0  0  0  0  0  0  0  0  0
  1  2  1  0
  1  4  1  0
  1  5  1  0
  1  6  1  0
  2  3  2  3
  3  8  1  0
  7  9  1  0
  9 10  1  0
  9 15  1  0
  9 16  1  0
 10 11  1  0
 10 17  1  0
 10 18  1  0
 11 12  1  0
 11 19  1  0
 11 20  1  0
 12 13  1  0
 13 14  2  0
 13 21  1  0
M  RAD  1   2   2
M  END
>  <reaction>  (15) 
rmg_rxn_16648

>  <mol_properties>  (15) 
{"1": {"label": "*1", "atom_type": "Cd"}, "2": {"label": "*0", "atom_type": "N3d"}, "6": {"label": "*2", "atom_type": "H0"}, "8": {"label": "*3", "atom_type": "Cs"}, "9": {"label": "*4", "atom_type": "Cs"}}

>  <type>  (15) 
unop_11

>  <geom_source>  (15) 
Heuristics

$$$$

     RDKit          3D

 21 19  0  0  0  0  0  0  0  0999 V2000
   -0.7516    2.8864   -2.8139 C   0  0  0  0  0  0  0  0  0  0  0  0
   -0.7516    2.8864   -1.3216 C   0  0  0  0  0  3  0  0  0  0  0  0
   -0.7516    3.9591   -0.6539 N   0  0  0  0  0  0  0  0  0  0  0  0
    0.1267    2.3564   -3.1913 H   0  0  0  0  0  0  0  0  0  0  0  0
   -1.6298    2.3564   -3.1913 H   0  0  0  0  0  0  0  0  0  0  0  0
   -0.7516    3.9071   -3.1925 H   0  0  0  0  0  0  0  0  0  0  0  0
   -0.7516    1.6988   -0.7520 H   0  0  0  0  0  0  0  0  0  0  0  0
   -0.7516    3.7673    0.3458 H   0  0  0  0  0  0  0  0  0  0  0  0
   -0.7515    0.5189   -0.1861 C   0  0  0  0  0  0  0  0  0  0  0  0
    0.4804   -0.2791   -0.5922 C   0  0  0  0  0  0  0  0  0  0  0  0
    0.9841   -1.2043    0.4923 C   0  0  0  0  0  0  0  0  0  0  0  0
   -0.0267   -2.1951    0.7432 O   0  0  0  0  0  0  0  0  0  0  0  0
    0.2310   -3.0711    1.7079 C   0  0  0  0  0  0  0  0  0  0  0  0
    1.2204   -3.1074    2.3789 O   0  0  0  0  0  0  0  0  0  0  0  0
   -0.5472    1.1306    0.6957 H   0  0  0  0  0  0  0  0  0  0  0  0
   -1.5859   -0.1422    0.0497 H   0  0  0  0  0  0  0  0  0  0  0  0
    1.2997    0.3996   -0.8440 H   0  0  0  0  0  0  0  0  0  0  0  0
    0.2724   -0.8658   -1.4905 H   0  0  0  0  0  0  0  0  0  0  0  0
    1.1834   -0.6646    1.4210 H   0  0  0  0  0  0  0  0  0  0  0  0
    1.9034   -1.7121    0.1955 H   0  0  0  0  0  0  0  0  0  0  0  0
   -0.6120   -3.7695    1.8004 H   0  0  0  0  0  0  0  0  0  0  0  0
  1  2  1  0
  1  4  1  0
  1  5  1  0
  1  6  1  0
  2  3  2  3
  3  8  1  0
  7  9  1  0
  9 10  1  0
  9 15  1  0
  9 16  1  0
 10 11  1  0
 10 17  1  0
 10 18  1  0
 11 12  1  0
 11 19  1  0
 11 20  1  0
 12 13  1  0
 13 14  2  0
 13 21  1  0
M  RAD  1   2   2
M  END
>  <reaction>  (16) 
rmg_rxn_16648

>  <mol_properties>  (16) 
{"1": {"label": "*1", "atom_type": "Cd"}, "2": {"label": "*0", "atom_type": "N3d"}, "6": {"label": "*2", "atom_type": "H0"}, "8": {"label": "*3", "atom_type": "Cs"}, "9": {"label": "*4", "atom_type": "Cs"}}

>  <type>  (16) 
unop_12

>  <geom_source>  (16) 
Heuristics

$$$$

     RDKit          3D

 21 19  0  0  0  0  0  0  0  0999 V2000
   -0.3802    2.1372   -3.7115 C   0  0  0  0  0  0  0  0  0  0  0  0
   -0.3802    2.1372   -2.2192 C   0  0  0  0  0  3  0  0  0  0  0  0
   -0.3802    3.2098   -1.5515 N   0  0  0  0  0  0  0  0  0  0  0  0
    0.4981    1.6072   -4.0889 H   0  0  0  0  0  0  0  0  0  0  0  0
   -1.2584    1.6072   -4.0889 H   0  0  0  0  0  0  0  0  0  0  0  0
   -0.3802    3.1578   -4.0901 H   0  0  0  0  0  0  0  0  0  0  0  0
   -0.3802    0.9496   -1.6496 H   0  0  0  0  0  0  0  0  0  0  0  0
   -0.3802    3.0180   -0.5519 H   0  0  0  0  0  0  0  0  0  0  0  0
   -0.3802   -0.2304   -1.0837 C   0  0  0  0  0  0  0  0  0  0  0  0
   -1.0915   -0.1880    0.2623 C   0  0  0  0  0  0  0  0  0  0  0  0
   -0.5978   -1.2320    1.2382 C   0  0  0  0  0  0  0  0  0  0  0  0
    0.7780   -0.9477    1.5428 O   0  0  0  0  0  0  0  0  0  0  0  0
    1.3910   -1.7991    2.3576 C   0  0  0  0  0  0  0  0  0  0  0  0
    0.9032   -2.7712    2.8552 O   0  0  0  0  0  0  0  0  0  0  0  0
   -0.5031   -1.2060   -1.5597 H   0  0  0  0  0  0  0  0  0  0  0  0
    0.6881   -0.0453   -0.9680 H   0  0  0  0  0  0  0  0  0  0  0  0
   -2.1630   -0.3555    0.1247 H   0  0  0  0  0  0  0  0  0  0  0  0
   -0.9846    0.8004    0.7162 H   0  0  0  0  0  0  0  0  0  0  0  0
   -0.6626   -2.2383    0.8179 H   0  0  0  0  0  0  0  0  0  0  0  0
   -1.1701   -1.2191    2.1674 H   0  0  0  0  0  0  0  0  0  0  0  0
    2.4290   -1.4736    2.5106 H   0  0  0  0  0  0  0  0  0  0  0  0
  1  2  1  0
  1  4  1  0
  1  5  1  0
  1  6  1  0
  2  3  2  3
  3  8  1  0
  7  9  1  0
  9 10  1  0
  9 15  1  0
  9 16  1  0
 10 11  1  0
 10 17  1  0
 10 18  1  0
 11 12  1  0
 11 19  1  0
 11 20  1  0
 12 13  1  0
 13 14  2  0
 13 21  1  0
M  RAD  1   2   2
M  END
>  <reaction>  (17) 
rmg_rxn_16648

>  <mol_properties>  (17) 
{"1": {"label": "*1", "atom_type": "Cd"}, "2": {"label": "*0", "atom_type": "N3d"}, "6": {"label": "*2", "atom_type": "H0"}, "8": {"label": "*3", "atom_type": "Cs"}, "9": {"label": "*4", "atom_type": "Cs"}}

>  <type>  (17) 
unop_13

>  <geom_source>  (17) 
Heuristics

$$$$

     RDKit          3D

 21 19  0  0  0  0  0  0  0  0999 V2000
    0.3381    3.1666   -2.2409 C   0  0  0  0  0  0  0  0  0  0  0  0
    0.3381    3.1666   -0.7486 C   0  0  0  0  0  3  0  0  0  0  0  0
    0.3381    4.2392   -0.0809 N   0  0  0  0  0  0  0  0  0  0  0  0
    1.2163    2.6366   -2.6184 H   0  0  0  0  0  0  0  0  0  0  0  0
   -0.5402    2.6366   -2.6184 H   0  0  0  0  0  0  0  0  0  0  0  0
    0.3381    4.1872   -2.6195 H   0  0  0  0  0  0  0  0  0  0  0  0
    0.3381    1.9790   -0.1790 H   0  0  0  0  0  0  0  0  0  0  0  0
    0.3381    4.0474    0.9187 H   0  0  0  0  0  0  0  0  0  0  0  0
    0.3381    0.7990    0.3869 C   0  0  0  0  0  0  0  0  0  0  0  0
    0.3381   -0.3065   -0.6606 C   0  0  0  0  0  0  0  0  0  0  0  0
    0.3655   -1.6977   -0.0690 C   0  0  0  0  0  0  0  0  0  0  0  0
   -0.8508   -1.8955    0.6711 O   0  0  0  0  0  0  0  0  0  0  0  0
   -0.9766   -3.0579    1.3016 C   0  0  0  0  0  0  0  0  0  0  0  0
   -0.1747   -3.9453    1.3069 O   0  0  0  0  0  0  0  0  0  0  0  0
    1.2229    0.7329    1.0242 H   0  0  0  0  0  0  0  0  0  0  0  0
   -0.5424    0.7323    1.0265 H   0  0  0  0  0  0  0  0  0  0  0  0
    1.2165   -0.2120   -1.3045 H   0  0  0  0  0  0  0  0  0  0  0  0
   -0.5369   -0.2140   -1.3089 H   0  0  0  0  0  0  0  0  0  0  0  0
    1.2127   -1.8304    0.6079 H   0  0  0  0  0  0  0  0  0  0  0  0
    0.4310   -2.4645   -0.8427 H   0  0  0  0  0  0  0  0  0  0  0  0
   -1.9416   -3.0854    1.8258 H   0  0  0  0  0  0  0  0  0  0  0  0
  1  2  1  0
  1  4  1  0
  1  5  1  0
  1  6  1  0
  2  3  2  3
  3  8  1  0
  7  9  1  0
  9 10  1  0
  9 15  1  0
  9 16  1  0
 10 11  1  0
 10 17  1  0
 10 18  1  0
 11 12  1  0
 11 19  1  0
 11 20  1  0
 12 13  1  0
 13 14  2  0
 13 21  1  0
M  RAD  1   2   2
M  END
>  <reaction>  (18) 
rmg_rxn_16648

>  <mol_properties>  (18) 
{"1": {"label": "*1", "atom_type": "Cd"}, "2": {"label": "*0", "atom_type": "N3d"}, "6": {"label": "*2", "atom_type": "H0"}, "8": {"label": "*3", "atom_type": "Cs"}, "9": {"label": "*4", "atom_type": "Cs"}}

>  <type>  (18) 
unop_14

>  <geom_source>  (18) 
Heuristics

$$$$

     RDKit          3D

 21 19  0  0  0  0  0  0  0  0999 V2000
    2.9174   -0.0097    0.6275 O   0  0  0  0  0  0  0  0  0  0  0  0
    3.5903    2.1178    0.0136 O   0  0  0  0  0  0  0  0  0  0  0  0
   -3.0547    0.1143   -1.3903 N   0  0  0  0  0  0  0  0  0  0  0  0
    0.9750   -1.3034    0.0291 C   0  0  0  0  0  0  0  0  0  0  0  0
    1.7208    0.0172   -0.1440 C   0  0  0  0  0  0  0  0  0  0  0  0
   -0.3164   -1.3156   -0.7808 C   0  0  0  0  0  3  0  0  0  0  0  0
   -2.7496    0.9048    0.8824 C   0  0  0  0  0  0  0  0  0  0  0  0
    3.8101    1.0637    0.6683 C   0  0  0  0  0  0  0  0  0  0  0  0
   -2.2522    0.3605   -0.4186 C   0  0  0  0  0  0  0  0  0  0  0  0
    1.6237   -2.1423   -0.3041 H   0  0  0  0  0  0  0  0  0  0  0  0
    0.7301   -1.4507    1.1030 H   0  0  0  0  0  0  0  0  0  0  0  0
    1.0785    0.8581    0.1989 H   0  0  0  0  0  0  0  0  0  0  0  0
    1.9754    0.1659   -1.2165 H   0  0  0  0  0  0  0  0  0  0  0  0
   -0.0953   -1.1981   -1.8631 H   0  0  0  0  0  0  0  0  0  0  0  0
   -0.8432   -2.2810   -0.6275 H   0  0  0  0  0  0  0  0  0  0  0  0
   -1.1368   -0.2955   -0.3712 H   0  0  0  0  0  0  0  0  0  0  0  0
   -3.2431    1.8855    0.7176 H   0  0  0  0  0  0  0  0  0  0  0  0
   -1.8925    1.0408    1.5735 H   0  0  0  0  0  0  0  0  0  0  0  0
   -3.4737    0.1961    1.3362 H   0  0  0  0  0  0  0  0  0  0  0  0
    4.7041    0.9881    1.2718 H   0  0  0  0  0  0  0  0  0  0  0  0
   -4.0681    0.2835   -1.3059 H   0  0  0  0  0  0  0  0  0  0  0  0
  1  5  1  0
  1  8  1  0
  2  8  2  0
  3  9  2  3
  3 21  1  0
  4  6  1  0
  4  5  1  0
  4 10  1  0
  4 11  1  0
  5 12  1  0
  5 13  1  0
  6 14  1  0
  6 15  1  0
  7  9  1  0
  7 17  1  0
  7 18  1  0
  7 19  1  0
  8 20  1  0
  9 16  1  0
M  RAD  1   6   2
M  END
>  <reaction>  (19) 
rmg_rxn_16648

>  <mol_properties>  (19) 
{"1": {"label": "*1", "atom_type": "Cd"}, "2": {"label": "*0", "atom_type": "N3d"}, "6": {"label": "*2", "atom_type": "H0"}, "8": {"label": "*3", "atom_type": "Cs"}, "9": {"label": "*4", "atom_type": "Cs"}}

>  <type>  (19) 
unop_15

>  <geom_source>  (19) 
AutoTST

$$$$

     RDKit          3D

 21 19  0  0  0  0  0  0  0  0999 V2000
   -0.3730    3.1472   -2.3775 C   0  0  0  0  0  0  0  0  0  0  0  0
   -0.3730    3.1472   -0.8852 C   0  0  0  0  0  3  0  0  0  0  0  0
   -0.3730    4.2198   -0.2175 N   0  0  0  0  0  0  0  0  0  0  0  0
    0.5053    2.6172   -2.7549 H   0  0  0  0  0  0  0  0  0  0  0  0
   -1.2512    2.6172   -2.7549 H   0  0  0  0  0  0  0  0  0  0  0  0
   -0.3730    4.1678   -2.7561 H   0  0  0  0  0  0  0  0  0  0  0  0
   -0.3730    1.9595   -0.3156 H   0  0  0  0  0  0  0  0  0  0  0  0
   -0.3730    4.0280    0.7822 H   0  0  0  0  0  0  0  0  0  0  0  0
   -0.3730    0.7796    0.2503 C   0  0  0  0  0  0  0  0  0  0  0  0
    0.3383   -0.2435   -0.6253 C   0  0  0  0  0  0  0  0  0  0  0  0
    0.7813   -1.4775    0.1277 C   0  0  0  0  0  0  0  0  0  0  0  0
   -0.3915   -2.1578    0.6055 O   0  0  0  0  0  0  0  0  0  0  0  0
   -0.1859   -3.2492    1.3342 C   0  0  0  0  0  0  0  0  0  0  0  0
    0.8786   -3.7108    1.6243 O   0  0  0  0  0  0  0  0  0  0  0  0
    0.2725    1.1101    1.0674 H   0  0  0  0  0  0  0  0  0  0  0  0
   -1.2789    0.3586    0.6872 H   0  0  0  0  0  0  0  0  0  0  0  0
    1.2322    0.2016   -1.0702 H   0  0  0  0  0  0  0  0  0  0  0  0
   -0.3065   -0.5463   -1.4541 H   0  0  0  0  0  0  0  0  0  0  0  0
    1.4109   -1.2224    0.9832 H   0  0  0  0  0  0  0  0  0  0  0  0
    1.3440   -2.1604   -0.5111 H   0  0  0  0  0  0  0  0  0  0  0  0
   -1.1534   -3.6731    1.6361 H   0  0  0  0  0  0  0  0  0  0  0  0
  1  2  1  0
  1  4  1  0
  1  5  1  0
  1  6  1  0
  2  3  2  3
  3  8  1  0
  7  9  1  0
  9 10  1  0
  9 15  1  0
  9 16  1  0
 10 11  1  0
 10 17  1  0
 10 18  1  0
 11 12  1  0
 11 19  1  0
 11 20  1  0
 12 13  1  0
 13 14  2  0
 13 21  1  0
M  RAD  1   2   2
M  END
>  <reaction>  (20) 
rmg_rxn_16648

>  <mol_properties>  (20) 
{"1": {"label": "*1", "atom_type": "Cd"}, "2": {"label": "*0", "atom_type": "N3d"}, "6": {"label": "*2", "atom_type": "H0"}, "8": {"label": "*3", "atom_type": "Cs"}, "9": {"label": "*4", "atom_type": "Cs"}}

>  <type>  (20) 
unop_16

>  <geom_source>  (20) 
gaussian_log

$$$$
