
     RDKit          3D

  5  4  0  0  0  0  0  0  0  0999 V2000
    0.7361   -0.2872    0.4035 N   0  0  0  0  0  2  0  0  0  0  0  0
   -0.3891   -0.1505   -0.3131 N   0  0  0  0  0  0  0  0  0  0  0  0
    1.4909    0.0686   -0.1831 H   0  0  0  0  0  0  0  0  0  0  0  0
   -1.1819   -0.6340    0.0744 H   0  0  0  0  0  0  0  0  0  0  0  0
   -0.3592   -0.1189   -1.3223 H   0  0  0  0  0  0  0  0  0  0  0  0
  1  2  1  0
  1  3  1  0
  2  4  1  0
  2  5  1  0
M  RAD  1   1   2
M  END
>  <reaction>  (1) 
rmg_rxn_390

>  <mol_properties>  (1) 
{"0": {"label": "donator", "atom_type": "N3s"}, "2": {"label": "d_hydrogen", "atom_type": "H0"}}

>  <type>  (1) 
r1h

$$$$

     RDKit          3D

  8  7  0  0  0  0  0  0  0  0999 V2000
   -0.7877    0.0858   -0.0844 C   0  0  0  0  0  0  0  0  0  0  0  0
    0.7225   -0.0625   -0.0124 C   0  0  0  0  0  0  0  0  0  0  0  0
    1.2936   -0.7834   -1.0109 O   0  0  0  0  0  1  0  0  0  0  0  0
   -1.2676   -0.8930   -0.0533 H   0  0  0  0  0  0  0  0  0  0  0  0
   -1.1575    0.6792    0.7543 H   0  0  0  0  0  0  0  0  0  0  0  0
   -1.0772    0.5805   -1.0122 H   0  0  0  0  0  0  0  0  0  0  0  0
    1.2273    0.9216    0.0046 H   0  0  0  0  0  0  0  0  0  0  0  0
    1.0419   -0.5186    0.9432 H   0  0  0  0  0  0  0  0  0  0  0  0
  1  2  1  0
  1  4  1  0
  1  5  1  0
  1  6  1  0
  2  3  1  0
  2  7  1  0
  2  8  1  0
M  RAD  1   3   2
M  END
>  <reaction>  (2) 
rmg_rxn_390

>  <mol_properties>  (2) 
{"2": {"label": "acceptor", "atom_type": "O2s"}}

>  <type>  (2) 
r2

$$$$

     RDKit          3D

  9  8  0  0  0  0  0  0  0  0999 V2000
   -0.9895    0.3048    0.1041 C   0  0  0  0  0  0  0  0  0  0  0  0
    0.3761   -0.3562    0.0721 C   0  0  0  0  0  0  0  0  0  0  0  0
    0.3441   -1.6564   -0.4834 O   0  0  0  0  0  0  0  0  0  0  0  0
   -1.6997   -0.3114    0.6572 H   0  0  0  0  0  0  0  0  0  0  0  0
   -0.9320    1.2848    0.5822 H   0  0  0  0  0  0  0  0  0  0  0  0
   -1.3774    0.4507   -0.9077 H   0  0  0  0  0  0  0  0  0  0  0  0
    0.7581   -0.4813    1.0862 H   0  0  0  0  0  0  0  0  0  0  0  0
    1.0900    0.2787   -0.4681 H   0  0  0  0  0  0  0  0  0  0  0  0
    0.0089   -1.5959   -1.3792 H   0  0  0  0  0  0  0  0  0  0  0  0
  1  2  1  0
  1  4  1  0
  1  5  1  0
  1  6  1  0
  2  3  1  0
  2  7  1  0
  2  8  1  0
  3  9  1  0
M  END
>  <reaction>  (3) 
rmg_rxn_390

>  <mol_properties>  (3) 
{"0": {"label": "a_hydrogen", "atom_type": "H0"}, "3": {"label": "acceptor", "atom_type": "O2s"}}

>  <type>  (3) 
r2h

$$$$

     RDKit          3D

 13 11  0  0  0  0  0  0  0  0999 V2000
   -0.1991   -1.7275   -0.2660 N   0  0  0  0  0  2  0  0  0  0  0  0
    1.0768   -1.9024   -0.6061 N   0  0  0  0  0  0  0  0  0  0  0  0
   -0.2437   -0.7662    0.2733 H   0  0  0  0  0  0  0  0  0  0  0  0
    1.3225   -2.8543   -0.8310 H   0  0  0  0  0  0  0  0  0  0  0  0
    1.7729   -1.3729   -0.0953 H   0  0  0  0  0  0  0  0  0  0  0  0
   -1.3671    1.6726   -0.6247 C   0  0  0  0  0  0  0  0  0  0  0  0
    0.0857    1.3655   -0.3075 C   0  0  0  0  0  0  0  0  0  0  0  0
    0.2587    0.4450    0.7144 O   0  0  0  0  0  1  0  0  0  0  0  0
   -1.8875    2.0193    0.2688 H   0  0  0  0  0  0  0  0  0  0  0  0
   -1.4377    2.4443   -1.3939 H   0  0  0  0  0  0  0  0  0  0  0  0
   -1.8702    0.7767   -0.9922 H   0  0  0  0  0  0  0  0  0  0  0  0
    0.6275    1.0496   -1.2116 H   0  0  0  0  0  0  0  0  0  0  0  0
    0.6007    2.2723    0.0464 H   0  0  0  0  0  0  0  0  0  0  0  0
  1  2  1  0
  1  3  1  0
  2  4  1  0
  2  5  1  0
  6  7  1  0
  6  9  1  0
  6 10  1  0
  6 11  1  0
  7  8  1  0
  7 12  1  0
  7 13  1  0
M  RAD  2   1   2   8   2
M  END
>  <reaction>  (4) 
rmg_rxn_390

>  <mol_properties>  (4) 
{"0": {"label": "*1", "atom_type": "N3s"}, "1": {"label": "*0", "atom_type": "N3s"}, "2": {"label": "*2", "atom_type": "H0"}, "6": {"label": "*4", "atom_type": "Cs"}, "7": {"label": "*3", "atom_type": "O2s"}}

>  <type>  (4) 
ts

$$$$

     RDKit          3D

 13 11  0  0  0  0  0  0  0  0999 V2000
    0.5773   -1.2090   -0.5015 N   0  0  0  0  0  1  0  0  0  0  0  0
    0.5773   -1.2090   -1.8425 N   0  0  0  0  0  0  0  0  0  0  0  0
    0.5773   -0.0332   -0.1613 H   0  0  0  0  0  0  0  0  0  0  0  0
    0.7653   -2.1089   -2.2514 H   0  0  0  0  0  0  0  0  0  0  0  0
    0.9393   -0.4206   -2.3600 H   0  0  0  0  0  0  0  0  0  0  0  0
   -1.2386    0.0414    1.4278 C   0  0  0  0  0  0  0  0  0  0  0  0
   -0.5843    1.3158    0.9272 C   0  0  0  0  0  0  0  0  0  0  0  0
    0.5773    1.0716    0.1584 O   0  0  0  0  0  0  0  0  0  0  0  0
   -0.5307   -0.5476    2.0125 H   0  0  0  0  0  0  0  0  0  0  0  0
   -2.1019    0.2723    2.0552 H   0  0  0  0  0  0  0  0  0  0  0  0
   -1.5886   -0.5724    0.5934 H   0  0  0  0  0  0  0  0  0  0  0  0
   -1.3079    1.9128    0.3574 H   0  0  0  0  0  0  0  0  0  0  0  0
   -0.2542    1.9258    1.7692 H   0  0  0  0  0  0  0  0  0  0  0  0
  1  2  1  0
  2  4  1  0
  2  5  1  0
  3  8  1  0
  6  7  1  0
  6  9  1  0
  6 10  1  0
  6 11  1  0
  7  8  1  0
  7 12  1  0
  7 13  1  0
M  RAD  1   1   3
M  END
>  <reaction>  (5) 
rmg_rxn_390

>  <mol_properties>  (5) 
{"0": {"label": "*1", "atom_type": "N3s"}, "1": {"label": "*0", "atom_type": "N3s"}, "2": {"label": "*2", "atom_type": "H0"}, "6": {"label": "*4", "atom_type": "Cs"}, "7": {"label": "*3", "atom_type": "O2s"}}

>  <type>  (5) 
unop_1

>  <geom_source>  (5) 
Heuristics

$$$$

     RDKit          3D

 13 11  0  0  0  0  0  0  0  0999 V2000
    0.4963   -1.5198    0.3984 N   0  0  0  0  0  1  0  0  0  0  0  0
    0.4963   -1.5198   -0.9426 N   0  0  0  0  0  0  0  0  0  0  0  0
    0.4963   -0.3440    0.7387 H   0  0  0  0  0  0  0  0  0  0  0  0
    0.6842   -2.4198   -1.3514 H   0  0  0  0  0  0  0  0  0  0  0  0
    0.8583   -0.7314   -1.4601 H   0  0  0  0  0  0  0  0  0  0  0  0
   -1.3915    0.8013   -0.4924 C   0  0  0  0  0  0  0  0  0  0  0  0
   -0.1744    1.5143    0.0671 C   0  0  0  0  0  0  0  0  0  0  0  0
    0.4963    0.7608    1.0583 O   0  0  0  0  0  0  0  0  0  0  0  0
   -2.0881    0.5486    0.3080 H   0  0  0  0  0  0  0  0  0  0  0  0
   -1.9083    1.4329   -1.2179 H   0  0  0  0  0  0  0  0  0  0  0  0
   -1.1039   -0.1228   -1.0013 H   0  0  0  0  0  0  0  0  0  0  0  0
    0.5121    1.7834   -0.7458 H   0  0  0  0  0  0  0  0  0  0  0  0
   -0.4733    2.4416    0.5578 H   0  0  0  0  0  0  0  0  0  0  0  0
  1  2  1  0
  2  4  1  0
  2  5  1  0
  3  8  1  0
  6  7  1  0
  6  9  1  0
  6 10  1  0
  6 11  1  0
  7  8  1  0
  7 12  1  0
  7 13  1  0
M  RAD  1   1   3
M  END
>  <reaction>  (6) 
rmg_rxn_390

>  <mol_properties>  (6) 
{"0": {"label": "*1", "atom_type": "N3s"}, "1": {"label": "*0", "atom_type": "N3s"}, "2": {"label": "*2", "atom_type": "H0"}, "6": {"label": "*4", "atom_type": "Cs"}, "7": {"label": "*3", "atom_type": "O2s"}}

>  <type>  (6) 
unop_2

>  <geom_source>  (6) 
Heuristics

$$$$

     RDKit          3D

 13 11  0  0  0  0  0  0  0  0999 V2000
    0.2376   -1.1571   -0.7515 N   0  0  0  0  0  1  0  0  0  0  0  0
    0.2376   -1.1571   -2.0925 N   0  0  0  0  0  0  0  0  0  0  0  0
    0.2376    0.0187   -0.4113 H   0  0  0  0  0  0  0  0  0  0  0  0
    0.4256   -2.0571   -2.5014 H   0  0  0  0  0  0  0  0  0  0  0  0
    0.5996   -0.3687   -2.6100 H   0  0  0  0  0  0  0  0  0  0  0  0
   -0.3427   -0.0354    1.9797 C   0  0  0  0  0  0  0  0  0  0  0  0
   -0.4330    1.2312    1.1488 C   0  0  0  0  0  0  0  0  0  0  0  0
    0.2376    1.1234   -0.0916 O   0  0  0  0  0  0  0  0  0  0  0  0
    0.6998   -0.3071    2.1505 H   0  0  0  0  0  0  0  0  0  0  0  0
   -0.8299    0.1029    2.9471 H   0  0  0  0  0  0  0  0  0  0  0  0
   -0.8364   -0.8703    1.4751 H   0  0  0  0  0  0  0  0  0  0  0  0
   -1.4840    1.5096    0.9984 H   0  0  0  0  0  0  0  0  0  0  0  0
    0.0490    2.0592    1.6704 H   0  0  0  0  0  0  0  0  0  0  0  0
  1  2  1  0
  2  4  1  0
  2  5  1  0
  3  8  1  0
  6  7  1  0
  6  9  1  0
  6 10  1  0
  6 11  1  0
  7  8  1  0
  7 12  1  0
  7 13  1  0
M  RAD  1   1   3
M  END
>  <reaction>  (7) 
rmg_rxn_390

>  <mol_properties>  (7) 
{"0": {"label": "*1", "atom_type": "N3s"}, "1": {"label": "*0", "atom_type": "N3s"}, "2": {"label": "*2", "atom_type": "H0"}, "6": {"label": "*4", "atom_type": "Cs"}, "7": {"label": "*3", "atom_type": "O2s"}}

>  <type>  (7) 
unop_3

>  <geom_source>  (7) 
Heuristics

$$$$

     RDKit          3D

 13 11  0  0  0  0  0  0  0  0999 V2000
   -0.4157   -1.7410    0.3664 N   0  0  0  0  0  1  0  0  0  0  0  0
   -0.4157   -1.7410   -0.9745 N   0  0  0  0  0  0  0  0  0  0  0  0
   -0.4157   -0.5652    0.7067 H   0  0  0  0  0  0  0  0  0  0  0  0
   -0.2277   -2.6409   -1.3834 H   0  0  0  0  0  0  0  0  0  0  0  0
   -0.0537   -0.9525   -1.4920 H   0  0  0  0  0  0  0  0  0  0  0  0
    0.5054    1.8358   -0.8288 C   0  0  0  0  0  0  0  0  0  0  0  0
    0.7459    1.1567    0.5068 C   0  0  0  0  0  0  0  0  0  0  0  0
   -0.4157    0.5396    1.0264 O   0  0  0  0  0  0  0  0  0  0  0  0
   -0.2935    2.5737   -0.7442 H   0  0  0  0  0  0  0  0  0  0  0  0
    1.4106    2.3400   -1.1733 H   0  0  0  0  0  0  0  0  0  0  0  0
    0.2196    1.1071   -1.5923 H   0  0  0  0  0  0  0  0  0  0  0  0
    1.5643    0.4306    0.4188 H   0  0  0  0  0  0  0  0  0  0  0  0
    1.0454    1.8920    1.2548 H   0  0  0  0  0  0  0  0  0  0  0  0
  1  2  1  0
  2  4  1  0
  2  5  1  0
  3  8  1  0
  6  7  1  0
  6  9  1  0
  6 10  1  0
  6 11  1  0
  7  8  1  0
  7 12  1  0
  7 13  1  0
M  RAD  1   1   3
M  END
>  <reaction>  (8) 
rmg_rxn_390

>  <mol_properties>  (8) 
{"0": {"label": "*1", "atom_type": "N3s"}, "1": {"label": "*0", "atom_type": "N3s"}, "2": {"label": "*2", "atom_type": "H0"}, "6": {"label": "*4", "atom_type": "Cs"}, "7": {"label": "*3", "atom_type": "O2s"}}

>  <type>  (8) 
unop_4

>  <geom_source>  (8) 
Heuristics

$$$$

     RDKit          3D

 13 11  0  0  0  0  0  0  0  0999 V2000
   -0.2448   -1.2519   -0.7770 N   0  0  0  0  0  1  0  0  0  0  0  0
   -0.2448   -1.2519   -2.1180 N   0  0  0  0  0  0  0  0  0  0  0  0
   -0.2448   -0.0761   -0.4368 H   0  0  0  0  0  0  0  0  0  0  0  0
   -0.0568   -2.1518   -2.5269 H   0  0  0  0  0  0  0  0  0  0  0  0
    0.1172   -0.4634   -2.6355 H   0  0  0  0  0  0  0  0  0  0  0  0
    0.9582    0.3982    1.9140 C   0  0  0  0  0  0  0  0  0  0  0  0
   -0.2448    1.0865    1.2959 C   0  0  0  0  0  0  0  0  0  0  0  0
   -0.2448    1.0287   -0.1171 O   0  0  0  0  0  0  0  0  0  0  0  0
    1.8840    0.8293    1.5308 H   0  0  0  0  0  0  0  0  0  0  0  0
    0.9472    0.5055    3.0006 H   0  0  0  0  0  0  0  0  0  0  0  0
    0.9573   -0.6710    1.6855 H   0  0  0  0  0  0  0  0  0  0  0  0
   -1.1720    0.6617    1.7013 H   0  0  0  0  0  0  0  0  0  0  0  0
   -0.2402    2.1487    1.5447 H   0  0  0  0  0  0  0  0  0  0  0  0
  1  2  1  0
  2  4  1  0
  2  5  1  0
  3  8  1  0
  6  7  1  0
  6  9  1  0
  6 10  1  0
  6 11  1  0
  7  8  1  0
  7 12  1  0
  7 13  1  0
M  RAD  1   1   3
M  END
>  <reaction>  (9) 
rmg_rxn_390

>  <mol_properties>  (9) 
{"0": {"label": "*1", "atom_type": "N3s"}, "1": {"label": "*0", "atom_type": "N3s"}, "2": {"label": "*2", "atom_type": "H0"}, "6": {"label": "*4", "atom_type": "Cs"}, "7": {"label": "*3", "atom_type": "O2s"}}

>  <type>  (9) 
unop_5

>  <geom_source>  (9) 
Heuristics

$$$$

     RDKit          3D

 13 11  0  0  0  0  0  0  0  0999 V2000
   -0.6258   -1.6959    0.0843 N   0  0  0  0  0  1  0  0  0  0  0  0
   -0.6258   -1.6959   -1.2567 N   0  0  0  0  0  0  0  0  0  0  0  0
   -0.6258   -0.5201    0.4245 H   0  0  0  0  0  0  0  0  0  0  0  0
   -0.4379   -2.5959   -1.6656 H   0  0  0  0  0  0  0  0  0  0  0  0
   -0.2639   -0.9075   -1.7742 H   0  0  0  0  0  0  0  0  0  0  0  0
    1.1834    1.8370   -0.3181 C   0  0  0  0  0  0  0  0  0  0  0  0
    0.7154    1.0153    0.8688 C   0  0  0  0  0  0  0  0  0  0  0  0
   -0.6258    0.5847    0.7442 O   0  0  0  0  0  0  0  0  0  0  0  0
    0.5343    2.7014   -0.4645 H   0  0  0  0  0  0  0  0  0  0  0  0
    2.2049    2.1903   -0.1633 H   0  0  0  0  0  0  0  0  0  0  0  0
    1.1730    1.2412   -1.2348 H   0  0  0  0  0  0  0  0  0  0  0  0
    1.3848    0.1592    1.0224 H   0  0  0  0  0  0  0  0  0  0  0  0
    0.7458    1.6164    1.7786 H   0  0  0  0  0  0  0  0  0  0  0  0
  1  2  1  0
  2  4  1  0
  2  5  1  0
  3  8  1  0
  6  7  1  0
  6  9  1  0
  6 10  1  0
  6 11  1  0
  7  8  1  0
  7 12  1  0
  7 13  1  0
M  RAD  1   1   3
M  END
>  <reaction>  (10) 
rmg_rxn_390

>  <mol_properties>  (10) 
{"0": {"label": "*1", "atom_type": "N3s"}, "1": {"label": "*0", "atom_type": "N3s"}, "2": {"label": "*2", "atom_type": "H0"}, "6": {"label": "*4", "atom_type": "Cs"}, "7": {"label": "*3", "atom_type": "O2s"}}

>  <type>  (10) 
unop_6

>  <geom_source>  (10) 
Heuristics

$$$$

     RDKit          3D

 13 11  0  0  0  0  0  0  0  0999 V2000
   -0.6771   -1.6015   -0.2480 N   0  0  0  0  0  1  0  0  0  0  0  0
   -0.6771   -1.6015   -1.5890 N   0  0  0  0  0  0  0  0  0  0  0  0
   -0.6771   -0.4257    0.0922 H   0  0  0  0  0  0  0  0  0  0  0  0
   -0.4892   -2.5014   -1.9979 H   0  0  0  0  0  0  0  0  0  0  0  0
   -0.3151   -0.8131   -2.1065 H   0  0  0  0  0  0  0  0  0  0  0  0
    1.5705    1.6371    0.3973 C   0  0  0  0  0  0  0  0  0  0  0  0
    0.4845    0.9233    1.1807 C   0  0  0  0  0  0  0  0  0  0  0  0
   -0.6771    0.6791    0.4119 O   0  0  0  0  0  0  0  0  0  0  0  0
    1.1950    2.5784   -0.0063 H   0  0  0  0  0  0  0  0  0  0  0  0
    2.4299    1.8500    1.0364 H   0  0  0  0  0  0  0  0  0  0  0  0
    1.9203    1.0219   -0.4362 H   0  0  0  0  0  0  0  0  0  0  0  0
    0.8752   -0.0124    1.6007 H   0  0  0  0  0  0  0  0  0  0  0  0
    0.1560    1.5408    2.0179 H   0  0  0  0  0  0  0  0  0  0  0  0
  1  2  1  0
  2  4  1  0
  2  5  1  0
  3  8  1  0
  6  7  1  0
  6  9  1  0
  6 10  1  0
  6 11  1  0
  7  8  1  0
  7 12  1  0
  7 13  1  0
M  RAD  1   1   3
M  END
>  <reaction>  (11) 
rmg_rxn_390

>  <mol_properties>  (11) 
{"0": {"label": "*1", "atom_type": "N3s"}, "1": {"label": "*0", "atom_type": "N3s"}, "2": {"label": "*2", "atom_type": "H0"}, "6": {"label": "*4", "atom_type": "Cs"}, "7": {"label": "*3", "atom_type": "O2s"}}

>  <type>  (11) 
unop_7

>  <geom_source>  (11) 
Heuristics

$$$$

     RDKit          3D

 13 11  0  0  0  0  0  0  0  0999 V2000
    0.7130   -1.3062   -0.1674 N   0  0  0  0  0  1  0  0  0  0  0  0
    0.7130   -1.3062   -1.5084 N   0  0  0  0  0  0  0  0  0  0  0  0
    0.7130   -0.1304    0.1728 H   0  0  0  0  0  0  0  0  0  0  0  0
    0.9010   -2.2061   -1.9173 H   0  0  0  0  0  0  0  0  0  0  0  0
    1.0750   -0.5177   -2.0259 H   0  0  0  0  0  0  0  0  0  0  0  0
   -1.6116    0.2526    0.7051 C   0  0  0  0  0  0  0  0  0  0  0  0
   -0.6283    1.4051    0.6171 C   0  0  0  0  0  0  0  0  0  0  0  0
    0.7130    0.9744    0.4925 O   0  0  0  0  0  0  0  0  0  0  0  0
   -1.3592   -0.4024    1.5400 H   0  0  0  0  0  0  0  0  0  0  0  0
   -2.6285    0.6239    0.8483 H   0  0  0  0  0  0  0  0  0  0  0  0
   -1.6008   -0.3418   -0.2126 H   0  0  0  0  0  0  0  0  0  0  0  0
   -0.9003    2.0707   -0.2121 H   0  0  0  0  0  0  0  0  0  0  0  0
   -0.6606    1.9987    1.5318 H   0  0  0  0  0  0  0  0  0  0  0  0
  1  2  1  0
  2  4  1  0
  2  5  1  0
  3  8  1  0
  6  7  1  0
  6  9  1  0
  6 10  1  0
  6 11  1  0
  7  8  1  0
  7 12  1  0
  7 13  1  0
M  RAD  1   1   3
M  END
>  <reaction>  (12) 
rmg_rxn_390

>  <mol_properties>  (12) 
{"0": {"label": "*1", "atom_type": "N3s"}, "1": {"label": "*0", "atom_type": "N3s"}, "2": {"label": "*2", "atom_type": "H0"}, "6": {"label": "*4", "atom_type": "Cs"}, "7": {"label": "*3", "atom_type": "O2s"}}

>  <type>  (12) 
unop_8

>  <geom_source>  (12) 
Heuristics

$$$$

     RDKit          3D

 13 11  0  0  0  0  0  0  0  0999 V2000
   -0.0987   -1.7181    0.5265 N   0  0  0  0  0  1  0  0  0  0  0  0
   -0.0987   -1.7181   -0.8145 N   0  0  0  0  0  0  0  0  0  0  0  0
   -0.0987   -0.5423    0.8667 H   0  0  0  0  0  0  0  0  0  0  0  0
    0.0892   -2.6181   -1.2234 H   0  0  0  0  0  0  0  0  0  0  0  0
    0.2633   -0.9297   -1.3320 H   0  0  0  0  0  0  0  0  0  0  0  0
   -0.2986    1.6075   -1.0131 C   0  0  0  0  0  0  0  0  0  0  0  0
    0.5719    1.3160    0.1952 C   0  0  0  0  0  0  0  0  0  0  0  0
   -0.0987    0.5624    1.1864 O   0  0  0  0  0  0  0  0  0  0  0  0
   -1.2087    2.1280   -0.7120 H   0  0  0  0  0  0  0  0  0  0  0  0
    0.2372    2.2300   -1.7327 H   0  0  0  0  0  0  0  0  0  0  0  0
   -0.5846    0.6827   -1.5215 H   0  0  0  0  0  0  0  0  0  0  0  0
    1.4947    0.8107   -0.1177 H   0  0  0  0  0  0  0  0  0  0  0  0
    0.8630    2.2471    0.6834 H   0  0  0  0  0  0  0  0  0  0  0  0
  1  2  1  0
  2  4  1  0
  2  5  1  0
  3  8  1  0
  6  7  1  0
  6  9  1  0
  6 10  1  0
  6 11  1  0
  7  8  1  0
  7 12  1  0
  7 13  1  0
M  RAD  1   1   3
M  END
>  <reaction>  (13) 
rmg_rxn_390

>  <mol_properties>  (13) 
{"0": {"label": "*1", "atom_type": "N3s"}, "1": {"label": "*0", "atom_type": "N3s"}, "2": {"label": "*2", "atom_type": "H0"}, "6": {"label": "*4", "atom_type": "Cs"}, "7": {"label": "*3", "atom_type": "O2s"}}

>  <type>  (13) 
unop_9

>  <geom_source>  (13) 
Heuristics

$$$$

     RDKit          3D

 13 11  0  0  0  0  0  0  0  0999 V2000
    0.6706   -1.4124    0.1543 N   0  0  0  0  0  1  0  0  0  0  0  0
    0.6706   -1.4124   -1.1867 N   0  0  0  0  0  0  0  0  0  0  0  0
    0.6706   -0.2366    0.4945 H   0  0  0  0  0  0  0  0  0  0  0  0
    0.8585   -2.3124   -1.5956 H   0  0  0  0  0  0  0  0  0  0  0  0
    1.0325   -0.6240   -1.7042 H   0  0  0  0  0  0  0  0  0  0  0  0
   -1.6154    0.5000    0.0338 C   0  0  0  0  0  0  0  0  0  0  0  0
   -0.4910    1.4852    0.2946 C   0  0  0  0  0  0  0  0  0  0  0  0
    0.6706    0.8682    0.8142 O   0  0  0  0  0  0  0  0  0  0  0  0
   -1.8671   -0.0430    0.9457 H   0  0  0  0  0  0  0  0  0  0  0  0
   -2.5083    1.0193   -0.3204 H   0  0  0  0  0  0  0  0  0  0  0  0
   -1.3287   -0.2274   -0.7305 H   0  0  0  0  0  0  0  0  0  0  0  0
   -0.2572    2.0421   -0.6219 H   0  0  0  0  0  0  0  0  0  0  0  0
   -0.7957    2.2143    1.0467 H   0  0  0  0  0  0  0  0  0  0  0  0
  1  2  1  0
  2  4  1  0
  2  5  1  0
  3  8  1  0
  6  7  1  0
  6  9  1  0
  6 10  1  0
  6 11  1  0
  7  8  1  0
  7 12  1  0
  7 13  1  0
M  RAD  1   1   3
M  END
>  <reaction>  (14) 
rmg_rxn_390

>  <mol_properties>  (14) 
{"0": {"label": "*1", "atom_type": "N3s"}, "1": {"label": "*0", "atom_type": "N3s"}, "2": {"label": "*2", "atom_type": "H0"}, "6": {"label": "*4", "atom_type": "Cs"}, "7": {"label": "*3", "atom_type": "O2s"}}

>  <type>  (14) 
unop_10

>  <geom_source>  (14) 
Heuristics

$$$$

     RDKit          3D

 13 11  0  0  0  0  0  0  0  0999 V2000
   -0.5636   -1.4584   -0.5570 N   0  0  0  0  0  1  0  0  0  0  0  0
   -0.5636   -1.4584   -1.8980 N   0  0  0  0  0  0  0  0  0  0  0  0
   -0.5636   -0.2826   -0.2167 H   0  0  0  0  0  0  0  0  0  0  0  0
   -0.3757   -2.3583   -2.3068 H   0  0  0  0  0  0  0  0  0  0  0  0
   -0.2016   -0.6700   -2.4155 H   0  0  0  0  0  0  0  0  0  0  0  0
    1.5942    1.1893    1.1888 C   0  0  0  0  0  0  0  0  0  0  0  0
    0.1070    0.9300    1.3434 C   0  0  0  0  0  0  0  0  0  0  0  0
   -0.5636    0.8222    0.1029 O   0  0  0  0  0  0  0  0  0  0  0  0
    1.7658    2.0921    0.6011 H   0  0  0  0  0  0  0  0  0  0  0  0
    2.0671    1.3137    2.1652 H   0  0  0  0  0  0  0  0  0  0  0  0
    2.0868    0.3533    0.6849 H   0  0  0  0  0  0  0  0  0  0  0  0
   -0.0581    0.0321    1.9526 H   0  0  0  0  0  0  0  0  0  0  0  0
   -0.3691    1.7637    1.8612 H   0  0  0  0  0  0  0  0  0  0  0  0
  1  2  1  0
  2  4  1  0
  2  5  1  0
  3  8  1  0
  6  7  1  0
  6  9  1  0
  6 10  1  0
  6 11  1  0
  7  8  1  0
  7 12  1  0
  7 13  1  0
M  RAD  1   1   3
M  END
>  <reaction>  (15) 
rmg_rxn_390

>  <mol_properties>  (15) 
{"0": {"label": "*1", "atom_type": "N3s"}, "1": {"label": "*0", "atom_type": "N3s"}, "2": {"label": "*2", "atom_type": "H0"}, "6": {"label": "*4", "atom_type": "Cs"}, "7": {"label": "*3", "atom_type": "O2s"}}

>  <type>  (15) 
unop_11

>  <geom_source>  (15) 
Heuristics

$$$$

     RDKit          3D

 13 11  0  0  0  0  0  0  0  0999 V2000
    0.2302   -1.6305    0.5315 N   0  0  0  0  0  1  0  0  0  0  0  0
    0.2302   -1.6305   -0.8095 N   0  0  0  0  0  0  0  0  0  0  0  0
    0.2302   -0.4547    0.8717 H   0  0  0  0  0  0  0  0  0  0  0  0
    0.4181   -2.5305   -1.2184 H   0  0  0  0  0  0  0  0  0  0  0  0
    0.5922   -0.8421   -1.3270 H   0  0  0  0  0  0  0  0  0  0  0  0
   -0.9727    1.2017   -0.8626 C   0  0  0  0  0  0  0  0  0  0  0  0
    0.2302    1.4535    0.0276 C   0  0  0  0  0  0  0  0  0  0  0  0
    0.2302    0.6501    1.1914 O   0  0  0  0  0  0  0  0  0  0  0  0
   -1.8986    1.3614   -0.3084 H   0  0  0  0  0  0  0  0  0  0  0  0
   -0.9618    1.8727   -1.7240 H   0  0  0  0  0  0  0  0  0  0  0  0
   -0.9719    0.1756   -1.2403 H   0  0  0  0  0  0  0  0  0  0  0  0
    1.1575    1.3109   -0.5420 H   0  0  0  0  0  0  0  0  0  0  0  0
    0.2257    2.4844    0.3845 H   0  0  0  0  0  0  0  0  0  0  0  0
  1  2  1  0
  2  4  1  0
  2  5  1  0
  3  8  1  0
  6  7  1  0
  6  9  1  0
  6 10  1  0
  6 11  1  0
  7  8  1  0
  7 12  1  0
  7 13  1  0
M  RAD  1   1   3
M  END
>  <reaction>  (16) 
rmg_rxn_390

>  <mol_properties>  (16) 
{"0": {"label": "*1", "atom_type": "N3s"}, "1": {"label": "*0", "atom_type": "N3s"}, "2": {"label": "*2", "atom_type": "H0"}, "6": {"label": "*4", "atom_type": "Cs"}, "7": {"label": "*3", "atom_type": "O2s"}}

>  <type>  (16) 
unop_12

>  <geom_source>  (16) 
Heuristics

$$$$

     RDKit          3D

 13 11  0  0  0  0  0  0  0  0999 V2000
    0.4963   -1.5198    0.3984 N   0  0  0  0  0  1  0  0  0  0  0  0
    0.4963   -1.5198   -0.9426 N   0  0  0  0  0  0  0  0  0  0  0  0
    0.4963   -0.3440    0.7387 H   0  0  0  0  0  0  0  0  0  0  0  0
    0.6842   -2.4198   -1.3514 H   0  0  0  0  0  0  0  0  0  0  0  0
    0.8583   -0.7314   -1.4601 H   0  0  0  0  0  0  0  0  0  0  0  0
   -1.3915    0.8013   -0.4924 C   0  0  0  0  0  0  0  0  0  0  0  0
   -0.1744    1.5143    0.0671 C   0  0  0  0  0  0  0  0  0  0  0  0
    0.4963    0.7608    1.0583 O   0  0  0  0  0  0  0  0  0  0  0  0
   -2.0881    0.5486    0.3080 H   0  0  0  0  0  0  0  0  0  0  0  0
   -1.9083    1.4329   -1.2179 H   0  0  0  0  0  0  0  0  0  0  0  0
   -1.1039   -0.1228   -1.0013 H   0  0  0  0  0  0  0  0  0  0  0  0
    0.5121    1.7834   -0.7458 H   0  0  0  0  0  0  0  0  0  0  0  0
   -0.4733    2.4416    0.5578 H   0  0  0  0  0  0  0  0  0  0  0  0
  1  2  1  0
  2  4  1  0
  2  5  1  0
  3  8  1  0
  6  7  1  0
  6  9  1  0
  6 10  1  0
  6 11  1  0
  7  8  1  0
  7 12  1  0
  7 13  1  0
M  RAD  1   1   3
M  END
>  <reaction>  (17) 
rmg_rxn_390

>  <mol_properties>  (17) 
{"0": {"label": "*1", "atom_type": "N3s"}, "1": {"label": "*0", "atom_type": "N3s"}, "2": {"label": "*2", "atom_type": "H0"}, "6": {"label": "*4", "atom_type": "Cs"}, "7": {"label": "*3", "atom_type": "O2s"}}

>  <type>  (17) 
unop_13

>  <geom_source>  (17) 
gaussian_log

$$$$
