
     RDKit          3D

  9  8  0  0  0  0  0  0  0  0999 V2000
   -0.8818   -0.3578    0.1297 C   0  0  0  0  0  0  0  0  0  0  0  0
    0.6153   -0.3021   -0.1188 C   0  0  0  0  0  0  0  0  0  0  0  0
    1.5354   -1.7170    0.5545 S   0  0  0  0  0  0  0  0  0  0  0  0
   -1.1018   -0.3317    1.1984 H   0  0  0  0  0  0  0  0  0  0  0  0
   -1.3114   -1.2723   -0.2799 H   0  0  0  0  0  0  0  0  0  0  0  0
   -1.3767    0.4976   -0.3363 H   0  0  0  0  0  0  0  0  0  0  0  0
    1.0467    0.6194    0.2718 H   0  0  0  0  0  0  0  0  0  0  0  0
    0.8295   -0.3275   -1.1882 H   0  0  0  0  0  0  0  0  0  0  0  0
    1.2306   -1.5077    1.8423 H   0  0  0  0  0  0  0  0  0  0  0  0
  1  2  1  0
  1  4  1  0
  1  5  1  0
  1  6  1  0
  2  3  1  0
  2  7  1  0
  2  8  1  0
  3  9  1  0
M  END
>  <reaction>  (1) 
rmg_rxn_392

>  <mol_properties>  (1) 
{"2": {"label": "donator", "atom_type": "S2s"}, "8": {"label": "d_hydrogen", "atom_type": "H0"}}

>  <type>  (1) 
r1h

$$$$

     RDKit          3D

  8  7  0  0  0  0  0  0  0  0999 V2000
   -0.7870    0.0933   -0.0806 C   0  0  0  0  0  0  0  0  0  0  0  0
    0.7222   -0.0685   -0.0164 C   0  0  0  0  0  0  0  0  0  0  0  0
    1.2804   -0.8027   -1.0125 O   0  0  0  0  0  1  0  0  0  0  0  0
   -1.2757   -0.8808   -0.0406 H   0  0  0  0  0  0  0  0  0  0  0  0
   -1.1463    0.6954    0.7565 H   0  0  0  0  0  0  0  0  0  0  0  0
   -1.0774    0.5849   -1.0097 H   0  0  0  0  0  0  0  0  0  0  0  0
    1.2365    0.9106   -0.0076 H   0  0  0  0  0  0  0  0  0  0  0  0
    1.0425   -0.5225    0.9399 H   0  0  0  0  0  0  0  0  0  0  0  0
  1  2  1  0
  1  4  1  0
  1  5  1  0
  1  6  1  0
  2  3  1  0
  2  7  1  0
  2  8  1  0
M  RAD  1   3   2
M  END
>  <reaction>  (2) 
rmg_rxn_392

>  <mol_properties>  (2) 
{"2": {"label": "acceptor", "atom_type": "O2s"}}

>  <type>  (2) 
r2

$$$$

     RDKit          3D

  9  8  0  0  0  0  0  0  0  0999 V2000
   -0.9895    0.3048    0.1041 C   0  0  0  0  0  0  0  0  0  0  0  0
    0.3761   -0.3562    0.0721 C   0  0  0  0  0  0  0  0  0  0  0  0
    0.3441   -1.6564   -0.4834 O   0  0  0  0  0  0  0  0  0  0  0  0
   -1.6997   -0.3114    0.6572 H   0  0  0  0  0  0  0  0  0  0  0  0
   -0.9320    1.2848    0.5822 H   0  0  0  0  0  0  0  0  0  0  0  0
   -1.3774    0.4507   -0.9077 H   0  0  0  0  0  0  0  0  0  0  0  0
    0.7581   -0.4813    1.0862 H   0  0  0  0  0  0  0  0  0  0  0  0
    1.0900    0.2787   -0.4681 H   0  0  0  0  0  0  0  0  0  0  0  0
    0.0089   -1.5959   -1.3792 H   0  0  0  0  0  0  0  0  0  0  0  0
  1  2  1  0
  1  4  1  0
  1  5  1  0
  1  6  1  0
  2  3  1  0
  2  7  1  0
  2  8  1  0
  3  9  1  0
M  END
>  <reaction>  (3) 
rmg_rxn_392

>  <mol_properties>  (3) 
{"2": {"label": "acceptor", "atom_type": "O2s"}, "8": {"label": "a_hydrogen", "atom_type": "H0"}}

>  <type>  (3) 
r2h

$$$$

     RDKit          3D

 17 15  0  0  0  0  0  0  0  0999 V2000
    1.3565    2.1812    1.0807 C   0  0  0  0  0  0  0  0  0  0  0  0
    1.5724    1.2273   -0.0784 C   0  0  0  0  0  0  0  0  0  0  0  0
    1.6777   -0.1046    0.2829 O   0  0  0  0  0  0  0  0  0  0  0  0
    2.1283    2.0456    1.8388 H   0  0  0  0  0  0  0  0  0  0  0  0
    1.3835    3.2154    0.7328 H   0  0  0  0  0  0  0  0  0  0  0  0
    0.3821    2.0006    1.5382 H   0  0  0  0  0  0  0  0  0  0  0  0
    0.8088    1.3604   -0.8564 H   0  0  0  0  0  0  0  0  0  0  0  0
    2.5378    1.4326   -0.5701 H   0  0  0  0  0  0  0  0  0  0  0  0
   -0.9855   -1.2296   -1.6272 C   0  0  0  0  0  0  0  0  0  0  0  0
   -1.0984   -1.9356   -0.2868 C   0  0  0  0  0  0  0  0  0  0  0  0
   -0.8521   -0.8573    1.1489 S   0  0  0  0  0  1  0  0  0  0  0  0
    0.0249   -0.8459   -1.7718 H   0  0  0  0  0  0  0  0  0  0  0  0
   -1.6850   -0.3952   -1.6898 H   0  0  0  0  0  0  0  0  0  0  0  0
   -1.2032   -1.9258   -2.4406 H   0  0  0  0  0  0  0  0  0  0  0  0
   -0.3994   -2.7689   -0.2216 H   0  0  0  0  0  0  0  0  0  0  0  0
   -2.1020   -2.3441   -0.1485 H   0  0  0  0  0  0  0  0  0  0  0  0
    0.5374   -0.5650    0.9066 H   0  0  0  0  0  0  0  0  0  0  0  0
  1  2  1  0
  1  4  1  0
  1  5  1  0
  1  6  1  0
  2  3  1  0
  2  7  1  0
  2  8  1  0
  3 17  1  0
  9 10  1  0
  9 12  1  0
  9 13  1  0
  9 14  1  0
 10 11  1  0
 10 15  1  0
 10 16  1  0
M  RAD  1  11   2
M  END
>  <reaction>  (4) 
rmg_rxn_392

>  <mol_properties>  (4) 
{"1": {"label": "*0", "atom_type": "Cs"}, "2": {"label": "*1", "atom_type": "O2s"}, "9": {"label": "*4", "atom_type": "Cs"}, "10": {"label": "*3", "atom_type": "S2s"}, "16": {"label": "*2", "atom_type": "H0"}}

>  <type>  (4) 
ts

$$$$

     RDKit          3D

 17 15  0  0  0  0  0  0  0  0999 V2000
    0.5451    2.5359    0.5307 C   0  0  0  0  0  0  0  0  0  0  0  0
    1.4883    1.8489   -0.4395 C   0  0  0  0  0  0  0  0  0  0  0  0
    1.5323    0.4464   -0.2629 O   0  0  0  0  0  0  0  0  0  0  0  0
    0.8217    2.3058    1.5605 H   0  0  0  0  0  0  0  0  0  0  0  0
    0.5749    3.6190    0.3953 H   0  0  0  0  0  0  0  0  0  0  0  0
   -0.4861    2.2091    0.3713 H   0  0  0  0  0  0  0  0  0  0  0  0
    1.2166    2.1012   -1.4725 H   0  0  0  0  0  0  0  0  0  0  0  0
    2.5105    2.1953   -0.2805 H   0  0  0  0  0  0  0  0  0  0  0  0
   -0.8860   -2.0378   -1.4901 C   0  0  0  0  0  0  0  0  0  0  0  0
   -0.8860   -2.0378    0.0286 C   0  0  0  0  0  0  0  0  0  0  0  0
   -0.8860   -0.3804    0.7735 S   0  0  0  0  0  1  0  0  0  0  0  0
    0.0207   -1.5724   -1.8809 H   0  0  0  0  0  0  0  0  0  0  0  0
   -1.7419   -1.4866   -1.8802 H   0  0  0  0  0  0  0  0  0  0  0  0
   -0.9290   -3.0612   -1.8704 H   0  0  0  0  0  0  0  0  0  0  0  0
   -0.0427   -2.6039    0.4237 H   0  0  0  0  0  0  0  0  0  0  0  0
   -1.7936   -2.5048    0.4137 H   0  0  0  0  0  0  0  0  0  0  0  0
    0.5238    0.1016    0.1693 H   0  0  0  0  0  0  0  0  0  0  0  0
  1  2  1  0
  1  4  1  0
  1  5  1  0
  1  6  1  0
  2  3  1  0
  2  7  1  0
  2  8  1  0
  3 17  1  0
  9 10  1  0
  9 12  1  0
  9 13  1  0
  9 14  1  0
 10 11  1  0
 10 15  1  0
 10 16  1  0
M  RAD  1  11   2
M  END
>  <reaction>  (5) 
rmg_rxn_392

>  <mol_properties>  (5) 
{"1": {"label": "*0", "atom_type": "Cs"}, "2": {"label": "*1", "atom_type": "O2s"}, "9": {"label": "*4", "atom_type": "Cs"}, "10": {"label": "*3", "atom_type": "S2s"}, "16": {"label": "*2", "atom_type": "H0"}}

>  <type>  (5) 
unop_1

>  <geom_source>  (5) 
Heuristics

$$$$

     RDKit          3D

 17 15  0  0  0  0  0  0  0  0999 V2000
    0.1058    1.0119   -1.6341 C   0  0  0  0  0  0  0  0  0  0  0  0
    1.5291    0.8897   -1.1220 C   0  0  0  0  0  0  0  0  0  0  0  0
    1.6101    0.9266    0.2894 O   0  0  0  0  0  0  0  0  0  0  0  0
   -0.3556    1.9290   -1.2656 H   0  0  0  0  0  0  0  0  0  0  0  0
    0.0892    1.0276   -2.7258 H   0  0  0  0  0  0  0  0  0  0  0  0
   -0.5026    0.1654   -1.3044 H   0  0  0  0  0  0  0  0  0  0  0  0
    1.9936   -0.0246   -1.5132 H   0  0  0  0  0  0  0  0  0  0  0  0
    2.1288    1.7314   -1.4710 H   0  0  0  0  0  0  0  0  0  0  0  0
   -0.8081   -1.5576   -0.9377 C   0  0  0  0  0  0  0  0  0  0  0  0
   -0.8081   -1.5576    0.5809 C   0  0  0  0  0  0  0  0  0  0  0  0
   -0.8081    0.0997    1.3259 S   0  0  0  0  0  1  0  0  0  0  0  0
    0.0986   -1.0922   -1.3285 H   0  0  0  0  0  0  0  0  0  0  0  0
   -1.6640   -1.0064   -1.3279 H   0  0  0  0  0  0  0  0  0  0  0  0
   -0.8512   -2.5810   -1.3180 H   0  0  0  0  0  0  0  0  0  0  0  0
    0.0352   -2.1237    0.9760 H   0  0  0  0  0  0  0  0  0  0  0  0
   -1.7157   -2.0247    0.9660 H   0  0  0  0  0  0  0  0  0  0  0  0
    0.6017    0.5817    0.7217 H   0  0  0  0  0  0  0  0  0  0  0  0
  1  2  1  0
  1  4  1  0
  1  5  1  0
  1  6  1  0
  2  3  1  0
  2  7  1  0
  2  8  1  0
  3 17  1  0
  9 10  1  0
  9 12  1  0
  9 13  1  0
  9 14  1  0
 10 11  1  0
 10 15  1  0
 10 16  1  0
M  RAD  1  11   2
M  END
>  <reaction>  (6) 
rmg_rxn_392

>  <mol_properties>  (6) 
{"1": {"label": "*0", "atom_type": "Cs"}, "2": {"label": "*1", "atom_type": "O2s"}, "9": {"label": "*4", "atom_type": "Cs"}, "10": {"label": "*3", "atom_type": "S2s"}, "16": {"label": "*2", "atom_type": "H0"}}

>  <type>  (6) 
unop_2

>  <geom_source>  (6) 
Heuristics

$$$$

     RDKit          3D

 17 15  0  0  0  0  0  0  0  0999 V2000
    1.6143    1.9796    1.4463 C   0  0  0  0  0  0  0  0  0  0  0  0
    1.5619    1.8690   -0.0663 C   0  0  0  0  0  0  0  0  0  0  0  0
    1.3102    0.5508   -0.5122 O   0  0  0  0  0  0  0  0  0  0  0  0
    2.3697    1.3059    1.8530 H   0  0  0  0  0  0  0  0  0  0  0  0
    1.8575    3.0000    1.7498 H   0  0  0  0  0  0  0  0  0  0  0  0
    0.6494    1.7215    1.8911 H   0  0  0  0  0  0  0  0  0  0  0  0
    0.8145    2.5641   -0.4697 H   0  0  0  0  0  0  0  0  0  0  0  0
    2.5253    2.1443   -0.4978 H   0  0  0  0  0  0  0  0  0  0  0  0
   -1.1080   -1.9334   -1.7394 C   0  0  0  0  0  0  0  0  0  0  0  0
   -1.1080   -1.9334   -0.2207 C   0  0  0  0  0  0  0  0  0  0  0  0
   -1.1080   -0.2761    0.5242 S   0  0  0  0  0  1  0  0  0  0  0  0
   -0.2013   -1.4680   -2.1302 H   0  0  0  0  0  0  0  0  0  0  0  0
   -1.9640   -1.3822   -2.1295 H   0  0  0  0  0  0  0  0  0  0  0  0
   -1.1511   -2.9568   -2.1197 H   0  0  0  0  0  0  0  0  0  0  0  0
   -0.2647   -2.4996    0.1744 H   0  0  0  0  0  0  0  0  0  0  0  0
   -2.0156   -2.4005    0.1644 H   0  0  0  0  0  0  0  0  0  0  0  0
    0.3018    0.2059   -0.0800 H   0  0  0  0  0  0  0  0  0  0  0  0
  1  2  1  0
  1  4  1  0
  1  5  1  0
  1  6  1  0
  2  3  1  0
  2  7  1  0
  2  8  1  0
  3 17  1  0
  9 10  1  0
  9 12  1  0
  9 13  1  0
  9 14  1  0
 10 11  1  0
 10 15  1  0
 10 16  1  0
M  RAD  1  11   2
M  END
>  <reaction>  (7) 
rmg_rxn_392

>  <mol_properties>  (7) 
{"1": {"label": "*0", "atom_type": "Cs"}, "2": {"label": "*1", "atom_type": "O2s"}, "9": {"label": "*4", "atom_type": "Cs"}, "10": {"label": "*3", "atom_type": "S2s"}, "16": {"label": "*2", "atom_type": "H0"}}

>  <type>  (7) 
unop_3

>  <geom_source>  (7) 
Heuristics

$$$$

     RDKit          3D

 17 15  0  0  0  0  0  0  0  0999 V2000
    1.7059   -0.5697   -1.3656 C   0  0  0  0  0  0  0  0  0  0  0  0
    2.0323    0.2278   -0.1165 C   0  0  0  0  0  0  0  0  0  0  0  0
    1.2021    1.3615    0.0440 O   0  0  0  0  0  0  0  0  0  0  0  0
    1.7756    0.0624   -2.2518 H   0  0  0  0  0  0  0  0  0  0  0  0
    2.3973   -1.4072   -1.4795 H   0  0  0  0  0  0  0  0  0  0  0  0
    0.6933   -0.9789   -1.3150 H   0  0  0  0  0  0  0  0  0  0  0  0
    1.9801   -0.4192    0.7686 H   0  0  0  0  0  0  0  0  0  0  0  0
    3.0499    0.6168   -0.1728 H   0  0  0  0  0  0  0  0  0  0  0  0
   -1.2161   -1.1227   -1.1832 C   0  0  0  0  0  0  0  0  0  0  0  0
   -1.2161   -1.1227    0.3355 C   0  0  0  0  0  0  0  0  0  0  0  0
   -1.2161    0.5347    1.0804 S   0  0  0  0  0  1  0  0  0  0  0  0
   -0.3095   -0.6573   -1.5740 H   0  0  0  0  0  0  0  0  0  0  0  0
   -2.0721   -0.5715   -1.5733 H   0  0  0  0  0  0  0  0  0  0  0  0
   -1.2592   -2.1461   -1.5635 H   0  0  0  0  0  0  0  0  0  0  0  0
   -0.3729   -1.6888    0.7306 H   0  0  0  0  0  0  0  0  0  0  0  0
   -2.1237   -1.5898    0.7206 H   0  0  0  0  0  0  0  0  0  0  0  0
    0.1936    1.0167    0.4762 H   0  0  0  0  0  0  0  0  0  0  0  0
  1  2  1  0
  1  4  1  0
  1  5  1  0
  1  6  1  0
  2  3  1  0
  2  7  1  0
  2  8  1  0
  3 17  1  0
  9 10  1  0
  9 12  1  0
  9 13  1  0
  9 14  1  0
 10 11  1  0
 10 15  1  0
 10 16  1  0
M  RAD  1  11   2
M  END
>  <reaction>  (8) 
rmg_rxn_392

>  <mol_properties>  (8) 
{"1": {"label": "*0", "atom_type": "Cs"}, "2": {"label": "*1", "atom_type": "O2s"}, "9": {"label": "*4", "atom_type": "Cs"}, "10": {"label": "*3", "atom_type": "S2s"}, "16": {"label": "*2", "atom_type": "H0"}}

>  <type>  (8) 
unop_4

>  <geom_source>  (8) 
Heuristics

$$$$

     RDKit          3D

 17 15  0  0  0  0  0  0  0  0999 V2000
    2.5852    1.0176    1.3527 C   0  0  0  0  0  0  0  0  0  0  0  0
    1.6836    1.6889    0.3333 C   0  0  0  0  0  0  0  0  0  0  0  0
    1.0983    0.7721   -0.5706 O   0  0  0  0  0  0  0  0  0  0  0  0
    3.3688    0.4467    0.8528 H   0  0  0  0  0  0  0  0  0  0  0  0
    3.0545    1.7608    2.0005 H   0  0  0  0  0  0  0  0  0  0  0  0
    2.0158    0.3344    1.9887 H   0  0  0  0  0  0  0  0  0  0  0  0
    0.9103    2.2777    0.8433 H   0  0  0  0  0  0  0  0  0  0  0  0
    2.2607    2.3791   -0.2836 H   0  0  0  0  0  0  0  0  0  0  0  0
   -1.3199   -1.7121   -1.7978 C   0  0  0  0  0  0  0  0  0  0  0  0
   -1.3199   -1.7121   -0.2791 C   0  0  0  0  0  0  0  0  0  0  0  0
   -1.3199   -0.0547    0.4659 S   0  0  0  0  0  1  0  0  0  0  0  0
   -0.4132   -1.2466   -2.1885 H   0  0  0  0  0  0  0  0  0  0  0  0
   -2.1758   -1.1609   -2.1879 H   0  0  0  0  0  0  0  0  0  0  0  0
   -1.3629   -2.7354   -2.1781 H   0  0  0  0  0  0  0  0  0  0  0  0
   -0.4766   -2.2782    0.1160 H   0  0  0  0  0  0  0  0  0  0  0  0
   -2.2275   -2.1791    0.1060 H   0  0  0  0  0  0  0  0  0  0  0  0
    0.0899    0.4273   -0.1384 H   0  0  0  0  0  0  0  0  0  0  0  0
  1  2  1  0
  1  4  1  0
  1  5  1  0
  1  6  1  0
  2  3  1  0
  2  7  1  0
  2  8  1  0
  3 17  1  0
  9 10  1  0
  9 12  1  0
  9 13  1  0
  9 14  1  0
 10 11  1  0
 10 15  1  0
 10 16  1  0
M  RAD  1  11   2
M  END
>  <reaction>  (9) 
rmg_rxn_392

>  <mol_properties>  (9) 
{"1": {"label": "*0", "atom_type": "Cs"}, "2": {"label": "*1", "atom_type": "O2s"}, "9": {"label": "*4", "atom_type": "Cs"}, "10": {"label": "*3", "atom_type": "S2s"}, "16": {"label": "*2", "atom_type": "H0"}}

>  <type>  (9) 
unop_5

>  <geom_source>  (9) 
Heuristics

$$$$

     RDKit          3D

 17 15  0  0  0  0  0  0  0  0999 V2000
    2.3636   -0.6693   -0.6814 C   0  0  0  0  0  0  0  0  0  0  0  0
    2.0748    0.4583    0.2923 C   0  0  0  0  0  0  0  0  0  0  0  0
    1.0661    1.3364   -0.1677 O   0  0  0  0  0  0  0  0  0  0  0  0
    2.6441   -0.2697   -1.6568 H   0  0  0  0  0  0  0  0  0  0  0  0
    3.1786   -1.2962   -0.3140 H   0  0  0  0  0  0  0  0  0  0  0  0
    1.4857   -1.3078   -0.8119 H   0  0  0  0  0  0  0  0  0  0  0  0
    1.8133    0.0492    1.2766 H   0  0  0  0  0  0  0  0  0  0  0  0
    2.9628    1.0779    0.4255 H   0  0  0  0  0  0  0  0  0  0  0  0
   -1.3521   -1.1477   -1.3948 C   0  0  0  0  0  0  0  0  0  0  0  0
   -1.3521   -1.1477    0.1238 C   0  0  0  0  0  0  0  0  0  0  0  0
   -1.3521    0.5096    0.8688 S   0  0  0  0  0  1  0  0  0  0  0  0
   -0.4455   -0.6823   -1.7856 H   0  0  0  0  0  0  0  0  0  0  0  0
   -2.2081   -0.5965   -1.7850 H   0  0  0  0  0  0  0  0  0  0  0  0
   -1.3952   -2.1711   -1.7751 H   0  0  0  0  0  0  0  0  0  0  0  0
   -0.5088   -1.7139    0.5189 H   0  0  0  0  0  0  0  0  0  0  0  0
   -2.2597   -1.6148    0.5090 H   0  0  0  0  0  0  0  0  0  0  0  0
    0.0577    0.9916    0.2646 H   0  0  0  0  0  0  0  0  0  0  0  0
  1  2  1  0
  1  4  1  0
  1  5  1  0
  1  6  1  0
  2  3  1  0
  2  7  1  0
  2  8  1  0
  3 17  1  0
  9 10  1  0
  9 12  1  0
  9 13  1  0
  9 14  1  0
 10 11  1  0
 10 15  1  0
 10 16  1  0
M  RAD  1  11   2
M  END
>  <reaction>  (10) 
rmg_rxn_392

>  <mol_properties>  (10) 
{"1": {"label": "*0", "atom_type": "Cs"}, "2": {"label": "*1", "atom_type": "O2s"}, "9": {"label": "*4", "atom_type": "Cs"}, "10": {"label": "*3", "atom_type": "S2s"}, "16": {"label": "*2", "atom_type": "H0"}}

>  <type>  (10) 
unop_6

>  <geom_source>  (10) 
Heuristics

$$$$

     RDKit          3D

 17 15  0  0  0  0  0  0  0  0999 V2000
    2.7843   -0.3857    0.1184 C   0  0  0  0  0  0  0  0  0  0  0  0
    2.0177    0.8539    0.5411 C   0  0  0  0  0  0  0  0  0  0  0  0
    0.9954    1.2052   -0.3709 O   0  0  0  0  0  0  0  0  0  0  0  0
    3.2124   -0.2500   -0.8757 H   0  0  0  0  0  0  0  0  0  0  0  0
    3.5935   -0.5963    0.8207 H   0  0  0  0  0  0  0  0  0  0  0  0
    2.1295   -1.2609    0.0933 H   0  0  0  0  0  0  0  0  0  0  0  0
    1.6073    0.7180    1.5499 H   0  0  0  0  0  0  0  0  0  0  0  0
    2.6854    1.7158    0.5773 H   0  0  0  0  0  0  0  0  0  0  0  0
   -1.4228   -1.2790   -1.5981 C   0  0  0  0  0  0  0  0  0  0  0  0
   -1.4228   -1.2790   -0.0794 C   0  0  0  0  0  0  0  0  0  0  0  0
   -1.4228    0.3783    0.6656 S   0  0  0  0  0  1  0  0  0  0  0  0
   -0.5162   -0.8136   -1.9888 H   0  0  0  0  0  0  0  0  0  0  0  0
   -2.2788   -0.7278   -1.9882 H   0  0  0  0  0  0  0  0  0  0  0  0
   -1.4659   -2.3024   -1.9784 H   0  0  0  0  0  0  0  0  0  0  0  0
   -0.5795   -1.8451    0.3157 H   0  0  0  0  0  0  0  0  0  0  0  0
   -2.3304   -1.7461    0.3057 H   0  0  0  0  0  0  0  0  0  0  0  0
   -0.0130    0.8604    0.0613 H   0  0  0  0  0  0  0  0  0  0  0  0
  1  2  1  0
  1  4  1  0
  1  5  1  0
  1  6  1  0
  2  3  1  0
  2  7  1  0
  2  8  1  0
  3 17  1  0
  9 10  1  0
  9 12  1  0
  9 13  1  0
  9 14  1  0
 10 11  1  0
 10 15  1  0
 10 16  1  0
M  RAD  1  11   2
M  END
>  <reaction>  (11) 
rmg_rxn_392

>  <mol_properties>  (11) 
{"1": {"label": "*0", "atom_type": "Cs"}, "2": {"label": "*1", "atom_type": "O2s"}, "9": {"label": "*4", "atom_type": "Cs"}, "10": {"label": "*3", "atom_type": "S2s"}, "16": {"label": "*2", "atom_type": "H0"}}

>  <type>  (11) 
unop_7

>  <geom_source>  (11) 
Heuristics

$$$$

     RDKit          3D

 17 15  0  0  0  0  0  0  0  0999 V2000
    0.0698    2.3184   -0.5245 C   0  0  0  0  0  0  0  0  0  0  0  0
    1.4162    1.6698   -0.7879 C   0  0  0  0  0  0  0  0  0  0  0  0
    1.6387    0.5228    0.0091 O   0  0  0  0  0  0  0  0  0  0  0  0
   -0.0282    2.5814    0.5296 H   0  0  0  0  0  0  0  0  0  0  0  0
   -0.0444    3.2251   -1.1222 H   0  0  0  0  0  0  0  0  0  0  0  0
   -0.7482    1.6420   -0.7868 H   0  0  0  0  0  0  0  0  0  0  0  0
    1.5159    1.4266   -1.8535 H   0  0  0  0  0  0  0  0  0  0  0  0
    2.2227    2.3603   -0.5373 H   0  0  0  0  0  0  0  0  0  0  0  0
   -0.7796   -1.9614   -1.2181 C   0  0  0  0  0  0  0  0  0  0  0  0
   -0.7796   -1.9614    0.3006 C   0  0  0  0  0  0  0  0  0  0  0  0
   -0.7796   -0.3040    1.0456 S   0  0  0  0  0  1  0  0  0  0  0  0
    0.1271   -1.4959   -1.6088 H   0  0  0  0  0  0  0  0  0  0  0  0
   -1.6355   -1.4102   -1.6082 H   0  0  0  0  0  0  0  0  0  0  0  0
   -0.8226   -2.9847   -1.5984 H   0  0  0  0  0  0  0  0  0  0  0  0
    0.0637   -2.5275    0.6957 H   0  0  0  0  0  0  0  0  0  0  0  0
   -1.6872   -2.4284    0.6857 H   0  0  0  0  0  0  0  0  0  0  0  0
    0.6302    0.1780    0.4413 H   0  0  0  0  0  0  0  0  0  0  0  0
  1  2  1  0
  1  4  1  0
  1  5  1  0
  1  6  1  0
  2  3  1  0
  2  7  1  0
  2  8  1  0
  3 17  1  0
  9 10  1  0
  9 12  1  0
  9 13  1  0
  9 14  1  0
 10 11  1  0
 10 15  1  0
 10 16  1  0
M  RAD  1  11   2
M  END
>  <reaction>  (12) 
rmg_rxn_392

>  <mol_properties>  (12) 
{"1": {"label": "*0", "atom_type": "Cs"}, "2": {"label": "*1", "atom_type": "O2s"}, "9": {"label": "*4", "atom_type": "Cs"}, "10": {"label": "*3", "atom_type": "S2s"}, "16": {"label": "*2", "atom_type": "H0"}}

>  <type>  (12) 
unop_8

>  <geom_source>  (12) 
Heuristics

$$$$

     RDKit          3D

 17 15  0  0  0  0  0  0  0  0999 V2000
   -0.0317    1.7149   -1.2485 C   0  0  0  0  0  0  0  0  0  0  0  0
    1.4215    1.3261   -1.0488 C   0  0  0  0  0  0  0  0  0  0  0  0
    1.6575    0.7060    0.2002 O   0  0  0  0  0  0  0  0  0  0  0  0
   -0.3653    2.3730   -0.4451 H   0  0  0  0  0  0  0  0  0  0  0  0
   -0.1646    2.2323   -2.2009 H   0  0  0  0  0  0  0  0  0  0  0  0
   -0.6754    0.8312   -1.2576 H   0  0  0  0  0  0  0  0  0  0  0  0
    1.7559    0.6809   -1.8713 H   0  0  0  0  0  0  0  0  0  0  0  0
    2.0540    2.2148   -1.0577 H   0  0  0  0  0  0  0  0  0  0  0  0
   -0.7607   -1.7782   -1.0270 C   0  0  0  0  0  0  0  0  0  0  0  0
   -0.7607   -1.7782    0.4916 C   0  0  0  0  0  0  0  0  0  0  0  0
   -0.7607   -0.1208    1.2366 S   0  0  0  0  0  1  0  0  0  0  0  0
    0.1459   -1.3127   -1.4178 H   0  0  0  0  0  0  0  0  0  0  0  0
   -1.6167   -1.2270   -1.4171 H   0  0  0  0  0  0  0  0  0  0  0  0
   -0.8038   -2.8015   -1.4073 H   0  0  0  0  0  0  0  0  0  0  0  0
    0.0826   -2.3443    0.8868 H   0  0  0  0  0  0  0  0  0  0  0  0
   -1.6683   -2.2452    0.8768 H   0  0  0  0  0  0  0  0  0  0  0  0
    0.6491    0.3612    0.6324 H   0  0  0  0  0  0  0  0  0  0  0  0
  1  2  1  0
  1  4  1  0
  1  5  1  0
  1  6  1  0
  2  3  1  0
  2  7  1  0
  2  8  1  0
  3 17  1  0
  9 10  1  0
  9 12  1  0
  9 13  1  0
  9 14  1  0
 10 11  1  0
 10 15  1  0
 10 16  1  0
M  RAD  1  11   2
M  END
>  <reaction>  (13) 
rmg_rxn_392

>  <mol_properties>  (13) 
{"1": {"label": "*0", "atom_type": "Cs"}, "2": {"label": "*1", "atom_type": "O2s"}, "9": {"label": "*4", "atom_type": "Cs"}, "10": {"label": "*3", "atom_type": "S2s"}, "16": {"label": "*2", "atom_type": "H0"}}

>  <type>  (13) 
unop_9

>  <geom_source>  (13) 
Heuristics

$$$$

     RDKit          3D

 17 15  0  0  0  0  0  0  0  0999 V2000
    2.8904    0.2148    0.8255 C   0  0  0  0  0  0  0  0  0  0  0  0
    1.8704    1.3071    0.5622 C   0  0  0  0  0  0  0  0  0  0  0  0
    1.0032    1.0014   -0.5123 O   0  0  0  0  0  0  0  0  0  0  0  0
    3.4772    0.0151   -0.0721 H   0  0  0  0  0  0  0  0  0  0  0  0
    3.5701    0.5078    1.6284 H   0  0  0  0  0  0  0  0  0  0  0  0
    2.3995   -0.7142    1.1280 H   0  0  0  0  0  0  0  0  0  0  0  0
    1.2980    1.5168    1.4749 H   0  0  0  0  0  0  0  0  0  0  0  0
    2.3738    2.2319    0.2770 H   0  0  0  0  0  0  0  0  0  0  0  0
   -1.4151   -1.4828   -1.7394 C   0  0  0  0  0  0  0  0  0  0  0  0
   -1.4151   -1.4828   -0.2208 C   0  0  0  0  0  0  0  0  0  0  0  0
   -1.4151    0.1745    0.5242 S   0  0  0  0  0  1  0  0  0  0  0  0
   -0.5084   -1.0174   -2.1302 H   0  0  0  0  0  0  0  0  0  0  0  0
   -2.2710   -0.9316   -2.1295 H   0  0  0  0  0  0  0  0  0  0  0  0
   -1.4581   -2.5062   -2.1197 H   0  0  0  0  0  0  0  0  0  0  0  0
   -0.5718   -2.0489    0.1743 H   0  0  0  0  0  0  0  0  0  0  0  0
   -2.3227   -1.9499    0.1644 H   0  0  0  0  0  0  0  0  0  0  0  0
   -0.0053    0.6566   -0.0800 H   0  0  0  0  0  0  0  0  0  0  0  0
  1  2  1  0
  1  4  1  0
  1  5  1  0
  1  6  1  0
  2  3  1  0
  2  7  1  0
  2  8  1  0
  3 17  1  0
  9 10  1  0
  9 12  1  0
  9 13  1  0
  9 14  1  0
 10 11  1  0
 10 15  1  0
 10 16  1  0
M  RAD  1  11   2
M  END
>  <reaction>  (14) 
rmg_rxn_392

>  <mol_properties>  (14) 
{"1": {"label": "*0", "atom_type": "Cs"}, "2": {"label": "*1", "atom_type": "O2s"}, "9": {"label": "*4", "atom_type": "Cs"}, "10": {"label": "*3", "atom_type": "S2s"}, "16": {"label": "*2", "atom_type": "H0"}}

>  <type>  (14) 
unop_10

>  <geom_source>  (14) 
Heuristics

$$$$

     RDKit          3D

 17 14  0  0  0  0  0  0  0  0999 V2000
    0.4392    0.3709   -1.7757 C   0  0  0  0  0  3  0  0  0  0  0  0
    1.7113    0.4817   -0.9557 C   0  0  0  0  0  3  0  0  0  0  0  0
    1.5103    1.1297    0.2852 O   0  0  0  0  0  0  0  0  0  0  0  0
    0.0062    1.3577   -1.9448 H   0  0  0  0  0  0  0  0  0  0  0  0
    0.6439   -0.0906   -2.7439 H   0  0  0  0  0  0  0  0  0  0  0  0
   -0.3038   -0.2464   -1.2636 H   0  0  0  0  0  0  0  0  0  0  0  0
    2.1520   -0.5124   -0.8070 H   0  0  0  0  0  0  0  0  0  0  0  0
    2.4492    1.0864   -1.4847 H   0  0  0  0  0  0  0  0  0  0  0  0
   -0.9080   -1.3545   -0.9420 C   0  0  0  0  0  0  0  0  0  0  0  0
   -0.9080   -1.3545    0.5767 C   0  0  0  0  0  0  0  0  0  0  0  0
   -0.9080    0.3029    1.3216 S   0  0  0  0  0  1  0  0  0  0  0  0
   -0.0013   -0.8891   -1.3328 H   0  0  0  0  0  0  0  0  0  0  0  0
   -1.7639   -0.8033   -1.3321 H   0  0  0  0  0  0  0  0  0  0  0  0
   -0.9510   -2.3779   -1.3223 H   0  0  0  0  0  0  0  0  0  0  0  0
   -0.0647   -1.9206    0.9718 H   0  0  0  0  0  0  0  0  0  0  0  0
   -1.8156   -1.8216    0.9618 H   0  0  0  0  0  0  0  0  0  0  0  0
    0.5018    0.7849    0.7174 H   0  0  0  0  0  0  0  0  0  0  0  0
  1  4  1  0
  1  5  1  0
  1  6  1  0
  2  3  1  0
  2  7  1  0
  2  8  1  0
  3 17  1  0
  9 10  1  0
  9 12  1  0
  9 13  1  0
  9 14  1  0
 10 11  1  0
 10 15  1  0
 10 16  1  0
M  RAD  3   1   2   2   2  11   2
M  END
>  <reaction>  (15) 
rmg_rxn_392

>  <mol_properties>  (15) 
{"1": {"label": "*0", "atom_type": "Cs"}, "2": {"label": "*1", "atom_type": "O2s"}, "9": {"label": "*4", "atom_type": "Cs"}, "10": {"label": "*3", "atom_type": "S2s"}, "16": {"label": "*2", "atom_type": "H0"}}

>  <type>  (15) 
unop_11

>  <geom_source>  (15) 
Heuristics

$$$$

     RDKit          3D

 17 15  0  0  0  0  0  0  0  0999 V2000
    0.1058    1.0119   -1.6341 C   0  0  0  0  0  0  0  0  0  0  0  0
    1.5291    0.8897   -1.1220 C   0  0  0  0  0  0  0  0  0  0  0  0
    1.6101    0.9266    0.2894 O   0  0  0  0  0  0  0  0  0  0  0  0
   -0.3556    1.9290   -1.2656 H   0  0  0  0  0  0  0  0  0  0  0  0
    0.0892    1.0276   -2.7258 H   0  0  0  0  0  0  0  0  0  0  0  0
   -0.5026    0.1654   -1.3044 H   0  0  0  0  0  0  0  0  0  0  0  0
    1.9936   -0.0246   -1.5132 H   0  0  0  0  0  0  0  0  0  0  0  0
    2.1288    1.7314   -1.4710 H   0  0  0  0  0  0  0  0  0  0  0  0
   -0.8081   -1.5576   -0.9377 C   0  0  0  0  0  0  0  0  0  0  0  0
   -0.8081   -1.5576    0.5809 C   0  0  0  0  0  0  0  0  0  0  0  0
   -0.8081    0.0997    1.3259 S   0  0  0  0  0  1  0  0  0  0  0  0
    0.0986   -1.0922   -1.3285 H   0  0  0  0  0  0  0  0  0  0  0  0
   -1.6641   -1.0064   -1.3278 H   0  0  0  0  0  0  0  0  0  0  0  0
   -0.8511   -2.5810   -1.3180 H   0  0  0  0  0  0  0  0  0  0  0  0
    0.0352   -2.1237    0.9760 H   0  0  0  0  0  0  0  0  0  0  0  0
   -1.7157   -2.0247    0.9660 H   0  0  0  0  0  0  0  0  0  0  0  0
    0.6017    0.5817    0.7217 H   0  0  0  0  0  0  0  0  0  0  0  0
  1  2  1  0
  1  4  1  0
  1  5  1  0
  1  6  1  0
  2  3  1  0
  2  7  1  0
  2  8  1  0
  3 17  1  0
  9 10  1  0
  9 12  1  0
  9 13  1  0
  9 14  1  0
 10 11  1  0
 10 15  1  0
 10 16  1  0
M  RAD  1  11   2
M  END
>  <reaction>  (16) 
rmg_rxn_392

>  <mol_properties>  (16) 
{"1": {"label": "*0", "atom_type": "Cs"}, "2": {"label": "*1", "atom_type": "O2s"}, "9": {"label": "*4", "atom_type": "Cs"}, "10": {"label": "*3", "atom_type": "S2s"}, "16": {"label": "*2", "atom_type": "H0"}}

>  <type>  (16) 
unop_12

>  <geom_source>  (16) 
gaussian_log

$$$$
