
     RDKit          3D

 14 14  0  0  0  0  0  0  0  0999 V2000
   -1.1778    0.2241    0.1818 C   0  0  0  0  0  0  0  0  0  0  0  0
   -0.5633   -1.1636    0.0678 C   0  0  0  0  0  0  0  0  0  0  0  0
    0.6943   -1.1996    0.7146 O   0  0  0  0  0  0  0  0  0  0  0  0
    1.5547   -0.2288    0.2011 C   0  0  0  0  0  0  0  0  0  0  0  0
    1.0729    1.0696    0.3698 O   0  0  0  0  0  0  0  0  0  0  0  0
   -0.1607    1.2493   -0.2989 C   0  0  0  0  0  0  0  0  0  0  0  0
   -2.0927    0.2866   -0.4117 H   0  0  0  0  0  0  0  0  0  0  0  0
   -1.4303    0.4248    1.2248 H   0  0  0  0  0  0  0  0  0  0  0  0
   -1.1822   -1.9235    0.5431 H   0  0  0  0  0  0  0  0  0  0  0  0
   -0.4389   -1.4347   -0.9919 H   0  0  0  0  0  0  0  0  0  0  0  0
    1.7250   -0.4207   -0.8742 H   0  0  0  0  0  0  0  0  0  0  0  0
    2.4896   -0.3010    0.7524 H   0  0  0  0  0  0  0  0  0  0  0  0
   -0.0080    1.1481   -1.3844 H   0  0  0  0  0  0  0  0  0  0  0  0
   -0.4826    2.2695   -0.0942 H   0  0  0  0  0  0  0  0  0  0  0  0
  1  2  1  0
  1  6  1  0
  1  7  1  0
  1  8  1  0
  2  3  1  0
  2  9  1  0
  2 10  1  0
  3  4  1  0
  4  5  1  0
  4 11  1  0
  4 12  1  0
  5  6  1  0
  6 13  1  0
  6 14  1  0
M  END
>  <reaction>  (1) 
rmg_rxn_350

>  <mol_properties>  (1) 
{"0": {"label": "donator", "atom_type": "Cs"}, "6": {"label": "d_hydrogen", "atom_type": "H0"}}

>  <type>  (1) 
r1h

$$$$

     RDKit          3D

  8  7  0  0  0  0  0  0  0  0999 V2000
    1.3778   -0.6812    0.2772 C   0  0  0  0  0  3  0  0  0  0  0  0
    0.4890    0.2108   -0.0590 C   0  0  0  0  0  0  0  0  0  0  0  0
   -1.0010    0.0286   -0.0323 C   0  0  0  0  0  0  0  0  0  0  0  0
    2.4535   -0.7507    0.3287 H   0  0  0  0  0  0  0  0  0  0  0  0
    0.8447    1.1899   -0.3945 H   0  0  0  0  0  0  0  0  0  0  0  0
   -1.4635    0.7638    0.6301 H   0  0  0  0  0  0  0  0  0  0  0  0
   -1.2709   -0.9687    0.3117 H   0  0  0  0  0  0  0  0  0  0  0  0
   -1.4218    0.1801   -1.0289 H   0  0  0  0  0  0  0  0  0  0  0  0
  1  2  2  3
  1  4  1  0
  2  3  1  0
  2  5  1  0
  3  6  1  0
  3  7  1  0
  3  8  1  0
M  RAD  1   1   2
M  END
>  <reaction>  (2) 
rmg_rxn_350

>  <mol_properties>  (2) 
{"0": {"label": "acceptor", "atom_type": "Cd"}}

>  <type>  (2) 
r2

$$$$

     RDKit          3D

  9  8  0  0  0  0  0  0  0  0999 V2000
    1.1303   -0.2933   -0.7510 C   0  0  0  0  0  0  0  0  0  0  0  0
    0.2866    0.4560   -0.0588 C   0  0  0  0  0  0  0  0  0  0  0  0
   -0.9719   -0.0331    0.5823 C   0  0  0  0  0  0  0  0  0  0  0  0
    2.0274    0.1230   -1.1916 H   0  0  0  0  0  0  0  0  0  0  0  0
    0.9532   -1.3530   -0.9023 H   0  0  0  0  0  0  0  0  0  0  0  0
    0.5065    1.5132    0.0659 H   0  0  0  0  0  0  0  0  0  0  0  0
   -0.9526    0.1426    1.6610 H   0  0  0  0  0  0  0  0  0  0  0  0
   -1.1182   -1.1002    0.4106 H   0  0  0  0  0  0  0  0  0  0  0  0
   -1.8412    0.5010    0.1901 H   0  0  0  0  0  0  0  0  0  0  0  0
  1  2  2  3
  1  4  1  0
  1  5  1  0
  2  3  1  0
  2  6  1  0
  3  7  1  0
  3  8  1  0
  3  9  1  0
M  END
>  <reaction>  (3) 
rmg_rxn_350

>  <mol_properties>  (3) 
{"0": {"label": "acceptor", "atom_type": "Cd"}, "8": {"label": "a_hydrogen", "atom_type": "H0"}}

>  <type>  (3) 
r2h

$$$$

     RDKit          3D

 22 21  0  0  0  0  0  0  0  0999 V2000
    0.7810   -2.1286    0.8254 C   0  0  0  0  0  3  0  0  0  0  0  0
   -0.3546   -2.7732    0.9790 C   0  0  0  0  0  0  0  0  0  0  0  0
   -0.4985   -4.2587    1.1373 C   0  0  0  0  0  0  0  0  0  0  0  0
    1.7832   -2.5422    0.7869 H   0  0  0  0  0  0  0  0  0  0  0  0
   -1.2823   -2.2030    0.9987 H   0  0  0  0  0  0  0  0  0  0  0  0
   -0.9833   -4.4976    2.0870 H   0  0  0  0  0  0  0  0  0  0  0  0
    0.4694   -4.7590    1.1078 H   0  0  0  0  0  0  0  0  0  0  0  0
   -1.1260   -4.6701    0.3430 H   0  0  0  0  0  0  0  0  0  0  0  0
    0.5222    0.5136    0.5096 C   0  0  0  0  0  0  0  0  0  0  0  0
    1.2098    0.8817   -0.7837 C   0  0  0  0  0  0  0  0  0  0  0  0
    0.8315    2.1920   -1.1815 O   0  0  0  0  0  0  0  0  0  0  0  0
   -0.5555    2.3047   -1.2836 C   0  0  0  0  0  0  0  0  0  0  0  0
   -1.2138    2.0686   -0.0756 O   0  0  0  0  0  0  0  0  0  0  0  0
   -0.9645    0.7503    0.3913 C   0  0  0  0  0  0  0  0  0  0  0  0
    0.7027   -0.7464    0.6938 H   0  0  0  0  0  0  0  0  0  0  0  0
    0.9600    1.0037    1.3785 H   0  0  0  0  0  0  0  0  0  0  0  0
    2.2944    0.8849   -0.6886 H   0  0  0  0  0  0  0  0  0  0  0  0
    0.9322    0.1663   -1.5725 H   0  0  0  0  0  0  0  0  0  0  0  0
   -0.9262    1.5972   -2.0478 H   0  0  0  0  0  0  0  0  0  0  0  0
   -0.7754    3.3293   -1.5757 H   0  0  0  0  0  0  0  0  0  0  0  0
   -1.4044    0.0272   -0.3126 H   0  0  0  0  0  0  0  0  0  0  0  0
   -1.4750    0.6551    1.3484 H   0  0  0  0  0  0  0  0  0  0  0  0
  1  2  2  3
  1  4  1  0
  2  3  1  0
  2  5  1  0
  3  6  1  0
  3  7  1  0
  3  8  1  0
  9 10  1  0
  9 14  1  0
  9 15  1  0
  9 16  1  0
 10 11  1  0
 10 17  1  0
 10 18  1  0
 11 12  1  0
 12 13  1  0
 12 19  1  0
 12 20  1  0
 13 14  1  0
 14 21  1  0
 14 22  1  0
M  RAD  1   1   2
M  END
>  <reaction>  (4) 
rmg_rxn_350

>  <mol_properties>  (4) 
{"0": {"label": "*3", "atom_type": "Cd"}, "1": {"label": "*4", "atom_type": "Cd"}, "8": {"label": "*1", "atom_type": "Cs"}, "9": {"label": "*0", "atom_type": "Cs"}, "14": {"label": "*2", "atom_type": "H0"}}

>  <type>  (4) 
ts

$$$$

     RDKit          3D

 22 21  0  0  0  0  0  0  0  0999 V2000
    0.0287   -2.1806    0.8420 C   0  0  0  0  0  0  0  0  0  0  0  0
    0.9490   -2.7388    1.6125 C   0  0  0  0  0  0  0  0  0  0  0  0
    0.6728   -3.5015    2.8681 C   0  0  0  0  0  0  0  0  0  0  0  0
   -1.0269   -2.2446    1.0840 H   0  0  0  0  0  0  0  0  0  0  0  0
    1.9945   -2.6481    1.3291 H   0  0  0  0  0  0  0  0  0  0  0  0
    1.0518   -4.5240    2.7934 H   0  0  0  0  0  0  0  0  0  0  0  0
   -0.3961   -3.5459    3.0806 H   0  0  0  0  0  0  0  0  0  0  0  0
    1.1747   -3.0394    3.7221 H   0  0  0  0  0  0  0  0  0  0  0  0
    0.3026    0.2495   -0.0705 C   0  0  0  0  0  3  0  0  0  0  0  0
    0.3026    0.2495   -1.5925 C   0  0  0  0  0  0  0  0  0  0  0  0
    0.3026    1.5758   -2.0846 O   0  0  0  0  0  0  0  0  0  0  0  0
   -0.7802    2.3002   -1.5853 C   0  0  0  0  0  0  0  0  0  0  0  0
   -0.7689    2.4064   -0.1943 O   0  0  0  0  0  0  0  0  0  0  0  0
   -0.8368    1.1327    0.4176 C   0  0  0  0  0  0  0  0  0  0  0  0
    0.1651   -0.9709    0.3877 H   0  0  0  0  0  0  0  0  0  0  0  0
    1.2520    0.6480    0.2925 H   0  0  0  0  0  0  0  0  0  0  0  0
    1.1884   -0.2361   -1.9999 H   0  0  0  0  0  0  0  0  0  0  0  0
   -0.5849   -0.2818   -1.9693 H   0  0  0  0  0  0  0  0  0  0  0  0
   -1.7227    1.8221   -1.9095 H   0  0  0  0  0  0  0  0  0  0  0  0
   -0.7079    3.3083   -1.9873 H   0  0  0  0  0  0  0  0  0  0  0  0
   -1.8044    0.6636    0.1823 H   0  0  0  0  0  0  0  0  0  0  0  0
   -0.7915    1.2987    1.4931 H   0  0  0  0  0  0  0  0  0  0  0  0
  1  2  2  3
  1  4  1  0
  1 15  1  0
  2  3  1  0
  2  5  1  0
  3  6  1  0
  3  7  1  0
  3  8  1  0
  9 10  1  0
  9 14  1  0
  9 16  1  0
 10 11  1  0
 10 17  1  0
 10 18  1  0
 11 12  1  0
 12 13  1  0
 12 19  1  0
 12 20  1  0
 13 14  1  0
 14 21  1  0
 14 22  1  0
M  RAD  1   9   2
M  END
>  <reaction>  (5) 
rmg_rxn_350

>  <mol_properties>  (5) 
{"0": {"label": "*3", "atom_type": "Cd"}, "1": {"label": "*4", "atom_type": "Cd"}, "8": {"label": "*1", "atom_type": "Cs"}, "9": {"label": "*0", "atom_type": "Cs"}, "14": {"label": "*2", "atom_type": "H0"}}

>  <type>  (5) 
unop_1

>  <geom_source>  (5) 
Heuristics

$$$$

     RDKit          3D

 22 21  0  0  0  0  0  0  0  0999 V2000
    0.0685   -2.0015    1.2384 C   0  0  0  0  0  0  0  0  0  0  0  0
    0.5181   -3.0489    0.5652 C   0  0  0  0  0  0  0  0  0  0  0  0
    0.7526   -4.4073    1.1431 C   0  0  0  0  0  0  0  0  0  0  0  0
   -0.1674   -2.0668    2.2954 H   0  0  0  0  0  0  0  0  0  0  0  0
    0.7409   -2.9350   -0.4926 H   0  0  0  0  0  0  0  0  0  0  0  0
    0.1485   -5.1586    0.6281 H   0  0  0  0  0  0  0  0  0  0  0  0
    0.5057   -4.4368    2.2051 H   0  0  0  0  0  0  0  0  0  0  0  0
    1.7975   -4.7054    1.0242 H   0  0  0  0  0  0  0  0  0  0  0  0
    0.3425    0.4285    0.3259 C   0  0  0  0  0  3  0  0  0  0  0  0
    0.3425    0.4285   -1.1961 C   0  0  0  0  0  0  0  0  0  0  0  0
    0.3425    1.7549   -1.6882 O   0  0  0  0  0  0  0  0  0  0  0  0
   -0.7403    2.4792   -1.1889 C   0  0  0  0  0  0  0  0  0  0  0  0
   -0.7291    2.5855    0.2022 O   0  0  0  0  0  0  0  0  0  0  0  0
   -0.7969    1.3118    0.8141 C   0  0  0  0  0  0  0  0  0  0  0  0
    0.2049   -0.7918    0.7842 H   0  0  0  0  0  0  0  0  0  0  0  0
    1.2918    0.8270    0.6890 H   0  0  0  0  0  0  0  0  0  0  0  0
    1.2282   -0.0570   -1.6034 H   0  0  0  0  0  0  0  0  0  0  0  0
   -0.5451   -0.1027   -1.5728 H   0  0  0  0  0  0  0  0  0  0  0  0
   -1.6829    2.0011   -1.5131 H   0  0  0  0  0  0  0  0  0  0  0  0
   -0.6681    3.4873   -1.5909 H   0  0  0  0  0  0  0  0  0  0  0  0
   -1.7646    0.8426    0.5788 H   0  0  0  0  0  0  0  0  0  0  0  0
   -0.7517    1.4778    1.8895 H   0  0  0  0  0  0  0  0  0  0  0  0
  1  2  2  3
  1  4  1  0
  1 15  1  0
  2  3  1  0
  2  5  1  0
  3  6  1  0
  3  7  1  0
  3  8  1  0
  9 10  1  0
  9 14  1  0
  9 16  1  0
 10 11  1  0
 10 17  1  0
 10 18  1  0
 11 12  1  0
 12 13  1  0
 12 19  1  0
 12 20  1  0
 13 14  1  0
 14 21  1  0
 14 22  1  0
M  RAD  1   9   2
M  END
>  <reaction>  (6) 
rmg_rxn_350

>  <mol_properties>  (6) 
{"0": {"label": "*3", "atom_type": "Cd"}, "1": {"label": "*4", "atom_type": "Cd"}, "8": {"label": "*1", "atom_type": "Cs"}, "9": {"label": "*0", "atom_type": "Cs"}, "14": {"label": "*2", "atom_type": "H0"}}

>  <type>  (6) 
unop_2

>  <geom_source>  (6) 
Heuristics

$$$$

     RDKit          3D

 22 21  0  0  0  0  0  0  0  0999 V2000
    0.1587   -2.2009    0.7919 C   0  0  0  0  0  0  0  0  0  0  0  0
    0.6848   -2.5695    1.9494 C   0  0  0  0  0  0  0  0  0  0  0  0
    0.0461   -3.5030    2.9266 C   0  0  0  0  0  0  0  0  0  0  0  0
   -0.8090   -2.5688    0.4673 H   0  0  0  0  0  0  0  0  0  0  0  0
    1.6572   -2.1743    2.2320 H   0  0  0  0  0  0  0  0  0  0  0  0
    0.6820   -4.3739    3.1050 H   0  0  0  0  0  0  0  0  0  0  0  0
   -0.9231   -3.8527    2.5689 H   0  0  0  0  0  0  0  0  0  0  0  0
   -0.0996   -3.0141    3.8933 H   0  0  0  0  0  0  0  0  0  0  0  0
    0.4326    0.2291   -0.1205 C   0  0  0  0  0  3  0  0  0  0  0  0
    0.4326    0.2291   -1.6426 C   0  0  0  0  0  0  0  0  0  0  0  0
    0.4326    1.5555   -2.1347 O   0  0  0  0  0  0  0  0  0  0  0  0
   -0.6502    2.2798   -1.6353 C   0  0  0  0  0  0  0  0  0  0  0  0
   -0.6389    2.3861   -0.2443 O   0  0  0  0  0  0  0  0  0  0  0  0
   -0.7068    1.1124    0.3676 C   0  0  0  0  0  0  0  0  0  0  0  0
    0.2950   -0.9912    0.3377 H   0  0  0  0  0  0  0  0  0  0  0  0
    1.3819    0.6276    0.2425 H   0  0  0  0  0  0  0  0  0  0  0  0
    1.3183   -0.2564   -2.0499 H   0  0  0  0  0  0  0  0  0  0  0  0
   -0.4549   -0.3021   -2.0193 H   0  0  0  0  0  0  0  0  0  0  0  0
   -1.5928    1.8017   -1.9595 H   0  0  0  0  0  0  0  0  0  0  0  0
   -0.5779    3.2880   -2.0373 H   0  0  0  0  0  0  0  0  0  0  0  0
   -1.6745    0.6433    0.1323 H   0  0  0  0  0  0  0  0  0  0  0  0
   -0.6616    1.2784    1.4431 H   0  0  0  0  0  0  0  0  0  0  0  0
  1  2  2  3
  1  4  1  0
  1 15  1  0
  2  3  1  0
  2  5  1  0
  3  6  1  0
  3  7  1  0
  3  8  1  0
  9 10  1  0
  9 14  1  0
  9 16  1  0
 10 11  1  0
 10 17  1  0
 10 18  1  0
 11 12  1  0
 12 13  1  0
 12 19  1  0
 12 20  1  0
 13 14  1  0
 14 21  1  0
 14 22  1  0
M  RAD  1   9   2
M  END
>  <reaction>  (7) 
rmg_rxn_350

>  <mol_properties>  (7) 
{"0": {"label": "*3", "atom_type": "Cd"}, "1": {"label": "*4", "atom_type": "Cd"}, "8": {"label": "*1", "atom_type": "Cs"}, "9": {"label": "*0", "atom_type": "Cs"}, "14": {"label": "*2", "atom_type": "H0"}}

>  <type>  (7) 
unop_3

>  <geom_source>  (7) 
Heuristics

$$$$

     RDKit          3D

 22 21  0  0  0  0  0  0  0  0999 V2000
    0.5012   -2.1115    1.1144 C   0  0  0  0  0  0  0  0  0  0  0  0
   -0.5645   -2.8428    0.8281 C   0  0  0  0  0  0  0  0  0  0  0  0
   -1.1764   -3.8630    1.7329 C   0  0  0  0  0  0  0  0  0  0  0  0
    1.0179   -2.2114    2.0631 H   0  0  0  0  0  0  0  0  0  0  0  0
   -1.0488   -2.7073   -0.1356 H   0  0  0  0  0  0  0  0  0  0  0  0
   -2.2170   -3.6123    1.9544 H   0  0  0  0  0  0  0  0  0  0  0  0
   -0.6328   -3.9371    2.6756 H   0  0  0  0  0  0  0  0  0  0  0  0
   -1.1820   -4.8486    1.2603 H   0  0  0  0  0  0  0  0  0  0  0  0
    0.7751    0.3185    0.2019 C   0  0  0  0  0  3  0  0  0  0  0  0
    0.7751    0.3185   -1.3201 C   0  0  0  0  0  0  0  0  0  0  0  0
    0.7751    1.6449   -1.8122 O   0  0  0  0  0  0  0  0  0  0  0  0
   -0.3077    2.3692   -1.3129 C   0  0  0  0  0  0  0  0  0  0  0  0
   -0.2965    2.4755    0.0782 O   0  0  0  0  0  0  0  0  0  0  0  0
   -0.3643    1.2018    0.6900 C   0  0  0  0  0  0  0  0  0  0  0  0
    0.6375   -0.9018    0.6602 H   0  0  0  0  0  0  0  0  0  0  0  0
    1.7244    0.7170    0.5650 H   0  0  0  0  0  0  0  0  0  0  0  0
    1.6608   -0.1670   -1.7274 H   0  0  0  0  0  0  0  0  0  0  0  0
   -0.1125   -0.2127   -1.6968 H   0  0  0  0  0  0  0  0  0  0  0  0
   -1.2503    1.8911   -1.6371 H   0  0  0  0  0  0  0  0  0  0  0  0
   -0.2355    3.3774   -1.7149 H   0  0  0  0  0  0  0  0  0  0  0  0
   -1.3320    0.7327    0.4548 H   0  0  0  0  0  0  0  0  0  0  0  0
   -0.3191    1.3678    1.7655 H   0  0  0  0  0  0  0  0  0  0  0  0
  1  2  2  3
  1  4  1  0
  1 15  1  0
  2  3  1  0
  2  5  1  0
  3  6  1  0
  3  7  1  0
  3  8  1  0
  9 10  1  0
  9 14  1  0
  9 16  1  0
 10 11  1  0
 10 17  1  0
 10 18  1  0
 11 12  1  0
 12 13  1  0
 12 19  1  0
 12 20  1  0
 13 14  1  0
 14 21  1  0
 14 22  1  0
M  RAD  1   9   2
M  END
>  <reaction>  (8) 
rmg_rxn_350

>  <mol_properties>  (8) 
{"0": {"label": "*3", "atom_type": "Cd"}, "1": {"label": "*4", "atom_type": "Cd"}, "8": {"label": "*1", "atom_type": "Cs"}, "9": {"label": "*0", "atom_type": "Cs"}, "14": {"label": "*2", "atom_type": "H0"}}

>  <type>  (8) 
unop_4

>  <geom_source>  (8) 
Heuristics

$$$$

     RDKit          3D

 22 21  0  0  0  0  0  0  0  0999 V2000
    0.2198   -2.1743    0.8061 C   0  0  0  0  0  0  0  0  0  0  0  0
    0.1912   -2.4272    2.1052 C   0  0  0  0  0  0  0  0  0  0  0  0
    0.0384   -3.7835    2.7147 C   0  0  0  0  0  0  0  0  0  0  0  0
    0.1302   -2.9688    0.0727 H   0  0  0  0  0  0  0  0  0  0  0  0
    0.2847   -1.5983    2.8021 H   0  0  0  0  0  0  0  0  0  0  0  0
    0.8947   -4.0229    3.3505 H   0  0  0  0  0  0  0  0  0  0  0  0
   -0.0488   -4.5566    1.9503 H   0  0  0  0  0  0  0  0  0  0  0  0
   -0.8497   -3.8262    3.3505 H   0  0  0  0  0  0  0  0  0  0  0  0
    0.4937    0.2557   -0.1063 C   0  0  0  0  0  3  0  0  0  0  0  0
    0.4937    0.2557   -1.6284 C   0  0  0  0  0  0  0  0  0  0  0  0
    0.4937    1.5820   -2.1205 O   0  0  0  0  0  0  0  0  0  0  0  0
   -0.5891    2.3064   -1.6211 C   0  0  0  0  0  0  0  0  0  0  0  0
   -0.5779    2.4127   -0.2301 O   0  0  0  0  0  0  0  0  0  0  0  0
   -0.6457    1.1389    0.3818 C   0  0  0  0  0  0  0  0  0  0  0  0
    0.3561   -0.9647    0.3519 H   0  0  0  0  0  0  0  0  0  0  0  0
    1.4430    0.6542    0.2567 H   0  0  0  0  0  0  0  0  0  0  0  0
    1.3794   -0.2298   -2.0357 H   0  0  0  0  0  0  0  0  0  0  0  0
   -0.3939   -0.2756   -2.0051 H   0  0  0  0  0  0  0  0  0  0  0  0
   -1.5317    1.8283   -1.9454 H   0  0  0  0  0  0  0  0  0  0  0  0
   -0.5169    3.3145   -2.0231 H   0  0  0  0  0  0  0  0  0  0  0  0
   -1.6134    0.6698    0.1465 H   0  0  0  0  0  0  0  0  0  0  0  0
   -0.6005    1.3049    1.4572 H   0  0  0  0  0  0  0  0  0  0  0  0
  1  2  2  3
  1  4  1  0
  1 15  1  0
  2  3  1  0
  2  5  1  0
  3  6  1  0
  3  7  1  0
  3  8  1  0
  9 10  1  0
  9 14  1  0
  9 16  1  0
 10 11  1  0
 10 17  1  0
 10 18  1  0
 11 12  1  0
 12 13  1  0
 12 19  1  0
 12 20  1  0
 13 14  1  0
 14 21  1  0
 14 22  1  0
M  RAD  1   9   2
M  END
>  <reaction>  (9) 
rmg_rxn_350

>  <mol_properties>  (9) 
{"0": {"label": "*3", "atom_type": "Cd"}, "1": {"label": "*4", "atom_type": "Cd"}, "8": {"label": "*1", "atom_type": "Cs"}, "9": {"label": "*0", "atom_type": "Cs"}, "14": {"label": "*2", "atom_type": "H0"}}

>  <type>  (9) 
unop_5

>  <geom_source>  (9) 
Heuristics

$$$$

     RDKit          3D

 22 21  0  0  0  0  0  0  0  0999 V2000
    0.4974   -2.1816    0.9641 C   0  0  0  0  0  0  0  0  0  0  0  0
   -0.6963   -2.7000    1.2063 C   0  0  0  0  0  0  0  0  0  0  0  0
   -1.0498   -3.5252    2.4013 C   0  0  0  0  0  0  0  0  0  0  0  0
    1.3278   -2.3297    1.6465 H   0  0  0  0  0  0  0  0  0  0  0  0
   -1.4978   -2.5245    0.4932 H   0  0  0  0  0  0  0  0  0  0  0  0
   -1.8588   -3.0596    2.9700 H   0  0  0  0  0  0  0  0  0  0  0  0
   -0.1934   -3.6537    3.0645 H   0  0  0  0  0  0  0  0  0  0  0  0
   -1.4034   -4.5146    2.1000 H   0  0  0  0  0  0  0  0  0  0  0  0
    0.7713    0.2485    0.0517 C   0  0  0  0  0  3  0  0  0  0  0  0
    0.7713    0.2485   -1.4704 C   0  0  0  0  0  0  0  0  0  0  0  0
    0.7713    1.5748   -1.9625 O   0  0  0  0  0  0  0  0  0  0  0  0
   -0.3115    2.2992   -1.4631 C   0  0  0  0  0  0  0  0  0  0  0  0
   -0.3002    2.4054   -0.0721 O   0  0  0  0  0  0  0  0  0  0  0  0
   -0.3681    1.1317    0.5398 C   0  0  0  0  0  0  0  0  0  0  0  0
    0.6337   -0.9719    0.5099 H   0  0  0  0  0  0  0  0  0  0  0  0
    1.7206    0.6470    0.4147 H   0  0  0  0  0  0  0  0  0  0  0  0
    1.6571   -0.2371   -1.8777 H   0  0  0  0  0  0  0  0  0  0  0  0
   -0.1162   -0.2828   -1.8471 H   0  0  0  0  0  0  0  0  0  0  0  0
   -1.2541    1.8211   -1.7874 H   0  0  0  0  0  0  0  0  0  0  0  0
   -0.2392    3.3073   -1.8651 H   0  0  0  0  0  0  0  0  0  0  0  0
   -1.3358    0.6626    0.3045 H   0  0  0  0  0  0  0  0  0  0  0  0
   -0.3228    1.2977    1.6152 H   0  0  0  0  0  0  0  0  0  0  0  0
  1  2  2  3
  1  4  1  0
  1 15  1  0
  2  3  1  0
  2  5  1  0
  3  6  1  0
  3  7  1  0
  3  8  1  0
  9 10  1  0
  9 14  1  0
  9 16  1  0
 10 11  1  0
 10 17  1  0
 10 18  1  0
 11 12  1  0
 12 13  1  0
 12 19  1  0
 12 20  1  0
 13 14  1  0
 14 21  1  0
 14 22  1  0
M  RAD  1   9   2
M  END
>  <reaction>  (10) 
rmg_rxn_350

>  <mol_properties>  (10) 
{"0": {"label": "*3", "atom_type": "Cd"}, "1": {"label": "*4", "atom_type": "Cd"}, "8": {"label": "*1", "atom_type": "Cs"}, "9": {"label": "*0", "atom_type": "Cs"}, "14": {"label": "*2", "atom_type": "H0"}}

>  <type>  (10) 
unop_6

>  <geom_source>  (10) 
Heuristics

$$$$

     RDKit          3D

 22 21  0  0  0  0  0  0  0  0999 V2000
    0.4046   -2.2229    0.8420 C   0  0  0  0  0  0  0  0  0  0  0  0
   -0.6168   -2.5623    1.6125 C   0  0  0  0  0  0  0  0  0  0  0  0
   -0.5174   -3.3673    2.8681 C   0  0  0  0  0  0  0  0  0  0  0  0
    1.4195   -2.5203    1.0840 H   0  0  0  0  0  0  0  0  0  0  0  0
   -1.6159   -2.2411    1.3291 H   0  0  0  0  0  0  0  0  0  0  0  0
   -0.9038   -2.8051    3.7221 H   0  0  0  0  0  0  0  0  0  0  0  0
    0.5148   -3.6486    3.0806 H   0  0  0  0  0  0  0  0  0  0  0  0
   -1.1145   -4.2798    2.7934 H   0  0  0  0  0  0  0  0  0  0  0  0
    0.6785    0.2071   -0.0705 C   0  0  0  0  0  3  0  0  0  0  0  0
    0.6785    0.2071   -1.5925 C   0  0  0  0  0  0  0  0  0  0  0  0
    0.6785    1.5335   -2.0846 O   0  0  0  0  0  0  0  0  0  0  0  0
   -0.4043    2.2578   -1.5853 C   0  0  0  0  0  0  0  0  0  0  0  0
   -0.3930    2.3641   -0.1943 O   0  0  0  0  0  0  0  0  0  0  0  0
   -0.4609    1.0903    0.4176 C   0  0  0  0  0  0  0  0  0  0  0  0
    0.5409   -1.0133    0.3877 H   0  0  0  0  0  0  0  0  0  0  0  0
    1.6278    0.6056    0.2925 H   0  0  0  0  0  0  0  0  0  0  0  0
    1.5643   -0.2784   -1.9999 H   0  0  0  0  0  0  0  0  0  0  0  0
   -0.2090   -0.3242   -1.9693 H   0  0  0  0  0  0  0  0  0  0  0  0
   -1.3469    1.7797   -1.9095 H   0  0  0  0  0  0  0  0  0  0  0  0
   -0.3320    3.2659   -1.9873 H   0  0  0  0  0  0  0  0  0  0  0  0
   -1.4286    0.6212    0.1823 H   0  0  0  0  0  0  0  0  0  0  0  0
   -0.4156    1.2563    1.4931 H   0  0  0  0  0  0  0  0  0  0  0  0
  1  2  2  3
  1  4  1  0
  1 15  1  0
  2  3  1  0
  2  5  1  0
  3  6  1  0
  3  7  1  0
  3  8  1  0
  9 10  1  0
  9 14  1  0
  9 16  1  0
 10 11  1  0
 10 17  1  0
 10 18  1  0
 11 12  1  0
 12 13  1  0
 12 19  1  0
 12 20  1  0
 13 14  1  0
 14 21  1  0
 14 22  1  0
M  RAD  1   9   2
M  END
>  <reaction>  (11) 
rmg_rxn_350

>  <mol_properties>  (11) 
{"0": {"label": "*3", "atom_type": "Cd"}, "1": {"label": "*4", "atom_type": "Cd"}, "8": {"label": "*1", "atom_type": "Cs"}, "9": {"label": "*0", "atom_type": "Cs"}, "14": {"label": "*2", "atom_type": "H0"}}

>  <type>  (11) 
unop_7

>  <geom_source>  (11) 
Heuristics

$$$$

     RDKit          3D

 22 21  0  0  0  0  0  0  0  0999 V2000
   -0.0525   -2.1196    0.9641 C   0  0  0  0  0  0  0  0  0  0  0  0
    0.9958   -2.8907    1.2063 C   0  0  0  0  0  0  0  0  0  0  0  0
    1.1567   -3.7740    2.4013 C   0  0  0  0  0  0  0  0  0  0  0  0
   -0.8950   -2.0791    1.6465 H   0  0  0  0  0  0  0  0  0  0  0  0
    1.8162   -2.8980    0.4932 H   0  0  0  0  0  0  0  0  0  0  0  0
    1.2812   -4.8172    2.1000 H   0  0  0  0  0  0  0  0  0  0  0  0
    0.2932   -3.7086    3.0645 H   0  0  0  0  0  0  0  0  0  0  0  0
    2.0491   -3.5001    2.9700 H   0  0  0  0  0  0  0  0  0  0  0  0
    0.2214    0.3104    0.0517 C   0  0  0  0  0  3  0  0  0  0  0  0
    0.2214    0.3104   -1.4704 C   0  0  0  0  0  0  0  0  0  0  0  0
    0.2214    1.6368   -1.9625 O   0  0  0  0  0  0  0  0  0  0  0  0
   -0.8614    2.3611   -1.4631 C   0  0  0  0  0  0  0  0  0  0  0  0
   -0.8501    2.4674   -0.0721 O   0  0  0  0  0  0  0  0  0  0  0  0
   -0.9180    1.1937    0.5398 C   0  0  0  0  0  0  0  0  0  0  0  0
    0.0838   -0.9099    0.5099 H   0  0  0  0  0  0  0  0  0  0  0  0
    1.1707    0.7089    0.4147 H   0  0  0  0  0  0  0  0  0  0  0  0
    1.1072   -0.1751   -1.8777 H   0  0  0  0  0  0  0  0  0  0  0  0
   -0.6661   -0.2208   -1.8471 H   0  0  0  0  0  0  0  0  0  0  0  0
   -1.8040    1.8830   -1.7874 H   0  0  0  0  0  0  0  0  0  0  0  0
   -0.7891    3.3693   -1.8651 H   0  0  0  0  0  0  0  0  0  0  0  0
   -1.8857    0.7246    0.3045 H   0  0  0  0  0  0  0  0  0  0  0  0
   -0.8727    1.3597    1.6152 H   0  0  0  0  0  0  0  0  0  0  0  0
  1  2  2  3
  1  4  1  0
  1 15  1  0
  2  3  1  0
  2  5  1  0
  3  6  1  0
  3  7  1  0
  3  8  1  0
  9 10  1  0
  9 14  1  0
  9 16  1  0
 10 11  1  0
 10 17  1  0
 10 18  1  0
 11 12  1  0
 12 13  1  0
 12 19  1  0
 12 20  1  0
 13 14  1  0
 14 21  1  0
 14 22  1  0
M  RAD  1   9   2
M  END
>  <reaction>  (12) 
rmg_rxn_350

>  <mol_properties>  (12) 
{"0": {"label": "*3", "atom_type": "Cd"}, "1": {"label": "*4", "atom_type": "Cd"}, "8": {"label": "*1", "atom_type": "Cs"}, "9": {"label": "*0", "atom_type": "Cs"}, "14": {"label": "*2", "atom_type": "H0"}}

>  <type>  (12) 
unop_8

>  <geom_source>  (12) 
Heuristics

$$$$

     RDKit          3D

 22 21  0  0  0  0  0  0  0  0999 V2000
    0.4056   -2.0395    1.2384 C   0  0  0  0  0  0  0  0  0  0  0  0
   -0.2658   -2.9605    0.5652 C   0  0  0  0  0  0  0  0  0  0  0  0
   -0.7968   -4.2326    1.1431 C   0  0  0  0  0  0  0  0  0  0  0  0
    0.6211   -2.1557    2.2954 H   0  0  0  0  0  0  0  0  0  0  0  0
   -0.4577   -2.7999   -0.4926 H   0  0  0  0  0  0  0  0  0  0  0  0
   -1.8818   -4.2907    1.0242 H   0  0  0  0  0  0  0  0  0  0  0  0
   -0.5626   -4.3164    2.2051 H   0  0  0  0  0  0  0  0  0  0  0  0
   -0.3751   -5.0996    0.6281 H   0  0  0  0  0  0  0  0  0  0  0  0
    0.6795    0.3905    0.3259 C   0  0  0  0  0  3  0  0  0  0  0  0
    0.6795    0.3905   -1.1961 C   0  0  0  0  0  0  0  0  0  0  0  0
    0.6795    1.7169   -1.6882 O   0  0  0  0  0  0  0  0  0  0  0  0
   -0.4033    2.4412   -1.1889 C   0  0  0  0  0  0  0  0  0  0  0  0
   -0.3920    2.5475    0.2022 O   0  0  0  0  0  0  0  0  0  0  0  0
   -0.4599    1.2738    0.8141 C   0  0  0  0  0  0  0  0  0  0  0  0
    0.5420   -0.8298    0.7842 H   0  0  0  0  0  0  0  0  0  0  0  0
    1.6289    0.7890    0.6890 H   0  0  0  0  0  0  0  0  0  0  0  0
    1.5653   -0.0950   -1.6034 H   0  0  0  0  0  0  0  0  0  0  0  0
   -0.2080   -0.1407   -1.5728 H   0  0  0  0  0  0  0  0  0  0  0  0
   -1.3458    1.9631   -1.5131 H   0  0  0  0  0  0  0  0  0  0  0  0
   -0.3310    3.4493   -1.5909 H   0  0  0  0  0  0  0  0  0  0  0  0
   -1.4275    0.8046    0.5788 H   0  0  0  0  0  0  0  0  0  0  0  0
   -0.4146    1.4398    1.8895 H   0  0  0  0  0  0  0  0  0  0  0  0
  1  2  2  3
  1  4  1  0
  1 15  1  0
  2  3  1  0
  2  5  1  0
  3  6  1  0
  3  7  1  0
  3  8  1  0
  9 10  1  0
  9 14  1  0
  9 16  1  0
 10 11  1  0
 10 17  1  0
 10 18  1  0
 11 12  1  0
 12 13  1  0
 12 19  1  0
 12 20  1  0
 13 14  1  0
 14 21  1  0
 14 22  1  0
M  RAD  1   9   2
M  END
>  <reaction>  (13) 
rmg_rxn_350

>  <mol_properties>  (13) 
{"0": {"label": "*3", "atom_type": "Cd"}, "1": {"label": "*4", "atom_type": "Cd"}, "8": {"label": "*1", "atom_type": "Cs"}, "9": {"label": "*0", "atom_type": "Cs"}, "14": {"label": "*2", "atom_type": "H0"}}

>  <type>  (13) 
unop_9

>  <geom_source>  (13) 
Heuristics

$$$$

     RDKit          3D

 22 21  0  0  0  0  0  0  0  0999 V2000
   -0.0406   -2.0504    1.1144 C   0  0  0  0  0  0  0  0  0  0  0  0
    0.8355   -3.0006    0.8281 C   0  0  0  0  0  0  0  0  0  0  0  0
    1.2050   -4.1315    1.7329 C   0  0  0  0  0  0  0  0  0  0  0  0
   -0.5666   -2.0328    2.0631 H   0  0  0  0  0  0  0  0  0  0  0  0
    1.3378   -2.9763   -0.1356 H   0  0  0  0  0  0  0  0  0  0  0  0
    0.9910   -5.0936    1.2603 H   0  0  0  0  0  0  0  0  0  0  0  0
    0.6585   -4.0827    2.6756 H   0  0  0  0  0  0  0  0  0  0  0  0
    2.2753   -4.1186    1.9544 H   0  0  0  0  0  0  0  0  0  0  0  0
    0.2333    0.3796    0.2019 C   0  0  0  0  0  3  0  0  0  0  0  0
    0.2333    0.3796   -1.3201 C   0  0  0  0  0  0  0  0  0  0  0  0
    0.2333    1.7060   -1.8122 O   0  0  0  0  0  0  0  0  0  0  0  0
   -0.8495    2.4303   -1.3129 C   0  0  0  0  0  0  0  0  0  0  0  0
   -0.8382    2.5366    0.0782 O   0  0  0  0  0  0  0  0  0  0  0  0
   -0.9061    1.2628    0.6900 C   0  0  0  0  0  0  0  0  0  0  0  0
    0.0958   -0.8408    0.6602 H   0  0  0  0  0  0  0  0  0  0  0  0
    1.1827    0.7781    0.5650 H   0  0  0  0  0  0  0  0  0  0  0  0
    1.1191   -0.1059   -1.7274 H   0  0  0  0  0  0  0  0  0  0  0  0
   -0.6542   -0.1517   -1.6968 H   0  0  0  0  0  0  0  0  0  0  0  0
   -1.7921    1.9522   -1.6371 H   0  0  0  0  0  0  0  0  0  0  0  0
   -0.7772    3.4384   -1.7149 H   0  0  0  0  0  0  0  0  0  0  0  0
   -1.8738    0.7937    0.4548 H   0  0  0  0  0  0  0  0  0  0  0  0
   -0.8608    1.4288    1.7655 H   0  0  0  0  0  0  0  0  0  0  0  0
  1  2  2  3
  1  4  1  0
  1 15  1  0
  2  3  1  0
  2  5  1  0
  3  6  1  0
  3  7  1  0
  3  8  1  0
  9 10  1  0
  9 14  1  0
  9 16  1  0
 10 11  1  0
 10 17  1  0
 10 18  1  0
 11 12  1  0
 12 13  1  0
 12 19  1  0
 12 20  1  0
 13 14  1  0
 14 21  1  0
 14 22  1  0
M  RAD  1   9   2
M  END
>  <reaction>  (14) 
rmg_rxn_350

>  <mol_properties>  (14) 
{"0": {"label": "*3", "atom_type": "Cd"}, "1": {"label": "*4", "atom_type": "Cd"}, "8": {"label": "*1", "atom_type": "Cs"}, "9": {"label": "*0", "atom_type": "Cs"}, "14": {"label": "*2", "atom_type": "H0"}}

>  <type>  (14) 
unop_10

>  <geom_source>  (14) 
Heuristics

$$$$

     RDKit          3D

 22 21  0  0  0  0  0  0  0  0999 V2000
    0.2734   -2.2138    0.7919 C   0  0  0  0  0  0  0  0  0  0  0  0
   -0.3215   -2.4560    1.9494 C   0  0  0  0  0  0  0  0  0  0  0  0
    0.0933   -3.5083    2.9266 C   0  0  0  0  0  0  0  0  0  0  0  0
    1.1348   -2.7879    0.4673 H   0  0  0  0  0  0  0  0  0  0  0  0
   -1.1816   -1.8544    2.2320 H   0  0  0  0  0  0  0  0  0  0  0  0
    0.3442   -3.0641    3.8933 H   0  0  0  0  0  0  0  0  0  0  0  0
    0.9603   -4.0650    2.5689 H   0  0  0  0  0  0  0  0  0  0  0  0
   -0.7205   -4.2159    3.1050 H   0  0  0  0  0  0  0  0  0  0  0  0
    0.5473    0.2162   -0.1205 C   0  0  0  0  0  3  0  0  0  0  0  0
    0.5473    0.2162   -1.6426 C   0  0  0  0  0  0  0  0  0  0  0  0
    0.5473    1.5426   -2.1347 O   0  0  0  0  0  0  0  0  0  0  0  0
   -0.5355    2.2669   -1.6353 C   0  0  0  0  0  0  0  0  0  0  0  0
   -0.5242    2.3732   -0.2443 O   0  0  0  0  0  0  0  0  0  0  0  0
   -0.5921    1.0994    0.3676 C   0  0  0  0  0  0  0  0  0  0  0  0
    0.4097   -1.0042    0.3377 H   0  0  0  0  0  0  0  0  0  0  0  0
    1.4966    0.6147    0.2425 H   0  0  0  0  0  0  0  0  0  0  0  0
    1.4331   -0.2693   -2.0499 H   0  0  0  0  0  0  0  0  0  0  0  0
   -0.3402   -0.3151   -2.0193 H   0  0  0  0  0  0  0  0  0  0  0  0
   -1.4781    1.7888   -1.9595 H   0  0  0  0  0  0  0  0  0  0  0  0
   -0.4632    3.2750   -2.0373 H   0  0  0  0  0  0  0  0  0  0  0  0
   -1.5598    0.6303    0.1323 H   0  0  0  0  0  0  0  0  0  0  0  0
   -0.5468    1.2655    1.4431 H   0  0  0  0  0  0  0  0  0  0  0  0
  1  2  2  3
  1  4  1  0
  1 15  1  0
  2  3  1  0
  2  5  1  0
  3  6  1  0
  3  7  1  0
  3  8  1  0
  9 10  1  0
  9 14  1  0
  9 16  1  0
 10 11  1  0
 10 17  1  0
 10 18  1  0
 11 12  1  0
 12 13  1  0
 12 19  1  0
 12 20  1  0
 13 14  1  0
 14 21  1  0
 14 22  1  0
M  RAD  1   9   2
M  END
>  <reaction>  (15) 
rmg_rxn_350

>  <mol_properties>  (15) 
{"0": {"label": "*3", "atom_type": "Cd"}, "1": {"label": "*4", "atom_type": "Cd"}, "8": {"label": "*1", "atom_type": "Cs"}, "9": {"label": "*0", "atom_type": "Cs"}, "14": {"label": "*2", "atom_type": "H0"}}

>  <type>  (15) 
unop_11

>  <geom_source>  (15) 
Heuristics

$$$$

     RDKit          3D

 22 21  0  0  0  0  0  0  0  0999 V2000
    0.2398   -1.9961    1.2868 C   0  0  0  0  0  0  0  0  0  0  0  0
    0.1230   -3.0328    0.4720 C   0  0  0  0  0  0  0  0  0  0  0  0
   -0.0372   -4.4543    0.9055 C   0  0  0  0  0  0  0  0  0  0  0  0
    0.2260   -2.1190    2.3647 H   0  0  0  0  0  0  0  0  0  0  0  0
    0.1425   -2.8601   -0.6010 H   0  0  0  0  0  0  0  0  0  0  0  0
   -0.9681   -4.8764    0.5182 H   0  0  0  0  0  0  0  0  0  0  0  0
   -0.0470   -4.5408    1.9927 H   0  0  0  0  0  0  0  0  0  0  0  0
    0.7763   -5.0730    0.5182 H   0  0  0  0  0  0  0  0  0  0  0  0
    0.5137    0.4339    0.3744 C   0  0  0  0  0  3  0  0  0  0  0  0
    0.5137    0.4339   -1.1477 C   0  0  0  0  0  0  0  0  0  0  0  0
    0.5137    1.7603   -1.6398 O   0  0  0  0  0  0  0  0  0  0  0  0
   -0.5690    2.4846   -1.1405 C   0  0  0  0  0  0  0  0  0  0  0  0
   -0.5578    2.5909    0.2506 O   0  0  0  0  0  0  0  0  0  0  0  0
   -0.6257    1.3172    0.8625 C   0  0  0  0  0  0  0  0  0  0  0  0
    0.3762   -0.7865    0.8326 H   0  0  0  0  0  0  0  0  0  0  0  0
    1.4631    0.8324    0.7374 H   0  0  0  0  0  0  0  0  0  0  0  0
    1.3995   -0.0516   -1.5550 H   0  0  0  0  0  0  0  0  0  0  0  0
   -0.3738   -0.0973   -1.5244 H   0  0  0  0  0  0  0  0  0  0  0  0
   -1.5116    2.0065   -1.4647 H   0  0  0  0  0  0  0  0  0  0  0  0
   -0.4968    3.4927   -1.5424 H   0  0  0  0  0  0  0  0  0  0  0  0
   -1.5933    0.8480    0.6272 H   0  0  0  0  0  0  0  0  0  0  0  0
   -0.5804    1.4832    1.9379 H   0  0  0  0  0  0  0  0  0  0  0  0
  1  2  2  3
  1  4  1  0
  1 15  1  0
  2  3  1  0
  2  5  1  0
  3  6  1  0
  3  7  1  0
  3  8  1  0
  9 10  1  0
  9 14  1  0
  9 16  1  0
 10 11  1  0
 10 17  1  0
 10 18  1  0
 11 12  1  0
 12 13  1  0
 12 19  1  0
 12 20  1  0
 13 14  1  0
 14 21  1  0
 14 22  1  0
M  RAD  1   9   2
M  END
>  <reaction>  (16) 
rmg_rxn_350

>  <mol_properties>  (16) 
{"0": {"label": "*3", "atom_type": "Cd"}, "1": {"label": "*4", "atom_type": "Cd"}, "8": {"label": "*1", "atom_type": "Cs"}, "9": {"label": "*0", "atom_type": "Cs"}, "14": {"label": "*2", "atom_type": "H0"}}

>  <type>  (16) 
unop_12

>  <geom_source>  (16) 
Heuristics

$$$$

     RDKit          3D

 22 21  0  0  0  0  0  0  0  0999 V2000
   -1.4007    1.1539    1.1119 O   0  0  0  0  0  0  0  0  0  0  0  0
   -1.6376    0.8015   -1.1801 O   0  0  0  0  0  0  0  0  0  0  0  0
   -1.2935   -0.2272    1.3898 C   0  0  0  0  0  0  0  0  0  0  0  0
   -1.5457   -0.6023   -1.0504 C   0  0  0  0  0  0  0  0  0  0  0  0
   -2.2350    1.3428   -0.0163 C   0  0  0  0  0  0  0  0  0  0  0  0
    2.8688    0.7918    0.4903 C   0  0  0  0  0  0  0  0  0  0  0  0
   -0.7315   -0.9762    0.1849 C   0  0  0  0  0  3  0  0  0  0  0  0
    2.7574   -0.2102   -0.6155 C   0  0  0  0  0  0  0  0  0  0  0  0
    1.6043   -0.8337   -0.8633 C   0  0  0  0  0  0  0  0  0  0  0  0
   -2.2812   -0.6472    1.6885 H   0  0  0  0  0  0  0  0  0  0  0  0
   -0.5994   -0.3649    2.2445 H   0  0  0  0  0  0  0  0  0  0  0  0
   -1.0326   -1.0093   -1.9462 H   0  0  0  0  0  0  0  0  0  0  0  0
   -2.5598   -1.0617   -1.0070 H   0  0  0  0  0  0  0  0  0  0  0  0
    2.1652    1.6324    0.3129 H   0  0  0  0  0  0  0  0  0  0  0  0
    2.6326    0.3109    1.4631 H   0  0  0  0  0  0  0  0  0  0  0  0
    3.9035    1.1920    0.5298 H   0  0  0  0  0  0  0  0  0  0  0  0
   -3.2598    0.9336    0.1526 H   0  0  0  0  0  0  0  0  0  0  0  0
   -2.3587    2.4342   -0.1713 H   0  0  0  0  0  0  0  0  0  0  0  0
   -0.7602   -2.0736    0.3566 H   0  0  0  0  0  0  0  0  0  0  0  0
    3.6283   -0.4327   -1.2250 H   0  0  0  0  0  0  0  0  0  0  0  0
    1.5392   -1.5579   -1.6688 H   0  0  0  0  0  0  0  0  0  0  0  0
    0.5965   -0.5964   -0.1810 H   0  0  0  0  0  0  0  0  0  0  0  0
  1  3  1  0
  1  5  1  0
  2  4  1  0
  2  5  1  0
  3  7  1  0
  3 10  1  0
  3 11  1  0
  4  7  1  0
  4 12  1  0
  4 13  1  0
  5 17  1  0
  5 18  1  0
  6  8  1  0
  6 14  1  0
  6 15  1  0
  6 16  1  0
  7 19  1  0
  8  9  2  3
  8 20  1  0
  9 21  1  0
  9 22  1  0
M  RAD  1   7   2
M  END
>  <reaction>  (17) 
rmg_rxn_350

>  <mol_properties>  (17) 
{"0": {"label": "*3", "atom_type": "Cd"}, "1": {"label": "*4", "atom_type": "Cd"}, "8": {"label": "*1", "atom_type": "Cs"}, "9": {"label": "*0", "atom_type": "Cs"}, "14": {"label": "*2", "atom_type": "H0"}}

>  <type>  (17) 
unop_13

>  <geom_source>  (17) 
AutoTST

$$$$

     RDKit          3D

 22 21  0  0  0  0  0  0  0  0999 V2000
    0.0685   -2.0015    1.2384 C   0  0  0  0  0  0  0  0  0  0  0  0
    0.5181   -3.0489    0.5652 C   0  0  0  0  0  0  0  0  0  0  0  0
    0.7526   -4.4073    1.1431 C   0  0  0  0  0  0  0  0  0  0  0  0
   -0.1674   -2.0668    2.2954 H   0  0  0  0  0  0  0  0  0  0  0  0
    0.7409   -2.9350   -0.4926 H   0  0  0  0  0  0  0  0  0  0  0  0
    0.1485   -5.1586    0.6281 H   0  0  0  0  0  0  0  0  0  0  0  0
    0.5057   -4.4368    2.2051 H   0  0  0  0  0  0  0  0  0  0  0  0
    1.7975   -4.7054    1.0242 H   0  0  0  0  0  0  0  0  0  0  0  0
    0.3424    0.4285    0.3260 C   0  0  0  0  0  3  0  0  0  0  0  0
    0.3424    0.4285   -1.1961 C   0  0  0  0  0  0  0  0  0  0  0  0
    0.3424    1.7549   -1.6882 O   0  0  0  0  0  0  0  0  0  0  0  0
   -0.7403    2.4792   -1.1889 C   0  0  0  0  0  0  0  0  0  0  0  0
   -0.7291    2.5855    0.2022 O   0  0  0  0  0  0  0  0  0  0  0  0
   -0.7970    1.3118    0.8141 C   0  0  0  0  0  0  0  0  0  0  0  0
    0.2049   -0.7919    0.7842 H   0  0  0  0  0  0  0  0  0  0  0  0
    1.2918    0.8270    0.6890 H   0  0  0  0  0  0  0  0  0  0  0  0
    1.2282   -0.0570   -1.6034 H   0  0  0  0  0  0  0  0  0  0  0  0
   -0.5451   -0.1027   -1.5728 H   0  0  0  0  0  0  0  0  0  0  0  0
   -1.6829    2.0011   -1.5131 H   0  0  0  0  0  0  0  0  0  0  0  0
   -0.6681    3.4874   -1.5909 H   0  0  0  0  0  0  0  0  0  0  0  0
   -1.7646    0.8426    0.5788 H   0  0  0  0  0  0  0  0  0  0  0  0
   -0.7517    1.4778    1.8895 H   0  0  0  0  0  0  0  0  0  0  0  0
  1  2  2  3
  1  4  1  0
  1 15  1  0
  2  3  1  0
  2  5  1  0
  3  6  1  0
  3  7  1  0
  3  8  1  0
  9 10  1  0
  9 14  1  0
  9 16  1  0
 10 11  1  0
 10 17  1  0
 10 18  1  0
 11 12  1  0
 12 13  1  0
 12 19  1  0
 12 20  1  0
 13 14  1  0
 14 21  1  0
 14 22  1  0
M  RAD  1   9   2
M  END
>  <reaction>  (18) 
rmg_rxn_350

>  <mol_properties>  (18) 
{"0": {"label": "*3", "atom_type": "Cd"}, "1": {"label": "*4", "atom_type": "Cd"}, "8": {"label": "*1", "atom_type": "Cs"}, "9": {"label": "*0", "atom_type": "Cs"}, "14": {"label": "*2", "atom_type": "H0"}}

>  <type>  (18) 
unop_14

>  <geom_source>  (18) 
gaussian_log

$$$$
