
     RDKit          3D

 14 14  0  0  0  0  0  0  0  0999 V2000
   -1.1778    0.2241    0.1818 C   0  0  0  0  0  0  0  0  0  0  0  0
   -0.5633   -1.1636    0.0678 C   0  0  0  0  0  0  0  0  0  0  0  0
    0.6943   -1.1996    0.7146 O   0  0  0  0  0  0  0  0  0  0  0  0
    1.5547   -0.2288    0.2011 C   0  0  0  0  0  0  0  0  0  0  0  0
    1.0729    1.0696    0.3698 O   0  0  0  0  0  0  0  0  0  0  0  0
   -0.1607    1.2493   -0.2989 C   0  0  0  0  0  0  0  0  0  0  0  0
   -2.0927    0.2866   -0.4117 H   0  0  0  0  0  0  0  0  0  0  0  0
   -1.4303    0.4248    1.2248 H   0  0  0  0  0  0  0  0  0  0  0  0
   -1.1822   -1.9235    0.5431 H   0  0  0  0  0  0  0  0  0  0  0  0
   -0.4389   -1.4347   -0.9919 H   0  0  0  0  0  0  0  0  0  0  0  0
    1.7250   -0.4207   -0.8742 H   0  0  0  0  0  0  0  0  0  0  0  0
    2.4896   -0.3010    0.7524 H   0  0  0  0  0  0  0  0  0  0  0  0
   -0.0080    1.1481   -1.3844 H   0  0  0  0  0  0  0  0  0  0  0  0
   -0.4826    2.2695   -0.0942 H   0  0  0  0  0  0  0  0  0  0  0  0
  1  2  1  0
  1  6  1  0
  1  7  1  0
  1  8  1  0
  2  3  1  0
  2  9  1  0
  2 10  1  0
  3  4  1  0
  4  5  1  0
  4 11  1  0
  4 12  1  0
  5  6  1  0
  6 13  1  0
  6 14  1  0
M  END
>  <reaction>  (1) 
rmg_rxn_630

>  <mol_properties>  (1) 
{"3": {"label": "donator", "atom_type": "Cs"}, "10": {"label": "d_hydrogen", "atom_type": "H0"}}

>  <type>  (1) 
r1h

$$$$

     RDKit          3D

 14 13  0  0  0  0  0  0  0  0999 V2000
    2.6694    0.2813   -0.6046 C   0  0  0  0  0  3  0  0  0  0  0  0
    1.5626   -0.5075   -0.0103 C   0  0  0  0  0  0  0  0  0  0  0  0
    0.5522   -0.8487   -0.9278 O   0  0  0  0  0  0  0  0  0  0  0  0
    0.9505   -1.8204   -1.8682 C   0  0  0  0  0  0  0  0  0  0  0  0
   -0.2101   -2.1029   -2.7930 C   0  0  0  0  0  0  0  0  0  0  0  0
    2.4666    0.9443   -1.4355 H   0  0  0  0  0  0  0  0  0  0  0  0
    3.6339    0.3312   -0.1179 H   0  0  0  0  0  0  0  0  0  0  0  0
    1.0573    0.0741    0.7733 H   0  0  0  0  0  0  0  0  0  0  0  0
    1.9580   -1.4106    0.4809 H   0  0  0  0  0  0  0  0  0  0  0  0
    1.8195   -1.4649   -2.4379 H   0  0  0  0  0  0  0  0  0  0  0  0
    1.2587   -2.7372   -1.3440 H   0  0  0  0  0  0  0  0  0  0  0  0
   -0.5051   -1.1971   -3.3238 H   0  0  0  0  0  0  0  0  0  0  0  0
    0.0686   -2.8601   -3.5276 H   0  0  0  0  0  0  0  0  0  0  0  0
   -1.0699   -2.4661   -2.2289 H   0  0  0  0  0  0  0  0  0  0  0  0
  1  2  1  0
  1  6  1  0
  1  7  1  0
  2  3  1  0
  2  8  1  0
  2  9  1  0
  3  4  1  0
  4  5  1  0
  4 10  1  0
  4 11  1  0
  5 12  1  0
  5 13  1  0
  5 14  1  0
M  RAD  1   1   2
M  END
>  <reaction>  (2) 
rmg_rxn_630

>  <mol_properties>  (2) 
{"0": {"label": "acceptor", "atom_type": "Cs"}}

>  <type>  (2) 
r2

$$$$

     RDKit          3D

 15 14  0  0  0  0  0  0  0  0999 V2000
    2.4145    0.0817    0.4065 C   0  0  0  0  0  0  0  0  0  0  0  0
    1.1257   -0.2220   -0.3219 C   0  0  0  0  0  0  0  0  0  0  0  0
    1.0983   -1.5879   -0.6512 O   0  0  0  0  0  0  0  0  0  0  0  0
   -0.0685   -1.9694   -1.3352 C   0  0  0  0  0  0  0  0  0  0  0  0
    0.0024   -3.4478   -1.6403 C   0  0  0  0  0  0  0  0  0  0  0  0
    3.2736   -0.1534   -0.2229 H   0  0  0  0  0  0  0  0  0  0  0  0
    2.4581    1.1389    0.6728 H   0  0  0  0  0  0  0  0  0  0  0  0
    2.4855   -0.5095    1.3201 H   0  0  0  0  0  0  0  0  0  0  0  0
    0.2597    0.0294    0.3083 H   0  0  0  0  0  0  0  0  0  0  0  0
    1.0482    0.3858   -1.2356 H   0  0  0  0  0  0  0  0  0  0  0  0
   -0.9535   -1.7457   -0.7211 H   0  0  0  0  0  0  0  0  0  0  0  0
   -0.1650   -1.3894   -2.2650 H   0  0  0  0  0  0  0  0  0  0  0  0
    0.0831   -4.0247   -0.7183 H   0  0  0  0  0  0  0  0  0  0  0  0
   -0.8950   -3.7674   -2.1724 H   0  0  0  0  0  0  0  0  0  0  0  0
    0.8712   -3.6686   -2.2613 H   0  0  0  0  0  0  0  0  0  0  0  0
  1  2  1  0
  1  6  1  0
  1  7  1  0
  1  8  1  0
  2  3  1  0
  2  9  1  0
  2 10  1  0
  3  4  1  0
  4  5  1  0
  4 11  1  0
  4 12  1  0
  5 13  1  0
  5 14  1  0
  5 15  1  0
M  END
>  <reaction>  (3) 
rmg_rxn_630

>  <mol_properties>  (3) 
{"0": {"label": "a_hydrogen", "atom_type": "H0"}, "1": {"label": "acceptor", "atom_type": "Cs"}}

>  <type>  (3) 
r2h

$$$$

     RDKit          3D

 28 27  0  0  0  0  0  0  0  0999 V2000
   -0.0270   -3.2043   -0.4260 C   0  0  0  0  0  0  0  0  0  0  0  0
   -0.5101   -2.8269    0.9652 C   0  0  0  0  0  0  0  0  0  0  0  0
   -1.4328   -1.7537    0.8909 O   0  0  0  0  0  0  0  0  0  0  0  0
   -0.9220   -0.6627    0.2174 C   0  0  0  0  0  0  0  0  0  0  0  0
   -0.4872   -0.9237   -1.0690 O   0  0  0  0  0  0  0  0  0  0  0  0
    0.4873   -1.9514   -1.1168 C   0  0  0  0  0  0  0  0  0  0  0  0
    0.7630   -3.9559   -0.3643 H   0  0  0  0  0  0  0  0  0  0  0  0
   -0.8561   -3.6239   -0.9993 H   0  0  0  0  0  0  0  0  0  0  0  0
   -1.0313   -3.6491    1.4530 H   0  0  0  0  0  0  0  0  0  0  0  0
    0.3395   -2.5314    1.5956 H   0  0  0  0  0  0  0  0  0  0  0  0
    0.0971   -0.1846    0.8868 H   0  0  0  0  0  0  0  0  0  0  0  0
   -1.6679    0.1263    0.1866 H   0  0  0  0  0  0  0  0  0  0  0  0
    1.4082   -1.6025   -0.6297 H   0  0  0  0  0  0  0  0  0  0  0  0
    0.7009   -2.1248   -2.1705 H   0  0  0  0  0  0  0  0  0  0  0  0
    1.2280    0.4735    1.4306 C   0  0  0  0  0  3  0  0  0  0  0  0
    1.5772    1.4516    0.3547 C   0  0  0  0  0  0  0  0  0  0  0  0
    0.4729    2.2930    0.1308 O   0  0  0  0  0  0  0  0  0  0  0  0
    0.6551    3.1713   -0.9512 C   0  0  0  0  0  0  0  0  0  0  0  0
   -0.5902    4.0114   -1.1135 C   0  0  0  0  0  0  0  0  0  0  0  0
    0.8558    0.9226    2.3485 H   0  0  0  0  0  0  0  0  0  0  0  0
    1.9853   -0.2871    1.6077 H   0  0  0  0  0  0  0  0  0  0  0  0
    1.8354    0.9176   -0.5732 H   0  0  0  0  0  0  0  0  0  0  0  0
    2.4573    2.0582    0.6297 H   0  0  0  0  0  0  0  0  0  0  0  0
    1.5314    3.8119   -0.7719 H   0  0  0  0  0  0  0  0  0  0  0  0
    0.8525    2.5965   -1.8675 H   0  0  0  0  0  0  0  0  0  0  0  0
   -0.7840    4.5878   -0.2082 H   0  0  0  0  0  0  0  0  0  0  0  0
   -0.4726    4.7045   -1.9479 H   0  0  0  0  0  0  0  0  0  0  0  0
   -1.4548    3.3764   -1.3101 H   0  0  0  0  0  0  0  0  0  0  0  0
  1  2  1  0
  1  6  1  0
  1  7  1  0
  1  8  1  0
  2  3  1  0
  2  9  1  0
  2 10  1  0
  3  4  1  0
  4  5  1  0
  4 11  1  0
  4 12  1  0
  5  6  1  0
  6 13  1  0
  6 14  1  0
 15 16  1  0
 15 20  1  0
 15 21  1  0
 16 17  1  0
 16 22  1  0
 16 23  1  0
 17 18  1  0
 18 19  1  0
 18 24  1  0
 18 25  1  0
 19 26  1  0
 19 27  1  0
 19 28  1  0
M  RAD  1  15   2
M  END
>  <reaction>  (4) 
rmg_rxn_630

>  <mol_properties>  (4) 
{"2": {"label": "*0", "atom_type": "O2s"}, "3": {"label": "*1", "atom_type": "Cs"}, "10": {"label": "*2", "atom_type": "H0"}, "14": {"label": "*3", "atom_type": "Cs"}, "15": {"label": "*4", "atom_type": "Cs"}}

>  <type>  (4) 
ts

$$$$

     RDKit          3D

 28 27  0  0  0  0  0  0  0  0999 V2000
   -0.4347   -2.3054   -0.4017 C   0  0  0  0  0  0  0  0  0  0  0  0
   -0.4347   -2.3054    1.1203 C   0  0  0  0  0  0  0  0  0  0  0  0
   -1.4830   -1.4928    1.6124 O   0  0  0  0  0  0  0  0  0  0  0  0
   -1.3921   -0.1932    1.1131 C   0  0  0  0  0  3  0  0  0  0  0  0
   -1.4830   -0.1370   -0.2779 O   0  0  0  0  0  0  0  0  0  0  0  0
   -0.4347   -0.8637   -0.8898 C   0  0  0  0  0  0  0  0  0  0  0  0
    0.4393   -2.8378   -0.7836 H   0  0  0  0  0  0  0  0  0  0  0  0
   -1.3313   -2.8115   -0.7647 H   0  0  0  0  0  0  0  0  0  0  0  0
   -0.5937   -3.3029    1.5277 H   0  0  0  0  0  0  0  0  0  0  0  0
    0.5289   -1.9294    1.4971 H   0  0  0  0  0  0  0  0  0  0  0  0
   -0.2457    0.3493    1.5022 H   0  0  0  0  0  0  0  0  0  0  0  0
   -2.2332    0.3673    1.5151 H   0  0  0  0  0  0  0  0  0  0  0  0
    0.5289   -0.3863   -0.6545 H   0  0  0  0  0  0  0  0  0  0  0  0
   -0.5937   -0.7978   -1.9653 H   0  0  0  0  0  0  0  0  0  0  0  0
    0.8852    0.8844    1.8860 C   0  0  0  0  0  0  0  0  0  0  0  0
    1.7214    1.2711    0.6881 C   0  0  0  0  0  0  0  0  0  0  0  0
    0.8847    1.3841   -0.4354 O   0  0  0  0  0  0  0  0  0  0  0  0
    1.5749    1.7425   -1.6060 C   0  0  0  0  0  0  0  0  0  0  0  0
    0.5893    1.8364   -2.7477 C   0  0  0  0  0  0  0  0  0  0  0  0
    0.1232    1.6401    2.0801 H   0  0  0  0  0  0  0  0  0  0  0  0
    1.5148    0.7906    2.7721 H   0  0  0  0  0  0  0  0  0  0  0  0
    2.4991    0.5155    0.5023 H   0  0  0  0  0  0  0  0  0  0  0  0
    2.2355    2.2264    0.8706 H   0  0  0  0  0  0  0  0  0  0  0  0
    2.0867    2.7052   -1.4599 H   0  0  0  0  0  0  0  0  0  0  0  0
    2.3503    0.9944   -1.8283 H   0  0  0  0  0  0  0  0  0  0  0  0
   -0.1714    2.5883   -2.5348 H   0  0  0  0  0  0  0  0  0  0  0  0
    1.1035    2.1140   -3.6691 H   0  0  0  0  0  0  0  0  0  0  0  0
    0.0919    0.8784   -2.9029 H   0  0  0  0  0  0  0  0  0  0  0  0
  1  2  1  0
  1  6  1  0
  1  7  1  0
  1  8  1  0
  2  3  1  0
  2  9  1  0
  2 10  1  0
  3  4  1  0
  4  5  1  0
  4 12  1  0
  5  6  1  0
  6 13  1  0
  6 14  1  0
 11 15  1  0
 15 16  1  0
 15 20  1  0
 15 21  1  0
 16 17  1  0
 16 22  1  0
 16 23  1  0
 17 18  1  0
 18 19  1  0
 18 24  1  0
 18 25  1  0
 19 26  1  0
 19 27  1  0
 19 28  1  0
M  RAD  1   4   2
M  END
>  <reaction>  (5) 
rmg_rxn_630

>  <mol_properties>  (5) 
{"2": {"label": "*0", "atom_type": "O2s"}, "3": {"label": "*1", "atom_type": "Cs"}, "10": {"label": "*2", "atom_type": "H0"}, "14": {"label": "*3", "atom_type": "Cs"}, "15": {"label": "*4", "atom_type": "Cs"}}

>  <type>  (5) 
unop_1

>  <geom_source>  (5) 
Heuristics

$$$$

     RDKit          3D

 28 27  0  0  0  0  0  0  0  0999 V2000
   -0.8463   -1.1388   -1.1386 C   0  0  0  0  0  0  0  0  0  0  0  0
   -0.8463   -1.1388    0.3834 C   0  0  0  0  0  0  0  0  0  0  0  0
   -1.8946   -0.3262    0.8755 O   0  0  0  0  0  0  0  0  0  0  0  0
   -1.8037    0.9734    0.3762 C   0  0  0  0  0  3  0  0  0  0  0  0
   -1.8946    1.0296   -1.0148 O   0  0  0  0  0  0  0  0  0  0  0  0
   -0.8463    0.3029   -1.6267 C   0  0  0  0  0  0  0  0  0  0  0  0
    0.0276   -1.6712   -1.5205 H   0  0  0  0  0  0  0  0  0  0  0  0
   -1.7429   -1.6449   -1.5016 H   0  0  0  0  0  0  0  0  0  0  0  0
   -1.0053   -2.1363    0.7908 H   0  0  0  0  0  0  0  0  0  0  0  0
    0.1173   -0.7628    0.7602 H   0  0  0  0  0  0  0  0  0  0  0  0
   -0.6573    1.5159    0.7653 H   0  0  0  0  0  0  0  0  0  0  0  0
   -2.6448    1.5339    0.7782 H   0  0  0  0  0  0  0  0  0  0  0  0
    0.1173    0.7803   -1.3914 H   0  0  0  0  0  0  0  0  0  0  0  0
   -1.0053    0.3688   -2.7022 H   0  0  0  0  0  0  0  0  0  0  0  0
    0.4736    2.0510    1.1491 C   0  0  0  0  0  0  0  0  0  0  0  0
    1.5343    0.9872    1.3121 C   0  0  0  0  0  0  0  0  0  0  0  0
    1.4389    0.0797    0.2433 O   0  0  0  0  0  0  0  0  0  0  0  0
    2.3901   -0.9530    0.3068 C   0  0  0  0  0  0  0  0  0  0  0  0
    2.2019   -1.8675   -0.8813 C   0  0  0  0  0  0  0  0  0  0  0  0
    0.6113    2.5870    0.2094 H   0  0  0  0  0  0  0  0  0  0  0  0
    0.5285    2.7685    1.9693 H   0  0  0  0  0  0  0  0  0  0  0  0
    1.4034    0.4570    2.2672 H   0  0  0  0  0  0  0  0  0  0  0  0
    2.5357    1.4423    1.3295 H   0  0  0  0  0  0  0  0  0  0  0  0
    3.4050   -0.5285    0.3082 H   0  0  0  0  0  0  0  0  0  0  0  0
    2.2727   -1.5138    1.2459 H   0  0  0  0  0  0  0  0  0  0  0  0
    2.3326   -1.3156   -1.8128 H   0  0  0  0  0  0  0  0  0  0  0  0
    2.9311   -2.6787   -0.8532 H   0  0  0  0  0  0  0  0  0  0  0  0
    1.2010   -2.3004   -0.8757 H   0  0  0  0  0  0  0  0  0  0  0  0
  1  2  1  0
  1  6  1  0
  1  7  1  0
  1  8  1  0
  2  3  1  0
  2  9  1  0
  2 10  1  0
  3  4  1  0
  4  5  1  0
  4 12  1  0
  5  6  1  0
  6 13  1  0
  6 14  1  0
 11 15  1  0
 15 16  1  0
 15 20  1  0
 15 21  1  0
 16 17  1  0
 16 22  1  0
 16 23  1  0
 17 18  1  0
 18 19  1  0
 18 24  1  0
 18 25  1  0
 19 26  1  0
 19 27  1  0
 19 28  1  0
M  RAD  1   4   2
M  END
>  <reaction>  (6) 
rmg_rxn_630

>  <mol_properties>  (6) 
{"2": {"label": "*0", "atom_type": "O2s"}, "3": {"label": "*1", "atom_type": "Cs"}, "10": {"label": "*2", "atom_type": "H0"}, "14": {"label": "*3", "atom_type": "Cs"}, "15": {"label": "*4", "atom_type": "Cs"}}

>  <type>  (6) 
unop_2

>  <geom_source>  (6) 
Heuristics

$$$$

     RDKit          3D

 28 27  0  0  0  0  0  0  0  0999 V2000
   -0.1416   -2.8172   -0.6940 C   0  0  0  0  0  0  0  0  0  0  0  0
   -0.1416   -2.8172    0.8280 C   0  0  0  0  0  0  0  0  0  0  0  0
   -1.1899   -2.0046    1.3201 O   0  0  0  0  0  0  0  0  0  0  0  0
   -1.0990   -0.7051    0.8208 C   0  0  0  0  0  3  0  0  0  0  0  0
   -1.1899   -0.6489   -0.5702 O   0  0  0  0  0  0  0  0  0  0  0  0
   -0.1416   -1.3756   -1.1821 C   0  0  0  0  0  0  0  0  0  0  0  0
    0.7324   -3.3497   -1.0759 H   0  0  0  0  0  0  0  0  0  0  0  0
   -1.0382   -3.3234   -1.0570 H   0  0  0  0  0  0  0  0  0  0  0  0
   -0.3006   -3.8147    1.2354 H   0  0  0  0  0  0  0  0  0  0  0  0
    0.8220   -2.4413    1.2047 H   0  0  0  0  0  0  0  0  0  0  0  0
    0.0474   -0.1626    1.2099 H   0  0  0  0  0  0  0  0  0  0  0  0
   -1.9401   -0.1445    1.2228 H   0  0  0  0  0  0  0  0  0  0  0  0
    0.8220   -0.8982   -0.9468 H   0  0  0  0  0  0  0  0  0  0  0  0
   -0.3006   -1.3097   -2.2576 H   0  0  0  0  0  0  0  0  0  0  0  0
    1.1783    0.3726    1.5937 C   0  0  0  0  0  0  0  0  0  0  0  0
    1.6621    1.3766    0.5732 C   0  0  0  0  0  0  0  0  0  0  0  0
    0.5492    1.9694   -0.0473 O   0  0  0  0  0  0  0  0  0  0  0  0
    0.8992    2.9233   -1.0182 C   0  0  0  0  0  0  0  0  0  0  0  0
   -0.3626    3.4965   -1.6206 C   0  0  0  0  0  0  0  0  0  0  0  0
    0.5639    0.8622    2.3499 H   0  0  0  0  0  0  0  0  0  0  0  0
    2.0269   -0.1015    2.0893 H   0  0  0  0  0  0  0  0  0  0  0  0
    2.2940    0.8842   -0.1808 H   0  0  0  0  0  0  0  0  0  0  0  0
    2.2780    2.1495    1.0565 H   0  0  0  0  0  0  0  0  0  0  0  0
    1.5030    3.7207   -0.5601 H   0  0  0  0  0  0  0  0  0  0  0  0
    1.5190    2.4555   -1.7975 H   0  0  0  0  0  0  0  0  0  0  0  0
   -0.9707    3.9735   -0.8512 H   0  0  0  0  0  0  0  0  0  0  0  0
   -0.1151    4.2412   -2.3788 H   0  0  0  0  0  0  0  0  0  0  0  0
   -0.9548    2.7090   -2.0879 H   0  0  0  0  0  0  0  0  0  0  0  0
  1  2  1  0
  1  6  1  0
  1  7  1  0
  1  8  1  0
  2  3  1  0
  2  9  1  0
  2 10  1  0
  3  4  1  0
  4  5  1  0
  4 12  1  0
  5  6  1  0
  6 13  1  0
  6 14  1  0
 11 15  1  0
 15 16  1  0
 15 20  1  0
 15 21  1  0
 16 17  1  0
 16 22  1  0
 16 23  1  0
 17 18  1  0
 18 19  1  0
 18 24  1  0
 18 25  1  0
 19 26  1  0
 19 27  1  0
 19 28  1  0
M  RAD  1   4   2
M  END
>  <reaction>  (7) 
rmg_rxn_630

>  <mol_properties>  (7) 
{"2": {"label": "*0", "atom_type": "O2s"}, "3": {"label": "*1", "atom_type": "Cs"}, "10": {"label": "*2", "atom_type": "H0"}, "14": {"label": "*3", "atom_type": "Cs"}, "15": {"label": "*4", "atom_type": "Cs"}}

>  <type>  (7) 
unop_3

>  <geom_source>  (7) 
Heuristics

$$$$

     RDKit          3D

 28 27  0  0  0  0  0  0  0  0999 V2000
   -0.6092   -1.6227   -2.4480 C   0  0  0  0  0  0  0  0  0  0  0  0
   -0.6092   -1.6227   -0.9260 C   0  0  0  0  0  0  0  0  0  0  0  0
   -1.6575   -0.8101   -0.4339 O   0  0  0  0  0  0  0  0  0  0  0  0
   -1.5665    0.4894   -0.9332 C   0  0  0  0  0  3  0  0  0  0  0  0
   -1.6575    0.5456   -2.3242 O   0  0  0  0  0  0  0  0  0  0  0  0
   -0.6092   -0.1811   -2.9361 C   0  0  0  0  0  0  0  0  0  0  0  0
    0.2648   -2.1552   -2.8299 H   0  0  0  0  0  0  0  0  0  0  0  0
   -1.5057   -2.1289   -2.8110 H   0  0  0  0  0  0  0  0  0  0  0  0
   -0.7681   -2.6202   -0.5186 H   0  0  0  0  0  0  0  0  0  0  0  0
    0.3545   -1.2467   -0.5492 H   0  0  0  0  0  0  0  0  0  0  0  0
   -0.4201    1.0319   -0.5441 H   0  0  0  0  0  0  0  0  0  0  0  0
   -2.4076    1.0500   -0.5312 H   0  0  0  0  0  0  0  0  0  0  0  0
    0.3545    0.2963   -2.7008 H   0  0  0  0  0  0  0  0  0  0  0  0
   -0.7681   -0.1151   -4.0116 H   0  0  0  0  0  0  0  0  0  0  0  0
    0.7107    1.5671   -0.1603 C   0  0  0  0  0  0  0  0  0  0  0  0
    0.7896    1.6134    1.3481 C   0  0  0  0  0  0  0  0  0  0  0  0
    1.4153    0.4423    1.8087 O   0  0  0  0  0  0  0  0  0  0  0  0
    1.5357    0.3924    3.2080 C   0  0  0  0  0  0  0  0  0  0  0  0
    2.2176   -0.8990    3.5963 C   0  0  0  0  0  0  0  0  0  0  0  0
    1.7094    1.4993   -0.5932 H   0  0  0  0  0  0  0  0  0  0  0  0
    0.2275    2.4681   -0.5414 H   0  0  0  0  0  0  0  0  0  0  0  0
   -0.2174    1.6967    1.7832 H   0  0  0  0  0  0  0  0  0  0  0  0
    1.3579    2.4963    1.6763 H   0  0  0  0  0  0  0  0  0  0  0  0
    2.1158    1.2560    3.5657 H   0  0  0  0  0  0  0  0  0  0  0  0
    0.5405    0.4563    3.6726 H   0  0  0  0  0  0  0  0  0  0  0  0
    3.2101   -0.9568    3.1482 H   0  0  0  0  0  0  0  0  0  0  0  0
    2.3222   -0.9601    4.6807 H   0  0  0  0  0  0  0  0  0  0  0  0
    1.6358   -1.7560    3.2550 H   0  0  0  0  0  0  0  0  0  0  0  0
  1  2  1  0
  1  6  1  0
  1  7  1  0
  1  8  1  0
  2  3  1  0
  2  9  1  0
  2 10  1  0
  3  4  1  0
  4  5  1  0
  4 12  1  0
  5  6  1  0
  6 13  1  0
  6 14  1  0
 11 15  1  0
 15 16  1  0
 15 20  1  0
 15 21  1  0
 16 17  1  0
 16 22  1  0
 16 23  1  0
 17 18  1  0
 18 19  1  0
 18 24  1  0
 18 25  1  0
 19 26  1  0
 19 27  1  0
 19 28  1  0
M  RAD  1   4   2
M  END
>  <reaction>  (8) 
rmg_rxn_630

>  <mol_properties>  (8) 
{"2": {"label": "*0", "atom_type": "O2s"}, "3": {"label": "*1", "atom_type": "Cs"}, "10": {"label": "*2", "atom_type": "H0"}, "14": {"label": "*3", "atom_type": "Cs"}, "15": {"label": "*4", "atom_type": "Cs"}}

>  <type>  (8) 
unop_4

>  <geom_source>  (8) 
Heuristics

$$$$

     RDKit          3D

 28 27  0  0  0  0  0  0  0  0999 V2000
    0.0276   -3.0980   -1.3892 C   0  0  0  0  0  0  0  0  0  0  0  0
    0.0276   -3.0980    0.1329 C   0  0  0  0  0  0  0  0  0  0  0  0
   -1.0207   -2.2854    0.6250 O   0  0  0  0  0  0  0  0  0  0  0  0
   -0.9298   -0.9858    0.1257 C   0  0  0  0  0  3  0  0  0  0  0  0
   -1.0207   -0.9296   -1.2654 O   0  0  0  0  0  0  0  0  0  0  0  0
    0.0276   -1.6563   -1.8773 C   0  0  0  0  0  0  0  0  0  0  0  0
    0.9016   -3.6304   -1.7710 H   0  0  0  0  0  0  0  0  0  0  0  0
   -0.8690   -3.6042   -1.7522 H   0  0  0  0  0  0  0  0  0  0  0  0
   -0.1313   -4.0955    0.5402 H   0  0  0  0  0  0  0  0  0  0  0  0
    0.9912   -2.7220    0.5096 H   0  0  0  0  0  0  0  0  0  0  0  0
    0.2166   -0.4433    0.5147 H   0  0  0  0  0  0  0  0  0  0  0  0
   -1.7708   -0.4253    0.5276 H   0  0  0  0  0  0  0  0  0  0  0  0
    0.9912   -1.1789   -1.6420 H   0  0  0  0  0  0  0  0  0  0  0  0
   -0.1313   -1.5904   -2.9527 H   0  0  0  0  0  0  0  0  0  0  0  0
    1.3475    0.0918    0.8985 C   0  0  0  0  0  0  0  0  0  0  0  0
    1.4720    1.5022    0.3705 C   0  0  0  0  0  0  0  0  0  0  0  0
    0.4046    2.2709    0.8655 O   0  0  0  0  0  0  0  0  0  0  0  0
    0.4334    3.6058    0.4271 C   0  0  0  0  0  0  0  0  0  0  0  0
   -0.7501    4.3405    1.0128 C   0  0  0  0  0  0  0  0  0  0  0  0
    1.3773    0.0879    1.9886 H   0  0  0  0  0  0  0  0  0  0  0  0
    2.1673   -0.5248    0.5266 H   0  0  0  0  0  0  0  0  0  0  0  0
    1.4567    1.5035   -0.7295 H   0  0  0  0  0  0  0  0  0  0  0  0
    2.4295    1.9458    0.6813 H   0  0  0  0  0  0  0  0  0  0  0  0
    1.3745    4.0828    0.7387 H   0  0  0  0  0  0  0  0  0  0  0  0
    0.4017    3.6405   -0.6720 H   0  0  0  0  0  0  0  0  0  0  0  0
   -0.7118    4.3194    2.1025 H   0  0  0  0  0  0  0  0  0  0  0  0
   -0.7486    5.3814    0.6854 H   0  0  0  0  0  0  0  0  0  0  0  0
   -1.6840    3.8773    0.6925 H   0  0  0  0  0  0  0  0  0  0  0  0
  1  2  1  0
  1  6  1  0
  1  7  1  0
  1  8  1  0
  2  3  1  0
  2  9  1  0
  2 10  1  0
  3  4  1  0
  4  5  1  0
  4 12  1  0
  5  6  1  0
  6 13  1  0
  6 14  1  0
 11 15  1  0
 15 16  1  0
 15 20  1  0
 15 21  1  0
 16 17  1  0
 16 22  1  0
 16 23  1  0
 17 18  1  0
 18 19  1  0
 18 24  1  0
 18 25  1  0
 19 26  1  0
 19 27  1  0
 19 28  1  0
M  RAD  1   4   2
M  END
>  <reaction>  (9) 
rmg_rxn_630

>  <mol_properties>  (9) 
{"2": {"label": "*0", "atom_type": "O2s"}, "3": {"label": "*1", "atom_type": "Cs"}, "10": {"label": "*2", "atom_type": "H0"}, "14": {"label": "*3", "atom_type": "Cs"}, "15": {"label": "*4", "atom_type": "Cs"}}

>  <type>  (9) 
unop_5

>  <geom_source>  (9) 
Heuristics

$$$$

     RDKit          3D

 28 27  0  0  0  0  0  0  0  0999 V2000
   -0.4128   -2.1030   -2.5716 C   0  0  0  0  0  0  0  0  0  0  0  0
   -0.4128   -2.1030   -1.0495 C   0  0  0  0  0  0  0  0  0  0  0  0
   -1.4611   -1.2904   -0.5574 O   0  0  0  0  0  0  0  0  0  0  0  0
   -1.3701    0.0092   -1.0567 C   0  0  0  0  0  3  0  0  0  0  0  0
   -1.4611    0.0654   -2.4478 O   0  0  0  0  0  0  0  0  0  0  0  0
   -0.4128   -0.6613   -3.0597 C   0  0  0  0  0  0  0  0  0  0  0  0
    0.4612   -2.6354   -2.9534 H   0  0  0  0  0  0  0  0  0  0  0  0
   -1.3093   -2.6091   -2.9346 H   0  0  0  0  0  0  0  0  0  0  0  0
   -0.5717   -3.1005   -0.6422 H   0  0  0  0  0  0  0  0  0  0  0  0
    0.5509   -1.7270   -0.6728 H   0  0  0  0  0  0  0  0  0  0  0  0
   -0.2237    0.5517   -0.6677 H   0  0  0  0  0  0  0  0  0  0  0  0
   -2.2112    0.5697   -0.6548 H   0  0  0  0  0  0  0  0  0  0  0  0
    0.5509   -0.1839   -2.8244 H   0  0  0  0  0  0  0  0  0  0  0  0
   -0.5717   -0.5954   -4.1351 H   0  0  0  0  0  0  0  0  0  0  0  0
    0.9071    1.0868   -0.2839 C   0  0  0  0  0  0  0  0  0  0  0  0
    0.7351    1.7961    1.0393 C   0  0  0  0  0  0  0  0  0  0  0  0
    1.1968    0.9590    2.0695 O   0  0  0  0  0  0  0  0  0  0  0  0
    1.0775    1.5344    3.3461 C   0  0  0  0  0  0  0  0  0  0  0  0
    1.5987    0.5582    4.3752 C   0  0  0  0  0  0  0  0  0  0  0  0
    1.9576    0.8502   -0.4569 H   0  0  0  0  0  0  0  0  0  0  0  0
    0.5546    1.7190   -1.1003 H   0  0  0  0  0  0  0  0  0  0  0  0
   -0.3229    2.0475    1.2060 H   0  0  0  0  0  0  0  0  0  0  0  0
    1.2970    2.7419    1.0443 H   0  0  0  0  0  0  0  0  0  0  0  0
    1.6448    2.4760    3.3876 H   0  0  0  0  0  0  0  0  0  0  0  0
    0.0250    1.7816    3.5493 H   0  0  0  0  0  0  0  0  0  0  0  0
    2.6463    0.3238    4.1833 H   0  0  0  0  0  0  0  0  0  0  0  0
    1.5160    0.9843    5.3763 H   0  0  0  0  0  0  0  0  0  0  0  0
    1.0274   -0.3702    4.3449 H   0  0  0  0  0  0  0  0  0  0  0  0
  1  2  1  0
  1  6  1  0
  1  7  1  0
  1  8  1  0
  2  3  1  0
  2  9  1  0
  2 10  1  0
  3  4  1  0
  4  5  1  0
  4 12  1  0
  5  6  1  0
  6 13  1  0
  6 14  1  0
 11 15  1  0
 15 16  1  0
 15 20  1  0
 15 21  1  0
 16 17  1  0
 16 22  1  0
 16 23  1  0
 17 18  1  0
 18 19  1  0
 18 24  1  0
 18 25  1  0
 19 26  1  0
 19 27  1  0
 19 28  1  0
M  RAD  1   4   2
M  END
>  <reaction>  (10) 
rmg_rxn_630

>  <mol_properties>  (10) 
{"2": {"label": "*0", "atom_type": "O2s"}, "3": {"label": "*1", "atom_type": "Cs"}, "10": {"label": "*2", "atom_type": "H0"}, "14": {"label": "*3", "atom_type": "Cs"}, "15": {"label": "*4", "atom_type": "Cs"}}

>  <type>  (10) 
unop_6

>  <geom_source>  (10) 
Heuristics

$$$$

     RDKit          3D

 28 27  0  0  0  0  0  0  0  0999 V2000
   -0.2345   -2.5816   -2.4377 C   0  0  0  0  0  0  0  0  0  0  0  0
   -0.2345   -2.5816   -0.9157 C   0  0  0  0  0  0  0  0  0  0  0  0
   -1.2828   -1.7690   -0.4236 O   0  0  0  0  0  0  0  0  0  0  0  0
   -1.1919   -0.4694   -0.9229 C   0  0  0  0  0  3  0  0  0  0  0  0
   -1.2828   -0.4132   -2.3139 O   0  0  0  0  0  0  0  0  0  0  0  0
   -0.2345   -1.1399   -2.9258 C   0  0  0  0  0  0  0  0  0  0  0  0
    0.6395   -3.1140   -2.8196 H   0  0  0  0  0  0  0  0  0  0  0  0
   -1.1311   -3.0877   -2.8007 H   0  0  0  0  0  0  0  0  0  0  0  0
   -0.3935   -3.5791   -0.5083 H   0  0  0  0  0  0  0  0  0  0  0  0
    0.7291   -2.2056   -0.5389 H   0  0  0  0  0  0  0  0  0  0  0  0
   -0.0455    0.0731   -0.5338 H   0  0  0  0  0  0  0  0  0  0  0  0
   -2.0330    0.0911   -0.5209 H   0  0  0  0  0  0  0  0  0  0  0  0
    0.7291   -0.6625   -2.6905 H   0  0  0  0  0  0  0  0  0  0  0  0
   -0.3935   -1.0740   -4.0013 H   0  0  0  0  0  0  0  0  0  0  0  0
    1.0854    0.6082   -0.1500 C   0  0  0  0  0  0  0  0  0  0  0  0
    0.8312    1.8484    0.6751 C   0  0  0  0  0  0  0  0  0  0  0  0
    0.9457    1.5220    2.0372 O   0  0  0  0  0  0  0  0  0  0  0  0
    0.7250    2.6173    2.8897 C   0  0  0  0  0  0  0  0  0  0  0  0
    0.8709    2.1611    4.3229 C   0  0  0  0  0  0  0  0  0  0  0  0
    2.0857    0.2191    0.0432 H   0  0  0  0  0  0  0  0  0  0  0  0
    1.0016    0.8379   -1.2134 H   0  0  0  0  0  0  0  0  0  0  0  0
   -0.1726    2.2485    0.4683 H   0  0  0  0  0  0  0  0  0  0  0  0
    1.5533    2.6369    0.4162 H   0  0  0  0  0  0  0  0  0  0  0  0
    1.4455    3.4180    2.6659 H   0  0  0  0  0  0  0  0  0  0  0  0
   -0.2804    3.0296    2.7180 H   0  0  0  0  0  0  0  0  0  0  0  0
    1.8721    1.7657    4.4980 H   0  0  0  0  0  0  0  0  0  0  0  0
    0.7035    2.9966    5.0044 H   0  0  0  0  0  0  0  0  0  0  0  0
    0.1472    1.3776    4.5501 H   0  0  0  0  0  0  0  0  0  0  0  0
  1  2  1  0
  1  6  1  0
  1  7  1  0
  1  8  1  0
  2  3  1  0
  2  9  1  0
  2 10  1  0
  3  4  1  0
  4  5  1  0
  4 12  1  0
  5  6  1  0
  6 13  1  0
  6 14  1  0
 11 15  1  0
 15 16  1  0
 15 20  1  0
 15 21  1  0
 16 17  1  0
 16 22  1  0
 16 23  1  0
 17 18  1  0
 18 19  1  0
 18 24  1  0
 18 25  1  0
 19 26  1  0
 19 27  1  0
 19 28  1  0
M  RAD  1   4   2
M  END
>  <reaction>  (11) 
rmg_rxn_630

>  <mol_properties>  (11) 
{"2": {"label": "*0", "atom_type": "O2s"}, "3": {"label": "*1", "atom_type": "Cs"}, "10": {"label": "*2", "atom_type": "H0"}, "14": {"label": "*3", "atom_type": "Cs"}, "15": {"label": "*4", "atom_type": "Cs"}}

>  <type>  (11) 
unop_7

>  <geom_source>  (11) 
Heuristics

$$$$

     RDKit          3D

 28 27  0  0  0  0  0  0  0  0999 V2000
   -0.6625   -1.7887   -0.4540 C   0  0  0  0  0  0  0  0  0  0  0  0
   -0.6625   -1.7887    1.0680 C   0  0  0  0  0  0  0  0  0  0  0  0
   -1.7108   -0.9761    1.5601 O   0  0  0  0  0  0  0  0  0  0  0  0
   -1.6199    0.3234    1.0608 C   0  0  0  0  0  3  0  0  0  0  0  0
   -1.7108    0.3796   -0.3302 O   0  0  0  0  0  0  0  0  0  0  0  0
   -0.6625   -0.3471   -0.9421 C   0  0  0  0  0  0  0  0  0  0  0  0
    0.2115   -2.3212   -0.8359 H   0  0  0  0  0  0  0  0  0  0  0  0
   -1.5591   -2.2949   -0.8170 H   0  0  0  0  0  0  0  0  0  0  0  0
   -0.8214   -2.7863    1.4754 H   0  0  0  0  0  0  0  0  0  0  0  0
    0.3011   -1.4128    1.4447 H   0  0  0  0  0  0  0  0  0  0  0  0
   -0.4735    0.8659    1.4499 H   0  0  0  0  0  0  0  0  0  0  0  0
   -2.4609    0.8839    1.4628 H   0  0  0  0  0  0  0  0  0  0  0  0
    0.3011    0.1303   -0.7068 H   0  0  0  0  0  0  0  0  0  0  0  0
   -0.8214   -0.2812   -2.0176 H   0  0  0  0  0  0  0  0  0  0  0  0
    0.6574    1.4010    1.8336 C   0  0  0  0  0  0  0  0  0  0  0  0
    1.7445    1.1247    0.8210 C   0  0  0  0  0  0  0  0  0  0  0  0
    1.1498    0.8113   -0.4132 O   0  0  0  0  0  0  0  0  0  0  0  0
    2.0857    0.5370   -1.4251 C   0  0  0  0  0  0  0  0  0  0  0  0
    1.3465    0.2139   -2.7030 C   0  0  0  0  0  0  0  0  0  0  0  0
    0.0380    2.2383    1.5104 H   0  0  0  0  0  0  0  0  0  0  0  0
    1.0964    1.6473    2.8018 H   0  0  0  0  0  0  0  0  0  0  0  0
    2.3778    0.2895    1.1551 H   0  0  0  0  0  0  0  0  0  0  0  0
    2.3985    2.0024    0.7101 H   0  0  0  0  0  0  0  0  0  0  0  0
    2.7451    1.4053   -1.5716 H   0  0  0  0  0  0  0  0  0  0  0  0
    2.7244   -0.3075   -1.1266 H   0  0  0  0  0  0  0  0  0  0  0  0
    0.7243    1.0560   -3.0078 H   0  0  0  0  0  0  0  0  0  0  0  0
    2.0542   -0.0030   -3.5046 H   0  0  0  0  0  0  0  0  0  0  0  0
    0.7035   -0.6558   -2.5630 H   0  0  0  0  0  0  0  0  0  0  0  0
  1  2  1  0
  1  6  1  0
  1  7  1  0
  1  8  1  0
  2  3  1  0
  2  9  1  0
  2 10  1  0
  3  4  1  0
  4  5  1  0
  4 12  1  0
  5  6  1  0
  6 13  1  0
  6 14  1  0
 11 15  1  0
 15 16  1  0
 15 20  1  0
 15 21  1  0
 16 17  1  0
 16 22  1  0
 16 23  1  0
 17 18  1  0
 18 19  1  0
 18 24  1  0
 18 25  1  0
 19 26  1  0
 19 27  1  0
 19 28  1  0
M  RAD  1   4   2
M  END
>  <reaction>  (12) 
rmg_rxn_630

>  <mol_properties>  (12) 
{"2": {"label": "*0", "atom_type": "O2s"}, "3": {"label": "*1", "atom_type": "Cs"}, "10": {"label": "*2", "atom_type": "H0"}, "14": {"label": "*3", "atom_type": "Cs"}, "15": {"label": "*4", "atom_type": "Cs"}}

>  <type>  (12) 
unop_8

>  <geom_source>  (12) 
Heuristics

$$$$

     RDKit          3D

 28 27  0  0  0  0  0  0  0  0999 V2000
   -0.7701   -1.2568   -2.0933 C   0  0  0  0  0  0  0  0  0  0  0  0
   -0.7701   -1.2568   -0.5713 C   0  0  0  0  0  0  0  0  0  0  0  0
   -1.8184   -0.4442   -0.0792 O   0  0  0  0  0  0  0  0  0  0  0  0
   -1.7275    0.8554   -0.5785 C   0  0  0  0  0  3  0  0  0  0  0  0
   -1.8184    0.9115   -1.9695 O   0  0  0  0  0  0  0  0  0  0  0  0
   -0.7701    0.1848   -2.5814 C   0  0  0  0  0  0  0  0  0  0  0  0
    0.1039   -1.7893   -2.4752 H   0  0  0  0  0  0  0  0  0  0  0  0
   -1.6667   -1.7630   -2.4563 H   0  0  0  0  0  0  0  0  0  0  0  0
   -0.9291   -2.2543   -0.1639 H   0  0  0  0  0  0  0  0  0  0  0  0
    0.1935   -0.8808   -0.1945 H   0  0  0  0  0  0  0  0  0  0  0  0
   -0.5811    1.3978   -0.1894 H   0  0  0  0  0  0  0  0  0  0  0  0
   -2.5686    1.4159   -0.1765 H   0  0  0  0  0  0  0  0  0  0  0  0
    0.1935    0.6622   -2.3461 H   0  0  0  0  0  0  0  0  0  0  0  0
   -0.9291    0.2508   -3.6569 H   0  0  0  0  0  0  0  0  0  0  0  0
    0.5498    1.9330    0.1944 C   0  0  0  0  0  0  0  0  0  0  0  0
    0.9810    1.3619    1.5254 C   0  0  0  0  0  0  0  0  0  0  0  0
    1.5414    0.0901    1.3165 O   0  0  0  0  0  0  0  0  0  0  0  0
    1.9750   -0.5257    2.5030 C   0  0  0  0  0  0  0  0  0  0  0  0
    2.5575   -1.8795    2.1690 C   0  0  0  0  0  0  0  0  0  0  0  0
    1.4040    2.0228   -0.4776 H   0  0  0  0  0  0  0  0  0  0  0  0
    0.1107    2.9223    0.3319 H   0  0  0  0  0  0  0  0  0  0  0  0
    0.1213    1.2856    2.2075 H   0  0  0  0  0  0  0  0  0  0  0  0
    1.7179    2.0222    2.0063 H   0  0  0  0  0  0  0  0  0  0  0  0
    2.7277    0.1047    2.9994 H   0  0  0  0  0  0  0  0  0  0  0  0
    1.1310   -0.6319    3.2007 H   0  0  0  0  0  0  0  0  0  0  0  0
    3.4035   -1.7742    1.4890 H   0  0  0  0  0  0  0  0  0  0  0  0
    2.9016   -2.3774    3.0769 H   0  0  0  0  0  0  0  0  0  0  0  0
    1.8078   -2.5103    1.6901 H   0  0  0  0  0  0  0  0  0  0  0  0
  1  2  1  0
  1  6  1  0
  1  7  1  0
  1  8  1  0
  2  3  1  0
  2  9  1  0
  2 10  1  0
  3  4  1  0
  4  5  1  0
  4 12  1  0
  5  6  1  0
  6 13  1  0
  6 14  1  0
 11 15  1  0
 15 16  1  0
 15 20  1  0
 15 21  1  0
 16 17  1  0
 16 22  1  0
 16 23  1  0
 17 18  1  0
 18 19  1  0
 18 24  1  0
 18 25  1  0
 19 26  1  0
 19 27  1  0
 19 28  1  0
M  RAD  1   4   2
M  END
>  <reaction>  (13) 
rmg_rxn_630

>  <mol_properties>  (13) 
{"2": {"label": "*0", "atom_type": "O2s"}, "3": {"label": "*1", "atom_type": "Cs"}, "10": {"label": "*2", "atom_type": "H0"}, "14": {"label": "*3", "atom_type": "Cs"}, "15": {"label": "*4", "atom_type": "Cs"}}

>  <type>  (13) 
unop_9

>  <geom_source>  (13) 
Heuristics

$$$$

     RDKit          3D

 28 27  0  0  0  0  0  0  0  0999 V2000
   -0.7926   -1.3803   -0.7316 C   0  0  0  0  0  0  0  0  0  0  0  0
   -0.7926   -1.3803    0.7904 C   0  0  0  0  0  0  0  0  0  0  0  0
   -1.8409   -0.5677    1.2825 O   0  0  0  0  0  0  0  0  0  0  0  0
   -1.7500    0.7318    0.7832 C   0  0  0  0  0  3  0  0  0  0  0  0
   -1.8409    0.7880   -0.6079 O   0  0  0  0  0  0  0  0  0  0  0  0
   -0.7926    0.0613   -1.2197 C   0  0  0  0  0  0  0  0  0  0  0  0
    0.0814   -1.9128   -1.1135 H   0  0  0  0  0  0  0  0  0  0  0  0
   -1.6892   -1.8865   -1.0946 H   0  0  0  0  0  0  0  0  0  0  0  0
   -0.9516   -2.3779    1.1977 H   0  0  0  0  0  0  0  0  0  0  0  0
    0.1710   -1.0044    1.1671 H   0  0  0  0  0  0  0  0  0  0  0  0
   -0.6036    1.2743    1.1722 H   0  0  0  0  0  0  0  0  0  0  0  0
   -2.5910    1.2923    1.1852 H   0  0  0  0  0  0  0  0  0  0  0  0
    0.1710    0.5387   -0.9844 H   0  0  0  0  0  0  0  0  0  0  0  0
   -0.9516    0.1272   -2.2952 H   0  0  0  0  0  0  0  0  0  0  0  0
    0.5273    1.8094    1.5560 C   0  0  0  0  0  0  0  0  0  0  0  0
    1.6966    1.0022    1.0415 C   0  0  0  0  0  0  0  0  0  0  0  0
    1.3202    0.3633   -0.1524 O   0  0  0  0  0  0  0  0  0  0  0  0
    2.3474   -0.4163   -0.7110 C   0  0  0  0  0  0  0  0  0  0  0  0
    1.8419   -1.0556   -1.9835 C   0  0  0  0  0  0  0  0  0  0  0  0
    0.2307    2.5616    0.8242 H   0  0  0  0  0  0  0  0  0  0  0  0
    0.7967    2.3155    2.4844 H   0  0  0  0  0  0  0  0  0  0  0  0
    2.0044    0.2537    1.7866 H   0  0  0  0  0  0  0  0  0  0  0  0
    2.5639    1.6543    0.8607 H   0  0  0  0  0  0  0  0  0  0  0  0
    3.2251    0.2134   -0.9196 H   0  0  0  0  0  0  0  0  0  0  0  0
    2.6656   -1.1873    0.0064 H   0  0  0  0  0  0  0  0  0  0  0  0
    1.5400   -0.2918   -2.7010 H   0  0  0  0  0  0  0  0  0  0  0  0
    2.6241   -1.6671   -2.4359 H   0  0  0  0  0  0  0  0  0  0  0  0
    0.9808   -1.6916   -1.7756 H   0  0  0  0  0  0  0  0  0  0  0  0
  1  2  1  0
  1  6  1  0
  1  7  1  0
  1  8  1  0
  2  3  1  0
  2  9  1  0
  2 10  1  0
  3  4  1  0
  4  5  1  0
  4 12  1  0
  5  6  1  0
  6 13  1  0
  6 14  1  0
 11 15  1  0
 15 16  1  0
 15 20  1  0
 15 21  1  0
 16 17  1  0
 16 22  1  0
 16 23  1  0
 17 18  1  0
 18 19  1  0
 18 24  1  0
 18 25  1  0
 19 26  1  0
 19 27  1  0
 19 28  1  0
M  RAD  1   4   2
M  END
>  <reaction>  (14) 
rmg_rxn_630

>  <mol_properties>  (14) 
{"2": {"label": "*0", "atom_type": "O2s"}, "3": {"label": "*1", "atom_type": "Cs"}, "10": {"label": "*2", "atom_type": "H0"}, "14": {"label": "*3", "atom_type": "Cs"}, "15": {"label": "*4", "atom_type": "Cs"}}

>  <type>  (14) 
unop_10

>  <geom_source>  (14) 
Heuristics

$$$$

     RDKit          3D

 28 27  0  0  0  0  0  0  0  0999 V2000
   -0.0782   -2.9564   -2.0589 C   0  0  0  0  0  0  0  0  0  0  0  0
   -0.0782   -2.9564   -0.5368 C   0  0  0  0  0  0  0  0  0  0  0  0
   -1.1265   -2.1438   -0.0447 O   0  0  0  0  0  0  0  0  0  0  0  0
   -1.0356   -0.8442   -0.5440 C   0  0  0  0  0  3  0  0  0  0  0  0
   -1.1265   -0.7880   -1.9351 O   0  0  0  0  0  0  0  0  0  0  0  0
   -0.0782   -1.5148   -2.5470 C   0  0  0  0  0  0  0  0  0  0  0  0
    0.7958   -3.4889   -2.4407 H   0  0  0  0  0  0  0  0  0  0  0  0
   -0.9748   -3.4626   -2.4219 H   0  0  0  0  0  0  0  0  0  0  0  0
   -0.2372   -3.9539   -0.1295 H   0  0  0  0  0  0  0  0  0  0  0  0
    0.8854   -2.5804   -0.1601 H   0  0  0  0  0  0  0  0  0  0  0  0
    0.1108   -0.3018   -0.1550 H   0  0  0  0  0  0  0  0  0  0  0  0
   -1.8767   -0.2837   -0.1421 H   0  0  0  0  0  0  0  0  0  0  0  0
    0.8854   -1.0374   -2.3117 H   0  0  0  0  0  0  0  0  0  0  0  0
   -0.2372   -1.4488   -3.6224 H   0  0  0  0  0  0  0  0  0  0  0  0
    1.2417    0.2334    0.2288 C   0  0  0  0  0  0  0  0  0  0  0  0
    1.0960    1.7302    0.3763 C   0  0  0  0  0  0  0  0  0  0  0  0
    0.6619    2.0203    1.6811 O   0  0  0  0  0  0  0  0  0  0  0  0
    0.4962    3.3959    1.9167 C   0  0  0  0  0  0  0  0  0  0  0  0
    0.0302    3.5975    3.3400 C   0  0  0  0  0  0  0  0  0  0  0  0
    1.9697   -0.1519    0.9435 H   0  0  0  0  0  0  0  0  0  0  0  0
    1.5785   -0.0162   -0.7786 H   0  0  0  0  0  0  0  0  0  0  0  0
    0.3725    2.1199   -0.3551 H   0  0  0  0  0  0  0  0  0  0  0  0
    2.0557    2.2310    0.1802 H   0  0  0  0  0  0  0  0  0  0  0  0
    1.4464    3.9230    1.7450 H   0  0  0  0  0  0  0  0  0  0  0  0
   -0.2369    3.8119    1.2097 H   0  0  0  0  0  0  0  0  0  0  0  0
    0.7631    3.1986    4.0421 H   0  0  0  0  0  0  0  0  0  0  0  0
   -0.1056    4.6604    3.5463 H   0  0  0  0  0  0  0  0  0  0  0  0
   -0.9192    3.0876    3.5071 H   0  0  0  0  0  0  0  0  0  0  0  0
  1  2  1  0
  1  6  1  0
  1  7  1  0
  1  8  1  0
  2  3  1  0
  2  9  1  0
  2 10  1  0
  3  4  1  0
  4  5  1  0
  4 12  1  0
  5  6  1  0
  6 13  1  0
  6 14  1  0
 11 15  1  0
 15 16  1  0
 15 20  1  0
 15 21  1  0
 16 17  1  0
 16 22  1  0
 16 23  1  0
 17 18  1  0
 18 19  1  0
 18 24  1  0
 18 25  1  0
 19 26  1  0
 19 27  1  0
 19 28  1  0
M  RAD  1   4   2
M  END
>  <reaction>  (15) 
rmg_rxn_630

>  <mol_properties>  (15) 
{"2": {"label": "*0", "atom_type": "O2s"}, "3": {"label": "*1", "atom_type": "Cs"}, "10": {"label": "*2", "atom_type": "H0"}, "14": {"label": "*3", "atom_type": "Cs"}, "15": {"label": "*4", "atom_type": "Cs"}}

>  <type>  (15) 
unop_11

>  <geom_source>  (15) 
Heuristics

$$$$

     RDKit          3D

 28 27  0  0  0  0  0  0  0  0999 V2000
   -0.8459   -1.0904   -1.6147 C   0  0  0  0  0  0  0  0  0  0  0  0
   -0.8459   -1.0904   -0.0926 C   0  0  0  0  0  0  0  0  0  0  0  0
   -1.8942   -0.2778    0.3995 O   0  0  0  0  0  0  0  0  0  0  0  0
   -1.8032    1.0218   -0.0999 C   0  0  0  0  0  3  0  0  0  0  0  0
   -1.8942    1.0780   -1.4909 O   0  0  0  0  0  0  0  0  0  0  0  0
   -0.8459    0.3513   -2.1028 C   0  0  0  0  0  0  0  0  0  0  0  0
    0.0281   -1.6228   -1.9966 H   0  0  0  0  0  0  0  0  0  0  0  0
   -1.7424   -1.5965   -1.9777 H   0  0  0  0  0  0  0  0  0  0  0  0
   -1.0048   -2.0879    0.3147 H   0  0  0  0  0  0  0  0  0  0  0  0
    0.1178   -0.7144    0.2841 H   0  0  0  0  0  0  0  0  0  0  0  0
   -0.6568    1.5643    0.2892 H   0  0  0  0  0  0  0  0  0  0  0  0
   -2.6443    1.5823    0.3021 H   0  0  0  0  0  0  0  0  0  0  0  0
    0.1178    0.8287   -1.8675 H   0  0  0  0  0  0  0  0  0  0  0  0
   -1.0048    0.4172   -3.1783 H   0  0  0  0  0  0  0  0  0  0  0  0
    0.4740    2.0994    0.6730 C   0  0  0  0  0  0  0  0  0  0  0  0
    1.2647    1.1220    1.5115 C   0  0  0  0  0  0  0  0  0  0  0  0
    1.5320   -0.0252    0.7451 O   0  0  0  0  0  0  0  0  0  0  0  0
    2.2675   -0.9985    1.4428 C   0  0  0  0  0  0  0  0  0  0  0  0
    2.4995   -2.1835    0.5342 C   0  0  0  0  0  0  0  0  0  0  0  0
    1.0386    2.3845   -0.2155 H   0  0  0  0  0  0  0  0  0  0  0  0
    0.2544    2.9999    1.2486 H   0  0  0  0  0  0  0  0  0  0  0  0
    0.7005    0.8465    2.4149 H   0  0  0  0  0  0  0  0  0  0  0  0
    2.2083    1.5780    1.8460 H   0  0  0  0  0  0  0  0  0  0  0  0
    3.2270   -0.5761    1.7762 H   0  0  0  0  0  0  0  0  0  0  0  0
    1.7192   -1.3076    2.3451 H   0  0  0  0  0  0  0  0  0  0  0  0
    3.0558   -1.8810   -0.3537 H   0  0  0  0  0  0  0  0  0  0  0  0
    3.0699   -2.9537    1.0556 H   0  0  0  0  0  0  0  0  0  0  0  0
    1.5489   -2.6121    0.2149 H   0  0  0  0  0  0  0  0  0  0  0  0
  1  2  1  0
  1  6  1  0
  1  7  1  0
  1  8  1  0
  2  3  1  0
  2  9  1  0
  2 10  1  0
  3  4  1  0
  4  5  1  0
  4 12  1  0
  5  6  1  0
  6 13  1  0
  6 14  1  0
 11 15  1  0
 15 16  1  0
 15 20  1  0
 15 21  1  0
 16 17  1  0
 16 22  1  0
 16 23  1  0
 17 18  1  0
 18 19  1  0
 18 24  1  0
 18 25  1  0
 19 26  1  0
 19 27  1  0
 19 28  1  0
M  RAD  1   4   2
M  END
>  <reaction>  (16) 
rmg_rxn_630

>  <mol_properties>  (16) 
{"2": {"label": "*0", "atom_type": "O2s"}, "3": {"label": "*1", "atom_type": "Cs"}, "10": {"label": "*2", "atom_type": "H0"}, "14": {"label": "*3", "atom_type": "Cs"}, "15": {"label": "*4", "atom_type": "Cs"}}

>  <type>  (16) 
unop_12

>  <geom_source>  (16) 
Heuristics

$$$$

     RDKit          3D

 28 27  0  0  0  0  0  0  0  0999 V2000
   -3.0779   -0.6031    0.6494 O   0  0  0  0  0  0  0  0  0  0  0  0
    2.9421   -0.3767    1.1773 O   0  0  0  0  0  0  0  0  0  0  0  0
    1.8956    0.5779   -0.7616 O   0  0  0  0  0  0  0  0  0  0  0  0
    4.0944    1.3034   -0.1086 C   0  0  0  0  0  0  0  0  0  0  0  0
    3.5174    0.9092    1.2528 C   0  0  0  0  0  0  0  0  0  0  0  0
    3.2269    0.6913   -1.2106 C   0  0  0  0  0  0  0  0  0  0  0  0
   -1.7486   -1.0701    0.7839 C   0  0  0  0  0  0  0  0  0  0  0  0
   -3.6414   -1.0563   -0.5638 C   0  0  0  0  0  0  0  0  0  0  0  0
   -0.7636    0.0018    0.3340 C   0  0  0  0  0  0  0  0  0  0  0  0
   -5.0147   -0.4278   -0.7425 C   0  0  0  0  0  0  0  0  0  0  0  0
    1.8232   -0.3725    0.2949 C   0  0  0  0  0  3  0  0  0  0  0  0
    5.1367    0.9296   -0.2077 H   0  0  0  0  0  0  0  0  0  0  0  0
    4.1055    2.4116   -0.1972 H   0  0  0  0  0  0  0  0  0  0  0  0
   -1.5644   -1.2765    1.8591 H   0  0  0  0  0  0  0  0  0  0  0  0
   -1.5470   -2.0235    0.2400 H   0  0  0  0  0  0  0  0  0  0  0  0
   -3.0099   -0.7673   -1.4345 H   0  0  0  0  0  0  0  0  0  0  0  0
   -3.7628   -2.1630   -0.5442 H   0  0  0  0  0  0  0  0  0  0  0  0
    4.3308    0.8991    2.0088 H   0  0  0  0  0  0  0  0  0  0  0  0
    2.7607    1.6555    1.5888 H   0  0  0  0  0  0  0  0  0  0  0  0
    3.2526    1.3465   -2.1069 H   0  0  0  0  0  0  0  0  0  0  0  0
    3.6246   -0.3044   -1.5166 H   0  0  0  0  0  0  0  0  0  0  0  0
   -0.8840    0.2075   -0.7501 H   0  0  0  0  0  0  0  0  0  0  0  0
   -0.9345    0.9393    0.9045 H   0  0  0  0  0  0  0  0  0  0  0  0
    0.4201   -0.3972    0.5444 H   0  0  0  0  0  0  0  0  0  0  0  0
   -5.6765   -0.7132    0.1026 H   0  0  0  0  0  0  0  0  0  0  0  0
   -5.4695   -0.7820   -1.6917 H   0  0  0  0  0  0  0  0  0  0  0  0
   -4.9241    0.6787   -0.7773 H   0  0  0  0  0  0  0  0  0  0  0  0
    0.8880   -0.2179    0.8728 H   0  0  0  0  0  0  0  0  0  0  0  0
  1  7  1  0
  1  8  1  0
  2  5  1  0
  2 11  1  0
  3  6  1  0
  3 11  1  0
  4  5  1  0
  4  6  1  0
  4 12  1  0
  4 13  1  0
  5 18  1  0
  5 19  1  0
  6 20  1  0
  6 21  1  0
  7  9  1  0
  7 14  1  0
  7 15  1  0
  8 10  1  0
  8 16  1  0
  8 17  1  0
  9 22  1  0
  9 23  1  0
  9 24  1  0
 10 25  1  0
 10 26  1  0
 10 27  1  0
 11 28  1  0
M  RAD  1  11   2
M  END
>  <reaction>  (17) 
rmg_rxn_630

>  <mol_properties>  (17) 
{"2": {"label": "*0", "atom_type": "O2s"}, "3": {"label": "*1", "atom_type": "Cs"}, "10": {"label": "*2", "atom_type": "H0"}, "14": {"label": "*3", "atom_type": "Cs"}, "15": {"label": "*4", "atom_type": "Cs"}}

>  <type>  (17) 
unop_13

>  <geom_source>  (17) 
AutoTST

$$$$

     RDKit          3D

 28 27  0  0  0  0  0  0  0  0999 V2000
   -0.8464   -1.1388   -1.1386 C   0  0  0  0  0  0  0  0  0  0  0  0
   -0.8464   -1.1388    0.3834 C   0  0  0  0  0  0  0  0  0  0  0  0
   -1.8946   -0.3261    0.8755 O   0  0  0  0  0  0  0  0  0  0  0  0
   -1.8037    0.9734    0.3762 C   0  0  0  0  0  3  0  0  0  0  0  0
   -1.8946    1.0296   -1.0148 O   0  0  0  0  0  0  0  0  0  0  0  0
   -0.8464    0.3029   -1.6267 C   0  0  0  0  0  0  0  0  0  0  0  0
    0.0277   -1.6712   -1.5205 H   0  0  0  0  0  0  0  0  0  0  0  0
   -1.7429   -1.6449   -1.5016 H   0  0  0  0  0  0  0  0  0  0  0  0
   -1.0053   -2.1363    0.7908 H   0  0  0  0  0  0  0  0  0  0  0  0
    0.1173   -0.7628    0.7602 H   0  0  0  0  0  0  0  0  0  0  0  0
   -0.6573    1.5159    0.7653 H   0  0  0  0  0  0  0  0  0  0  0  0
   -2.6448    1.5339    0.7782 H   0  0  0  0  0  0  0  0  0  0  0  0
    0.1173    0.7803   -1.3914 H   0  0  0  0  0  0  0  0  0  0  0  0
   -1.0053    0.3688   -2.7022 H   0  0  0  0  0  0  0  0  0  0  0  0
    0.4736    2.0510    1.1491 C   0  0  0  0  0  0  0  0  0  0  0  0
    1.5343    0.9871    1.3121 C   0  0  0  0  0  0  0  0  0  0  0  0
    1.4389    0.0796    0.2433 O   0  0  0  0  0  0  0  0  0  0  0  0
    2.3901   -0.9530    0.3068 C   0  0  0  0  0  0  0  0  0  0  0  0
    2.2019   -1.8675   -0.8813 C   0  0  0  0  0  0  0  0  0  0  0  0
    0.6113    2.5870    0.2094 H   0  0  0  0  0  0  0  0  0  0  0  0
    0.5285    2.7685    1.9693 H   0  0  0  0  0  0  0  0  0  0  0  0
    1.4034    0.4570    2.2671 H   0  0  0  0  0  0  0  0  0  0  0  0
    2.5357    1.4423    1.3295 H   0  0  0  0  0  0  0  0  0  0  0  0
    3.4050   -0.5285    0.3083 H   0  0  0  0  0  0  0  0  0  0  0  0
    2.2727   -1.5138    1.2459 H   0  0  0  0  0  0  0  0  0  0  0  0
    2.3326   -1.3156   -1.8128 H   0  0  0  0  0  0  0  0  0  0  0  0
    2.9311   -2.6787   -0.8532 H   0  0  0  0  0  0  0  0  0  0  0  0
    1.2010   -2.3003   -0.8757 H   0  0  0  0  0  0  0  0  0  0  0  0
  1  2  1  0
  1  6  1  0
  1  7  1  0
  1  8  1  0
  2  3  1  0
  2  9  1  0
  2 10  1  0
  3  4  1  0
  4  5  1  0
  4 12  1  0
  5  6  1  0
  6 13  1  0
  6 14  1  0
 11 15  1  0
 15 16  1  0
 15 20  1  0
 15 21  1  0
 16 17  1  0
 16 22  1  0
 16 23  1  0
 17 18  1  0
 18 19  1  0
 18 24  1  0
 18 25  1  0
 19 26  1  0
 19 27  1  0
 19 28  1  0
M  RAD  1   4   2
M  END
>  <reaction>  (18) 
rmg_rxn_630

>  <mol_properties>  (18) 
{"2": {"label": "*0", "atom_type": "O2s"}, "3": {"label": "*1", "atom_type": "Cs"}, "10": {"label": "*2", "atom_type": "H0"}, "14": {"label": "*3", "atom_type": "Cs"}, "15": {"label": "*4", "atom_type": "Cs"}}

>  <type>  (18) 
unop_14

>  <geom_source>  (18) 
gaussian_log

$$$$
