
     RDKit          3D

  6  5  0  0  0  0  0  0  0  0999 V2000
   -1.0966    0.1399   -0.0008 C   0  0  0  0  0  0  0  0  0  0  0  0
    0.2172   -0.5441   -0.0038 N   0  0  0  0  0  0  0  0  0  0  0  0
    1.1593    0.2558   -0.0001 O   0  0  0  0  0  0  0  0  0  0  0  0
   -1.6805   -0.1384   -0.8813 H   0  0  0  0  0  0  0  0  0  0  0  0
   -0.9115    1.2159    0.0041 H   0  0  0  0  0  0  0  0  0  0  0  0
   -1.6230   -0.1547    0.9092 H   0  0  0  0  0  0  0  0  0  0  0  0
  1  2  1  0
  1  4  1  0
  1  5  1  0
  1  6  1  0
  2  3  2  0
M  END
>  <reaction>  (1) 
rmg_rxn_1129

>  <mol_properties>  (1) 
{"0": {"label": "donator", "atom_type": "Cs"}, "3": {"label": "d_hydrogen", "atom_type": "H0"}}

>  <type>  (1) 
r1h

$$$$

     RDKit          3D

  1  0  0  0  0  0  0  0  0  0999 V2000
    0.0000    0.0000    0.0000 O   0  0  0  0  0 15  0  0  0  0  0  0
M  END
>  <reaction>  (2) 
rmg_rxn_1129

>  <mol_properties>  (2) 
{"0": {"label": "acceptor", "atom_type": "O2s"}}

>  <type>  (2) 
r2

$$$$

     RDKit          3D

  2  1  0  0  0  0  0  0  0  0999 V2000
    0.0000    0.0000    0.1079 O   0  0  0  0  0  1  0  0  0  0  0  0
    0.0000    0.0000   -0.8631 H   0  0  0  0  0  0  0  0  0  0  0  0
  1  2  1  0
M  RAD  1   1   2
M  END
>  <reaction>  (3) 
rmg_rxn_1129

>  <mol_properties>  (3) 
{"0": {"label": "acceptor", "atom_type": "O2s"}, "1": {"label": "a_hydrogen", "atom_type": "H0"}}

>  <type>  (3) 
r2h

$$$$

     RDKit          3D

  7  5  0  0  0  0  0  0  0  0999 V2000
    2.3421   -0.3912    0.0481 O   0  0  0  0  0  1  0  0  0  0  0  0
    0.1363    0.7341    0.0668 C   0  0  0  0  0  0  0  0  0  0  0  0
   -0.9049   -0.1410   -0.5198 N   0  0  0  0  0  0  0  0  0  0  0  0
   -1.8173   -0.3799    0.2789 O   0  0  0  0  0  1  0  0  0  0  0  0
    1.3042    0.1383    0.0569 H   0  0  0  0  0  0  0  0  0  0  0  0
   -0.1611    0.9639    1.0919 H   0  0  0  0  0  0  0  0  0  0  0  0
    0.1749    1.6494   -0.5271 H   0  0  0  0  0  0  0  0  0  0  0  0
  1  5  1  0
  2  3  2  3
  2  6  1  0
  2  7  1  0
  3  4  1  0
M  RAD  2   1   2   4   2
M  END
>  <reaction>  (4) 
rmg_rxn_1129

>  <mol_properties>  (4) 
{"0": {"label": "*1", "atom_type": "O2s"}, "1": {"label": "*3", "atom_type": "Cd"}, "2": {"label": "*4", "atom_type": "N3d"}, "4": {"label": "*2", "atom_type": "H0"}}

>  <type>  (4) 
ts

$$$$

     RDKit          3D

  7  5  0  0  0  0  0  0  0  0999 V2000
    2.2555    0.4413   -0.0176 O   0  0  0  0  0  1  0  0  0  0  0  0
    0.1738   -0.8405    0.0685 C   0  0  0  0  0  0  0  0  0  0  0  0
   -0.9511   -0.2987   -0.1097 N   0  0  0  0  0  0  0  0  0  0  0  0
   -1.6935    0.6202    0.0408 O   0  0  0  0  0  1  0  0  0  0  0  0
    1.2425   -0.0744   -0.1706 H   0  0  0  0  0  0  0  0  0  0  0  0
    0.4351   -1.6635   -0.5901 H   0  0  0  0  0  0  0  0  0  0  0  0
    0.5482   -0.9457    1.1007 H   0  0  0  0  0  0  0  0  0  0  0  0
  1  5  1  0
  2  3  2  3
  2  6  1  0
  2  7  1  0
  3  4  1  0
M  RAD  2   1   2   4   2
M  END
>  <reaction>  (5) 
rmg_rxn_1129

>  <mol_properties>  (5) 
{"0": {"label": "*1", "atom_type": "O2s"}, "1": {"label": "*3", "atom_type": "Cd"}, "2": {"label": "*4", "atom_type": "N3d"}, "4": {"label": "*2", "atom_type": "H0"}}

>  <type>  (5) 
unop_1

>  <geom_source>  (5) 
Heuristics

$$$$

     RDKit          3D

  7  5  0  0  0  0  0  0  0  0999 V2000
   -1.4681    0.9298    1.6403 O   0  0  0  0  0  1  0  0  0  0  0  0
    0.5248    0.5610    0.2173 C   0  0  0  0  0  0  0  0  0  0  0  0
    0.5248   -0.8108   -0.3414 N   0  0  0  0  0  0  0  0  0  0  0  0
    0.5248   -0.8108   -1.5773 O   0  0  0  0  0  1  0  0  0  0  0  0
   -0.5303    0.7563    0.9707 H   0  0  0  0  0  0  0  0  0  0  0  0
    0.5248    1.2613   -0.6203 H   0  0  0  0  0  0  0  0  0  0  0  0
    1.4361    0.6803    0.8065 H   0  0  0  0  0  0  0  0  0  0  0  0
  1  5  1  0
  2  3  2  3
  2  6  1  0
  2  7  1  0
  3  4  1  0
M  RAD  2   1   2   4   2
M  END
>  <reaction>  (6) 
rmg_rxn_1129

>  <mol_properties>  (6) 
{"0": {"label": "*1", "atom_type": "O2s"}, "1": {"label": "*3", "atom_type": "Cd"}, "2": {"label": "*4", "atom_type": "N3d"}, "4": {"label": "*2", "atom_type": "H0"}}

>  <type>  (6) 
unop_2

>  <geom_source>  (6) 
Heuristics

$$$$

     RDKit          3D

  7  5  0  0  0  0  0  0  0  0999 V2000
   -0.8750    1.6308   -0.2896 O   0  0  0  0  0  1  0  0  0  0  0  0
    1.8993    0.6280   -0.0820 O   0  0  0  0  0  1  0  0  0  0  0  0
   -1.1576    0.5725    0.1831 N   0  0  0  0  0  0  0  0  0  0  0  0
   -0.2158   -0.5124    0.1404 C   0  0  0  0  0  0  0  0  0  0  0  0
   -0.0127   -0.7934   -0.9146 H   0  0  0  0  0  0  0  0  0  0  0  0
   -0.6365   -1.3874    0.6772 H   0  0  0  0  0  0  0  0  0  0  0  0
    0.9983   -0.1382    0.2855 H   0  0  0  0  0  0  0  0  0  0  0  0
  1  3  1  0
  2  7  1  0
  3  4  2  3
  4  5  1  0
  4  6  1  0
M  RAD  2   1   2   2   2
M  END
>  <reaction>  (7) 
rmg_rxn_1129

>  <mol_properties>  (7) 
{"0": {"label": "*1", "atom_type": "O2s"}, "1": {"label": "*3", "atom_type": "Cd"}, "2": {"label": "*4", "atom_type": "N3d"}, "4": {"label": "*2", "atom_type": "H0"}}

>  <type>  (7) 
unop_3

>  <geom_source>  (7) 
AutoTST

$$$$

     RDKit          3D

  7  5  0  0  0  0  0  0  0  0999 V2000
    2.2555    0.4413   -0.0176 O   0  0  0  0  0  1  0  0  0  0  0  0
    0.1738   -0.8406    0.0685 C   0  0  0  0  0  0  0  0  0  0  0  0
   -0.9511   -0.2987   -0.1097 N   0  0  0  0  0  0  0  0  0  0  0  0
   -1.6935    0.6202    0.0408 O   0  0  0  0  0  1  0  0  0  0  0  0
    1.2425   -0.0744   -0.1706 H   0  0  0  0  0  0  0  0  0  0  0  0
    0.4351   -1.6635   -0.5901 H   0  0  0  0  0  0  0  0  0  0  0  0
    0.5482   -0.9457    1.1007 H   0  0  0  0  0  0  0  0  0  0  0  0
  1  5  1  0
  2  3  2  3
  2  6  1  0
  2  7  1  0
  3  4  1  0
M  RAD  2   1   2   4   2
M  END
>  <reaction>  (8) 
rmg_rxn_1129

>  <mol_properties>  (8) 
{"0": {"label": "*1", "atom_type": "O2s"}, "1": {"label": "*3", "atom_type": "Cd"}, "2": {"label": "*4", "atom_type": "N3d"}, "4": {"label": "*2", "atom_type": "H0"}}

>  <type>  (8) 
unop_4

>  <geom_source>  (8) 
gaussian_log

$$$$
