
     RDKit          3D

  9  9  0  0  0  0  0  0  0  0999 V2000
   -0.7977   -0.3992    0.2003 C   0  0  0  0  0  0  0  0  0  0  0  0
    0.1328    0.6899   -0.3121 C   0  0  0  0  0  0  0  0  0  0  0  0
    1.2144   -0.3287   -0.3101 N   0  0  0  0  0  0  0  0  0  0  0  0
    0.2363   -1.3698   -0.0170 O   0  0  0  0  0  0  0  0  0  0  0  0
   -1.6929   -0.6131   -0.3857 H   0  0  0  0  0  0  0  0  0  0  0  0
   -1.0608   -0.3198    1.2610 H   0  0  0  0  0  0  0  0  0  0  0  0
    0.3008    1.5506    0.3346 H   0  0  0  0  0  0  0  0  0  0  0  0
   -0.0788    1.0287   -1.3257 H   0  0  0  0  0  0  0  0  0  0  0  0
    1.7460   -0.2385    0.5549 H   0  0  0  0  0  0  0  0  0  0  0  0
  1  2  1  0
  1  4  1  0
  1  5  1  0
  1  6  1  0
  2  3  1  0
  2  7  1  0
  2  8  1  0
  3  4  1  0
  3  9  1  0
M  END
>  <reaction>  (1) 
rmg_rxn_15708

>  <mol_properties>  (1) 
{"2": {"label": "donator", "atom_type": "N3s"}, "8": {"label": "d_hydrogen", "atom_type": "H0"}}

>  <type>  (1) 
r1h

$$$$

     RDKit          3D

  8  7  0  0  0  0  0  0  0  0999 V2000
    1.7077   -0.1964   -0.0607 C   0  0  0  0  0  3  0  0  0  0  0  0
    0.4209   -0.4565    0.2808 O   0  0  0  0  0  0  0  0  0  0  0  0
   -0.4607    0.4385   -0.2968 N   0  0  0  0  0  0  0  0  0  0  0  0
   -1.6584    0.1416   -0.0244 C   0  0  0  0  0  0  0  0  0  0  0  0
    2.4163   -0.7685    0.5170 H   0  0  0  0  0  0  0  0  0  0  0  0
    1.9214    0.7645   -0.5045 H   0  0  0  0  0  0  0  0  0  0  0  0
   -2.4185    0.7953   -0.4307 H   0  0  0  0  0  0  0  0  0  0  0  0
   -1.9286   -0.7185    0.5831 H   0  0  0  0  0  0  0  0  0  0  0  0
  1  2  1  0
  1  5  1  0
  1  6  1  0
  2  3  1  0
  3  4  2  3
  4  7  1  0
  4  8  1  0
M  RAD  1   1   2
M  END
>  <reaction>  (2) 
rmg_rxn_15708

>  <mol_properties>  (2) 
{"0": {"label": "acceptor", "atom_type": "Cs"}}

>  <type>  (2) 
r2

$$$$

     RDKit          3D

  9  8  0  0  0  0  0  0  0  0999 V2000
   -1.5470   -0.0755   -0.1976 C   0  0  0  0  0  0  0  0  0  0  0  0
   -0.2885    0.4507    0.1749 O   0  0  0  0  0  0  0  0  0  0  0  0
   -0.1502    1.7216   -0.3294 N   0  0  0  0  0  0  0  0  0  0  0  0
    0.9626    2.2353   -0.0219 C   0  0  0  0  0  0  0  0  0  0  0  0
   -1.6392   -0.1356   -1.2844 H   0  0  0  0  0  0  0  0  0  0  0  0
   -2.3597    0.5337    0.2044 H   0  0  0  0  0  0  0  0  0  0  0  0
   -1.5879   -1.0750    0.2318 H   0  0  0  0  0  0  0  0  0  0  0  0
    1.1497    3.2381   -0.3820 H   0  0  0  0  0  0  0  0  0  0  0  0
    1.7060    1.7101    0.5739 H   0  0  0  0  0  0  0  0  0  0  0  0
  1  2  1  0
  1  5  1  0
  1  6  1  0
  1  7  1  0
  2  3  1  0
  3  4  2  3
  4  8  1  0
  4  9  1  0
M  END
>  <reaction>  (3) 
rmg_rxn_15708

>  <mol_properties>  (3) 
{"0": {"label": "acceptor", "atom_type": "Cs"}, "8": {"label": "a_hydrogen", "atom_type": "H0"}}

>  <type>  (3) 
r2h

$$$$

     RDKit          3D

 17 16  0  0  0  0  0  0  0  0999 V2000
    0.6396    1.3904    0.8713 C   0  0  0  0  0  3  0  0  0  0  0  0
    1.5823    0.3781    0.8604 O   0  0  0  0  0  0  0  0  0  0  0  0
    1.7540   -0.1375   -0.4064 N   0  0  0  0  0  0  0  0  0  0  0  0
    2.6094   -1.0681   -0.4181 C   0  0  0  0  0  0  0  0  0  0  0  0
    0.7274    1.9386    1.8047 H   0  0  0  0  0  0  0  0  0  0  0  0
    0.6262    1.9869   -0.0387 H   0  0  0  0  0  0  0  0  0  0  0  0
    2.8097   -1.5265   -1.3773 H   0  0  0  0  0  0  0  0  0  0  0  0
    3.1296   -1.3989    0.4777 H   0  0  0  0  0  0  0  0  0  0  0  0
   -1.6511   -0.6703   -1.0203 C   0  0  0  0  0  0  0  0  0  0  0  0
   -1.4981   -1.0637    0.4397 C   0  0  0  0  0  0  0  0  0  0  0  0
   -1.7788    0.3536    0.7731 N   0  0  0  0  0  0  0  0  0  0  0  0
   -2.1146    0.6209   -0.5928 O   0  0  0  0  0  0  0  0  0  0  0  0
   -2.3985   -1.1973   -1.6152 H   0  0  0  0  0  0  0  0  0  0  0  0
   -0.7082   -0.5895   -1.5686 H   0  0  0  0  0  0  0  0  0  0  0  0
   -0.5213   -1.4227    0.7645 H   0  0  0  0  0  0  0  0  0  0  0  0
   -2.2803   -1.7180    0.8266 H   0  0  0  0  0  0  0  0  0  0  0  0
   -0.7206    0.8620    0.9080 H   0  0  0  0  0  0  0  0  0  0  0  0
  1  2  1  0
  1  5  1  0
  1  6  1  0
  2  3  1  0
  3  4  2  3
  4  7  1  0
  4  8  1  0
  9 10  1  0
  9 12  1  0
  9 13  1  0
  9 14  1  0
 10 11  1  0
 10 15  1  0
 10 16  1  0
 11 12  1  0
 11 17  1  0
M  RAD  1   1   2
M  END
>  <reaction>  (4) 
rmg_rxn_15708

>  <mol_properties>  (4) 
{"0": {"label": "*3", "atom_type": "Cs"}, "1": {"label": "*4", "atom_type": "O2s"}, "10": {"label": "*1", "atom_type": "N3s"}, "11": {"label": "*0", "atom_type": "O2s"}, "16": {"label": "*2", "atom_type": "H0"}}

>  <type>  (4) 
ts

$$$$

     RDKit          3D

 17 16  0  0  0  0  0  0  0  0999 V2000
    1.1747   -1.3284    0.5881 C   0  0  0  0  0  3  0  0  0  0  0  0
    1.7308   -0.6524   -0.5022 O   0  0  0  0  0  0  0  0  0  0  0  0
    1.9107    0.6848   -0.4822 N   0  0  0  0  0  0  0  0  0  0  0  0
    1.4836    1.4177    0.4519 C   0  0  0  0  0  0  0  0  0  0  0  0
    1.3389   -2.3852    0.4057 H   0  0  0  0  0  0  0  0  0  0  0  0
    1.5703   -1.0067    1.5513 H   0  0  0  0  0  0  0  0  0  0  0  0
    1.7004    2.4676    0.3543 H   0  0  0  0  0  0  0  0  0  0  0  0
    0.9145    1.0990    1.3218 H   0  0  0  0  0  0  0  0  0  0  0  0
   -1.8140    0.9094   -0.4698 C   0  0  0  0  0  0  0  0  0  0  0  0
   -1.5653   -0.5066   -0.9712 C   0  0  0  0  0  0  0  0  0  0  0  0
   -1.3424   -0.8831    0.4254 N   0  0  0  0  0  0  0  0  0  0  0  0
   -1.5863    0.4371    0.8609 O   0  0  0  0  0  0  0  0  0  0  0  0
   -2.8253    1.3019   -0.5886 H   0  0  0  0  0  0  0  0  0  0  0  0
   -1.0760    1.6629   -0.7610 H   0  0  0  0  0  0  0  0  0  0  0  0
   -0.6963   -0.6426   -1.6186 H   0  0  0  0  0  0  0  0  0  0  0  0
   -2.4249   -1.0279   -1.3947 H   0  0  0  0  0  0  0  0  0  0  0  0
   -0.1008   -1.1595    0.6050 H   0  0  0  0  0  0  0  0  0  0  0  0
  1  2  1  0
  1  5  1  0
  1  6  1  0
  2  3  1  0
  3  4  2  3
  4  7  1  0
  4  8  1  0
  9 10  1  0
  9 12  1  0
  9 13  1  0
  9 14  1  0
 10 11  1  0
 10 15  1  0
 10 16  1  0
 11 12  1  0
 11 17  1  0
M  RAD  1   1   2
M  END
>  <reaction>  (5) 
rmg_rxn_15708

>  <mol_properties>  (5) 
{"0": {"label": "*3", "atom_type": "Cs"}, "1": {"label": "*4", "atom_type": "O2s"}, "10": {"label": "*1", "atom_type": "N3s"}, "11": {"label": "*0", "atom_type": "O2s"}, "16": {"label": "*2", "atom_type": "H0"}}

>  <type>  (5) 
unop_1

>  <geom_source>  (5) 
crest_best.xyz

$$$$

     RDKit          3D

 17 16  0  0  0  0  0  0  0  0999 V2000
    0.9027    0.0410    0.9823 C   0  0  0  0  0  3  0  0  0  0  0  0
    1.2850    0.7066   -0.2052 O   0  0  0  0  0  0  0  0  0  0  0  0
    2.2064    1.6834    0.0874 N   0  0  0  0  0  0  0  0  0  0  0  0
    2.5795    2.3082   -0.9456 C   0  0  0  0  0  0  0  0  0  0  0  0
    1.7620   -0.4410    1.4540 H   0  0  0  0  0  0  0  0  0  0  0  0
    0.4408    0.7351    1.6880 H   0  0  0  0  0  0  0  0  0  0  0  0
    3.3066    3.0958   -0.7997 H   0  0  0  0  0  0  0  0  0  0  0  0
    2.1992    2.0787   -1.9387 H   0  0  0  0  0  0  0  0  0  0  0  0
   -1.7829   -1.9003   -0.7149 C   0  0  0  0  0  0  0  0  0  0  0  0
   -1.7829   -1.9003    0.8065 C   0  0  0  0  0  0  0  0  0  0  0  0
   -1.5703   -0.4314    0.7382 N   0  0  0  0  0  0  0  0  0  0  0  0
   -1.7829   -0.4656   -0.7042 O   0  0  0  0  0  0  0  0  0  0  0  0
   -2.6608   -2.3084   -1.2182 H   0  0  0  0  0  0  0  0  0  0  0  0
   -0.8733   -2.3008   -1.1762 H   0  0  0  0  0  0  0  0  0  0  0  0
   -0.9959   -2.4631    1.3076 H   0  0  0  0  0  0  0  0  0  0  0  0
   -2.7455   -2.1319    1.2609 H   0  0  0  0  0  0  0  0  0  0  0  0
   -0.3745   -0.2030    0.8562 H   0  0  0  0  0  0  0  0  0  0  0  0
  1  2  1  0
  1  5  1  0
  1  6  1  0
  2  3  1  0
  3  4  2  3
  4  7  1  0
  4  8  1  0
  9 10  1  0
  9 12  1  0
  9 13  1  0
  9 14  1  0
 10 11  1  0
 10 15  1  0
 10 16  1  0
 11 12  1  0
 11 17  1  0
M  RAD  1   1   2
M  END
>  <reaction>  (6) 
rmg_rxn_15708

>  <mol_properties>  (6) 
{"0": {"label": "*3", "atom_type": "Cs"}, "1": {"label": "*4", "atom_type": "O2s"}, "10": {"label": "*1", "atom_type": "N3s"}, "11": {"label": "*0", "atom_type": "O2s"}, "16": {"label": "*2", "atom_type": "H0"}}

>  <type>  (6) 
unop_2

>  <geom_source>  (6) 
Heuristics

$$$$

     RDKit          3D

 17 16  0  0  0  0  0  0  0  0999 V2000
    0.6728    1.0665    0.8192 C   0  0  0  0  0  3  0  0  0  0  0  0
    1.3336   -0.0599    0.2767 O   0  0  0  0  0  0  0  0  0  0  0  0
    2.6370    0.2639   -0.0152 N   0  0  0  0  0  0  0  0  0  0  0  0
    3.2705   -0.7140   -0.5041 C   0  0  0  0  0  0  0  0  0  0  0  0
    1.1516    1.3918    1.7455 H   0  0  0  0  0  0  0  0  0  0  0  0
    0.6597    1.8931    0.1052 H   0  0  0  0  0  0  0  0  0  0  0  0
    4.3067   -0.5404   -0.7617 H   0  0  0  0  0  0  0  0  0  0  0  0
    2.8127   -1.6878   -0.6644 H   0  0  0  0  0  0  0  0  0  0  0  0
   -2.0128   -0.8748   -0.8781 C   0  0  0  0  0  0  0  0  0  0  0  0
   -2.0128   -0.8748    0.6433 C   0  0  0  0  0  0  0  0  0  0  0  0
   -1.8002    0.5941    0.5750 N   0  0  0  0  0  0  0  0  0  0  0  0
   -2.0128    0.5599   -0.8673 O   0  0  0  0  0  0  0  0  0  0  0  0
   -2.8907   -1.2828   -1.3814 H   0  0  0  0  0  0  0  0  0  0  0  0
   -1.1032   -1.2753   -1.3394 H   0  0  0  0  0  0  0  0  0  0  0  0
   -1.2258   -1.4376    1.1444 H   0  0  0  0  0  0  0  0  0  0  0  0
   -2.9754   -1.1064    1.0977 H   0  0  0  0  0  0  0  0  0  0  0  0
   -0.6044    0.8225    0.6930 H   0  0  0  0  0  0  0  0  0  0  0  0
  1  2  1  0
  1  5  1  0
  1  6  1  0
  2  3  1  0
  3  4  2  3
  4  7  1  0
  4  8  1  0
  9 10  1  0
  9 12  1  0
  9 13  1  0
  9 14  1  0
 10 11  1  0
 10 15  1  0
 10 16  1  0
 11 12  1  0
 11 17  1  0
M  RAD  1   1   2
M  END
>  <reaction>  (7) 
rmg_rxn_15708

>  <mol_properties>  (7) 
{"0": {"label": "*3", "atom_type": "Cs"}, "1": {"label": "*4", "atom_type": "O2s"}, "10": {"label": "*1", "atom_type": "N3s"}, "11": {"label": "*0", "atom_type": "O2s"}, "16": {"label": "*2", "atom_type": "H0"}}

>  <type>  (7) 
unop_3

>  <geom_source>  (7) 
Heuristics

$$$$

     RDKit          3D

 17 16  0  0  0  0  0  0  0  0999 V2000
    0.9274   -0.1262    0.7093 C   0  0  0  0  0  3  0  0  0  0  0  0
    1.1657    1.0589   -0.0245 O   0  0  0  0  0  0  0  0  0  0  0  0
    2.2642    1.7073    0.4868 N   0  0  0  0  0  0  0  0  0  0  0  0
    2.5177    2.7758   -0.1383 C   0  0  0  0  0  0  0  0  0  0  0  0
    1.7791   -0.8065    0.6399 H   0  0  0  0  0  0  0  0  0  0  0  0
    0.7242    0.0983    1.7588 H   0  0  0  0  0  0  0  0  0  0  0  0
    3.3705    3.3469    0.2038 H   0  0  0  0  0  0  0  0  0  0  0  0
    1.9194    3.1187   -0.9797 H   0  0  0  0  0  0  0  0  0  0  0  0
   -1.7582   -2.0674   -0.9880 C   0  0  0  0  0  0  0  0  0  0  0  0
   -1.7582   -2.0674    0.5334 C   0  0  0  0  0  0  0  0  0  0  0  0
   -1.5456   -0.5985    0.4651 N   0  0  0  0  0  0  0  0  0  0  0  0
   -1.7582   -0.6328   -0.9773 O   0  0  0  0  0  0  0  0  0  0  0  0
   -2.6361   -2.4755   -1.4913 H   0  0  0  0  0  0  0  0  0  0  0  0
   -0.8486   -2.4679   -1.4493 H   0  0  0  0  0  0  0  0  0  0  0  0
   -0.9712   -2.6302    1.0345 H   0  0  0  0  0  0  0  0  0  0  0  0
   -2.7208   -2.2991    0.9878 H   0  0  0  0  0  0  0  0  0  0  0  0
   -0.3498   -0.3701    0.5831 H   0  0  0  0  0  0  0  0  0  0  0  0
  1  2  1  0
  1  5  1  0
  1  6  1  0
  2  3  1  0
  3  4  2  3
  4  7  1  0
  4  8  1  0
  9 10  1  0
  9 12  1  0
  9 13  1  0
  9 14  1  0
 10 11  1  0
 10 15  1  0
 10 16  1  0
 11 12  1  0
 11 17  1  0
M  RAD  1   1   2
M  END
>  <reaction>  (8) 
rmg_rxn_15708

>  <mol_properties>  (8) 
{"0": {"label": "*3", "atom_type": "Cs"}, "1": {"label": "*4", "atom_type": "O2s"}, "10": {"label": "*1", "atom_type": "N3s"}, "11": {"label": "*0", "atom_type": "O2s"}, "16": {"label": "*2", "atom_type": "H0"}}

>  <type>  (8) 
unop_4

>  <geom_source>  (8) 
Heuristics

$$$$

     RDKit          3D

 17 16  0  0  0  0  0  0  0  0999 V2000
    0.8870    0.6672   -0.2566 C   0  0  0  0  0  3  0  0  0  0  0  0
    1.2543    0.1447    1.0050 O   0  0  0  0  0  0  0  0  0  0  0  0
    2.2668    0.9024    1.5431 N   0  0  0  0  0  0  0  0  0  0  0  0
    2.6305    0.4730    2.6745 C   0  0  0  0  0  0  0  0  0  0  0  0
    0.5233    1.6930   -0.1638 H   0  0  0  0  0  0  0  0  0  0  0  0
    1.7297    0.6401   -0.9511 H   0  0  0  0  0  0  0  0  0  0  0  0
    3.4260    1.0165    3.1666 H   0  0  0  0  0  0  0  0  0  0  0  0
    2.1776   -0.3974    3.1444 H   0  0  0  0  0  0  0  0  0  0  0  0
   -1.7986   -1.2741   -1.9539 C   0  0  0  0  0  0  0  0  0  0  0  0
   -1.7986   -1.2741   -0.4325 C   0  0  0  0  0  0  0  0  0  0  0  0
   -1.5860    0.1948   -0.5008 N   0  0  0  0  0  0  0  0  0  0  0  0
   -1.7986    0.1606   -1.9431 O   0  0  0  0  0  0  0  0  0  0  0  0
   -2.6765   -1.6821   -2.4571 H   0  0  0  0  0  0  0  0  0  0  0  0
   -0.8890   -1.6746   -2.4151 H   0  0  0  0  0  0  0  0  0  0  0  0
   -1.0116   -1.8369    0.0686 H   0  0  0  0  0  0  0  0  0  0  0  0
   -2.7612   -1.5057    0.0220 H   0  0  0  0  0  0  0  0  0  0  0  0
   -0.3902    0.4232   -0.3827 H   0  0  0  0  0  0  0  0  0  0  0  0
  1  2  1  0
  1  5  1  0
  1  6  1  0
  2  3  1  0
  3  4  2  3
  4  7  1  0
  4  8  1  0
  9 10  1  0
  9 12  1  0
  9 13  1  0
  9 14  1  0
 10 11  1  0
 10 15  1  0
 10 16  1  0
 11 12  1  0
 11 17  1  0
M  RAD  1   1   2
M  END
>  <reaction>  (9) 
rmg_rxn_15708

>  <mol_properties>  (9) 
{"0": {"label": "*3", "atom_type": "Cs"}, "1": {"label": "*4", "atom_type": "O2s"}, "10": {"label": "*1", "atom_type": "N3s"}, "11": {"label": "*0", "atom_type": "O2s"}, "16": {"label": "*2", "atom_type": "H0"}}

>  <type>  (9) 
unop_5

>  <geom_source>  (9) 
Heuristics

$$$$

     RDKit          3D

 17 16  0  0  0  0  0  0  0  0999 V2000
    0.9225   -0.1572    0.4890 C   0  0  0  0  0  3  0  0  0  0  0  0
    1.0534    1.2489    0.4156 O   0  0  0  0  0  0  0  0  0  0  0  0
    2.3767    1.5980    0.5402 N   0  0  0  0  0  0  0  0  0  0  0  0
    2.5448    2.8490    0.4806 C   0  0  0  0  0  0  0  0  0  0  0  0
    1.4738   -0.6436   -0.3188 H   0  0  0  0  0  0  0  0  0  0  0  0
    1.2779   -0.5329    1.4512 H   0  0  0  0  0  0  0  0  0  0  0  0
    3.5618    3.2064    0.5708 H   0  0  0  0  0  0  0  0  0  0  0  0
    1.7199    3.5454    0.3457 H   0  0  0  0  0  0  0  0  0  0  0  0
   -1.7631   -2.0984   -1.2082 C   0  0  0  0  0  0  0  0  0  0  0  0
   -1.7631   -2.0984    0.3132 C   0  0  0  0  0  0  0  0  0  0  0  0
   -1.5504   -0.6295    0.2449 N   0  0  0  0  0  0  0  0  0  0  0  0
   -1.7631   -0.6638   -1.1975 O   0  0  0  0  0  0  0  0  0  0  0  0
   -2.6410   -2.5065   -1.7115 H   0  0  0  0  0  0  0  0  0  0  0  0
   -0.8534   -2.4990   -1.6695 H   0  0  0  0  0  0  0  0  0  0  0  0
   -0.9761   -2.6613    0.8143 H   0  0  0  0  0  0  0  0  0  0  0  0
   -2.7257   -2.3301    0.7676 H   0  0  0  0  0  0  0  0  0  0  0  0
   -0.3546   -0.4011    0.3629 H   0  0  0  0  0  0  0  0  0  0  0  0
  1  2  1  0
  1  5  1  0
  1  6  1  0
  2  3  1  0
  3  4  2  3
  4  7  1  0
  4  8  1  0
  9 10  1  0
  9 12  1  0
  9 13  1  0
  9 14  1  0
 10 11  1  0
 10 15  1  0
 10 16  1  0
 11 12  1  0
 11 17  1  0
M  RAD  1   1   2
M  END
>  <reaction>  (10) 
rmg_rxn_15708

>  <mol_properties>  (10) 
{"0": {"label": "*3", "atom_type": "Cs"}, "1": {"label": "*4", "atom_type": "O2s"}, "10": {"label": "*1", "atom_type": "N3s"}, "11": {"label": "*0", "atom_type": "O2s"}, "16": {"label": "*2", "atom_type": "H0"}}

>  <type>  (10) 
unop_6

>  <geom_source>  (10) 
Heuristics

$$$$

     RDKit          3D

 17 16  0  0  0  0  0  0  0  0999 V2000
    0.7282   -1.6681    0.2257 C   0  0  0  0  0  3  0  0  0  0  0  0
    1.5629   -0.7214   -0.3730 O   0  0  0  0  0  0  0  0  0  0  0  0
    1.8024    0.3601    0.4485 N   0  0  0  0  0  0  0  0  0  0  0  0
    2.5284    1.2725   -0.0324 C   0  0  0  0  0  0  0  0  0  0  0  0
    0.8978   -2.6170   -0.2719 H   0  0  0  0  0  0  0  0  0  0  0  0
    0.8533   -1.7116    1.3049 H   0  0  0  0  0  0  0  0  0  0  0  0
    2.7213    2.1173    0.6046 H   0  0  0  0  0  0  0  0  0  0  0  0
    2.9646    1.2504   -1.0272 H   0  0  0  0  0  0  0  0  0  0  0  0
   -1.6511    1.2366    0.1483 C   0  0  0  0  0  0  0  0  0  0  0  0
   -1.4037    0.3802   -1.0861 C   0  0  0  0  0  0  0  0  0  0  0  0
   -1.6293   -0.7862   -0.2302 N   0  0  0  0  0  0  0  0  0  0  0  0
   -1.9344    0.0371    0.8732 O   0  0  0  0  0  0  0  0  0  0  0  0
   -2.5091    1.9104    0.1242 H   0  0  0  0  0  0  0  0  0  0  0  0
   -0.7734    1.7481    0.5544 H   0  0  0  0  0  0  0  0  0  0  0  0
   -0.4089    0.4305   -1.5322 H   0  0  0  0  0  0  0  0  0  0  0  0
   -2.1599    0.4485   -1.8701 H   0  0  0  0  0  0  0  0  0  0  0  0
   -0.4993   -1.3439    0.0102 H   0  0  0  0  0  0  0  0  0  0  0  0
  1  2  1  0
  1  5  1  0
  1  6  1  0
  2  3  1  0
  3  4  2  3
  4  7  1  0
  4  8  1  0
  9 10  1  0
  9 12  1  0
  9 13  1  0
  9 14  1  0
 10 11  1  0
 10 15  1  0
 10 16  1  0
 11 12  1  0
 11 17  1  0
M  RAD  1   1   2
M  END
>  <reaction>  (11) 
rmg_rxn_15708

>  <mol_properties>  (11) 
{"0": {"label": "*3", "atom_type": "Cs"}, "1": {"label": "*4", "atom_type": "O2s"}, "10": {"label": "*1", "atom_type": "N3s"}, "11": {"label": "*0", "atom_type": "O2s"}, "16": {"label": "*2", "atom_type": "H0"}}

>  <type>  (11) 
unop_7

>  <geom_source>  (11) 
Heuristics

$$$$

     RDKit          3D

 17 16  0  0  0  0  0  0  0  0999 V2000
    0.9804    0.2787   -0.2347 C   0  0  0  0  0  3  0  0  0  0  0  0
    1.2057    0.4347    1.1525 O   0  0  0  0  0  0  0  0  0  0  0  0
    2.1183    1.4405    1.3632 N   0  0  0  0  0  0  0  0  0  0  0  0
    2.3530    1.6179    2.5921 C   0  0  0  0  0  0  0  0  0  0  0  0
    0.5745    1.1946   -0.6701 H   0  0  0  0  0  0  0  0  0  0  0  0
    1.9030    0.0063   -0.7522 H   0  0  0  0  0  0  0  0  0  0  0  0
    3.0632    2.3946    2.8428 H   0  0  0  0  0  0  0  0  0  0  0  0
    1.8743    1.0288    3.3714 H   0  0  0  0  0  0  0  0  0  0  0  0
   -1.7053   -1.6626   -1.9320 C   0  0  0  0  0  0  0  0  0  0  0  0
   -1.7053   -1.6626   -0.4106 C   0  0  0  0  0  0  0  0  0  0  0  0
   -1.4926   -0.1937   -0.4789 N   0  0  0  0  0  0  0  0  0  0  0  0
   -1.7053   -0.2279   -1.9212 O   0  0  0  0  0  0  0  0  0  0  0  0
   -2.5831   -2.0706   -2.4353 H   0  0  0  0  0  0  0  0  0  0  0  0
   -0.7956   -2.0631   -2.3933 H   0  0  0  0  0  0  0  0  0  0  0  0
   -0.9183   -2.2254    0.0905 H   0  0  0  0  0  0  0  0  0  0  0  0
   -2.6679   -1.8942    0.0439 H   0  0  0  0  0  0  0  0  0  0  0  0
   -0.2968    0.0347   -0.3608 H   0  0  0  0  0  0  0  0  0  0  0  0
  1  2  1  0
  1  5  1  0
  1  6  1  0
  2  3  1  0
  3  4  2  3
  4  7  1  0
  4  8  1  0
  9 10  1  0
  9 12  1  0
  9 13  1  0
  9 14  1  0
 10 11  1  0
 10 15  1  0
 10 16  1  0
 11 12  1  0
 11 17  1  0
M  RAD  1   1   2
M  END
>  <reaction>  (12) 
rmg_rxn_15708

>  <mol_properties>  (12) 
{"0": {"label": "*3", "atom_type": "Cs"}, "1": {"label": "*4", "atom_type": "O2s"}, "10": {"label": "*1", "atom_type": "N3s"}, "11": {"label": "*0", "atom_type": "O2s"}, "16": {"label": "*2", "atom_type": "H0"}}

>  <type>  (12) 
unop_8

>  <geom_source>  (12) 
Heuristics

$$$$

     RDKit          3D

 17 16  0  0  0  0  0  0  0  0999 V2000
    1.1754   -1.3283   -0.5881 C   0  0  0  0  0  3  0  0  0  0  0  0
    1.7310   -0.6517    0.5022 O   0  0  0  0  0  0  0  0  0  0  0  0
    1.9099    0.6857    0.4819 N   0  0  0  0  0  0  0  0  0  0  0  0
    1.4821    1.4180   -0.4524 C   0  0  0  0  0  0  0  0  0  0  0  0
    1.5711   -1.0067   -1.5514 H   0  0  0  0  0  0  0  0  0  0  0  0
    1.3399   -2.3849   -0.4052 H   0  0  0  0  0  0  0  0  0  0  0  0
    1.6980    2.4681   -0.3549 H   0  0  0  0  0  0  0  0  0  0  0  0
    0.9135    1.0987   -1.3223 H   0  0  0  0  0  0  0  0  0  0  0  0
   -1.8147    0.9091    0.4692 C   0  0  0  0  0  0  0  0  0  0  0  0
   -1.5631   -0.5060    0.9720 C   0  0  0  0  0  0  0  0  0  0  0  0
   -1.3417   -0.8839   -0.4245 N   0  0  0  0  0  0  0  0  0  0  0  0
   -1.5871    0.4357   -0.8611 O   0  0  0  0  0  0  0  0  0  0  0  0
   -1.0779    1.6643    0.7590 H   0  0  0  0  0  0  0  0  0  0  0  0
   -2.8265    1.2997    0.5883 H   0  0  0  0  0  0  0  0  0  0  0  0
   -2.4211   -1.0281    1.3978 H   0  0  0  0  0  0  0  0  0  0  0  0
   -0.6927   -0.6397    1.6180 H   0  0  0  0  0  0  0  0  0  0  0  0
   -0.1002   -1.1601   -0.6050 H   0  0  0  0  0  0  0  0  0  0  0  0
  1  2  1  0
  1  5  1  0
  1  6  1  0
  2  3  1  0
  3  4  2  3
  4  7  1  0
  4  8  1  0
  9 10  1  0
  9 12  1  0
  9 13  1  0
  9 14  1  0
 10 11  1  0
 10 15  1  0
 10 16  1  0
 11 12  1  0
 11 17  1  0
M  RAD  1   1   2
M  END
>  <reaction>  (13) 
rmg_rxn_15708

>  <mol_properties>  (13) 
{"0": {"label": "*3", "atom_type": "Cs"}, "1": {"label": "*4", "atom_type": "O2s"}, "10": {"label": "*1", "atom_type": "N3s"}, "11": {"label": "*0", "atom_type": "O2s"}, "16": {"label": "*2", "atom_type": "H0"}}

>  <type>  (13) 
unop_9

>  <geom_source>  (13) 
Heuristics

$$$$

     RDKit          3D

 17 16  0  0  0  0  0  0  0  0999 V2000
    1.0134   -0.0216   -0.0173 C   0  0  0  0  0  3  0  0  0  0  0  0
    1.1368    0.7904    1.1338 O   0  0  0  0  0  0  0  0  0  0  0  0
    2.1130    1.7362    0.9310 N   0  0  0  0  0  0  0  0  0  0  0  0
    2.2606    2.4884    1.9356 C   0  0  0  0  0  0  0  0  0  0  0  0
    0.7258    0.5741   -0.8866 H   0  0  0  0  0  0  0  0  0  0  0  0
    1.9482   -0.5462   -0.2274 H   0  0  0  0  0  0  0  0  0  0  0  0
    3.0126    3.2619    1.8557 H   0  0  0  0  0  0  0  0  0  0  0  0
    1.6700    2.3777    2.8425 H   0  0  0  0  0  0  0  0  0  0  0  0
   -1.6722   -1.9628   -1.7145 C   0  0  0  0  0  0  0  0  0  0  0  0
   -1.6722   -1.9628   -0.1931 C   0  0  0  0  0  0  0  0  0  0  0  0
   -1.4596   -0.4939   -0.2615 N   0  0  0  0  0  0  0  0  0  0  0  0
   -1.6722   -0.5282   -1.7038 O   0  0  0  0  0  0  0  0  0  0  0  0
   -2.5501   -2.3709   -2.2178 H   0  0  0  0  0  0  0  0  0  0  0  0
   -0.7626   -2.3633   -2.1758 H   0  0  0  0  0  0  0  0  0  0  0  0
   -0.8853   -2.5257    0.3079 H   0  0  0  0  0  0  0  0  0  0  0  0
   -2.6349   -2.1945    0.2613 H   0  0  0  0  0  0  0  0  0  0  0  0
   -0.2638   -0.2655   -0.1434 H   0  0  0  0  0  0  0  0  0  0  0  0
  1  2  1  0
  1  5  1  0
  1  6  1  0
  2  3  1  0
  3  4  2  3
  4  7  1  0
  4  8  1  0
  9 10  1  0
  9 12  1  0
  9 13  1  0
  9 14  1  0
 10 11  1  0
 10 15  1  0
 10 16  1  0
 11 12  1  0
 11 17  1  0
M  RAD  1   1   2
M  END
>  <reaction>  (14) 
rmg_rxn_15708

>  <mol_properties>  (14) 
{"0": {"label": "*3", "atom_type": "Cs"}, "1": {"label": "*4", "atom_type": "O2s"}, "10": {"label": "*1", "atom_type": "N3s"}, "11": {"label": "*0", "atom_type": "O2s"}, "16": {"label": "*2", "atom_type": "H0"}}

>  <type>  (14) 
unop_10

>  <geom_source>  (14) 
Heuristics

$$$$

     RDKit          3D

 17 16  0  0  0  0  0  0  0  0999 V2000
    0.8272    0.3652    1.1487 C   0  0  0  0  0  3  0  0  0  0  0  0
    1.3515    0.3523   -0.1645 O   0  0  0  0  0  0  0  0  0  0  0  0
    2.3017    1.3368   -0.2935 N   0  0  0  0  0  0  0  0  0  0  0  0
    2.8009    1.3649   -1.4540 C   0  0  0  0  0  0  0  0  0  0  0  0
    1.6111    0.1712    1.8843 H   0  0  0  0  0  0  0  0  0  0  0  0
    0.3487    1.3221    1.3690 H   0  0  0  0  0  0  0  0  0  0  0  0
    3.5591    2.1143   -1.6376 H   0  0  0  0  0  0  0  0  0  0  0  0
    2.4954    0.6779   -2.2402 H   0  0  0  0  0  0  0  0  0  0  0  0
   -1.8584   -1.5761   -0.5485 C   0  0  0  0  0  0  0  0  0  0  0  0
   -1.8584   -1.5761    0.9729 C   0  0  0  0  0  0  0  0  0  0  0  0
   -1.6458   -0.1071    0.9045 N   0  0  0  0  0  0  0  0  0  0  0  0
   -1.8584   -0.1414   -0.5378 O   0  0  0  0  0  0  0  0  0  0  0  0
   -2.7363   -1.9841   -1.0518 H   0  0  0  0  0  0  0  0  0  0  0  0
   -0.9488   -1.9766   -1.0098 H   0  0  0  0  0  0  0  0  0  0  0  0
   -1.0714   -2.1389    1.4739 H   0  0  0  0  0  0  0  0  0  0  0  0
   -2.8210   -1.8077    1.4273 H   0  0  0  0  0  0  0  0  0  0  0  0
   -0.4500    0.1213    1.0226 H   0  0  0  0  0  0  0  0  0  0  0  0
  1  2  1  0
  1  5  1  0
  1  6  1  0
  2  3  1  0
  3  4  2  3
  4  7  1  0
  4  8  1  0
  9 10  1  0
  9 12  1  0
  9 13  1  0
  9 14  1  0
 10 11  1  0
 10 15  1  0
 10 16  1  0
 11 12  1  0
 11 17  1  0
M  RAD  1   1   2
M  END
>  <reaction>  (15) 
rmg_rxn_15708

>  <mol_properties>  (15) 
{"0": {"label": "*3", "atom_type": "Cs"}, "1": {"label": "*4", "atom_type": "O2s"}, "10": {"label": "*1", "atom_type": "N3s"}, "11": {"label": "*0", "atom_type": "O2s"}, "16": {"label": "*2", "atom_type": "H0"}}

>  <type>  (15) 
unop_11

>  <geom_source>  (15) 
Heuristics

$$$$

     RDKit          3D

 17 16  0  0  0  0  0  0  0  0999 V2000
    1.1747   -1.3284    0.5881 C   0  0  0  0  0  3  0  0  0  0  0  0
    1.7308   -0.6524   -0.5022 O   0  0  0  0  0  0  0  0  0  0  0  0
    1.9107    0.6848   -0.4822 N   0  0  0  0  0  0  0  0  0  0  0  0
    1.4836    1.4177    0.4519 C   0  0  0  0  0  0  0  0  0  0  0  0
    1.3389   -2.3852    0.4057 H   0  0  0  0  0  0  0  0  0  0  0  0
    1.5703   -1.0067    1.5513 H   0  0  0  0  0  0  0  0  0  0  0  0
    1.7004    2.4676    0.3543 H   0  0  0  0  0  0  0  0  0  0  0  0
    0.9145    1.0990    1.3218 H   0  0  0  0  0  0  0  0  0  0  0  0
   -1.8140    0.9094   -0.4698 C   0  0  0  0  0  0  0  0  0  0  0  0
   -1.5653   -0.5066   -0.9712 C   0  0  0  0  0  0  0  0  0  0  0  0
   -1.3424   -0.8831    0.4254 N   0  0  0  0  0  0  0  0  0  0  0  0
   -1.5863    0.4371    0.8609 O   0  0  0  0  0  0  0  0  0  0  0  0
   -2.8253    1.3019   -0.5886 H   0  0  0  0  0  0  0  0  0  0  0  0
   -1.0760    1.6629   -0.7610 H   0  0  0  0  0  0  0  0  0  0  0  0
   -0.6963   -0.6426   -1.6186 H   0  0  0  0  0  0  0  0  0  0  0  0
   -2.4249   -1.0279   -1.3947 H   0  0  0  0  0  0  0  0  0  0  0  0
   -0.1008   -1.1595    0.6050 H   0  0  0  0  0  0  0  0  0  0  0  0
  1  2  1  0
  1  5  1  0
  1  6  1  0
  2  3  1  0
  3  4  2  3
  4  7  1  0
  4  8  1  0
  9 10  1  0
  9 12  1  0
  9 13  1  0
  9 14  1  0
 10 11  1  0
 10 15  1  0
 10 16  1  0
 11 12  1  0
 11 17  1  0
M  RAD  1   1   2
M  END
>  <reaction>  (16) 
rmg_rxn_15708

>  <mol_properties>  (16) 
{"0": {"label": "*3", "atom_type": "Cs"}, "1": {"label": "*4", "atom_type": "O2s"}, "10": {"label": "*1", "atom_type": "N3s"}, "11": {"label": "*0", "atom_type": "O2s"}, "16": {"label": "*2", "atom_type": "H0"}}

>  <type>  (16) 
unop_12

>  <geom_source>  (16) 
Heuristics

$$$$

     RDKit          3D

 17 16  0  0  0  0  0  0  0  0999 V2000
    0.7674    1.0130   -0.0356 C   0  0  0  0  0  3  0  0  0  0  0  0
    1.2788   -0.0289    0.7722 O   0  0  0  0  0  0  0  0  0  0  0  0
    2.4915    0.3461    1.2989 N   0  0  0  0  0  0  0  0  0  0  0  0
    2.9899   -0.5555    2.0306 C   0  0  0  0  0  0  0  0  0  0  0  0
    0.6104    1.9210    0.5510 H   0  0  0  0  0  0  0  0  0  0  0  0
    1.4410    1.2283   -0.8682 H   0  0  0  0  0  0  0  0  0  0  0  0
    3.9473   -0.3374    2.4845 H   0  0  0  0  0  0  0  0  0  0  0  0
    2.4950   -1.5083    2.2060 H   0  0  0  0  0  0  0  0  0  0  0  0
   -1.9182   -0.9282   -1.7329 C   0  0  0  0  0  0  0  0  0  0  0  0
   -1.9182   -0.9282   -0.2115 C   0  0  0  0  0  0  0  0  0  0  0  0
   -1.7055    0.5407   -0.2798 N   0  0  0  0  0  0  0  0  0  0  0  0
   -1.9182    0.5064   -1.7221 O   0  0  0  0  0  0  0  0  0  0  0  0
   -2.7961   -1.3363   -2.2362 H   0  0  0  0  0  0  0  0  0  0  0  0
   -1.0085   -1.3288   -2.1942 H   0  0  0  0  0  0  0  0  0  0  0  0
   -1.1312   -1.4911    0.2896 H   0  0  0  0  0  0  0  0  0  0  0  0
   -2.8808   -1.1599    0.2430 H   0  0  0  0  0  0  0  0  0  0  0  0
   -0.5097    0.7691   -0.1617 H   0  0  0  0  0  0  0  0  0  0  0  0
  1  2  1  0
  1  5  1  0
  1  6  1  0
  2  3  1  0
  3  4  2  3
  4  7  1  0
  4  8  1  0
  9 10  1  0
  9 12  1  0
  9 13  1  0
  9 14  1  0
 10 11  1  0
 10 15  1  0
 10 16  1  0
 11 12  1  0
 11 17  1  0
M  RAD  1   1   2
M  END
>  <reaction>  (17) 
rmg_rxn_15708

>  <mol_properties>  (17) 
{"0": {"label": "*3", "atom_type": "Cs"}, "1": {"label": "*4", "atom_type": "O2s"}, "10": {"label": "*1", "atom_type": "N3s"}, "11": {"label": "*0", "atom_type": "O2s"}, "16": {"label": "*2", "atom_type": "H0"}}

>  <type>  (17) 
unop_13

>  <geom_source>  (17) 
Heuristics

$$$$

     RDKit          3D

 17 16  0  0  0  0  0  0  0  0999 V2000
    0.7366    0.7521    1.1017 C   0  0  0  0  0  3  0  0  0  0  0  0
    1.3629    0.0833    0.0247 O   0  0  0  0  0  0  0  0  0  0  0  0
    2.4785    0.7827   -0.3690 N   0  0  0  0  0  0  0  0  0  0  0  0
    3.0740    0.2223   -1.3323 C   0  0  0  0  0  0  0  0  0  0  0  0
    1.4073    0.8223    1.9611 H   0  0  0  0  0  0  0  0  0  0  0  0
    0.4159    1.7537    0.8063 H   0  0  0  0  0  0  0  0  0  0  0  0
    3.9649    0.7119   -1.7023 H   0  0  0  0  0  0  0  0  0  0  0  0
    2.7225   -0.7053   -1.7789 H   0  0  0  0  0  0  0  0  0  0  0  0
   -1.9490   -1.1891   -0.5955 C   0  0  0  0  0  0  0  0  0  0  0  0
   -1.9490   -1.1891    0.9259 C   0  0  0  0  0  0  0  0  0  0  0  0
   -1.7364    0.2798    0.8575 N   0  0  0  0  0  0  0  0  0  0  0  0
   -1.9490    0.2456   -0.5848 O   0  0  0  0  0  0  0  0  0  0  0  0
   -2.8269   -1.5972   -1.0988 H   0  0  0  0  0  0  0  0  0  0  0  0
   -1.0393   -1.5896   -1.0568 H   0  0  0  0  0  0  0  0  0  0  0  0
   -1.1620   -1.7519    1.4270 H   0  0  0  0  0  0  0  0  0  0  0  0
   -2.9116   -1.4208    1.3803 H   0  0  0  0  0  0  0  0  0  0  0  0
   -0.5405    0.5082    0.9756 H   0  0  0  0  0  0  0  0  0  0  0  0
  1  2  1  0
  1  5  1  0
  1  6  1  0
  2  3  1  0
  3  4  2  3
  4  7  1  0
  4  8  1  0
  9 10  1  0
  9 12  1  0
  9 13  1  0
  9 14  1  0
 10 11  1  0
 10 15  1  0
 10 16  1  0
 11 12  1  0
 11 17  1  0
M  RAD  1   1   2
M  END
>  <reaction>  (18) 
rmg_rxn_15708

>  <mol_properties>  (18) 
{"0": {"label": "*3", "atom_type": "Cs"}, "1": {"label": "*4", "atom_type": "O2s"}, "10": {"label": "*1", "atom_type": "N3s"}, "11": {"label": "*0", "atom_type": "O2s"}, "16": {"label": "*2", "atom_type": "H0"}}

>  <type>  (18) 
unop_14

>  <geom_source>  (18) 
Heuristics

$$$$

     RDKit          3D

 17 16  0  0  0  0  0  0  0  0999 V2000
    0.9757   -0.1534    0.2731 C   0  0  0  0  0  3  0  0  0  0  0  0
    1.0645    1.1161    0.8895 O   0  0  0  0  0  0  0  0  0  0  0  0
    2.2568    1.7115    0.5539 N   0  0  0  0  0  0  0  0  0  0  0  0
    2.3826    2.8522    1.0829 C   0  0  0  0  0  0  0  0  0  0  0  0
    1.0091   -0.0626   -0.8149 H   0  0  0  0  0  0  0  0  0  0  0  0
    1.7825   -0.8084    0.6096 H   0  0  0  0  0  0  0  0  0  0  0  0
    3.2970    3.3885    0.8671 H   0  0  0  0  0  0  0  0  0  0  0  0
    1.6201    3.2879    1.7250 H   0  0  0  0  0  0  0  0  0  0  0  0
   -1.7099   -2.0947   -1.4242 C   0  0  0  0  0  0  0  0  0  0  0  0
   -1.7099   -2.0947    0.0972 C   0  0  0  0  0  0  0  0  0  0  0  0
   -1.4973   -0.6258    0.0289 N   0  0  0  0  0  0  0  0  0  0  0  0
   -1.7099   -0.6600   -1.4134 O   0  0  0  0  0  0  0  0  0  0  0  0
   -2.5878   -2.5028   -1.9274 H   0  0  0  0  0  0  0  0  0  0  0  0
   -0.8003   -2.4952   -1.8854 H   0  0  0  0  0  0  0  0  0  0  0  0
   -0.9229   -2.6575    0.5983 H   0  0  0  0  0  0  0  0  0  0  0  0
   -2.6725   -2.3263    0.5517 H   0  0  0  0  0  0  0  0  0  0  0  0
   -0.3015   -0.3974    0.1470 H   0  0  0  0  0  0  0  0  0  0  0  0
  1  2  1  0
  1  5  1  0
  1  6  1  0
  2  3  1  0
  3  4  2  3
  4  7  1  0
  4  8  1  0
  9 10  1  0
  9 12  1  0
  9 13  1  0
  9 14  1  0
 10 11  1  0
 10 15  1  0
 10 16  1  0
 11 12  1  0
 11 17  1  0
M  RAD  1   1   2
M  END
>  <reaction>  (19) 
rmg_rxn_15708

>  <mol_properties>  (19) 
{"0": {"label": "*3", "atom_type": "Cs"}, "1": {"label": "*4", "atom_type": "O2s"}, "10": {"label": "*1", "atom_type": "N3s"}, "11": {"label": "*0", "atom_type": "O2s"}, "16": {"label": "*2", "atom_type": "H0"}}

>  <type>  (19) 
unop_15

>  <geom_source>  (19) 
Heuristics

$$$$

     RDKit          3D

 17 16  0  0  0  0  0  0  0  0999 V2000
    0.6794    1.1726    0.3790 C   0  0  0  0  0  3  0  0  0  0  0  0
    1.2982   -0.0903    0.5264 O   0  0  0  0  0  0  0  0  0  0  0  0
    2.6556    0.0725    0.6665 N   0  0  0  0  0  0  0  0  0  0  0  0
    3.2543   -1.0320    0.8019 C   0  0  0  0  0  0  0  0  0  0  0  0
    0.8519    1.7972    1.2583 H   0  0  0  0  0  0  0  0  0  0  0  0
    1.0478    1.6865   -0.5117 H   0  0  0  0  0  0  0  0  0  0  0  0
    4.3290   -0.9899    0.9182 H   0  0  0  0  0  0  0  0  0  0  0  0
    2.7312   -1.9859    0.8036 H   0  0  0  0  0  0  0  0  0  0  0  0
   -2.0062   -0.7687   -1.3183 C   0  0  0  0  0  0  0  0  0  0  0  0
   -2.0062   -0.7687    0.2031 C   0  0  0  0  0  0  0  0  0  0  0  0
   -1.7935    0.7002    0.1348 N   0  0  0  0  0  0  0  0  0  0  0  0
   -2.0062    0.6660   -1.3076 O   0  0  0  0  0  0  0  0  0  0  0  0
   -2.8841   -1.1767   -1.8216 H   0  0  0  0  0  0  0  0  0  0  0  0
   -1.0965   -1.1692   -1.7796 H   0  0  0  0  0  0  0  0  0  0  0  0
   -1.2192   -1.3315    0.7042 H   0  0  0  0  0  0  0  0  0  0  0  0
   -2.9688   -1.0003    0.6575 H   0  0  0  0  0  0  0  0  0  0  0  0
   -0.5977    0.9286    0.2528 H   0  0  0  0  0  0  0  0  0  0  0  0
  1  2  1  0
  1  5  1  0
  1  6  1  0
  2  3  1  0
  3  4  2  3
  4  7  1  0
  4  8  1  0
  9 10  1  0
  9 12  1  0
  9 13  1  0
  9 14  1  0
 10 11  1  0
 10 15  1  0
 10 16  1  0
 11 12  1  0
 11 17  1  0
M  RAD  1   1   2
M  END
>  <reaction>  (20) 
rmg_rxn_15708

>  <mol_properties>  (20) 
{"0": {"label": "*3", "atom_type": "Cs"}, "1": {"label": "*4", "atom_type": "O2s"}, "10": {"label": "*1", "atom_type": "N3s"}, "11": {"label": "*0", "atom_type": "O2s"}, "16": {"label": "*2", "atom_type": "H0"}}

>  <type>  (20) 
unop_16

>  <geom_source>  (20) 
Heuristics

$$$$

     RDKit          3D

 17 16  0  0  0  0  0  0  0  0999 V2000
    0.6728    1.0665    0.8192 C   0  0  0  0  0  3  0  0  0  0  0  0
    1.3336   -0.0599    0.2767 O   0  0  0  0  0  0  0  0  0  0  0  0
    2.6370    0.2639   -0.0152 N   0  0  0  0  0  0  0  0  0  0  0  0
    3.2705   -0.7140   -0.5040 C   0  0  0  0  0  0  0  0  0  0  0  0
    1.1516    1.3918    1.7455 H   0  0  0  0  0  0  0  0  0  0  0  0
    0.6597    1.8931    0.1052 H   0  0  0  0  0  0  0  0  0  0  0  0
    4.3067   -0.5404   -0.7617 H   0  0  0  0  0  0  0  0  0  0  0  0
    2.8127   -1.6878   -0.6644 H   0  0  0  0  0  0  0  0  0  0  0  0
   -2.0128   -0.8748   -0.8781 C   0  0  0  0  0  0  0  0  0  0  0  0
   -2.0128   -0.8748    0.6433 C   0  0  0  0  0  0  0  0  0  0  0  0
   -1.8002    0.5941    0.5750 N   0  0  0  0  0  0  0  0  0  0  0  0
   -2.0128    0.5599   -0.8673 O   0  0  0  0  0  0  0  0  0  0  0  0
   -2.8907   -1.2828   -1.3814 H   0  0  0  0  0  0  0  0  0  0  0  0
   -1.1032   -1.2753   -1.3394 H   0  0  0  0  0  0  0  0  0  0  0  0
   -1.2258   -1.4376    1.1444 H   0  0  0  0  0  0  0  0  0  0  0  0
   -2.9754   -1.1064    1.0977 H   0  0  0  0  0  0  0  0  0  0  0  0
   -0.6044    0.8225    0.6931 H   0  0  0  0  0  0  0  0  0  0  0  0
  1  2  1  0
  1  5  1  0
  1  6  1  0
  2  3  1  0
  3  4  2  3
  4  7  1  0
  4  8  1  0
  9 10  1  0
  9 12  1  0
  9 13  1  0
  9 14  1  0
 10 11  1  0
 10 15  1  0
 10 16  1  0
 11 12  1  0
 11 17  1  0
M  RAD  1   1   2
M  END
>  <reaction>  (21) 
rmg_rxn_15708

>  <mol_properties>  (21) 
{"0": {"label": "*3", "atom_type": "Cs"}, "1": {"label": "*4", "atom_type": "O2s"}, "10": {"label": "*1", "atom_type": "N3s"}, "11": {"label": "*0", "atom_type": "O2s"}, "16": {"label": "*2", "atom_type": "H0"}}

>  <type>  (21) 
unop_17

>  <geom_source>  (21) 
gaussian_log

$$$$
