
     RDKit          3D

  8  7  0  0  0  0  0  0  0  0999 V2000
    0.9548    0.1194   -0.0790 C   0  0  0  0  0  0  0  0  0  0  0  0
   -0.4838   -0.2649    0.0193 C   0  0  0  0  0  0  0  0  0  0  0  0
   -0.8933   -1.1081    0.8664 N   0  0  0  0  0  0  0  0  0  0  0  0
    1.3360   -0.0983   -1.0800 H   0  0  0  0  0  0  0  0  0  0  0  0
    1.0698    1.1948    0.0786 H   0  0  0  0  0  0  0  0  0  0  0  0
    1.5426   -0.4219    0.6602 H   0  0  0  0  0  0  0  0  0  0  0  0
   -1.1575    0.2324   -0.6905 H   0  0  0  0  0  0  0  0  0  0  0  0
   -1.8989   -1.2455    0.7886 H   0  0  0  0  0  0  0  0  0  0  0  0
  1  2  1  0
  1  4  1  0
  1  5  1  0
  1  6  1  0
  2  3  2  3
  2  7  1  0
  3  8  1  0
M  END
>  <reaction>  (1) 
rmg_rxn_16771

>  <mol_properties>  (1) 
{"2": {"label": "donator", "atom_type": "N3d"}, "7": {"label": "d_hydrogen", "atom_type": "H0"}}

>  <type>  (1) 
r1h

$$$$

     RDKit          3D

  9  8  0  0  0  0  0  0  0  0999 V2000
   -1.0434   -0.0834    0.0221 C   0  0  0  0  0  0  0  0  0  0  0  0
    0.4680   -0.2131    0.0785 C   0  0  0  0  0  0  0  0  0  0  0  0
    0.9450   -1.3136   -0.7058 N   0  0  0  0  0  2  0  0  0  0  0  0
   -1.5170   -0.9919    0.3960 H   0  0  0  0  0  0  0  0  0  0  0  0
   -1.3864    0.7592    0.6249 H   0  0  0  0  0  0  0  0  0  0  0  0
   -1.3736    0.0696   -1.0061 H   0  0  0  0  0  0  0  0  0  0  0  0
    0.8045   -0.3309    1.1214 H   0  0  0  0  0  0  0  0  0  0  0  0
    0.9463    0.7186   -0.2648 H   0  0  0  0  0  0  0  0  0  0  0  0
    1.9638   -1.3321   -0.6157 H   0  0  0  0  0  0  0  0  0  0  0  0
  1  2  1  0
  1  4  1  0
  1  5  1  0
  1  6  1  0
  2  3  1  0
  2  7  1  0
  2  8  1  0
  3  9  1  0
M  RAD  1   3   2
M  END
>  <reaction>  (2) 
rmg_rxn_16771

>  <mol_properties>  (2) 
{"2": {"label": "acceptor", "atom_type": "N3s"}}

>  <type>  (2) 
r2

$$$$

     RDKit          3D

 10  9  0  0  0  0  0  0  0  0999 V2000
   -1.1906   -0.0419   -0.0385 C   0  0  0  0  0  0  0  0  0  0  0  0
    0.2513    0.4500    0.0348 C   0  0  0  0  0  0  0  0  0  0  0  0
    1.2500   -0.5694    0.3278 N   0  0  0  0  0  0  0  0  0  0  0  0
   -1.4965   -0.4905    0.9100 H   0  0  0  0  0  0  0  0  0  0  0  0
   -1.3035   -0.7985   -0.8190 H   0  0  0  0  0  0  0  0  0  0  0  0
   -1.8789    0.7769   -0.2612 H   0  0  0  0  0  0  0  0  0  0  0  0
    0.3352    1.2278    0.7979 H   0  0  0  0  0  0  0  0  0  0  0  0
    0.5259    0.9233   -0.9113 H   0  0  0  0  0  0  0  0  0  0  0  0
    1.2298   -1.2971   -0.3752 H   0  0  0  0  0  0  0  0  0  0  0  0
    1.0523   -1.0138    1.2153 H   0  0  0  0  0  0  0  0  0  0  0  0
  1  2  1  0
  1  4  1  0
  1  5  1  0
  1  6  1  0
  2  3  1  0
  2  7  1  0
  2  8  1  0
  3  9  1  0
  3 10  1  0
M  END
>  <reaction>  (3) 
rmg_rxn_16771

>  <mol_properties>  (3) 
{"0": {"label": "a_hydrogen", "atom_type": "H0"}, "3": {"label": "acceptor", "atom_type": "N3s"}}

>  <type>  (3) 
r2h

$$$$

     RDKit          3D

 17 15  0  0  0  0  0  0  0  0999 V2000
   -0.5909    0.3328   -3.1741 C   0  0  0  0  0  0  0  0  0  0  0  0
   -0.5951    0.3324   -1.6762 C   0  0  0  0  0  0  0  0  0  0  0  0
    0.4569    0.3667   -0.9923 N   0  0  0  0  0  0  0  0  0  0  0  0
   -1.0938   -0.5626   -3.5463 H   0  0  0  0  0  0  0  0  0  0  0  0
   -1.1483    1.1957   -3.5455 H   0  0  0  0  0  0  0  0  0  0  0  0
    0.4271    0.3648   -3.5576 H   0  0  0  0  0  0  0  0  0  0  0  0
   -1.5777    0.3021   -1.1836 H   0  0  0  0  0  0  0  0  0  0  0  0
    0.0832    0.3539    0.1450 H   0  0  0  0  0  0  0  0  0  0  0  0
    1.5082   -1.1964    2.0131 C   0  0  0  0  0  0  0  0  0  0  0  0
    0.0008   -1.0461    1.8371 C   0  0  0  0  0  0  0  0  0  0  0  0
   -0.4438    0.2388    1.3329 N   0  0  0  0  0  2  0  0  0  0  0  0
    1.8912   -0.4583    2.7223 H   0  0  0  0  0  0  0  0  0  0  0  0
    1.7588   -2.1892    2.3915 H   0  0  0  0  0  0  0  0  0  0  0  0
    2.0195   -1.0507    1.0605 H   0  0  0  0  0  0  0  0  0  0  0  0
   -0.4993   -1.2033    2.8023 H   0  0  0  0  0  0  0  0  0  0  0  0
   -0.3793   -1.8200    1.1654 H   0  0  0  0  0  0  0  0  0  0  0  0
    0.0653    0.9654    1.8402 H   0  0  0  0  0  0  0  0  0  0  0  0
  1  2  1  0
  1  4  1  0
  1  5  1  0
  1  6  1  0
  2  3  2  3
  2  7  1  0
  3  8  1  0
  9 10  1  0
  9 12  1  0
  9 13  1  0
  9 14  1  0
 10 11  1  0
 10 15  1  0
 10 16  1  0
 11 17  1  0
M  RAD  1  11   2
M  END
>  <reaction>  (4) 
rmg_rxn_16771

>  <mol_properties>  (4) 
{"1": {"label": "*0", "atom_type": "Cd"}, "2": {"label": "*1", "atom_type": "N3d"}, "7": {"label": "*2", "atom_type": "H0"}, "9": {"label": "*4", "atom_type": "Cs"}, "10": {"label": "*3", "atom_type": "N3s"}}

>  <type>  (4) 
ts

$$$$

     RDKit          3D

 17 15  0  0  0  0  0  0  0  0999 V2000
   -3.2484   -0.3195    0.1516 C   0  0  0  0  0  0  0  0  0  0  0  0
   -1.8844    0.2979    0.0787 C   0  0  0  0  0  0  0  0  0  0  0  0
   -0.8854   -0.3184   -0.3160 N   0  0  0  0  0  2  0  0  0  0  0  0
   -3.9344    0.2506   -0.4727 H   0  0  0  0  0  0  0  0  0  0  0  0
   -3.2164   -1.3518   -0.1853 H   0  0  0  0  0  0  0  0  0  0  0  0
   -3.6068   -0.2783    1.1788 H   0  0  0  0  0  0  0  0  0  0  0  0
   -1.8522    1.3458    0.4066 H   0  0  0  0  0  0  0  0  0  0  0  0
    0.1493    0.3685   -0.2976 H   0  0  0  0  0  0  0  0  0  0  0  0
    2.5426   -1.0293   -0.0759 C   0  0  0  0  0  0  0  0  0  0  0  0
    2.1393    0.3383    0.4836 C   0  0  0  0  0  0  0  0  0  0  0  0
    1.1515    1.0368   -0.2857 N   0  0  0  0  0  0  0  0  0  0  0  0
    3.2827   -1.4991    0.5670 H   0  0  0  0  0  0  0  0  0  0  0  0
    1.6666   -1.6710   -0.1362 H   0  0  0  0  0  0  0  0  0  0  0  0
    2.9652   -0.9231   -1.0739 H   0  0  0  0  0  0  0  0  0  0  0  0
    3.0313    0.9791    0.5363 H   0  0  0  0  0  0  0  0  0  0  0  0
    1.7499    0.2264    1.5002 H   0  0  0  0  0  0  0  0  0  0  0  0
    1.4393    1.0613   -1.2626 H   0  0  0  0  0  0  0  0  0  0  0  0
  1  2  1  0
  1  4  1  0
  1  5  1  0
  1  6  1  0
  2  3  2  0
  2  7  1  0
  8 11  1  0
  9 10  1  0
  9 12  1  0
  9 13  1  0
  9 14  1  0
 10 11  1  0
 10 15  1  0
 10 16  1  0
 11 17  1  0
M  RAD  1   3   2
M  END
>  <reaction>  (5) 
rmg_rxn_16771

>  <mol_properties>  (5) 
{"1": {"label": "*0", "atom_type": "Cd"}, "2": {"label": "*1", "atom_type": "N3d"}, "7": {"label": "*2", "atom_type": "H0"}, "9": {"label": "*4", "atom_type": "Cs"}, "10": {"label": "*3", "atom_type": "N3s"}}

>  <type>  (5) 
unop_1

>  <geom_source>  (5) 
crest_best.xyz

$$$$

     RDKit          3D

 17 15  0  0  0  0  0  0  0  0999 V2000
   -0.5233   -0.8682   -2.9769 C   0  0  0  0  0  0  0  0  0  0  0  0
   -0.5233   -0.8682   -1.4846 C   0  0  0  0  0  0  0  0  0  0  0  0
   -0.5233    0.2044   -0.8169 N   0  0  0  0  0  2  0  0  0  0  0  0
    0.3549   -1.3982   -3.3543 H   0  0  0  0  0  0  0  0  0  0  0  0
   -1.4016   -1.3982   -3.3543 H   0  0  0  0  0  0  0  0  0  0  0  0
   -0.5233    0.1524   -3.3555 H   0  0  0  0  0  0  0  0  0  0  0  0
   -0.5233   -1.8579   -1.0099 H   0  0  0  0  0  0  0  0  0  0  0  0
   -0.5233   -0.0258    0.3827 H   0  0  0  0  0  0  0  0  0  0  0  0
    1.3904    1.3799    1.3878 C   0  0  0  0  0  0  0  0  0  0  0  0
    0.6587    0.3196    2.2044 C   0  0  0  0  0  0  0  0  0  0  0  0
   -0.5233   -0.2546    1.5754 N   0  0  0  0  0  0  0  0  0  0  0  0
    0.7323    2.2247    1.1699 H   0  0  0  0  0  0  0  0  0  0  0  0
    2.2627    1.7619    1.9234 H   0  0  0  0  0  0  0  0  0  0  0  0
    1.7337    0.9680    0.4355 H   0  0  0  0  0  0  0  0  0  0  0  0
    0.3529    0.7425    3.1646 H   0  0  0  0  0  0  0  0  0  0  0  0
    1.3428   -0.4998    2.4386 H   0  0  0  0  0  0  0  0  0  0  0  0
   -1.2011    0.4682    1.3694 H   0  0  0  0  0  0  0  0  0  0  0  0
  1  2  1  0
  1  4  1  0
  1  5  1  0
  1  6  1  0
  2  3  2  0
  2  7  1  0
  8 11  1  0
  9 10  1  0
  9 12  1  0
  9 13  1  0
  9 14  1  0
 10 11  1  0
 10 15  1  0
 10 16  1  0
 11 17  1  0
M  RAD  1   3   2
M  END
>  <reaction>  (6) 
rmg_rxn_16771

>  <mol_properties>  (6) 
{"1": {"label": "*0", "atom_type": "Cd"}, "2": {"label": "*1", "atom_type": "N3d"}, "7": {"label": "*2", "atom_type": "H0"}, "9": {"label": "*4", "atom_type": "Cs"}, "10": {"label": "*3", "atom_type": "N3s"}}

>  <type>  (6) 
unop_2

>  <geom_source>  (6) 
Heuristics

$$$$

     RDKit          3D

 17 15  0  0  0  0  0  0  0  0999 V2000
   -0.4573   -0.0134   -2.8595 C   0  0  0  0  0  0  0  0  0  0  0  0
   -0.4573   -0.0134   -1.3672 C   0  0  0  0  0  0  0  0  0  0  0  0
   -0.4573    1.0592   -0.6995 N   0  0  0  0  0  2  0  0  0  0  0  0
    0.4210   -0.5434   -3.2369 H   0  0  0  0  0  0  0  0  0  0  0  0
   -1.3355   -0.5434   -3.2369 H   0  0  0  0  0  0  0  0  0  0  0  0
   -0.4573    1.0072   -3.2381 H   0  0  0  0  0  0  0  0  0  0  0  0
   -0.4573   -1.0031   -0.8925 H   0  0  0  0  0  0  0  0  0  0  0  0
   -0.4573    0.8291    0.5001 H   0  0  0  0  0  0  0  0  0  0  0  0
    1.4819   -0.9201    1.1472 C   0  0  0  0  0  0  0  0  0  0  0  0
    0.2252   -0.6566    1.9705 C   0  0  0  0  0  0  0  0  0  0  0  0
   -0.4573    0.6002    1.6928 N   0  0  0  0  0  0  0  0  0  0  0  0
    2.2261   -0.1372    1.3135 H   0  0  0  0  0  0  0  0  0  0  0  0
    1.9361   -1.8780    1.4110 H   0  0  0  0  0  0  0  0  0  0  0  0
    1.2494   -0.9402    0.0795 H   0  0  0  0  0  0  0  0  0  0  0  0
    0.4738   -0.6728    3.0346 H   0  0  0  0  0  0  0  0  0  0  0  0
   -0.4918   -1.4666    1.8147 H   0  0  0  0  0  0  0  0  0  0  0  0
    0.1628    1.3832    1.8559 H   0  0  0  0  0  0  0  0  0  0  0  0
  1  2  1  0
  1  4  1  0
  1  5  1  0
  1  6  1  0
  2  3  2  0
  2  7  1  0
  8 11  1  0
  9 10  1  0
  9 12  1  0
  9 13  1  0
  9 14  1  0
 10 11  1  0
 10 15  1  0
 10 16  1  0
 11 17  1  0
M  RAD  1   3   2
M  END
>  <reaction>  (7) 
rmg_rxn_16771

>  <mol_properties>  (7) 
{"1": {"label": "*0", "atom_type": "Cd"}, "2": {"label": "*1", "atom_type": "N3d"}, "7": {"label": "*2", "atom_type": "H0"}, "9": {"label": "*4", "atom_type": "Cs"}, "10": {"label": "*3", "atom_type": "N3s"}}

>  <type>  (7) 
unop_3

>  <geom_source>  (7) 
Heuristics

$$$$

     RDKit          3D

 17 15  0  0  0  0  0  0  0  0999 V2000
   -0.2159   -1.0848   -3.0371 C   0  0  0  0  0  0  0  0  0  0  0  0
   -0.2159   -1.0848   -1.5448 C   0  0  0  0  0  0  0  0  0  0  0  0
   -0.2159   -0.0122   -0.8771 N   0  0  0  0  0  2  0  0  0  0  0  0
    0.6623   -1.6148   -3.4145 H   0  0  0  0  0  0  0  0  0  0  0  0
   -1.0942   -1.6148   -3.4145 H   0  0  0  0  0  0  0  0  0  0  0  0
   -0.2159   -0.0642   -3.4157 H   0  0  0  0  0  0  0  0  0  0  0  0
   -0.2159   -2.0745   -1.0701 H   0  0  0  0  0  0  0  0  0  0  0  0
   -0.2159   -0.2424    0.3225 H   0  0  0  0  0  0  0  0  0  0  0  0
    0.4269    1.9684    1.5790 C   0  0  0  0  0  0  0  0  0  0  0  0
    0.4665    0.5936    2.2383 C   0  0  0  0  0  0  0  0  0  0  0  0
   -0.2159   -0.4712    1.5152 N   0  0  0  0  0  0  0  0  0  0  0  0
   -0.6038    2.3098    1.4546 H   0  0  0  0  0  0  0  0  0  0  0  0
    0.9579    2.7118    2.1782 H   0  0  0  0  0  0  0  0  0  0  0  0
    0.8916    1.9383    0.5903 H   0  0  0  0  0  0  0  0  0  0  0  0
    0.0268    0.6530    3.2371 H   0  0  0  0  0  0  0  0  0  0  0  0
    1.5052    0.2858    2.3826 H   0  0  0  0  0  0  0  0  0  0  0  0
   -1.1932   -0.2419    1.3867 H   0  0  0  0  0  0  0  0  0  0  0  0
  1  2  1  0
  1  4  1  0
  1  5  1  0
  1  6  1  0
  2  3  2  0
  2  7  1  0
  8 11  1  0
  9 10  1  0
  9 12  1  0
  9 13  1  0
  9 14  1  0
 10 11  1  0
 10 15  1  0
 10 16  1  0
 11 17  1  0
M  RAD  1   3   2
M  END
>  <reaction>  (8) 
rmg_rxn_16771

>  <mol_properties>  (8) 
{"1": {"label": "*0", "atom_type": "Cd"}, "2": {"label": "*1", "atom_type": "N3d"}, "7": {"label": "*2", "atom_type": "H0"}, "9": {"label": "*4", "atom_type": "Cs"}, "10": {"label": "*3", "atom_type": "N3s"}}

>  <type>  (8) 
unop_4

>  <geom_source>  (8) 
Heuristics

$$$$

     RDKit          3D

 17 15  0  0  0  0  0  0  0  0999 V2000
    0.3673    0.0451   -3.0385 C   0  0  0  0  0  0  0  0  0  0  0  0
    0.3673    0.0451   -1.5462 C   0  0  0  0  0  0  0  0  0  0  0  0
    0.3673    1.1177   -0.8785 N   0  0  0  0  0  2  0  0  0  0  0  0
    1.2456   -0.4849   -3.4159 H   0  0  0  0  0  0  0  0  0  0  0  0
   -0.5110   -0.4849   -3.4159 H   0  0  0  0  0  0  0  0  0  0  0  0
    0.3673    1.0657   -3.4171 H   0  0  0  0  0  0  0  0  0  0  0  0
    0.3673   -0.9446   -1.0716 H   0  0  0  0  0  0  0  0  0  0  0  0
    0.3673    0.8875    0.3211 H   0  0  0  0  0  0  0  0  0  0  0  0
   -0.6447   -1.6233    1.8845 C   0  0  0  0  0  0  0  0  0  0  0  0
   -0.8147   -0.1076    1.8856 C   0  0  0  0  0  0  0  0  0  0  0  0
    0.3673    0.6587    1.5138 N   0  0  0  0  0  0  0  0  0  0  0  0
    0.1364   -1.9269    2.5860 H   0  0  0  0  0  0  0  0  0  0  0  0
   -1.5704   -2.1271    2.1726 H   0  0  0  0  0  0  0  0  0  0  0  0
   -0.3612   -1.9815    0.8916 H   0  0  0  0  0  0  0  0  0  0  0  0
   -1.1292    0.2255    2.8778 H   0  0  0  0  0  0  0  0  0  0  0  0
   -1.6211    0.1716    1.2028 H   0  0  0  0  0  0  0  0  0  0  0  0
    1.1336    0.4547    2.1426 H   0  0  0  0  0  0  0  0  0  0  0  0
  1  2  1  0
  1  4  1  0
  1  5  1  0
  1  6  1  0
  2  3  2  0
  2  7  1  0
  8 11  1  0
  9 10  1  0
  9 12  1  0
  9 13  1  0
  9 14  1  0
 10 11  1  0
 10 15  1  0
 10 16  1  0
 11 17  1  0
M  RAD  1   3   2
M  END
>  <reaction>  (9) 
rmg_rxn_16771

>  <mol_properties>  (9) 
{"1": {"label": "*0", "atom_type": "Cd"}, "2": {"label": "*1", "atom_type": "N3d"}, "7": {"label": "*2", "atom_type": "H0"}, "9": {"label": "*4", "atom_type": "Cs"}, "10": {"label": "*3", "atom_type": "N3s"}}

>  <type>  (9) 
unop_5

>  <geom_source>  (9) 
Heuristics

$$$$

     RDKit          3D

 17 15  0  0  0  0  0  0  0  0999 V2000
    0.2124   -1.0614   -3.1209 C   0  0  0  0  0  0  0  0  0  0  0  0
    0.2124   -1.0614   -1.6285 C   0  0  0  0  0  0  0  0  0  0  0  0
    0.2124    0.0112   -0.9609 N   0  0  0  0  0  2  0  0  0  0  0  0
    1.0906   -1.5914   -3.4983 H   0  0  0  0  0  0  0  0  0  0  0  0
   -0.6659   -1.5914   -3.4983 H   0  0  0  0  0  0  0  0  0  0  0  0
    0.2124   -0.0408   -3.4995 H   0  0  0  0  0  0  0  0  0  0  0  0
    0.2124   -2.0511   -1.1539 H   0  0  0  0  0  0  0  0  0  0  0  0
    0.2124   -0.2189    0.2387 H   0  0  0  0  0  0  0  0  0  0  0  0
   -0.9666    1.7281    1.9264 C   0  0  0  0  0  0  0  0  0  0  0  0
    0.2124    0.7966    2.1890 C   0  0  0  0  0  0  0  0  0  0  0  0
    0.2124   -0.4478    1.4314 N   0  0  0  0  0  0  0  0  0  0  0  0
   -1.9118    1.2355    2.1680 H   0  0  0  0  0  0  0  0  0  0  0  0
   -0.8968    2.6369    2.5288 H   0  0  0  0  0  0  0  0  0  0  0  0
   -1.0015    2.0230    0.8746 H   0  0  0  0  0  0  0  0  0  0  0  0
    0.2478    0.5403    3.2508 H   0  0  0  0  0  0  0  0  0  0  0  0
    1.1477    1.3187    1.9722 H   0  0  0  0  0  0  0  0  0  0  0  0
   -0.6250   -0.9814    1.6273 H   0  0  0  0  0  0  0  0  0  0  0  0
  1  2  1  0
  1  4  1  0
  1  5  1  0
  1  6  1  0
  2  3  2  0
  2  7  1  0
  8 11  1  0
  9 10  1  0
  9 12  1  0
  9 13  1  0
  9 14  1  0
 10 11  1  0
 10 15  1  0
 10 16  1  0
 11 17  1  0
M  RAD  1   3   2
M  END
>  <reaction>  (10) 
rmg_rxn_16771

>  <mol_properties>  (10) 
{"1": {"label": "*0", "atom_type": "Cd"}, "2": {"label": "*1", "atom_type": "N3d"}, "7": {"label": "*2", "atom_type": "H0"}, "9": {"label": "*4", "atom_type": "Cs"}, "10": {"label": "*3", "atom_type": "N3s"}}

>  <type>  (10) 
unop_6

>  <geom_source>  (10) 
Heuristics

$$$$

     RDKit          3D

 17 15  0  0  0  0  0  0  0  0999 V2000
    0.5520   -0.1990   -3.1168 C   0  0  0  0  0  0  0  0  0  0  0  0
    0.5520   -0.1990   -1.6245 C   0  0  0  0  0  0  0  0  0  0  0  0
    0.5520    0.8737   -0.9568 N   0  0  0  0  0  2  0  0  0  0  0  0
    1.4303   -0.7289   -3.4942 H   0  0  0  0  0  0  0  0  0  0  0  0
   -0.3262   -0.7289   -3.4942 H   0  0  0  0  0  0  0  0  0  0  0  0
    0.5520    0.8217   -3.4954 H   0  0  0  0  0  0  0  0  0  0  0  0
    0.5520   -1.1886   -1.1499 H   0  0  0  0  0  0  0  0  0  0  0  0
    0.5520    0.6435    0.2428 H   0  0  0  0  0  0  0  0  0  0  0  0
   -1.3442   -1.0974    2.1335 C   0  0  0  0  0  0  0  0  0  0  0  0
   -0.8129    0.3186    1.9359 C   0  0  0  0  0  0  0  0  0  0  0  0
    0.5520    0.4147    1.4355 N   0  0  0  0  0  0  0  0  0  0  0  0
   -0.7281   -1.6468    2.8497 H   0  0  0  0  0  0  0  0  0  0  0  0
   -2.3700   -1.0879    2.5095 H   0  0  0  0  0  0  0  0  0  0  0  0
   -1.3360   -1.6502    1.1908 H   0  0  0  0  0  0  0  0  0  0  0  0
   -0.8599    0.8635    2.8821 H   0  0  0  0  0  0  0  0  0  0  0  0
   -1.4610    0.8601    1.2422 H   0  0  0  0  0  0  0  0  0  0  0  0
    1.1938   -0.0479    2.0667 H   0  0  0  0  0  0  0  0  0  0  0  0
  1  2  1  0
  1  4  1  0
  1  5  1  0
  1  6  1  0
  2  3  2  0
  2  7  1  0
  8 11  1  0
  9 10  1  0
  9 12  1  0
  9 13  1  0
  9 14  1  0
 10 11  1  0
 10 15  1  0
 10 16  1  0
 11 17  1  0
M  RAD  1   3   2
M  END
>  <reaction>  (11) 
rmg_rxn_16771

>  <mol_properties>  (11) 
{"1": {"label": "*0", "atom_type": "Cd"}, "2": {"label": "*1", "atom_type": "N3d"}, "7": {"label": "*2", "atom_type": "H0"}, "9": {"label": "*4", "atom_type": "Cs"}, "10": {"label": "*3", "atom_type": "N3s"}}

>  <type>  (11) 
unop_7

>  <geom_source>  (11) 
Heuristics

$$$$

     RDKit          3D

 17 15  0  0  0  0  0  0  0  0999 V2000
    0.5952   -0.5007   -3.1773 C   0  0  0  0  0  0  0  0  0  0  0  0
    0.5952   -0.5007   -1.6850 C   0  0  0  0  0  0  0  0  0  0  0  0
    0.5952    0.5719   -1.0173 N   0  0  0  0  0  2  0  0  0  0  0  0
    1.4735   -1.0307   -3.5547 H   0  0  0  0  0  0  0  0  0  0  0  0
   -0.2831   -1.0307   -3.5547 H   0  0  0  0  0  0  0  0  0  0  0  0
    0.5952    0.5199   -3.5559 H   0  0  0  0  0  0  0  0  0  0  0  0
    0.5952   -1.4904   -1.2103 H   0  0  0  0  0  0  0  0  0  0  0  0
    0.5952    0.3417    0.1823 H   0  0  0  0  0  0  0  0  0  0  0  0
   -1.7175   -0.2928    2.3001 C   0  0  0  0  0  0  0  0  0  0  0  0
   -0.5868    0.6871    2.0040 C   0  0  0  0  0  0  0  0  0  0  0  0
    0.5952    0.1129    1.3750 N   0  0  0  0  0  0  0  0  0  0  0  0
   -1.3793   -1.0837    2.9743 H   0  0  0  0  0  0  0  0  0  0  0  0
   -2.5662    0.2100    2.7698 H   0  0  0  0  0  0  0  0  0  0  0  0
   -2.0726   -0.7652    1.3807 H   0  0  0  0  0  0  0  0  0  0  0  0
   -0.2691    1.1714    2.9308 H   0  0  0  0  0  0  0  0  0  0  0  0
   -0.9545    1.4862    1.3554 H   0  0  0  0  0  0  0  0  0  0  0  0
    0.9896   -0.6133    1.9592 H   0  0  0  0  0  0  0  0  0  0  0  0
  1  2  1  0
  1  4  1  0
  1  5  1  0
  1  6  1  0
  2  3  2  0
  2  7  1  0
  8 11  1  0
  9 10  1  0
  9 12  1  0
  9 13  1  0
  9 14  1  0
 10 11  1  0
 10 15  1  0
 10 16  1  0
 11 17  1  0
M  RAD  1   3   2
M  END
>  <reaction>  (12) 
rmg_rxn_16771

>  <mol_properties>  (12) 
{"1": {"label": "*0", "atom_type": "Cd"}, "2": {"label": "*1", "atom_type": "N3d"}, "7": {"label": "*2", "atom_type": "H0"}, "9": {"label": "*4", "atom_type": "Cs"}, "10": {"label": "*3", "atom_type": "N3s"}}

>  <type>  (12) 
unop_8

>  <geom_source>  (12) 
Heuristics

$$$$

     RDKit          3D

 17 15  0  0  0  0  0  0  0  0999 V2000
   -0.6501   -0.5617   -2.9190 C   0  0  0  0  0  0  0  0  0  0  0  0
   -0.6501   -0.5617   -1.4266 C   0  0  0  0  0  0  0  0  0  0  0  0
   -0.6501    0.5109   -0.7590 N   0  0  0  0  0  2  0  0  0  0  0  0
    0.2282   -1.0917   -3.2964 H   0  0  0  0  0  0  0  0  0  0  0  0
   -1.5283   -1.0917   -3.2964 H   0  0  0  0  0  0  0  0  0  0  0  0
   -0.6501    0.4589   -3.2976 H   0  0  0  0  0  0  0  0  0  0  0  0
   -0.6501   -1.5514   -0.9520 H   0  0  0  0  0  0  0  0  0  0  0  0
   -0.6501    0.2807    0.4406 H   0  0  0  0  0  0  0  0  0  0  0  0
    1.7906    0.5540    1.2329 C   0  0  0  0  0  0  0  0  0  0  0  0
    0.7148   -0.0442    2.1337 C   0  0  0  0  0  0  0  0  0  0  0  0
   -0.6501    0.0519    1.6333 N   0  0  0  0  0  0  0  0  0  0  0  0
    1.6109    1.6193    1.0684 H   0  0  0  0  0  0  0  0  0  0  0  0
    2.7841    0.4442    1.6739 H   0  0  0  0  0  0  0  0  0  0  0  0
    1.7985    0.0608    0.2577 H   0  0  0  0  0  0  0  0  0  0  0  0
    0.7455    0.4401    3.1130 H   0  0  0  0  0  0  0  0  0  0  0  0
    0.9310   -1.1006    2.3115 H   0  0  0  0  0  0  0  0  0  0  0  0
   -0.9052    1.0198    1.4844 H   0  0  0  0  0  0  0  0  0  0  0  0
  1  2  1  0
  1  4  1  0
  1  5  1  0
  1  6  1  0
  2  3  2  0
  2  7  1  0
  8 11  1  0
  9 10  1  0
  9 12  1  0
  9 13  1  0
  9 14  1  0
 10 11  1  0
 10 15  1  0
 10 16  1  0
 11 17  1  0
M  RAD  1   3   2
M  END
>  <reaction>  (13) 
rmg_rxn_16771

>  <mol_properties>  (13) 
{"1": {"label": "*0", "atom_type": "Cd"}, "2": {"label": "*1", "atom_type": "N3d"}, "7": {"label": "*2", "atom_type": "H0"}, "9": {"label": "*4", "atom_type": "Cs"}, "10": {"label": "*3", "atom_type": "N3s"}}

>  <type>  (13) 
unop_9

>  <geom_source>  (13) 
Heuristics

$$$$

     RDKit          3D

 17 15  0  0  0  0  0  0  0  0999 V2000
   -3.2484   -0.3195    0.1516 C   0  0  0  0  0  0  0  0  0  0  0  0
   -1.8844    0.2979    0.0787 C   0  0  0  0  0  0  0  0  0  0  0  0
   -0.8854   -0.3184   -0.3160 N   0  0  0  0  0  2  0  0  0  0  0  0
   -3.9344    0.2506   -0.4727 H   0  0  0  0  0  0  0  0  0  0  0  0
   -3.2164   -1.3518   -0.1853 H   0  0  0  0  0  0  0  0  0  0  0  0
   -3.6068   -0.2783    1.1788 H   0  0  0  0  0  0  0  0  0  0  0  0
   -1.8522    1.3458    0.4066 H   0  0  0  0  0  0  0  0  0  0  0  0
    0.1493    0.3685   -0.2976 H   0  0  0  0  0  0  0  0  0  0  0  0
    2.5426   -1.0293   -0.0759 C   0  0  0  0  0  0  0  0  0  0  0  0
    2.1393    0.3383    0.4836 C   0  0  0  0  0  0  0  0  0  0  0  0
    1.1515    1.0368   -0.2857 N   0  0  0  0  0  0  0  0  0  0  0  0
    3.2827   -1.4991    0.5670 H   0  0  0  0  0  0  0  0  0  0  0  0
    1.6666   -1.6710   -0.1362 H   0  0  0  0  0  0  0  0  0  0  0  0
    2.9652   -0.9231   -1.0739 H   0  0  0  0  0  0  0  0  0  0  0  0
    3.0313    0.9791    0.5363 H   0  0  0  0  0  0  0  0  0  0  0  0
    1.7499    0.2264    1.5002 H   0  0  0  0  0  0  0  0  0  0  0  0
    1.4393    1.0613   -1.2626 H   0  0  0  0  0  0  0  0  0  0  0  0
  1  2  1  0
  1  4  1  0
  1  5  1  0
  1  6  1  0
  2  3  2  0
  2  7  1  0
  8 11  1  0
  9 10  1  0
  9 12  1  0
  9 13  1  0
  9 14  1  0
 10 11  1  0
 10 15  1  0
 10 16  1  0
 11 17  1  0
M  RAD  1   3   2
M  END
>  <reaction>  (14) 
rmg_rxn_16771

>  <mol_properties>  (14) 
{"1": {"label": "*0", "atom_type": "Cd"}, "2": {"label": "*1", "atom_type": "N3d"}, "7": {"label": "*2", "atom_type": "H0"}, "9": {"label": "*4", "atom_type": "Cs"}, "10": {"label": "*3", "atom_type": "N3s"}}

>  <type>  (14) 
unop_10

>  <geom_source>  (14) 
Heuristics

$$$$

     RDKit          3D

 17 15  0  0  0  0  0  0  0  0999 V2000
    0.0854    0.1668   -2.9578 C   0  0  0  0  0  0  0  0  0  0  0  0
    0.0854    0.1668   -1.4655 C   0  0  0  0  0  0  0  0  0  0  0  0
    0.0854    1.2394   -0.7978 N   0  0  0  0  0  2  0  0  0  0  0  0
    0.9637   -0.3632   -3.3352 H   0  0  0  0  0  0  0  0  0  0  0  0
   -0.7928   -0.3632   -3.3352 H   0  0  0  0  0  0  0  0  0  0  0  0
    0.0854    1.1874   -3.3364 H   0  0  0  0  0  0  0  0  0  0  0  0
    0.0854   -0.8229   -0.9908 H   0  0  0  0  0  0  0  0  0  0  0  0
    0.0854    1.0093    0.4018 H   0  0  0  0  0  0  0  0  0  0  0  0
    0.2106   -1.7402    1.5945 C   0  0  0  0  0  0  0  0  0  0  0  0
   -0.5970   -0.4764    1.8722 C   0  0  0  0  0  0  0  0  0  0  0  0
    0.0854    0.7804    1.5945 N   0  0  0  0  0  0  0  0  0  0  0  0
    1.1214   -1.7594    2.1982 H   0  0  0  0  0  0  0  0  0  0  0  0
   -0.3658   -2.6390    1.8260 H   0  0  0  0  0  0  0  0  0  0  0  0
    0.5043   -1.7900    0.5430 H   0  0  0  0  0  0  0  0  0  0  0  0
   -0.9076   -0.4625    2.9199 H   0  0  0  0  0  0  0  0  0  0  0  0
   -1.5177   -0.4928    1.2836 H   0  0  0  0  0  0  0  0  0  0  0  0
    0.9315    0.8530    2.1451 H   0  0  0  0  0  0  0  0  0  0  0  0
  1  2  1  0
  1  4  1  0
  1  5  1  0
  1  6  1  0
  2  3  2  0
  2  7  1  0
  8 11  1  0
  9 10  1  0
  9 12  1  0
  9 13  1  0
  9 14  1  0
 10 11  1  0
 10 15  1  0
 10 16  1  0
 11 17  1  0
M  RAD  1   3   2
M  END
>  <reaction>  (15) 
rmg_rxn_16771

>  <mol_properties>  (15) 
{"1": {"label": "*0", "atom_type": "Cd"}, "2": {"label": "*1", "atom_type": "N3d"}, "7": {"label": "*2", "atom_type": "H0"}, "9": {"label": "*4", "atom_type": "Cs"}, "10": {"label": "*3", "atom_type": "N3s"}}

>  <type>  (15) 
unop_11

>  <geom_source>  (15) 
Heuristics

$$$$

     RDKit          3D

 17 15  0  0  0  0  0  0  0  0999 V2000
   -0.6154   -0.2576   -2.8735 C   0  0  0  0  0  0  0  0  0  0  0  0
   -0.6154   -0.2576   -1.3812 C   0  0  0  0  0  0  0  0  0  0  0  0
   -0.6154    0.8150   -0.7135 N   0  0  0  0  0  2  0  0  0  0  0  0
    0.2629   -0.7876   -3.2509 H   0  0  0  0  0  0  0  0  0  0  0  0
   -1.4937   -0.7876   -3.2509 H   0  0  0  0  0  0  0  0  0  0  0  0
   -0.6154    0.7630   -3.2521 H   0  0  0  0  0  0  0  0  0  0  0  0
   -0.6154   -1.2473   -0.9065 H   0  0  0  0  0  0  0  0  0  0  0  0
   -0.6154    0.5849    0.4861 H   0  0  0  0  0  0  0  0  0  0  0  0
    1.7740   -0.2458    1.1332 C   0  0  0  0  0  0  0  0  0  0  0  0
    0.5666   -0.4102    2.0506 C   0  0  0  0  0  0  0  0  0  0  0  0
   -0.6154    0.3560    1.6788 N   0  0  0  0  0  0  0  0  0  0  0  0
    2.0972    0.7976    1.1001 H   0  0  0  0  0  0  0  0  0  0  0  0
    2.6181   -0.8491    1.4756 H   0  0  0  0  0  0  0  0  0  0  0  0
    1.5314   -0.5541    0.1132 H   0  0  0  0  0  0  0  0  0  0  0  0
    0.8397   -0.1276    3.0704 H   0  0  0  0  0  0  0  0  0  0  0  0
    0.2803   -1.4640    2.0948 H   0  0  0  0  0  0  0  0  0  0  0  0
   -0.4034    1.3454    1.6569 H   0  0  0  0  0  0  0  0  0  0  0  0
  1  2  1  0
  1  4  1  0
  1  5  1  0
  1  6  1  0
  2  3  2  0
  2  7  1  0
  8 11  1  0
  9 10  1  0
  9 12  1  0
  9 13  1  0
  9 14  1  0
 10 11  1  0
 10 15  1  0
 10 16  1  0
 11 17  1  0
M  RAD  1   3   2
M  END
>  <reaction>  (16) 
rmg_rxn_16771

>  <mol_properties>  (16) 
{"1": {"label": "*0", "atom_type": "Cd"}, "2": {"label": "*1", "atom_type": "N3d"}, "7": {"label": "*2", "atom_type": "H0"}, "9": {"label": "*4", "atom_type": "Cs"}, "10": {"label": "*3", "atom_type": "N3s"}}

>  <type>  (16) 
unop_12

>  <geom_source>  (16) 
Heuristics

$$$$

     RDKit          3D

 17 15  0  0  0  0  0  0  0  0999 V2000
    0.4933   -0.8025   -3.1911 C   0  0  0  0  0  0  0  0  0  0  0  0
    0.4933   -0.8025   -1.6988 C   0  0  0  0  0  0  0  0  0  0  0  0
    0.4933    0.2701   -1.0311 N   0  0  0  0  0  2  0  0  0  0  0  0
    1.3716   -1.3325   -3.5685 H   0  0  0  0  0  0  0  0  0  0  0  0
   -0.3849   -1.3325   -3.5685 H   0  0  0  0  0  0  0  0  0  0  0  0
    0.4933    0.2181   -3.5697 H   0  0  0  0  0  0  0  0  0  0  0  0
    0.4933   -1.7922   -1.2241 H   0  0  0  0  0  0  0  0  0  0  0  0
    0.4933    0.0400    0.1685 H   0  0  0  0  0  0  0  0  0  0  0  0
   -1.6895    0.6832    2.2799 C   0  0  0  0  0  0  0  0  0  0  0  0
   -0.1891    0.8760    2.0844 C   0  0  0  0  0  0  0  0  0  0  0  0
    0.4933   -0.1889    1.3612 N   0  0  0  0  0  0  0  0  0  0  0  0
   -1.8934   -0.2322    2.8410 H   0  0  0  0  0  0  0  0  0  0  0  0
   -2.1293    1.5195    2.8285 H   0  0  0  0  0  0  0  0  0  0  0  0
   -2.1999    0.6067    1.3166 H   0  0  0  0  0  0  0  0  0  0  0  0
    0.2969    0.9825    3.0574 H   0  0  0  0  0  0  0  0  0  0  0  0
   -0.0061    1.8118    1.5504 H   0  0  0  0  0  0  0  0  0  0  0  0
    0.3769   -1.0729    1.8399 H   0  0  0  0  0  0  0  0  0  0  0  0
  1  2  1  0
  1  4  1  0
  1  5  1  0
  1  6  1  0
  2  3  2  0
  2  7  1  0
  8 11  1  0
  9 10  1  0
  9 12  1  0
  9 13  1  0
  9 14  1  0
 10 11  1  0
 10 15  1  0
 10 16  1  0
 11 17  1  0
M  RAD  1   3   2
M  END
>  <reaction>  (17) 
rmg_rxn_16771

>  <mol_properties>  (17) 
{"1": {"label": "*0", "atom_type": "Cd"}, "2": {"label": "*1", "atom_type": "N3d"}, "7": {"label": "*2", "atom_type": "H0"}, "9": {"label": "*4", "atom_type": "Cs"}, "10": {"label": "*3", "atom_type": "N3s"}}

>  <type>  (17) 
unop_13

>  <geom_source>  (17) 
Heuristics

$$$$

     RDKit          3D

 17 15  0  0  0  0  0  0  0  0999 V2000
   -0.2124    0.1391   -2.8905 C   0  0  0  0  0  0  0  0  0  0  0  0
   -0.2124    0.1391   -1.3982 C   0  0  0  0  0  0  0  0  0  0  0  0
   -0.2124    1.2117   -0.7305 N   0  0  0  0  0  2  0  0  0  0  0  0
    0.6659   -0.3909   -3.2679 H   0  0  0  0  0  0  0  0  0  0  0  0
   -1.0906   -0.3909   -3.2679 H   0  0  0  0  0  0  0  0  0  0  0  0
   -0.2124    1.1597   -3.2691 H   0  0  0  0  0  0  0  0  0  0  0  0
   -0.2124   -0.8506   -0.9235 H   0  0  0  0  0  0  0  0  0  0  0  0
   -0.2124    0.9816    0.4691 H   0  0  0  0  0  0  0  0  0  0  0  0
    0.9666   -1.4518    1.3163 C   0  0  0  0  0  0  0  0  0  0  0  0
   -0.2124   -0.6837    1.9050 C   0  0  0  0  0  0  0  0  0  0  0  0
   -0.2124    0.7527    1.6618 N   0  0  0  0  0  0  0  0  0  0  0  0
    1.9118   -1.0837    1.7230 H   0  0  0  0  0  0  0  0  0  0  0  0
    0.8968   -2.5190    1.5395 H   0  0  0  0  0  0  0  0  0  0  0  0
    1.0015   -1.3365    0.2300 H   0  0  0  0  0  0  0  0  0  0  0  0
   -0.2478   -0.8386    2.9863 H   0  0  0  0  0  0  0  0  0  0  0  0
   -1.1477   -1.0885    1.5103 H   0  0  0  0  0  0  0  0  0  0  0  0
    0.6250    1.1760    2.0412 H   0  0  0  0  0  0  0  0  0  0  0  0
  1  2  1  0
  1  4  1  0
  1  5  1  0
  1  6  1  0
  2  3  2  0
  2  7  1  0
  8 11  1  0
  9 10  1  0
  9 12  1  0
  9 13  1  0
  9 14  1  0
 10 11  1  0
 10 15  1  0
 10 16  1  0
 11 17  1  0
M  RAD  1   3   2
M  END
>  <reaction>  (18) 
rmg_rxn_16771

>  <mol_properties>  (18) 
{"1": {"label": "*0", "atom_type": "Cd"}, "2": {"label": "*1", "atom_type": "N3d"}, "7": {"label": "*2", "atom_type": "H0"}, "9": {"label": "*4", "atom_type": "Cs"}, "10": {"label": "*3", "atom_type": "N3s"}}

>  <type>  (18) 
unop_14

>  <geom_source>  (18) 
Heuristics

$$$$

     RDKit          3D

 17 15  0  0  0  0  0  0  0  0999 V2000
   -0.4573   -0.0134   -2.8595 C   0  0  0  0  0  0  0  0  0  0  0  0
   -0.4573   -0.0134   -1.3672 C   0  0  0  0  0  0  0  0  0  0  0  0
   -0.4573    1.0592   -0.6995 N   0  0  0  0  0  2  0  0  0  0  0  0
    0.4210   -0.5434   -3.2369 H   0  0  0  0  0  0  0  0  0  0  0  0
   -1.3355   -0.5434   -3.2369 H   0  0  0  0  0  0  0  0  0  0  0  0
   -0.4573    1.0072   -3.2381 H   0  0  0  0  0  0  0  0  0  0  0  0
   -0.4573   -1.0031   -0.8925 H   0  0  0  0  0  0  0  0  0  0  0  0
   -0.4573    0.8291    0.5001 H   0  0  0  0  0  0  0  0  0  0  0  0
    1.4819   -0.9201    1.1472 C   0  0  0  0  0  0  0  0  0  0  0  0
    0.2252   -0.6566    1.9705 C   0  0  0  0  0  0  0  0  0  0  0  0
   -0.4573    0.6002    1.6928 N   0  0  0  0  0  0  0  0  0  0  0  0
    2.2261   -0.1372    1.3135 H   0  0  0  0  0  0  0  0  0  0  0  0
    1.9361   -1.8780    1.4110 H   0  0  0  0  0  0  0  0  0  0  0  0
    1.2494   -0.9402    0.0795 H   0  0  0  0  0  0  0  0  0  0  0  0
    0.4738   -0.6728    3.0346 H   0  0  0  0  0  0  0  0  0  0  0  0
   -0.4918   -1.4666    1.8147 H   0  0  0  0  0  0  0  0  0  0  0  0
    0.1628    1.3833    1.8559 H   0  0  0  0  0  0  0  0  0  0  0  0
  1  2  1  0
  1  4  1  0
  1  5  1  0
  1  6  1  0
  2  3  2  0
  2  7  1  0
  8 11  1  0
  9 10  1  0
  9 12  1  0
  9 13  1  0
  9 14  1  0
 10 11  1  0
 10 15  1  0
 10 16  1  0
 11 17  1  0
M  RAD  1   3   2
M  END
>  <reaction>  (19) 
rmg_rxn_16771

>  <mol_properties>  (19) 
{"1": {"label": "*0", "atom_type": "Cd"}, "2": {"label": "*1", "atom_type": "N3d"}, "7": {"label": "*2", "atom_type": "H0"}, "9": {"label": "*4", "atom_type": "Cs"}, "10": {"label": "*3", "atom_type": "N3s"}}

>  <type>  (19) 
unop_15

>  <geom_source>  (19) 
gaussian_log

$$$$
