
     RDKit          3D

  3  2  0  0  0  0  0  0  0  0999 V2000
   -0.0007    0.6157    0.0000 S   0  0  0  0  0  0  0  0  0  0  0  0
   -0.9686   -0.3090    0.0000 H   0  0  0  0  0  0  0  0  0  0  0  0
    0.9693   -0.3067    0.0000 H   0  0  0  0  0  0  0  0  0  0  0  0
  1  2  1  0
  1  3  1  0
M  END
>  <reaction>  (1) 
rmg_rxn_83

>  <mol_properties>  (1) 
{"0": {"label": "donator", "atom_type": "S2s"}, "1": {"label": "d_hydrogen", "atom_type": "H0"}}

>  <type>  (1) 
r1h

$$$$

     RDKit          3D

 14 13  0  0  0  0  0  0  0  0999 V2000
    2.5796   -0.5432    0.2329 C   0  0  0  0  0  3  0  0  0  0  0  0
    1.2594    0.0982    0.3029 C   0  0  0  0  0  0  0  0  0  0  0  0
   -0.0483   -1.0244    0.9576 S   0  0  0  0  0  0  0  0  0  0  0  0
   -0.0049   -2.3732   -0.2491 C   0  0  0  0  0  0  0  0  0  0  0  0
   -0.3891   -1.9781   -1.6653 C   0  0  0  0  0  0  0  0  0  0  0  0
    2.9359   -0.9798   -0.6903 H   0  0  0  0  0  0  0  0  0  0  0  0
    3.1327   -0.7454    1.1400 H   0  0  0  0  0  0  0  0  0  0  0  0
    0.9347    0.4858   -0.6621 H   0  0  0  0  0  0  0  0  0  0  0  0
    1.2442    0.9220    1.0193 H   0  0  0  0  0  0  0  0  0  0  0  0
    0.9819   -2.8380   -0.2257 H   0  0  0  0  0  0  0  0  0  0  0  0
   -0.7110   -3.1037    0.1493 H   0  0  0  0  0  0  0  0  0  0  0  0
    0.3274   -1.2737   -2.0913 H   0  0  0  0  0  0  0  0  0  0  0  0
   -0.4075   -2.8581   -2.3121 H   0  0  0  0  0  0  0  0  0  0  0  0
   -1.3749   -1.5123   -1.6865 H   0  0  0  0  0  0  0  0  0  0  0  0
  1  2  1  0
  1  6  1  0
  1  7  1  0
  2  3  1  0
  2  8  1  0
  2  9  1  0
  3  4  1  0
  4  5  1  0
  4 10  1  0
  4 11  1  0
  5 12  1  0
  5 13  1  0
  5 14  1  0
M  RAD  1   1   2
M  END
>  <reaction>  (2) 
rmg_rxn_83

>  <mol_properties>  (2) 
{"0": {"label": "acceptor", "atom_type": "Cs"}}

>  <type>  (2) 
r2

$$$$

     RDKit          3D

 15 14  0  0  0  0  0  0  0  0999 V2000
   -2.0554    0.0723   -0.4910 C   0  0  0  0  0  0  0  0  0  0  0  0
   -0.7461   -0.6266   -0.8178 C   0  0  0  0  0  0  0  0  0  0  0  0
    0.3249    0.2591   -1.9782 S   0  0  0  0  0  0  0  0  0  0  0  0
   -0.7172    0.3642   -3.4551 C   0  0  0  0  0  0  0  0  0  0  0  0
   -1.1375   -0.9737   -4.0409 C   0  0  0  0  0  0  0  0  0  0  0  0
   -2.7005    0.1427   -1.3684 H   0  0  0  0  0  0  0  0  0  0  0  0
   -2.6016   -0.4848    0.2733 H   0  0  0  0  0  0  0  0  0  0  0  0
   -1.8758    1.0825   -0.1213 H   0  0  0  0  0  0  0  0  0  0  0  0
   -0.1320   -0.7246    0.0789 H   0  0  0  0  0  0  0  0  0  0  0  0
   -0.9254   -1.6374   -1.1879 H   0  0  0  0  0  0  0  0  0  0  0  0
   -1.5873    0.9874   -3.2422 H   0  0  0  0  0  0  0  0  0  0  0  0
   -0.1021    0.9161   -4.1678 H   0  0  0  0  0  0  0  0  0  0  0  0
   -1.7876   -1.5224   -3.3574 H   0  0  0  0  0  0  0  0  0  0  0  0
   -0.2676   -1.5962   -4.2534 H   0  0  0  0  0  0  0  0  0  0  0  0
   -1.6916   -0.8229   -4.9700 H   0  0  0  0  0  0  0  0  0  0  0  0
  1  2  1  0
  1  6  1  0
  1  7  1  0
  1  8  1  0
  2  3  1  0
  2  9  1  0
  2 10  1  0
  3  4  1  0
  4  5  1  0
  4 11  1  0
  4 12  1  0
  5 13  1  0
  5 14  1  0
  5 15  1  0
M  END
>  <reaction>  (3) 
rmg_rxn_83

>  <mol_properties>  (3) 
{"0": {"label": "a_hydrogen", "atom_type": "H0"}, "1": {"label": "acceptor", "atom_type": "Cs"}}

>  <type>  (3) 
r2h

$$$$

     RDKit          3D

 17 15  0  0  0  0  0  0  0  0999 V2000
   -1.1047   -2.4538    0.9348 S   0  0  0  0  0  0  0  0  0  0  0  0
   -1.1063   -1.0072    1.1296 H   0  0  0  0  0  0  0  0  0  0  0  0
   -0.4280   -2.3009   -0.2123 H   0  0  0  0  0  0  0  0  0  0  0  0
   -1.0443    0.5402    1.1922 C   0  0  0  0  0  3  0  0  0  0  0  0
   -1.0766    1.0209   -0.2188 C   0  0  0  0  0  0  0  0  0  0  0  0
    0.2461    0.4259   -1.3070 S   0  0  0  0  0  0  0  0  0  0  0  0
    1.7360    0.8993   -0.3942 C   0  0  0  0  0  0  0  0  0  0  0  0
    1.8765    2.3875   -0.1216 C   0  0  0  0  0  0  0  0  0  0  0  0
   -0.1214    0.6557    1.7508 H   0  0  0  0  0  0  0  0  0  0  0  0
   -1.9455    0.7028    1.7762 H   0  0  0  0  0  0  0  0  0  0  0  0
   -1.0785    2.1172   -0.2321 H   0  0  0  0  0  0  0  0  0  0  0  0
   -1.9981    0.7040   -0.7100 H   0  0  0  0  0  0  0  0  0  0  0  0
    1.7942    0.3204    0.5290 H   0  0  0  0  0  0  0  0  0  0  0  0
    2.5482    0.5494   -1.0334 H   0  0  0  0  0  0  0  0  0  0  0  0
    1.0925    2.7487    0.5463 H   0  0  0  0  0  0  0  0  0  0  0  0
    2.8354    2.5938    0.3583 H   0  0  0  0  0  0  0  0  0  0  0  0
    1.8230    2.9603   -1.0480 H   0  0  0  0  0  0  0  0  0  0  0  0
  1  2  1  0
  1  3  1  0
  4  5  1  0
  4  9  1  0
  4 10  1  0
  5  6  1  0
  5 11  1  0
  5 12  1  0
  6  7  1  0
  7  8  1  0
  7 13  1  0
  7 14  1  0
  8 15  1  0
  8 16  1  0
  8 17  1  0
M  RAD  1   4   2
M  END
>  <reaction>  (4) 
rmg_rxn_83

>  <mol_properties>  (4) 
{"0": {"label": "*1", "atom_type": "S2s"}, "1": {"label": "*2", "atom_type": "H0"}, "2": {"label": "*0", "atom_type": "H0"}, "3": {"label": "*3", "atom_type": "Cs"}, "4": {"label": "*4", "atom_type": "Cs"}}

>  <type>  (4) 
ts

$$$$

     RDKit          3D

 17 15  0  0  0  0  0  0  0  0999 V2000
    1.2014   -3.1245    0.1295 S   0  0  0  0  0  1  0  0  0  0  0  0
    1.2014   -1.5200    0.2066 H   0  0  0  0  0  0  0  0  0  0  0  0
    1.2014   -3.1245   -1.2091 H   0  0  0  0  0  0  0  0  0  0  0  0
    1.2014   -0.2129    0.2694 C   0  0  0  0  0  0  0  0  0  0  0  0
   -0.0279    0.2951    1.0044 C   0  0  0  0  0  0  0  0  0  0  0  0
   -1.4218    0.7481   -0.0587 S   0  0  0  0  0  0  0  0  0  0  0  0
   -0.7113    2.0640   -1.0794 C   0  0  0  0  0  0  0  0  0  0  0  0
   -0.2183    3.2782   -0.3097 C   0  0  0  0  0  0  0  0  0  0  0  0
    1.6476    0.5674   -0.3496 H   0  0  0  0  0  0  0  0  0  0  0  0
    1.9612   -0.5394    0.9829 H   0  0  0  0  0  0  0  0  0  0  0  0
    0.2245    1.1370    1.6511 H   0  0  0  0  0  0  0  0  0  0  0  0
   -0.4362   -0.4850    1.6490 H   0  0  0  0  0  0  0  0  0  0  0  0
    0.0814    1.6506   -1.7051 H   0  0  0  0  0  0  0  0  0  0  0  0
   -1.5271    2.3423   -1.7486 H   0  0  0  0  0  0  0  0  0  0  0  0
    0.6255    3.0267    0.3351 H   0  0  0  0  0  0  0  0  0  0  0  0
    0.1178    4.0540   -1.0012 H   0  0  0  0  0  0  0  0  0  0  0  0
   -1.0107    3.6910    0.3155 H   0  0  0  0  0  0  0  0  0  0  0  0
  1  3  1  0
  2  4  1  0
  4  5  1  0
  4  9  1  0
  4 10  1  0
  5  6  1  0
  5 11  1  0
  5 12  1  0
  6  7  1  0
  7  8  1  0
  7 13  1  0
  7 14  1  0
  8 15  1  0
  8 16  1  0
  8 17  1  0
M  RAD  1   1   2
M  END
>  <reaction>  (5) 
rmg_rxn_83

>  <mol_properties>  (5) 
{"0": {"label": "*1", "atom_type": "S2s"}, "1": {"label": "*2", "atom_type": "H0"}, "2": {"label": "*0", "atom_type": "H0"}, "3": {"label": "*3", "atom_type": "Cs"}, "4": {"label": "*4", "atom_type": "Cs"}}

>  <type>  (5) 
unop_1

>  <geom_source>  (5) 
Heuristics

$$$$

     RDKit          3D

 17 15  0  0  0  0  0  0  0  0999 V2000
   -0.3477   -2.8527    1.2667 S   0  0  0  0  0  1  0  0  0  0  0  0
   -0.3477   -1.2482    1.3438 H   0  0  0  0  0  0  0  0  0  0  0  0
   -0.3477   -2.8527   -0.0719 H   0  0  0  0  0  0  0  0  0  0  0  0
   -0.3477    0.0589    1.4066 C   0  0  0  0  0  0  0  0  0  0  0  0
   -1.0575    0.6599    0.2047 C   0  0  0  0  0  0  0  0  0  0  0  0
   -0.1388    0.5647   -1.3526 S   0  0  0  0  0  0  0  0  0  0  0  0
    1.3587    1.5080   -0.9705 C   0  0  0  0  0  0  0  0  0  0  0  0
    1.1227    2.9589   -0.5850 C   0  0  0  0  0  0  0  0  0  0  0  0
    0.5569    0.6161    1.6560 H   0  0  0  0  0  0  0  0  0  0  0  0
   -0.9996    0.0835    2.2826 H   0  0  0  0  0  0  0  0  0  0  0  0
   -1.3404    1.6962    0.3968 H   0  0  0  0  0  0  0  0  0  0  0  0
   -1.9799    0.1159   -0.0047 H   0  0  0  0  0  0  0  0  0  0  0  0
    1.9292    0.9874   -0.1995 H   0  0  0  0  0  0  0  0  0  0  0  0
    1.9446    1.4480   -1.8892 H   0  0  0  0  0  0  0  0  0  0  0  0
    0.5728    3.0383    0.3543 H   0  0  0  0  0  0  0  0  0  0  0  0
    2.0759    3.4751   -0.4512 H   0  0  0  0  0  0  0  0  0  0  0  0
    0.5525    3.4788   -1.3557 H   0  0  0  0  0  0  0  0  0  0  0  0
  1  3  1  0
  2  4  1  0
  4  5  1  0
  4  9  1  0
  4 10  1  0
  5  6  1  0
  5 11  1  0
  5 12  1  0
  6  7  1  0
  7  8  1  0
  7 13  1  0
  7 14  1  0
  8 15  1  0
  8 16  1  0
  8 17  1  0
M  RAD  1   1   2
M  END
>  <reaction>  (6) 
rmg_rxn_83

>  <mol_properties>  (6) 
{"0": {"label": "*1", "atom_type": "S2s"}, "1": {"label": "*2", "atom_type": "H0"}, "2": {"label": "*0", "atom_type": "H0"}, "3": {"label": "*3", "atom_type": "Cs"}, "4": {"label": "*4", "atom_type": "Cs"}}

>  <type>  (6) 
unop_2

>  <geom_source>  (6) 
Heuristics

$$$$

     RDKit          3D

 17 15  0  0  0  0  0  0  0  0999 V2000
    1.2912   -2.9355   -0.5015 S   0  0  0  0  0  1  0  0  0  0  0  0
    1.2912   -1.3310   -0.4244 H   0  0  0  0  0  0  0  0  0  0  0  0
    1.2912   -2.9355   -1.8401 H   0  0  0  0  0  0  0  0  0  0  0  0
    1.2912   -0.0239   -0.3616 C   0  0  0  0  0  0  0  0  0  0  0  0
    0.5815    0.4592    0.8924 C   0  0  0  0  0  0  0  0  0  0  0  0
   -1.2203    0.5742    0.7553 S   0  0  0  0  0  0  0  0  0  0  0  0
   -1.4251    1.7744   -0.5848 C   0  0  0  0  0  0  0  0  0  0  0  0
   -0.8279    3.1456   -0.3154 C   0  0  0  0  0  0  0  0  0  0  0  0
    1.1828    0.6883   -1.1814 H   0  0  0  0  0  0  0  0  0  0  0  0
    2.3600   -0.1425   -0.1699 H   0  0  0  0  0  0  0  0  0  0  0  0
    0.9827    1.4188    1.2226 H   0  0  0  0  0  0  0  0  0  0  0  0
    0.7348   -0.2445    1.7123 H   0  0  0  0  0  0  0  0  0  0  0  0
   -1.0333    1.3537   -1.5123 H   0  0  0  0  0  0  0  0  0  0  0  0
   -2.5073    1.8468   -0.7050 H   0  0  0  0  0  0  0  0  0  0  0  0
    0.2593    3.0986   -0.2329 H   0  0  0  0  0  0  0  0  0  0  0  0
   -1.0651    3.8293   -1.1335 H   0  0  0  0  0  0  0  0  0  0  0  0
   -1.2195    3.5656    0.6117 H   0  0  0  0  0  0  0  0  0  0  0  0
  1  3  1  0
  2  4  1  0
  4  5  1  0
  4  9  1  0
  4 10  1  0
  5  6  1  0
  5 11  1  0
  5 12  1  0
  6  7  1  0
  7  8  1  0
  7 13  1  0
  7 14  1  0
  8 15  1  0
  8 16  1  0
  8 17  1  0
M  RAD  1   1   2
M  END
>  <reaction>  (7) 
rmg_rxn_83

>  <mol_properties>  (7) 
{"0": {"label": "*1", "atom_type": "S2s"}, "1": {"label": "*2", "atom_type": "H0"}, "2": {"label": "*0", "atom_type": "H0"}, "3": {"label": "*3", "atom_type": "Cs"}, "4": {"label": "*4", "atom_type": "Cs"}}

>  <type>  (7) 
unop_3

>  <geom_source>  (7) 
Heuristics

$$$$

     RDKit          3D

 17 15  0  0  0  0  0  0  0  0999 V2000
   -1.5749   -1.9888   -0.1424 S   0  0  0  0  0  1  0  0  0  0  0  0
   -1.5749   -0.3843   -0.0654 H   0  0  0  0  0  0  0  0  0  0  0  0
   -1.5749   -1.9888   -1.4811 H   0  0  0  0  0  0  0  0  0  0  0  0
   -1.5749    0.9229   -0.0026 C   0  0  0  0  0  0  0  0  0  0  0  0
   -0.3455    1.4989   -0.6855 C   0  0  0  0  0  0  0  0  0  0  0  0
    1.0649    0.3695   -0.8015 S   0  0  0  0  0  0  0  0  0  0  0  0
    1.4185    0.0206    0.9396 C   0  0  0  0  0  0  0  0  0  0  0  0
    1.7829    1.2356    1.7767 C   0  0  0  0  0  0  0  0  0  0  0  0
   -1.3835    0.7088    1.0503 H   0  0  0  0  0  0  0  0  0  0  0  0
   -2.4015    1.6354   -0.0470 H   0  0  0  0  0  0  0  0  0  0  0  0
   -0.0300    2.4259   -0.2037 H   0  0  0  0  0  0  0  0  0  0  0  0
   -0.5670    1.7449   -1.7253 H   0  0  0  0  0  0  0  0  0  0  0  0
    0.5782   -0.5186    1.3801 H   0  0  0  0  0  0  0  0  0  0  0  0
    2.2547   -0.6793    0.8993 H   0  0  0  0  0  0  0  0  0  0  0  0
    0.9438    1.9281    1.8621 H   0  0  0  0  0  0  0  0  0  0  0  0
    2.0593    0.9295    2.7881 H   0  0  0  0  0  0  0  0  0  0  0  0
    2.6226    1.7743    1.3362 H   0  0  0  0  0  0  0  0  0  0  0  0
  1  3  1  0
  2  4  1  0
  4  5  1  0
  4  9  1  0
  4 10  1  0
  5  6  1  0
  5 11  1  0
  5 12  1  0
  6  7  1  0
  7  8  1  0
  7 13  1  0
  7 14  1  0
  8 15  1  0
  8 16  1  0
  8 17  1  0
M  RAD  1   1   2
M  END
>  <reaction>  (8) 
rmg_rxn_83

>  <mol_properties>  (8) 
{"0": {"label": "*1", "atom_type": "S2s"}, "1": {"label": "*2", "atom_type": "H0"}, "2": {"label": "*0", "atom_type": "H0"}, "3": {"label": "*3", "atom_type": "Cs"}, "4": {"label": "*4", "atom_type": "Cs"}}

>  <type>  (8) 
unop_4

>  <geom_source>  (8) 
Heuristics

$$$$

     RDKit          3D

 17 15  0  0  0  0  0  0  0  0999 V2000
    1.0264   -2.4307   -1.2530 S   0  0  0  0  0  1  0  0  0  0  0  0
    1.0264   -0.8262   -1.1759 H   0  0  0  0  0  0  0  0  0  0  0  0
    1.0264   -2.4307   -2.5916 H   0  0  0  0  0  0  0  0  0  0  0  0
    1.0264    0.4810   -1.1131 C   0  0  0  0  0  0  0  0  0  0  0  0
    1.0264    0.9549    0.3308 C   0  0  0  0  0  0  0  0  0  0  0  0
   -0.3200    0.3018    1.3502 S   0  0  0  0  0  0  0  0  0  0  0  0
   -1.7866    0.9188    0.4861 C   0  0  0  0  0  0  0  0  0  0  0  0
   -1.8850    2.4322    0.3885 C   0  0  0  0  0  0  0  0  0  0  0  0
    0.1511    0.8458   -1.6533 H   0  0  0  0  0  0  0  0  0  0  0  0
    1.9114    0.8533   -1.6339 H   0  0  0  0  0  0  0  0  0  0  0  0
    1.0263    2.0448    0.3836 H   0  0  0  0  0  0  0  0  0  0  0  0
    1.9280    0.6155    0.8435 H   0  0  0  0  0  0  0  0  0  0  0  0
   -1.8461    0.4596   -0.5020 H   0  0  0  0  0  0  0  0  0  0  0  0
   -2.6182    0.5194    1.0690 H   0  0  0  0  0  0  0  0  0  0  0  0
   -1.0834    2.8458   -0.2258 H   0  0  0  0  0  0  0  0  0  0  0  0
   -2.8326    2.7212   -0.0715 H   0  0  0  0  0  0  0  0  0  0  0  0
   -1.8253    2.8908    1.3762 H   0  0  0  0  0  0  0  0  0  0  0  0
  1  3  1  0
  2  4  1  0
  4  5  1  0
  4  9  1  0
  4 10  1  0
  5  6  1  0
  5 11  1  0
  5 12  1  0
  6  7  1  0
  7  8  1  0
  7 13  1  0
  7 14  1  0
  8 15  1  0
  8 16  1  0
  8 17  1  0
M  RAD  1   1   2
M  END
>  <reaction>  (9) 
rmg_rxn_83

>  <mol_properties>  (9) 
{"0": {"label": "*1", "atom_type": "S2s"}, "1": {"label": "*2", "atom_type": "H0"}, "2": {"label": "*0", "atom_type": "H0"}, "3": {"label": "*3", "atom_type": "Cs"}, "4": {"label": "*4", "atom_type": "Cs"}}

>  <type>  (9) 
unop_5

>  <geom_source>  (9) 
Heuristics

$$$$

     RDKit          3D

 17 15  0  0  0  0  0  0  0  0999 V2000
   -1.3725   -1.8575   -0.8308 S   0  0  0  0  0  1  0  0  0  0  0  0
   -1.3725   -0.2530   -0.7537 H   0  0  0  0  0  0  0  0  0  0  0  0
   -1.3725   -1.8575   -2.1694 H   0  0  0  0  0  0  0  0  0  0  0  0
   -1.3725    1.0541   -0.6909 C   0  0  0  0  0  0  0  0  0  0  0  0
    0.0471    1.5962   -0.6648 C   0  0  0  0  0  0  0  0  0  0  0  0
    1.3253    0.3745   -0.2751 S   0  0  0  0  0  0  0  0  0  0  0  0
    0.8332   -0.1787    1.3772 C   0  0  0  0  0  0  0  0  0  0  0  0
    0.8038    0.9105    2.4366 C   0  0  0  0  0  0  0  0  0  0  0  0
   -1.6900    0.7184    0.2977 H   0  0  0  0  0  0  0  0  0  0  0  0
   -2.0689    1.8318   -1.0121 H   0  0  0  0  0  0  0  0  0  0  0  0
    0.1298    2.4402    0.0219 H   0  0  0  0  0  0  0  0  0  0  0  0
    0.3327    1.9646   -1.6515 H   0  0  0  0  0  0  0  0  0  0  0  0
   -0.1286   -0.6907    1.3175 H   0  0  0  0  0  0  0  0  0  0  0  0
    1.5773   -0.9360    1.6295 H   0  0  0  0  0  0  0  0  0  0  0  0
    0.0364    1.6561    2.2219 H   0  0  0  0  0  0  0  0  0  0  0  0
    0.5785    0.4810    3.4153 H   0  0  0  0  0  0  0  0  0  0  0  0
    1.7652    1.4221    2.4959 H   0  0  0  0  0  0  0  0  0  0  0  0
  1  3  1  0
  2  4  1  0
  4  5  1  0
  4  9  1  0
  4 10  1  0
  5  6  1  0
  5 11  1  0
  5 12  1  0
  6  7  1  0
  7  8  1  0
  7 13  1  0
  7 14  1  0
  8 15  1  0
  8 16  1  0
  8 17  1  0
M  RAD  1   1   2
M  END
>  <reaction>  (10) 
rmg_rxn_83

>  <mol_properties>  (10) 
{"0": {"label": "*1", "atom_type": "S2s"}, "1": {"label": "*2", "atom_type": "H0"}, "2": {"label": "*0", "atom_type": "H0"}, "3": {"label": "*3", "atom_type": "Cs"}, "4": {"label": "*4", "atom_type": "Cs"}}

>  <type>  (10) 
unop_6

>  <geom_source>  (10) 
Heuristics

$$$$

     RDKit          3D

 17 15  0  0  0  0  0  0  0  0999 V2000
   -0.8168   -1.8248   -1.4121 S   0  0  0  0  0  1  0  0  0  0  0  0
   -0.8168   -0.2203   -1.3350 H   0  0  0  0  0  0  0  0  0  0  0  0
   -0.8168   -1.8248   -2.7507 H   0  0  0  0  0  0  0  0  0  0  0  0
   -0.8168    1.0869   -1.2722 C   0  0  0  0  0  0  0  0  0  0  0  0
    0.4125    1.5949   -0.5372 C   0  0  0  0  0  0  0  0  0  0  0  0
    1.3019    0.3430    0.4219 S   0  0  0  0  0  0  0  0  0  0  0  0
    0.0418   -0.1984    1.6040 C   0  0  0  0  0  0  0  0  0  0  0  0
   -0.4881    0.8911    2.5214 C   0  0  0  0  0  0  0  0  0  0  0  0
   -1.5909    0.7588   -0.5765 H   0  0  0  0  0  0  0  0  0  0  0  0
   -1.2450    1.8810   -1.8879 H   0  0  0  0  0  0  0  0  0  0  0  0
    0.1601    2.4366    0.1097 H   0  0  0  0  0  0  0  0  0  0  0  0
    1.1587    1.9564   -1.2467 H   0  0  0  0  0  0  0  0  0  0  0  0
   -0.7732   -0.6873    1.0678 H   0  0  0  0  0  0  0  0  0  0  0  0
    0.5460   -0.9733    2.1838 H   0  0  0  0  0  0  0  0  0  0  0  0
   -1.0314    1.6548    1.9624 H   0  0  0  0  0  0  0  0  0  0  0  0
   -1.1792    0.4670    3.2532 H   0  0  0  0  0  0  0  0  0  0  0  0
    0.3267    1.3796    3.0570 H   0  0  0  0  0  0  0  0  0  0  0  0
  1  3  1  0
  2  4  1  0
  4  5  1  0
  4  9  1  0
  4 10  1  0
  5  6  1  0
  5 11  1  0
  5 12  1  0
  6  7  1  0
  7  8  1  0
  7 13  1  0
  7 14  1  0
  8 15  1  0
  8 16  1  0
  8 17  1  0
M  RAD  1   1   2
M  END
>  <reaction>  (11) 
rmg_rxn_83

>  <mol_properties>  (11) 
{"0": {"label": "*1", "atom_type": "S2s"}, "1": {"label": "*2", "atom_type": "H0"}, "2": {"label": "*0", "atom_type": "H0"}, "3": {"label": "*3", "atom_type": "Cs"}, "4": {"label": "*4", "atom_type": "Cs"}}

>  <type>  (11) 
unop_7

>  <geom_source>  (11) 
Heuristics

$$$$

     RDKit          3D

 17 15  0  0  0  0  0  0  0  0999 V2000
    0.9084   -3.1465    0.6980 S   0  0  0  0  0  1  0  0  0  0  0  0
    0.9084   -1.5420    0.7751 H   0  0  0  0  0  0  0  0  0  0  0  0
    0.9084   -3.1465   -0.6406 H   0  0  0  0  0  0  0  0  0  0  0  0
    0.9084   -0.2348    0.8379 C   0  0  0  0  0  0  0  0  0  0  0  0
   -0.5112    0.3072    0.8639 C   0  0  0  0  0  0  0  0  0  0  0  0
   -1.1806    0.7763   -0.7517 S   0  0  0  0  0  0  0  0  0  0  0  0
   -0.0254    2.0649   -1.2838 C   0  0  0  0  0  0  0  0  0  0  0  0
    0.0485    3.2777   -0.3710 C   0  0  0  0  0  0  0  0  0  0  0  0
    1.6217    0.5286    0.5228 H   0  0  0  0  0  0  0  0  0  0  0  0
    1.2047   -0.5685    1.8348 H   0  0  0  0  0  0  0  0  0  0  0  0
   -0.5938    1.1514    1.5504 H   0  0  0  0  0  0  0  0  0  0  0  0
   -1.2045   -0.4565    1.2201 H   0  0  0  0  0  0  0  0  0  0  0  0
    0.9634    1.6277   -1.4323 H   0  0  0  0  0  0  0  0  0  0  0  0
   -0.3934    2.3519   -2.2702 H   0  0  0  0  0  0  0  0  0  0  0  0
    0.4535    3.0166    0.6082 H   0  0  0  0  0  0  0  0  0  0  0  0
    0.7023    4.0381   -0.8038 H   0  0  0  0  0  0  0  0  0  0  0  0
   -0.9398    3.7143   -0.2227 H   0  0  0  0  0  0  0  0  0  0  0  0
  1  3  1  0
  2  4  1  0
  4  5  1  0
  4  9  1  0
  4 10  1  0
  5  6  1  0
  5 11  1  0
  5 12  1  0
  6  7  1  0
  7  8  1  0
  7 13  1  0
  7 14  1  0
  8 15  1  0
  8 16  1  0
  8 17  1  0
M  RAD  1   1   2
M  END
>  <reaction>  (12) 
rmg_rxn_83

>  <mol_properties>  (12) 
{"0": {"label": "*1", "atom_type": "S2s"}, "1": {"label": "*2", "atom_type": "H0"}, "2": {"label": "*0", "atom_type": "H0"}, "3": {"label": "*3", "atom_type": "Cs"}, "4": {"label": "*4", "atom_type": "Cs"}}

>  <type>  (12) 
unop_8

>  <geom_source>  (12) 
Heuristics

$$$$

     RDKit          3D

 17 15  0  0  0  0  0  0  0  0999 V2000
   -1.4560   -2.2210    0.5174 S   0  0  0  0  0  1  0  0  0  0  0  0
   -1.4560   -0.6165    0.5945 H   0  0  0  0  0  0  0  0  0  0  0  0
   -1.4560   -2.2210   -0.8212 H   0  0  0  0  0  0  0  0  0  0  0  0
   -1.4560    0.6907    0.6573 C   0  0  0  0  0  0  0  0  0  0  0  0
   -0.7463    1.2917   -0.5446 C   0  0  0  0  0  0  0  0  0  0  0  0
    0.7010    0.3678   -1.1190 S   0  0  0  0  0  0  0  0  0  0  0  0
    1.7809    0.4084    0.3337 C   0  0  0  0  0  0  0  0  0  0  0  0
    2.1899    1.7987    0.7910 C   0  0  0  0  0  0  0  0  0  0  0  0
   -0.8225    0.7091    1.5457 H   0  0  0  0  0  0  0  0  0  0  0  0
   -2.3594    1.2599    0.8873 H   0  0  0  0  0  0  0  0  0  0  0  0
   -0.4630    2.3279   -0.3524 H   0  0  0  0  0  0  0  0  0  0  0  0
   -1.4081    1.3025   -1.4122 H   0  0  0  0  0  0  0  0  0  0  0  0
    1.3152   -0.1489    1.1482 H   0  0  0  0  0  0  0  0  0  0  0  0
    2.6565   -0.1635    0.0221 H   0  0  0  0  0  0  0  0  0  0  0  0
    1.3311    2.3715    1.1452 H   0  0  0  0  0  0  0  0  0  0  0  0
    2.9019    1.7317    1.6166 H   0  0  0  0  0  0  0  0  0  0  0  0
    2.6551    2.3554   -0.0232 H   0  0  0  0  0  0  0  0  0  0  0  0
  1  3  1  0
  2  4  1  0
  4  5  1  0
  4  9  1  0
  4 10  1  0
  5  6  1  0
  5 11  1  0
  5 12  1  0
  6  7  1  0
  7  8  1  0
  7 13  1  0
  7 14  1  0
  8 15  1  0
  8 16  1  0
  8 17  1  0
M  RAD  1   1   2
M  END
>  <reaction>  (13) 
rmg_rxn_83

>  <mol_properties>  (13) 
{"0": {"label": "*1", "atom_type": "S2s"}, "1": {"label": "*2", "atom_type": "H0"}, "2": {"label": "*0", "atom_type": "H0"}, "3": {"label": "*3", "atom_type": "Cs"}, "4": {"label": "*4", "atom_type": "Cs"}}

>  <type>  (13) 
unop_9

>  <geom_source>  (13) 
Heuristics

$$$$

     RDKit          3D

 17 15  0  0  0  0  0  0  0  0999 V2000
    0.3681   -3.0592    1.1271 S   0  0  0  0  0  1  0  0  0  0  0  0
    0.3681   -1.4547    1.2042 H   0  0  0  0  0  0  0  0  0  0  0  0
    0.3681   -3.0592   -0.2115 H   0  0  0  0  0  0  0  0  0  0  0  0
    0.3681   -0.1475    1.2670 C   0  0  0  0  0  0  0  0  0  0  0  0
   -0.8613    0.4286    0.5841 C   0  0  0  0  0  0  0  0  0  0  0  0
   -0.6887    0.7032   -1.1972 S   0  0  0  0  0  0  0  0  0  0  0  0
    0.6821    1.8838   -1.2702 C   0  0  0  0  0  0  0  0  0  0  0  0
    0.4334    3.2014   -0.5548 C   0  0  0  0  0  0  0  0  0  0  0  0
    1.2058    0.5512    1.2372 H   0  0  0  0  0  0  0  0  0  0  0  0
    0.1542   -0.3579    2.3172 H   0  0  0  0  0  0  0  0  0  0  0  0
   -1.1766    1.3556    1.0657 H   0  0  0  0  0  0  0  0  0  0  0  0
   -1.6998   -0.2657    0.6594 H   0  0  0  0  0  0  0  0  0  0  0  0
    1.5925    1.4067   -0.9034 H   0  0  0  0  0  0  0  0  0  0  0  0
    0.8237    2.0511   -2.3392 H   0  0  0  0  0  0  0  0  0  0  0  0
    0.3301    3.0579    0.5220 H   0  0  0  0  0  0  0  0  0  0  0  0
    1.2712    3.8835   -0.7155 H   0  0  0  0  0  0  0  0  0  0  0  0
   -0.4764    3.6778   -0.9215 H   0  0  0  0  0  0  0  0  0  0  0  0
  1  3  1  0
  2  4  1  0
  4  5  1  0
  4  9  1  0
  4 10  1  0
  5  6  1  0
  5 11  1  0
  5 12  1  0
  6  7  1  0
  7  8  1  0
  7 13  1  0
  7 14  1  0
  8 15  1  0
  8 16  1  0
  8 17  1  0
M  RAD  1   1   2
M  END
>  <reaction>  (14) 
rmg_rxn_83

>  <mol_properties>  (14) 
{"0": {"label": "*1", "atom_type": "S2s"}, "1": {"label": "*2", "atom_type": "H0"}, "2": {"label": "*0", "atom_type": "H0"}, "3": {"label": "*3", "atom_type": "Cs"}, "4": {"label": "*4", "atom_type": "Cs"}}

>  <type>  (14) 
unop_10

>  <geom_source>  (14) 
Heuristics

$$$$

     RDKit          3D

 17 15  0  0  0  0  0  0  0  0999 V2000
    0.0921   -1.9579   -1.6610 S   0  0  0  0  0  1  0  0  0  0  0  0
    0.0921   -0.3534   -1.5840 H   0  0  0  0  0  0  0  0  0  0  0  0
    0.0921   -1.9579   -2.9997 H   0  0  0  0  0  0  0  0  0  0  0  0
    0.0921    0.9538   -1.5212 C   0  0  0  0  0  0  0  0  0  0  0  0
    0.8018    1.4368   -0.2672 C   0  0  0  0  0  0  0  0  0  0  0  0
    0.7890    0.2694    1.1167 S   0  0  0  0  0  0  0  0  0  0  0  0
   -0.9827    0.0727    1.4336 C   0  0  0  0  0  0  0  0  0  0  0  0
   -1.7126    1.3502    1.8142 C   0  0  0  0  0  0  0  0  0  0  0  0
   -0.9792    0.8322   -1.3521 H   0  0  0  0  0  0  0  0  0  0  0  0
    0.2161    1.6781   -2.3293 H   0  0  0  0  0  0  0  0  0  0  0  0
    0.4004    2.3963    0.0632 H   0  0  0  0  0  0  0  0  0  0  0  0
    1.8636    1.5919   -0.4658 H   0  0  0  0  0  0  0  0  0  0  0  0
   -1.4548   -0.4048    0.5733 H   0  0  0  0  0  0  0  0  0  0  0  0
   -1.0213   -0.6471    2.2529 H   0  0  0  0  0  0  0  0  0  0  0  0
   -1.7195    2.0666    0.9910 H   0  0  0  0  0  0  0  0  0  0  0  0
   -2.7525    1.1313    2.0666 H   0  0  0  0  0  0  0  0  0  0  0  0
   -1.2404    1.8271    2.6738 H   0  0  0  0  0  0  0  0  0  0  0  0
  1  3  1  0
  2  4  1  0
  4  5  1  0
  4  9  1  0
  4 10  1  0
  5  6  1  0
  5 11  1  0
  5 12  1  0
  6  7  1  0
  7  8  1  0
  7 13  1  0
  7 14  1  0
  8 15  1  0
  8 16  1  0
  8 17  1  0
M  RAD  1   1   2
M  END
>  <reaction>  (15) 
rmg_rxn_83

>  <mol_properties>  (15) 
{"0": {"label": "*1", "atom_type": "S2s"}, "1": {"label": "*2", "atom_type": "H0"}, "2": {"label": "*0", "atom_type": "H0"}, "3": {"label": "*3", "atom_type": "Cs"}, "4": {"label": "*4", "atom_type": "Cs"}}

>  <type>  (15) 
unop_11

>  <geom_source>  (15) 
Heuristics

$$$$

     RDKit          3D

 17 15  0  0  0  0  0  0  0  0999 V2000
   -1.0264   -2.5407    1.0361 S   0  0  0  0  0  1  0  0  0  0  0  0
   -1.0264   -0.9362    1.1132 H   0  0  0  0  0  0  0  0  0  0  0  0
   -1.0264   -2.5407   -0.3025 H   0  0  0  0  0  0  0  0  0  0  0  0
   -1.0264    0.3710    1.1760 C   0  0  0  0  0  0  0  0  0  0  0  0
   -1.0264    0.9811   -0.2159 C   0  0  0  0  0  0  0  0  0  0  0  0
    0.3200    0.4288   -1.2932 S   0  0  0  0  0  0  0  0  0  0  0  0
    1.7866    0.9601   -0.3739 C   0  0  0  0  0  0  0  0  0  0  0  0
    1.8850    2.4572   -0.1317 C   0  0  0  0  0  0  0  0  0  0  0  0
   -0.1511    0.6824    1.7486 H   0  0  0  0  0  0  0  0  0  0  0  0
   -1.9114    0.6917    1.7300 H   0  0  0  0  0  0  0  0  0  0  0  0
   -1.0263    2.0711   -0.1639 H   0  0  0  0  0  0  0  0  0  0  0  0
   -1.9280    0.6925   -0.7587 H   0  0  0  0  0  0  0  0  0  0  0  0
    1.8461    0.4083    0.5656 H   0  0  0  0  0  0  0  0  0  0  0  0
    2.6182    0.6185   -0.9924 H   0  0  0  0  0  0  0  0  0  0  0  0
    1.0834    2.8100    0.5194 H   0  0  0  0  0  0  0  0  0  0  0  0
    2.8326    2.7008    0.3539 H   0  0  0  0  0  0  0  0  0  0  0  0
    1.8253    3.0084   -1.0708 H   0  0  0  0  0  0  0  0  0  0  0  0
  1  3  1  0
  2  4  1  0
  4  5  1  0
  4  9  1  0
  4 10  1  0
  5  6  1  0
  5 11  1  0
  5 12  1  0
  6  7  1  0
  7  8  1  0
  7 13  1  0
  7 14  1  0
  8 15  1  0
  8 16  1  0
  8 17  1  0
M  RAD  1   1   2
M  END
>  <reaction>  (16) 
rmg_rxn_83

>  <mol_properties>  (16) 
{"0": {"label": "*1", "atom_type": "S2s"}, "1": {"label": "*2", "atom_type": "H0"}, "2": {"label": "*0", "atom_type": "H0"}, "3": {"label": "*3", "atom_type": "Cs"}, "4": {"label": "*4", "atom_type": "Cs"}}

>  <type>  (16) 
unop_12

>  <geom_source>  (16) 
Heuristics

$$$$

     RDKit          3D

 17 15  0  0  0  0  0  0  0  0999 V2000
   -0.3477   -2.8527    1.2667 S   0  0  0  0  0  1  0  0  0  0  0  0
   -0.3477   -1.2482    1.3438 H   0  0  0  0  0  0  0  0  0  0  0  0
   -0.3477   -2.8527   -0.0719 H   0  0  0  0  0  0  0  0  0  0  0  0
   -0.3477    0.0589    1.4066 C   0  0  0  0  0  0  0  0  0  0  0  0
   -1.0575    0.6599    0.2047 C   0  0  0  0  0  0  0  0  0  0  0  0
   -0.1388    0.5647   -1.3526 S   0  0  0  0  0  0  0  0  0  0  0  0
    1.3587    1.5080   -0.9705 C   0  0  0  0  0  0  0  0  0  0  0  0
    1.1227    2.9589   -0.5850 C   0  0  0  0  0  0  0  0  0  0  0  0
    0.5569    0.6161    1.6560 H   0  0  0  0  0  0  0  0  0  0  0  0
   -0.9996    0.0835    2.2826 H   0  0  0  0  0  0  0  0  0  0  0  0
   -1.3404    1.6962    0.3968 H   0  0  0  0  0  0  0  0  0  0  0  0
   -1.9800    0.1159   -0.0047 H   0  0  0  0  0  0  0  0  0  0  0  0
    1.9291    0.9874   -0.1994 H   0  0  0  0  0  0  0  0  0  0  0  0
    1.9446    1.4480   -1.8892 H   0  0  0  0  0  0  0  0  0  0  0  0
    0.5728    3.0383    0.3543 H   0  0  0  0  0  0  0  0  0  0  0  0
    2.0759    3.4751   -0.4512 H   0  0  0  0  0  0  0  0  0  0  0  0
    0.5525    3.4788   -1.3557 H   0  0  0  0  0  0  0  0  0  0  0  0
  1  3  1  0
  2  4  1  0
  4  5  1  0
  4  9  1  0
  4 10  1  0
  5  6  1  0
  5 11  1  0
  5 12  1  0
  6  7  1  0
  7  8  1  0
  7 13  1  0
  7 14  1  0
  8 15  1  0
  8 16  1  0
  8 17  1  0
M  RAD  1   1   2
M  END
>  <reaction>  (17) 
rmg_rxn_83

>  <mol_properties>  (17) 
{"0": {"label": "*1", "atom_type": "S2s"}, "1": {"label": "*2", "atom_type": "H0"}, "2": {"label": "*0", "atom_type": "H0"}, "3": {"label": "*3", "atom_type": "Cs"}, "4": {"label": "*4", "atom_type": "Cs"}}

>  <type>  (17) 
unop_13

>  <geom_source>  (17) 
gaussian_log

$$$$
