
     RDKit          3D

  9  8  0  0  0  0  0  0  0  0999 V2000
    1.1303   -0.2933   -0.7510 C   0  0  0  0  0  0  0  0  0  0  0  0
    0.2866    0.4560   -0.0588 C   0  0  0  0  0  0  0  0  0  0  0  0
   -0.9719   -0.0331    0.5823 C   0  0  0  0  0  0  0  0  0  0  0  0
    2.0274    0.1230   -1.1916 H   0  0  0  0  0  0  0  0  0  0  0  0
    0.9532   -1.3530   -0.9023 H   0  0  0  0  0  0  0  0  0  0  0  0
    0.5065    1.5132    0.0659 H   0  0  0  0  0  0  0  0  0  0  0  0
   -0.9526    0.1426    1.6610 H   0  0  0  0  0  0  0  0  0  0  0  0
   -1.1182   -1.1002    0.4106 H   0  0  0  0  0  0  0  0  0  0  0  0
   -1.8412    0.5010    0.1901 H   0  0  0  0  0  0  0  0  0  0  0  0
  1  2  2  3
  1  4  1  0
  1  5  1  0
  2  3  1  0
  2  6  1  0
  3  7  1  0
  3  8  1  0
  3  9  1  0
M  END
>  <reaction>  (1) 
rmg_rxn_545

>  <mol_properties>  (1) 
{"0": {"label": "donator", "atom_type": "Cd"}, "3": {"label": "d_hydrogen", "atom_type": "H0"}}

>  <type>  (1) 
r1h

$$$$

     RDKit          3D

 11 10  0  0  0  0  0  0  0  0999 V2000
    2.2312    0.7411   -0.3115 C   0  0  0  0  0  3  0  0  0  0  0  0
    0.6426    1.1039   -0.7896 S   0  0  0  0  0  0  0  0  0  0  0  0
    0.9085    2.4168   -2.0061 C   0  0  0  0  0  0  0  0  0  0  0  0
    1.5570    1.9429   -3.2967 C   0  0  0  0  0  0  0  0  0  0  0  0
    2.3707   -0.0938    0.3575 H   0  0  0  0  0  0  0  0  0  0  0  0
    3.0432    1.4267   -0.5066 H   0  0  0  0  0  0  0  0  0  0  0  0
    1.4997    3.2005   -1.5289 H   0  0  0  0  0  0  0  0  0  0  0  0
   -0.0844    2.8269   -2.1951 H   0  0  0  0  0  0  0  0  0  0  0  0
    0.9451    1.1830   -3.7838 H   0  0  0  0  0  0  0  0  0  0  0  0
    1.6803    2.7812   -3.9857 H   0  0  0  0  0  0  0  0  0  0  0  0
    2.5399    1.5119   -3.1043 H   0  0  0  0  0  0  0  0  0  0  0  0
  1  2  1  0
  1  5  1  0
  1  6  1  0
  2  3  1  0
  3  4  1  0
  3  7  1  0
  3  8  1  0
  4  9  1  0
  4 10  1  0
  4 11  1  0
M  RAD  1   1   2
M  END
>  <reaction>  (2) 
rmg_rxn_545

>  <mol_properties>  (2) 
{"0": {"label": "acceptor", "atom_type": "Cs"}}

>  <type>  (2) 
r2

$$$$

     RDKit          3D

 12 11  0  0  0  0  0  0  0  0999 V2000
    1.8075    0.1979    0.4695 C   0  0  0  0  0  0  0  0  0  0  0  0
    1.0072   -0.8859   -0.7259 S   0  0  0  0  0  0  0  0  0  0  0  0
   -0.7258   -0.6904   -0.2447 C   0  0  0  0  0  0  0  0  0  0  0  0
   -1.0856   -1.2776    1.1108 C   0  0  0  0  0  0  0  0  0  0  0  0
    1.7126   -0.1777    1.4878 H   0  0  0  0  0  0  0  0  0  0  0  0
    1.4024    1.2089    0.4095 H   0  0  0  0  0  0  0  0  0  0  0  0
    2.8647    0.2298    0.2095 H   0  0  0  0  0  0  0  0  0  0  0  0
   -1.2866   -1.1892   -1.0369 H   0  0  0  0  0  0  0  0  0  0  0  0
   -0.9814    0.3707   -0.2917 H   0  0  0  0  0  0  0  0  0  0  0  0
   -0.5492   -0.7768    1.9180 H   0  0  0  0  0  0  0  0  0  0  0  0
   -0.8418   -2.3397    1.1503 H   0  0  0  0  0  0  0  0  0  0  0  0
   -2.1545   -1.1604    1.3035 H   0  0  0  0  0  0  0  0  0  0  0  0
  1  2  1  0
  1  5  1  0
  1  6  1  0
  1  7  1  0
  2  3  1  0
  3  4  1  0
  3  8  1  0
  3  9  1  0
  4 10  1  0
  4 11  1  0
  4 12  1  0
M  END
>  <reaction>  (3) 
rmg_rxn_545

>  <mol_properties>  (3) 
{"0": {"label": "a_hydrogen", "atom_type": "H0"}, "1": {"label": "acceptor", "atom_type": "Cs"}}

>  <type>  (3) 
r2h

$$$$

     RDKit          3D

 20 18  0  0  0  0  0  0  0  0999 V2000
    0.3700    1.4286   -1.5853 C   0  0  0  0  0  3  0  0  0  0  0  0
    0.7452    0.3500   -2.2343 C   0  0  0  0  0  0  0  0  0  0  0  0
    0.7909    0.1940   -3.7274 C   0  0  0  0  0  0  0  0  0  0  0  0
    0.4403    1.2918   -0.1469 H   0  0  0  0  0  0  0  0  0  0  0  0
    0.0333    2.3804   -1.9819 H   0  0  0  0  0  0  0  0  0  0  0  0
    1.0572   -0.5177   -1.6512 H   0  0  0  0  0  0  0  0  0  0  0  0
    1.8062   -0.0406   -4.0562 H   0  0  0  0  0  0  0  0  0  0  0  0
    0.4639    1.1014   -4.2353 H   0  0  0  0  0  0  0  0  0  0  0  0
    0.1509   -0.6323   -4.0468 H   0  0  0  0  0  0  0  0  0  0  0  0
    0.5530    1.0373    1.0786 C   0  0  0  0  0  0  0  0  0  0  0  0
    0.4900   -0.7119    1.3324 S   0  0  0  0  0  0  0  0  0  0  0  0
   -1.1906   -1.0777    0.7661 C   0  0  0  0  0  0  0  0  0  0  0  0
   -2.2968   -0.5638    1.6731 C   0  0  0  0  0  0  0  0  0  0  0  0
    1.5328    1.4079    1.3726 H   0  0  0  0  0  0  0  0  0  0  0  0
   -0.2416    1.5914    1.5766 H   0  0  0  0  0  0  0  0  0  0  0  0
   -1.2262   -2.1662    0.6986 H   0  0  0  0  0  0  0  0  0  0  0  0
   -1.2946   -0.6831   -0.2465 H   0  0  0  0  0  0  0  0  0  0  0  0
   -2.2872    0.5249    1.7380 H   0  0  0  0  0  0  0  0  0  0  0  0
   -3.2722   -0.8607    1.2814 H   0  0  0  0  0  0  0  0  0  0  0  0
   -2.1933   -0.9650    2.6818 H   0  0  0  0  0  0  0  0  0  0  0  0
  1  2  2  3
  1  5  1  0
  2  3  1  0
  2  6  1  0
  3  7  1  0
  3  8  1  0
  3  9  1  0
  4 10  1  0
 10 11  1  0
 10 14  1  0
 10 15  1  0
 11 12  1  0
 12 13  1  0
 12 16  1  0
 12 17  1  0
 13 18  1  0
 13 19  1  0
 13 20  1  0
M  RAD  1   1   2
M  END
>  <reaction>  (4) 
rmg_rxn_545

>  <mol_properties>  (4) 
{"0": {"label": "*3", "atom_type": "Cd"}, "1": {"label": "*4", "atom_type": "Cd"}, "3": {"label": "*2", "atom_type": "H0"}, "9": {"label": "*1", "atom_type": "Cs"}, "10": {"label": "*0", "atom_type": "S2s"}}

>  <type>  (4) 
ts

$$$$

     RDKit          3D

 20 18  0  0  0  0  0  0  0  0999 V2000
   -0.9714    0.4356   -1.8493 C   0  0  0  0  0  0  0  0  0  0  0  0
   -0.9714   -0.6467   -2.6114 C   0  0  0  0  0  0  0  0  0  0  0  0
   -0.9714   -0.6467   -4.1061 C   0  0  0  0  0  0  0  0  0  0  0  0
   -0.9714    0.3540   -0.5526 H   0  0  0  0  0  0  0  0  0  0  0  0
   -0.9714    1.4313   -2.2803 H   0  0  0  0  0  0  0  0  0  0  0  0
   -0.9714   -1.6232   -2.1338 H   0  0  0  0  0  0  0  0  0  0  0  0
   -0.0937   -1.1694   -4.4950 H   0  0  0  0  0  0  0  0  0  0  0  0
   -0.9714    0.3685   -4.5048 H   0  0  0  0  0  0  0  0  0  0  0  0
   -1.8492   -1.1694   -4.4950 H   0  0  0  0  0  0  0  0  0  0  0  0
   -0.9714    0.2718    0.7538 C   0  0  0  0  0  3  0  0  0  0  0  0
    0.4862    1.0714    1.4469 S   0  0  0  0  0  0  0  0  0  0  0  0
    1.5808   -0.3540    1.6545 C   0  0  0  0  0  0  0  0  0  0  0  0
    1.1438   -1.3493    2.7176 C   0  0  0  0  0  0  0  0  0  0  0  0
   -1.6749    1.0631    0.4984 H   0  0  0  0  0  0  0  0  0  0  0  0
   -1.4481   -0.3977    1.4690 H   0  0  0  0  0  0  0  0  0  0  0  0
    2.5477    0.0804    1.9140 H   0  0  0  0  0  0  0  0  0  0  0  0
    1.7002   -0.8439    0.6854 H   0  0  0  0  0  0  0  0  0  0  0  0
    0.1876   -1.8096    2.4646 H   0  0  0  0  0  0  0  0  0  0  0  0
    1.8800   -2.1508    2.8126 H   0  0  0  0  0  0  0  0  0  0  0  0
    1.0383   -0.8604    3.6865 H   0  0  0  0  0  0  0  0  0  0  0  0
  1  2  2  3
  1  4  1  0
  1  5  1  0
  2  3  1  0
  2  6  1  0
  3  7  1  0
  3  8  1  0
  3  9  1  0
 10 11  1  0
 10 14  1  0
 10 15  1  0
 11 12  1  0
 12 13  1  0
 12 16  1  0
 12 17  1  0
 13 18  1  0
 13 19  1  0
 13 20  1  0
M  RAD  1  10   2
M  END
>  <reaction>  (5) 
rmg_rxn_545

>  <mol_properties>  (5) 
{"0": {"label": "*3", "atom_type": "Cd"}, "1": {"label": "*4", "atom_type": "Cd"}, "3": {"label": "*2", "atom_type": "H0"}, "9": {"label": "*1", "atom_type": "Cs"}, "10": {"label": "*0", "atom_type": "S2s"}}

>  <type>  (5) 
unop_1

>  <geom_source>  (5) 
Heuristics

$$$$

     RDKit          3D

 20 18  0  0  0  0  0  0  0  0999 V2000
    0.0402    1.4445   -1.5930 C   0  0  0  0  0  0  0  0  0  0  0  0
    0.0402    0.3621   -2.3551 C   0  0  0  0  0  0  0  0  0  0  0  0
    0.0402    0.3621   -3.8498 C   0  0  0  0  0  0  0  0  0  0  0  0
    0.0402    1.3628   -0.2963 H   0  0  0  0  0  0  0  0  0  0  0  0
    0.0402    2.4401   -2.0240 H   0  0  0  0  0  0  0  0  0  0  0  0
    0.0402   -0.6144   -1.8776 H   0  0  0  0  0  0  0  0  0  0  0  0
    0.9179   -0.1605   -4.2387 H   0  0  0  0  0  0  0  0  0  0  0  0
    0.0402    1.3773   -4.2485 H   0  0  0  0  0  0  0  0  0  0  0  0
   -0.8376   -0.1605   -4.2387 H   0  0  0  0  0  0  0  0  0  0  0  0
    0.0402    1.2806    1.0100 C   0  0  0  0  0  3  0  0  0  0  0  0
    0.8817   -0.2144    1.5587 S   0  0  0  0  0  0  0  0  0  0  0  0
   -0.3632   -1.4640    1.1564 C   0  0  0  0  0  0  0  0  0  0  0  0
   -1.6289   -1.4027    1.9964 C   0  0  0  0  0  0  0  0  0  0  0  0
    0.7478    2.1010    1.1216 H   0  0  0  0  0  0  0  0  0  0  0  0
   -0.8401    1.4980    1.6141 H   0  0  0  0  0  0  0  0  0  0  0  0
    0.1480   -2.4163    1.3068 H   0  0  0  0  0  0  0  0  0  0  0  0
   -0.5964   -1.3912    0.0916 H   0  0  0  0  0  0  0  0  0  0  0  0
   -2.1648   -0.4648    1.8432 H   0  0  0  0  0  0  0  0  0  0  0  0
   -2.3050   -2.2164    1.7241 H   0  0  0  0  0  0  0  0  0  0  0  0
   -1.3944   -1.4889    3.0579 H   0  0  0  0  0  0  0  0  0  0  0  0
  1  2  2  3
  1  4  1  0
  1  5  1  0
  2  3  1  0
  2  6  1  0
  3  7  1  0
  3  8  1  0
  3  9  1  0
 10 11  1  0
 10 14  1  0
 10 15  1  0
 11 12  1  0
 12 13  1  0
 12 16  1  0
 12 17  1  0
 13 18  1  0
 13 19  1  0
 13 20  1  0
M  RAD  1  10   2
M  END
>  <reaction>  (6) 
rmg_rxn_545

>  <mol_properties>  (6) 
{"0": {"label": "*3", "atom_type": "Cd"}, "1": {"label": "*4", "atom_type": "Cd"}, "3": {"label": "*2", "atom_type": "H0"}, "9": {"label": "*1", "atom_type": "Cs"}, "10": {"label": "*0", "atom_type": "S2s"}}

>  <type>  (6) 
unop_2

>  <geom_source>  (6) 
Heuristics

$$$$

     RDKit          3D

 20 18  0  0  0  0  0  0  0  0999 V2000
   -0.9068   -0.0746   -1.7853 C   0  0  0  0  0  0  0  0  0  0  0  0
   -0.9068   -1.1570   -2.5474 C   0  0  0  0  0  0  0  0  0  0  0  0
   -0.9068   -1.1570   -4.0421 C   0  0  0  0  0  0  0  0  0  0  0  0
   -0.9068   -0.1562   -0.4886 H   0  0  0  0  0  0  0  0  0  0  0  0
   -0.9068    0.9211   -2.2163 H   0  0  0  0  0  0  0  0  0  0  0  0
   -0.9068   -2.1335   -2.0699 H   0  0  0  0  0  0  0  0  0  0  0  0
   -0.0291   -1.6796   -4.4310 H   0  0  0  0  0  0  0  0  0  0  0  0
   -0.9068   -0.1418   -4.4408 H   0  0  0  0  0  0  0  0  0  0  0  0
   -1.7845   -1.6796   -4.4310 H   0  0  0  0  0  0  0  0  0  0  0  0
   -0.9068   -0.2385    0.8177 C   0  0  0  0  0  3  0  0  0  0  0  0
   -0.0652    1.1759    1.5496 S   0  0  0  0  0  0  0  0  0  0  0  0
    1.6516    0.6081    1.4925 C   0  0  0  0  0  0  0  0  0  0  0  0
    1.9741   -0.5545    2.4176 C   0  0  0  0  0  0  0  0  0  0  0  0
   -1.9559    0.0358    0.7156 H   0  0  0  0  0  0  0  0  0  0  0  0
   -0.8402   -1.1239    1.4491 H   0  0  0  0  0  0  0  0  0  0  0  0
    2.2384    1.4865    1.7659 H   0  0  0  0  0  0  0  0  0  0  0  0
    1.9026    0.3656    0.4573 H   0  0  0  0  0  0  0  0  0  0  0  0
    1.4111   -1.4488    2.1463 H   0  0  0  0  0  0  0  0  0  0  0  0
    3.0361   -0.8035    2.3582 H   0  0  0  0  0  0  0  0  0  0  0  0
    1.7350   -0.3049    3.4518 H   0  0  0  0  0  0  0  0  0  0  0  0
  1  2  2  3
  1  4  1  0
  1  5  1  0
  2  3  1  0
  2  6  1  0
  3  7  1  0
  3  8  1  0
  3  9  1  0
 10 11  1  0
 10 14  1  0
 10 15  1  0
 11 12  1  0
 12 13  1  0
 12 16  1  0
 12 17  1  0
 13 18  1  0
 13 19  1  0
 13 20  1  0
M  RAD  1  10   2
M  END
>  <reaction>  (7) 
rmg_rxn_545

>  <mol_properties>  (7) 
{"0": {"label": "*3", "atom_type": "Cd"}, "1": {"label": "*4", "atom_type": "Cd"}, "3": {"label": "*2", "atom_type": "H0"}, "9": {"label": "*1", "atom_type": "Cs"}, "10": {"label": "*0", "atom_type": "S2s"}}

>  <type>  (7) 
unop_3

>  <geom_source>  (7) 
Heuristics

$$$$

     RDKit          3D

 20 18  0  0  0  0  0  0  0  0999 V2000
    1.1022    0.5586   -1.2382 C   0  0  0  0  0  0  0  0  0  0  0  0
    1.1022   -0.5238   -2.0003 C   0  0  0  0  0  0  0  0  0  0  0  0
    1.1022   -0.5238   -3.4950 C   0  0  0  0  0  0  0  0  0  0  0  0
    1.1022    0.4770    0.0585 H   0  0  0  0  0  0  0  0  0  0  0  0
    1.1022    1.5543   -1.6692 H   0  0  0  0  0  0  0  0  0  0  0  0
    1.1022   -1.5003   -1.5228 H   0  0  0  0  0  0  0  0  0  0  0  0
    1.9799   -1.0464   -3.8839 H   0  0  0  0  0  0  0  0  0  0  0  0
    1.1022    0.4915   -3.8937 H   0  0  0  0  0  0  0  0  0  0  0  0
    0.2245   -1.0464   -3.8839 H   0  0  0  0  0  0  0  0  0  0  0  0
    1.1022    0.3947    1.3648 C   0  0  0  0  0  3  0  0  0  0  0  0
   -0.3554   -0.4855    1.9522 S   0  0  0  0  0  0  0  0  0  0  0  0
   -1.4956   -0.1960    0.5777 C   0  0  0  0  0  0  0  0  0  0  0  0
   -1.9533    1.2449    0.4162 C   0  0  0  0  0  0  0  0  0  0  0  0
    1.8971    0.2064    2.0852 H   0  0  0  0  0  0  0  0  0  0  0  0
    0.9339    1.4696    1.3080 H   0  0  0  0  0  0  0  0  0  0  0  0
   -2.3473   -0.8448    0.7888 H   0  0  0  0  0  0  0  0  0  0  0  0
   -1.0328   -0.5648   -0.3405 H   0  0  0  0  0  0  0  0  0  0  0  0
   -1.1170    1.9059    0.1841 H   0  0  0  0  0  0  0  0  0  0  0  0
   -2.6730    1.3250   -0.4017 H   0  0  0  0  0  0  0  0  0  0  0  0
   -2.4267    1.6060    1.3297 H   0  0  0  0  0  0  0  0  0  0  0  0
  1  2  2  3
  1  4  1  0
  1  5  1  0
  2  3  1  0
  2  6  1  0
  3  7  1  0
  3  8  1  0
  3  9  1  0
 10 11  1  0
 10 14  1  0
 10 15  1  0
 11 12  1  0
 12 13  1  0
 12 16  1  0
 12 17  1  0
 13 18  1  0
 13 19  1  0
 13 20  1  0
M  RAD  1  10   2
M  END
>  <reaction>  (8) 
rmg_rxn_545

>  <mol_properties>  (8) 
{"0": {"label": "*3", "atom_type": "Cd"}, "1": {"label": "*4", "atom_type": "Cd"}, "3": {"label": "*2", "atom_type": "H0"}, "9": {"label": "*1", "atom_type": "Cs"}, "10": {"label": "*0", "atom_type": "S2s"}}

>  <type>  (8) 
unop_4

>  <geom_source>  (8) 
Heuristics

$$$$

     RDKit          3D

 20 18  0  0  0  0  0  0  0  0999 V2000
   -0.5430   -0.5800   -1.5556 C   0  0  0  0  0  0  0  0  0  0  0  0
   -0.5430   -1.6624   -2.3177 C   0  0  0  0  0  0  0  0  0  0  0  0
   -0.5430   -1.6624   -3.8124 C   0  0  0  0  0  0  0  0  0  0  0  0
   -0.5430   -0.6617   -0.2589 H   0  0  0  0  0  0  0  0  0  0  0  0
   -0.5430    0.4156   -1.9865 H   0  0  0  0  0  0  0  0  0  0  0  0
   -0.5430   -2.6389   -1.8401 H   0  0  0  0  0  0  0  0  0  0  0  0
    0.3347   -2.1850   -4.2013 H   0  0  0  0  0  0  0  0  0  0  0  0
   -0.5430   -0.6472   -4.2111 H   0  0  0  0  0  0  0  0  0  0  0  0
   -1.4207   -2.1850   -4.2013 H   0  0  0  0  0  0  0  0  0  0  0  0
   -0.5430   -0.7439    1.0475 C   0  0  0  0  0  3  0  0  0  0  0  0
   -0.5430    0.8956    1.7935 S   0  0  0  0  0  0  0  0  0  0  0  0
    0.9400    1.6051    1.0382 C   0  0  0  0  0  0  0  0  0  0  0  0
    2.2507    0.9773    1.4849 C   0  0  0  0  0  0  0  0  0  0  0  0
   -1.4607   -1.2363    1.3660 H   0  0  0  0  0  0  0  0  0  0  0  0
    0.3045   -1.3428    1.3794 H   0  0  0  0  0  0  0  0  0  0  0  0
    0.9090    2.6601    1.3155 H   0  0  0  0  0  0  0  0  0  0  0  0
    0.8332    1.5569   -0.0479 H   0  0  0  0  0  0  0  0  0  0  0  0
    2.3084   -0.0736    1.1977 H   0  0  0  0  0  0  0  0  0  0  0  0
    3.0955    1.4921    1.0213 H   0  0  0  0  0  0  0  0  0  0  0  0
    2.3608    1.0388    2.5680 H   0  0  0  0  0  0  0  0  0  0  0  0
  1  2  2  3
  1  4  1  0
  1  5  1  0
  2  3  1  0
  2  6  1  0
  3  7  1  0
  3  8  1  0
  3  9  1  0
 10 11  1  0
 10 14  1  0
 10 15  1  0
 11 12  1  0
 12 13  1  0
 12 16  1  0
 12 17  1  0
 13 18  1  0
 13 19  1  0
 13 20  1  0
M  RAD  1  10   2
M  END
>  <reaction>  (9) 
rmg_rxn_545

>  <mol_properties>  (9) 
{"0": {"label": "*3", "atom_type": "Cd"}, "1": {"label": "*4", "atom_type": "Cd"}, "3": {"label": "*2", "atom_type": "H0"}, "9": {"label": "*1", "atom_type": "Cs"}, "10": {"label": "*0", "atom_type": "S2s"}}

>  <type>  (9) 
unop_5

>  <geom_source>  (9) 
Heuristics

$$$$

     RDKit          3D

 20 18  0  0  0  0  0  0  0  0999 V2000
    1.0695    0.0375   -1.2276 C   0  0  0  0  0  0  0  0  0  0  0  0
    1.0695   -1.0449   -1.9897 C   0  0  0  0  0  0  0  0  0  0  0  0
    1.0695   -1.0449   -3.4844 C   0  0  0  0  0  0  0  0  0  0  0  0
    1.0695   -0.0441    0.0691 H   0  0  0  0  0  0  0  0  0  0  0  0
    1.0695    1.0332   -1.6586 H   0  0  0  0  0  0  0  0  0  0  0  0
    1.0695   -2.0213   -1.5121 H   0  0  0  0  0  0  0  0  0  0  0  0
    1.9472   -1.5675   -3.8733 H   0  0  0  0  0  0  0  0  0  0  0  0
    1.0695   -0.0296   -3.8831 H   0  0  0  0  0  0  0  0  0  0  0  0
    0.1918   -1.5675   -3.8733 H   0  0  0  0  0  0  0  0  0  0  0  0
    1.0695   -0.1263    1.3755 C   0  0  0  0  0  3  0  0  0  0  0  0
   -0.6136   -0.1667    2.0157 S   0  0  0  0  0  0  0  0  0  0  0  0
   -1.5297    0.4515    0.5833 C   0  0  0  0  0  0  0  0  0  0  0  0
   -1.2803    1.9124    0.2437 C   0  0  0  0  0  0  0  0  0  0  0  0
    1.7081   -0.5730    2.1363 H   0  0  0  0  0  0  0  0  0  0  0  0
    1.4110    0.8916    1.1906 H   0  0  0  0  0  0  0  0  0  0  0  0
   -2.5782    0.2941    0.8417 H   0  0  0  0  0  0  0  0  0  0  0  0
   -1.3113   -0.1918   -0.2722 H   0  0  0  0  0  0  0  0  0  0  0  0
   -0.2405    2.0851   -0.0373 H   0  0  0  0  0  0  0  0  0  0  0  0
   -1.9043    2.2179   -0.5993 H   0  0  0  0  0  0  0  0  0  0  0  0
   -1.5118    2.5533    1.0951 H   0  0  0  0  0  0  0  0  0  0  0  0
  1  2  2  3
  1  4  1  0
  1  5  1  0
  2  3  1  0
  2  6  1  0
  3  7  1  0
  3  8  1  0
  3  9  1  0
 10 11  1  0
 10 14  1  0
 10 15  1  0
 11 12  1  0
 12 13  1  0
 12 16  1  0
 12 17  1  0
 13 18  1  0
 13 19  1  0
 13 20  1  0
M  RAD  1  10   2
M  END
>  <reaction>  (10) 
rmg_rxn_545

>  <mol_properties>  (10) 
{"0": {"label": "*3", "atom_type": "Cd"}, "1": {"label": "*4", "atom_type": "Cd"}, "3": {"label": "*2", "atom_type": "H0"}, "9": {"label": "*1", "atom_type": "Cs"}, "10": {"label": "*0", "atom_type": "S2s"}}

>  <type>  (10) 
unop_6

>  <geom_source>  (10) 
Heuristics

$$$$

     RDKit          3D

 20 18  0  0  0  0  0  0  0  0999 V2000
    0.7671   -0.4509   -1.2563 C   0  0  0  0  0  0  0  0  0  0  0  0
    0.7671   -1.5333   -2.0184 C   0  0  0  0  0  0  0  0  0  0  0  0
    0.7671   -1.5333   -3.5132 C   0  0  0  0  0  0  0  0  0  0  0  0
    0.7671   -0.5325    0.0404 H   0  0  0  0  0  0  0  0  0  0  0  0
    0.7671    0.5448   -1.6873 H   0  0  0  0  0  0  0  0  0  0  0  0
    0.7671   -2.5097   -1.5409 H   0  0  0  0  0  0  0  0  0  0  0  0
    1.6448   -2.0559   -3.9021 H   0  0  0  0  0  0  0  0  0  0  0  0
    0.7671   -0.5180   -3.9118 H   0  0  0  0  0  0  0  0  0  0  0  0
   -0.1106   -2.0559   -3.9021 H   0  0  0  0  0  0  0  0  0  0  0  0
    0.7671   -0.6147    1.3467 C   0  0  0  0  0  3  0  0  0  0  0  0
   -0.6905    0.1848    2.0399 S   0  0  0  0  0  0  0  0  0  0  0  0
   -1.2271    1.1808    0.6280 C   0  0  0  0  0  0  0  0  0  0  0  0
   -0.2968    2.3255    0.2596 C   0  0  0  0  0  0  0  0  0  0  0  0
    1.1252   -1.3219    2.0936 H   0  0  0  0  0  0  0  0  0  0  0  0
    1.5626    0.0994    1.1365 H   0  0  0  0  0  0  0  0  0  0  0  0
   -2.2056    1.5645    0.9213 H   0  0  0  0  0  0  0  0  0  0  0  0
   -1.3867    0.5165   -0.2245 H   0  0  0  0  0  0  0  0  0  0  0  0
    0.6811    1.9594   -0.0563 H   0  0  0  0  0  0  0  0  0  0  0  0
   -0.7151    2.9032   -0.5679 H   0  0  0  0  0  0  0  0  0  0  0  0
   -0.1498    2.9941    1.1083 H   0  0  0  0  0  0  0  0  0  0  0  0
  1  2  2  3
  1  4  1  0
  1  5  1  0
  2  3  1  0
  2  6  1  0
  3  7  1  0
  3  8  1  0
  3  9  1  0
 10 11  1  0
 10 14  1  0
 10 15  1  0
 11 12  1  0
 12 13  1  0
 12 16  1  0
 12 17  1  0
 13 18  1  0
 13 19  1  0
 13 20  1  0
M  RAD  1  10   2
M  END
>  <reaction>  (11) 
rmg_rxn_545

>  <mol_properties>  (11) 
{"0": {"label": "*3", "atom_type": "Cd"}, "1": {"label": "*4", "atom_type": "Cd"}, "3": {"label": "*2", "atom_type": "H0"}, "9": {"label": "*1", "atom_type": "Cs"}, "10": {"label": "*0", "atom_type": "S2s"}}

>  <type>  (11) 
unop_7

>  <geom_source>  (11) 
Heuristics

$$$$

     RDKit          3D

 20 18  0  0  0  0  0  0  0  0999 V2000
   -0.8247    0.9169   -1.8158 C   0  0  0  0  0  0  0  0  0  0  0  0
   -0.8247   -0.1655   -2.5779 C   0  0  0  0  0  0  0  0  0  0  0  0
   -0.8247   -0.1655   -4.0726 C   0  0  0  0  0  0  0  0  0  0  0  0
   -0.8247    0.8353   -0.5191 H   0  0  0  0  0  0  0  0  0  0  0  0
   -0.8247    1.9126   -2.2468 H   0  0  0  0  0  0  0  0  0  0  0  0
   -0.8247   -1.1420   -2.1003 H   0  0  0  0  0  0  0  0  0  0  0  0
    0.0531   -0.6881   -4.4615 H   0  0  0  0  0  0  0  0  0  0  0  0
   -0.8247    0.8498   -4.4713 H   0  0  0  0  0  0  0  0  0  0  0  0
   -1.7024   -0.6881   -4.4615 H   0  0  0  0  0  0  0  0  0  0  0  0
   -0.8247    0.7530    0.7873 C   0  0  0  0  0  3  0  0  0  0  0  0
    0.8585    0.7127    1.4275 S   0  0  0  0  0  0  0  0  0  0  0  0
    1.1059   -1.0710    1.6016 C   0  0  0  0  0  0  0  0  0  0  0  0
    0.2655   -1.7330    2.6820 C   0  0  0  0  0  0  0  0  0  0  0  0
   -1.0495    1.7929    0.5539 H   0  0  0  0  0  0  0  0  0  0  0  0
   -1.5483    0.3985    1.5205 H   0  0  0  0  0  0  0  0  0  0  0  0
    2.1683   -1.1781    1.8264 H   0  0  0  0  0  0  0  0  0  0  0  0
    0.9357   -1.5413    0.6304 H   0  0  0  0  0  0  0  0  0  0  0  0
   -0.8004   -1.6537    2.4634 H   0  0  0  0  0  0  0  0  0  0  0  0
    0.5086   -2.7956    2.7540 H   0  0  0  0  0  0  0  0  0  0  0  0
    0.4473   -1.2703    3.6525 H   0  0  0  0  0  0  0  0  0  0  0  0
  1  2  2  3
  1  4  1  0
  1  5  1  0
  2  3  1  0
  2  6  1  0
  3  7  1  0
  3  8  1  0
  3  9  1  0
 10 11  1  0
 10 14  1  0
 10 15  1  0
 11 12  1  0
 12 13  1  0
 12 16  1  0
 12 17  1  0
 13 18  1  0
 13 19  1  0
 13 20  1  0
M  RAD  1  10   2
M  END
>  <reaction>  (12) 
rmg_rxn_545

>  <mol_properties>  (12) 
{"0": {"label": "*3", "atom_type": "Cd"}, "1": {"label": "*4", "atom_type": "Cd"}, "3": {"label": "*2", "atom_type": "H0"}, "9": {"label": "*1", "atom_type": "Cs"}, "10": {"label": "*0", "atom_type": "S2s"}}

>  <type>  (12) 
unop_8

>  <geom_source>  (12) 
Heuristics

$$$$

     RDKit          3D

 20 18  0  0  0  0  0  0  0  0999 V2000
    0.9139    1.0133   -1.3046 C   0  0  0  0  0  0  0  0  0  0  0  0
    0.9139   -0.0691   -2.0667 C   0  0  0  0  0  0  0  0  0  0  0  0
    0.9139   -0.0691   -3.5615 C   0  0  0  0  0  0  0  0  0  0  0  0
    0.9139    0.9317   -0.0079 H   0  0  0  0  0  0  0  0  0  0  0  0
    0.9139    2.0090   -1.7356 H   0  0  0  0  0  0  0  0  0  0  0  0
    0.9139   -1.0456   -1.5892 H   0  0  0  0  0  0  0  0  0  0  0  0
    1.7916   -0.5917   -3.9504 H   0  0  0  0  0  0  0  0  0  0  0  0
    0.9139    0.9462   -3.9601 H   0  0  0  0  0  0  0  0  0  0  0  0
    0.0362   -0.5917   -3.9504 H   0  0  0  0  0  0  0  0  0  0  0  0
    0.9139    0.8494    1.2984 C   0  0  0  0  0  3  0  0  0  0  0  0
    0.0723   -0.6456    1.8471 S   0  0  0  0  0  0  0  0  0  0  0  0
   -1.2885   -0.7175    0.6571 C   0  0  0  0  0  0  0  0  0  0  0  0
   -2.3258    0.3847    0.8009 C   0  0  0  0  0  0  0  0  0  0  0  0
    1.8188    0.9410    1.8975 H   0  0  0  0  0  0  0  0  0  0  0  0
    0.3051    1.7397    1.4524 H   0  0  0  0  0  0  0  0  0  0  0  0
   -1.7452   -1.6945    0.8240 H   0  0  0  0  0  0  0  0  0  0  0  0
   -0.8676   -0.7296   -0.3509 H   0  0  0  0  0  0  0  0  0  0  0  0
   -1.8913    1.3683    0.6171 H   0  0  0  0  0  0  0  0  0  0  0  0
   -3.1339    0.2418    0.0799 H   0  0  0  0  0  0  0  0  0  0  0  0
   -2.7537    0.3858    1.8039 H   0  0  0  0  0  0  0  0  0  0  0  0
  1  2  2  3
  1  4  1  0
  1  5  1  0
  2  3  1  0
  2  6  1  0
  3  7  1  0
  3  8  1  0
  3  9  1  0
 10 11  1  0
 10 14  1  0
 10 15  1  0
 11 12  1  0
 12 13  1  0
 12 16  1  0
 12 17  1  0
 13 18  1  0
 13 19  1  0
 13 20  1  0
M  RAD  1  10   2
M  END
>  <reaction>  (13) 
rmg_rxn_545

>  <mol_properties>  (13) 
{"0": {"label": "*3", "atom_type": "Cd"}, "1": {"label": "*4", "atom_type": "Cd"}, "3": {"label": "*2", "atom_type": "H0"}, "9": {"label": "*1", "atom_type": "Cs"}, "10": {"label": "*0", "atom_type": "S2s"}}

>  <type>  (13) 
unop_9

>  <geom_source>  (13) 
Heuristics

$$$$

     RDKit          3D

 20 18  0  0  0  0  0  0  0  0999 V2000
   -0.4642    1.2890   -1.7268 C   0  0  0  0  0  0  0  0  0  0  0  0
   -0.4642    0.2067   -2.4889 C   0  0  0  0  0  0  0  0  0  0  0  0
   -0.4642    0.2067   -3.9836 C   0  0  0  0  0  0  0  0  0  0  0  0
   -0.4642    1.2074   -0.4301 H   0  0  0  0  0  0  0  0  0  0  0  0
   -0.4642    2.2847   -2.1578 H   0  0  0  0  0  0  0  0  0  0  0  0
   -0.4642   -0.7698   -2.0113 H   0  0  0  0  0  0  0  0  0  0  0  0
    0.4135   -0.3160   -4.3725 H   0  0  0  0  0  0  0  0  0  0  0  0
   -0.4642    1.2219   -4.3823 H   0  0  0  0  0  0  0  0  0  0  0  0
   -1.3419   -0.3160   -4.3725 H   0  0  0  0  0  0  0  0  0  0  0  0
   -0.4642    1.1252    0.8763 C   0  0  0  0  0  3  0  0  0  0  0  0
    0.9934    0.2450    1.4637 S   0  0  0  0  0  0  0  0  0  0  0  0
    0.3911   -1.4606    1.4236 C   0  0  0  0  0  0  0  0  0  0  0  0
   -0.6913   -1.7830    2.4414 C   0  0  0  0  0  0  0  0  0  0  0  0
   -0.1807    2.1715    0.7708 H   0  0  0  0  0  0  0  0  0  0  0  0
   -1.2917    1.0601    1.5820 H   0  0  0  0  0  0  0  0  0  0  0  0
    1.2793   -2.0676    1.6067 H   0  0  0  0  0  0  0  0  0  0  0  0
    0.0539   -1.6856    0.4092 H   0  0  0  0  0  0  0  0  0  0  0  0
   -1.5953   -1.1996    2.2613 H   0  0  0  0  0  0  0  0  0  0  0  0
   -0.9640   -2.8392    2.3836 H   0  0  0  0  0  0  0  0  0  0  0  0
   -0.3472   -1.5699    3.4540 H   0  0  0  0  0  0  0  0  0  0  0  0
  1  2  2  3
  1  4  1  0
  1  5  1  0
  2  3  1  0
  2  6  1  0
  3  7  1  0
  3  8  1  0
  3  9  1  0
 10 11  1  0
 10 14  1  0
 10 15  1  0
 11 12  1  0
 12 13  1  0
 12 16  1  0
 12 17  1  0
 13 18  1  0
 13 19  1  0
 13 20  1  0
M  RAD  1  10   2
M  END
>  <reaction>  (14) 
rmg_rxn_545

>  <mol_properties>  (14) 
{"0": {"label": "*3", "atom_type": "Cd"}, "1": {"label": "*4", "atom_type": "Cd"}, "3": {"label": "*2", "atom_type": "H0"}, "9": {"label": "*1", "atom_type": "Cs"}, "10": {"label": "*0", "atom_type": "S2s"}}

>  <type>  (14) 
unop_10

>  <geom_source>  (14) 
Heuristics

$$$$

     RDKit          3D

 20 18  0  0  0  0  0  0  0  0999 V2000
    0.1743   -0.7410   -1.3396 C   0  0  0  0  0  0  0  0  0  0  0  0
    0.1743   -1.8234   -2.1017 C   0  0  0  0  0  0  0  0  0  0  0  0
    0.1743   -1.8234   -3.5964 C   0  0  0  0  0  0  0  0  0  0  0  0
    0.1743   -0.8227   -0.0429 H   0  0  0  0  0  0  0  0  0  0  0  0
    0.1743    0.2546   -1.7706 H   0  0  0  0  0  0  0  0  0  0  0  0
    0.1743   -2.7999   -1.6241 H   0  0  0  0  0  0  0  0  0  0  0  0
    1.0521   -2.3460   -3.9853 H   0  0  0  0  0  0  0  0  0  0  0  0
    0.1743   -0.8082   -3.9951 H   0  0  0  0  0  0  0  0  0  0  0  0
   -0.7034   -2.3460   -3.9853 H   0  0  0  0  0  0  0  0  0  0  0  0
    0.1743   -0.9049    1.2635 C   0  0  0  0  0  3  0  0  0  0  0  0
   -0.6672    0.5095    1.9953 S   0  0  0  0  0  0  0  0  0  0  0  0
   -0.3835    1.7618    0.7208 C   0  0  0  0  0  0  0  0  0  0  0  0
    1.0621    2.2079    0.5699 C   0  0  0  0  0  0  0  0  0  0  0  0
   -0.0146   -1.7571    1.9148 H   0  0  0  0  0  0  0  0  0  0  0  0
    1.2509   -0.7502    1.1991 H   0  0  0  0  0  0  0  0  0  0  0  0
   -1.0123    2.6022    1.0197 H   0  0  0  0  0  0  0  0  0  0  0  0
   -0.7786    1.3882   -0.2267 H   0  0  0  0  0  0  0  0  0  0  0  0
    1.7029    1.3845    0.2513 H   0  0  0  0  0  0  0  0  0  0  0  0
    1.1395    2.9957   -0.1829 H   0  0  0  0  0  0  0  0  0  0  0  0
    1.4496    2.5926    1.5137 H   0  0  0  0  0  0  0  0  0  0  0  0
  1  2  2  3
  1  4  1  0
  1  5  1  0
  2  3  1  0
  2  6  1  0
  3  7  1  0
  3  8  1  0
  3  9  1  0
 10 11  1  0
 10 14  1  0
 10 15  1  0
 11 12  1  0
 12 13  1  0
 12 16  1  0
 12 17  1  0
 13 18  1  0
 13 19  1  0
 13 20  1  0
M  RAD  1  10   2
M  END
>  <reaction>  (15) 
rmg_rxn_545

>  <mol_properties>  (15) 
{"0": {"label": "*3", "atom_type": "Cd"}, "1": {"label": "*4", "atom_type": "Cd"}, "3": {"label": "*2", "atom_type": "H0"}, "9": {"label": "*1", "atom_type": "Cs"}, "10": {"label": "*0", "atom_type": "S2s"}}

>  <type>  (15) 
unop_11

>  <geom_source>  (15) 
Heuristics

$$$$

     RDKit          3D

 20 18  0  0  0  0  0  0  0  0999 V2000
    0.5430    1.3352   -1.4350 C   0  0  0  0  0  0  0  0  0  0  0  0
    0.5430    0.2528   -2.1971 C   0  0  0  0  0  0  0  0  0  0  0  0
    0.5430    0.2528   -3.6918 C   0  0  0  0  0  0  0  0  0  0  0  0
    0.5430    1.2535   -0.1383 H   0  0  0  0  0  0  0  0  0  0  0  0
    0.5430    2.3308   -1.8660 H   0  0  0  0  0  0  0  0  0  0  0  0
    0.5430   -0.7237   -1.7196 H   0  0  0  0  0  0  0  0  0  0  0  0
    1.4207   -0.2698   -4.0807 H   0  0  0  0  0  0  0  0  0  0  0  0
    0.5430    1.2680   -4.0905 H   0  0  0  0  0  0  0  0  0  0  0  0
   -0.3347   -0.2698   -4.0807 H   0  0  0  0  0  0  0  0  0  0  0  0
    0.5430    1.1713    1.1681 C   0  0  0  0  0  3  0  0  0  0  0  0
    0.5430   -0.5488    1.7026 S   0  0  0  0  0  0  0  0  0  0  0  0
   -0.9400   -1.1580    0.8643 C   0  0  0  0  0  0  0  0  0  0  0  0
   -2.2507   -0.5912    1.3861 C   0  0  0  0  0  0  0  0  0  0  0  0
    1.4607    1.6199    1.5458 H   0  0  0  0  0  0  0  0  0  0  0  0
   -0.3045    1.7238    1.5725 H   0  0  0  0  0  0  0  0  0  0  0  0
   -0.9090   -2.2394    1.0070 H   0  0  0  0  0  0  0  0  0  0  0  0
   -0.8332   -0.9740   -0.2072 H   0  0  0  0  0  0  0  0  0  0  0  0
   -2.3084    0.4874    1.2331 H   0  0  0  0  0  0  0  0  0  0  0  0
   -3.0955   -1.0438    0.8617 H   0  0  0  0  0  0  0  0  0  0  0  0
   -2.3608   -0.7880    2.4530 H   0  0  0  0  0  0  0  0  0  0  0  0
  1  2  2  3
  1  4  1  0
  1  5  1  0
  2  3  1  0
  2  6  1  0
  3  7  1  0
  3  8  1  0
  3  9  1  0
 10 11  1  0
 10 14  1  0
 10 15  1  0
 11 12  1  0
 12 13  1  0
 12 16  1  0
 12 17  1  0
 13 18  1  0
 13 19  1  0
 13 20  1  0
M  RAD  1  10   2
M  END
>  <reaction>  (16) 
rmg_rxn_545

>  <mol_properties>  (16) 
{"0": {"label": "*3", "atom_type": "Cd"}, "1": {"label": "*4", "atom_type": "Cd"}, "3": {"label": "*2", "atom_type": "H0"}, "9": {"label": "*1", "atom_type": "Cs"}, "10": {"label": "*0", "atom_type": "S2s"}}

>  <type>  (16) 
unop_12

>  <geom_source>  (16) 
Heuristics

$$$$

     RDKit          3D

 20 18  0  0  0  0  0  0  0  0999 V2000
    1.5208   -1.1744    0.5412 S   0  0  0  0  0  0  0  0  0  0  0  0
    1.7866    0.4160   -0.3110 C   0  0  0  0  0  0  0  0  0  0  0  0
    2.7292    1.2895    0.5028 C   0  0  0  0  0  0  0  0  0  0  0  0
   -2.1390    1.0024    0.8363 C   0  0  0  0  0  0  0  0  0  0  0  0
    0.4087   -1.8366   -0.7382 C   0  0  0  0  0  3  0  0  0  0  0  0
   -2.6272   -0.2743    0.2266 C   0  0  0  0  0  0  0  0  0  0  0  0
   -1.9736   -0.8476   -0.7834 C   0  0  0  0  0  0  0  0  0  0  0  0
    0.8158    0.9420   -0.4331 H   0  0  0  0  0  0  0  0  0  0  0  0
    2.2309    0.2343   -1.3129 H   0  0  0  0  0  0  0  0  0  0  0  0
    3.7106    0.7835    0.6241 H   0  0  0  0  0  0  0  0  0  0  0  0
    2.2941    1.4919    1.5045 H   0  0  0  0  0  0  0  0  0  0  0  0
    2.8874    2.2560   -0.0204 H   0  0  0  0  0  0  0  0  0  0  0  0
   -2.9240    1.7804    0.7357 H   0  0  0  0  0  0  0  0  0  0  0  0
   -1.2108    1.3625    0.3415 H   0  0  0  0  0  0  0  0  0  0  0  0
   -1.9304    0.8378    1.9138 H   0  0  0  0  0  0  0  0  0  0  0  0
    0.0682   -2.8476   -0.4344 H   0  0  0  0  0  0  0  0  0  0  0  0
    0.9451   -1.9141   -1.7068 H   0  0  0  0  0  0  0  0  0  0  0  0
   -0.7283   -0.9906   -0.8834 H   0  0  0  0  0  0  0  0  0  0  0  0
   -3.5286   -0.7379    0.6158 H   0  0  0  0  0  0  0  0  0  0  0  0
   -2.3355   -1.7733   -1.2189 H   0  0  0  0  0  0  0  0  0  0  0  0
  1  5  1  0
  1  2  1  0
  2  3  1  0
  2  8  1  0
  2  9  1  0
  3 10  1  0
  3 11  1  0
  3 12  1  0
  4  6  1  0
  4 13  1  0
  4 14  1  0
  4 15  1  0
  5 16  1  0
  5 17  1  0
  6  7  2  3
  6 19  1  0
  7 18  1  0
  7 20  1  0
M  RAD  1   5   2
M  END
>  <reaction>  (17) 
rmg_rxn_545

>  <mol_properties>  (17) 
{"0": {"label": "*3", "atom_type": "Cd"}, "1": {"label": "*4", "atom_type": "Cd"}, "3": {"label": "*2", "atom_type": "H0"}, "9": {"label": "*1", "atom_type": "Cs"}, "10": {"label": "*0", "atom_type": "S2s"}}

>  <type>  (17) 
unop_13

>  <geom_source>  (17) 
AutoTST

$$$$

     RDKit          3D

 20 18  0  0  0  0  0  0  0  0999 V2000
    0.0401    1.4445   -1.5930 C   0  0  0  0  0  0  0  0  0  0  0  0
    0.0401    0.3621   -2.3551 C   0  0  0  0  0  0  0  0  0  0  0  0
    0.0401    0.3621   -3.8498 C   0  0  0  0  0  0  0  0  0  0  0  0
    0.0401    1.3628   -0.2963 H   0  0  0  0  0  0  0  0  0  0  0  0
    0.0401    2.4401   -2.0240 H   0  0  0  0  0  0  0  0  0  0  0  0
    0.0401   -0.6144   -1.8776 H   0  0  0  0  0  0  0  0  0  0  0  0
    0.9179   -0.1605   -4.2387 H   0  0  0  0  0  0  0  0  0  0  0  0
    0.0401    1.3773   -4.2485 H   0  0  0  0  0  0  0  0  0  0  0  0
   -0.8376   -0.1605   -4.2387 H   0  0  0  0  0  0  0  0  0  0  0  0
    0.0401    1.2806    1.0100 C   0  0  0  0  0  3  0  0  0  0  0  0
    0.8817   -0.2144    1.5587 S   0  0  0  0  0  0  0  0  0  0  0  0
   -0.3632   -1.4640    1.1564 C   0  0  0  0  0  0  0  0  0  0  0  0
   -1.6289   -1.4027    1.9964 C   0  0  0  0  0  0  0  0  0  0  0  0
    0.7478    2.1010    1.1216 H   0  0  0  0  0  0  0  0  0  0  0  0
   -0.8400    1.4980    1.6141 H   0  0  0  0  0  0  0  0  0  0  0  0
    0.1480   -2.4163    1.3068 H   0  0  0  0  0  0  0  0  0  0  0  0
   -0.5964   -1.3912    0.0916 H   0  0  0  0  0  0  0  0  0  0  0  0
   -2.1648   -0.4648    1.8433 H   0  0  0  0  0  0  0  0  0  0  0  0
   -2.3050   -2.2164    1.7241 H   0  0  0  0  0  0  0  0  0  0  0  0
   -1.3944   -1.4889    3.0579 H   0  0  0  0  0  0  0  0  0  0  0  0
  1  2  2  3
  1  4  1  0
  1  5  1  0
  2  3  1  0
  2  6  1  0
  3  7  1  0
  3  8  1  0
  3  9  1  0
 10 11  1  0
 10 14  1  0
 10 15  1  0
 11 12  1  0
 12 13  1  0
 12 16  1  0
 12 17  1  0
 13 18  1  0
 13 19  1  0
 13 20  1  0
M  RAD  1  10   2
M  END
>  <reaction>  (18) 
rmg_rxn_545

>  <mol_properties>  (18) 
{"0": {"label": "*3", "atom_type": "Cd"}, "1": {"label": "*4", "atom_type": "Cd"}, "3": {"label": "*2", "atom_type": "H0"}, "9": {"label": "*1", "atom_type": "Cs"}, "10": {"label": "*0", "atom_type": "S2s"}}

>  <type>  (18) 
unop_14

>  <geom_source>  (18) 
gaussian_log

$$$$
