
     RDKit          3D

  8  7  0  0  0  0  0  0  0  0999 V2000
    0.9548    0.1194   -0.0790 C   0  0  0  0  0  0  0  0  0  0  0  0
   -0.4838   -0.2649    0.0193 C   0  0  0  0  0  0  0  0  0  0  0  0
   -0.8933   -1.1081    0.8664 N   0  0  0  0  0  0  0  0  0  0  0  0
    1.3360   -0.0983   -1.0800 H   0  0  0  0  0  0  0  0  0  0  0  0
    1.0698    1.1948    0.0786 H   0  0  0  0  0  0  0  0  0  0  0  0
    1.5426   -0.4219    0.6602 H   0  0  0  0  0  0  0  0  0  0  0  0
   -1.1575    0.2324   -0.6905 H   0  0  0  0  0  0  0  0  0  0  0  0
   -1.8989   -1.2455    0.7886 H   0  0  0  0  0  0  0  0  0  0  0  0
  1  2  1  0
  1  4  1  0
  1  5  1  0
  1  6  1  0
  2  3  2  3
  2  7  1  0
  3  8  1  0
M  END
>  <reaction>  (1) 
rmg_rxn_16464

>  <mol_properties>  (1) 
{"2": {"label": "donator", "atom_type": "N3d"}, "7": {"label": "d_hydrogen", "atom_type": "H0"}}

>  <type>  (1) 
r1h

$$$$

     RDKit          3D

 17 16  0  0  0  0  0  0  0  0999 V2000
   -3.2378    0.0781    0.0468 C   0  0  0  0  0  0  0  0  0  0  0  0
   -1.9072   -0.5430    0.2348 C   0  0  0  0  0  3  0  0  0  0  0  0
   -1.5607   -0.7743    1.5229 O   0  0  0  0  0  0  0  0  0  0  0  0
   -0.2678   -1.3170    1.7206 C   0  0  0  0  0  0  0  0  0  0  0  0
    0.0055   -1.4164    3.2061 C   0  0  0  0  0  0  0  0  0  0  0  0
    0.0347   -0.0632    3.9042 C   0  0  0  0  0  0  0  0  0  0  0  0
   -3.2816    1.0982    0.4537 H   0  0  0  0  0  0  0  0  0  0  0  0
   -3.4818    0.1310   -1.0144 H   0  0  0  0  0  0  0  0  0  0  0  0
   -4.0139   -0.5033    0.5509 H   0  0  0  0  0  0  0  0  0  0  0  0
   -1.0896   -0.3480   -0.4562 H   0  0  0  0  0  0  0  0  0  0  0  0
   -0.2142   -2.3036    1.2476 H   0  0  0  0  0  0  0  0  0  0  0  0
    0.4751   -0.6679    1.2371 H   0  0  0  0  0  0  0  0  0  0  0  0
   -0.7555   -2.0574    3.6583 H   0  0  0  0  0  0  0  0  0  0  0  0
    0.9642   -1.9267    3.3334 H   0  0  0  0  0  0  0  0  0  0  0  0
   -0.9209    0.4499    3.7952 H   0  0  0  0  0  0  0  0  0  0  0  0
    0.2399   -0.1765    4.9695 H   0  0  0  0  0  0  0  0  0  0  0  0
    0.8109    0.5782    3.4796 H   0  0  0  0  0  0  0  0  0  0  0  0
  1  2  1  0
  1  7  1  0
  1  8  1  0
  1  9  1  0
  2  3  1  0
  2 10  1  0
  3  4  1  0
  4  5  1  0
  4 11  1  0
  4 12  1  0
  5  6  1  0
  5 13  1  0
  5 14  1  0
  6 15  1  0
  6 16  1  0
  6 17  1  0
M  RAD  1   2   2
M  END
>  <reaction>  (2) 
rmg_rxn_16464

>  <mol_properties>  (2) 
{"1": {"label": "acceptor", "atom_type": "Cs"}}

>  <type>  (2) 
r2

$$$$

     RDKit          3D

 18 17  0  0  0  0  0  0  0  0999 V2000
    2.2026   -0.7213   -0.2612 C   0  0  0  0  0  0  0  0  0  0  0  0
    1.5384    0.2638    0.6915 C   0  0  0  0  0  0  0  0  0  0  0  0
    2.2584    1.5946    0.7694 C   0  0  0  0  0  0  0  0  0  0  0  0
    2.2212    2.2185   -0.4893 O   0  0  0  0  0  0  0  0  0  0  0  0
    2.8988    3.4488   -0.5204 C   0  0  0  0  0  0  0  0  0  0  0  0
    2.7981    4.0296   -1.9118 C   0  0  0  0  0  0  0  0  0  0  0  0
    3.2294   -0.9309    0.0486 H   0  0  0  0  0  0  0  0  0  0  0  0
    2.2338   -0.3181   -1.2734 H   0  0  0  0  0  0  0  0  0  0  0  0
    1.6610   -1.6680   -0.2875 H   0  0  0  0  0  0  0  0  0  0  0  0
    1.4990   -0.1566    1.7002 H   0  0  0  0  0  0  0  0  0  0  0  0
    0.5055    0.4455    0.3835 H   0  0  0  0  0  0  0  0  0  0  0  0
    3.3038    1.4410    1.0808 H   0  0  0  0  0  0  0  0  0  0  0  0
    1.7844    2.2410    1.5226 H   0  0  0  0  0  0  0  0  0  0  0  0
    2.4596    4.1376    0.2164 H   0  0  0  0  0  0  0  0  0  0  0  0
    3.9524    3.3035   -0.2397 H   0  0  0  0  0  0  0  0  0  0  0  0
    1.7543    4.1869   -2.1856 H   0  0  0  0  0  0  0  0  0  0  0  0
    3.2472    3.3545   -2.6411 H   0  0  0  0  0  0  0  0  0  0  0  0
    3.3178    4.9878   -1.9600 H   0  0  0  0  0  0  0  0  0  0  0  0
  1  2  1  0
  1  7  1  0
  1  8  1  0
  1  9  1  0
  2  3  1  0
  2 10  1  0
  2 11  1  0
  3  4  1  0
  3 12  1  0
  3 13  1  0
  4  5  1  0
  5  6  1  0
  5 14  1  0
  5 15  1  0
  6 16  1  0
  6 17  1  0
  6 18  1  0
M  END
>  <reaction>  (3) 
rmg_rxn_16464

>  <mol_properties>  (3) 
{"0": {"label": "a_hydrogen", "atom_type": "H0"}, "2": {"label": "acceptor", "atom_type": "Cs"}}

>  <type>  (3) 
r2h

$$$$

     RDKit          3D

 25 23  0  0  0  0  0  0  0  0999 V2000
    0.6326    0.4444   -3.5653 C   0  0  0  0  0  0  0  0  0  0  0  0
    0.4318    0.6894   -2.0989 C   0  0  0  0  0  0  0  0  0  0  0  0
   -0.1124    1.7280   -1.6506 N   0  0  0  0  0  0  0  0  0  0  0  0
    1.6961    0.3129   -3.7786 H   0  0  0  0  0  0  0  0  0  0  0  0
    0.1269   -0.4776   -3.8621 H   0  0  0  0  0  0  0  0  0  0  0  0
    0.2452    1.2758   -4.1513 H   0  0  0  0  0  0  0  0  0  0  0  0
    0.7905   -0.1030   -1.4233 H   0  0  0  0  0  0  0  0  0  0  0  0
   -0.1091    1.6115   -0.3828 H   0  0  0  0  0  0  0  0  0  0  0  0
    1.4139    1.7918    1.2965 C   0  0  0  0  0  0  0  0  0  0  0  0
    0.0707    1.2596    0.8998 C   0  0  0  0  0  3  0  0  0  0  0  0
    0.0300   -0.1160    0.9718 O   0  0  0  0  0  0  0  0  0  0  0  0
   -1.2566   -0.6732    0.7769 C   0  0  0  0  0  0  0  0  0  0  0  0
   -1.1558   -2.1826    0.8264 C   0  0  0  0  0  0  0  0  0  0  0  0
   -0.6789   -2.7109    2.1727 C   0  0  0  0  0  0  0  0  0  0  0  0
    2.1971    1.3432    0.6829 H   0  0  0  0  0  0  0  0  0  0  0  0
    1.4429    2.8722    1.1537 H   0  0  0  0  0  0  0  0  0  0  0  0
    1.6343    1.5723    2.3451 H   0  0  0  0  0  0  0  0  0  0  0  0
   -0.7811    1.7336    1.4026 H   0  0  0  0  0  0  0  0  0  0  0  0
   -1.9323   -0.3060    1.5620 H   0  0  0  0  0  0  0  0  0  0  0  0
   -1.6551   -0.3422   -0.1891 H   0  0  0  0  0  0  0  0  0  0  0  0
   -2.1429   -2.5892    0.5904 H   0  0  0  0  0  0  0  0  0  0  0  0
   -0.4811   -2.5133    0.0321 H   0  0  0  0  0  0  0  0  0  0  0  0
   -1.3593   -2.4091    2.9726 H   0  0  0  0  0  0  0  0  0  0  0  0
   -0.6280   -3.8005    2.1700 H   0  0  0  0  0  0  0  0  0  0  0  0
    0.3119   -2.3248    2.4122 H   0  0  0  0  0  0  0  0  0  0  0  0
  1  2  1  0
  1  4  1  0
  1  5  1  0
  1  6  1  0
  2  3  2  3
  2  7  1  0
  3  8  1  0
  9 10  1  0
  9 15  1  0
  9 16  1  0
  9 17  1  0
 10 11  1  0
 10 18  1  0
 11 12  1  0
 12 13  1  0
 12 19  1  0
 12 20  1  0
 13 14  1  0
 13 21  1  0
 13 22  1  0
 14 23  1  0
 14 24  1  0
 14 25  1  0
M  RAD  1  10   2
M  END
>  <reaction>  (4) 
rmg_rxn_16464

>  <mol_properties>  (4) 
{"1": {"label": "*0", "atom_type": "Cd"}, "2": {"label": "*1", "atom_type": "N3d"}, "7": {"label": "*2", "atom_type": "H0"}, "9": {"label": "*3", "atom_type": "Cs"}, "10": {"label": "*4", "atom_type": "O2s"}}

>  <type>  (4) 
ts

$$$$

     RDKit          3D

 25 23  0  0  0  0  0  0  0  0999 V2000
   -3.4761   -0.5161   -0.1448 C   0  0  0  0  0  0  0  0  0  0  0  0
   -2.1386    0.1581   -0.1818 C   0  0  0  0  0  0  0  0  0  0  0  0
   -1.4371    0.3077    0.8316 N   0  0  0  0  0  0  0  0  0  0  0  0
   -3.7146   -0.8254    0.8688 H   0  0  0  0  0  0  0  0  0  0  0  0
   -4.2392    0.1701   -0.5088 H   0  0  0  0  0  0  0  0  0  0  0  0
   -3.4603   -1.3859   -0.8000 H   0  0  0  0  0  0  0  0  0  0  0  0
   -1.8450    0.5005   -1.1871 H   0  0  0  0  0  0  0  0  0  0  0  0
   -0.3485    0.8482    0.6258 H   0  0  0  0  0  0  0  0  0  0  0  0
    0.5345    2.6737   -0.4092 C   0  0  0  0  0  0  0  0  0  0  0  0
    0.8284    1.4015    0.3454 C   0  0  0  0  0  3  0  0  0  0  0  0
    1.5754    0.5229   -0.4289 O   0  0  0  0  0  0  0  0  0  0  0  0
    2.1679   -0.5590    0.2496 C   0  0  0  0  0  0  0  0  0  0  0  0
    1.1881   -1.6935    0.5677 C   0  0  0  0  0  0  0  0  0  0  0  0
    0.6260   -2.3159   -0.7036 C   0  0  0  0  0  0  0  0  0  0  0  0
   -0.1560    3.2907    0.1596 H   0  0  0  0  0  0  0  0  0  0  0  0
    1.4494    3.2416   -0.5877 H   0  0  0  0  0  0  0  0  0  0  0  0
    0.0939    2.4389   -1.3753 H   0  0  0  0  0  0  0  0  0  0  0  0
    1.2685    1.5668    1.3351 H   0  0  0  0  0  0  0  0  0  0  0  0
    2.9487   -0.9235   -0.4248 H   0  0  0  0  0  0  0  0  0  0  0  0
    2.6376   -0.2056    1.1795 H   0  0  0  0  0  0  0  0  0  0  0  0
    1.7195   -2.4466    1.1522 H   0  0  0  0  0  0  0  0  0  0  0  0
    0.3696   -1.3026    1.1747 H   0  0  0  0  0  0  0  0  0  0  0  0
    0.1429   -1.5517   -1.3073 H   0  0  0  0  0  0  0  0  0  0  0  0
    1.4201   -2.7686   -1.2938 H   0  0  0  0  0  0  0  0  0  0  0  0
   -0.1073   -3.0808   -0.4604 H   0  0  0  0  0  0  0  0  0  0  0  0
  1  2  1  0
  1  4  1  0
  1  5  1  0
  1  6  1  0
  2  3  2  3
  2  7  1  0
  3  8  1  0
  9 10  1  0
  9 15  1  0
  9 16  1  0
  9 17  1  0
 10 11  1  0
 10 18  1  0
 11 12  1  0
 12 13  1  0
 12 19  1  0
 12 20  1  0
 13 14  1  0
 13 21  1  0
 13 22  1  0
 14 23  1  0
 14 24  1  0
 14 25  1  0
M  RAD  1  10   2
M  END
>  <reaction>  (5) 
rmg_rxn_16464

>  <mol_properties>  (5) 
{"1": {"label": "*0", "atom_type": "Cd"}, "2": {"label": "*1", "atom_type": "N3d"}, "7": {"label": "*2", "atom_type": "H0"}, "9": {"label": "*3", "atom_type": "Cs"}, "10": {"label": "*4", "atom_type": "O2s"}}

>  <type>  (5) 
unop_1

>  <geom_source>  (5) 
crest_best.xyz

$$$$

     RDKit          3D

 25 23  0  0  0  0  0  0  0  0999 V2000
   -0.9616   -0.7874   -4.1500 C   0  0  0  0  0  0  0  0  0  0  0  0
   -0.9616   -0.7874   -2.6577 C   0  0  0  0  0  0  0  0  0  0  0  0
   -0.9616    0.2852   -1.9900 N   0  0  0  0  0  0  0  0  0  0  0  0
   -0.0833   -1.3174   -4.5274 H   0  0  0  0  0  0  0  0  0  0  0  0
   -1.8399   -1.3174   -4.5274 H   0  0  0  0  0  0  0  0  0  0  0  0
   -0.9616    0.2332   -4.5286 H   0  0  0  0  0  0  0  0  0  0  0  0
   -0.9616   -1.7771   -2.1830 H   0  0  0  0  0  0  0  0  0  0  0  0
   -0.9616    0.0550   -0.7904 H   0  0  0  0  0  0  0  0  0  0  0  0
   -2.0120    0.8823    0.3565 C   0  0  0  0  0  0  0  0  0  0  0  0
   -0.9616   -0.1937    0.5061 C   0  0  0  0  0  3  0  0  0  0  0  0
    0.1821    0.3645    1.1010 O   0  0  0  0  0  0  0  0  0  0  0  0
    1.2222   -0.5625    1.2849 C   0  0  0  0  0  0  0  0  0  0  0  0
    2.3903    0.1220    1.9648 C   0  0  0  0  0  0  0  0  0  0  0  0
    2.0568    0.6286    3.3617 C   0  0  0  0  0  0  0  0  0  0  0  0
   -1.6407    1.6943   -0.2698 H   0  0  0  0  0  0  0  0  0  0  0  0
   -2.9112    0.4713   -0.1050 H   0  0  0  0  0  0  0  0  0  0  0  0
   -2.2790    1.2937    1.3306 H   0  0  0  0  0  0  0  0  0  0  0  0
   -1.3419   -1.0187    1.1265 H   0  0  0  0  0  0  0  0  0  0  0  0
    0.8686   -1.4057    1.8992 H   0  0  0  0  0  0  0  0  0  0  0  0
    1.5341   -0.9738    0.3136 H   0  0  0  0  0  0  0  0  0  0  0  0
    3.2177   -0.5916    2.0110 H   0  0  0  0  0  0  0  0  0  0  0  0
    2.7219    0.9509    1.3342 H   0  0  0  0  0  0  0  0  0  0  0  0
    1.7463   -0.1940    4.0107 H   0  0  0  0  0  0  0  0  0  0  0  0
    2.9211    1.1098    3.8217 H   0  0  0  0  0  0  0  0  0  0  0  0
    1.2426    1.3524    3.3257 H   0  0  0  0  0  0  0  0  0  0  0  0
  1  2  1  0
  1  4  1  0
  1  5  1  0
  1  6  1  0
  2  3  2  3
  2  7  1  0
  3  8  1  0
  9 10  1  0
  9 15  1  0
  9 16  1  0
  9 17  1  0
 10 11  1  0
 10 18  1  0
 11 12  1  0
 12 13  1  0
 12 19  1  0
 12 20  1  0
 13 14  1  0
 13 21  1  0
 13 22  1  0
 14 23  1  0
 14 24  1  0
 14 25  1  0
M  RAD  1  10   2
M  END
>  <reaction>  (6) 
rmg_rxn_16464

>  <mol_properties>  (6) 
{"1": {"label": "*0", "atom_type": "Cd"}, "2": {"label": "*1", "atom_type": "N3d"}, "7": {"label": "*2", "atom_type": "H0"}, "9": {"label": "*3", "atom_type": "Cs"}, "10": {"label": "*4", "atom_type": "O2s"}}

>  <type>  (6) 
unop_2

>  <geom_source>  (6) 
Heuristics

$$$$

     RDKit          3D

 25 23  0  0  0  0  0  0  0  0999 V2000
   -0.3523    0.5749   -3.8281 C   0  0  0  0  0  0  0  0  0  0  0  0
   -0.3523    0.5749   -2.3358 C   0  0  0  0  0  0  0  0  0  0  0  0
   -0.3523    1.6475   -1.6681 N   0  0  0  0  0  0  0  0  0  0  0  0
    0.5260    0.0449   -4.2055 H   0  0  0  0  0  0  0  0  0  0  0  0
   -1.2306    0.0449   -4.2055 H   0  0  0  0  0  0  0  0  0  0  0  0
   -0.3523    1.5955   -4.2067 H   0  0  0  0  0  0  0  0  0  0  0  0
   -0.3523   -0.4148   -1.8611 H   0  0  0  0  0  0  0  0  0  0  0  0
   -0.3523    1.4173   -0.4685 H   0  0  0  0  0  0  0  0  0  0  0  0
    0.5668    2.3127    1.1882 C   0  0  0  0  0  0  0  0  0  0  0  0
   -0.3523    1.1685    0.8280 C   0  0  0  0  0  3  0  0  0  0  0  0
    0.3080   -0.0449    1.0830 O   0  0  0  0  0  0  0  0  0  0  0  0
   -0.4691   -1.1757    0.7791 C   0  0  0  0  0  0  0  0  0  0  0  0
    0.3108   -2.4281    1.1232 C   0  0  0  0  0  0  0  0  0  0  0  0
    0.6254   -2.5484    2.6084 C   0  0  0  0  0  0  0  0  0  0  0  0
    1.4812    2.2694    0.5956 H   0  0  0  0  0  0  0  0  0  0  0  0
    0.0745    3.2676    0.9976 H   0  0  0  0  0  0  0  0  0  0  0  0
    0.8382    2.2671    2.2435 H   0  0  0  0  0  0  0  0  0  0  0  0
   -1.2803    1.2210    1.4163 H   0  0  0  0  0  0  0  0  0  0  0  0
   -1.4106   -1.1480    1.3503 H   0  0  0  0  0  0  0  0  0  0  0  0
   -0.7342   -1.1729   -0.2884 H   0  0  0  0  0  0  0  0  0  0  0  0
   -0.2743   -3.2903    0.7915 H   0  0  0  0  0  0  0  0  0  0  0  0
    1.2366   -2.4312    0.5420 H   0  0  0  0  0  0  0  0  0  0  0  0
   -0.2928   -2.5707    3.2006 H   0  0  0  0  0  0  0  0  0  0  0  0
    1.1819   -3.4628    2.8191 H   0  0  0  0  0  0  0  0  0  0  0  0
    1.2215   -1.7009    2.9466 H   0  0  0  0  0  0  0  0  0  0  0  0
  1  2  1  0
  1  4  1  0
  1  5  1  0
  1  6  1  0
  2  3  2  3
  2  7  1  0
  3  8  1  0
  9 10  1  0
  9 15  1  0
  9 16  1  0
  9 17  1  0
 10 11  1  0
 10 18  1  0
 11 12  1  0
 12 13  1  0
 12 19  1  0
 12 20  1  0
 13 14  1  0
 13 21  1  0
 13 22  1  0
 14 23  1  0
 14 24  1  0
 14 25  1  0
M  RAD  1  10   2
M  END
>  <reaction>  (7) 
rmg_rxn_16464

>  <mol_properties>  (7) 
{"1": {"label": "*0", "atom_type": "Cd"}, "2": {"label": "*1", "atom_type": "N3d"}, "7": {"label": "*2", "atom_type": "H0"}, "9": {"label": "*3", "atom_type": "Cs"}, "10": {"label": "*4", "atom_type": "O2s"}}

>  <type>  (7) 
unop_3

>  <geom_source>  (7) 
Heuristics

$$$$

     RDKit          3D

 25 23  0  0  0  0  0  0  0  0999 V2000
   -0.6713   -1.2067   -4.2008 C   0  0  0  0  0  0  0  0  0  0  0  0
   -0.6713   -1.2067   -2.7085 C   0  0  0  0  0  0  0  0  0  0  0  0
   -0.6713   -0.1341   -2.0408 N   0  0  0  0  0  0  0  0  0  0  0  0
    0.2070   -1.7367   -4.5782 H   0  0  0  0  0  0  0  0  0  0  0  0
   -1.5495   -1.7367   -4.5782 H   0  0  0  0  0  0  0  0  0  0  0  0
   -0.6713   -0.1861   -4.5794 H   0  0  0  0  0  0  0  0  0  0  0  0
   -0.6713   -2.1964   -2.2338 H   0  0  0  0  0  0  0  0  0  0  0  0
   -0.6713   -0.3642   -0.8412 H   0  0  0  0  0  0  0  0  0  0  0  0
   -2.1517   -0.3119    0.4216 C   0  0  0  0  0  0  0  0  0  0  0  0
   -0.6713   -0.6130    0.4553 C   0  0  0  0  0  3  0  0  0  0  0  0
   -0.0110    0.4199    1.1413 O   0  0  0  0  0  0  0  0  0  0  0  0
    1.3789    0.2307    1.2278 C   0  0  0  0  0  0  0  0  0  0  0  0
    1.9928    1.3704    2.0148 C   0  0  0  0  0  0  0  0  0  0  0  0
    1.5084    1.4310    3.4573 C   0  0  0  0  0  0  0  0  0  0  0  0
   -2.3377    0.6344   -0.0877 H   0  0  0  0  0  0  0  0  0  0  0  0
   -2.6863   -1.1020   -0.1080 H   0  0  0  0  0  0  0  0  0  0  0  0
   -2.5506   -0.2418    1.4342 H   0  0  0  0  0  0  0  0  0  0  0  0
   -0.4857   -1.5743    0.9569 H   0  0  0  0  0  0  0  0  0  0  0  0
    1.5963   -0.7297    1.7216 H   0  0  0  0  0  0  0  0  0  0  0  0
    1.8148    0.1856    0.2190 H   0  0  0  0  0  0  0  0  0  0  0  0
    3.0794    1.2510    1.9874 H   0  0  0  0  0  0  0  0  0  0  0  0
    1.7643    2.3086    1.5025 H   0  0  0  0  0  0  0  0  0  0  0  0
    1.7518    0.5077    3.9891 H   0  0  0  0  0  0  0  0  0  0  0  0
    1.9746    2.2588    3.9936 H   0  0  0  0  0  0  0  0  0  0  0  0
    0.4275    1.5650    3.4964 H   0  0  0  0  0  0  0  0  0  0  0  0
  1  2  1  0
  1  4  1  0
  1  5  1  0
  1  6  1  0
  2  3  2  3
  2  7  1  0
  3  8  1  0
  9 10  1  0
  9 15  1  0
  9 16  1  0
  9 17  1  0
 10 11  1  0
 10 18  1  0
 11 12  1  0
 12 13  1  0
 12 19  1  0
 12 20  1  0
 13 14  1  0
 13 21  1  0
 13 22  1  0
 14 23  1  0
 14 24  1  0
 14 25  1  0
M  RAD  1  10   2
M  END
>  <reaction>  (8) 
rmg_rxn_16464

>  <mol_properties>  (8) 
{"1": {"label": "*0", "atom_type": "Cd"}, "2": {"label": "*1", "atom_type": "N3d"}, "7": {"label": "*2", "atom_type": "H0"}, "9": {"label": "*3", "atom_type": "Cs"}, "10": {"label": "*4", "atom_type": "O2s"}}

>  <type>  (8) 
unop_4

>  <geom_source>  (8) 
Heuristics

$$$$

     RDKit          3D

 25 23  0  0  0  0  0  0  0  0999 V2000
    1.0764   -0.0897   -3.7701 C   0  0  0  0  0  0  0  0  0  0  0  0
    1.0764   -0.0897   -2.2778 C   0  0  0  0  0  0  0  0  0  0  0  0
    1.0764    0.9829   -1.6101 N   0  0  0  0  0  0  0  0  0  0  0  0
    1.9547   -0.6197   -4.1476 H   0  0  0  0  0  0  0  0  0  0  0  0
    0.1982   -0.6197   -4.1476 H   0  0  0  0  0  0  0  0  0  0  0  0
    1.0764    0.9309   -4.1487 H   0  0  0  0  0  0  0  0  0  0  0  0
    1.0764   -1.0794   -1.8032 H   0  0  0  0  0  0  0  0  0  0  0  0
    1.0764    0.7527   -0.4105 H   0  0  0  0  0  0  0  0  0  0  0  0
    2.1789    0.1924    1.8714 C   0  0  0  0  0  0  0  0  0  0  0  0
    1.0764    0.5040    0.8860 C   0  0  0  0  0  3  0  0  0  0  0  0
   -0.0673   -0.2348    1.2321 O   0  0  0  0  0  0  0  0  0  0  0  0
   -1.1551   -0.0122    0.3706 C   0  0  0  0  0  0  0  0  0  0  0  0
   -2.3459   -0.8187    0.8469 C   0  0  0  0  0  0  0  0  0  0  0  0
   -2.8383   -0.4016    2.2263 C   0  0  0  0  0  0  0  0  0  0  0  0
    2.4186   -0.8713    1.8529 H   0  0  0  0  0  0  0  0  0  0  0  0
    3.0794    0.7556    1.6218 H   0  0  0  0  0  0  0  0  0  0  0  0
    1.8729    0.4585    2.8838 H   0  0  0  0  0  0  0  0  0  0  0  0
    0.8449    1.5793    0.8953 H   0  0  0  0  0  0  0  0  0  0  0  0
   -1.4070    1.0600    0.3543 H   0  0  0  0  0  0  0  0  0  0  0  0
   -0.8856   -0.3003   -0.6561 H   0  0  0  0  0  0  0  0  0  0  0  0
   -3.1463   -0.7031    0.1109 H   0  0  0  0  0  0  0  0  0  0  0  0
   -2.0696   -1.8763    0.8510 H   0  0  0  0  0  0  0  0  0  0  0  0
   -3.1408    0.6486    2.2309 H   0  0  0  0  0  0  0  0  0  0  0  0
   -3.6980   -0.9988    2.5336 H   0  0  0  0  0  0  0  0  0  0  0  0
   -2.0523   -0.5269    2.9710 H   0  0  0  0  0  0  0  0  0  0  0  0
  1  2  1  0
  1  4  1  0
  1  5  1  0
  1  6  1  0
  2  3  2  3
  2  7  1  0
  3  8  1  0
  9 10  1  0
  9 15  1  0
  9 16  1  0
  9 17  1  0
 10 11  1  0
 10 18  1  0
 11 12  1  0
 12 13  1  0
 12 19  1  0
 12 20  1  0
 13 14  1  0
 13 21  1  0
 13 22  1  0
 14 23  1  0
 14 24  1  0
 14 25  1  0
M  RAD  1  10   2
M  END
>  <reaction>  (9) 
rmg_rxn_16464

>  <mol_properties>  (9) 
{"1": {"label": "*0", "atom_type": "Cd"}, "2": {"label": "*1", "atom_type": "N3d"}, "7": {"label": "*2", "atom_type": "H0"}, "9": {"label": "*3", "atom_type": "Cs"}, "10": {"label": "*4", "atom_type": "O2s"}}

>  <type>  (9) 
unop_5

>  <geom_source>  (9) 
Heuristics

$$$$

     RDKit          3D

 25 23  0  0  0  0  0  0  0  0999 V2000
   -0.2265   -1.4806   -4.1579 C   0  0  0  0  0  0  0  0  0  0  0  0
   -0.2265   -1.4806   -2.6656 C   0  0  0  0  0  0  0  0  0  0  0  0
   -0.2265   -0.4080   -1.9979 N   0  0  0  0  0  0  0  0  0  0  0  0
    0.6517   -2.0106   -4.5353 H   0  0  0  0  0  0  0  0  0  0  0  0
   -1.1048   -2.0106   -4.5353 H   0  0  0  0  0  0  0  0  0  0  0  0
   -0.2265   -0.4600   -4.5365 H   0  0  0  0  0  0  0  0  0  0  0  0
   -0.2265   -2.4703   -2.1909 H   0  0  0  0  0  0  0  0  0  0  0  0
   -0.2265   -0.6382   -0.7983 H   0  0  0  0  0  0  0  0  0  0  0  0
   -1.4493   -1.6874    0.8823 C   0  0  0  0  0  0  0  0  0  0  0  0
   -0.2265   -0.8869    0.4982 C   0  0  0  0  0  3  0  0  0  0  0  0
   -0.2265    0.3198    1.2176 O   0  0  0  0  0  0  0  0  0  0  0  0
    0.8781    1.1393    0.9294 C   0  0  0  0  0  0  0  0  0  0  0  0
    0.8091    2.3920    1.7786 C   0  0  0  0  0  0  0  0  0  0  0  0
    0.9022    2.1086    3.2721 C   0  0  0  0  0  0  0  0  0  0  0  0
   -2.3584   -1.1310    0.6513 H   0  0  0  0  0  0  0  0  0  0  0  0
   -1.4711   -2.6308    0.3345 H   0  0  0  0  0  0  0  0  0  0  0  0
   -1.4424   -1.9068    1.9506 H   0  0  0  0  0  0  0  0  0  0  0  0
    0.6895   -1.4546    0.7188 H   0  0  0  0  0  0  0  0  0  0  0  0
    1.8130    0.5942    1.1351 H   0  0  0  0  0  0  0  0  0  0  0  0
    0.8814    1.4024   -0.1386 H   0  0  0  0  0  0  0  0  0  0  0  0
    1.6235    3.0530    1.4696 H   0  0  0  0  0  0  0  0  0  0  0  0
   -0.1248    2.9132    1.5531 H   0  0  0  0  0  0  0  0  0  0  0  0
    1.8428    1.6084    3.5158 H   0  0  0  0  0  0  0  0  0  0  0  0
    0.8546    3.0322    3.8507 H   0  0  0  0  0  0  0  0  0  0  0  0
    0.0859    1.4621    3.5940 H   0  0  0  0  0  0  0  0  0  0  0  0
  1  2  1  0
  1  4  1  0
  1  5  1  0
  1  6  1  0
  2  3  2  3
  2  7  1  0
  3  8  1  0
  9 10  1  0
  9 15  1  0
  9 16  1  0
  9 17  1  0
 10 11  1  0
 10 18  1  0
 11 12  1  0
 12 13  1  0
 12 19  1  0
 12 20  1  0
 13 14  1  0
 13 21  1  0
 13 22  1  0
 14 23  1  0
 14 24  1  0
 14 25  1  0
M  RAD  1  10   2
M  END
>  <reaction>  (10) 
rmg_rxn_16464

>  <mol_properties>  (10) 
{"1": {"label": "*0", "atom_type": "Cd"}, "2": {"label": "*1", "atom_type": "N3d"}, "7": {"label": "*2", "atom_type": "H0"}, "9": {"label": "*3", "atom_type": "Cs"}, "10": {"label": "*4", "atom_type": "O2s"}}

>  <type>  (10) 
unop_6

>  <geom_source>  (10) 
Heuristics

$$$$

     RDKit          3D

 25 23  0  0  0  0  0  0  0  0999 V2000
    1.1249   -0.6604   -3.8533 C   0  0  0  0  0  0  0  0  0  0  0  0
    1.1249   -0.6604   -2.3609 C   0  0  0  0  0  0  0  0  0  0  0  0
    1.1249    0.4122   -1.6932 N   0  0  0  0  0  0  0  0  0  0  0  0
    2.0032   -1.1904   -4.2307 H   0  0  0  0  0  0  0  0  0  0  0  0
    0.2466   -1.1904   -4.2307 H   0  0  0  0  0  0  0  0  0  0  0  0
    1.1249    0.3602   -4.2319 H   0  0  0  0  0  0  0  0  0  0  0  0
    1.1249   -1.6501   -1.8863 H   0  0  0  0  0  0  0  0  0  0  0  0
    1.1249    0.1820   -0.4937 H   0  0  0  0  0  0  0  0  0  0  0  0
    2.0445   -0.7524    1.7866 C   0  0  0  0  0  0  0  0  0  0  0  0
    1.1249   -0.0668    0.8029 C   0  0  0  0  0  3  0  0  0  0  0  0
   -0.1957   -0.1570    1.2734 O   0  0  0  0  0  0  0  0  0  0  0  0
   -1.1322    0.4556    0.4234 C   0  0  0  0  0  0  0  0  0  0  0  0
   -2.5144    0.3402    1.0330 C   0  0  0  0  0  0  0  0  0  0  0  0
   -2.6452    1.0711    2.3625 C   0  0  0  0  0  0  0  0  0  0  0  0
    1.7726   -1.8028    1.8957 H   0  0  0  0  0  0  0  0  0  0  0  0
    3.0779   -0.6954    1.4412 H   0  0  0  0  0  0  0  0  0  0  0  0
    1.9794   -0.2767    2.7659 H   0  0  0  0  0  0  0  0  0  0  0  0
    1.4086    0.9893    0.6830 H   0  0  0  0  0  0  0  0  0  0  0  0
   -0.8702    1.5158    0.2791 H   0  0  0  0  0  0  0  0  0  0  0  0
   -1.1107   -0.0240   -0.5662 H   0  0  0  0  0  0  0  0  0  0  0  0
   -3.2340    0.7384    0.3122 H   0  0  0  0  0  0  0  0  0  0  0  0
   -2.7492   -0.7195    1.1626 H   0  0  0  0  0  0  0  0  0  0  0  0
   -2.4364    2.1372    2.2433 H   0  0  0  0  0  0  0  0  0  0  0  0
   -3.6530    0.9709    2.7682 H   0  0  0  0  0  0  0  0  0  0  0  0
   -1.9421    0.6718    3.0935 H   0  0  0  0  0  0  0  0  0  0  0  0
  1  2  1  0
  1  4  1  0
  1  5  1  0
  1  6  1  0
  2  3  2  3
  2  7  1  0
  3  8  1  0
  9 10  1  0
  9 15  1  0
  9 16  1  0
  9 17  1  0
 10 11  1  0
 10 18  1  0
 11 12  1  0
 12 13  1  0
 12 19  1  0
 12 20  1  0
 13 14  1  0
 13 21  1  0
 13 22  1  0
 14 23  1  0
 14 24  1  0
 14 25  1  0
M  RAD  1  10   2
M  END
>  <reaction>  (11) 
rmg_rxn_16464

>  <mol_properties>  (11) 
{"1": {"label": "*0", "atom_type": "Cd"}, "2": {"label": "*1", "atom_type": "N3d"}, "7": {"label": "*2", "atom_type": "H0"}, "9": {"label": "*3", "atom_type": "Cs"}, "10": {"label": "*4", "atom_type": "O2s"}}

>  <type>  (11) 
unop_7

>  <geom_source>  (11) 
Heuristics

$$$$

     RDKit          3D

 25 23  0  0  0  0  0  0  0  0999 V2000
    0.8696   -1.1852   -3.9536 C   0  0  0  0  0  0  0  0  0  0  0  0
    0.8696   -1.1852   -2.4612 C   0  0  0  0  0  0  0  0  0  0  0  0
    0.8696   -0.1126   -1.7935 N   0  0  0  0  0  0  0  0  0  0  0  0
    1.7479   -1.7152   -4.3310 H   0  0  0  0  0  0  0  0  0  0  0  0
   -0.0086   -1.7152   -4.3310 H   0  0  0  0  0  0  0  0  0  0  0  0
    0.8696   -0.1646   -4.3322 H   0  0  0  0  0  0  0  0  0  0  0  0
    0.8696   -2.1749   -1.9866 H   0  0  0  0  0  0  0  0  0  0  0  0
    0.8696   -0.3428   -0.5940 H   0  0  0  0  0  0  0  0  0  0  0  0
    1.4236   -1.6626    1.6133 C   0  0  0  0  0  0  0  0  0  0  0  0
    0.8696   -0.5915    0.7026 C   0  0  0  0  0  3  0  0  0  0  0  0
   -0.2741   -0.0333    1.2975 O   0  0  0  0  0  0  0  0  0  0  0  0
   -0.8658    0.9794    0.5234 C   0  0  0  0  0  0  0  0  0  0  0  0
   -2.0619    1.5427    1.2632 C   0  0  0  0  0  0  0  0  0  0  0  0
   -1.6905    2.2128    2.5794 C   0  0  0  0  0  0  0  0  0  0  0  0
    0.6834   -2.4469    1.7752 H   0  0  0  0  0  0  0  0  0  0  0  0
    2.3140   -2.1118    1.1707 H   0  0  0  0  0  0  0  0  0  0  0  0
    1.6935   -1.2390    2.5813 H   0  0  0  0  0  0  0  0  0  0  0  0
    1.6218    0.1921    0.5286 H   0  0  0  0  0  0  0  0  0  0  0  0
   -0.1326    1.7778    0.3271 H   0  0  0  0  0  0  0  0  0  0  0  0
   -1.1763    0.5739   -0.4507 H   0  0  0  0  0  0  0  0  0  0  0  0
   -2.5586    2.2592    0.6031 H   0  0  0  0  0  0  0  0  0  0  0  0
   -2.7726    0.7317    1.4425 H   0  0  0  0  0  0  0  0  0  0  0  0
   -0.9982    3.0419    2.4127 H   0  0  0  0  0  0  0  0  0  0  0  0
   -2.5742    2.6104    3.0806 H   0  0  0  0  0  0  0  0  0  0  0  0
   -1.2077    1.5032    3.2512 H   0  0  0  0  0  0  0  0  0  0  0  0
  1  2  1  0
  1  4  1  0
  1  5  1  0
  1  6  1  0
  2  3  2  3
  2  7  1  0
  3  8  1  0
  9 10  1  0
  9 15  1  0
  9 16  1  0
  9 17  1  0
 10 11  1  0
 10 18  1  0
 11 12  1  0
 12 13  1  0
 12 19  1  0
 12 20  1  0
 13 14  1  0
 13 21  1  0
 13 22  1  0
 14 23  1  0
 14 24  1  0
 14 25  1  0
M  RAD  1  10   2
M  END
>  <reaction>  (12) 
rmg_rxn_16464

>  <mol_properties>  (12) 
{"1": {"label": "*0", "atom_type": "Cd"}, "2": {"label": "*1", "atom_type": "N3d"}, "7": {"label": "*2", "atom_type": "H0"}, "9": {"label": "*3", "atom_type": "Cs"}, "10": {"label": "*4", "atom_type": "O2s"}}

>  <type>  (12) 
unop_8

>  <geom_source>  (12) 
Heuristics

$$$$

     RDKit          3D

 25 23  0  0  0  0  0  0  0  0999 V2000
   -1.0279   -0.2636   -4.0492 C   0  0  0  0  0  0  0  0  0  0  0  0
   -1.0279   -0.2636   -2.5569 C   0  0  0  0  0  0  0  0  0  0  0  0
   -1.0279    0.8090   -1.8892 N   0  0  0  0  0  0  0  0  0  0  0  0
   -0.1497   -0.7936   -4.4266 H   0  0  0  0  0  0  0  0  0  0  0  0
   -1.9062   -0.7936   -4.4266 H   0  0  0  0  0  0  0  0  0  0  0  0
   -1.0279    0.7570   -4.4278 H   0  0  0  0  0  0  0  0  0  0  0  0
   -1.0279   -1.2533   -2.0823 H   0  0  0  0  0  0  0  0  0  0  0  0
   -1.0279    0.5789   -0.6896 H   0  0  0  0  0  0  0  0  0  0  0  0
   -1.4242    1.7865    0.5329 C   0  0  0  0  0  0  0  0  0  0  0  0
   -1.0279    0.3301    0.6069 C   0  0  0  0  0  3  0  0  0  0  0  0
    0.2927    0.2398    1.0774 O   0  0  0  0  0  0  0  0  0  0  0  0
    0.7565   -1.0826    1.1830 C   0  0  0  0  0  0  0  0  0  0  0  0
    2.1682   -1.0771    1.7328 C   0  0  0  0  0  0  0  0  0  0  0  0
    2.2591   -0.5092    3.1430 C   0  0  0  0  0  0  0  0  0  0  0  0
   -0.7633    2.3284   -0.1445 H   0  0  0  0  0  0  0  0  0  0  0  0
   -2.4483    1.8816    0.1686 H   0  0  0  0  0  0  0  0  0  0  0  0
   -1.3622    2.2499    1.5181 H   0  0  0  0  0  0  0  0  0  0  0  0
   -1.7037   -0.2186    1.2795 H   0  0  0  0  0  0  0  0  0  0  0  0
    0.0943   -1.6600    1.8474 H   0  0  0  0  0  0  0  0  0  0  0  0
    0.7335   -1.5680    0.1963 H   0  0  0  0  0  0  0  0  0  0  0  0
    2.5392   -2.1056    1.7167 H   0  0  0  0  0  0  0  0  0  0  0  0
    2.8027   -0.5008    1.0546 H   0  0  0  0  0  0  0  0  0  0  0  0
    1.6477   -1.0909    3.8374 H   0  0  0  0  0  0  0  0  0  0  0  0
    3.2873   -0.5261    3.5075 H   0  0  0  0  0  0  0  0  0  0  0  0
    1.9054    0.5214    3.1677 H   0  0  0  0  0  0  0  0  0  0  0  0
  1  2  1  0
  1  4  1  0
  1  5  1  0
  1  6  1  0
  2  3  2  3
  2  7  1  0
  3  8  1  0
  9 10  1  0
  9 15  1  0
  9 16  1  0
  9 17  1  0
 10 11  1  0
 10 18  1  0
 11 12  1  0
 12 13  1  0
 12 19  1  0
 12 20  1  0
 13 14  1  0
 13 21  1  0
 13 22  1  0
 14 23  1  0
 14 24  1  0
 14 25  1  0
M  RAD  1  10   2
M  END
>  <reaction>  (13) 
rmg_rxn_16464

>  <mol_properties>  (13) 
{"1": {"label": "*0", "atom_type": "Cd"}, "2": {"label": "*1", "atom_type": "N3d"}, "7": {"label": "*2", "atom_type": "H0"}, "9": {"label": "*3", "atom_type": "Cs"}, "10": {"label": "*4", "atom_type": "O2s"}}

>  <type>  (13) 
unop_9

>  <geom_source>  (13) 
Heuristics

$$$$

     RDKit          3D

 25 23  0  0  0  0  0  0  0  0999 V2000
   -3.4761   -0.5161   -0.1448 C   0  0  0  0  0  0  0  0  0  0  0  0
   -2.1386    0.1581   -0.1818 C   0  0  0  0  0  0  0  0  0  0  0  0
   -1.4371    0.3077    0.8316 N   0  0  0  0  0  0  0  0  0  0  0  0
   -3.7146   -0.8254    0.8688 H   0  0  0  0  0  0  0  0  0  0  0  0
   -4.2392    0.1701   -0.5088 H   0  0  0  0  0  0  0  0  0  0  0  0
   -3.4603   -1.3859   -0.8000 H   0  0  0  0  0  0  0  0  0  0  0  0
   -1.8450    0.5005   -1.1871 H   0  0  0  0  0  0  0  0  0  0  0  0
   -0.3485    0.8482    0.6258 H   0  0  0  0  0  0  0  0  0  0  0  0
    0.5345    2.6737   -0.4092 C   0  0  0  0  0  0  0  0  0  0  0  0
    0.8284    1.4015    0.3454 C   0  0  0  0  0  3  0  0  0  0  0  0
    1.5754    0.5229   -0.4289 O   0  0  0  0  0  0  0  0  0  0  0  0
    2.1679   -0.5590    0.2496 C   0  0  0  0  0  0  0  0  0  0  0  0
    1.1881   -1.6935    0.5677 C   0  0  0  0  0  0  0  0  0  0  0  0
    0.6260   -2.3159   -0.7036 C   0  0  0  0  0  0  0  0  0  0  0  0
   -0.1560    3.2907    0.1596 H   0  0  0  0  0  0  0  0  0  0  0  0
    1.4494    3.2416   -0.5877 H   0  0  0  0  0  0  0  0  0  0  0  0
    0.0939    2.4389   -1.3753 H   0  0  0  0  0  0  0  0  0  0  0  0
    1.2685    1.5668    1.3351 H   0  0  0  0  0  0  0  0  0  0  0  0
    2.9487   -0.9235   -0.4248 H   0  0  0  0  0  0  0  0  0  0  0  0
    2.6376   -0.2056    1.1795 H   0  0  0  0  0  0  0  0  0  0  0  0
    1.7195   -2.4466    1.1522 H   0  0  0  0  0  0  0  0  0  0  0  0
    0.3696   -1.3026    1.1747 H   0  0  0  0  0  0  0  0  0  0  0  0
    0.1429   -1.5517   -1.3073 H   0  0  0  0  0  0  0  0  0  0  0  0
    1.4201   -2.7686   -1.2938 H   0  0  0  0  0  0  0  0  0  0  0  0
   -0.1073   -3.0808   -0.4604 H   0  0  0  0  0  0  0  0  0  0  0  0
  1  2  1  0
  1  4  1  0
  1  5  1  0
  1  6  1  0
  2  3  2  3
  2  7  1  0
  3  8  1  0
  9 10  1  0
  9 15  1  0
  9 16  1  0
  9 17  1  0
 10 11  1  0
 10 18  1  0
 11 12  1  0
 12 13  1  0
 12 19  1  0
 12 20  1  0
 13 14  1  0
 13 21  1  0
 13 22  1  0
 14 23  1  0
 14 24  1  0
 14 25  1  0
M  RAD  1  10   2
M  END
>  <reaction>  (14) 
rmg_rxn_16464

>  <mol_properties>  (14) 
{"1": {"label": "*0", "atom_type": "Cd"}, "2": {"label": "*1", "atom_type": "N3d"}, "7": {"label": "*2", "atom_type": "H0"}, "9": {"label": "*3", "atom_type": "Cs"}, "10": {"label": "*4", "atom_type": "O2s"}}

>  <type>  (14) 
unop_10

>  <geom_source>  (14) 
Heuristics

$$$$

     RDKit          3D

 25 23  0  0  0  0  0  0  0  0999 V2000
    0.7493    0.3791   -3.7315 C   0  0  0  0  0  0  0  0  0  0  0  0
    0.7493    0.3791   -2.2391 C   0  0  0  0  0  0  0  0  0  0  0  0
    0.7493    1.4517   -1.5714 N   0  0  0  0  0  0  0  0  0  0  0  0
    1.6276   -0.1509   -4.1089 H   0  0  0  0  0  0  0  0  0  0  0  0
   -0.1289   -0.1509   -4.1089 H   0  0  0  0  0  0  0  0  0  0  0  0
    0.7493    1.3997   -4.1101 H   0  0  0  0  0  0  0  0  0  0  0  0
    0.7493   -0.6106   -1.7645 H   0  0  0  0  0  0  0  0  0  0  0  0
    0.7493    1.2216   -0.3719 H   0  0  0  0  0  0  0  0  0  0  0  0
    1.9733    1.0605    1.8066 C   0  0  0  0  0  0  0  0  0  0  0  0
    0.7493    0.9728    0.9247 C   0  0  0  0  0  3  0  0  0  0  0  0
    0.0890   -0.2407    1.1797 O   0  0  0  0  0  0  0  0  0  0  0  0
   -1.0698   -0.4170    0.4045 C   0  0  0  0  0  0  0  0  0  0  0  0
   -1.7288   -1.7291    0.7780 C   0  0  0  0  0  0  0  0  0  0  0  0
   -2.2066   -1.7689    2.2234 C   0  0  0  0  0  0  0  0  0  0  0  0
    2.6520    0.2318    1.6018 H   0  0  0  0  0  0  0  0  0  0  0  0
    2.5037    1.9965    1.6252 H   0  0  0  0  0  0  0  0  0  0  0  0
    1.6896    1.0209    2.8589 H   0  0  0  0  0  0  0  0  0  0  0  0
    0.0719    1.8167    1.1221 H   0  0  0  0  0  0  0  0  0  0  0  0
   -1.7668    0.4184    0.5768 H   0  0  0  0  0  0  0  0  0  0  0  0
   -0.8106   -0.4113   -0.6644 H   0  0  0  0  0  0  0  0  0  0  0  0
   -2.5710   -1.8876    0.0988 H   0  0  0  0  0  0  0  0  0  0  0  0
   -1.0178   -2.5390    0.5953 H   0  0  0  0  0  0  0  0  0  0  0  0
   -2.9369   -0.9785    2.4143 H   0  0  0  0  0  0  0  0  0  0  0  0
   -2.6796   -2.7245    2.4545 H   0  0  0  0  0  0  0  0  0  0  0  0
   -1.3720   -1.6267    2.9100 H   0  0  0  0  0  0  0  0  0  0  0  0
  1  2  1  0
  1  4  1  0
  1  5  1  0
  1  6  1  0
  2  3  2  3
  2  7  1  0
  3  8  1  0
  9 10  1  0
  9 15  1  0
  9 16  1  0
  9 17  1  0
 10 11  1  0
 10 18  1  0
 11 12  1  0
 12 13  1  0
 12 19  1  0
 12 20  1  0
 13 14  1  0
 13 21  1  0
 13 22  1  0
 14 23  1  0
 14 24  1  0
 14 25  1  0
M  RAD  1  10   2
M  END
>  <reaction>  (15) 
rmg_rxn_16464

>  <mol_properties>  (15) 
{"1": {"label": "*0", "atom_type": "Cd"}, "2": {"label": "*1", "atom_type": "N3d"}, "7": {"label": "*2", "atom_type": "H0"}, "9": {"label": "*3", "atom_type": "Cs"}, "10": {"label": "*4", "atom_type": "O2s"}}

>  <type>  (15) 
unop_11

>  <geom_source>  (15) 
Heuristics

$$$$

     RDKit          3D

 25 23  0  0  0  0  0  0  0  0999 V2000
   -0.8133    0.2410   -3.9335 C   0  0  0  0  0  0  0  0  0  0  0  0
   -0.8133    0.2410   -2.4412 C   0  0  0  0  0  0  0  0  0  0  0  0
   -0.8133    1.3137   -1.7735 N   0  0  0  0  0  0  0  0  0  0  0  0
    0.0649   -0.2890   -4.3109 H   0  0  0  0  0  0  0  0  0  0  0  0
   -1.6916   -0.2890   -4.3109 H   0  0  0  0  0  0  0  0  0  0  0  0
   -0.8133    1.2616   -4.3121 H   0  0  0  0  0  0  0  0  0  0  0  0
   -0.8133   -0.7487   -1.9665 H   0  0  0  0  0  0  0  0  0  0  0  0
   -0.8133    1.0835   -0.5739 H   0  0  0  0  0  0  0  0  0  0  0  0
   -0.4958    2.3085    0.8265 C   0  0  0  0  0  0  0  0  0  0  0  0
   -0.8133    0.8347    0.7226 C   0  0  0  0  0  3  0  0  0  0  0  0
    0.3304    0.0960    1.0687 O   0  0  0  0  0  0  0  0  0  0  0  0
    0.1354   -1.2943    1.0037 C   0  0  0  0  0  0  0  0  0  0  0  0
    1.4063   -1.9999    1.4303 C   0  0  0  0  0  0  0  0  0  0  0  0
    1.7906   -1.7188    2.8768 C   0  0  0  0  0  0  0  0  0  0  0  0
    0.3201    2.5720    0.1525 H   0  0  0  0  0  0  0  0  0  0  0  0
   -1.3711    2.9034    0.5611 H   0  0  0  0  0  0  0  0  0  0  0  0
   -0.1979    2.5644    1.8439 H   0  0  0  0  0  0  0  0  0  0  0  0
   -1.6456    0.5726    1.3925 H   0  0  0  0  0  0  0  0  0  0  0  0
   -0.6984   -1.5869    1.6615 H   0  0  0  0  0  0  0  0  0  0  0  0
   -0.1380   -1.5872   -0.0206 H   0  0  0  0  0  0  0  0  0  0  0  0
    1.2609   -3.0735    1.2814 H   0  0  0  0  0  0  0  0  0  0  0  0
    2.2146   -1.6940    0.7610 H   0  0  0  0  0  0  0  0  0  0  0  0
    1.0008   -2.0420    3.5596 H   0  0  0  0  0  0  0  0  0  0  0  0
    2.7056   -2.2465    3.1498 H   0  0  0  0  0  0  0  0  0  0  0  0
    1.9526   -0.6523    3.0329 H   0  0  0  0  0  0  0  0  0  0  0  0
  1  2  1  0
  1  4  1  0
  1  5  1  0
  1  6  1  0
  2  3  2  3
  2  7  1  0
  3  8  1  0
  9 10  1  0
  9 15  1  0
  9 16  1  0
  9 17  1  0
 10 11  1  0
 10 18  1  0
 11 12  1  0
 12 13  1  0
 12 19  1  0
 12 20  1  0
 13 14  1  0
 13 21  1  0
 13 22  1  0
 14 23  1  0
 14 24  1  0
 14 25  1  0
M  RAD  1  10   2
M  END
>  <reaction>  (16) 
rmg_rxn_16464

>  <mol_properties>  (16) 
{"1": {"label": "*0", "atom_type": "Cd"}, "2": {"label": "*1", "atom_type": "N3d"}, "7": {"label": "*2", "atom_type": "H0"}, "9": {"label": "*3", "atom_type": "Cs"}, "10": {"label": "*4", "atom_type": "O2s"}}

>  <type>  (16) 
unop_12

>  <geom_source>  (16) 
Heuristics

$$$$

     RDKit          3D

 25 23  0  0  0  0  0  0  0  0999 V2000
    0.3605   -1.5023   -4.0548 C   0  0  0  0  0  0  0  0  0  0  0  0
    0.3605   -1.5023   -2.5625 C   0  0  0  0  0  0  0  0  0  0  0  0
    0.3605   -0.4297   -1.8948 N   0  0  0  0  0  0  0  0  0  0  0  0
    1.2387   -2.0323   -4.4322 H   0  0  0  0  0  0  0  0  0  0  0  0
   -0.5178   -2.0323   -4.4322 H   0  0  0  0  0  0  0  0  0  0  0  0
    0.3605   -0.4817   -4.4334 H   0  0  0  0  0  0  0  0  0  0  0  0
    0.3605   -2.4920   -2.0878 H   0  0  0  0  0  0  0  0  0  0  0  0
    0.3605   -0.6599   -0.6952 H   0  0  0  0  0  0  0  0  0  0  0  0
    0.1635   -2.2032    1.3556 C   0  0  0  0  0  0  0  0  0  0  0  0
    0.3605   -0.9086    0.6013 C   0  0  0  0  0  3  0  0  0  0  0  0
   -0.2998    0.1243    1.2873 O   0  0  0  0  0  0  0  0  0  0  0  0
   -0.1743    1.3765    0.6619 C   0  0  0  0  0  0  0  0  0  0  0  0
   -0.8829    2.4262    1.4934 C   0  0  0  0  0  0  0  0  0  0  0  0
   -0.2708    2.6083    2.8760 C   0  0  0  0  0  0  0  0  0  0  0  0
   -0.8976   -2.4432    1.4321 H   0  0  0  0  0  0  0  0  0  0  0  0
    0.6682   -3.0217    0.8400 H   0  0  0  0  0  0  0  0  0  0  0  0
    0.5719   -2.1240    2.3637 H   0  0  0  0  0  0  0  0  0  0  0  0
    1.4316   -0.6745    0.5125 H   0  0  0  0  0  0  0  0  0  0  0  0
    0.8907    1.6361    0.5533 H   0  0  0  0  0  0  0  0  0  0  0  0
   -0.6057    1.3359   -0.3490 H   0  0  0  0  0  0  0  0  0  0  0  0
   -0.8522    3.3696    0.9411 H   0  0  0  0  0  0  0  0  0  0  0  0
   -1.9355    2.1457    1.5830 H   0  0  0  0  0  0  0  0  0  0  0  0
    0.7762    2.9125    2.8015 H   0  0  0  0  0  0  0  0  0  0  0  0
   -0.8023    3.3740    3.4429 H   0  0  0  0  0  0  0  0  0  0  0  0
   -0.3097    1.6770    3.4410 H   0  0  0  0  0  0  0  0  0  0  0  0
  1  2  1  0
  1  4  1  0
  1  5  1  0
  1  6  1  0
  2  3  2  3
  2  7  1  0
  3  8  1  0
  9 10  1  0
  9 15  1  0
  9 16  1  0
  9 17  1  0
 10 11  1  0
 10 18  1  0
 11 12  1  0
 12 13  1  0
 12 19  1  0
 12 20  1  0
 13 14  1  0
 13 21  1  0
 13 22  1  0
 14 23  1  0
 14 24  1  0
 14 25  1  0
M  RAD  1  10   2
M  END
>  <reaction>  (17) 
rmg_rxn_16464

>  <mol_properties>  (17) 
{"1": {"label": "*0", "atom_type": "Cd"}, "2": {"label": "*1", "atom_type": "N3d"}, "7": {"label": "*2", "atom_type": "H0"}, "9": {"label": "*3", "atom_type": "Cs"}, "10": {"label": "*4", "atom_type": "O2s"}}

>  <type>  (17) 
unop_13

>  <geom_source>  (17) 
Heuristics

$$$$

     RDKit          3D

 25 23  0  0  0  0  0  0  0  0999 V2000
    0.2265    0.6258   -3.7537 C   0  0  0  0  0  0  0  0  0  0  0  0
    0.2265    0.6258   -2.2614 C   0  0  0  0  0  0  0  0  0  0  0  0
    0.2265    1.6985   -1.5937 N   0  0  0  0  0  0  0  0  0  0  0  0
    1.1048    0.0958   -4.1311 H   0  0  0  0  0  0  0  0  0  0  0  0
   -0.6517    0.0958   -4.1311 H   0  0  0  0  0  0  0  0  0  0  0  0
    0.2265    1.6464   -4.1323 H   0  0  0  0  0  0  0  0  0  0  0  0
    0.2265   -0.3639   -1.7867 H   0  0  0  0  0  0  0  0  0  0  0  0
    0.2265    1.4683   -0.3941 H   0  0  0  0  0  0  0  0  0  0  0  0
    1.4493    1.8210    1.5555 C   0  0  0  0  0  0  0  0  0  0  0  0
    0.2265    1.2195    0.9024 C   0  0  0  0  0  3  0  0  0  0  0  0
    0.2265   -0.1677    1.1241 O   0  0  0  0  0  0  0  0  0  0  0  0
   -0.8781   -0.8224    0.5530 C   0  0  0  0  0  0  0  0  0  0  0  0
   -0.8091   -2.3004    0.8783 C   0  0  0  0  0  0  0  0  0  0  0  0
   -0.9022   -2.5899    2.3705 C   0  0  0  0  0  0  0  0  0  0  0  0
    2.3584    1.3896    1.1349 H   0  0  0  0  0  0  0  0  0  0  0  0
    1.4711    2.9001    1.3957 H   0  0  0  0  0  0  0  0  0  0  0  0
    1.4424    1.6295    2.6291 H   0  0  0  0  0  0  0  0  0  0  0  0
   -0.6895    1.6653    1.3174 H   0  0  0  0  0  0  0  0  0  0  0  0
   -1.8130   -0.3922    0.9459 H   0  0  0  0  0  0  0  0  0  0  0  0
   -0.8814   -0.6715   -0.5365 H   0  0  0  0  0  0  0  0  0  0  0  0
   -1.6235   -2.8001    0.3465 H   0  0  0  0  0  0  0  0  0  0  0  0
    0.1248   -2.7012    0.4759 H   0  0  0  0  0  0  0  0  0  0  0  0
   -1.8428   -2.2155    2.7821 H   0  0  0  0  0  0  0  0  0  0  0  0
   -0.8546   -3.6621    2.5662 H   0  0  0  0  0  0  0  0  0  0  0  0
   -0.0859   -2.1084    2.9089 H   0  0  0  0  0  0  0  0  0  0  0  0
  1  2  1  0
  1  4  1  0
  1  5  1  0
  1  6  1  0
  2  3  2  3
  2  7  1  0
  3  8  1  0
  9 10  1  0
  9 15  1  0
  9 16  1  0
  9 17  1  0
 10 11  1  0
 10 18  1  0
 11 12  1  0
 12 13  1  0
 12 19  1  0
 12 20  1  0
 13 14  1  0
 13 21  1  0
 13 22  1  0
 14 23  1  0
 14 24  1  0
 14 25  1  0
M  RAD  1  10   2
M  END
>  <reaction>  (18) 
rmg_rxn_16464

>  <mol_properties>  (18) 
{"1": {"label": "*0", "atom_type": "Cd"}, "2": {"label": "*1", "atom_type": "N3d"}, "7": {"label": "*2", "atom_type": "H0"}, "9": {"label": "*3", "atom_type": "Cs"}, "10": {"label": "*4", "atom_type": "O2s"}}

>  <type>  (18) 
unop_14

>  <geom_source>  (18) 
Heuristics

$$$$

     RDKit          3D

 25 23  0  0  0  0  0  0  0  0999 V2000
   -0.3523    0.5749   -3.8281 C   0  0  0  0  0  0  0  0  0  0  0  0
   -0.3523    0.5749   -2.3358 C   0  0  0  0  0  0  0  0  0  0  0  0
   -0.3523    1.6475   -1.6681 N   0  0  0  0  0  0  0  0  0  0  0  0
    0.5260    0.0449   -4.2055 H   0  0  0  0  0  0  0  0  0  0  0  0
   -1.2306    0.0449   -4.2055 H   0  0  0  0  0  0  0  0  0  0  0  0
   -0.3523    1.5955   -4.2067 H   0  0  0  0  0  0  0  0  0  0  0  0
   -0.3523   -0.4148   -1.8611 H   0  0  0  0  0  0  0  0  0  0  0  0
   -0.3523    1.4173   -0.4685 H   0  0  0  0  0  0  0  0  0  0  0  0
    0.5668    2.3127    1.1882 C   0  0  0  0  0  0  0  0  0  0  0  0
   -0.3523    1.1685    0.8280 C   0  0  0  0  0  3  0  0  0  0  0  0
    0.3080   -0.0449    1.0830 O   0  0  0  0  0  0  0  0  0  0  0  0
   -0.4691   -1.1757    0.7791 C   0  0  0  0  0  0  0  0  0  0  0  0
    0.3109   -2.4281    1.1232 C   0  0  0  0  0  0  0  0  0  0  0  0
    0.6254   -2.5484    2.6084 C   0  0  0  0  0  0  0  0  0  0  0  0
    1.4812    2.2694    0.5956 H   0  0  0  0  0  0  0  0  0  0  0  0
    0.0745    3.2676    0.9976 H   0  0  0  0  0  0  0  0  0  0  0  0
    0.8382    2.2671    2.2435 H   0  0  0  0  0  0  0  0  0  0  0  0
   -1.2803    1.2210    1.4163 H   0  0  0  0  0  0  0  0  0  0  0  0
   -1.4106   -1.1480    1.3503 H   0  0  0  0  0  0  0  0  0  0  0  0
   -0.7342   -1.1728   -0.2884 H   0  0  0  0  0  0  0  0  0  0  0  0
   -0.2743   -3.2903    0.7915 H   0  0  0  0  0  0  0  0  0  0  0  0
    1.2366   -2.4312    0.5420 H   0  0  0  0  0  0  0  0  0  0  0  0
   -0.2928   -2.5707    3.2006 H   0  0  0  0  0  0  0  0  0  0  0  0
    1.1819   -3.4628    2.8191 H   0  0  0  0  0  0  0  0  0  0  0  0
    1.2215   -1.7009    2.9466 H   0  0  0  0  0  0  0  0  0  0  0  0
  1  2  1  0
  1  4  1  0
  1  5  1  0
  1  6  1  0
  2  3  2  3
  2  7  1  0
  3  8  1  0
  9 10  1  0
  9 15  1  0
  9 16  1  0
  9 17  1  0
 10 11  1  0
 10 18  1  0
 11 12  1  0
 12 13  1  0
 12 19  1  0
 12 20  1  0
 13 14  1  0
 13 21  1  0
 13 22  1  0
 14 23  1  0
 14 24  1  0
 14 25  1  0
M  RAD  1  10   2
M  END
>  <reaction>  (19) 
rmg_rxn_16464

>  <mol_properties>  (19) 
{"1": {"label": "*0", "atom_type": "Cd"}, "2": {"label": "*1", "atom_type": "N3d"}, "7": {"label": "*2", "atom_type": "H0"}, "9": {"label": "*3", "atom_type": "Cs"}, "10": {"label": "*4", "atom_type": "O2s"}}

>  <type>  (19) 
unop_15

>  <geom_source>  (19) 
gaussian_log

$$$$
