
     RDKit          3D

  8  7  0  0  0  0  0  0  0  0999 V2000
    1.2099   -0.1388    0.0025 C   0  0  0  0  0  0  0  0  0  0  0  0
   -0.1788    0.4141    0.0007 C   0  0  0  0  0  0  0  0  0  0  0  0
   -1.2100   -0.3603    0.0013 N   0  0  0  0  0  0  0  0  0  0  0  0
    1.7355    0.2223   -0.8851 H   0  0  0  0  0  0  0  0  0  0  0  0
    1.7521    0.1663    0.9007 H   0  0  0  0  0  0  0  0  0  0  0  0
    1.1564   -1.2296   -0.0424 H   0  0  0  0  0  0  0  0  0  0  0  0
   -0.2911    1.5112   -0.0010 H   0  0  0  0  0  0  0  0  0  0  0  0
   -2.0699    0.2005   -0.0002 H   0  0  0  0  0  0  0  0  0  0  0  0
  1  2  1  0
  1  4  1  0
  1  5  1  0
  1  6  1  0
  2  3  2  3
  2  7  1  0
  3  8  1  0
M  END
>  <reaction>  (1) 
rmg_rxn_16803

>  <mol_properties>  (1) 
{"2": {"label": "donator", "atom_type": "N3d"}, "7": {"label": "d_hydrogen", "atom_type": "H0"}}

>  <type>  (1) 
r1h

$$$$

     RDKit          3D

  9  8  0  0  0  0  0  0  0  0999 V2000
    1.8844   -0.1670    0.0001 C   0  0  0  0  0  0  0  0  0  0  0  0
    0.6287    0.1611   -0.0002 C   0  0  0  0  0  3  0  0  0  0  0  0
   -0.7436    0.5204   -0.0005 C   0  0  0  0  0  0  0  0  0  0  0  0
   -1.7045   -0.4085    0.0004 C   0  0  0  0  0  0  0  0  0  0  0  0
    2.4161   -0.3143   -0.9325 H   0  0  0  0  0  0  0  0  0  0  0  0
    2.4178   -0.3065    0.9329 H   0  0  0  0  0  0  0  0  0  0  0  0
   -1.0000    1.5756   -0.0014 H   0  0  0  0  0  0  0  0  0  0  0  0
   -2.7508   -0.1219    0.0002 H   0  0  0  0  0  0  0  0  0  0  0  0
   -1.4731   -1.4692    0.0014 H   0  0  0  0  0  0  0  0  0  0  0  0
  1  2  2  3
  1  5  1  0
  1  6  1  0
  2  3  1  0
  3  4  2  3
  3  7  1  0
  4  8  1  0
  4  9  1  0
M  RAD  1   2   2
M  END
>  <reaction>  (2) 
rmg_rxn_16803

>  <mol_properties>  (2) 
{"3": {"label": "acceptor", "atom_type": "Cs"}}

>  <type>  (2) 
r2

$$$$

     RDKit          3D

 10  9  0  0  0  0  0  0  0  0999 V2000
    1.9281   -0.2104    0.0000 C   0  0  0  0  0  0  0  0  0  0  0  0
    0.6881    0.1708    0.0000 C   0  0  0  0  0  0  0  0  0  0  0  0
   -0.5547    0.5538   -0.0000 C   0  0  0  0  0  0  0  0  0  0  0  0
   -1.7319   -0.3629    0.0000 C   0  0  0  0  0  0  0  0  0  0  0  0
    2.4558   -0.3741   -0.9324 H   0  0  0  0  0  0  0  0  0  0  0  0
    2.4558   -0.3741    0.9324 H   0  0  0  0  0  0  0  0  0  0  0  0
   -0.7657    1.6194   -0.0000 H   0  0  0  0  0  0  0  0  0  0  0  0
   -2.3467   -0.1819    0.8869 H   0  0  0  0  0  0  0  0  0  0  0  0
   -1.4304   -1.4153    0.0000 H   0  0  0  0  0  0  0  0  0  0  0  0
   -2.3467   -0.1819   -0.8869 H   0  0  0  0  0  0  0  0  0  0  0  0
  1  2  2  0
  1  5  1  0
  1  6  1  0
  2  3  2  0
  3  4  1  0
  3  7  1  0
  4  8  1  0
  4  9  1  0
  4 10  1  0
M  END
>  <reaction>  (3) 
rmg_rxn_16803

>  <mol_properties>  (3) 
{"0": {"label": "a_hydrogen", "atom_type": "H0"}, "4": {"label": "acceptor", "atom_type": "Cs"}}

>  <type>  (3) 
r2h

$$$$

     RDKit          3D

 17 15  0  0  0  0  0  0  0  0999 V2000
    3.5806   -0.6327    0.2145 C   0  0  0  0  0  0  0  0  0  0  0  0
    2.2799    0.1030    0.1840 C   0  0  0  0  0  0  0  0  0  0  0  0
    1.3785   -0.1628   -0.6991 N   0  0  0  0  0  0  0  0  0  0  0  0
    4.3961    0.0855    0.0970 H   0  0  0  0  0  0  0  0  0  0  0  0
    3.7016   -1.1760    1.1548 H   0  0  0  0  0  0  0  0  0  0  0  0
    3.6096   -1.3348   -0.6226 H   0  0  0  0  0  0  0  0  0  0  0  0
    2.1173    0.8839    0.9457 H   0  0  0  0  0  0  0  0  0  0  0  0
    0.3977    0.5636   -0.5314 H   0  0  0  0  0  0  0  0  0  0  0  0
   -3.3397   -1.1343   -0.1084 C   0  0  0  0  0  0  0  0  0  0  0  0
   -2.4780   -0.2268    0.2337 C   0  0  0  0  0  3  0  0  0  0  0  0
   -1.6141    0.6829    0.5766 C   0  0  0  0  0  0  0  0  0  0  0  0
   -0.6477    1.3378   -0.3527 C   0  0  0  0  0  0  0  0  0  0  0  0
   -4.3335   -0.8557   -0.4390 H   0  0  0  0  0  0  0  0  0  0  0  0
   -3.0790   -2.1855   -0.0715 H   0  0  0  0  0  0  0  0  0  0  0  0
   -1.5825    0.9981    1.6156 H   0  0  0  0  0  0  0  0  0  0  0  0
   -0.8161    2.4189   -0.3660 H   0  0  0  0  0  0  0  0  0  0  0  0
   -0.7462    0.9621   -1.3762 H   0  0  0  0  0  0  0  0  0  0  0  0
  1  2  1  0
  1  4  1  0
  1  5  1  0
  1  6  1  0
  2  3  2  3
  2  7  1  0
  3  8  1  0
  9 10  2  3
  9 13  1  0
  9 14  1  0
 10 11  1  0
 11 12  2  3
 11 15  1  0
 12 16  1  0
 12 17  1  0
M  RAD  1  10   2
M  END
>  <reaction>  (4) 
rmg_rxn_16803

>  <mol_properties>  (4) 
{"1": {"label": "*0", "atom_type": "Cd"}, "2": {"label": "*1", "atom_type": "N3d"}, "7": {"label": "*2", "atom_type": "H0"}, "10": {"label": "*4", "atom_type": "Cd"}, "11": {"label": "*3", "atom_type": "Cd"}}

>  <type>  (4) 
ts

$$$$

     RDKit          3D

 17 15  0  0  0  0  0  0  0  0999 V2000
   -2.9519    1.0515    0.1253 C   0  0  0  0  0  0  0  0  0  0  0  0
   -1.6802    0.2651    0.0704 C   0  0  0  0  0  0  0  0  0  0  0  0
   -1.6240   -0.9023   -0.3465 N   0  0  0  0  0  0  0  0  0  0  0  0
   -3.1450    1.3574    1.1524 H   0  0  0  0  0  0  0  0  0  0  0  0
   -2.8482    1.9490   -0.4826 H   0  0  0  0  0  0  0  0  0  0  0  0
   -3.7814    0.4539   -0.2419 H   0  0  0  0  0  0  0  0  0  0  0  0
   -0.7946    0.8148    0.4341 H   0  0  0  0  0  0  0  0  0  0  0  0
   -0.4866   -1.3586   -0.3104 H   0  0  0  0  0  0  0  0  0  0  0  0
    2.5388    1.4959   -0.3223 C   0  0  0  0  0  0  0  0  0  0  0  0
    1.9695    0.4303    0.1337 C   0  0  0  0  0  3  0  0  0  0  0  0
    1.4122   -0.6718    0.5978 C   0  0  0  0  0  0  0  0  0  0  0  0
    0.7975   -1.6863   -0.2142 C   0  0  0  0  0  0  0  0  0  0  0  0
    3.5975    1.5353   -0.5364 H   0  0  0  0  0  0  0  0  0  0  0  0
    1.9902    2.4078   -0.5117 H   0  0  0  0  0  0  0  0  0  0  0  0
    1.3539   -0.7960    1.6742 H   0  0  0  0  0  0  0  0  0  0  0  0
    0.7291   -2.6672    0.2362 H   0  0  0  0  0  0  0  0  0  0  0  0
    1.0959   -1.7002   -1.2547 H   0  0  0  0  0  0  0  0  0  0  0  0
  1  2  1  0
  1  4  1  0
  1  5  1  0
  1  6  1  0
  2  3  2  3
  2  7  1  0
  3  8  1  0
  9 10  2  3
  9 13  1  0
  9 14  1  0
 10 11  1  0
 11 12  2  3
 11 15  1  0
 12 16  1  0
 12 17  1  0
M  RAD  1  10   2
M  END
>  <reaction>  (5) 
rmg_rxn_16803

>  <mol_properties>  (5) 
{"1": {"label": "*0", "atom_type": "Cd"}, "2": {"label": "*1", "atom_type": "N3d"}, "7": {"label": "*2", "atom_type": "H0"}, "10": {"label": "*4", "atom_type": "Cd"}, "11": {"label": "*3", "atom_type": "Cd"}}

>  <type>  (5) 
unop_1

>  <geom_source>  (5) 
crest_best.xyz

$$$$

     RDKit          3D

 17 15  0  0  0  0  0  0  0  0999 V2000
   -0.6976   -0.5760   -3.8642 C   0  0  0  0  0  0  0  0  0  0  0  0
   -0.6976   -0.5760   -2.3695 C   0  0  0  0  0  0  0  0  0  0  0  0
   -0.6976    0.5249   -1.6979 N   0  0  0  0  0  0  0  0  0  0  0  0
    0.1897   -1.1071   -4.2179 H   0  0  0  0  0  0  0  0  0  0  0  0
   -1.5960   -1.0590   -4.2561 H   0  0  0  0  0  0  0  0  0  0  0  0
   -0.6512    0.4571   -4.2179 H   0  0  0  0  0  0  0  0  0  0  0  0
   -0.6976   -1.5538   -1.8592 H   0  0  0  0  0  0  0  0  0  0  0  0
   -0.6976    0.2813   -0.4902 H   0  0  0  0  0  0  0  0  0  0  0  0
    1.5097   -0.1420    3.7156 C   0  0  0  0  0  0  0  0  0  0  0  0
    1.0139    0.2327    2.5768 C   0  0  0  0  0  3  0  0  0  0  0  0
    0.5168    0.6083    1.4352 C   0  0  0  0  0  0  0  0  0  0  0  0
   -0.6976    0.0217    0.7970 C   0  0  0  0  0  0  0  0  0  0  0  0
    1.1868    0.3244    4.6390 H   0  0  0  0  0  0  0  0  0  0  0  0
    2.2530   -0.9293    3.7623 H   0  0  0  0  0  0  0  0  0  0  0  0
    1.0146    1.4081    0.8945 H   0  0  0  0  0  0  0  0  0  0  0  0
   -1.4555    0.7976    0.6522 H   0  0  0  0  0  0  0  0  0  0  0  0
   -1.1347   -0.7760    1.4061 H   0  0  0  0  0  0  0  0  0  0  0  0
  1  2  1  0
  1  4  1  0
  1  5  1  0
  1  6  1  0
  2  3  2  3
  2  7  1  0
  3  8  1  0
  9 10  2  3
  9 13  1  0
  9 14  1  0
 10 11  1  0
 11 12  2  3
 11 15  1  0
 12 16  1  0
 12 17  1  0
M  RAD  1  10   2
M  END
>  <reaction>  (6) 
rmg_rxn_16803

>  <mol_properties>  (6) 
{"1": {"label": "*0", "atom_type": "Cd"}, "2": {"label": "*1", "atom_type": "N3d"}, "7": {"label": "*2", "atom_type": "H0"}, "10": {"label": "*4", "atom_type": "Cd"}, "11": {"label": "*3", "atom_type": "Cd"}}

>  <type>  (6) 
unop_2

>  <geom_source>  (6) 
Heuristics

$$$$

     RDKit          3D

 17 15  0  0  0  0  0  0  0  0999 V2000
   -0.1231    0.4131   -3.5867 C   0  0  0  0  0  0  0  0  0  0  0  0
   -0.1231    0.4131   -2.0920 C   0  0  0  0  0  0  0  0  0  0  0  0
   -0.1231    1.5140   -1.4203 N   0  0  0  0  0  0  0  0  0  0  0  0
    0.7643   -0.1180   -3.9404 H   0  0  0  0  0  0  0  0  0  0  0  0
   -1.0214   -0.0699   -3.9786 H   0  0  0  0  0  0  0  0  0  0  0  0
   -0.0766    1.4462   -3.9404 H   0  0  0  0  0  0  0  0  0  0  0  0
   -0.1231   -0.5646   -1.5817 H   0  0  0  0  0  0  0  0  0  0  0  0
   -0.1231    1.2705   -0.2127 H   0  0  0  0  0  0  0  0  0  0  0  0
   -0.2162   -2.0938    3.0161 C   0  0  0  0  0  0  0  0  0  0  0  0
    0.1805   -1.1882    2.1761 C   0  0  0  0  0  3  0  0  0  0  0  0
    0.5781   -0.2804    1.3340 C   0  0  0  0  0  0  0  0  0  0  0  0
   -0.1231    1.0109    1.0745 C   0  0  0  0  0  0  0  0  0  0  0  0
    0.1132   -2.0720    4.0484 H   0  0  0  0  0  0  0  0  0  0  0  0
   -0.8855   -2.8854    2.6999 H   0  0  0  0  0  0  0  0  0  0  0  0
    1.4878   -0.4641    0.7695 H   0  0  0  0  0  0  0  0  0  0  0  0
    0.5415    1.8496    1.3028 H   0  0  0  0  0  0  0  0  0  0  0  0
   -1.0277    1.1141    1.6822 H   0  0  0  0  0  0  0  0  0  0  0  0
  1  2  1  0
  1  4  1  0
  1  5  1  0
  1  6  1  0
  2  3  2  3
  2  7  1  0
  3  8  1  0
  9 10  2  3
  9 13  1  0
  9 14  1  0
 10 11  1  0
 11 12  2  3
 11 15  1  0
 12 16  1  0
 12 17  1  0
M  RAD  1  10   2
M  END
>  <reaction>  (7) 
rmg_rxn_16803

>  <mol_properties>  (7) 
{"1": {"label": "*0", "atom_type": "Cd"}, "2": {"label": "*1", "atom_type": "N3d"}, "7": {"label": "*2", "atom_type": "H0"}, "10": {"label": "*4", "atom_type": "Cd"}, "11": {"label": "*3", "atom_type": "Cd"}}

>  <type>  (7) 
unop_3

>  <geom_source>  (7) 
Heuristics

$$$$

     RDKit          3D

 17 15  0  0  0  0  0  0  0  0999 V2000
   -0.5627   -0.8660   -3.8878 C   0  0  0  0  0  0  0  0  0  0  0  0
   -0.5627   -0.8660   -2.3931 C   0  0  0  0  0  0  0  0  0  0  0  0
   -0.5627    0.2349   -1.7215 N   0  0  0  0  0  0  0  0  0  0  0  0
    0.3247   -1.3971   -4.2415 H   0  0  0  0  0  0  0  0  0  0  0  0
   -1.4610   -1.3490   -4.2797 H   0  0  0  0  0  0  0  0  0  0  0  0
   -0.5162    0.1671   -4.2415 H   0  0  0  0  0  0  0  0  0  0  0  0
   -0.5627   -1.8438   -1.8828 H   0  0  0  0  0  0  0  0  0  0  0  0
   -0.5627   -0.0086   -0.5138 H   0  0  0  0  0  0  0  0  0  0  0  0
    1.4924    0.4995    3.7068 C   0  0  0  0  0  0  0  0  0  0  0  0
    0.8163    0.6603    2.6113 C   0  0  0  0  0  3  0  0  0  0  0  0
    0.1385    0.8215    1.5131 C   0  0  0  0  0  0  0  0  0  0  0  0
   -0.5627   -0.2682    0.7734 C   0  0  0  0  0  0  0  0  0  0  0  0
    1.0085    0.5873    4.6725 H   0  0  0  0  0  0  0  0  0  0  0  0
    2.5516    0.2723    3.6740 H   0  0  0  0  0  0  0  0  0  0  0  0
    0.0707    1.8201    1.0911 H   0  0  0  0  0  0  0  0  0  0  0  0
   -1.6322   -0.0469    0.7070 H   0  0  0  0  0  0  0  0  0  0  0  0
   -0.4426   -1.2389    1.2651 H   0  0  0  0  0  0  0  0  0  0  0  0
  1  2  1  0
  1  4  1  0
  1  5  1  0
  1  6  1  0
  2  3  2  3
  2  7  1  0
  3  8  1  0
  9 10  2  3
  9 13  1  0
  9 14  1  0
 10 11  1  0
 11 12  2  3
 11 15  1  0
 12 16  1  0
 12 17  1  0
M  RAD  1  10   2
M  END
>  <reaction>  (8) 
rmg_rxn_16803

>  <mol_properties>  (8) 
{"1": {"label": "*0", "atom_type": "Cd"}, "2": {"label": "*1", "atom_type": "N3d"}, "7": {"label": "*2", "atom_type": "H0"}, "10": {"label": "*4", "atom_type": "Cd"}, "11": {"label": "*3", "atom_type": "Cd"}}

>  <type>  (8) 
unop_4

>  <geom_source>  (8) 
Heuristics

$$$$

     RDKit          3D

 17 15  0  0  0  0  0  0  0  0999 V2000
    0.9725   -0.3841   -3.4193 C   0  0  0  0  0  0  0  0  0  0  0  0
    0.9725   -0.3841   -1.9246 C   0  0  0  0  0  0  0  0  0  0  0  0
    0.9725    0.7168   -1.2530 N   0  0  0  0  0  0  0  0  0  0  0  0
    1.8599   -0.9152   -3.7730 H   0  0  0  0  0  0  0  0  0  0  0  0
    0.0742   -0.8671   -3.8112 H   0  0  0  0  0  0  0  0  0  0  0  0
    1.0190    0.6489   -3.7730 H   0  0  0  0  0  0  0  0  0  0  0  0
    0.9725   -1.3619   -1.4143 H   0  0  0  0  0  0  0  0  0  0  0  0
    0.9725    0.4732   -0.0453 H   0  0  0  0  0  0  0  0  0  0  0  0
   -2.5314    0.4470    2.2836 C   0  0  0  0  0  0  0  0  0  0  0  0
   -1.3881   -0.0631    1.9436 C   0  0  0  0  0  3  0  0  0  0  0  0
   -0.2419   -0.5745    1.6029 C   0  0  0  0  0  0  0  0  0  0  0  0
    0.9725    0.2136    1.2419 C   0  0  0  0  0  0  0  0  0  0  0  0
   -2.7522    0.6655    3.3219 H   0  0  0  0  0  0  0  0  0  0  0  0
   -3.2836    0.6655    1.5345 H   0  0  0  0  0  0  0  0  0  0  0  0
   -0.1484   -1.6563    1.5738 H   0  0  0  0  0  0  0  0  0  0  0  0
    1.7931   -0.0310    1.9232 H   0  0  0  0  0  0  0  0  0  0  0  0
    0.7910    1.2919    1.2958 H   0  0  0  0  0  0  0  0  0  0  0  0
  1  2  1  0
  1  4  1  0
  1  5  1  0
  1  6  1  0
  2  3  2  3
  2  7  1  0
  3  8  1  0
  9 10  2  3
  9 13  1  0
  9 14  1  0
 10 11  1  0
 11 12  2  3
 11 15  1  0
 12 16  1  0
 12 17  1  0
M  RAD  1  10   2
M  END
>  <reaction>  (9) 
rmg_rxn_16803

>  <mol_properties>  (9) 
{"1": {"label": "*0", "atom_type": "Cd"}, "2": {"label": "*1", "atom_type": "N3d"}, "7": {"label": "*2", "atom_type": "H0"}, "10": {"label": "*4", "atom_type": "Cd"}, "11": {"label": "*3", "atom_type": "Cd"}}

>  <type>  (9) 
unop_5

>  <geom_source>  (9) 
Heuristics

$$$$

     RDKit          3D

 17 15  0  0  0  0  0  0  0  0999 V2000
   -0.3822   -1.1523   -3.7998 C   0  0  0  0  0  0  0  0  0  0  0  0
   -0.3822   -1.1523   -2.3051 C   0  0  0  0  0  0  0  0  0  0  0  0
   -0.3822   -0.0514   -1.6335 N   0  0  0  0  0  0  0  0  0  0  0  0
    0.5052   -1.6834   -4.1535 H   0  0  0  0  0  0  0  0  0  0  0  0
   -1.2805   -1.6353   -4.1917 H   0  0  0  0  0  0  0  0  0  0  0  0
   -0.3357   -0.1192   -4.1535 H   0  0  0  0  0  0  0  0  0  0  0  0
   -0.3822   -2.1301   -1.7948 H   0  0  0  0  0  0  0  0  0  0  0  0
   -0.3822   -0.2950   -0.4258 H   0  0  0  0  0  0  0  0  0  0  0  0
    1.4538    1.4291    3.3335 C   0  0  0  0  0  0  0  0  0  0  0  0
    0.5369    1.0747    2.4869 C   0  0  0  0  0  3  0  0  0  0  0  0
   -0.3822    0.7193    1.6382 C   0  0  0  0  0  0  0  0  0  0  0  0
   -0.3822   -0.5546    0.8613 C   0  0  0  0  0  0  0  0  0  0  0  0
    1.3730    1.1603    4.3802 H   0  0  0  0  0  0  0  0  0  0  0  0
    2.3170    1.9976    3.0073 H   0  0  0  0  0  0  0  0  0  0  0  0
   -1.2184    1.3925    1.4722 H   0  0  0  0  0  0  0  0  0  0  0  0
   -1.2801   -1.1347    1.0947 H   0  0  0  0  0  0  0  0  0  0  0  0
    0.4936   -1.1712    1.0874 H   0  0  0  0  0  0  0  0  0  0  0  0
  1  2  1  0
  1  4  1  0
  1  5  1  0
  1  6  1  0
  2  3  2  3
  2  7  1  0
  3  8  1  0
  9 10  2  3
  9 13  1  0
  9 14  1  0
 10 11  1  0
 11 12  2  3
 11 15  1  0
 12 16  1  0
 12 17  1  0
M  RAD  1  10   2
M  END
>  <reaction>  (10) 
rmg_rxn_16803

>  <mol_properties>  (10) 
{"1": {"label": "*0", "atom_type": "Cd"}, "2": {"label": "*1", "atom_type": "N3d"}, "7": {"label": "*2", "atom_type": "H0"}, "10": {"label": "*4", "atom_type": "Cd"}, "11": {"label": "*3", "atom_type": "Cd"}}

>  <type>  (10) 
unop_6

>  <geom_source>  (10) 
Heuristics

$$$$

     RDKit          3D

 17 15  0  0  0  0  0  0  0  0999 V2000
    0.8838   -0.8738   -3.4629 C   0  0  0  0  0  0  0  0  0  0  0  0
    0.8838   -0.8738   -1.9682 C   0  0  0  0  0  0  0  0  0  0  0  0
    0.8838    0.2272   -1.2966 N   0  0  0  0  0  0  0  0  0  0  0  0
    1.7712   -1.4048   -3.8166 H   0  0  0  0  0  0  0  0  0  0  0  0
   -0.0145   -1.3567   -3.8548 H   0  0  0  0  0  0  0  0  0  0  0  0
    0.9303    0.1593   -3.8166 H   0  0  0  0  0  0  0  0  0  0  0  0
    0.8838   -1.8515   -1.4579 H   0  0  0  0  0  0  0  0  0  0  0  0
    0.8838   -0.0164   -0.0889 H   0  0  0  0  0  0  0  0  0  0  0  0
   -2.0264    1.6453    2.3190 C   0  0  0  0  0  0  0  0  0  0  0  0
   -1.2734    0.6355    2.0088 C   0  0  0  0  0  3  0  0  0  0  0  0
   -0.5185   -0.3768    1.6979 C   0  0  0  0  0  0  0  0  0  0  0  0
    0.8838   -0.2760    1.1982 C   0  0  0  0  0  0  0  0  0  0  0  0
   -2.0312    2.0417    3.3277 H   0  0  0  0  0  0  0  0  0  0  0  0
   -2.6610    2.1108    1.5739 H   0  0  0  0  0  0  0  0  0  0  0  0
   -0.9282   -1.3772    1.8043 H   0  0  0  0  0  0  0  0  0  0  0  0
    1.5613   -0.8027    1.8772 H   0  0  0  0  0  0  0  0  0  0  0  0
    1.2161    0.7641    1.1199 H   0  0  0  0  0  0  0  0  0  0  0  0
  1  2  1  0
  1  4  1  0
  1  5  1  0
  1  6  1  0
  2  3  2  3
  2  7  1  0
  3  8  1  0
  9 10  2  3
  9 13  1  0
  9 14  1  0
 10 11  1  0
 11 12  2  3
 11 15  1  0
 12 16  1  0
 12 17  1  0
M  RAD  1  10   2
M  END
>  <reaction>  (11) 
rmg_rxn_16803

>  <mol_properties>  (11) 
{"1": {"label": "*0", "atom_type": "Cd"}, "2": {"label": "*1", "atom_type": "N3d"}, "7": {"label": "*2", "atom_type": "H0"}, "10": {"label": "*4", "atom_type": "Cd"}, "11": {"label": "*3", "atom_type": "Cd"}}

>  <type>  (11) 
unop_7

>  <geom_source>  (11) 
Heuristics

$$$$

     RDKit          3D

 17 15  0  0  0  0  0  0  0  0999 V2000
    0.5435   -1.2491   -3.5375 C   0  0  0  0  0  0  0  0  0  0  0  0
    0.5435   -1.2491   -2.0428 C   0  0  0  0  0  0  0  0  0  0  0  0
    0.5435   -0.1481   -1.3712 N   0  0  0  0  0  0  0  0  0  0  0  0
    1.4309   -1.7801   -3.8912 H   0  0  0  0  0  0  0  0  0  0  0  0
   -0.3548   -1.7320   -3.9294 H   0  0  0  0  0  0  0  0  0  0  0  0
    0.5900   -0.2160   -3.8912 H   0  0  0  0  0  0  0  0  0  0  0  0
    0.5435   -2.2268   -1.5326 H   0  0  0  0  0  0  0  0  0  0  0  0
    0.5435   -0.3917   -0.1636 H   0  0  0  0  0  0  0  0  0  0  0  0
   -0.9263    2.4212    2.4715 C   0  0  0  0  0  0  0  0  0  0  0  0
   -0.7988    1.1798    2.1171 C   0  0  0  0  0  3  0  0  0  0  0  0
   -0.6710   -0.0647    1.7619 C   0  0  0  0  0  0  0  0  0  0  0  0
    0.5435   -0.6513    1.1236 C   0  0  0  0  0  0  0  0  0  0  0  0
   -0.6359    2.7450    3.4642 H   0  0  0  0  0  0  0  0  0  0  0  0
   -1.3229    3.1553    1.7799 H   0  0  0  0  0  0  0  0  0  0  0  0
   -1.5046   -0.7388    1.9365 H   0  0  0  0  0  0  0  0  0  0  0  0
    0.9407   -1.4581    1.7470 H   0  0  0  0  0  0  0  0  0  0  0  0
    1.3324    0.0947    0.9835 H   0  0  0  0  0  0  0  0  0  0  0  0
  1  2  1  0
  1  4  1  0
  1  5  1  0
  1  6  1  0
  2  3  2  3
  2  7  1  0
  3  8  1  0
  9 10  2  3
  9 13  1  0
  9 14  1  0
 10 11  1  0
 11 12  2  3
 11 15  1  0
 12 16  1  0
 12 17  1  0
M  RAD  1  10   2
M  END
>  <reaction>  (12) 
rmg_rxn_16803

>  <mol_properties>  (12) 
{"1": {"label": "*0", "atom_type": "Cd"}, "2": {"label": "*1", "atom_type": "N3d"}, "7": {"label": "*2", "atom_type": "H0"}, "10": {"label": "*4", "atom_type": "Cd"}, "11": {"label": "*3", "atom_type": "Cd"}}

>  <type>  (12) 
unop_8

>  <geom_source>  (12) 
Heuristics

$$$$

     RDKit          3D

 17 15  0  0  0  0  0  0  0  0999 V2000
   -0.7204   -0.2029   -3.7885 C   0  0  0  0  0  0  0  0  0  0  0  0
   -0.7204   -0.2029   -2.2938 C   0  0  0  0  0  0  0  0  0  0  0  0
   -0.7204    0.8981   -1.6222 N   0  0  0  0  0  0  0  0  0  0  0  0
    0.1670   -0.7339   -4.1423 H   0  0  0  0  0  0  0  0  0  0  0  0
   -1.6187   -0.6858   -4.1804 H   0  0  0  0  0  0  0  0  0  0  0  0
   -0.6739    0.8302   -4.1423 H   0  0  0  0  0  0  0  0  0  0  0  0
   -0.7204   -1.1806   -1.7836 H   0  0  0  0  0  0  0  0  0  0  0  0
   -0.7204    0.6545   -0.4146 H   0  0  0  0  0  0  0  0  0  0  0  0
    1.4001   -0.9100    3.5592 C   0  0  0  0  0  0  0  0  0  0  0  0
    1.0415   -0.3086    2.4671 C   0  0  0  0  0  3  0  0  0  0  0  0
    0.6820    0.2942    1.3722 C   0  0  0  0  0  0  0  0  0  0  0  0
   -0.7204    0.3949    0.8726 C   0  0  0  0  0  0  0  0  0  0  0  0
    1.4398   -0.3715    4.4990 H   0  0  0  0  0  0  0  0  0  0  0  0
    1.6635   -1.9612    3.5502 H   0  0  0  0  0  0  0  0  0  0  0  0
    1.4514    0.7632    0.7656 H   0  0  0  0  0  0  0  0  0  0  0  0
   -1.0116    1.4461    0.7857 H   0  0  0  0  0  0  0  0  0  0  0  0
   -1.4293   -0.1039    1.5412 H   0  0  0  0  0  0  0  0  0  0  0  0
  1  2  1  0
  1  4  1  0
  1  5  1  0
  1  6  1  0
  2  3  2  3
  2  7  1  0
  3  8  1  0
  9 10  2  3
  9 13  1  0
  9 14  1  0
 10 11  1  0
 11 12  2  3
 11 15  1  0
 12 16  1  0
 12 17  1  0
M  RAD  1  10   2
M  END
>  <reaction>  (13) 
rmg_rxn_16803

>  <mol_properties>  (13) 
{"1": {"label": "*0", "atom_type": "Cd"}, "2": {"label": "*1", "atom_type": "N3d"}, "7": {"label": "*2", "atom_type": "H0"}, "10": {"label": "*4", "atom_type": "Cd"}, "11": {"label": "*3", "atom_type": "Cd"}}

>  <type>  (13) 
unop_9

>  <geom_source>  (13) 
Heuristics

$$$$

     RDKit          3D

 17 15  0  0  0  0  0  0  0  0999 V2000
   -2.9519    1.0515    0.1253 C   0  0  0  0  0  0  0  0  0  0  0  0
   -1.6802    0.2651    0.0704 C   0  0  0  0  0  0  0  0  0  0  0  0
   -1.6240   -0.9023   -0.3465 N   0  0  0  0  0  0  0  0  0  0  0  0
   -3.1450    1.3574    1.1524 H   0  0  0  0  0  0  0  0  0  0  0  0
   -2.8482    1.9490   -0.4826 H   0  0  0  0  0  0  0  0  0  0  0  0
   -3.7814    0.4539   -0.2419 H   0  0  0  0  0  0  0  0  0  0  0  0
   -0.7946    0.8148    0.4341 H   0  0  0  0  0  0  0  0  0  0  0  0
   -0.4866   -1.3586   -0.3104 H   0  0  0  0  0  0  0  0  0  0  0  0
    2.5388    1.4959   -0.3223 C   0  0  0  0  0  0  0  0  0  0  0  0
    1.9695    0.4303    0.1337 C   0  0  0  0  0  3  0  0  0  0  0  0
    1.4122   -0.6718    0.5978 C   0  0  0  0  0  0  0  0  0  0  0  0
    0.7975   -1.6863   -0.2142 C   0  0  0  0  0  0  0  0  0  0  0  0
    3.5975    1.5353   -0.5364 H   0  0  0  0  0  0  0  0  0  0  0  0
    1.9902    2.4078   -0.5117 H   0  0  0  0  0  0  0  0  0  0  0  0
    1.3539   -0.7960    1.6742 H   0  0  0  0  0  0  0  0  0  0  0  0
    0.7291   -2.6672    0.2362 H   0  0  0  0  0  0  0  0  0  0  0  0
    1.0959   -1.7002   -1.2547 H   0  0  0  0  0  0  0  0  0  0  0  0
  1  2  1  0
  1  4  1  0
  1  5  1  0
  1  6  1  0
  2  3  2  3
  2  7  1  0
  3  8  1  0
  9 10  2  3
  9 13  1  0
  9 14  1  0
 10 11  1  0
 11 12  2  3
 11 15  1  0
 12 16  1  0
 12 17  1  0
M  RAD  1  10   2
M  END
>  <reaction>  (14) 
rmg_rxn_16803

>  <mol_properties>  (14) 
{"1": {"label": "*0", "atom_type": "Cd"}, "2": {"label": "*1", "atom_type": "N3d"}, "7": {"label": "*2", "atom_type": "H0"}, "10": {"label": "*4", "atom_type": "Cd"}, "11": {"label": "*3", "atom_type": "Cd"}}

>  <type>  (14) 
unop_10

>  <geom_source>  (14) 
Heuristics

$$$$

     RDKit          3D

 17 15  0  0  0  0  0  0  0  0999 V2000
    0.7915    0.0820   -3.4260 C   0  0  0  0  0  0  0  0  0  0  0  0
    0.7915    0.0820   -1.9313 C   0  0  0  0  0  0  0  0  0  0  0  0
    0.7915    1.1830   -1.2597 N   0  0  0  0  0  0  0  0  0  0  0  0
    1.6788   -0.4490   -3.7797 H   0  0  0  0  0  0  0  0  0  0  0  0
   -0.1069   -0.4009   -3.8179 H   0  0  0  0  0  0  0  0  0  0  0  0
    0.8380    1.1151   -3.7797 H   0  0  0  0  0  0  0  0  0  0  0  0
    0.7915   -0.8957   -1.4210 H   0  0  0  0  0  0  0  0  0  0  0  0
    0.7915    0.9394   -0.0520 H   0  0  0  0  0  0  0  0  0  0  0  0
   -2.3330   -0.8329    2.4042 C   0  0  0  0  0  0  0  0  0  0  0  0
   -1.1228   -0.7223    1.9500 C   0  0  0  0  0  3  0  0  0  0  0  0
    0.0903   -0.6115    1.4947 C   0  0  0  0  0  0  0  0  0  0  0  0
    0.7915    0.6798    1.2351 C   0  0  0  0  0  0  0  0  0  0  0  0
   -2.5207   -0.8813    3.4705 H   0  0  0  0  0  0  0  0  0  0  0  0
   -3.1763   -0.8762    1.7248 H   0  0  0  0  0  0  0  0  0  0  0  0
    0.6461   -1.5202    1.2820 H   0  0  0  0  0  0  0  0  0  0  0  0
    1.7005    0.7400    1.8413 H   0  0  0  0  0  0  0  0  0  0  0  0
    0.1613    1.5424    1.4744 H   0  0  0  0  0  0  0  0  0  0  0  0
  1  2  1  0
  1  4  1  0
  1  5  1  0
  1  6  1  0
  2  3  2  3
  2  7  1  0
  3  8  1  0
  9 10  2  3
  9 13  1  0
  9 14  1  0
 10 11  1  0
 11 12  2  3
 11 15  1  0
 12 16  1  0
 12 17  1  0
M  RAD  1  10   2
M  END
>  <reaction>  (15) 
rmg_rxn_16803

>  <mol_properties>  (15) 
{"1": {"label": "*0", "atom_type": "Cd"}, "2": {"label": "*1", "atom_type": "N3d"}, "7": {"label": "*2", "atom_type": "H0"}, "10": {"label": "*4", "atom_type": "Cd"}, "11": {"label": "*3", "atom_type": "Cd"}}

>  <type>  (15) 
unop_11

>  <geom_source>  (15) 
Heuristics

$$$$

     RDKit          3D

 17 15  0  0  0  0  0  0  0  0999 V2000
   -0.5297    0.1751   -3.6907 C   0  0  0  0  0  0  0  0  0  0  0  0
   -0.5297    0.1751   -2.1960 C   0  0  0  0  0  0  0  0  0  0  0  0
   -0.5297    1.2760   -1.5244 N   0  0  0  0  0  0  0  0  0  0  0  0
    0.3577   -0.3560   -4.0444 H   0  0  0  0  0  0  0  0  0  0  0  0
   -1.4280   -0.3079   -4.0826 H   0  0  0  0  0  0  0  0  0  0  0  0
   -0.4832    1.2082   -4.0444 H   0  0  0  0  0  0  0  0  0  0  0  0
   -0.5297   -0.8027   -1.6857 H   0  0  0  0  0  0  0  0  0  0  0  0
   -0.5297    1.0325   -0.3167 H   0  0  0  0  0  0  0  0  0  0  0  0
    0.8413   -1.6828    3.3173 C   0  0  0  0  0  0  0  0  0  0  0  0
    0.7631   -0.8500    2.3256 C   0  0  0  0  0  3  0  0  0  0  0  0
    0.6848   -0.0153    1.3315 C   0  0  0  0  0  0  0  0  0  0  0  0
   -0.5297    0.7729    0.9704 C   0  0  0  0  0  0  0  0  0  0  0  0
    1.1560   -1.3459    4.2981 H   0  0  0  0  0  0  0  0  0  0  0  0
    0.5907   -2.7285    3.1817 H   0  0  0  0  0  0  0  0  0  0  0  0
    1.5627    0.1277    0.7080 H   0  0  0  0  0  0  0  0  0  0  0  0
   -0.3071    1.8433    1.0135 H   0  0  0  0  0  0  0  0  0  0  0  0
   -1.3657    0.5684    1.6470 H   0  0  0  0  0  0  0  0  0  0  0  0
  1  2  1  0
  1  4  1  0
  1  5  1  0
  1  6  1  0
  2  3  2  3
  2  7  1  0
  3  8  1  0
  9 10  2  3
  9 13  1  0
  9 14  1  0
 10 11  1  0
 11 12  2  3
 11 15  1  0
 12 16  1  0
 12 17  1  0
M  RAD  1  10   2
M  END
>  <reaction>  (16) 
rmg_rxn_16803

>  <mol_properties>  (16) 
{"1": {"label": "*0", "atom_type": "Cd"}, "2": {"label": "*1", "atom_type": "N3d"}, "7": {"label": "*2", "atom_type": "H0"}, "10": {"label": "*4", "atom_type": "Cd"}, "11": {"label": "*3", "atom_type": "Cd"}}

>  <type>  (16) 
unop_12

>  <geom_source>  (16) 
Heuristics

$$$$

     RDKit          3D

 17 15  0  0  0  0  0  0  0  0999 V2000
    0.0396   -1.3672   -3.6445 C   0  0  0  0  0  0  0  0  0  0  0  0
    0.0396   -1.3672   -2.1498 C   0  0  0  0  0  0  0  0  0  0  0  0
    0.0396   -0.2663   -1.4782 N   0  0  0  0  0  0  0  0  0  0  0  0
    0.9270   -1.8983   -3.9982 H   0  0  0  0  0  0  0  0  0  0  0  0
   -0.8587   -1.8502   -4.0364 H   0  0  0  0  0  0  0  0  0  0  0  0
    0.0861   -0.3341   -3.9982 H   0  0  0  0  0  0  0  0  0  0  0  0
    0.0396   -2.3450   -1.6395 H   0  0  0  0  0  0  0  0  0  0  0  0
    0.0396   -0.5098   -0.2705 H   0  0  0  0  0  0  0  0  0  0  0  0
    0.4961    2.4084    2.7803 C   0  0  0  0  0  0  0  0  0  0  0  0
   -0.0820    1.3656    2.2690 C   0  0  0  0  0  3  0  0  0  0  0  0
   -0.6616    0.3203    1.7564 C   0  0  0  0  0  0  0  0  0  0  0  0
    0.0396   -0.7694    1.0166 C   0  0  0  0  0  0  0  0  0  0  0  0
    0.8693    2.3899    3.7976 H   0  0  0  0  0  0  0  0  0  0  0  0
    0.6175    3.3141    2.1977 H   0  0  0  0  0  0  0  0  0  0  0  0
   -1.7376    0.2213    1.8671 H   0  0  0  0  0  0  0  0  0  0  0  0
   -0.1191   -1.7267    1.5223 H   0  0  0  0  0  0  0  0  0  0  0  0
    1.1176   -0.5905    0.9504 H   0  0  0  0  0  0  0  0  0  0  0  0
  1  2  1  0
  1  4  1  0
  1  5  1  0
  1  6  1  0
  2  3  2  3
  2  7  1  0
  3  8  1  0
  9 10  2  3
  9 13  1  0
  9 14  1  0
 10 11  1  0
 11 12  2  3
 11 15  1  0
 12 16  1  0
 12 17  1  0
M  RAD  1  10   2
M  END
>  <reaction>  (17) 
rmg_rxn_16803

>  <mol_properties>  (17) 
{"1": {"label": "*0", "atom_type": "Cd"}, "2": {"label": "*1", "atom_type": "N3d"}, "7": {"label": "*2", "atom_type": "H0"}, "10": {"label": "*4", "atom_type": "Cd"}, "11": {"label": "*3", "atom_type": "Cd"}}

>  <type>  (17) 
unop_13

>  <geom_source>  (17) 
Heuristics

$$$$

     RDKit          3D

 17 15  0  0  0  0  0  0  0  0999 V2000
    0.3815    0.3851   -3.4897 C   0  0  0  0  0  0  0  0  0  0  0  0
    0.3815    0.3851   -1.9950 C   0  0  0  0  0  0  0  0  0  0  0  0
    0.3815    1.4861   -1.3234 N   0  0  0  0  0  0  0  0  0  0  0  0
    1.2688   -0.1459   -3.8434 H   0  0  0  0  0  0  0  0  0  0  0  0
   -0.5169   -0.0978   -3.8816 H   0  0  0  0  0  0  0  0  0  0  0  0
    0.4279    1.4182   -3.8434 H   0  0  0  0  0  0  0  0  0  0  0  0
    0.3815   -0.5926   -1.4848 H   0  0  0  0  0  0  0  0  0  0  0  0
    0.3815    1.2425   -0.1158 H   0  0  0  0  0  0  0  0  0  0  0  0
   -1.4546   -1.8039    2.6814 C   0  0  0  0  0  0  0  0  0  0  0  0
   -0.5377   -1.1490    2.0384 C   0  0  0  0  0  3  0  0  0  0  0  0
    0.3815   -0.4926    1.3938 C   0  0  0  0  0  0  0  0  0  0  0  0
    0.3815    0.9829    1.1714 C   0  0  0  0  0  0  0  0  0  0  0  0
   -1.3737   -1.9618    3.7506 H   0  0  0  0  0  0  0  0  0  0  0  0
   -2.3177   -2.2015    2.1604 H   0  0  0  0  0  0  0  0  0  0  0  0
    1.2177   -1.0487    0.9799 H   0  0  0  0  0  0  0  0  0  0  0  0
    1.2794    1.4272    1.6114 H   0  0  0  0  0  0  0  0  0  0  0  0
   -0.4944    1.4637    1.6188 H   0  0  0  0  0  0  0  0  0  0  0  0
  1  2  1  0
  1  4  1  0
  1  5  1  0
  1  6  1  0
  2  3  2  3
  2  7  1  0
  3  8  1  0
  9 10  2  3
  9 13  1  0
  9 14  1  0
 10 11  1  0
 11 12  2  3
 11 15  1  0
 12 16  1  0
 12 17  1  0
M  RAD  1  10   2
M  END
>  <reaction>  (18) 
rmg_rxn_16803

>  <mol_properties>  (18) 
{"1": {"label": "*0", "atom_type": "Cd"}, "2": {"label": "*1", "atom_type": "N3d"}, "7": {"label": "*2", "atom_type": "H0"}, "10": {"label": "*4", "atom_type": "Cd"}, "11": {"label": "*3", "atom_type": "Cd"}}

>  <type>  (18) 
unop_14

>  <geom_source>  (18) 
Heuristics

$$$$

     RDKit          3D

 17 15  0  0  0  0  0  0  0  0999 V2000
   -0.1231    0.4131   -3.5867 C   0  0  0  0  0  0  0  0  0  0  0  0
   -0.1231    0.4131   -2.0920 C   0  0  0  0  0  0  0  0  0  0  0  0
   -0.1231    1.5140   -1.4204 N   0  0  0  0  0  0  0  0  0  0  0  0
    0.7643   -0.1180   -3.9404 H   0  0  0  0  0  0  0  0  0  0  0  0
   -1.0214   -0.0698   -3.9786 H   0  0  0  0  0  0  0  0  0  0  0  0
   -0.0766    1.4462   -3.9404 H   0  0  0  0  0  0  0  0  0  0  0  0
   -0.1231   -0.5646   -1.5817 H   0  0  0  0  0  0  0  0  0  0  0  0
   -0.1231    1.2705   -0.2127 H   0  0  0  0  0  0  0  0  0  0  0  0
   -0.2162   -2.0938    3.0161 C   0  0  0  0  0  0  0  0  0  0  0  0
    0.1804   -1.1882    2.1761 C   0  0  0  0  0  3  0  0  0  0  0  0
    0.5781   -0.2804    1.3340 C   0  0  0  0  0  0  0  0  0  0  0  0
   -0.1231    1.0109    1.0745 C   0  0  0  0  0  0  0  0  0  0  0  0
    0.1132   -2.0720    4.0484 H   0  0  0  0  0  0  0  0  0  0  0  0
   -0.8855   -2.8854    2.6999 H   0  0  0  0  0  0  0  0  0  0  0  0
    1.4878   -0.4641    0.7695 H   0  0  0  0  0  0  0  0  0  0  0  0
    0.5415    1.8496    1.3028 H   0  0  0  0  0  0  0  0  0  0  0  0
   -1.0277    1.1141    1.6822 H   0  0  0  0  0  0  0  0  0  0  0  0
  1  2  1  0
  1  4  1  0
  1  5  1  0
  1  6  1  0
  2  3  2  3
  2  7  1  0
  3  8  1  0
  9 10  2  3
  9 13  1  0
  9 14  1  0
 10 11  1  0
 11 12  2  3
 11 15  1  0
 12 16  1  0
 12 17  1  0
M  RAD  1  10   2
M  END
>  <reaction>  (19) 
rmg_rxn_16803

>  <mol_properties>  (19) 
{"1": {"label": "*0", "atom_type": "Cd"}, "2": {"label": "*1", "atom_type": "N3d"}, "7": {"label": "*2", "atom_type": "H0"}, "10": {"label": "*4", "atom_type": "Cd"}, "11": {"label": "*3", "atom_type": "Cd"}}

>  <type>  (19) 
unop_15

>  <geom_source>  (19) 
gaussian_log

$$$$
