
     RDKit          3D

  9  8  0  0  0  0  0  0  0  0999 V2000
   -1.2749   -0.2244    0.0004 C   0  0  0  0  0  0  0  0  0  0  0  0
   -0.1272    0.4645    0.0017 C   0  0  0  0  0  0  0  0  0  0  0  0
    1.2277   -0.1636    0.0010 C   0  0  0  0  0  0  0  0  0  0  0  0
   -2.2311    0.2898    0.0010 H   0  0  0  0  0  0  0  0  0  0  0  0
   -1.2897   -1.3099   -0.0012 H   0  0  0  0  0  0  0  0  0  0  0  0
   -0.1618    1.5518    0.0033 H   0  0  0  0  0  0  0  0  0  0  0  0
    1.7852    0.1535   -0.8856 H   0  0  0  0  0  0  0  0  0  0  0  0
    1.1333   -1.2535   -0.0230 H   0  0  0  0  0  0  0  0  0  0  0  0
    1.8102    0.1094    0.8866 H   0  0  0  0  0  0  0  0  0  0  0  0
  1  2  2  3
  1  4  1  0
  1  5  1  0
  2  3  1  0
  2  6  1  0
  3  7  1  0
  3  8  1  0
  3  9  1  0
M  END
>  <reaction>  (1) 
rmg_rxn_1163

>  <mol_properties>  (1) 
{"0": {"label": "donator", "atom_type": "Cd"}, "3": {"label": "d_hydrogen", "atom_type": "H0"}}

>  <type>  (1) 
r1h

$$$$

     RDKit          3D

  1  0  0  0  0  0  0  0  0  0999 V2000
    0.0000    0.0000    0.0000 O   0  0  0  0  0 15  0  0  0  0  0  0
M  END
>  <reaction>  (2) 
rmg_rxn_1163

>  <mol_properties>  (2) 
{"0": {"label": "acceptor", "atom_type": "O2s"}}

>  <type>  (2) 
r2

$$$$

     RDKit          3D

  2  1  0  0  0  0  0  0  0  0999 V2000
    0.0000    0.0000    0.1079 O   0  0  0  0  0  1  0  0  0  0  0  0
    0.0000    0.0000   -0.8631 H   0  0  0  0  0  0  0  0  0  0  0  0
  1  2  1  0
M  RAD  1   1   2
M  END
>  <reaction>  (3) 
rmg_rxn_1163

>  <mol_properties>  (3) 
{"0": {"label": "acceptor", "atom_type": "O2s"}, "1": {"label": "a_hydrogen", "atom_type": "H0"}}

>  <type>  (3) 
r2h

$$$$

     RDKit          3D

 10  8  0  0  0  0  0  0  0  0999 V2000
    2.5731   -0.2660   -0.0001 O   0  0  0  0  0  1  0  0  0  0  0  0
    0.2762    0.6843    0.0002 C   0  0  0  0  0  3  0  0  0  0  0  0
   -0.6103   -0.2951    0.0001 C   0  0  0  0  0  0  0  0  0  0  0  0
   -2.1019   -0.1147   -0.0001 C   0  0  0  0  0  0  0  0  0  0  0  0
    1.5795    0.2787    0.0001 H   0  0  0  0  0  0  0  0  0  0  0  0
    0.1640    1.7725   -0.0002 H   0  0  0  0  0  0  0  0  0  0  0  0
   -0.2343   -1.3263    0.0004 H   0  0  0  0  0  0  0  0  0  0  0  0
   -2.5455   -0.5982   -0.8845 H   0  0  0  0  0  0  0  0  0  0  0  0
   -2.3872    0.9463   -0.0032 H   0  0  0  0  0  0  0  0  0  0  0  0
   -2.5452   -0.5929    0.8873 H   0  0  0  0  0  0  0  0  0  0  0  0
  1  5  1  0
  2  3  2  3
  2  6  1  0
  3  4  1  0
  3  7  1  0
  4  8  1  0
  4  9  1  0
  4 10  1  0
M  RAD  2   1   2   2   2
M  END
>  <reaction>  (4) 
rmg_rxn_1163

>  <mol_properties>  (4) 
{"0": {"label": "*1", "atom_type": "O2s"}, "1": {"label": "*3", "atom_type": "Cd"}, "2": {"label": "*4", "atom_type": "Cd"}, "4": {"label": "*2", "atom_type": "H0"}}

>  <type>  (4) 
ts

$$$$

     RDKit          3D

 10  8  0  0  0  0  0  0  0  0999 V2000
    2.4610   -0.1977   -0.0107 O   0  0  0  0  0  1  0  0  0  0  0  0
    0.1678    0.6260    0.0099 C   0  0  0  0  0  3  0  0  0  0  0  0
   -0.7126   -0.3294    0.0141 C   0  0  0  0  0  0  0  0  0  0  0  0
   -2.1873   -0.0768   -0.0124 C   0  0  0  0  0  0  0  0  0  0  0  0
    1.4156    0.2815    0.0691 H   0  0  0  0  0  0  0  0  0  0  0  0
    0.1534    1.6942   -0.0201 H   0  0  0  0  0  0  0  0  0  0  0  0
   -0.4090   -1.3659    0.0394 H   0  0  0  0  0  0  0  0  0  0  0  0
   -2.6146   -0.5547   -0.8918 H   0  0  0  0  0  0  0  0  0  0  0  0
   -2.4105    0.9858   -0.0351 H   0  0  0  0  0  0  0  0  0  0  0  0
   -2.6423   -0.5230    0.8698 H   0  0  0  0  0  0  0  0  0  0  0  0
  1  5  1  0
  2  3  2  3
  2  6  1  0
  3  4  1  0
  3  7  1  0
  4  8  1  0
  4  9  1  0
  4 10  1  0
M  RAD  2   1   2   2   2
M  END
>  <reaction>  (5) 
rmg_rxn_1163

>  <mol_properties>  (5) 
{"0": {"label": "*1", "atom_type": "O2s"}, "1": {"label": "*3", "atom_type": "Cd"}, "2": {"label": "*4", "atom_type": "Cd"}, "4": {"label": "*2", "atom_type": "H0"}}

>  <type>  (5) 
unop_1

>  <geom_source>  (5) 
Heuristics

$$$$

     RDKit          3D

 10  8  0  0  0  0  0  0  0  0999 V2000
   -0.0004    0.4298    2.5311 O   0  0  0  0  0  1  0  0  0  0  0  0
   -0.0004    0.5760    0.0673 C   0  0  0  0  0  3  0  0  0  0  0  0
   -0.0004   -0.5317   -0.6842 C   0  0  0  0  0  0  0  0  0  0  0  0
   -0.0004   -0.5317   -2.1776 C   0  0  0  0  0  0  0  0  0  0  0  0
   -0.0004    0.4989    1.3679 H   0  0  0  0  0  0  0  0  0  0  0  0
   -0.0004    1.5671   -0.3759 H   0  0  0  0  0  0  0  0  0  0  0  0
   -0.0004   -1.5035   -0.1955 H   0  0  0  0  0  0  0  0  0  0  0  0
    0.8868   -1.0526   -2.5504 H   0  0  0  0  0  0  0  0  0  0  0  0
    0.0220    0.4969   -2.5504 H   0  0  0  0  0  0  0  0  0  0  0  0
   -0.8855   -1.0257   -2.5909 H   0  0  0  0  0  0  0  0  0  0  0  0
  1  5  1  0
  2  3  2  3
  2  6  1  0
  3  4  1  0
  3  7  1  0
  4  8  1  0
  4  9  1  0
  4 10  1  0
M  RAD  2   1   2   2   2
M  END
>  <reaction>  (6) 
rmg_rxn_1163

>  <mol_properties>  (6) 
{"0": {"label": "*1", "atom_type": "O2s"}, "1": {"label": "*3", "atom_type": "Cd"}, "2": {"label": "*4", "atom_type": "Cd"}, "4": {"label": "*2", "atom_type": "H0"}}

>  <type>  (6) 
unop_2

>  <geom_source>  (6) 
Heuristics

$$$$

     RDKit          3D

 10  8  0  0  0  0  0  0  0  0999 V2000
    2.7348   -0.6995    0.6682 O   0  0  0  0  0 15  0  0  0  0  0  0
   -1.3803   -0.1212    0.1320 C   0  0  0  0  0  0  0  0  0  0  0  0
   -0.0967   -0.1290   -0.6385 C   0  0  0  0  0  0  0  0  0  0  0  0
    0.9451    0.6094   -0.2538 C   0  0  0  0  0  0  0  0  0  0  0  0
   -2.1125   -0.7993   -0.3541 H   0  0  0  0  0  0  0  0  0  0  0  0
   -1.2013   -0.4711    1.1707 H   0  0  0  0  0  0  0  0  0  0  0  0
   -1.8024    0.9057    0.1554 H   0  0  0  0  0  0  0  0  0  0  0  0
   -0.0080   -0.7455   -1.5271 H   0  0  0  0  0  0  0  0  0  0  0  0
    0.8956    1.2392    0.6295 H   0  0  0  0  0  0  0  0  0  0  0  0
    2.0258    0.2113    0.0177 H   0  0  0  0  0  0  0  0  0  0  0  0
  2  3  1  0
  2  5  1  0
  2  6  1  0
  2  7  1  0
  3  4  2  3
  3  8  1  0
  4  9  1  0
  4 10  1  0
M  END
>  <reaction>  (7) 
rmg_rxn_1163

>  <mol_properties>  (7) 
{"0": {"label": "*1", "atom_type": "O2s"}, "1": {"label": "*3", "atom_type": "Cd"}, "2": {"label": "*4", "atom_type": "Cd"}, "4": {"label": "*2", "atom_type": "H0"}}

>  <type>  (7) 
unop_3

>  <geom_source>  (7) 
AutoTST

$$$$

     RDKit          3D

 10  8  0  0  0  0  0  0  0  0999 V2000
    2.4610   -0.1977   -0.0107 O   0  0  0  0  0  1  0  0  0  0  0  0
    0.1678    0.6260    0.0099 C   0  0  0  0  0  3  0  0  0  0  0  0
   -0.7126   -0.3294    0.0141 C   0  0  0  0  0  0  0  0  0  0  0  0
   -2.1873   -0.0767   -0.0124 C   0  0  0  0  0  0  0  0  0  0  0  0
    1.4156    0.2815    0.0691 H   0  0  0  0  0  0  0  0  0  0  0  0
    0.1534    1.6942   -0.0201 H   0  0  0  0  0  0  0  0  0  0  0  0
   -0.4090   -1.3659    0.0394 H   0  0  0  0  0  0  0  0  0  0  0  0
   -2.6146   -0.5547   -0.8918 H   0  0  0  0  0  0  0  0  0  0  0  0
   -2.4105    0.9858   -0.0351 H   0  0  0  0  0  0  0  0  0  0  0  0
   -2.6423   -0.5230    0.8699 H   0  0  0  0  0  0  0  0  0  0  0  0
  1  5  1  0
  2  3  2  3
  2  6  1  0
  3  4  1  0
  3  7  1  0
  4  8  1  0
  4  9  1  0
  4 10  1  0
M  RAD  2   1   2   2   2
M  END
>  <reaction>  (8) 
rmg_rxn_1163

>  <mol_properties>  (8) 
{"0": {"label": "*1", "atom_type": "O2s"}, "1": {"label": "*3", "atom_type": "Cd"}, "2": {"label": "*4", "atom_type": "Cd"}, "4": {"label": "*2", "atom_type": "H0"}}

>  <type>  (8) 
unop_4

>  <geom_source>  (8) 
gaussian_log

$$$$
