
     RDKit          3D

 10  9  0  0  0  0  0  0  0  0999 V2000
    2.0403   -0.0578    0.0121 C   0  0  0  0  0  0  0  0  0  0  0  0
    0.5945   -0.0168    0.1898 C   0  0  0  0  0  0  0  0  0  0  0  0
   -0.5945    0.0169    0.3359 C   0  0  0  0  0  0  0  0  0  0  0  0
   -2.0403    0.0578    0.5136 C   0  0  0  0  0  0  0  0  0  0  0  0
    2.4743    0.9376    0.1205 H   0  0  0  0  0  0  0  0  0  0  0  0
    2.3003   -0.4330   -0.9792 H   0  0  0  0  0  0  0  0  0  0  0  0
    2.5052   -0.7109    0.7526 H   0  0  0  0  0  0  0  0  0  0  0  0
   -2.3746    1.0686    0.7536 H   0  0  0  0  0  0  0  0  0  0  0  0
   -2.3517   -0.6020    1.3252 H   0  0  0  0  0  0  0  0  0  0  0  0
   -2.5535   -0.2603   -0.3954 H   0  0  0  0  0  0  0  0  0  0  0  0
  1  2  1  0
  1  5  1  0
  1  6  1  0
  1  7  1  0
  2  3  3  0
  3  4  1  0
  4  8  1  0
  4  9  1  0
  4 10  1  0
M  END
>  <reaction>  (1) 
rmg_rxn_172

>  <mol_properties>  (1) 
{"3": {"label": "donator", "atom_type": "Cs"}, "9": {"label": "d_hydrogen", "atom_type": "H0"}}

>  <type>  (1) 
r1h

$$$$

     RDKit          3D

  8  7  0  0  0  0  0  0  0  0999 V2000
   -1.0336    0.3440   -0.0356 C   0  0  0  0  0  3  0  0  0  0  0  0
    0.1991   -0.4326   -0.0698 C   0  0  0  0  0  0  0  0  0  0  0  0
    0.9631   -0.0368    1.2269 N   0  0  0  0  0  0  0  0  0  0  0  0
    0.8138   -0.8074    2.1160 O   0  0  0  0  0  0  0  0  0  0  0  0
   -1.0668    1.3490   -0.4321 H   0  0  0  0  0  0  0  0  0  0  0  0
   -1.8598    0.0102    0.5774 H   0  0  0  0  0  0  0  0  0  0  0  0
    0.0447   -1.5108   -0.0264 H   0  0  0  0  0  0  0  0  0  0  0  0
    0.8639   -0.1518   -0.8851 H   0  0  0  0  0  0  0  0  0  0  0  0
  1  2  1  0
  1  5  1  0
  1  6  1  0
  2  3  1  0
  2  7  1  0
  2  8  1  0
  3  4  2  0
M  RAD  1   1   2
M  END
>  <reaction>  (2) 
rmg_rxn_172

>  <mol_properties>  (2) 
{"0": {"label": "acceptor", "atom_type": "Cs"}}

>  <type>  (2) 
r2

$$$$

     RDKit          3D

  9  8  0  0  0  0  0  0  0  0999 V2000
   -1.0314    0.2323   -0.1227 C   0  0  0  0  0  0  0  0  0  0  0  0
    0.3094   -0.4511    0.0063 C   0  0  0  0  0  0  0  0  0  0  0  0
    0.3197   -1.7698    0.6841 N   0  0  0  0  0  0  0  0  0  0  0  0
   -0.7498   -2.1455    1.0557 O   0  0  0  0  0  0  0  0  0  0  0  0
   -1.4744    0.4198    0.8552 H   0  0  0  0  0  0  0  0  0  0  0  0
   -0.9073    1.1865   -0.6350 H   0  0  0  0  0  0  0  0  0  0  0  0
   -1.7319   -0.3778   -0.6927 H   0  0  0  0  0  0  0  0  0  0  0  0
    1.0375    0.1401    0.5713 H   0  0  0  0  0  0  0  0  0  0  0  0
    0.7826   -0.6494   -0.9609 H   0  0  0  0  0  0  0  0  0  0  0  0
  1  2  1  0
  1  5  1  0
  1  6  1  0
  1  7  1  0
  2  3  1  0
  2  8  1  0
  2  9  1  0
  3  4  2  0
M  END
>  <reaction>  (3) 
rmg_rxn_172

>  <mol_properties>  (3) 
{"0": {"label": "acceptor", "atom_type": "Cs"}, "8": {"label": "a_hydrogen", "atom_type": "H0"}}

>  <type>  (3) 
r2h

$$$$

     RDKit          3D

 18 16  0  0  0  0  0  0  0  0999 V2000
   -0.1761    0.3448    1.6522 C   0  0  0  0  0  3  0  0  0  0  0  0
   -0.5116    1.0239    0.3701 C   0  0  0  0  0  0  0  0  0  0  0  0
   -1.1758    2.3625    0.4550 N   0  0  0  0  0  0  0  0  0  0  0  0
   -1.3730    2.7577    1.5610 O   0  0  0  0  0  0  0  0  0  0  0  0
    0.5982    0.8176    2.2498 H   0  0  0  0  0  0  0  0  0  0  0  0
   -1.0220    0.0138    2.2481 H   0  0  0  0  0  0  0  0  0  0  0  0
    0.3681    1.2100   -0.2543 H   0  0  0  0  0  0  0  0  0  0  0  0
   -1.1910    0.4365   -0.2560 H   0  0  0  0  0  0  0  0  0  0  0  0
    0.8028   -1.6158   -3.2936 C   0  0  0  0  0  0  0  0  0  0  0  0
    0.8661   -1.7472   -1.8451 C   0  0  0  0  0  0  0  0  0  0  0  0
    0.9264   -1.8717   -0.6497 C   0  0  0  0  0  0  0  0  0  0  0  0
    0.9605   -1.9442    0.7767 C   0  0  0  0  0  0  0  0  0  0  0  0
    1.8024   -1.6417   -3.7305 H   0  0  0  0  0  0  0  0  0  0  0  0
    0.3348   -0.6715   -3.5794 H   0  0  0  0  0  0  0  0  0  0  0  0
    0.2195   -2.4269   -3.7325 H   0  0  0  0  0  0  0  0  0  0  0  0
    1.9619   -1.9365    1.2034 H   0  0  0  0  0  0  0  0  0  0  0  0
    0.3478   -2.7372    1.2013 H   0  0  0  0  0  0  0  0  0  0  0  0
    0.4231   -0.8620    1.2353 H   0  0  0  0  0  0  0  0  0  0  0  0
  1  2  1  0
  1  5  1  0
  1  6  1  0
  2  3  1  0
  2  7  1  0
  2  8  1  0
  3  4  2  0
  9 10  1  0
  9 13  1  0
  9 14  1  0
  9 15  1  0
 10 11  3  0
 11 12  1  0
 12 16  1  0
 12 17  1  0
 12 18  1  0
M  RAD  1   1   2
M  END
>  <reaction>  (4) 
rmg_rxn_172

>  <mol_properties>  (4) 
{"0": {"label": "*3", "atom_type": "Cs"}, "1": {"label": "*4", "atom_type": "Cs"}, "10": {"label": "*0", "atom_type": "Ct"}, "11": {"label": "*1", "atom_type": "Cs"}, "17": {"label": "*2", "atom_type": "H0"}}

>  <type>  (4) 
ts

$$$$

     RDKit          3D

 18 16  0  0  0  0  0  0  0  0999 V2000
   -0.1110    0.8595    0.7526 C   0  0  0  0  0  0  0  0  0  0  0  0
   -1.3140    0.5135    1.5979 C   0  0  0  0  0  0  0  0  0  0  0  0
   -1.5109    1.3132    2.8309 N   0  0  0  0  0  0  0  0  0  0  0  0
   -0.6829    2.1517    3.0164 O   0  0  0  0  0  0  0  0  0  0  0  0
   -0.1545    1.8928    0.4088 H   0  0  0  0  0  0  0  0  0  0  0  0
    0.8147    0.7354    1.3142 H   0  0  0  0  0  0  0  0  0  0  0  0
   -2.2607    0.6243    1.0592 H   0  0  0  0  0  0  0  0  0  0  0  0
   -1.3014   -0.5213    1.9555 H   0  0  0  0  0  0  0  0  0  0  0  0
    0.9657   -1.3362   -4.2944 C   0  0  0  0  0  0  0  0  0  0  0  0
    0.9657   -1.3362   -2.8371 C   0  0  0  0  0  3  0  0  0  0  0  0
    0.9657   -1.3362   -1.6386 C   0  0  0  0  0  0  0  0  0  0  0  0
    0.9657   -1.3362   -0.1813 C   0  0  0  0  0  0  0  0  0  0  0  0
    1.9847   -1.3678   -4.6837 H   0  0  0  0  0  0  0  0  0  0  0  0
    0.4835   -0.4379   -4.6837 H   0  0  0  0  0  0  0  0  0  0  0  0
    0.4289   -2.2030   -4.6837 H   0  0  0  0  0  0  0  0  0  0  0  0
    1.9829   -1.4052    0.2080 H   0  0  0  0  0  0  0  0  0  0  0  0
    0.3974   -2.1827    0.2080 H   0  0  0  0  0  0  0  0  0  0  0  0
    0.4271   -0.2378    0.2859 H   0  0  0  0  0  0  0  0  0  0  0  0
  1  2  1  0
  1  5  1  0
  1  6  1  0
  1 18  1  0
  2  3  1  0
  2  7  1  0
  2  8  1  0
  3  4  2  0
  9 10  1  0
  9 13  1  0
  9 14  1  0
  9 15  1  0
 10 11  2  0
 11 12  2  0
 12 16  1  0
 12 17  1  0
M  RAD  1  10   2
M  END
>  <reaction>  (5) 
rmg_rxn_172

>  <mol_properties>  (5) 
{"0": {"label": "*3", "atom_type": "Cs"}, "1": {"label": "*4", "atom_type": "Cs"}, "10": {"label": "*0", "atom_type": "Ct"}, "11": {"label": "*1", "atom_type": "Cs"}, "17": {"label": "*2", "atom_type": "H0"}}

>  <type>  (5) 
unop_1

>  <geom_source>  (5) 
Heuristics

$$$$

     RDKit          3D

 18 16  0  0  0  0  0  0  0  0999 V2000
    0.1346    0.5597    1.5163 C   0  0  0  0  0  0  0  0  0  0  0  0
   -0.9061    1.0657    0.5454 C   0  0  0  0  0  0  0  0  0  0  0  0
   -1.8937    2.0355    1.0771 N   0  0  0  0  0  0  0  0  0  0  0  0
   -1.7504    2.3090    2.2294 O   0  0  0  0  0  0  0  0  0  0  0  0
    0.7353    1.3780    1.9126 H   0  0  0  0  0  0  0  0  0  0  0  0
   -0.3286    0.0491    2.3603 H   0  0  0  0  0  0  0  0  0  0  0  0
   -0.4709    1.5806   -0.3173 H   0  0  0  0  0  0  0  0  0  0  0  0
   -1.5240    0.2651    0.1259 H   0  0  0  0  0  0  0  0  0  0  0  0
    1.2113   -1.6361   -3.5307 C   0  0  0  0  0  0  0  0  0  0  0  0
    1.2113   -1.6361   -2.0734 C   0  0  0  0  0  3  0  0  0  0  0  0
    1.2113   -1.6361   -0.8749 C   0  0  0  0  0  0  0  0  0  0  0  0
    1.2113   -1.6361    0.5823 C   0  0  0  0  0  0  0  0  0  0  0  0
    2.2303   -1.6676   -3.9200 H   0  0  0  0  0  0  0  0  0  0  0  0
    0.7291   -0.7378   -3.9200 H   0  0  0  0  0  0  0  0  0  0  0  0
    0.6744   -2.5028   -3.9200 H   0  0  0  0  0  0  0  0  0  0  0  0
    2.2284   -1.7050    0.9717 H   0  0  0  0  0  0  0  0  0  0  0  0
    0.6429   -2.4825    0.9717 H   0  0  0  0  0  0  0  0  0  0  0  0
    0.6726   -0.5376    1.0496 H   0  0  0  0  0  0  0  0  0  0  0  0
  1  2  1  0
  1  5  1  0
  1  6  1  0
  1 18  1  0
  2  3  1  0
  2  7  1  0
  2  8  1  0
  3  4  2  0
  9 10  1  0
  9 13  1  0
  9 14  1  0
  9 15  1  0
 10 11  2  0
 11 12  2  0
 12 16  1  0
 12 17  1  0
M  RAD  1  10   2
M  END
>  <reaction>  (6) 
rmg_rxn_172

>  <mol_properties>  (6) 
{"0": {"label": "*3", "atom_type": "Cs"}, "1": {"label": "*4", "atom_type": "Cs"}, "10": {"label": "*0", "atom_type": "Ct"}, "11": {"label": "*1", "atom_type": "Cs"}, "17": {"label": "*2", "atom_type": "H0"}}

>  <type>  (6) 
unop_2

>  <geom_source>  (6) 
Heuristics

$$$$

     RDKit          3D

 18 16  0  0  0  0  0  0  0  0999 V2000
   -0.3047    0.7193    0.7205 C   0  0  0  0  0  0  0  0  0  0  0  0
   -0.9582    0.4357    2.0525 C   0  0  0  0  0  0  0  0  0  0  0  0
   -1.0444    1.5695    3.0041 N   0  0  0  0  0  0  0  0  0  0  0  0
   -0.5800    2.5920    2.6017 O   0  0  0  0  0  0  0  0  0  0  0  0
   -0.8394    1.4977    0.1766 H   0  0  0  0  0  0  0  0  0  0  0  0
    0.7250    1.0520    0.8492 H   0  0  0  0  0  0  0  0  0  0  0  0
   -1.9942    0.0946    1.9560 H   0  0  0  0  0  0  0  0  0  0  0  0
   -0.4456   -0.3465    2.6218 H   0  0  0  0  0  0  0  0  0  0  0  0
    0.7720   -1.4765   -4.3264 C   0  0  0  0  0  0  0  0  0  0  0  0
    0.7720   -1.4765   -2.8692 C   0  0  0  0  0  3  0  0  0  0  0  0
    0.7720   -1.4765   -1.6707 C   0  0  0  0  0  0  0  0  0  0  0  0
    0.7720   -1.4765   -0.2134 C   0  0  0  0  0  0  0  0  0  0  0  0
    1.7910   -1.5080   -4.7158 H   0  0  0  0  0  0  0  0  0  0  0  0
    0.2898   -0.5782   -4.7158 H   0  0  0  0  0  0  0  0  0  0  0  0
    0.2351   -2.3432   -4.7157 H   0  0  0  0  0  0  0  0  0  0  0  0
    1.7891   -1.5454    0.1759 H   0  0  0  0  0  0  0  0  0  0  0  0
    0.2036   -2.3229    0.1759 H   0  0  0  0  0  0  0  0  0  0  0  0
    0.2333   -0.3780    0.2538 H   0  0  0  0  0  0  0  0  0  0  0  0
  1  2  1  0
  1  5  1  0
  1  6  1  0
  1 18  1  0
  2  3  1  0
  2  7  1  0
  2  8  1  0
  3  4  2  0
  9 10  1  0
  9 13  1  0
  9 14  1  0
  9 15  1  0
 10 11  2  0
 11 12  2  0
 12 16  1  0
 12 17  1  0
M  RAD  1  10   2
M  END
>  <reaction>  (7) 
rmg_rxn_172

>  <mol_properties>  (7) 
{"0": {"label": "*3", "atom_type": "Cs"}, "1": {"label": "*4", "atom_type": "Cs"}, "10": {"label": "*0", "atom_type": "Ct"}, "11": {"label": "*1", "atom_type": "Cs"}, "17": {"label": "*2", "atom_type": "H0"}}

>  <type>  (7) 
unop_3

>  <geom_source>  (7) 
Heuristics

$$$$

     RDKit          3D

 18 16  0  0  0  0  0  0  0  0999 V2000
   -0.7568    0.2936    1.2427 C   0  0  0  0  0  0  0  0  0  0  0  0
    0.0299    1.4886    0.7585 C   0  0  0  0  0  0  0  0  0  0  0  0
    0.0824    2.6603    1.6656 N   0  0  0  0  0  0  0  0  0  0  0  0
   -0.5125    2.5221    2.6904 O   0  0  0  0  0  0  0  0  0  0  0  0
   -0.3487   -0.0959    2.1751 H   0  0  0  0  0  0  0  0  0  0  0  0
   -1.8001    0.5537    1.4202 H   0  0  0  0  0  0  0  0  0  0  0  0
    1.0828    1.2577    0.5667 H   0  0  0  0  0  0  0  0  0  0  0  0
   -0.3539    1.9007   -0.1806 H   0  0  0  0  0  0  0  0  0  0  0  0
    0.3199   -1.9022   -3.8043 C   0  0  0  0  0  0  0  0  0  0  0  0
    0.3199   -1.9022   -2.3470 C   0  0  0  0  0  3  0  0  0  0  0  0
    0.3199   -1.9022   -1.1485 C   0  0  0  0  0  0  0  0  0  0  0  0
    0.3199   -1.9022    0.3087 C   0  0  0  0  0  0  0  0  0  0  0  0
    1.3389   -1.9338   -4.1936 H   0  0  0  0  0  0  0  0  0  0  0  0
   -0.1623   -1.0039   -4.1936 H   0  0  0  0  0  0  0  0  0  0  0  0
   -0.2169   -2.7690   -4.1936 H   0  0  0  0  0  0  0  0  0  0  0  0
    1.3371   -1.9712    0.6981 H   0  0  0  0  0  0  0  0  0  0  0  0
   -0.2484   -2.7486    0.6981 H   0  0  0  0  0  0  0  0  0  0  0  0
   -0.2187   -0.8037    0.7760 H   0  0  0  0  0  0  0  0  0  0  0  0
  1  2  1  0
  1  5  1  0
  1  6  1  0
  1 18  1  0
  2  3  1  0
  2  7  1  0
  2  8  1  0
  3  4  2  0
  9 10  1  0
  9 13  1  0
  9 14  1  0
  9 15  1  0
 10 11  2  0
 11 12  2  0
 12 16  1  0
 12 17  1  0
M  RAD  1  10   2
M  END
>  <reaction>  (8) 
rmg_rxn_172

>  <mol_properties>  (8) 
{"0": {"label": "*3", "atom_type": "Cs"}, "1": {"label": "*4", "atom_type": "Cs"}, "10": {"label": "*0", "atom_type": "Ct"}, "11": {"label": "*1", "atom_type": "Cs"}, "17": {"label": "*2", "atom_type": "H0"}}

>  <type>  (8) 
unop_4

>  <geom_source>  (8) 
Heuristics

$$$$

     RDKit          3D

 18 16  0  0  0  0  0  0  0  0999 V2000
   -0.3106    0.6334    0.7656 C   0  0  0  0  0  0  0  0  0  0  0  0
   -0.2952    0.6020    2.2757 C   0  0  0  0  0  0  0  0  0  0  0  0
   -0.8721    1.7784    2.9698 N   0  0  0  0  0  0  0  0  0  0  0  0
   -1.2888    2.6284    2.2438 O   0  0  0  0  0  0  0  0  0  0  0  0
   -1.3282    0.7095    0.3830 H   0  0  0  0  0  0  0  0  0  0  0  0
    0.2523    1.4845    0.3830 H   0  0  0  0  0  0  0  0  0  0  0  0
   -0.8498   -0.2458    2.6910 H   0  0  0  0  0  0  0  0  0  0  0  0
    0.7147    0.5213    2.6910 H   0  0  0  0  0  0  0  0  0  0  0  0
    0.7661   -1.5624   -4.2813 C   0  0  0  0  0  0  0  0  0  0  0  0
    0.7661   -1.5624   -2.8241 C   0  0  0  0  0  3  0  0  0  0  0  0
    0.7661   -1.5624   -1.6256 C   0  0  0  0  0  0  0  0  0  0  0  0
    0.7661   -1.5624   -0.1683 C   0  0  0  0  0  0  0  0  0  0  0  0
    1.7851   -1.5939   -4.6707 H   0  0  0  0  0  0  0  0  0  0  0  0
    0.2839   -0.6641   -4.6707 H   0  0  0  0  0  0  0  0  0  0  0  0
    0.2293   -2.4291   -4.6706 H   0  0  0  0  0  0  0  0  0  0  0  0
    1.7833   -1.6314    0.2210 H   0  0  0  0  0  0  0  0  0  0  0  0
    0.1978   -2.4088    0.2210 H   0  0  0  0  0  0  0  0  0  0  0  0
    0.2275   -0.4639    0.2989 H   0  0  0  0  0  0  0  0  0  0  0  0
  1  2  1  0
  1  5  1  0
  1  6  1  0
  1 18  1  0
  2  3  1  0
  2  7  1  0
  2  8  1  0
  3  4  2  0
  9 10  1  0
  9 13  1  0
  9 14  1  0
  9 15  1  0
 10 11  2  0
 11 12  2  0
 12 16  1  0
 12 17  1  0
M  RAD  1  10   2
M  END
>  <reaction>  (9) 
rmg_rxn_172

>  <mol_properties>  (9) 
{"0": {"label": "*3", "atom_type": "Cs"}, "1": {"label": "*4", "atom_type": "Cs"}, "10": {"label": "*0", "atom_type": "Ct"}, "11": {"label": "*1", "atom_type": "Cs"}, "17": {"label": "*2", "atom_type": "H0"}}

>  <type>  (9) 
unop_5

>  <geom_source>  (9) 
Heuristics

$$$$

     RDKit          3D

 18 16  0  0  0  0  0  0  0  0999 V2000
   -0.7767    0.4497    0.9477 C   0  0  0  0  0  0  0  0  0  0  0  0
    0.2929    1.5008    1.1283 C   0  0  0  0  0  0  0  0  0  0  0  0
    0.1853    2.3568    2.3341 N   0  0  0  0  0  0  0  0  0  0  0  0
   -0.7491    2.1129    3.0345 O   0  0  0  0  0  0  0  0  0  0  0  0
   -0.7880   -0.2493    1.7837 H   0  0  0  0  0  0  0  0  0  0  0  0
   -1.7662    0.9014    0.8795 H   0  0  0  0  0  0  0  0  0  0  0  0
    1.3005    1.0777    1.1958 H   0  0  0  0  0  0  0  0  0  0  0  0
    0.3323    2.2167    0.3008 H   0  0  0  0  0  0  0  0  0  0  0  0
    0.3000   -1.7460   -4.0993 C   0  0  0  0  0  0  0  0  0  0  0  0
    0.3000   -1.7460   -2.6420 C   0  0  0  0  0  3  0  0  0  0  0  0
    0.3000   -1.7460   -1.4435 C   0  0  0  0  0  0  0  0  0  0  0  0
    0.3000   -1.7460    0.0138 C   0  0  0  0  0  0  0  0  0  0  0  0
    1.3190   -1.7776   -4.4886 H   0  0  0  0  0  0  0  0  0  0  0  0
   -0.1822   -0.8478   -4.4886 H   0  0  0  0  0  0  0  0  0  0  0  0
   -0.2368   -2.6128   -4.4886 H   0  0  0  0  0  0  0  0  0  0  0  0
    1.3171   -1.8150    0.4031 H   0  0  0  0  0  0  0  0  0  0  0  0
   -0.2683   -2.5925    0.4031 H   0  0  0  0  0  0  0  0  0  0  0  0
   -0.2387   -0.6476    0.4810 H   0  0  0  0  0  0  0  0  0  0  0  0
  1  2  1  0
  1  5  1  0
  1  6  1  0
  1 18  1  0
  2  3  1  0
  2  7  1  0
  2  8  1  0
  3  4  2  0
  9 10  1  0
  9 13  1  0
  9 14  1  0
  9 15  1  0
 10 11  2  0
 11 12  2  0
 12 16  1  0
 12 17  1  0
M  RAD  1  10   2
M  END
>  <reaction>  (10) 
rmg_rxn_172

>  <mol_properties>  (10) 
{"0": {"label": "*3", "atom_type": "Cs"}, "1": {"label": "*4", "atom_type": "Cs"}, "10": {"label": "*0", "atom_type": "Ct"}, "11": {"label": "*1", "atom_type": "Cs"}, "17": {"label": "*2", "atom_type": "H0"}}

>  <type>  (10) 
unop_6

>  <geom_source>  (10) 
Heuristics

$$$$

     RDKit          3D

 18 16  0  0  0  0  0  0  0  0999 V2000
   -0.6116    0.6141    0.7526 C   0  0  0  0  0  0  0  0  0  0  0  0
    0.3986    1.3533    1.5979 C   0  0  0  0  0  0  0  0  0  0  0  0
   -0.1131    1.9986    2.8309 N   0  0  0  0  0  0  0  0  0  0  0  0
   -1.2830    1.8575    3.0164 O   0  0  0  0  0  0  0  0  0  0  0  0
   -1.0803   -0.1938    1.3142 H   0  0  0  0  0  0  0  0  0  0  0  0
   -1.4018    1.2811    0.4088 H   0  0  0  0  0  0  0  0  0  0  0  0
    1.2091    0.7097    1.9555 H   0  0  0  0  0  0  0  0  0  0  0  0
    0.8908    2.1696    1.0592 H   0  0  0  0  0  0  0  0  0  0  0  0
    0.4651   -1.5817   -4.2944 C   0  0  0  0  0  0  0  0  0  0  0  0
    0.4651   -1.5817   -2.8371 C   0  0  0  0  0  3  0  0  0  0  0  0
    0.4651   -1.5817   -1.6386 C   0  0  0  0  0  0  0  0  0  0  0  0
    0.4651   -1.5817   -0.1813 C   0  0  0  0  0  0  0  0  0  0  0  0
    1.4841   -1.6133   -4.6837 H   0  0  0  0  0  0  0  0  0  0  0  0
   -0.0171   -0.6834   -4.6837 H   0  0  0  0  0  0  0  0  0  0  0  0
   -0.0717   -2.4485   -4.6837 H   0  0  0  0  0  0  0  0  0  0  0  0
    1.4823   -1.6507    0.2080 H   0  0  0  0  0  0  0  0  0  0  0  0
   -0.1032   -2.4281    0.2080 H   0  0  0  0  0  0  0  0  0  0  0  0
   -0.0735   -0.4832    0.2859 H   0  0  0  0  0  0  0  0  0  0  0  0
  1  2  1  0
  1  5  1  0
  1  6  1  0
  1 18  1  0
  2  3  1  0
  2  7  1  0
  2  8  1  0
  3  4  2  0
  9 10  1  0
  9 13  1  0
  9 14  1  0
  9 15  1  0
 10 11  2  0
 11 12  2  0
 12 16  1  0
 12 17  1  0
M  RAD  1  10   2
M  END
>  <reaction>  (11) 
rmg_rxn_172

>  <mol_properties>  (11) 
{"0": {"label": "*3", "atom_type": "Cs"}, "1": {"label": "*4", "atom_type": "Cs"}, "10": {"label": "*0", "atom_type": "Ct"}, "11": {"label": "*1", "atom_type": "Cs"}, "17": {"label": "*2", "atom_type": "H0"}}

>  <type>  (11) 
unop_7

>  <geom_source>  (11) 
Heuristics

$$$$

     RDKit          3D

 18 16  0  0  0  0  0  0  0  0999 V2000
    0.1201    0.8895    0.9477 C   0  0  0  0  0  0  0  0  0  0  0  0
   -1.3659    0.6874    1.1283 C   0  0  0  0  0  0  0  0  0  0  0  0
   -1.9768    1.2967    2.3341 N   0  0  0  0  0  0  0  0  0  0  0  0
   -1.2118    1.8861    3.0345 O   0  0  0  0  0  0  0  0  0  0  0  0
    0.3688    1.9483    0.8795 H   0  0  0  0  0  0  0  0  0  0  0  0
    0.6796    0.4704    1.7837 H   0  0  0  0  0  0  0  0  0  0  0  0
   -1.9561    1.0946    0.3008 H   0  0  0  0  0  0  0  0  0  0  0  0
   -1.6484   -0.3683    1.1958 H   0  0  0  0  0  0  0  0  0  0  0  0
    1.1967   -1.3063   -4.0993 C   0  0  0  0  0  0  0  0  0  0  0  0
    1.1967   -1.3063   -2.6420 C   0  0  0  0  0  3  0  0  0  0  0  0
    1.1967   -1.3063   -1.4435 C   0  0  0  0  0  0  0  0  0  0  0  0
    1.1967   -1.3063    0.0138 C   0  0  0  0  0  0  0  0  0  0  0  0
    2.2158   -1.3379   -4.4886 H   0  0  0  0  0  0  0  0  0  0  0  0
    0.7145   -0.4080   -4.4886 H   0  0  0  0  0  0  0  0  0  0  0  0
    0.6599   -2.1731   -4.4886 H   0  0  0  0  0  0  0  0  0  0  0  0
    2.2139   -1.3753    0.4031 H   0  0  0  0  0  0  0  0  0  0  0  0
    0.6284   -2.1527    0.4031 H   0  0  0  0  0  0  0  0  0  0  0  0
    0.6581   -0.2078    0.4810 H   0  0  0  0  0  0  0  0  0  0  0  0
  1  2  1  0
  1  5  1  0
  1  6  1  0
  1 18  1  0
  2  3  1  0
  2  7  1  0
  2  8  1  0
  3  4  2  0
  9 10  1  0
  9 13  1  0
  9 14  1  0
  9 15  1  0
 10 11  2  0
 11 12  2  0
 12 16  1  0
 12 17  1  0
M  RAD  1  10   2
M  END
>  <reaction>  (12) 
rmg_rxn_172

>  <mol_properties>  (12) 
{"0": {"label": "*3", "atom_type": "Cs"}, "1": {"label": "*4", "atom_type": "Cs"}, "10": {"label": "*0", "atom_type": "Ct"}, "11": {"label": "*1", "atom_type": "Cs"}, "17": {"label": "*2", "atom_type": "H0"}}

>  <type>  (12) 
unop_8

>  <geom_source>  (12) 
Heuristics

$$$$

     RDKit          3D

 18 16  0  0  0  0  0  0  0  0999 V2000
   -0.5249    0.2363    1.5163 C   0  0  0  0  0  0  0  0  0  0  0  0
   -0.2878    1.3689    0.5454 C   0  0  0  0  0  0  0  0  0  0  0  0
   -0.4497    2.7436    1.0771 N   0  0  0  0  0  0  0  0  0  0  0  0
   -0.7537    2.7978    2.2294 O   0  0  0  0  0  0  0  0  0  0  0  0
    0.1624    0.2898    2.3603 H   0  0  0  0  0  0  0  0  0  0  0  0
   -1.5398    0.2624    1.9126 H   0  0  0  0  0  0  0  0  0  0  0  0
    0.7236    1.3672    0.1259 H   0  0  0  0  0  0  0  0  0  0  0  0
   -0.9613    1.3401   -0.3173 H   0  0  0  0  0  0  0  0  0  0  0  0
    0.5518   -1.9594   -3.5307 C   0  0  0  0  0  0  0  0  0  0  0  0
    0.5518   -1.9594   -2.0734 C   0  0  0  0  0  3  0  0  0  0  0  0
    0.5518   -1.9594   -0.8749 C   0  0  0  0  0  0  0  0  0  0  0  0
    0.5518   -1.9594    0.5823 C   0  0  0  0  0  0  0  0  0  0  0  0
    1.5708   -1.9910   -3.9200 H   0  0  0  0  0  0  0  0  0  0  0  0
    0.0696   -1.0612   -3.9200 H   0  0  0  0  0  0  0  0  0  0  0  0
    0.0150   -2.8262   -3.9200 H   0  0  0  0  0  0  0  0  0  0  0  0
    1.5690   -2.0284    0.9717 H   0  0  0  0  0  0  0  0  0  0  0  0
   -0.0165   -2.8059    0.9717 H   0  0  0  0  0  0  0  0  0  0  0  0
    0.0132   -0.8610    1.0496 H   0  0  0  0  0  0  0  0  0  0  0  0
  1  2  1  0
  1  5  1  0
  1  6  1  0
  1 18  1  0
  2  3  1  0
  2  7  1  0
  2  8  1  0
  3  4  2  0
  9 10  1  0
  9 13  1  0
  9 14  1  0
  9 15  1  0
 10 11  2  0
 11 12  2  0
 12 16  1  0
 12 17  1  0
M  RAD  1  10   2
M  END
>  <reaction>  (13) 
rmg_rxn_172

>  <mol_properties>  (13) 
{"0": {"label": "*3", "atom_type": "Cs"}, "1": {"label": "*4", "atom_type": "Cs"}, "10": {"label": "*0", "atom_type": "Ct"}, "11": {"label": "*1", "atom_type": "Cs"}, "17": {"label": "*2", "atom_type": "H0"}}

>  <type>  (13) 
unop_9

>  <geom_source>  (13) 
Heuristics

$$$$

     RDKit          3D

 18 16  0  0  0  0  0  0  0  0999 V2000
    0.2313    0.7781    1.2427 C   0  0  0  0  0  0  0  0  0  0  0  0
   -1.1952    0.8879    0.7585 C   0  0  0  0  0  0  0  0  0  0  0  0
   -2.1537    1.5639    1.6656 N   0  0  0  0  0  0  0  0  0  0  0  0
   -1.6801    1.9495    2.6904 O   0  0  0  0  0  0  0  0  0  0  0  0
    0.6645    1.7622    1.4202 H   0  0  0  0  0  0  0  0  0  0  0  0
    0.2893    0.2170    2.1751 H   0  0  0  0  0  0  0  0  0  0  0  0
   -1.2860    1.4436   -0.1806 H   0  0  0  0  0  0  0  0  0  0  0  0
   -1.6574   -0.0860    0.5667 H   0  0  0  0  0  0  0  0  0  0  0  0
    1.3080   -1.4177   -3.8043 C   0  0  0  0  0  0  0  0  0  0  0  0
    1.3080   -1.4177   -2.3470 C   0  0  0  0  0  3  0  0  0  0  0  0
    1.3080   -1.4177   -1.1485 C   0  0  0  0  0  0  0  0  0  0  0  0
    1.3080   -1.4177    0.3087 C   0  0  0  0  0  0  0  0  0  0  0  0
    2.3271   -1.4492   -4.1936 H   0  0  0  0  0  0  0  0  0  0  0  0
    0.8258   -0.5194   -4.1936 H   0  0  0  0  0  0  0  0  0  0  0  0
    0.7712   -2.2844   -4.1936 H   0  0  0  0  0  0  0  0  0  0  0  0
    2.3252   -1.4866    0.6981 H   0  0  0  0  0  0  0  0  0  0  0  0
    0.7397   -2.2641    0.6981 H   0  0  0  0  0  0  0  0  0  0  0  0
    0.7694   -0.3192    0.7760 H   0  0  0  0  0  0  0  0  0  0  0  0
  1  2  1  0
  1  5  1  0
  1  6  1  0
  1 18  1  0
  2  3  1  0
  2  7  1  0
  2  8  1  0
  3  4  2  0
  9 10  1  0
  9 13  1  0
  9 14  1  0
  9 15  1  0
 10 11  2  0
 11 12  2  0
 12 16  1  0
 12 17  1  0
M  RAD  1  10   2
M  END
>  <reaction>  (14) 
rmg_rxn_172

>  <mol_properties>  (14) 
{"0": {"label": "*3", "atom_type": "Cs"}, "1": {"label": "*4", "atom_type": "Cs"}, "10": {"label": "*0", "atom_type": "Ct"}, "11": {"label": "*1", "atom_type": "Cs"}, "17": {"label": "*2", "atom_type": "H0"}}

>  <type>  (14) 
unop_10

>  <geom_source>  (14) 
Heuristics

$$$$

     RDKit          3D

 18 16  0  0  0  0  0  0  0  0999 V2000
   -0.3821    0.6814    0.7205 C   0  0  0  0  0  0  0  0  0  0  0  0
    0.2422    1.0244    2.0525 C   0  0  0  0  0  0  0  0  0  0  0  0
   -0.6014    1.7867    3.0041 N   0  0  0  0  0  0  0  0  0  0  0  0
   -1.6941    2.0458    2.6017 O   0  0  0  0  0  0  0  0  0  0  0  0
   -1.2757    0.0710    0.8492 H   0  0  0  0  0  0  0  0  0  0  0  0
   -0.6701    1.5807    0.1766 H   0  0  0  0  0  0  0  0  0  0  0  0
    0.5468    0.1401    2.6218 H   0  0  0  0  0  0  0  0  0  0  0  0
    1.1462    1.6345    1.9560 H   0  0  0  0  0  0  0  0  0  0  0  0
    0.6946   -1.5144   -4.3264 C   0  0  0  0  0  0  0  0  0  0  0  0
    0.6946   -1.5144   -2.8692 C   0  0  0  0  0  3  0  0  0  0  0  0
    0.6946   -1.5144   -1.6707 C   0  0  0  0  0  0  0  0  0  0  0  0
    0.6946   -1.5144   -0.2134 C   0  0  0  0  0  0  0  0  0  0  0  0
    1.7136   -1.5459   -4.7158 H   0  0  0  0  0  0  0  0  0  0  0  0
    0.2124   -0.6161   -4.7158 H   0  0  0  0  0  0  0  0  0  0  0  0
    0.1578   -2.3812   -4.7157 H   0  0  0  0  0  0  0  0  0  0  0  0
    1.7118   -1.5834    0.1759 H   0  0  0  0  0  0  0  0  0  0  0  0
    0.1263   -2.3608    0.1759 H   0  0  0  0  0  0  0  0  0  0  0  0
    0.1560   -0.4159    0.2538 H   0  0  0  0  0  0  0  0  0  0  0  0
  1  2  1  0
  1  5  1  0
  1  6  1  0
  1 18  1  0
  2  3  1  0
  2  7  1  0
  2  8  1  0
  3  4  2  0
  9 10  1  0
  9 13  1  0
  9 14  1  0
  9 15  1  0
 10 11  2  0
 11 12  2  0
 12 16  1  0
 12 17  1  0
M  RAD  1  10   2
M  END
>  <reaction>  (15) 
rmg_rxn_172

>  <mol_properties>  (15) 
{"0": {"label": "*3", "atom_type": "Cs"}, "1": {"label": "*4", "atom_type": "Cs"}, "10": {"label": "*0", "atom_type": "Ct"}, "11": {"label": "*1", "atom_type": "Cs"}, "17": {"label": "*2", "atom_type": "H0"}}

>  <type>  (15) 
unop_11

>  <geom_source>  (15) 
Heuristics

$$$$

     RDKit          3D

 18 16  0  0  0  0  0  0  0  0999 V2000
   -0.1652    0.3368    1.6305 C   0  0  0  0  0  0  0  0  0  0  0  0
   -0.5969    1.2172    0.4815 C   0  0  0  0  0  0  0  0  0  0  0  0
   -1.2306    2.5096    0.8375 N   0  0  0  0  0  0  0  0  0  0  0  0
   -1.3282    2.7086    2.0097 O   0  0  0  0  0  0  0  0  0  0  0  0
    0.5679    0.8409    2.2599 H   0  0  0  0  0  0  0  0  0  0  0  0
   -1.0126    0.0659    2.2599 H   0  0  0  0  0  0  0  0  0  0  0  0
    0.2332    1.5033   -0.1727 H   0  0  0  0  0  0  0  0  0  0  0  0
   -1.3313    0.7361   -0.1727 H   0  0  0  0  0  0  0  0  0  0  0  0
    0.9115   -1.8589   -3.4165 C   0  0  0  0  0  0  0  0  0  0  0  0
    0.9115   -1.8589   -1.9592 C   0  0  0  0  0  3  0  0  0  0  0  0
    0.9115   -1.8589   -0.7607 C   0  0  0  0  0  0  0  0  0  0  0  0
    0.9115   -1.8589    0.6965 C   0  0  0  0  0  0  0  0  0  0  0  0
    1.9306   -1.8905   -3.8058 H   0  0  0  0  0  0  0  0  0  0  0  0
    0.4293   -0.9607   -3.8058 H   0  0  0  0  0  0  0  0  0  0  0  0
    0.3747   -2.7257   -3.8058 H   0  0  0  0  0  0  0  0  0  0  0  0
    1.9287   -1.9279    1.0859 H   0  0  0  0  0  0  0  0  0  0  0  0
    0.3432   -2.7054    1.0859 H   0  0  0  0  0  0  0  0  0  0  0  0
    0.3729   -0.7605    1.1638 H   0  0  0  0  0  0  0  0  0  0  0  0
  1  2  1  0
  1  5  1  0
  1  6  1  0
  1 18  1  0
  2  3  1  0
  2  7  1  0
  2  8  1  0
  3  4  2  0
  9 10  1  0
  9 13  1  0
  9 14  1  0
  9 15  1  0
 10 11  2  0
 11 12  2  0
 12 16  1  0
 12 17  1  0
M  RAD  1  10   2
M  END
>  <reaction>  (16) 
rmg_rxn_172

>  <mol_properties>  (16) 
{"0": {"label": "*3", "atom_type": "Cs"}, "1": {"label": "*4", "atom_type": "Cs"}, "10": {"label": "*0", "atom_type": "Ct"}, "11": {"label": "*1", "atom_type": "Cs"}, "17": {"label": "*2", "atom_type": "H0"}}

>  <type>  (16) 
unop_12

>  <geom_source>  (16) 
Heuristics

$$$$

     RDKit          3D

 18 16  0  0  0  0  0  0  0  0999 V2000
   -2.6633    1.5569   -1.2698 O   0  0  0  0  0  0  0  0  0  0  0  0
   -3.2370    1.1971   -0.2864 N   0  0  0  0  0  0  0  0  0  0  0  0
   -2.5069    0.6893    0.8487 C   0  0  0  0  0  0  0  0  0  0  0  0
   -1.8665   -0.6527    0.5161 C   0  0  0  0  0  0  0  0  0  0  0  0
    3.7692    0.4866    0.2338 C   0  0  0  0  0  0  0  0  0  0  0  0
    0.1330   -0.9076   -1.1458 C   0  0  0  0  0  0  0  0  0  0  0  0
    2.4815   -0.0071   -0.2547 C   0  0  0  0  0  3  0  0  0  0  0  0
    1.4206   -0.4140   -0.6573 C   0  0  0  0  0  0  0  0  0  0  0  0
   -1.7224    1.4174    1.1479 H   0  0  0  0  0  0  0  0  0  0  0  0
   -3.2090    0.5574    1.6987 H   0  0  0  0  0  0  0  0  0  0  0  0
   -2.6460   -1.3846    0.2149 H   0  0  0  0  0  0  0  0  0  0  0  0
   -1.3330   -1.0430    1.4083 H   0  0  0  0  0  0  0  0  0  0  0  0
   -1.0104   -0.5109   -0.4554 H   0  0  0  0  0  0  0  0  0  0  0  0
    4.5881    0.0457   -0.3710 H   0  0  0  0  0  0  0  0  0  0  0  0
    3.7990    1.5922    0.1462 H   0  0  0  0  0  0  0  0  0  0  0  0
    3.8974    0.1965    1.2970 H   0  0  0  0  0  0  0  0  0  0  0  0
    0.1153   -0.8616   -2.2542 H   0  0  0  0  0  0  0  0  0  0  0  0
   -0.0097   -1.9576   -0.8170 H   0  0  0  0  0  0  0  0  0  0  0  0
  1  2  2  0
  2  3  1  0
  3  4  1  0
  3  9  1  0
  3 10  1  0
  4 11  1  0
  4 12  1  0
  4 13  1  0
  5  7  1  0
  5 14  1  0
  5 15  1  0
  5 16  1  0
  6  8  2  0
  6 17  1  0
  6 18  1  0
  7  8  2  0
M  RAD  1   7   2
M  END
>  <reaction>  (17) 
rmg_rxn_172

>  <mol_properties>  (17) 
{"0": {"label": "*3", "atom_type": "Cs"}, "1": {"label": "*4", "atom_type": "Cs"}, "10": {"label": "*0", "atom_type": "Ct"}, "11": {"label": "*1", "atom_type": "Cs"}, "17": {"label": "*2", "atom_type": "H0"}}

>  <type>  (17) 
unop_13

>  <geom_source>  (17) 
AutoTST

$$$$

     RDKit          3D

 18 16  0  0  0  0  0  0  0  0999 V2000
    0.1346    0.5597    1.5163 C   0  0  0  0  0  0  0  0  0  0  0  0
   -0.9061    1.0657    0.5454 C   0  0  0  0  0  0  0  0  0  0  0  0
   -1.8937    2.0355    1.0771 N   0  0  0  0  0  0  0  0  0  0  0  0
   -1.7504    2.3090    2.2294 O   0  0  0  0  0  0  0  0  0  0  0  0
    0.7353    1.3780    1.9126 H   0  0  0  0  0  0  0  0  0  0  0  0
   -0.3286    0.0491    2.3603 H   0  0  0  0  0  0  0  0  0  0  0  0
   -0.4709    1.5806   -0.3173 H   0  0  0  0  0  0  0  0  0  0  0  0
   -1.5240    0.2651    0.1259 H   0  0  0  0  0  0  0  0  0  0  0  0
    1.2113   -1.6361   -3.5307 C   0  0  0  0  0  0  0  0  0  0  0  0
    1.2113   -1.6361   -2.0734 C   0  0  0  0  0  3  0  0  0  0  0  0
    1.2113   -1.6361   -0.8749 C   0  0  0  0  0  0  0  0  0  0  0  0
    1.2113   -1.6361    0.5823 C   0  0  0  0  0  0  0  0  0  0  0  0
    2.2303   -1.6676   -3.9200 H   0  0  0  0  0  0  0  0  0  0  0  0
    0.7291   -0.7378   -3.9200 H   0  0  0  0  0  0  0  0  0  0  0  0
    0.6744   -2.5028   -3.9200 H   0  0  0  0  0  0  0  0  0  0  0  0
    2.2284   -1.7050    0.9717 H   0  0  0  0  0  0  0  0  0  0  0  0
    0.6430   -2.4825    0.9717 H   0  0  0  0  0  0  0  0  0  0  0  0
    0.6726   -0.5376    1.0495 H   0  0  0  0  0  0  0  0  0  0  0  0
  1  2  1  0
  1  5  1  0
  1  6  1  0
  1 18  1  0
  2  3  1  0
  2  7  1  0
  2  8  1  0
  3  4  2  0
  9 10  1  0
  9 13  1  0
  9 14  1  0
  9 15  1  0
 10 11  2  0
 11 12  2  0
 12 16  1  0
 12 17  1  0
M  RAD  1  10   2
M  END
>  <reaction>  (18) 
rmg_rxn_172

>  <mol_properties>  (18) 
{"0": {"label": "*3", "atom_type": "Cs"}, "1": {"label": "*4", "atom_type": "Cs"}, "10": {"label": "*0", "atom_type": "Ct"}, "11": {"label": "*1", "atom_type": "Cs"}, "17": {"label": "*2", "atom_type": "H0"}}

>  <type>  (18) 
unop_14

>  <geom_source>  (18) 
gaussian_log

$$$$
