
     RDKit          3D

  5  4  0  0  0  0  0  0  0  0999 V2000
   -0.4583    0.0384    0.1517 N   0  0  0  0  0  0  0  0  0  0  0  0
    0.7454   -0.3487    0.5322 N   0  0  0  0  0  0  0  0  0  0  0  0
    0.7566   -1.0388    1.5193 O   0  0  0  0  0  0  0  0  0  0  0  0
   -1.2688   -0.2521    0.6850 H   0  0  0  0  0  0  0  0  0  0  0  0
   -0.5137    0.6154   -0.6670 H   0  0  0  0  0  0  0  0  0  0  0  0
  1  2  1  0
  1  4  1  0
  1  5  1  0
  2  3  2  0
M  END
>  <reaction>  (1) 
rmg_rxn_1482

>  <mol_properties>  (1) 
{"0": {"label": "donator", "atom_type": "N3s"}, "3": {"label": "d_hydrogen", "atom_type": "H0"}}

>  <type>  (1) 
r1h

$$$$

     RDKit          3D

 13 13  0  0  0  0  0  0  0  0999 V2000
    0.5794    1.5990    0.2108 C   0  0  0  0  0  3  0  0  0  0  0  0
    1.4528    0.6621   -0.2496 O   0  0  0  0  0  0  0  0  0  0  0  0
    1.0751   -0.6763    0.0423 C   0  0  0  0  0  0  0  0  0  0  0  0
   -0.3579   -0.9282   -0.3924 C   0  0  0  0  0  0  0  0  0  0  0  0
   -1.2426    0.1393    0.2269 C   0  0  0  0  0  0  0  0  0  0  0  0
   -0.7410    1.4341   -0.0749 O   0  0  0  0  0  0  0  0  0  0  0  0
    0.9183    2.6078    0.0084 H   0  0  0  0  0  0  0  0  0  0  0  0
    1.1839   -0.8508    1.1199 H   0  0  0  0  0  0  0  0  0  0  0  0
    1.7816   -1.3130   -0.4874 H   0  0  0  0  0  0  0  0  0  0  0  0
   -0.6818   -1.9210   -0.0736 H   0  0  0  0  0  0  0  0  0  0  0  0
   -0.4271   -0.8785   -1.4810 H   0  0  0  0  0  0  0  0  0  0  0  0
   -1.2832    0.0173    1.3164 H   0  0  0  0  0  0  0  0  0  0  0  0
   -2.2575    0.1083   -0.1657 H   0  0  0  0  0  0  0  0  0  0  0  0
  1  2  1  0
  1  6  1  0
  1  7  1  0
  2  3  1  0
  3  4  1  0
  3  8  1  0
  3  9  1  0
  4  5  1  0
  4 10  1  0
  4 11  1  0
  5  6  1  0
  5 12  1  0
  5 13  1  0
M  RAD  1   1   2
M  END
>  <reaction>  (2) 
rmg_rxn_1482

>  <mol_properties>  (2) 
{"0": {"label": "acceptor", "atom_type": "Cs"}}

>  <type>  (2) 
r2

$$$$

     RDKit          3D

 14 14  0  0  0  0  0  0  0  0999 V2000
   -1.1778    0.2241    0.1818 C   0  0  0  0  0  0  0  0  0  0  0  0
   -0.5633   -1.1636    0.0678 C   0  0  0  0  0  0  0  0  0  0  0  0
    0.6943   -1.1996    0.7146 O   0  0  0  0  0  0  0  0  0  0  0  0
    1.5547   -0.2288    0.2011 C   0  0  0  0  0  0  0  0  0  0  0  0
    1.0729    1.0696    0.3698 O   0  0  0  0  0  0  0  0  0  0  0  0
   -0.1607    1.2493   -0.2989 C   0  0  0  0  0  0  0  0  0  0  0  0
   -2.0927    0.2866   -0.4117 H   0  0  0  0  0  0  0  0  0  0  0  0
   -1.4303    0.4248    1.2248 H   0  0  0  0  0  0  0  0  0  0  0  0
   -1.1822   -1.9235    0.5431 H   0  0  0  0  0  0  0  0  0  0  0  0
   -0.4389   -1.4347   -0.9919 H   0  0  0  0  0  0  0  0  0  0  0  0
    1.7250   -0.4207   -0.8742 H   0  0  0  0  0  0  0  0  0  0  0  0
    2.4896   -0.3010    0.7524 H   0  0  0  0  0  0  0  0  0  0  0  0
   -0.0080    1.1481   -1.3844 H   0  0  0  0  0  0  0  0  0  0  0  0
   -0.4826    2.2695   -0.0942 H   0  0  0  0  0  0  0  0  0  0  0  0
  1  2  1  0
  1  6  1  0
  1  7  1  0
  1  8  1  0
  2  3  1  0
  2  9  1  0
  2 10  1  0
  3  4  1  0
  4  5  1  0
  4 11  1  0
  4 12  1  0
  5  6  1  0
  6 13  1  0
  6 14  1  0
M  END
>  <reaction>  (3) 
rmg_rxn_1482

>  <mol_properties>  (3) 
{"0": {"label": "a_hydrogen", "atom_type": "H0"}, "1": {"label": "acceptor", "atom_type": "Cs"}}

>  <type>  (3) 
r2h

$$$$

     RDKit          3D

 18 17  0  0  0  0  0  0  0  0999 V2000
    2.0633    0.9176   -0.0038 N   0  0  0  0  0  0  0  0  0  0  0  0
    2.5985   -0.2353   -0.1067 N   0  0  0  0  0  0  0  0  0  0  0  0
    1.9086   -1.2070   -0.3400 O   0  0  0  0  0  1  0  0  0  0  0  0
    0.7226    1.0858    0.0981 H   0  0  0  0  0  0  0  0  0  0  0  0
    2.7313    1.6259    0.2776 H   0  0  0  0  0  0  0  0  0  0  0  0
   -0.5759    1.2933    0.2187 C   0  0  0  0  0  0  0  0  0  0  0  0
   -1.1476    0.9948   -0.9842 O   0  0  0  0  0  0  0  0  0  0  0  0
   -1.1829   -0.3984   -1.2868 C   0  0  0  0  0  0  0  0  0  0  0  0
   -1.7979   -1.1712   -0.1341 C   0  0  0  0  0  0  0  0  0  0  0  0
   -1.0534   -0.8116    1.1390 C   0  0  0  0  0  0  0  0  0  0  0  0
   -1.0193    0.6039    1.3107 O   0  0  0  0  0  0  0  0  0  0  0  0
   -0.6662    2.3631    0.4060 H   0  0  0  0  0  0  0  0  0  0  0  0
   -1.7634   -0.4883   -2.2026 H   0  0  0  0  0  0  0  0  0  0  0  0
   -0.1587   -0.7434   -1.4676 H   0  0  0  0  0  0  0  0  0  0  0  0
   -2.8554   -0.9180   -0.0345 H   0  0  0  0  0  0  0  0  0  0  0  0
   -1.7168   -2.2433   -0.3207 H   0  0  0  0  0  0  0  0  0  0  0  0
   -0.0249   -1.1850    1.0912 H   0  0  0  0  0  0  0  0  0  0  0  0
   -1.5401   -1.2061    2.0285 H   0  0  0  0  0  0  0  0  0  0  0  0
  1  2  2  3
  1  5  1  0
  2  3  1  0
  4  6  1  0
  6  7  1  0
  6 11  1  0
  6 12  1  0
  7  8  1  0
  8  9  1  0
  8 13  1  0
  8 14  1  0
  9 10  1  0
  9 15  1  0
  9 16  1  0
 10 11  1  0
 10 17  1  0
 10 18  1  0
M  RAD  1   3   2
M  END
>  <reaction>  (4) 
rmg_rxn_1482

>  <mol_properties>  (4) 
{"0": {"label": "*3", "atom_type": "N3d"}, "1": {"label": "*4", "atom_type": "N3d"}, "3": {"label": "*2", "atom_type": "H0"}, "5": {"label": "*1", "atom_type": "Cs"}, "6": {"label": "*0", "atom_type": "O2s"}}

>  <type>  (4) 
ts

$$$$

     RDKit          3D

 18 17  0  0  0  0  0  0  0  0999 V2000
    1.9699    0.9223   -0.0509 N   0  0  0  0  0  0  0  0  0  0  0  0
    2.4900   -0.2285    0.0089 N   0  0  0  0  0  0  0  0  0  0  0  0
    1.8383   -1.2440   -0.1906 O   0  0  0  0  0  0  0  0  0  0  0  0
    0.7656    1.1330    0.0615 H   0  0  0  0  0  0  0  0  0  0  0  0
    2.6045    1.6688    0.2139 H   0  0  0  0  0  0  0  0  0  0  0  0
   -0.5193    1.2914    0.2153 C   0  0  0  0  0  3  0  0  0  0  0  0
   -1.1176    0.9949   -0.9965 O   0  0  0  0  0  0  0  0  0  0  0  0
   -1.1613   -0.3916   -1.2905 C   0  0  0  0  0  0  0  0  0  0  0  0
   -1.8081   -1.1582   -0.1394 C   0  0  0  0  0  0  0  0  0  0  0  0
   -0.9965   -0.8349    1.1124 C   0  0  0  0  0  0  0  0  0  0  0  0
   -0.9276    0.5657    1.3194 O   0  0  0  0  0  0  0  0  0  0  0  0
   -0.6884    2.3493    0.4263 H   0  0  0  0  0  0  0  0  0  0  0  0
   -1.7287   -0.4777   -2.2179 H   0  0  0  0  0  0  0  0  0  0  0  0
   -0.1404   -0.7708   -1.4478 H   0  0  0  0  0  0  0  0  0  0  0  0
   -2.8398   -0.8264   -0.0096 H   0  0  0  0  0  0  0  0  0  0  0  0
   -1.7903   -2.2280   -0.3358 H   0  0  0  0  0  0  0  0  0  0  0  0
    0.0190   -1.2459    0.9922 H   0  0  0  0  0  0  0  0  0  0  0  0
   -1.4475   -1.2425    2.0179 H   0  0  0  0  0  0  0  0  0  0  0  0
  1  2  1  0
  1  4  1  0
  1  5  1  0
  2  3  2  0
  6  7  1  0
  6 11  1  0
  6 12  1  0
  7  8  1  0
  8  9  1  0
  8 13  1  0
  8 14  1  0
  9 10  1  0
  9 15  1  0
  9 16  1  0
 10 11  1  0
 10 17  1  0
 10 18  1  0
M  RAD  1   6   2
M  END
>  <reaction>  (5) 
rmg_rxn_1482

>  <mol_properties>  (5) 
{"0": {"label": "*3", "atom_type": "N3d"}, "1": {"label": "*4", "atom_type": "N3d"}, "3": {"label": "*2", "atom_type": "H0"}, "5": {"label": "*1", "atom_type": "Cs"}, "6": {"label": "*0", "atom_type": "O2s"}}

>  <type>  (5) 
unop_1

>  <geom_source>  (5) 
crest_best.xyz

$$$$

     RDKit          3D

 18 17  0  0  0  0  0  0  0  0999 V2000
   -0.0690   -1.8454    0.8314 N   0  0  0  0  0  0  0  0  0  0  0  0
   -0.0690   -3.0483    0.2867 N   0  0  0  0  0  0  0  0  0  0  0  0
   -0.0690   -3.0483   -0.9178 O   0  0  0  0  0  0  0  0  0  0  0  0
   -0.0690   -0.8628    0.1162 H   0  0  0  0  0  0  0  0  0  0  0  0
   -0.0690   -1.7991    1.8335 H   0  0  0  0  0  0  0  0  0  0  0  0
   -0.0690    0.1925   -0.6519 C   0  0  0  0  0  3  0  0  0  0  0  0
   -1.2226    0.9199   -0.3576 O   0  0  0  0  0  0  0  0  0  0  0  0
   -0.9661    2.3111   -0.3611 C   0  0  0  0  0  0  0  0  0  0  0  0
    0.1527    2.6457    0.6151 C   0  0  0  0  0  0  0  0  0  0  0  0
    1.3488    1.7550    0.3105 C   0  0  0  0  0  0  0  0  0  0  0  0
    0.9544    0.3969    0.2740 O   0  0  0  0  0  0  0  0  0  0  0  0
    0.2894    0.4650   -1.6616 H   0  0  0  0  0  0  0  0  0  0  0  0
   -0.6876    2.6304   -1.3771 H   0  0  0  0  0  0  0  0  0  0  0  0
   -1.9005    2.8028   -0.0938 H   0  0  0  0  0  0  0  0  0  0  0  0
    0.4299    3.6990    0.5318 H   0  0  0  0  0  0  0  0  0  0  0  0
   -0.1880    2.4596    1.6354 H   0  0  0  0  0  0  0  0  0  0  0  0
    2.1220    1.8365    1.0732 H   0  0  0  0  0  0  0  0  0  0  0  0
    1.7901    2.0352   -0.6583 H   0  0  0  0  0  0  0  0  0  0  0  0
  1  2  1  0
  1  4  1  0
  1  5  1  0
  2  3  2  0
  6  7  1  0
  6 11  1  0
  6 12  1  0
  7  8  1  0
  8  9  1  0
  8 13  1  0
  8 14  1  0
  9 10  1  0
  9 15  1  0
  9 16  1  0
 10 11  1  0
 10 17  1  0
 10 18  1  0
M  RAD  1   6   2
M  END
>  <reaction>  (6) 
rmg_rxn_1482

>  <mol_properties>  (6) 
{"0": {"label": "*3", "atom_type": "N3d"}, "1": {"label": "*4", "atom_type": "N3d"}, "3": {"label": "*2", "atom_type": "H0"}, "5": {"label": "*1", "atom_type": "Cs"}, "6": {"label": "*0", "atom_type": "O2s"}}

>  <type>  (6) 
unop_2

>  <geom_source>  (6) 
Heuristics

$$$$

     RDKit          3D

 18 17  0  0  0  0  0  0  0  0999 V2000
    0.6326   -1.5941    1.5437 N   0  0  0  0  0  0  0  0  0  0  0  0
    0.6326   -2.7970    0.9989 N   0  0  0  0  0  0  0  0  0  0  0  0
    0.6326   -2.7970   -0.2056 O   0  0  0  0  0  0  0  0  0  0  0  0
    0.6326   -0.6115    0.8285 H   0  0  0  0  0  0  0  0  0  0  0  0
    0.6326   -1.5478    2.5458 H   0  0  0  0  0  0  0  0  0  0  0  0
    0.6326    0.4438    0.0604 C   0  0  0  0  0  3  0  0  0  0  0  0
   -0.0334    0.1004   -1.1165 O   0  0  0  0  0  0  0  0  0  0  0  0
   -0.4724    1.2517   -1.8116 C   0  0  0  0  0  0  0  0  0  0  0  0
   -1.3566    2.1065   -0.9149 C   0  0  0  0  0  0  0  0  0  0  0  0
   -0.6201    2.3671    0.3913 C   0  0  0  0  0  0  0  0  0  0  0  0
   -0.1723    1.1494    0.9552 O   0  0  0  0  0  0  0  0  0  0  0  0
    1.5252    1.0478   -0.1857 H   0  0  0  0  0  0  0  0  0  0  0  0
    0.4002    1.8338   -2.1456 H   0  0  0  0  0  0  0  0  0  0  0  0
   -1.0056    0.9007   -2.6941 H   0  0  0  0  0  0  0  0  0  0  0  0
   -1.6035    3.0491   -1.4087 H   0  0  0  0  0  0  0  0  0  0  0  0
   -2.2864    1.5734   -0.7073 H   0  0  0  0  0  0  0  0  0  0  0  0
   -1.2621    2.8391    1.1338 H   0  0  0  0  0  0  0  0  0  0  0  0
    0.2421    3.0277    0.2124 H   0  0  0  0  0  0  0  0  0  0  0  0
  1  2  1  0
  1  4  1  0
  1  5  1  0
  2  3  2  0
  6  7  1  0
  6 11  1  0
  6 12  1  0
  7  8  1  0
  8  9  1  0
  8 13  1  0
  8 14  1  0
  9 10  1  0
  9 15  1  0
  9 16  1  0
 10 11  1  0
 10 17  1  0
 10 18  1  0
M  RAD  1   6   2
M  END
>  <reaction>  (7) 
rmg_rxn_1482

>  <mol_properties>  (7) 
{"0": {"label": "*3", "atom_type": "N3d"}, "1": {"label": "*4", "atom_type": "N3d"}, "3": {"label": "*2", "atom_type": "H0"}, "5": {"label": "*1", "atom_type": "Cs"}, "6": {"label": "*0", "atom_type": "O2s"}}

>  <type>  (7) 
unop_3

>  <geom_source>  (7) 
Heuristics

$$$$

     RDKit          3D

 18 17  0  0  0  0  0  0  0  0999 V2000
   -0.4125   -1.8277    1.0766 N   0  0  0  0  0  0  0  0  0  0  0  0
   -0.4125   -3.0305    0.5318 N   0  0  0  0  0  0  0  0  0  0  0  0
   -0.4125   -3.0305   -0.6727 O   0  0  0  0  0  0  0  0  0  0  0  0
   -0.4125   -0.8451    0.3614 H   0  0  0  0  0  0  0  0  0  0  0  0
   -0.4125   -1.7813    2.0787 H   0  0  0  0  0  0  0  0  0  0  0  0
   -0.4125    0.2103   -0.4067 C   0  0  0  0  0  3  0  0  0  0  0  0
   -1.0785    1.2245    0.2818 O   0  0  0  0  0  0  0  0  0  0  0  0
   -0.6167    2.5017   -0.1143 C   0  0  0  0  0  0  0  0  0  0  0  0
    0.8887    2.6056    0.0849 C   0  0  0  0  0  0  0  0  0  0  0  0
    1.5549    1.4223   -0.6025 C   0  0  0  0  0  0  0  0  0  0  0  0
    0.9636    0.2094   -0.1772 O   0  0  0  0  0  0  0  0  0  0  0  0
   -0.6041    0.3150   -1.4905 H   0  0  0  0  0  0  0  0  0  0  0  0
   -0.8693    2.6714   -1.1723 H   0  0  0  0  0  0  0  0  0  0  0  0
   -1.1584    3.2311    0.4862 H   0  0  0  0  0  0  0  0  0  0  0  0
    1.2641    3.5461   -0.3247 H   0  0  0  0  0  0  0  0  0  0  0  0
    1.1161    2.5805    1.1524 H   0  0  0  0  0  0  0  0  0  0  0  0
    2.6150    1.3555   -0.3620 H   0  0  0  0  0  0  0  0  0  0  0  0
    1.4551    1.5161   -1.6948 H   0  0  0  0  0  0  0  0  0  0  0  0
  1  2  1  0
  1  4  1  0
  1  5  1  0
  2  3  2  0
  6  7  1  0
  6 11  1  0
  6 12  1  0
  7  8  1  0
  8  9  1  0
  8 13  1  0
  8 14  1  0
  9 10  1  0
  9 15  1  0
  9 16  1  0
 10 11  1  0
 10 17  1  0
 10 18  1  0
M  RAD  1   6   2
M  END
>  <reaction>  (8) 
rmg_rxn_1482

>  <mol_properties>  (8) 
{"0": {"label": "*3", "atom_type": "N3d"}, "1": {"label": "*4", "atom_type": "N3d"}, "3": {"label": "*2", "atom_type": "H0"}, "5": {"label": "*1", "atom_type": "Cs"}, "6": {"label": "*0", "atom_type": "O2s"}}

>  <type>  (8) 
unop_4

>  <geom_source>  (8) 
Heuristics

$$$$

     RDKit          3D

 18 17  0  0  0  0  0  0  0  0999 V2000
   -0.1682   -1.7154    1.8057 N   0  0  0  0  0  0  0  0  0  0  0  0
   -0.1682   -2.9182    1.2610 N   0  0  0  0  0  0  0  0  0  0  0  0
   -0.1682   -2.9182    0.0565 O   0  0  0  0  0  0  0  0  0  0  0  0
   -0.1682   -0.7327    1.0905 H   0  0  0  0  0  0  0  0  0  0  0  0
   -0.1682   -1.6690    2.8078 H   0  0  0  0  0  0  0  0  0  0  0  0
   -0.1682    0.3226    0.3224 C   0  0  0  0  0  3  0  0  0  0  0  0
    0.9854    0.2660   -0.4602 O   0  0  0  0  0  0  0  0  0  0  0  0
    1.4555    1.5628   -0.7746 C   0  0  0  0  0  0  0  0  0  0  0  0
    0.3655    2.3673   -1.4683 C   0  0  0  0  0  0  0  0  0  0  0  0
   -0.8967    2.3125   -0.6195 C   0  0  0  0  0  0  0  0  0  0  0  0
   -1.2267    0.9711   -0.3144 O   0  0  0  0  0  0  0  0  0  0  0  0
    0.0585    0.8371    1.2742 H   0  0  0  0  0  0  0  0  0  0  0  0
    1.7704    2.0729    0.1487 H   0  0  0  0  0  0  0  0  0  0  0  0
    2.3320    1.4335   -1.4080 H   0  0  0  0  0  0  0  0  0  0  0  0
    0.6859    3.4020   -1.6097 H   0  0  0  0  0  0  0  0  0  0  0  0
    0.1625    1.9333   -2.4492 H   0  0  0  0  0  0  0  0  0  0  0  0
   -1.7554    2.7362   -1.1386 H   0  0  0  0  0  0  0  0  0  0  0  0
   -0.7473    2.8754    0.3146 H   0  0  0  0  0  0  0  0  0  0  0  0
  1  2  1  0
  1  4  1  0
  1  5  1  0
  2  3  2  0
  6  7  1  0
  6 11  1  0
  6 12  1  0
  7  8  1  0
  8  9  1  0
  8 13  1  0
  8 14  1  0
  9 10  1  0
  9 15  1  0
  9 16  1  0
 10 11  1  0
 10 17  1  0
 10 18  1  0
M  RAD  1   6   2
M  END
>  <reaction>  (9) 
rmg_rxn_1482

>  <mol_properties>  (9) 
{"0": {"label": "*3", "atom_type": "N3d"}, "1": {"label": "*4", "atom_type": "N3d"}, "3": {"label": "*2", "atom_type": "H0"}, "5": {"label": "*1", "atom_type": "Cs"}, "6": {"label": "*0", "atom_type": "O2s"}}

>  <type>  (9) 
unop_5

>  <geom_source>  (9) 
Heuristics

$$$$

     RDKit          3D

 18 17  0  0  0  0  0  0  0  0999 V2000
   -0.3907   -1.8084    1.5037 N   0  0  0  0  0  0  0  0  0  0  0  0
   -0.3907   -3.0112    0.9589 N   0  0  0  0  0  0  0  0  0  0  0  0
   -0.3907   -3.0112   -0.2456 O   0  0  0  0  0  0  0  0  0  0  0  0
   -0.3907   -0.8258    0.7885 H   0  0  0  0  0  0  0  0  0  0  0  0
   -0.3907   -1.7620    2.5058 H   0  0  0  0  0  0  0  0  0  0  0  0
   -0.3907    0.2296    0.0203 C   0  0  0  0  0  3  0  0  0  0  0  0
   -0.3907    1.3488    0.8532 O   0  0  0  0  0  0  0  0  0  0  0  0
   -0.3676    2.5471    0.1014 C   0  0  0  0  0  0  0  0  0  0  0  0
    0.8341    2.5630   -0.8325 C   0  0  0  0  0  0  0  0  0  0  0  0
    0.8380    1.2759   -1.6450 C   0  0  0  0  0  0  0  0  0  0  0  0
    0.7431    0.1535   -0.7891 O   0  0  0  0  0  0  0  0  0  0  0  0
   -1.2953    0.2445   -0.6150 H   0  0  0  0  0  0  0  0  0  0  0  0
   -1.2981    2.6333   -0.4805 H   0  0  0  0  0  0  0  0  0  0  0  0
   -0.3372    3.3664    0.8183 H   0  0  0  0  0  0  0  0  0  0  0  0
    0.7926    3.4317   -1.4935 H   0  0  0  0  0  0  0  0  0  0  0  0
    1.7511    2.6230   -0.2432 H   0  0  0  0  0  0  0  0  0  0  0  0
    1.7577    1.1577   -2.2163 H   0  0  0  0  0  0  0  0  0  0  0  0
   -0.0077    1.2727   -2.3497 H   0  0  0  0  0  0  0  0  0  0  0  0
  1  2  1  0
  1  4  1  0
  1  5  1  0
  2  3  2  0
  6  7  1  0
  6 11  1  0
  6 12  1  0
  7  8  1  0
  8  9  1  0
  8 13  1  0
  8 14  1  0
  9 10  1  0
  9 15  1  0
  9 16  1  0
 10 11  1  0
 10 17  1  0
 10 18  1  0
M  RAD  1   6   2
M  END
>  <reaction>  (10) 
rmg_rxn_1482

>  <mol_properties>  (10) 
{"0": {"label": "*3", "atom_type": "N3d"}, "1": {"label": "*4", "atom_type": "N3d"}, "3": {"label": "*2", "atom_type": "H0"}, "5": {"label": "*1", "atom_type": "Cs"}, "6": {"label": "*0", "atom_type": "O2s"}}

>  <type>  (10) 
unop_6

>  <geom_source>  (10) 
Heuristics

$$$$

     RDKit          3D

 18 17  0  0  0  0  0  0  0  0999 V2000
   -0.1883   -1.8196    1.6508 N   0  0  0  0  0  0  0  0  0  0  0  0
   -0.1883   -3.0224    1.1060 N   0  0  0  0  0  0  0  0  0  0  0  0
   -0.1883   -3.0224   -0.0985 O   0  0  0  0  0  0  0  0  0  0  0  0
   -0.1883   -0.8370    0.9355 H   0  0  0  0  0  0  0  0  0  0  0  0
   -0.1883   -1.7733    2.6529 H   0  0  0  0  0  0  0  0  0  0  0  0
   -0.1883    0.2183    0.1674 C   0  0  0  0  0  3  0  0  0  0  0  0
    1.1438    0.5537   -0.0767 O   0  0  0  0  0  0  0  0  0  0  0  0
    1.3230    1.9568   -0.0997 C   0  0  0  0  0  0  0  0  0  0  0  0
    0.4033    2.5912   -1.1333 C   0  0  0  0  0  0  0  0  0  0  0  0
   -1.0193    2.1134   -0.8795 C   0  0  0  0  0  0  0  0  0  0  0  0
   -1.0590    0.7009   -0.8100 O   0  0  0  0  0  0  0  0  0  0  0  0
   -0.4909    0.6114    1.1554 H   0  0  0  0  0  0  0  0  0  0  0  0
    1.1104    2.3704    0.8981 H   0  0  0  0  0  0  0  0  0  0  0  0
    2.3736    2.1350   -0.3253 H   0  0  0  0  0  0  0  0  0  0  0  0
    0.4565    3.6807   -1.0743 H   0  0  0  0  0  0  0  0  0  0  0  0
    0.7159    2.2855   -2.1336 H   0  0  0  0  0  0  0  0  0  0  0  0
   -1.6966    2.4070   -1.6802 H   0  0  0  0  0  0  0  0  0  0  0  0
   -1.3967    2.5380    0.0634 H   0  0  0  0  0  0  0  0  0  0  0  0
  1  2  1  0
  1  4  1  0
  1  5  1  0
  2  3  2  0
  6  7  1  0
  6 11  1  0
  6 12  1  0
  7  8  1  0
  8  9  1  0
  8 13  1  0
  8 14  1  0
  9 10  1  0
  9 15  1  0
  9 16  1  0
 10 11  1  0
 10 17  1  0
 10 18  1  0
M  RAD  1   6   2
M  END
>  <reaction>  (11) 
rmg_rxn_1482

>  <mol_properties>  (11) 
{"0": {"label": "*3", "atom_type": "N3d"}, "1": {"label": "*4", "atom_type": "N3d"}, "3": {"label": "*2", "atom_type": "H0"}, "5": {"label": "*1", "atom_type": "Cs"}, "6": {"label": "*0", "atom_type": "O2s"}}

>  <type>  (11) 
unop_7

>  <geom_source>  (11) 
Heuristics

$$$$

     RDKit          3D

 18 17  0  0  0  0  0  0  0  0999 V2000
    1.9698    0.9225    0.0509 N   0  0  0  0  0  0  0  0  0  0  0  0
    2.4901   -0.2282   -0.0085 N   0  0  0  0  0  0  0  0  0  0  0  0
    1.8387   -1.2438    0.1914 O   0  0  0  0  0  0  0  0  0  0  0  0
    0.7655    1.1329   -0.0621 H   0  0  0  0  0  0  0  0  0  0  0  0
    2.6042    1.6689   -0.2142 H   0  0  0  0  0  0  0  0  0  0  0  0
   -0.5194    1.2912   -0.2165 C   0  0  0  0  0  3  0  0  0  0  0  0
   -0.9271    0.5642   -1.3200 O   0  0  0  0  0  0  0  0  0  0  0  0
   -0.9960   -0.8362   -1.1115 C   0  0  0  0  0  0  0  0  0  0  0  0
   -1.8082   -1.1581    0.1402 C   0  0  0  0  0  0  0  0  0  0  0  0
   -1.1619   -0.3902    1.2907 C   0  0  0  0  0  0  0  0  0  0  0  0
   -1.1182    0.9959    0.9953 O   0  0  0  0  0  0  0  0  0  0  0  0
   -0.6885    2.3487   -0.4288 H   0  0  0  0  0  0  0  0  0  0  0  0
   -1.4467   -1.2448   -2.0168 H   0  0  0  0  0  0  0  0  0  0  0  0
    0.0195   -1.2470   -0.9906 H   0  0  0  0  0  0  0  0  0  0  0  0
   -2.8398   -0.8266    0.0098 H   0  0  0  0  0  0  0  0  0  0  0  0
   -1.7903   -2.2278    0.3379 H   0  0  0  0  0  0  0  0  0  0  0  0
   -0.1410   -0.7692    1.4490 H   0  0  0  0  0  0  0  0  0  0  0  0
   -1.7297   -0.4754    2.2180 H   0  0  0  0  0  0  0  0  0  0  0  0
  1  2  1  0
  1  4  1  0
  1  5  1  0
  2  3  2  0
  6  7  1  0
  6 11  1  0
  6 12  1  0
  7  8  1  0
  8  9  1  0
  8 13  1  0
  8 14  1  0
  9 10  1  0
  9 15  1  0
  9 16  1  0
 10 11  1  0
 10 17  1  0
 10 18  1  0
M  RAD  1   6   2
M  END
>  <reaction>  (12) 
rmg_rxn_1482

>  <mol_properties>  (12) 
{"0": {"label": "*3", "atom_type": "N3d"}, "1": {"label": "*4", "atom_type": "N3d"}, "3": {"label": "*2", "atom_type": "H0"}, "5": {"label": "*1", "atom_type": "Cs"}, "6": {"label": "*0", "atom_type": "O2s"}}

>  <type>  (12) 
unop_8

>  <geom_source>  (12) 
Heuristics

$$$$

     RDKit          3D

 18 17  0  0  0  0  0  0  0  0999 V2000
   -0.1130   -1.8641    1.5910 N   0  0  0  0  0  0  0  0  0  0  0  0
   -0.1130   -3.0669    1.0463 N   0  0  0  0  0  0  0  0  0  0  0  0
   -0.1130   -3.0669   -0.1582 O   0  0  0  0  0  0  0  0  0  0  0  0
   -0.1130   -0.8815    0.8758 H   0  0  0  0  0  0  0  0  0  0  0  0
   -0.1130   -1.8178    2.5931 H   0  0  0  0  0  0  0  0  0  0  0  0
   -0.1130    0.1738    0.1077 C   0  0  0  0  0  3  0  0  0  0  0  0
    1.0405    0.9012    0.4020 O   0  0  0  0  0  0  0  0  0  0  0  0
    0.7948    2.2936    0.3536 C   0  0  0  0  0  0  0  0  0  0  0  0
    0.2360    2.6855   -1.0068 C   0  0  0  0  0  0  0  0  0  0  0  0
   -0.9582    1.7951   -1.3189 C   0  0  0  0  0  0  0  0  0  0  0  0
   -0.6081    0.4324   -1.1708 O   0  0  0  0  0  0  0  0  0  0  0  0
   -0.8930    0.4031    0.8569 H   0  0  0  0  0  0  0  0  0  0  0  0
    0.0827    2.5684    1.1468 H   0  0  0  0  0  0  0  0  0  0  0  0
    1.7433    2.7867    0.5618 H   0  0  0  0  0  0  0  0  0  0  0  0
   -0.0606    3.7368   -1.0093 H   0  0  0  0  0  0  0  0  0  0  0  0
    1.0041    2.5432   -1.7694 H   0  0  0  0  0  0  0  0  0  0  0  0
   -1.3029    1.9205   -2.3444 H   0  0  0  0  0  0  0  0  0  0  0  0
   -1.7937    2.0348   -0.6434 H   0  0  0  0  0  0  0  0  0  0  0  0
  1  2  1  0
  1  4  1  0
  1  5  1  0
  2  3  2  0
  6  7  1  0
  6 11  1  0
  6 12  1  0
  7  8  1  0
  8  9  1  0
  8 13  1  0
  8 14  1  0
  9 10  1  0
  9 15  1  0
  9 16  1  0
 10 11  1  0
 10 17  1  0
 10 18  1  0
M  RAD  1   6   2
M  END
>  <reaction>  (13) 
rmg_rxn_1482

>  <mol_properties>  (13) 
{"0": {"label": "*3", "atom_type": "N3d"}, "1": {"label": "*4", "atom_type": "N3d"}, "3": {"label": "*2", "atom_type": "H0"}, "5": {"label": "*1", "atom_type": "Cs"}, "6": {"label": "*0", "atom_type": "O2s"}}

>  <type>  (13) 
unop_9

>  <geom_source>  (13) 
Heuristics

$$$$

     RDKit          3D

 18 17  0  0  0  0  0  0  0  0999 V2000
    0.3337   -1.8008    0.8833 N   0  0  0  0  0  0  0  0  0  0  0  0
    0.3337   -3.0036    0.3385 N   0  0  0  0  0  0  0  0  0  0  0  0
    0.3337   -3.0036   -0.8660 O   0  0  0  0  0  0  0  0  0  0  0  0
    0.3337   -0.8181    0.1681 H   0  0  0  0  0  0  0  0  0  0  0  0
    0.3337   -1.7544    1.8854 H   0  0  0  0  0  0  0  0  0  0  0  0
    0.3337    0.2372   -0.6000 C   0  0  0  0  0  3  0  0  0  0  0  0
   -0.9984    0.5726   -0.8442 O   0  0  0  0  0  0  0  0  0  0  0  0
   -1.1862    1.9746   -0.8218 C   0  0  0  0  0  0  0  0  0  0  0  0
   -0.7138    2.5509    0.5053 C   0  0  0  0  0  0  0  0  0  0  0  0
    0.7074    2.0729    0.7668 C   0  0  0  0  0  0  0  0  0  0  0  0
    0.7824    0.6651    0.6497 O   0  0  0  0  0  0  0  0  0  0  0  0
    0.9730    0.6739   -1.3891 H   0  0  0  0  0  0  0  0  0  0  0  0
   -0.6273    2.4331   -1.6519 H   0  0  0  0  0  0  0  0  0  0  0  0
   -2.2481    2.1513   -0.9877 H   0  0  0  0  0  0  0  0  0  0  0  0
   -0.7515    3.6424    0.4827 H   0  0  0  0  0  0  0  0  0  0  0  0
   -1.3677    2.2009    1.3064 H   0  0  0  0  0  0  0  0  0  0  0  0
    1.0424    2.3222    1.7727 H   0  0  0  0  0  0  0  0  0  0  0  0
    1.3996    2.5384    0.0484 H   0  0  0  0  0  0  0  0  0  0  0  0
  1  2  1  0
  1  4  1  0
  1  5  1  0
  2  3  2  0
  6  7  1  0
  6 11  1  0
  6 12  1  0
  7  8  1  0
  8  9  1  0
  8 13  1  0
  8 14  1  0
  9 10  1  0
  9 15  1  0
  9 16  1  0
 10 11  1  0
 10 17  1  0
 10 18  1  0
M  RAD  1   6   2
M  END
>  <reaction>  (14) 
rmg_rxn_1482

>  <mol_properties>  (14) 
{"0": {"label": "*3", "atom_type": "N3d"}, "1": {"label": "*4", "atom_type": "N3d"}, "3": {"label": "*2", "atom_type": "H0"}, "5": {"label": "*1", "atom_type": "Cs"}, "6": {"label": "*0", "atom_type": "O2s"}}

>  <type>  (14) 
unop_10

>  <geom_source>  (14) 
Heuristics

$$$$

     RDKit          3D

 18 17  0  0  0  0  0  0  0  0999 V2000
    1.9699    0.9223   -0.0509 N   0  0  0  0  0  0  0  0  0  0  0  0
    2.4900   -0.2285    0.0089 N   0  0  0  0  0  0  0  0  0  0  0  0
    1.8383   -1.2440   -0.1906 O   0  0  0  0  0  0  0  0  0  0  0  0
    0.7656    1.1330    0.0615 H   0  0  0  0  0  0  0  0  0  0  0  0
    2.6045    1.6688    0.2139 H   0  0  0  0  0  0  0  0  0  0  0  0
   -0.5193    1.2914    0.2153 C   0  0  0  0  0  3  0  0  0  0  0  0
   -1.1176    0.9949   -0.9965 O   0  0  0  0  0  0  0  0  0  0  0  0
   -1.1613   -0.3916   -1.2905 C   0  0  0  0  0  0  0  0  0  0  0  0
   -1.8081   -1.1582   -0.1394 C   0  0  0  0  0  0  0  0  0  0  0  0
   -0.9965   -0.8349    1.1124 C   0  0  0  0  0  0  0  0  0  0  0  0
   -0.9276    0.5657    1.3194 O   0  0  0  0  0  0  0  0  0  0  0  0
   -0.6884    2.3493    0.4263 H   0  0  0  0  0  0  0  0  0  0  0  0
   -1.7287   -0.4777   -2.2179 H   0  0  0  0  0  0  0  0  0  0  0  0
   -0.1404   -0.7708   -1.4478 H   0  0  0  0  0  0  0  0  0  0  0  0
   -2.8398   -0.8264   -0.0096 H   0  0  0  0  0  0  0  0  0  0  0  0
   -1.7903   -2.2280   -0.3358 H   0  0  0  0  0  0  0  0  0  0  0  0
    0.0190   -1.2459    0.9922 H   0  0  0  0  0  0  0  0  0  0  0  0
   -1.4475   -1.2425    2.0179 H   0  0  0  0  0  0  0  0  0  0  0  0
  1  2  1  0
  1  4  1  0
  1  5  1  0
  2  3  2  0
  6  7  1  0
  6 11  1  0
  6 12  1  0
  7  8  1  0
  8  9  1  0
  8 13  1  0
  8 14  1  0
  9 10  1  0
  9 15  1  0
  9 16  1  0
 10 11  1  0
 10 17  1  0
 10 18  1  0
M  RAD  1   6   2
M  END
>  <reaction>  (15) 
rmg_rxn_1482

>  <mol_properties>  (15) 
{"0": {"label": "*3", "atom_type": "N3d"}, "1": {"label": "*4", "atom_type": "N3d"}, "3": {"label": "*2", "atom_type": "H0"}, "5": {"label": "*1", "atom_type": "Cs"}, "6": {"label": "*0", "atom_type": "O2s"}}

>  <type>  (15) 
unop_11

>  <geom_source>  (15) 
Heuristics

$$$$

     RDKit          3D

 18 17  0  0  0  0  0  0  0  0999 V2000
    0.0462   -1.6036    1.9306 N   0  0  0  0  0  0  0  0  0  0  0  0
    0.0462   -2.8065    1.3859 N   0  0  0  0  0  0  0  0  0  0  0  0
    0.0462   -2.8065    0.1814 O   0  0  0  0  0  0  0  0  0  0  0  0
    0.0462   -0.6210    1.2154 H   0  0  0  0  0  0  0  0  0  0  0  0
    0.0462   -1.5573    2.9327 H   0  0  0  0  0  0  0  0  0  0  0  0
    0.0462    0.4343    0.4473 C   0  0  0  0  0  3  0  0  0  0  0  0
    0.7122    0.0909   -0.7295 O   0  0  0  0  0  0  0  0  0  0  0  0
    1.1110    1.2427   -1.4476 C   0  0  0  0  0  0  0  0  0  0  0  0
   -0.0926    2.1268   -1.7410 C   0  0  0  0  0  0  0  0  0  0  0  0
   -0.8359    2.3875   -0.4386 C   0  0  0  0  0  0  0  0  0  0  0  0
   -1.1187    1.1675    0.2193 O   0  0  0  0  0  0  0  0  0  0  0  0
    0.7252    1.0163    1.0972 H   0  0  0  0  0  0  0  0  0  0  0  0
    1.8551    1.8022   -0.8600 H   0  0  0  0  0  0  0  0  0  0  0  0
    1.5914    0.8925   -2.3602 H   0  0  0  0  0  0  0  0  0  0  0  0
    0.2264    3.0684   -2.1937 H   0  0  0  0  0  0  0  0  0  0  0  0
   -0.7561    1.6160   -2.4416 H   0  0  0  0  0  0  0  0  0  0  0  0
   -1.7917    2.8818   -0.6070 H   0  0  0  0  0  0  0  0  0  0  0  0
   -0.2288    3.0275    0.2199 H   0  0  0  0  0  0  0  0  0  0  0  0
  1  2  1  0
  1  4  1  0
  1  5  1  0
  2  3  2  0
  6  7  1  0
  6 11  1  0
  6 12  1  0
  7  8  1  0
  8  9  1  0
  8 13  1  0
  8 14  1  0
  9 10  1  0
  9 15  1  0
  9 16  1  0
 10 11  1  0
 10 17  1  0
 10 18  1  0
M  RAD  1   6   2
M  END
>  <reaction>  (16) 
rmg_rxn_1482

>  <mol_properties>  (16) 
{"0": {"label": "*3", "atom_type": "N3d"}, "1": {"label": "*4", "atom_type": "N3d"}, "3": {"label": "*2", "atom_type": "H0"}, "5": {"label": "*1", "atom_type": "Cs"}, "6": {"label": "*0", "atom_type": "O2s"}}

>  <type>  (16) 
unop_12

>  <geom_source>  (16) 
Heuristics

$$$$

     RDKit          3D

 18 17  0  0  0  0  0  0  0  0999 V2000
    0.6062   -1.6995    1.1589 N   0  0  0  0  0  0  0  0  0  0  0  0
    0.6062   -2.9023    0.6142 N   0  0  0  0  0  0  0  0  0  0  0  0
    0.6062   -2.9023   -0.5903 O   0  0  0  0  0  0  0  0  0  0  0  0
    0.6062   -0.7168    0.4437 H   0  0  0  0  0  0  0  0  0  0  0  0
    0.6062   -1.6531    2.1610 H   0  0  0  0  0  0  0  0  0  0  0  0
    0.6062    0.3385   -0.3244 C   0  0  0  0  0  3  0  0  0  0  0  0
   -0.5474    0.2819   -1.1070 O   0  0  0  0  0  0  0  0  0  0  0  0
   -1.0434    1.5778   -1.3832 C   0  0  0  0  0  0  0  0  0  0  0  0
   -1.3007    2.3334   -0.0873 C   0  0  0  0  0  0  0  0  0  0  0  0
   -0.0429    2.2784    0.7679 C   0  0  0  0  0  0  0  0  0  0  0  0
    0.3935    0.9408    0.9159 O   0  0  0  0  0  0  0  0  0  0  0  0
    1.3937    0.8898   -0.8703 H   0  0  0  0  0  0  0  0  0  0  0  0
   -0.3150    2.1257   -2.0005 H   0  0  0  0  0  0  0  0  0  0  0  0
   -1.9539    1.4472   -1.9663 H   0  0  0  0  0  0  0  0  0  0  0  0
   -1.5746    3.3698   -0.2974 H   0  0  0  0  0  0  0  0  0  0  0  0
   -2.1259    1.8620    0.4501 H   0  0  0  0  0  0  0  0  0  0  0  0
   -0.2154    2.6647    1.7715 H   0  0  0  0  0  0  0  0  0  0  0  0
    0.7559    2.8757    0.3020 H   0  0  0  0  0  0  0  0  0  0  0  0
  1  2  1  0
  1  4  1  0
  1  5  1  0
  2  3  2  0
  6  7  1  0
  6 11  1  0
  6 12  1  0
  7  8  1  0
  8  9  1  0
  8 13  1  0
  8 14  1  0
  9 10  1  0
  9 15  1  0
  9 16  1  0
 10 11  1  0
 10 17  1  0
 10 18  1  0
M  RAD  1   6   2
M  END
>  <reaction>  (17) 
rmg_rxn_1482

>  <mol_properties>  (17) 
{"0": {"label": "*3", "atom_type": "N3d"}, "1": {"label": "*4", "atom_type": "N3d"}, "3": {"label": "*2", "atom_type": "H0"}, "5": {"label": "*1", "atom_type": "Cs"}, "6": {"label": "*0", "atom_type": "O2s"}}

>  <type>  (17) 
unop_13

>  <geom_source>  (17) 
Heuristics

$$$$

     RDKit          3D

 18 17  0  0  0  0  0  0  0  0999 V2000
   -0.1389   -1.8413    1.6300 N   0  0  0  0  0  0  0  0  0  0  0  0
   -0.1389   -3.0441    1.0852 N   0  0  0  0  0  0  0  0  0  0  0  0
   -0.1389   -3.0441   -0.1193 O   0  0  0  0  0  0  0  0  0  0  0  0
   -0.1389   -0.8587    0.9148 H   0  0  0  0  0  0  0  0  0  0  0  0
   -0.1389   -1.7949    2.6321 H   0  0  0  0  0  0  0  0  0  0  0  0
   -0.1389    0.1967    0.1467 C   0  0  0  0  0  3  0  0  0  0  0  0
    0.5271    1.2109    0.8352 O   0  0  0  0  0  0  0  0  0  0  0  0
    0.0979    2.4889    0.4063 C   0  0  0  0  0  0  0  0  0  0  0  0
    0.2887    2.6347   -1.0967 C   0  0  0  0  0  0  0  0  0  0  0  0
   -0.3720    1.4515   -1.7896 C   0  0  0  0  0  0  0  0  0  0  0  0
    0.0852    0.2353   -1.2298 O   0  0  0  0  0  0  0  0  0  0  0  0
   -1.2241    0.2699    0.3443 H   0  0  0  0  0  0  0  0  0  0  0  0
   -0.9629    2.6262    0.6665 H   0  0  0  0  0  0  0  0  0  0  0  0
    0.6825    3.2194    0.9639 H   0  0  0  0  0  0  0  0  0  0  0  0
   -0.1454    3.5737   -1.4474 H   0  0  0  0  0  0  0  0  0  0  0  0
    1.3556    2.6415   -1.3282 H   0  0  0  0  0  0  0  0  0  0  0  0
   -0.1341    1.4167   -2.8518 H   0  0  0  0  0  0  0  0  0  0  0  0
   -1.4659    1.5158   -1.6839 H   0  0  0  0  0  0  0  0  0  0  0  0
  1  2  1  0
  1  4  1  0
  1  5  1  0
  2  3  2  0
  6  7  1  0
  6 11  1  0
  6 12  1  0
  7  8  1  0
  8  9  1  0
  8 13  1  0
  8 14  1  0
  9 10  1  0
  9 15  1  0
  9 16  1  0
 10 11  1  0
 10 17  1  0
 10 18  1  0
M  RAD  1   6   2
M  END
>  <reaction>  (18) 
rmg_rxn_1482

>  <mol_properties>  (18) 
{"0": {"label": "*3", "atom_type": "N3d"}, "1": {"label": "*4", "atom_type": "N3d"}, "3": {"label": "*2", "atom_type": "H0"}, "5": {"label": "*1", "atom_type": "Cs"}, "6": {"label": "*0", "atom_type": "O2s"}}

>  <type>  (18) 
unop_14

>  <geom_source>  (18) 
Heuristics

$$$$

     RDKit          3D

 18 17  0  0  0  0  0  0  0  0999 V2000
    0.3907   -1.5518    1.8563 N   0  0  0  0  0  0  0  0  0  0  0  0
    0.3907   -2.7546    1.3115 N   0  0  0  0  0  0  0  0  0  0  0  0
    0.3907   -2.7546    0.1070 O   0  0  0  0  0  0  0  0  0  0  0  0
    0.3907   -0.5691    1.1411 H   0  0  0  0  0  0  0  0  0  0  0  0
    0.3907   -1.5054    2.8584 H   0  0  0  0  0  0  0  0  0  0  0  0
    0.3907    0.4862    0.3729 C   0  0  0  0  0  3  0  0  0  0  0  0
    0.3907    0.0377   -0.9482 O   0  0  0  0  0  0  0  0  0  0  0  0
    0.3676    1.1214   -1.8573 C   0  0  0  0  0  0  0  0  0  0  0  0
   -0.8341    2.0151   -1.5854 C   0  0  0  0  0  0  0  0  0  0  0  0
   -0.8380    2.3925   -0.1109 C   0  0  0  0  0  0  0  0  0  0  0  0
   -0.7431    1.2331    0.6942 O   0  0  0  0  0  0  0  0  0  0  0  0
    1.2953    1.0953    0.5540 H   0  0  0  0  0  0  0  0  0  0  0  0
    1.2981    1.7016   -1.7605 H   0  0  0  0  0  0  0  0  0  0  0  0
    0.3372    0.6911   -2.8573 H   0  0  0  0  0  0  0  0  0  0  0  0
   -0.7926    2.9110   -2.2088 H   0  0  0  0  0  0  0  0  0  0  0  0
   -1.7511    1.4727   -1.8237 H   0  0  0  0  0  0  0  0  0  0  0  0
   -1.7577    2.8999    0.1773 H   0  0  0  0  0  0  0  0  0  0  0  0
    0.0077    3.0622    0.1088 H   0  0  0  0  0  0  0  0  0  0  0  0
  1  2  1  0
  1  4  1  0
  1  5  1  0
  2  3  2  0
  6  7  1  0
  6 11  1  0
  6 12  1  0
  7  8  1  0
  8  9  1  0
  8 13  1  0
  8 14  1  0
  9 10  1  0
  9 15  1  0
  9 16  1  0
 10 11  1  0
 10 17  1  0
 10 18  1  0
M  RAD  1   6   2
M  END
>  <reaction>  (19) 
rmg_rxn_1482

>  <mol_properties>  (19) 
{"0": {"label": "*3", "atom_type": "N3d"}, "1": {"label": "*4", "atom_type": "N3d"}, "3": {"label": "*2", "atom_type": "H0"}, "5": {"label": "*1", "atom_type": "Cs"}, "6": {"label": "*0", "atom_type": "O2s"}}

>  <type>  (19) 
unop_15

>  <geom_source>  (19) 
Heuristics

$$$$

     RDKit          3D

 18 17  0  0  0  0  0  0  0  0999 V2000
    0.6326   -1.5941    1.5437 N   0  0  0  0  0  0  0  0  0  0  0  0
    0.6326   -2.7969    0.9989 N   0  0  0  0  0  0  0  0  0  0  0  0
    0.6326   -2.7969   -0.2056 O   0  0  0  0  0  0  0  0  0  0  0  0
    0.6326   -0.6115    0.8285 H   0  0  0  0  0  0  0  0  0  0  0  0
    0.6326   -1.5478    2.5458 H   0  0  0  0  0  0  0  0  0  0  0  0
    0.6326    0.4438    0.0604 C   0  0  0  0  0  3  0  0  0  0  0  0
   -0.0334    0.1004   -1.1164 O   0  0  0  0  0  0  0  0  0  0  0  0
   -0.4724    1.2517   -1.8116 C   0  0  0  0  0  0  0  0  0  0  0  0
   -1.3566    2.1065   -0.9149 C   0  0  0  0  0  0  0  0  0  0  0  0
   -0.6201    2.3671    0.3913 C   0  0  0  0  0  0  0  0  0  0  0  0
   -0.1723    1.1494    0.9552 O   0  0  0  0  0  0  0  0  0  0  0  0
    1.5252    1.0478   -0.1857 H   0  0  0  0  0  0  0  0  0  0  0  0
    0.4002    1.8337   -2.1456 H   0  0  0  0  0  0  0  0  0  0  0  0
   -1.0055    0.9007   -2.6941 H   0  0  0  0  0  0  0  0  0  0  0  0
   -1.6035    3.0491   -1.4087 H   0  0  0  0  0  0  0  0  0  0  0  0
   -2.2864    1.5734   -0.7073 H   0  0  0  0  0  0  0  0  0  0  0  0
   -1.2621    2.8390    1.1338 H   0  0  0  0  0  0  0  0  0  0  0  0
    0.2421    3.0277    0.2124 H   0  0  0  0  0  0  0  0  0  0  0  0
  1  2  1  0
  1  4  1  0
  1  5  1  0
  2  3  2  0
  6  7  1  0
  6 11  1  0
  6 12  1  0
  7  8  1  0
  8  9  1  0
  8 13  1  0
  8 14  1  0
  9 10  1  0
  9 15  1  0
  9 16  1  0
 10 11  1  0
 10 17  1  0
 10 18  1  0
M  RAD  1   6   2
M  END
>  <reaction>  (20) 
rmg_rxn_1482

>  <mol_properties>  (20) 
{"0": {"label": "*3", "atom_type": "N3d"}, "1": {"label": "*4", "atom_type": "N3d"}, "3": {"label": "*2", "atom_type": "H0"}, "5": {"label": "*1", "atom_type": "Cs"}, "6": {"label": "*0", "atom_type": "O2s"}}

>  <type>  (20) 
unop_16

>  <geom_source>  (20) 
gaussian_log

$$$$
