
     RDKit          3D

 14 14  0  0  0  0  0  0  0  0999 V2000
   -1.1778    0.2241    0.1818 C   0  0  0  0  0  0  0  0  0  0  0  0
   -0.5633   -1.1636    0.0678 C   0  0  0  0  0  0  0  0  0  0  0  0
    0.6943   -1.1996    0.7146 O   0  0  0  0  0  0  0  0  0  0  0  0
    1.5547   -0.2288    0.2011 C   0  0  0  0  0  0  0  0  0  0  0  0
    1.0729    1.0696    0.3698 O   0  0  0  0  0  0  0  0  0  0  0  0
   -0.1607    1.2493   -0.2989 C   0  0  0  0  0  0  0  0  0  0  0  0
   -2.0927    0.2866   -0.4117 H   0  0  0  0  0  0  0  0  0  0  0  0
   -1.4303    0.4248    1.2248 H   0  0  0  0  0  0  0  0  0  0  0  0
   -1.1822   -1.9235    0.5431 H   0  0  0  0  0  0  0  0  0  0  0  0
   -0.4389   -1.4347   -0.9919 H   0  0  0  0  0  0  0  0  0  0  0  0
    1.7250   -0.4207   -0.8742 H   0  0  0  0  0  0  0  0  0  0  0  0
    2.4896   -0.3010    0.7524 H   0  0  0  0  0  0  0  0  0  0  0  0
   -0.0080    1.1481   -1.3844 H   0  0  0  0  0  0  0  0  0  0  0  0
   -0.4826    2.2695   -0.0942 H   0  0  0  0  0  0  0  0  0  0  0  0
  1  2  1  0
  1  6  1  0
  1  7  1  0
  1  8  1  0
  2  3  1  0
  2  9  1  0
  2 10  1  0
  3  4  1  0
  4  5  1  0
  4 11  1  0
  4 12  1  0
  5  6  1  0
  6 13  1  0
  6 14  1  0
M  END
>  <reaction>  (1) 
rmg_rxn_36

>  <mol_properties>  (1) 
{"3": {"label": "donator", "atom_type": "Cs"}, "10": {"label": "d_hydrogen", "atom_type": "H0"}}

>  <type>  (1) 
r1h

$$$$

     RDKit          3D

  9  8  0  0  0  0  0  0  0  0999 V2000
    1.3246   -0.8124   -0.0809 C   0  0  0  0  0  2  0  0  0  0  0  0
    0.4082    0.3080    0.1518 C   0  0  0  0  0  0  0  0  0  0  0  0
   -1.0545   -0.0277   -0.1520 C   0  0  0  0  0  0  0  0  0  0  0  0
    2.3933   -0.9471    0.0203 H   0  0  0  0  0  0  0  0  0  0  0  0
    0.4898    0.6406    1.1970 H   0  0  0  0  0  0  0  0  0  0  0  0
    0.7134    1.1680   -0.4624 H   0  0  0  0  0  0  0  0  0  0  0  0
   -1.4014   -0.8515    0.4727 H   0  0  0  0  0  0  0  0  0  0  0  0
   -1.1767   -0.3214   -1.1952 H   0  0  0  0  0  0  0  0  0  0  0  0
   -1.6915    0.8372    0.0370 H   0  0  0  0  0  0  0  0  0  0  0  0
  1  2  1  0
  1  4  1  0
  2  3  1  0
  2  5  1  0
  2  6  1  0
  3  7  1  0
  3  8  1  0
  3  9  1  0
M  RAD  1   1   3
M  END
>  <reaction>  (2) 
rmg_rxn_36

>  <mol_properties>  (2) 
{"0": {"label": "acceptor", "atom_type": "Cs"}}

>  <type>  (2) 
r2

$$$$

     RDKit          3D

 10  9  0  0  0  0  0  0  0  0999 V2000
    1.4352    0.2660   -0.1351 C   0  0  0  0  0  3  0  0  0  0  0  0
    0.2236   -0.3243    0.4850 C   0  0  0  0  0  0  0  0  0  0  0  0
   -0.8893    0.6872    0.7364 C   0  0  0  0  0  0  0  0  0  0  0  0
    2.3577   -0.2958   -0.1940 H   0  0  0  0  0  0  0  0  0  0  0  0
    1.3935    1.2286   -0.6287 H   0  0  0  0  0  0  0  0  0  0  0  0
   -0.1633   -1.1318   -0.1556 H   0  0  0  0  0  0  0  0  0  0  0  0
    0.4945   -0.8215    1.4240 H   0  0  0  0  0  0  0  0  0  0  0  0
   -1.1991    1.1627   -0.1967 H   0  0  0  0  0  0  0  0  0  0  0  0
   -1.7660    0.2103    1.1768 H   0  0  0  0  0  0  0  0  0  0  0  0
   -0.5545    1.4732    1.4159 H   0  0  0  0  0  0  0  0  0  0  0  0
  1  2  1  0
  1  4  1  0
  1  5  1  0
  2  3  1  0
  2  6  1  0
  2  7  1  0
  3  8  1  0
  3  9  1  0
  3 10  1  0
M  RAD  1   1   2
M  END
>  <reaction>  (3) 
rmg_rxn_36

>  <mol_properties>  (3) 
{"0": {"label": "acceptor", "atom_type": "Cs"}, "9": {"label": "a_hydrogen", "atom_type": "H0"}}

>  <type>  (3) 
r2h

$$$$

     RDKit          3D

 23 22  0  0  0  0  0  0  0  0999 V2000
    1.4167    0.4870    1.5308 C   0  0  0  0  0  2  0  0  0  0  0  0
    2.6313    1.1704    1.0363 C   0  0  0  0  0  0  0  0  0  0  0  0
    2.3587    2.1893   -0.0697 C   0  0  0  0  0  0  0  0  0  0  0  0
    1.3658   -0.0956    2.4452 H   0  0  0  0  0  0  0  0  0  0  0  0
    3.1397    1.6682    1.8733 H   0  0  0  0  0  0  0  0  0  0  0  0
    3.3505    0.4239    0.6657 H   0  0  0  0  0  0  0  0  0  0  0  0
    1.6997    2.9818    0.2894 H   0  0  0  0  0  0  0  0  0  0  0  0
    1.8704    1.7200   -0.9249 H   0  0  0  0  0  0  0  0  0  0  0  0
    3.2865    2.6489   -0.4131 H   0  0  0  0  0  0  0  0  0  0  0  0
   -0.8559   -1.8276   -1.1148 C   0  0  0  0  0  0  0  0  0  0  0  0
   -1.2136   -1.6305    0.3497 C   0  0  0  0  0  0  0  0  0  0  0  0
   -1.7365   -0.3278    0.5591 O   0  0  0  0  0  0  0  0  0  0  0  0
   -0.8907    0.6616    0.1002 C   0  0  0  0  0  0  0  0  0  0  0  0
   -0.5530    0.5622   -1.2362 O   0  0  0  0  0  0  0  0  0  0  0  0
    0.0464   -0.6848   -1.5515 C   0  0  0  0  0  0  0  0  0  0  0  0
   -0.3507   -2.7854   -1.2561 H   0  0  0  0  0  0  0  0  0  0  0  0
   -1.7657   -1.8269   -1.7185 H   0  0  0  0  0  0  0  0  0  0  0  0
   -1.9832   -2.3264    0.6796 H   0  0  0  0  0  0  0  0  0  0  0  0
   -0.3238   -1.7676    0.9779 H   0  0  0  0  0  0  0  0  0  0  0  0
    0.1822    0.6088    0.7845 H   0  0  0  0  0  0  0  0  0  0  0  0
   -1.3525    1.6306    0.2750 H   0  0  0  0  0  0  0  0  0  0  0  0
    1.0190   -0.7549   -1.0455 H   0  0  0  0  0  0  0  0  0  0  0  0
    0.2128   -0.6825   -2.6275 H   0  0  0  0  0  0  0  0  0  0  0  0
  1  2  1  0
  1  4  1  0
  2  3  1  0
  2  5  1  0
  2  6  1  0
  3  7  1  0
  3  8  1  0
  3  9  1  0
 10 11  1  0
 10 15  1  0
 10 16  1  0
 10 17  1  0
 11 12  1  0
 11 18  1  0
 11 19  1  0
 12 13  1  0
 13 14  1  0
 13 20  1  0
 13 21  1  0
 14 15  1  0
 15 22  1  0
 15 23  1  0
M  RAD  1   1   3
M  END
>  <reaction>  (4) 
rmg_rxn_36

>  <mol_properties>  (4) 
{"0": {"label": "*3", "atom_type": "Cs"}, "1": {"label": "*4", "atom_type": "Cs"}, "11": {"label": "*0", "atom_type": "O2s"}, "12": {"label": "*1", "atom_type": "Cs"}, "19": {"label": "*2", "atom_type": "H0"}}

>  <type>  (4) 
ts

$$$$

     RDKit          3D

 23 22  0  0  0  0  0  0  0  0999 V2000
    0.9625    1.1264    1.2129 C   0  0  0  0  0  3  0  0  0  0  0  0
    1.9604    1.5905    0.2181 C   0  0  0  0  0  0  0  0  0  0  0  0
    2.3347    3.0610    0.3677 C   0  0  0  0  0  0  0  0  0  0  0  0
    0.7763    1.6910    2.1176 H   0  0  0  0  0  0  0  0  0  0  0  0
    2.8721    0.9784    0.2959 H   0  0  0  0  0  0  0  0  0  0  0  0
    1.5863    1.4024   -0.7953 H   0  0  0  0  0  0  0  0  0  0  0  0
    2.7476    3.2570    1.3596 H   0  0  0  0  0  0  0  0  0  0  0  0
    1.4594    3.7004    0.2386 H   0  0  0  0  0  0  0  0  0  0  0  0
    3.0813    3.3569   -0.3706 H   0  0  0  0  0  0  0  0  0  0  0  0
   -0.3483   -2.0591   -1.0716 C   0  0  0  0  0  0  0  0  0  0  0  0
   -0.3483   -2.0591    0.4504 C   0  0  0  0  0  0  0  0  0  0  0  0
   -1.3966   -1.2465    0.9425 O   0  0  0  0  0  0  0  0  0  0  0  0
   -1.3057    0.0531    0.4432 C   0  0  0  0  0  3  0  0  0  0  0  0
   -1.3966    0.1093   -0.9479 O   0  0  0  0  0  0  0  0  0  0  0  0
   -0.3483   -0.6175   -1.5597 C   0  0  0  0  0  0  0  0  0  0  0  0
    0.5257   -2.5916   -1.4535 H   0  0  0  0  0  0  0  0  0  0  0  0
   -1.2449   -2.5653   -1.4347 H   0  0  0  0  0  0  0  0  0  0  0  0
   -0.5072   -3.0566    0.8577 H   0  0  0  0  0  0  0  0  0  0  0  0
    0.6153   -1.6831    0.8271 H   0  0  0  0  0  0  0  0  0  0  0  0
   -0.1592    0.5955    0.8322 H   0  0  0  0  0  0  0  0  0  0  0  0
   -2.1467    0.6136    0.8452 H   0  0  0  0  0  0  0  0  0  0  0  0
    0.6153   -0.1401   -1.3245 H   0  0  0  0  0  0  0  0  0  0  0  0
   -0.5072   -0.5515   -2.6352 H   0  0  0  0  0  0  0  0  0  0  0  0
  1  2  1  0
  1  4  1  0
  1 20  1  0
  2  3  1  0
  2  5  1  0
  2  6  1  0
  3  7  1  0
  3  8  1  0
  3  9  1  0
 10 11  1  0
 10 15  1  0
 10 16  1  0
 10 17  1  0
 11 12  1  0
 11 18  1  0
 11 19  1  0
 12 13  1  0
 13 14  1  0
 13 21  1  0
 14 15  1  0
 15 22  1  0
 15 23  1  0
M  RAD  2   1   2  13   2
M  END
>  <reaction>  (5) 
rmg_rxn_36

>  <mol_properties>  (5) 
{"0": {"label": "*3", "atom_type": "Cs"}, "1": {"label": "*4", "atom_type": "Cs"}, "11": {"label": "*0", "atom_type": "O2s"}, "12": {"label": "*1", "atom_type": "Cs"}, "19": {"label": "*2", "atom_type": "H0"}}

>  <type>  (5) 
unop_1

>  <geom_source>  (5) 
Heuristics

$$$$

     RDKit          3D

 23 22  0  0  0  0  0  0  0  0999 V2000
    0.8058    1.5077    0.9860 C   0  0  0  0  0  3  0  0  0  0  0  0
    2.0058    0.6663    1.2160 C   0  0  0  0  0  0  0  0  0  0  0  0
    3.3210    1.3933    0.9578 C   0  0  0  0  0  0  0  0  0  0  0  0
    0.8831    2.5869    0.9486 H   0  0  0  0  0  0  0  0  0  0  0  0
    2.0006    0.2902    2.2506 H   0  0  0  0  0  0  0  0  0  0  0  0
    1.9496   -0.2347    0.5935 H   0  0  0  0  0  0  0  0  0  0  0  0
    3.4108    2.2720    1.6002 H   0  0  0  0  0  0  0  0  0  0  0  0
    3.3824    1.7303   -0.0786 H   0  0  0  0  0  0  0  0  0  0  0  0
    4.1767    0.7458    1.1540 H   0  0  0  0  0  0  0  0  0  0  0  0
   -0.5050   -1.6778   -1.2986 C   0  0  0  0  0  0  0  0  0  0  0  0
   -0.5050   -1.6778    0.2234 C   0  0  0  0  0  0  0  0  0  0  0  0
   -1.5533   -0.8652    0.7155 O   0  0  0  0  0  0  0  0  0  0  0  0
   -1.4624    0.4344    0.2162 C   0  0  0  0  0  3  0  0  0  0  0  0
   -1.5533    0.4906   -1.1748 O   0  0  0  0  0  0  0  0  0  0  0  0
   -0.5050   -0.2361   -1.7867 C   0  0  0  0  0  0  0  0  0  0  0  0
    0.3690   -2.2102   -1.6805 H   0  0  0  0  0  0  0  0  0  0  0  0
   -1.4016   -2.1839   -1.6616 H   0  0  0  0  0  0  0  0  0  0  0  0
   -0.6640   -2.6753    0.6308 H   0  0  0  0  0  0  0  0  0  0  0  0
    0.4586   -1.3018    0.6002 H   0  0  0  0  0  0  0  0  0  0  0  0
   -0.3160    0.9769    0.6053 H   0  0  0  0  0  0  0  0  0  0  0  0
   -2.3035    0.9949    0.6182 H   0  0  0  0  0  0  0  0  0  0  0  0
    0.4586    0.2413   -1.5514 H   0  0  0  0  0  0  0  0  0  0  0  0
   -0.6640   -0.1702   -2.8622 H   0  0  0  0  0  0  0  0  0  0  0  0
  1  2  1  0
  1  4  1  0
  1 20  1  0
  2  3  1  0
  2  5  1  0
  2  6  1  0
  3  7  1  0
  3  8  1  0
  3  9  1  0
 10 11  1  0
 10 15  1  0
 10 16  1  0
 10 17  1  0
 11 12  1  0
 11 18  1  0
 11 19  1  0
 12 13  1  0
 13 14  1  0
 13 21  1  0
 14 15  1  0
 15 22  1  0
 15 23  1  0
M  RAD  2   1   2  13   2
M  END
>  <reaction>  (6) 
rmg_rxn_36

>  <mol_properties>  (6) 
{"0": {"label": "*3", "atom_type": "Cs"}, "1": {"label": "*4", "atom_type": "Cs"}, "11": {"label": "*0", "atom_type": "O2s"}, "12": {"label": "*1", "atom_type": "Cs"}, "19": {"label": "*2", "atom_type": "H0"}}

>  <type>  (6) 
unop_2

>  <geom_source>  (6) 
Heuristics

$$$$

     RDKit          3D

 23 22  0  0  0  0  0  0  0  0999 V2000
    1.0260    1.0301    1.1025 C   0  0  0  0  0  3  0  0  0  0  0  0
    1.7068    2.0499    0.2673 C   0  0  0  0  0  0  0  0  0  0  0  0
    2.1428    3.2861    1.0461 C   0  0  0  0  0  0  0  0  0  0  0  0
    1.1209    1.0421    2.1808 H   0  0  0  0  0  0  0  0  0  0  0  0
    2.5877    1.6021   -0.2178 H   0  0  0  0  0  0  0  0  0  0  0  0
    1.0530    2.3436   -0.5625 H   0  0  0  0  0  0  0  0  0  0  0  0
    2.8277    3.0148    1.8524 H   0  0  0  0  0  0  0  0  0  0  0  0
    1.2827    3.7874    1.4938 H   0  0  0  0  0  0  0  0  0  0  0  0
    2.6528    4.0020    0.3998 H   0  0  0  0  0  0  0  0  0  0  0  0
   -0.2848   -2.1554   -1.1821 C   0  0  0  0  0  0  0  0  0  0  0  0
   -0.2848   -2.1554    0.3399 C   0  0  0  0  0  0  0  0  0  0  0  0
   -1.3331   -1.3427    0.8321 O   0  0  0  0  0  0  0  0  0  0  0  0
   -1.2422   -0.0432    0.3327 C   0  0  0  0  0  3  0  0  0  0  0  0
   -1.3331    0.0130   -1.0583 O   0  0  0  0  0  0  0  0  0  0  0  0
   -0.2848   -0.7137   -1.6702 C   0  0  0  0  0  0  0  0  0  0  0  0
    0.5892   -2.6878   -1.5640 H   0  0  0  0  0  0  0  0  0  0  0  0
   -1.1814   -2.6615   -1.5451 H   0  0  0  0  0  0  0  0  0  0  0  0
   -0.4437   -3.1529    0.7473 H   0  0  0  0  0  0  0  0  0  0  0  0
    0.6788   -1.7794    0.7167 H   0  0  0  0  0  0  0  0  0  0  0  0
   -0.0958    0.4993    0.7218 H   0  0  0  0  0  0  0  0  0  0  0  0
   -2.0832    0.5173    0.7347 H   0  0  0  0  0  0  0  0  0  0  0  0
    0.6788   -0.2363   -1.4349 H   0  0  0  0  0  0  0  0  0  0  0  0
   -0.4437   -0.6478   -2.7457 H   0  0  0  0  0  0  0  0  0  0  0  0
  1  2  1  0
  1  4  1  0
  1 20  1  0
  2  3  1  0
  2  5  1  0
  2  6  1  0
  3  7  1  0
  3  8  1  0
  3  9  1  0
 10 11  1  0
 10 15  1  0
 10 16  1  0
 10 17  1  0
 11 12  1  0
 11 18  1  0
 11 19  1  0
 12 13  1  0
 13 14  1  0
 13 21  1  0
 14 15  1  0
 15 22  1  0
 15 23  1  0
M  RAD  2   1   2  13   2
M  END
>  <reaction>  (7) 
rmg_rxn_36

>  <mol_properties>  (7) 
{"0": {"label": "*3", "atom_type": "Cs"}, "1": {"label": "*4", "atom_type": "Cs"}, "11": {"label": "*0", "atom_type": "O2s"}, "12": {"label": "*1", "atom_type": "Cs"}, "19": {"label": "*2", "atom_type": "H0"}}

>  <type>  (7) 
unop_3

>  <geom_source>  (7) 
Heuristics

$$$$

     RDKit          3D

 23 22  0  0  0  0  0  0  0  0999 V2000
    1.0355    1.2435    0.6514 C   0  0  0  0  0  3  0  0  0  0  0  0
    1.3518    1.4012    2.0922 C   0  0  0  0  0  0  0  0  0  0  0  0
    2.4213    2.4514    2.3720 C   0  0  0  0  0  0  0  0  0  0  0  0
    1.3098    2.0080   -0.0643 H   0  0  0  0  0  0  0  0  0  0  0  0
    0.4368    1.6647    2.6447 H   0  0  0  0  0  0  0  0  0  0  0  0
    1.6594    0.4354    2.5104 H   0  0  0  0  0  0  0  0  0  0  0  0
    2.1119    3.4293    1.9971 H   0  0  0  0  0  0  0  0  0  0  0  0
    3.3615    2.1891    1.8833 H   0  0  0  0  0  0  0  0  0  0  0  0
    2.6118    2.5475    3.4419 H   0  0  0  0  0  0  0  0  0  0  0  0
   -0.2753   -1.9420   -1.6332 C   0  0  0  0  0  0  0  0  0  0  0  0
   -0.2753   -1.9420   -0.1112 C   0  0  0  0  0  0  0  0  0  0  0  0
   -1.3236   -1.1294    0.3810 O   0  0  0  0  0  0  0  0  0  0  0  0
   -1.2327    0.1702   -0.1184 C   0  0  0  0  0  3  0  0  0  0  0  0
   -1.3236    0.2264   -1.5094 O   0  0  0  0  0  0  0  0  0  0  0  0
   -0.2753   -0.5004   -2.1213 C   0  0  0  0  0  0  0  0  0  0  0  0
    0.5987   -2.4745   -2.0151 H   0  0  0  0  0  0  0  0  0  0  0  0
   -1.1719   -2.4482   -1.9962 H   0  0  0  0  0  0  0  0  0  0  0  0
   -0.4342   -2.9395    0.2962 H   0  0  0  0  0  0  0  0  0  0  0  0
    0.6883   -1.5660    0.2656 H   0  0  0  0  0  0  0  0  0  0  0  0
   -0.0862    0.7126    0.2707 H   0  0  0  0  0  0  0  0  0  0  0  0
   -2.0737    0.7307    0.2836 H   0  0  0  0  0  0  0  0  0  0  0  0
    0.6883   -0.0230   -1.8860 H   0  0  0  0  0  0  0  0  0  0  0  0
   -0.4342   -0.4344   -3.1968 H   0  0  0  0  0  0  0  0  0  0  0  0
  1  2  1  0
  1  4  1  0
  1 20  1  0
  2  3  1  0
  2  5  1  0
  2  6  1  0
  3  7  1  0
  3  8  1  0
  3  9  1  0
 10 11  1  0
 10 15  1  0
 10 16  1  0
 10 17  1  0
 11 12  1  0
 11 18  1  0
 11 19  1  0
 12 13  1  0
 13 14  1  0
 13 21  1  0
 14 15  1  0
 15 22  1  0
 15 23  1  0
M  RAD  2   1   2  13   2
M  END
>  <reaction>  (8) 
rmg_rxn_36

>  <mol_properties>  (8) 
{"0": {"label": "*3", "atom_type": "Cs"}, "1": {"label": "*4", "atom_type": "Cs"}, "11": {"label": "*0", "atom_type": "O2s"}, "12": {"label": "*1", "atom_type": "Cs"}, "19": {"label": "*2", "atom_type": "H0"}}

>  <type>  (8) 
unop_4

>  <geom_source>  (8) 
Heuristics

$$$$

     RDKit          3D

 23 22  0  0  0  0  0  0  0  0999 V2000
    1.0073    1.0293    1.0080 C   0  0  0  0  0  3  0  0  0  0  0  0
    1.3646    2.4148    0.6160 C   0  0  0  0  0  0  0  0  0  0  0  0
    2.5668    2.9727    1.3699 C   0  0  0  0  0  0  0  0  0  0  0  0
    1.7153    0.4005    1.5328 H   0  0  0  0  0  0  0  0  0  0  0  0
    1.5700    2.4517   -0.4649 H   0  0  0  0  0  0  0  0  0  0  0  0
    0.4988    3.0728    0.7560 H   0  0  0  0  0  0  0  0  0  0  0  0
    3.4492    2.3500    1.2077 H   0  0  0  0  0  0  0  0  0  0  0  0
    2.3730    3.0030    2.4437 H   0  0  0  0  0  0  0  0  0  0  0  0
    2.8058    3.9850    1.0409 H   0  0  0  0  0  0  0  0  0  0  0  0
   -0.3035   -2.1562   -1.2765 C   0  0  0  0  0  0  0  0  0  0  0  0
   -0.3035   -2.1562    0.2455 C   0  0  0  0  0  0  0  0  0  0  0  0
   -1.3518   -1.3436    0.7376 O   0  0  0  0  0  0  0  0  0  0  0  0
   -1.2609   -0.0440    0.2383 C   0  0  0  0  0  3  0  0  0  0  0  0
   -1.3518    0.0122   -1.1528 O   0  0  0  0  0  0  0  0  0  0  0  0
   -0.3035   -0.7146   -1.7647 C   0  0  0  0  0  0  0  0  0  0  0  0
    0.5705   -2.6887   -1.6584 H   0  0  0  0  0  0  0  0  0  0  0  0
   -1.2001   -2.6624   -1.6396 H   0  0  0  0  0  0  0  0  0  0  0  0
   -0.4625   -3.1537    0.6528 H   0  0  0  0  0  0  0  0  0  0  0  0
    0.6601   -1.7802    0.6222 H   0  0  0  0  0  0  0  0  0  0  0  0
   -0.1145    0.4984    0.6273 H   0  0  0  0  0  0  0  0  0  0  0  0
   -2.1020    0.5165    0.6403 H   0  0  0  0  0  0  0  0  0  0  0  0
    0.6601   -0.2372   -1.5294 H   0  0  0  0  0  0  0  0  0  0  0  0
   -0.4625   -0.6486   -2.8401 H   0  0  0  0  0  0  0  0  0  0  0  0
  1  2  1  0
  1  4  1  0
  1 20  1  0
  2  3  1  0
  2  5  1  0
  2  6  1  0
  3  7  1  0
  3  8  1  0
  3  9  1  0
 10 11  1  0
 10 15  1  0
 10 16  1  0
 10 17  1  0
 11 12  1  0
 11 18  1  0
 11 19  1  0
 12 13  1  0
 13 14  1  0
 13 21  1  0
 14 15  1  0
 15 22  1  0
 15 23  1  0
M  RAD  2   1   2  13   2
M  END
>  <reaction>  (9) 
rmg_rxn_36

>  <mol_properties>  (9) 
{"0": {"label": "*3", "atom_type": "Cs"}, "1": {"label": "*4", "atom_type": "Cs"}, "11": {"label": "*0", "atom_type": "O2s"}, "12": {"label": "*1", "atom_type": "Cs"}, "19": {"label": "*2", "atom_type": "H0"}}

>  <type>  (9) 
unop_5

>  <geom_source>  (9) 
Heuristics

$$$$

     RDKit          3D

 23 22  0  0  0  0  0  0  0  0999 V2000
    1.0895    1.1020    0.7259 C   0  0  0  0  0  3  0  0  0  0  0  0
    1.1800    1.8564    2.0001 C   0  0  0  0  0  0  0  0  0  0  0  0
    2.2219    2.9696    1.9790 C   0  0  0  0  0  0  0  0  0  0  0  0
    1.4945    1.5104   -0.1912 H   0  0  0  0  0  0  0  0  0  0  0  0
    0.1975    2.2890    2.2440 H   0  0  0  0  0  0  0  0  0  0  0  0
    1.3904    1.1647    2.8244 H   0  0  0  0  0  0  0  0  0  0  0  0
    2.0032    3.6903    1.1880 H   0  0  0  0  0  0  0  0  0  0  0  0
    3.2192    2.5656    1.7955 H   0  0  0  0  0  0  0  0  0  0  0  0
    2.2446    3.5089    2.9269 H   0  0  0  0  0  0  0  0  0  0  0  0
   -0.2213   -2.0835   -1.5586 C   0  0  0  0  0  0  0  0  0  0  0  0
   -0.2213   -2.0835   -0.0366 C   0  0  0  0  0  0  0  0  0  0  0  0
   -1.2696   -1.2709    0.4555 O   0  0  0  0  0  0  0  0  0  0  0  0
   -1.1786    0.0287   -0.0438 C   0  0  0  0  0  3  0  0  0  0  0  0
   -1.2696    0.0849   -1.4349 O   0  0  0  0  0  0  0  0  0  0  0  0
   -0.2213   -0.6418   -2.0467 C   0  0  0  0  0  0  0  0  0  0  0  0
    0.6527   -2.6159   -1.9405 H   0  0  0  0  0  0  0  0  0  0  0  0
   -1.1178   -2.5896   -1.9216 H   0  0  0  0  0  0  0  0  0  0  0  0
   -0.3802   -3.0810    0.3707 H   0  0  0  0  0  0  0  0  0  0  0  0
    0.7424   -1.7075    0.3401 H   0  0  0  0  0  0  0  0  0  0  0  0
   -0.0322    0.5712    0.3452 H   0  0  0  0  0  0  0  0  0  0  0  0
   -2.0197    0.5892    0.3582 H   0  0  0  0  0  0  0  0  0  0  0  0
    0.7424   -0.1644   -1.8114 H   0  0  0  0  0  0  0  0  0  0  0  0
   -0.3802   -0.5759   -3.1222 H   0  0  0  0  0  0  0  0  0  0  0  0
  1  2  1  0
  1  4  1  0
  1 20  1  0
  2  3  1  0
  2  5  1  0
  2  6  1  0
  3  7  1  0
  3  8  1  0
  3  9  1  0
 10 11  1  0
 10 15  1  0
 10 16  1  0
 10 17  1  0
 11 12  1  0
 11 18  1  0
 11 19  1  0
 12 13  1  0
 13 14  1  0
 13 21  1  0
 14 15  1  0
 15 22  1  0
 15 23  1  0
M  RAD  2   1   2  13   2
M  END
>  <reaction>  (10) 
rmg_rxn_36

>  <mol_properties>  (10) 
{"0": {"label": "*3", "atom_type": "Cs"}, "1": {"label": "*4", "atom_type": "Cs"}, "11": {"label": "*0", "atom_type": "O2s"}, "12": {"label": "*1", "atom_type": "Cs"}, "19": {"label": "*2", "atom_type": "H0"}}

>  <type>  (10) 
unop_6

>  <geom_source>  (10) 
Heuristics

$$$$

     RDKit          3D

 23 22  0  0  0  0  0  0  0  0999 V2000
    1.0887    1.0188    0.8600 C   0  0  0  0  0  3  0  0  0  0  0  0
    1.1052    2.2511    1.6858 C   0  0  0  0  0  0  0  0  0  0  0  0
    2.2893    3.1666    1.3945 C   0  0  0  0  0  0  0  0  0  0  0  0
    1.6747    0.9508   -0.0478 H   0  0  0  0  0  0  0  0  0  0  0  0
    0.1709    2.8123    1.5309 H   0  0  0  0  0  0  0  0  0  0  0  0
    1.0941    1.9830    2.7490 H   0  0  0  0  0  0  0  0  0  0  0  0
    2.2916    3.4759    0.3471 H   0  0  0  0  0  0  0  0  0  0  0  0
    3.2337    2.6567    1.5937 H   0  0  0  0  0  0  0  0  0  0  0  0
    2.2547    4.0668    2.0097 H   0  0  0  0  0  0  0  0  0  0  0  0
   -0.2221   -2.1667   -1.4246 C   0  0  0  0  0  0  0  0  0  0  0  0
   -0.2221   -2.1667    0.0974 C   0  0  0  0  0  0  0  0  0  0  0  0
   -1.2704   -1.3541    0.5895 O   0  0  0  0  0  0  0  0  0  0  0  0
   -1.1795   -0.0545    0.0902 C   0  0  0  0  0  3  0  0  0  0  0  0
   -1.2704    0.0017   -1.3008 O   0  0  0  0  0  0  0  0  0  0  0  0
   -0.2221   -0.7250   -1.9127 C   0  0  0  0  0  0  0  0  0  0  0  0
    0.6519   -2.6992   -1.8065 H   0  0  0  0  0  0  0  0  0  0  0  0
   -1.1187   -2.6729   -1.7876 H   0  0  0  0  0  0  0  0  0  0  0  0
   -0.3810   -3.1642    0.5048 H   0  0  0  0  0  0  0  0  0  0  0  0
    0.7415   -1.7907    0.4742 H   0  0  0  0  0  0  0  0  0  0  0  0
   -0.0331    0.4879    0.4793 H   0  0  0  0  0  0  0  0  0  0  0  0
   -2.0205    0.5060    0.4922 H   0  0  0  0  0  0  0  0  0  0  0  0
    0.7415   -0.2477   -1.6774 H   0  0  0  0  0  0  0  0  0  0  0  0
   -0.3810   -0.6591   -2.9882 H   0  0  0  0  0  0  0  0  0  0  0  0
  1  2  1  0
  1  4  1  0
  1 20  1  0
  2  3  1  0
  2  5  1  0
  2  6  1  0
  3  7  1  0
  3  8  1  0
  3  9  1  0
 10 11  1  0
 10 15  1  0
 10 16  1  0
 10 17  1  0
 11 12  1  0
 11 18  1  0
 11 19  1  0
 12 13  1  0
 13 14  1  0
 13 21  1  0
 14 15  1  0
 15 22  1  0
 15 23  1  0
M  RAD  2   1   2  13   2
M  END
>  <reaction>  (11) 
rmg_rxn_36

>  <mol_properties>  (11) 
{"0": {"label": "*3", "atom_type": "Cs"}, "1": {"label": "*4", "atom_type": "Cs"}, "11": {"label": "*0", "atom_type": "O2s"}, "12": {"label": "*1", "atom_type": "Cs"}, "19": {"label": "*2", "atom_type": "H0"}}

>  <type>  (11) 
unop_7

>  <geom_source>  (11) 
Heuristics

$$$$

     RDKit          3D

 23 22  0  0  0  0  0  0  0  0999 V2000
    0.8771    1.2766    1.2318 C   0  0  0  0  0  3  0  0  0  0  0  0
    2.1008    1.1440    0.4036 C   0  0  0  0  0  0  0  0  0  0  0  0
    2.7676    2.4766    0.0803 C   0  0  0  0  0  0  0  0  0  0  0  0
    0.6796    2.1831    1.7896 H   0  0  0  0  0  0  0  0  0  0  0  0
    2.8264    0.4949    0.9176 H   0  0  0  0  0  0  0  0  0  0  0  0
    1.8622    0.6117   -0.5248 H   0  0  0  0  0  0  0  0  0  0  0  0
    3.0487    3.0016    0.9957 H   0  0  0  0  0  0  0  0  0  0  0  0
    2.0915    3.1240   -0.4812 H   0  0  0  0  0  0  0  0  0  0  0  0
    3.6707    2.3335   -0.5148 H   0  0  0  0  0  0  0  0  0  0  0  0
   -0.4337   -1.9089   -1.0527 C   0  0  0  0  0  0  0  0  0  0  0  0
   -0.4337   -1.9089    0.4693 C   0  0  0  0  0  0  0  0  0  0  0  0
   -1.4820   -1.0963    0.9614 O   0  0  0  0  0  0  0  0  0  0  0  0
   -1.3911    0.2033    0.4621 C   0  0  0  0  0  3  0  0  0  0  0  0
   -1.4820    0.2595   -0.9290 O   0  0  0  0  0  0  0  0  0  0  0  0
   -0.4337   -0.4672   -1.5408 C   0  0  0  0  0  0  0  0  0  0  0  0
    0.4403   -2.4413   -1.4346 H   0  0  0  0  0  0  0  0  0  0  0  0
   -1.3303   -2.4150   -1.4158 H   0  0  0  0  0  0  0  0  0  0  0  0
   -0.5927   -2.9064    0.8766 H   0  0  0  0  0  0  0  0  0  0  0  0
    0.5299   -1.5329    0.8460 H   0  0  0  0  0  0  0  0  0  0  0  0
   -0.2447    0.7458    0.8511 H   0  0  0  0  0  0  0  0  0  0  0  0
   -2.2321    0.7638    0.8641 H   0  0  0  0  0  0  0  0  0  0  0  0
    0.5299    0.0102   -1.3056 H   0  0  0  0  0  0  0  0  0  0  0  0
   -0.5927   -0.4013   -2.6163 H   0  0  0  0  0  0  0  0  0  0  0  0
  1  2  1  0
  1  4  1  0
  1 20  1  0
  2  3  1  0
  2  5  1  0
  2  6  1  0
  3  7  1  0
  3  8  1  0
  3  9  1  0
 10 11  1  0
 10 15  1  0
 10 16  1  0
 10 17  1  0
 11 12  1  0
 11 18  1  0
 11 19  1  0
 12 13  1  0
 13 14  1  0
 13 21  1  0
 14 15  1  0
 15 22  1  0
 15 23  1  0
M  RAD  2   1   2  13   2
M  END
>  <reaction>  (12) 
rmg_rxn_36

>  <mol_properties>  (12) 
{"0": {"label": "*3", "atom_type": "Cs"}, "1": {"label": "*4", "atom_type": "Cs"}, "11": {"label": "*0", "atom_type": "O2s"}, "12": {"label": "*1", "atom_type": "Cs"}, "19": {"label": "*2", "atom_type": "H0"}}

>  <type>  (12) 
unop_8

>  <geom_source>  (12) 
Heuristics

$$$$

     RDKit          3D

 23 22  0  0  0  0  0  0  0  0999 V2000
    0.9448    1.3951    0.6770 C   0  0  0  0  0  3  0  0  0  0  0  0
    1.5781    0.9972    1.9581 C   0  0  0  0  0  0  0  0  0  0  0  0
    2.8076    1.8252    2.3155 C   0  0  0  0  0  0  0  0  0  0  0  0
    1.1555    2.3577    0.2288 H   0  0  0  0  0  0  0  0  0  0  0  0
    0.8431    1.0757    2.7739 H   0  0  0  0  0  0  0  0  0  0  0  0
    1.8421   -0.0665    1.9246 H   0  0  0  0  0  0  0  0  0  0  0  0
    2.5526    2.8844    2.3929 H   0  0  0  0  0  0  0  0  0  0  0  0
    3.5808    1.7234    1.5518 H   0  0  0  0  0  0  0  0  0  0  0  0
    3.2323    1.5121    3.2704 H   0  0  0  0  0  0  0  0  0  0  0  0
   -0.3660   -1.7904   -1.6076 C   0  0  0  0  0  0  0  0  0  0  0  0
   -0.3660   -1.7904   -0.0856 C   0  0  0  0  0  0  0  0  0  0  0  0
   -1.4143   -0.9778    0.4065 O   0  0  0  0  0  0  0  0  0  0  0  0
   -1.3234    0.3218   -0.0928 C   0  0  0  0  0  3  0  0  0  0  0  0
   -1.4143    0.3780   -1.4838 O   0  0  0  0  0  0  0  0  0  0  0  0
   -0.3660   -0.3487   -2.0957 C   0  0  0  0  0  0  0  0  0  0  0  0
    0.5080   -2.3228   -1.9895 H   0  0  0  0  0  0  0  0  0  0  0  0
   -1.2626   -2.2965   -1.9706 H   0  0  0  0  0  0  0  0  0  0  0  0
   -0.5250   -2.7879    0.3218 H   0  0  0  0  0  0  0  0  0  0  0  0
    0.5976   -1.4144    0.2912 H   0  0  0  0  0  0  0  0  0  0  0  0
   -0.1770    0.8643    0.2963 H   0  0  0  0  0  0  0  0  0  0  0  0
   -2.1645    0.8823    0.3092 H   0  0  0  0  0  0  0  0  0  0  0  0
    0.5976    0.1287   -1.8604 H   0  0  0  0  0  0  0  0  0  0  0  0
   -0.5250   -0.2828   -3.1712 H   0  0  0  0  0  0  0  0  0  0  0  0
  1  2  1  0
  1  4  1  0
  1 20  1  0
  2  3  1  0
  2  5  1  0
  2  6  1  0
  3  7  1  0
  3  8  1  0
  3  9  1  0
 10 11  1  0
 10 15  1  0
 10 16  1  0
 10 17  1  0
 11 12  1  0
 11 18  1  0
 11 19  1  0
 12 13  1  0
 13 14  1  0
 13 21  1  0
 14 15  1  0
 15 22  1  0
 15 23  1  0
M  RAD  2   1   2  13   2
M  END
>  <reaction>  (13) 
rmg_rxn_36

>  <mol_properties>  (13) 
{"0": {"label": "*3", "atom_type": "Cs"}, "1": {"label": "*4", "atom_type": "Cs"}, "11": {"label": "*0", "atom_type": "O2s"}, "12": {"label": "*1", "atom_type": "Cs"}, "19": {"label": "*2", "atom_type": "H0"}}

>  <type>  (13) 
unop_9

>  <geom_source>  (13) 
Heuristics

$$$$

     RDKit          3D

 23 22  0  0  0  0  0  0  0  0999 V2000
    0.8162    1.4218    1.1477 C   0  0  0  0  0  3  0  0  0  0  0  0
    2.1138    0.8114    0.7679 C   0  0  0  0  0  0  0  0  0  0  0  0
    3.1540    1.8252    0.3040 C   0  0  0  0  0  0  0  0  0  0  0  0
    0.7424    2.4801    1.3636 H   0  0  0  0  0  0  0  0  0  0  0  0
    2.5196    0.2453    1.6204 H   0  0  0  0  0  0  0  0  0  0  0  0
    1.9530    0.0586   -0.0130 H   0  0  0  0  0  0  0  0  0  0  0  0
    3.3558    2.5594    1.0869 H   0  0  0  0  0  0  0  0  0  0  0  0
    2.8046    2.3655   -0.5778 H   0  0  0  0  0  0  0  0  0  0  0  0
    4.0966    1.3379    0.0505 H   0  0  0  0  0  0  0  0  0  0  0  0
   -0.4946   -1.7636   -1.1368 C   0  0  0  0  0  0  0  0  0  0  0  0
   -0.4946   -1.7636    0.3852 C   0  0  0  0  0  0  0  0  0  0  0  0
   -1.5429   -0.9510    0.8773 O   0  0  0  0  0  0  0  0  0  0  0  0
   -1.4520    0.3485    0.3780 C   0  0  0  0  0  3  0  0  0  0  0  0
   -1.5429    0.4047   -1.0131 O   0  0  0  0  0  0  0  0  0  0  0  0
   -0.4946   -0.3220   -1.6249 C   0  0  0  0  0  0  0  0  0  0  0  0
    0.3794   -2.2961   -1.5187 H   0  0  0  0  0  0  0  0  0  0  0  0
   -1.3912   -2.2698   -1.4999 H   0  0  0  0  0  0  0  0  0  0  0  0
   -0.6536   -2.7612    0.7925 H   0  0  0  0  0  0  0  0  0  0  0  0
    0.4690   -1.3877    0.7619 H   0  0  0  0  0  0  0  0  0  0  0  0
   -0.3056    0.8910    0.7670 H   0  0  0  0  0  0  0  0  0  0  0  0
   -2.2931    0.9090    0.7800 H   0  0  0  0  0  0  0  0  0  0  0  0
    0.4690    0.1554   -1.3897 H   0  0  0  0  0  0  0  0  0  0  0  0
   -0.6536   -0.2561   -2.7004 H   0  0  0  0  0  0  0  0  0  0  0  0
  1  2  1  0
  1  4  1  0
  1 20  1  0
  2  3  1  0
  2  5  1  0
  2  6  1  0
  3  7  1  0
  3  8  1  0
  3  9  1  0
 10 11  1  0
 10 15  1  0
 10 16  1  0
 10 17  1  0
 11 12  1  0
 11 18  1  0
 11 19  1  0
 12 13  1  0
 13 14  1  0
 13 21  1  0
 14 15  1  0
 15 22  1  0
 15 23  1  0
M  RAD  2   1   2  13   2
M  END
>  <reaction>  (14) 
rmg_rxn_36

>  <mol_properties>  (14) 
{"0": {"label": "*3", "atom_type": "Cs"}, "1": {"label": "*4", "atom_type": "Cs"}, "11": {"label": "*0", "atom_type": "O2s"}, "12": {"label": "*1", "atom_type": "Cs"}, "19": {"label": "*2", "atom_type": "H0"}}

>  <type>  (14) 
unop_10

>  <geom_source>  (14) 
Heuristics

$$$$

     RDKit          3D

 23 22  0  0  0  0  0  0  0  0999 V2000
    1.0375    1.0137    0.9812 C   0  0  0  0  0  3  0  0  0  0  0  0
    1.1516    2.4770    1.1972 C   0  0  0  0  0  0  0  0  0  0  0  0
    2.5723    3.0089    1.0426 C   0  0  0  0  0  0  0  0  0  0  0  0
    1.8176    0.4655    0.4685 H   0  0  0  0  0  0  0  0  0  0  0  0
    0.4914    3.0070    0.4936 H   0  0  0  0  0  0  0  0  0  0  0  0
    0.7631    2.7350    2.1895 H   0  0  0  0  0  0  0  0  0  0  0  0
    2.9596    2.7954    0.0440 H   0  0  0  0  0  0  0  0  0  0  0  0
    3.2431    2.5433    1.7670 H   0  0  0  0  0  0  0  0  0  0  0  0
    2.6094    4.0888    1.1928 H   0  0  0  0  0  0  0  0  0  0  0  0
   -0.2733   -2.1718   -1.3034 C   0  0  0  0  0  0  0  0  0  0  0  0
   -0.2733   -2.1718    0.2187 C   0  0  0  0  0  0  0  0  0  0  0  0
   -1.3216   -1.3591    0.7108 O   0  0  0  0  0  0  0  0  0  0  0  0
   -1.2307   -0.0596    0.2115 C   0  0  0  0  0  3  0  0  0  0  0  0
   -1.3216   -0.0034   -1.1796 O   0  0  0  0  0  0  0  0  0  0  0  0
   -0.2733   -0.7301   -1.7915 C   0  0  0  0  0  0  0  0  0  0  0  0
    0.6007   -2.7042   -1.6852 H   0  0  0  0  0  0  0  0  0  0  0  0
   -1.1699   -2.6779   -1.6664 H   0  0  0  0  0  0  0  0  0  0  0  0
   -0.4323   -3.1693    0.6260 H   0  0  0  0  0  0  0  0  0  0  0  0
    0.6903   -1.7958    0.5954 H   0  0  0  0  0  0  0  0  0  0  0  0
   -0.0843    0.4829    0.6005 H   0  0  0  0  0  0  0  0  0  0  0  0
   -2.0718    0.5009    0.6134 H   0  0  0  0  0  0  0  0  0  0  0  0
    0.6903   -0.2527   -1.5562 H   0  0  0  0  0  0  0  0  0  0  0  0
   -0.4323   -0.6642   -2.8669 H   0  0  0  0  0  0  0  0  0  0  0  0
  1  2  1  0
  1  4  1  0
  1 20  1  0
  2  3  1  0
  2  5  1  0
  2  6  1  0
  3  7  1  0
  3  8  1  0
  3  9  1  0
 10 11  1  0
 10 15  1  0
 10 16  1  0
 10 17  1  0
 11 12  1  0
 11 18  1  0
 11 19  1  0
 12 13  1  0
 13 14  1  0
 13 21  1  0
 14 15  1  0
 15 22  1  0
 15 23  1  0
M  RAD  2   1   2  13   2
M  END
>  <reaction>  (15) 
rmg_rxn_36

>  <mol_properties>  (15) 
{"0": {"label": "*3", "atom_type": "Cs"}, "1": {"label": "*4", "atom_type": "Cs"}, "11": {"label": "*0", "atom_type": "O2s"}, "12": {"label": "*1", "atom_type": "Cs"}, "19": {"label": "*2", "atom_type": "H0"}}

>  <type>  (15) 
unop_11

>  <geom_source>  (15) 
Heuristics

$$$$

     RDKit          3D

 23 22  0  0  0  0  0  0  0  0999 V2000
    0.8546    1.4979    0.8044 C   0  0  0  0  0  3  0  0  0  0  0  0
    1.8115    0.7343    1.6424 C   0  0  0  0  0  0  0  0  0  0  0  0
    3.1813    1.3934    1.7614 C   0  0  0  0  0  0  0  0  0  0  0  0
    1.0257    2.5426    0.5780 H   0  0  0  0  0  0  0  0  0  0  0  0
    1.3911    0.5957    2.6504 H   0  0  0  0  0  0  0  0  0  0  0  0
    1.9201   -0.2820    1.2455 H   0  0  0  0  0  0  0  0  0  0  0  0
    3.0945    2.3926    2.1937 H   0  0  0  0  0  0  0  0  0  0  0  0
    3.6513    1.4938    0.7813 H   0  0  0  0  0  0  0  0  0  0  0  0
    3.8478    0.8096    2.3978 H   0  0  0  0  0  0  0  0  0  0  0  0
   -0.4562   -1.6876   -1.4801 C   0  0  0  0  0  0  0  0  0  0  0  0
   -0.4562   -1.6876    0.0419 C   0  0  0  0  0  0  0  0  0  0  0  0
   -1.5045   -0.8749    0.5340 O   0  0  0  0  0  0  0  0  0  0  0  0
   -1.4136    0.4246    0.0347 C   0  0  0  0  0  3  0  0  0  0  0  0
   -1.5045    0.4808   -1.3564 O   0  0  0  0  0  0  0  0  0  0  0  0
   -0.4562   -0.2459   -1.9682 C   0  0  0  0  0  0  0  0  0  0  0  0
    0.4178   -2.2200   -1.8620 H   0  0  0  0  0  0  0  0  0  0  0  0
   -1.3528   -2.1937   -1.8432 H   0  0  0  0  0  0  0  0  0  0  0  0
   -0.6151   -2.6851    0.4492 H   0  0  0  0  0  0  0  0  0  0  0  0
    0.5074   -1.3116    0.4186 H   0  0  0  0  0  0  0  0  0  0  0  0
   -0.2672    0.9671    0.4237 H   0  0  0  0  0  0  0  0  0  0  0  0
   -2.2546    0.9851    0.4367 H   0  0  0  0  0  0  0  0  0  0  0  0
    0.5074    0.2315   -1.7330 H   0  0  0  0  0  0  0  0  0  0  0  0
   -0.6151   -0.1800   -3.0437 H   0  0  0  0  0  0  0  0  0  0  0  0
  1  2  1  0
  1  4  1  0
  1 20  1  0
  2  3  1  0
  2  5  1  0
  2  6  1  0
  3  7  1  0
  3  8  1  0
  3  9  1  0
 10 11  1  0
 10 15  1  0
 10 16  1  0
 10 17  1  0
 11 12  1  0
 11 18  1  0
 11 19  1  0
 12 13  1  0
 13 14  1  0
 13 21  1  0
 14 15  1  0
 15 22  1  0
 15 23  1  0
M  RAD  2   1   2  13   2
M  END
>  <reaction>  (16) 
rmg_rxn_36

>  <mol_properties>  (16) 
{"0": {"label": "*3", "atom_type": "Cs"}, "1": {"label": "*4", "atom_type": "Cs"}, "11": {"label": "*0", "atom_type": "O2s"}, "12": {"label": "*1", "atom_type": "Cs"}, "19": {"label": "*2", "atom_type": "H0"}}

>  <type>  (16) 
unop_12

>  <geom_source>  (16) 
Heuristics

$$$$

     RDKit          3D

 23 22  0  0  0  0  0  0  0  0999 V2000
   -1.3310   -0.5842    1.5289 O   0  0  0  0  0  0  0  0  0  0  0  0
   -1.3394    1.5005    0.5332 O   0  0  0  0  0  0  0  0  0  0  0  0
   -2.8603   -0.1872   -0.3072 C   0  0  0  0  0  0  0  0  0  0  0  0
    2.6226   -0.6613    0.1191 C   0  0  0  0  0  0  0  0  0  0  0  0
   -1.9951   -1.2025    0.4475 C   0  0  0  0  0  0  0  0  0  0  0  0
   -2.0041    1.0436   -0.6253 C   0  0  0  0  0  0  0  0  0  0  0  0
    3.2205    0.7222   -0.1130 C   0  0  0  0  0  0  0  0  0  0  0  0
    1.2284   -0.7671   -0.4830 C   0  0  0  0  0  3  0  0  0  0  0  0
   -0.5274    0.4477    1.0025 C   0  0  0  0  0  3  0  0  0  0  0  0
   -3.7175    0.1152    0.3330 H   0  0  0  0  0  0  0  0  0  0  0  0
   -3.2516   -0.6367   -1.2450 H   0  0  0  0  0  0  0  0  0  0  0  0
    2.5602   -0.8586    1.2102 H   0  0  0  0  0  0  0  0  0  0  0  0
    3.2778   -1.4309   -0.3417 H   0  0  0  0  0  0  0  0  0  0  0  0
   -2.6483   -2.0087    0.8429 H   0  0  0  0  0  0  0  0  0  0  0  0
   -1.2607   -1.6786   -0.2430 H   0  0  0  0  0  0  0  0  0  0  0  0
   -1.2707    0.8105   -1.4319 H   0  0  0  0  0  0  0  0  0  0  0  0
   -2.6637    1.8535   -1.0019 H   0  0  0  0  0  0  0  0  0  0  0  0
    3.3055    0.9283   -1.2013 H   0  0  0  0  0  0  0  0  0  0  0  0
    4.2344    0.7687    0.3375 H   0  0  0  0  0  0  0  0  0  0  0  0
    2.5856    1.5015    0.3600 H   0  0  0  0  0  0  0  0  0  0  0  0
    1.2617   -0.6147   -1.5829 H   0  0  0  0  0  0  0  0  0  0  0  0
    0.4237    0.1101    0.0668 H   0  0  0  0  0  0  0  0  0  0  0  0
    0.1492    0.8288    1.7947 H   0  0  0  0  0  0  0  0  0  0  0  0
  1  5  1  0
  1  9  1  0
  2  6  1  0
  2  9  1  0
  3  5  1  0
  3  6  1  0
  3 10  1  0
  3 11  1  0
  4  8  1  0
  4  7  1  0
  4 12  1  0
  4 13  1  0
  5 14  1  0
  5 15  1  0
  6 16  1  0
  6 17  1  0
  7 18  1  0
  7 19  1  0
  7 20  1  0
  8 21  1  0
  8 22  1  0
  9 23  1  0
M  RAD  2   8   2   9   2
M  END
>  <reaction>  (17) 
rmg_rxn_36

>  <mol_properties>  (17) 
{"0": {"label": "*3", "atom_type": "Cs"}, "1": {"label": "*4", "atom_type": "Cs"}, "11": {"label": "*0", "atom_type": "O2s"}, "12": {"label": "*1", "atom_type": "Cs"}, "19": {"label": "*2", "atom_type": "H0"}}

>  <type>  (17) 
unop_13

>  <geom_source>  (17) 
AutoTST

$$$$

     RDKit          3D

 23 22  0  0  0  0  0  0  0  0999 V2000
    0.8058    1.5077    0.9860 C   0  0  0  0  0  3  0  0  0  0  0  0
    2.0057    0.6663    1.2160 C   0  0  0  0  0  0  0  0  0  0  0  0
    3.3210    1.3933    0.9578 C   0  0  0  0  0  0  0  0  0  0  0  0
    0.8831    2.5869    0.9486 H   0  0  0  0  0  0  0  0  0  0  0  0
    2.0006    0.2902    2.2506 H   0  0  0  0  0  0  0  0  0  0  0  0
    1.9496   -0.2346    0.5936 H   0  0  0  0  0  0  0  0  0  0  0  0
    3.4108    2.2720    1.6002 H   0  0  0  0  0  0  0  0  0  0  0  0
    3.3824    1.7303   -0.0786 H   0  0  0  0  0  0  0  0  0  0  0  0
    4.1767    0.7458    1.1540 H   0  0  0  0  0  0  0  0  0  0  0  0
   -0.5050   -1.6778   -1.2986 C   0  0  0  0  0  0  0  0  0  0  0  0
   -0.5050   -1.6778    0.2235 C   0  0  0  0  0  0  0  0  0  0  0  0
   -1.5533   -0.8651    0.7156 O   0  0  0  0  0  0  0  0  0  0  0  0
   -1.4624    0.4344    0.2162 C   0  0  0  0  0  3  0  0  0  0  0  0
   -1.5533    0.4906   -1.1748 O   0  0  0  0  0  0  0  0  0  0  0  0
   -0.5050   -0.2361   -1.7867 C   0  0  0  0  0  0  0  0  0  0  0  0
    0.3690   -2.2102   -1.6805 H   0  0  0  0  0  0  0  0  0  0  0  0
   -1.4016   -2.1839   -1.6616 H   0  0  0  0  0  0  0  0  0  0  0  0
   -0.6640   -2.6753    0.6308 H   0  0  0  0  0  0  0  0  0  0  0  0
    0.4586   -1.3018    0.6002 H   0  0  0  0  0  0  0  0  0  0  0  0
   -0.3160    0.9769    0.6053 H   0  0  0  0  0  0  0  0  0  0  0  0
   -2.3035    0.9949    0.6182 H   0  0  0  0  0  0  0  0  0  0  0  0
    0.4586    0.2413   -1.5514 H   0  0  0  0  0  0  0  0  0  0  0  0
   -0.6640   -0.1702   -2.8622 H   0  0  0  0  0  0  0  0  0  0  0  0
  1  2  1  0
  1  4  1  0
  1 20  1  0
  2  3  1  0
  2  5  1  0
  2  6  1  0
  3  7  1  0
  3  8  1  0
  3  9  1  0
 10 11  1  0
 10 15  1  0
 10 16  1  0
 10 17  1  0
 11 12  1  0
 11 18  1  0
 11 19  1  0
 12 13  1  0
 13 14  1  0
 13 21  1  0
 14 15  1  0
 15 22  1  0
 15 23  1  0
M  RAD  2   1   2  13   2
M  END
>  <reaction>  (18) 
rmg_rxn_36

>  <mol_properties>  (18) 
{"0": {"label": "*3", "atom_type": "Cs"}, "1": {"label": "*4", "atom_type": "Cs"}, "11": {"label": "*0", "atom_type": "O2s"}, "12": {"label": "*1", "atom_type": "Cs"}, "19": {"label": "*2", "atom_type": "H0"}}

>  <type>  (18) 
unop_14

>  <geom_source>  (18) 
gaussian_log

$$$$
