
     RDKit          3D

  6  5  0  0  0  0  0  0  0  0999 V2000
    0.0000    0.0000   -1.1800 C   0  0  0  0  0  0  0  0  0  0  0  0
    0.0000    0.0000    0.2819 C   0  0  0  0  0  0  0  0  0  0  0  0
    0.0000    0.0000    1.4421 N   0  0  0  0  0  0  0  0  0  0  0  0
    0.0000    1.0227   -1.5687 H   0  0  0  0  0  0  0  0  0  0  0  0
    0.8856   -0.5113   -1.5687 H   0  0  0  0  0  0  0  0  0  0  0  0
   -0.8856   -0.5113   -1.5687 H   0  0  0  0  0  0  0  0  0  0  0  0
  1  2  1  0
  1  4  1  0
  1  5  1  0
  1  6  1  0
  2  3  3  0
M  END
>  <reaction>  (1) 
rmg_rxn_1147

>  <mol_properties>  (1) 
{"0": {"label": "donator", "atom_type": "Cs"}, "3": {"label": "d_hydrogen", "atom_type": "H0"}}

>  <type>  (1) 
r1h

$$$$

     RDKit          3D

  1  0  0  0  0  0  0  0  0  0999 V2000
    0.0000    0.0000    0.0000 O   0  0  0  0  0 15  0  0  0  0  0  0
M  END
>  <reaction>  (2) 
rmg_rxn_1147

>  <mol_properties>  (2) 
{"0": {"label": "acceptor", "atom_type": "O2s"}}

>  <type>  (2) 
r2

$$$$

     RDKit          3D

  2  1  0  0  0  0  0  0  0  0999 V2000
    0.0000    0.0000    0.1079 O   0  0  0  0  0  1  0  0  0  0  0  0
    0.0000    0.0000   -0.8631 H   0  0  0  0  0  0  0  0  0  0  0  0
  1  2  1  0
M  RAD  1   1   2
M  END
>  <reaction>  (3) 
rmg_rxn_1147

>  <mol_properties>  (3) 
{"0": {"label": "acceptor", "atom_type": "O2s"}, "1": {"label": "a_hydrogen", "atom_type": "H0"}}

>  <type>  (3) 
r2h

$$$$

     RDKit          3D

  7  5  0  0  0  0  0  0  0  0999 V2000
    1.6919   -1.5084    0.0000 O   0  0  0  0  0  1  0  0  0  0  0  0
   -0.6245   -0.6280    0.0000 C   0  0  0  0  0  0  0  0  0  0  0  0
   -0.6245    0.8340    0.0000 C   0  0  0  0  0  0  0  0  0  0  0  0
   -0.6245    1.9942    0.0000 N   0  0  0  0  0  2  0  0  0  0  0  0
    0.6027   -1.0944    0.0000 H   0  0  0  0  0  0  0  0  0  0  0  0
   -1.1359   -1.0167    0.8856 H   0  0  0  0  0  0  0  0  0  0  0  0
   -1.1359   -1.0167   -0.8856 H   0  0  0  0  0  0  0  0  0  0  0  0
  1  5  1  0
  2  3  2  0
  2  6  1  0
  2  7  1  0
  3  4  2  0
M  RAD  2   1   2   4   2
M  END
>  <reaction>  (4) 
rmg_rxn_1147

>  <mol_properties>  (4) 
{"0": {"label": "*1", "atom_type": "O2s"}, "1": {"label": "*3", "atom_type": "Cd"}, "2": {"label": "*4", "atom_type": "Cdd"}, "4": {"label": "*2", "atom_type": "H0"}}

>  <type>  (4) 
ts

$$$$

     RDKit          3D

  7  5  0  0  0  0  0  0  0  0999 V2000
    0.0000    1.6630    1.5631 O   0  0  0  0  0  1  0  0  0  0  0  0
    0.0000   -0.6534    0.6826 C   0  0  0  0  0  0  0  0  0  0  0  0
    0.0000   -0.6534   -0.7793 C   0  0  0  0  0  0  0  0  0  0  0  0
    0.0000   -0.6534   -1.9395 N   0  0  0  0  0  2  0  0  0  0  0  0
    0.0000    0.5738    1.1491 H   0  0  0  0  0  0  0  0  0  0  0  0
   -0.8856   -1.1647    1.0713 H   0  0  0  0  0  0  0  0  0  0  0  0
    0.8856   -1.1647    1.0713 H   0  0  0  0  0  0  0  0  0  0  0  0
  1  5  1  0
  2  3  2  0
  2  6  1  0
  2  7  1  0
  3  4  2  0
M  RAD  2   1   2   4   2
M  END
>  <reaction>  (5) 
rmg_rxn_1147

>  <mol_properties>  (5) 
{"0": {"label": "*1", "atom_type": "O2s"}, "1": {"label": "*3", "atom_type": "Cd"}, "2": {"label": "*4", "atom_type": "Cdd"}, "4": {"label": "*2", "atom_type": "H0"}}

>  <type>  (5) 
unop_1

>  <geom_source>  (5) 
Heuristics

$$$$

     RDKit          3D

  7  5  0  0  0  0  0  0  0  0999 V2000
    1.7888   -1.1019    0.3391 O   0  0  0  0  0  1  0  0  0  0  0  0
   -1.9545   -1.1197   -0.0084 N   0  0  0  0  0  2  0  0  0  0  0  0
    0.0692    0.5408   -0.1233 C   0  0  0  0  0  0  0  0  0  0  0  0
   -1.0608   -0.3863   -0.0592 C   0  0  0  0  0  0  0  0  0  0  0  0
    0.2577    0.9648    0.8844 H   0  0  0  0  0  0  0  0  0  0  0  0
   -0.1653    1.3616   -0.8319 H   0  0  0  0  0  0  0  0  0  0  0  0
    1.0650   -0.2595   -0.2007 H   0  0  0  0  0  0  0  0  0  0  0  0
  1  7  1  0
  2  4  2  0
  3  4  2  0
  3  5  1  0
  3  6  1  0
M  RAD  2   1   2   2   2
M  END
>  <reaction>  (6) 
rmg_rxn_1147

>  <mol_properties>  (6) 
{"0": {"label": "*1", "atom_type": "O2s"}, "1": {"label": "*3", "atom_type": "Cd"}, "2": {"label": "*4", "atom_type": "Cdd"}, "4": {"label": "*2", "atom_type": "H0"}}

>  <type>  (6) 
unop_2

>  <geom_source>  (6) 
AutoTST

$$$$

     RDKit          3D

  7  5  0  0  0  0  0  0  0  0999 V2000
   -2.0195    1.0973    0.1195 O   0  0  0  0  0 15  0  0  0  0  0  0
    2.3456    0.5255    0.0622 N   0  0  0  0  0  0  0  0  0  0  0  0
   -0.1157   -0.3681   -0.0348 C   0  0  0  0  0  0  0  0  0  0  0  0
    1.2587    0.1308    0.0194 C   0  0  0  0  0  0  0  0  0  0  0  0
   -0.8892    0.5757   -0.2354 H   0  0  0  0  0  0  0  0  0  0  0  0
   -0.2096   -1.1048   -0.8591 H   0  0  0  0  0  0  0  0  0  0  0  0
   -0.3702   -0.8565    0.9283 H   0  0  0  0  0  0  0  0  0  0  0  0
  2  4  3  0
  3  4  1  0
  3  5  1  0
  3  6  1  0
  3  7  1  0
M  END
>  <reaction>  (7) 
rmg_rxn_1147

>  <mol_properties>  (7) 
{"0": {"label": "*1", "atom_type": "O2s"}, "1": {"label": "*3", "atom_type": "Cd"}, "2": {"label": "*4", "atom_type": "Cdd"}, "4": {"label": "*2", "atom_type": "H0"}}

>  <type>  (7) 
unop_3

>  <geom_source>  (7) 
gaussian_log

$$$$
