
     RDKit          3D

  3  2  0  0  0  0  0  0  0  0999 V2000
   -0.0007    0.6157    0.0000 S   0  0  0  0  0  0  0  0  0  0  0  0
   -0.9686   -0.3090    0.0000 H   0  0  0  0  0  0  0  0  0  0  0  0
    0.9693   -0.3067    0.0000 H   0  0  0  0  0  0  0  0  0  0  0  0
  1  2  1  0
  1  3  1  0
M  END
>  <reaction>  (1) 
rmg_rxn_239

>  <mol_properties>  (1) 
{"0": {"label": "donator", "atom_type": "S2s"}, "1": {"label": "d_hydrogen", "atom_type": "H0"}}

>  <type>  (1) 
r1h

$$$$

     RDKit          3D

 17 16  0  0  0  0  0  0  0  0999 V2000
    2.3128   -0.1525    1.1777 C   0  0  0  0  0  3  0  0  0  0  0  0
    1.7469    0.7266    0.1254 C   0  0  0  0  0  0  0  0  0  0  0  0
    1.6374    2.1830    0.5408 C   0  0  0  0  0  0  0  0  0  0  0  0
    2.9245    2.6874    0.7877 O   0  0  0  0  0  0  0  0  0  0  0  0
    2.9227    4.0197    1.2361 C   0  0  0  0  0  0  0  0  0  0  0  0
    4.3491    4.4603    1.4693 C   0  0  0  0  0  0  0  0  0  0  0  0
    2.1393   -1.2196    1.1557 H   0  0  0  0  0  0  0  0  0  0  0  0
    3.0313    0.2400    1.8838 H   0  0  0  0  0  0  0  0  0  0  0  0
    0.7555    0.3746   -0.1764 H   0  0  0  0  0  0  0  0  0  0  0  0
    2.3678    0.6841   -0.7826 H   0  0  0  0  0  0  0  0  0  0  0  0
    1.0170    2.2718    1.4449 H   0  0  0  0  0  0  0  0  0  0  0  0
    1.1499    2.7653   -0.2546 H   0  0  0  0  0  0  0  0  0  0  0  0
    2.4379    4.6655    0.4891 H   0  0  0  0  0  0  0  0  0  0  0  0
    2.3377    4.1015    2.1638 H   0  0  0  0  0  0  0  0  0  0  0  0
    4.9261    4.3920    0.5465 H   0  0  0  0  0  0  0  0  0  0  0  0
    4.3728    5.4939    1.8180 H   0  0  0  0  0  0  0  0  0  0  0  0
    4.8260    3.8299    2.2206 H   0  0  0  0  0  0  0  0  0  0  0  0
  1  2  1  0
  1  7  1  0
  1  8  1  0
  2  3  1  0
  2  9  1  0
  2 10  1  0
  3  4  1  0
  3 11  1  0
  3 12  1  0
  4  5  1  0
  5  6  1  0
  5 13  1  0
  5 14  1  0
  6 15  1  0
  6 16  1  0
  6 17  1  0
M  RAD  1   1   2
M  END
>  <reaction>  (2) 
rmg_rxn_239

>  <mol_properties>  (2) 
{"0": {"label": "acceptor", "atom_type": "Cs"}}

>  <type>  (2) 
r2

$$$$

     RDKit          3D

 18 17  0  0  0  0  0  0  0  0999 V2000
    2.2026   -0.7213   -0.2612 C   0  0  0  0  0  0  0  0  0  0  0  0
    1.5384    0.2638    0.6915 C   0  0  0  0  0  0  0  0  0  0  0  0
    2.2584    1.5946    0.7694 C   0  0  0  0  0  0  0  0  0  0  0  0
    2.2212    2.2185   -0.4893 O   0  0  0  0  0  0  0  0  0  0  0  0
    2.8988    3.4488   -0.5204 C   0  0  0  0  0  0  0  0  0  0  0  0
    2.7981    4.0296   -1.9118 C   0  0  0  0  0  0  0  0  0  0  0  0
    3.2294   -0.9309    0.0486 H   0  0  0  0  0  0  0  0  0  0  0  0
    2.2338   -0.3181   -1.2734 H   0  0  0  0  0  0  0  0  0  0  0  0
    1.6610   -1.6680   -0.2875 H   0  0  0  0  0  0  0  0  0  0  0  0
    1.4990   -0.1566    1.7002 H   0  0  0  0  0  0  0  0  0  0  0  0
    0.5055    0.4455    0.3835 H   0  0  0  0  0  0  0  0  0  0  0  0
    3.3038    1.4410    1.0808 H   0  0  0  0  0  0  0  0  0  0  0  0
    1.7844    2.2410    1.5226 H   0  0  0  0  0  0  0  0  0  0  0  0
    2.4596    4.1376    0.2164 H   0  0  0  0  0  0  0  0  0  0  0  0
    3.9524    3.3035   -0.2397 H   0  0  0  0  0  0  0  0  0  0  0  0
    1.7543    4.1869   -2.1856 H   0  0  0  0  0  0  0  0  0  0  0  0
    3.2472    3.3545   -2.6411 H   0  0  0  0  0  0  0  0  0  0  0  0
    3.3178    4.9878   -1.9600 H   0  0  0  0  0  0  0  0  0  0  0  0
  1  2  1  0
  1  7  1  0
  1  8  1  0
  1  9  1  0
  2  3  1  0
  2 10  1  0
  2 11  1  0
  3  4  1  0
  3 12  1  0
  3 13  1  0
  4  5  1  0
  5  6  1  0
  5 14  1  0
  5 15  1  0
  6 16  1  0
  6 17  1  0
  6 18  1  0
M  END
>  <reaction>  (3) 
rmg_rxn_239

>  <mol_properties>  (3) 
{"0": {"label": "a_hydrogen", "atom_type": "H0"}, "1": {"label": "acceptor", "atom_type": "Cs"}}

>  <type>  (3) 
r2h

$$$$

     RDKit          3D

 20 18  0  0  0  0  0  0  0  0999 V2000
   -0.0136   -3.5703   -1.5410 S   0  0  0  0  0  0  0  0  0  0  0  0
    0.3685   -2.3306   -0.8629 H   0  0  0  0  0  0  0  0  0  0  0  0
   -0.6184   -2.8833   -2.5188 H   0  0  0  0  0  0  0  0  0  0  0  0
    0.6591   -0.9732   -0.1741 C   0  0  0  0  0  3  0  0  0  0  0  0
   -0.6709   -0.5229    0.3368 C   0  0  0  0  0  0  0  0  0  0  0  0
   -0.5781    0.7735    1.1326 C   0  0  0  0  0  0  0  0  0  0  0  0
   -0.1085    1.7927    0.2913 O   0  0  0  0  0  0  0  0  0  0  0  0
    0.0159    3.0356    0.9395 C   0  0  0  0  0  0  0  0  0  0  0  0
    0.5263    4.0555   -0.0512 C   0  0  0  0  0  0  0  0  0  0  0  0
    1.0892   -0.4294   -1.0076 H   0  0  0  0  0  0  0  0  0  0  0  0
    1.3815   -1.3282    0.5562 H   0  0  0  0  0  0  0  0  0  0  0  0
   -1.1048   -1.2880    0.9854 H   0  0  0  0  0  0  0  0  0  0  0  0
   -1.3625   -0.3688   -0.4941 H   0  0  0  0  0  0  0  0  0  0  0  0
    0.0989    0.6448    1.9905 H   0  0  0  0  0  0  0  0  0  0  0  0
   -1.5699    1.0323    1.5308 H   0  0  0  0  0  0  0  0  0  0  0  0
   -0.9589    3.3448    1.3436 H   0  0  0  0  0  0  0  0  0  0  0  0
    0.7067    2.9451    1.7902 H   0  0  0  0  0  0  0  0  0  0  0  0
   -0.1652    4.1549   -0.8885 H   0  0  0  0  0  0  0  0  0  0  0  0
    0.6304    5.0291    0.4301 H   0  0  0  0  0  0  0  0  0  0  0  0
    1.4996    3.7561   -0.4414 H   0  0  0  0  0  0  0  0  0  0  0  0
  1  2  1  0
  1  3  1  0
  4  5  1  0
  4 10  1  0
  4 11  1  0
  5  6  1  0
  5 12  1  0
  5 13  1  0
  6  7  1  0
  6 14  1  0
  6 15  1  0
  7  8  1  0
  8  9  1  0
  8 16  1  0
  8 17  1  0
  9 18  1  0
  9 19  1  0
  9 20  1  0
M  RAD  1   4   2
M  END
>  <reaction>  (4) 
rmg_rxn_239

>  <mol_properties>  (4) 
{"0": {"label": "*1", "atom_type": "S2s"}, "1": {"label": "*2", "atom_type": "H0"}, "2": {"label": "*0", "atom_type": "H0"}, "3": {"label": "*3", "atom_type": "Cs"}, "4": {"label": "*4", "atom_type": "Cs"}}

>  <type>  (4) 
ts

$$$$

     RDKit          3D

 20 18  0  0  0  0  0  0  0  0999 V2000
    0.2872   -3.8054   -0.7875 S   0  0  0  0  0  1  0  0  0  0  0  0
    0.2872   -2.2009   -0.7104 H   0  0  0  0  0  0  0  0  0  0  0  0
    0.2872   -3.8054   -2.1261 H   0  0  0  0  0  0  0  0  0  0  0  0
    0.2872   -0.8932   -0.6476 C   0  0  0  0  0  0  0  0  0  0  0  0
   -0.9432   -0.3798    0.0883 C   0  0  0  0  0  0  0  0  0  0  0  0
   -0.6438    0.7866    1.0076 C   0  0  0  0  0  0  0  0  0  0  0  0
   -0.1905    1.8763    0.2447 O   0  0  0  0  0  0  0  0  0  0  0  0
    0.1467    2.9972    1.0216 C   0  0  0  0  0  0  0  0  0  0  0  0
    0.6197    4.1037    0.1077 C   0  0  0  0  0  0  0  0  0  0  0  0
    0.7240   -0.1077   -1.2642 H   0  0  0  0  0  0  0  0  0  0  0  0
    1.0509   -1.2299    0.0580 H   0  0  0  0  0  0  0  0  0  0  0  0
   -1.3817   -1.1795    0.6918 H   0  0  0  0  0  0  0  0  0  0  0  0
   -1.7072   -0.0692   -0.6291 H   0  0  0  0  0  0  0  0  0  0  0  0
    0.1232    0.5000    1.7444 H   0  0  0  0  0  0  0  0  0  0  0  0
   -1.5460    1.0711    1.5688 H   0  0  0  0  0  0  0  0  0  0  0  0
   -0.7267    3.3265    1.6039 H   0  0  0  0  0  0  0  0  0  0  0  0
    0.9340    2.7306    1.7421 H   0  0  0  0  0  0  0  0  0  0  0  0
   -0.1651    4.3782   -0.5980 H   0  0  0  0  0  0  0  0  0  0  0  0
    0.8871    4.9868    0.6901 H   0  0  0  0  0  0  0  0  0  0  0  0
    1.4950    3.7836   -0.4587 H   0  0  0  0  0  0  0  0  0  0  0  0
  1  3  1  0
  2  4  1  0
  4  5  1  0
  4 10  1  0
  4 11  1  0
  5  6  1  0
  5 12  1  0
  5 13  1  0
  6  7  1  0
  6 14  1  0
  6 15  1  0
  7  8  1  0
  8  9  1  0
  8 16  1  0
  8 17  1  0
  9 18  1  0
  9 19  1  0
  9 20  1  0
M  RAD  1   1   2
M  END
>  <reaction>  (5) 
rmg_rxn_239

>  <mol_properties>  (5) 
{"0": {"label": "*1", "atom_type": "S2s"}, "1": {"label": "*2", "atom_type": "H0"}, "2": {"label": "*0", "atom_type": "H0"}, "3": {"label": "*3", "atom_type": "Cs"}, "4": {"label": "*4", "atom_type": "Cs"}}

>  <type>  (5) 
unop_1

>  <geom_source>  (5) 
Heuristics

$$$$

     RDKit          3D

 20 18  0  0  0  0  0  0  0  0999 V2000
    0.1313   -3.9020    0.3727 S   0  0  0  0  0  1  0  0  0  0  0  0
    0.1313   -2.2975    0.4497 H   0  0  0  0  0  0  0  0  0  0  0  0
    0.1313   -3.9020   -0.9660 H   0  0  0  0  0  0  0  0  0  0  0  0
    0.1313   -0.9898    0.5126 C   0  0  0  0  0  0  0  0  0  0  0  0
   -0.5791   -0.3833   -0.6902 C   0  0  0  0  0  0  0  0  0  0  0  0
   -0.9992    1.0556   -0.4705 C   0  0  0  0  0  0  0  0  0  0  0  0
    0.1439    1.8505   -0.2794 O   0  0  0  0  0  0  0  0  0  0  0  0
   -0.1530    3.2011   -0.0318 C   0  0  0  0  0  0  0  0  0  0  0  0
    1.1394    3.9608    0.1588 C   0  0  0  0  0  0  0  0  0  0  0  0
    1.0349   -0.4287    0.7506 H   0  0  0  0  0  0  0  0  0  0  0  0
   -0.5144   -0.9763    1.3941 H   0  0  0  0  0  0  0  0  0  0  0  0
   -1.4753   -0.9624   -0.9293 H   0  0  0  0  0  0  0  0  0  0  0  0
    0.0690   -0.4253   -1.5694 H   0  0  0  0  0  0  0  0  0  0  0  0
   -1.6569    1.1270    0.4103 H   0  0  0  0  0  0  0  0  0  0  0  0
   -1.5707    1.4223   -1.3358 H   0  0  0  0  0  0  0  0  0  0  0  0
   -0.7246    3.6199   -0.8733 H   0  0  0  0  0  0  0  0  0  0  0  0
   -0.7856    3.2876    0.8639 H   0  0  0  0  0  0  0  0  0  0  0  0
    1.7612    3.8871   -0.7340 H   0  0  0  0  0  0  0  0  0  0  0  0
    0.9334    5.0147    0.3523 H   0  0  0  0  0  0  0  0  0  0  0  0
    1.6995    3.5563    1.0026 H   0  0  0  0  0  0  0  0  0  0  0  0
  1  3  1  0
  2  4  1  0
  4  5  1  0
  4 10  1  0
  4 11  1  0
  5  6  1  0
  5 12  1  0
  5 13  1  0
  6  7  1  0
  6 14  1  0
  6 15  1  0
  7  8  1  0
  8  9  1  0
  8 16  1  0
  8 17  1  0
  9 18  1  0
  9 19  1  0
  9 20  1  0
M  RAD  1   1   2
M  END
>  <reaction>  (6) 
rmg_rxn_239

>  <mol_properties>  (6) 
{"0": {"label": "*1", "atom_type": "S2s"}, "1": {"label": "*2", "atom_type": "H0"}, "2": {"label": "*0", "atom_type": "H0"}, "3": {"label": "*3", "atom_type": "Cs"}, "4": {"label": "*4", "atom_type": "Cs"}}

>  <type>  (6) 
unop_2

>  <geom_source>  (6) 
Heuristics

$$$$

     RDKit          3D

 20 18  0  0  0  0  0  0  0  0999 V2000
    0.1711   -3.8547   -0.6982 S   0  0  0  0  0  1  0  0  0  0  0  0
    0.1711   -2.2502   -0.6211 H   0  0  0  0  0  0  0  0  0  0  0  0
    0.1711   -3.8547   -2.0368 H   0  0  0  0  0  0  0  0  0  0  0  0
    0.1711   -0.9425   -0.5583 C   0  0  0  0  0  0  0  0  0  0  0  0
   -0.5393   -0.4541    0.6971 C   0  0  0  0  0  0  0  0  0  0  0  0
   -0.0113    0.8732    1.2019 C   0  0  0  0  0  0  0  0  0  0  0  0
   -0.2476    1.8662    0.2359 O   0  0  0  0  0  0  0  0  0  0  0  0
    0.2432    3.1296    0.6054 C   0  0  0  0  0  0  0  0  0  0  0  0
   -0.0613    4.1164   -0.4978 C   0  0  0  0  0  0  0  0  0  0  0  0
    0.0553   -0.2256   -1.3711 H   0  0  0  0  0  0  0  0  0  0  0  0
    1.2406   -1.0726   -0.3751 H   0  0  0  0  0  0  0  0  0  0  0  0
   -0.4295   -1.1872    1.5010 H   0  0  0  0  0  0  0  0  0  0  0  0
   -1.6107   -0.3515    0.5061 H   0  0  0  0  0  0  0  0  0  0  0  0
    1.0687    0.7976    1.4053 H   0  0  0  0  0  0  0  0  0  0  0  0
   -0.5037    1.1448    2.1472 H   0  0  0  0  0  0  0  0  0  0  0  0
   -0.2224    3.4517    1.5487 H   0  0  0  0  0  0  0  0  0  0  0  0
    1.3274    3.0732    0.7825 H   0  0  0  0  0  0  0  0  0  0  0  0
   -1.1370    4.1832   -0.6646 H   0  0  0  0  0  0  0  0  0  0  0  0
    0.3109    5.1071   -0.2322 H   0  0  0  0  0  0  0  0  0  0  0  0
    0.4128    3.8061   -1.4296 H   0  0  0  0  0  0  0  0  0  0  0  0
  1  3  1  0
  2  4  1  0
  4  5  1  0
  4 10  1  0
  4 11  1  0
  5  6  1  0
  5 12  1  0
  5 13  1  0
  6  7  1  0
  6 14  1  0
  6 15  1  0
  7  8  1  0
  8  9  1  0
  8 16  1  0
  8 17  1  0
  9 18  1  0
  9 19  1  0
  9 20  1  0
M  RAD  1   1   2
M  END
>  <reaction>  (7) 
rmg_rxn_239

>  <mol_properties>  (7) 
{"0": {"label": "*1", "atom_type": "S2s"}, "1": {"label": "*2", "atom_type": "H0"}, "2": {"label": "*0", "atom_type": "H0"}, "3": {"label": "*3", "atom_type": "Cs"}, "4": {"label": "*4", "atom_type": "Cs"}}

>  <type>  (7) 
unop_3

>  <geom_source>  (7) 
Heuristics

$$$$

     RDKit          3D

 20 18  0  0  0  0  0  0  0  0999 V2000
   -1.2750   -3.2487   -0.8134 S   0  0  0  0  0  1  0  0  0  0  0  0
   -1.2750   -1.6442   -0.7363 H   0  0  0  0  0  0  0  0  0  0  0  0
   -1.2750   -3.2487   -2.1520 H   0  0  0  0  0  0  0  0  0  0  0  0
   -1.2750   -0.3365   -0.6735 C   0  0  0  0  0  0  0  0  0  0  0  0
   -0.0445    0.2451   -1.3568 C   0  0  0  0  0  0  0  0  0  0  0  0
    0.4290    1.5401   -0.7291 C   0  0  0  0  0  0  0  0  0  0  0  0
    0.8253    1.2971    0.5971 O   0  0  0  0  0  0  0  0  0  0  0  0
    1.2483    2.4544    1.2720 C   0  0  0  0  0  0  0  0  0  0  0  0
    1.6486    2.0823    2.6809 C   0  0  0  0  0  0  0  0  0  0  0  0
   -1.0697   -0.5493    0.3756 H   0  0  0  0  0  0  0  0  0  0  0  0
   -2.1123    0.3645   -0.7163 H   0  0  0  0  0  0  0  0  0  0  0  0
   -0.2570    0.4407   -2.4115 H   0  0  0  0  0  0  0  0  0  0  0  0
    0.7768   -0.4756   -1.3275 H   0  0  0  0  0  0  0  0  0  0  0  0
   -0.3803    2.2871   -0.7475 H   0  0  0  0  0  0  0  0  0  0  0  0
    1.2708    1.9560   -1.3020 H   0  0  0  0  0  0  0  0  0  0  0  0
    2.0959    2.9106    0.7394 H   0  0  0  0  0  0  0  0  0  0  0  0
    0.4373    3.1974    1.2862 H   0  0  0  0  0  0  0  0  0  0  0  0
    2.4620    1.3560    2.6679 H   0  0  0  0  0  0  0  0  0  0  0  0
    1.9820    2.9672    3.2253 H   0  0  0  0  0  0  0  0  0  0  0  0
    0.8046    1.6442    3.2148 H   0  0  0  0  0  0  0  0  0  0  0  0
  1  3  1  0
  2  4  1  0
  4  5  1  0
  4 10  1  0
  4 11  1  0
  5  6  1  0
  5 12  1  0
  5 13  1  0
  6  7  1  0
  6 14  1  0
  6 15  1  0
  7  8  1  0
  8  9  1  0
  8 16  1  0
  8 17  1  0
  9 18  1  0
  9 19  1  0
  9 20  1  0
M  RAD  1   1   2
M  END
>  <reaction>  (8) 
rmg_rxn_239

>  <mol_properties>  (8) 
{"0": {"label": "*1", "atom_type": "S2s"}, "1": {"label": "*2", "atom_type": "H0"}, "2": {"label": "*0", "atom_type": "H0"}, "3": {"label": "*3", "atom_type": "Cs"}, "4": {"label": "*4", "atom_type": "Cs"}}

>  <type>  (8) 
unop_4

>  <geom_source>  (8) 
Heuristics

$$$$

     RDKit          3D

 20 18  0  0  0  0  0  0  0  0999 V2000
    0.6041   -3.7344   -0.7532 S   0  0  0  0  0  1  0  0  0  0  0  0
    0.6041   -2.1299   -0.6761 H   0  0  0  0  0  0  0  0  0  0  0  0
    0.6041   -3.7344   -2.0918 H   0  0  0  0  0  0  0  0  0  0  0  0
    0.6041   -0.8222   -0.6133 C   0  0  0  0  0  0  0  0  0  0  0  0
    0.6041   -0.3429    0.8322 C   0  0  0  0  0  0  0  0  0  0  0  0
    0.6116    1.1668    0.9590 C   0  0  0  0  0  0  0  0  0  0  0  0
   -0.5678    1.6870    0.3992 O   0  0  0  0  0  0  0  0  0  0  0  0
   -0.6314    3.0897    0.4407 C   0  0  0  0  0  0  0  0  0  0  0  0
   -1.9314    3.5409   -0.1838 C   0  0  0  0  0  0  0  0  0  0  0  0
   -0.2758   -0.4555   -1.1417 H   0  0  0  0  0  0  0  0  0  0  0  0
    1.4890   -0.4612   -1.1435 H   0  0  0  0  0  0  0  0  0  0  0  0
    1.4828   -0.7287    1.3565 H   0  0  0  0  0  0  0  0  0  0  0  0
   -0.2731   -0.7310    1.3562 H   0  0  0  0  0  0  0  0  0  0  0  0
    1.4889    1.5852    0.4406 H   0  0  0  0  0  0  0  0  0  0  0  0
    0.6861    1.4602    2.0164 H   0  0  0  0  0  0  0  0  0  0  0  0
   -0.5641    3.4377    1.4822 H   0  0  0  0  0  0  0  0  0  0  0  0
    0.2246    3.5198   -0.1000 H   0  0  0  0  0  0  0  0  0  0  0  0
   -2.7808    3.1261    0.3600 H   0  0  0  0  0  0  0  0  0  0  0  0
   -2.0035    4.6294   -0.1623 H   0  0  0  0  0  0  0  0  0  0  0  0
   -1.9921    3.2098   -1.2212 H   0  0  0  0  0  0  0  0  0  0  0  0
  1  3  1  0
  2  4  1  0
  4  5  1  0
  4 10  1  0
  4 11  1  0
  5  6  1  0
  5 12  1  0
  5 13  1  0
  6  7  1  0
  6 14  1  0
  6 15  1  0
  7  8  1  0
  8  9  1  0
  8 16  1  0
  8 17  1  0
  9 18  1  0
  9 19  1  0
  9 20  1  0
M  RAD  1   1   2
M  END
>  <reaction>  (9) 
rmg_rxn_239

>  <mol_properties>  (9) 
{"0": {"label": "*1", "atom_type": "S2s"}, "1": {"label": "*2", "atom_type": "H0"}, "2": {"label": "*0", "atom_type": "H0"}, "3": {"label": "*3", "atom_type": "Cs"}, "4": {"label": "*4", "atom_type": "Cs"}}

>  <type>  (9) 
unop_5

>  <geom_source>  (9) 
Heuristics

$$$$

     RDKit          3D

 20 18  0  0  0  0  0  0  0  0999 V2000
   -0.8307   -3.0613   -1.4506 S   0  0  0  0  0  1  0  0  0  0  0  0
   -0.8307   -1.4568   -1.3735 H   0  0  0  0  0  0  0  0  0  0  0  0
   -0.8307   -3.0613   -2.7893 H   0  0  0  0  0  0  0  0  0  0  0  0
   -0.8307   -0.1491   -1.3107 C   0  0  0  0  0  0  0  0  0  0  0  0
    0.5901    0.3984   -1.2844 C   0  0  0  0  0  0  0  0  0  0  0  0
    0.7561    1.5793   -0.3500 C   0  0  0  0  0  0  0  0  0  0  0  0
    0.4954    1.1698    0.9688 O   0  0  0  0  0  0  0  0  0  0  0  0
    0.5914    2.2134    1.9044 C   0  0  0  0  0  0  0  0  0  0  0  0
    0.2932    1.6671    3.2814 C   0  0  0  0  0  0  0  0  0  0  0  0
   -1.1336   -0.4848   -0.3189 H   0  0  0  0  0  0  0  0  0  0  0  0
   -1.5379    0.6180   -1.6361 H   0  0  0  0  0  0  0  0  0  0  0  0
    0.8888    0.7181   -2.2866 H   0  0  0  0  0  0  0  0  0  0  0  0
    1.2888   -0.3855   -0.9807 H   0  0  0  0  0  0  0  0  0  0  0  0
    0.0637    2.3872   -0.6354 H   0  0  0  0  0  0  0  0  0  0  0  0
    1.7768    1.9826   -0.4228 H   0  0  0  0  0  0  0  0  0  0  0  0
    1.5999    2.6521    1.8750 H   0  0  0  0  0  0  0  0  0  0  0  0
   -0.1174    3.0141    1.6466 H   0  0  0  0  0  0  0  0  0  0  0  0
    1.0040    0.8827    3.5435 H   0  0  0  0  0  0  0  0  0  0  0  0
    0.3625    2.4613    4.0264 H   0  0  0  0  0  0  0  0  0  0  0  0
   -0.7122    1.2460    3.3160 H   0  0  0  0  0  0  0  0  0  0  0  0
  1  3  1  0
  2  4  1  0
  4  5  1  0
  4 10  1  0
  4 11  1  0
  5  6  1  0
  5 12  1  0
  5 13  1  0
  6  7  1  0
  6 14  1  0
  6 15  1  0
  7  8  1  0
  8  9  1  0
  8 16  1  0
  8 17  1  0
  9 18  1  0
  9 19  1  0
  9 20  1  0
M  RAD  1   1   2
M  END
>  <reaction>  (10) 
rmg_rxn_239

>  <mol_properties>  (10) 
{"0": {"label": "*1", "atom_type": "S2s"}, "1": {"label": "*2", "atom_type": "H0"}, "2": {"label": "*0", "atom_type": "H0"}, "3": {"label": "*3", "atom_type": "Cs"}, "4": {"label": "*4", "atom_type": "Cs"}}

>  <type>  (10) 
unop_6

>  <geom_source>  (10) 
Heuristics

$$$$

     RDKit          3D

 20 18  0  0  0  0  0  0  0  0999 V2000
   -0.0635   -3.0402   -1.6954 S   0  0  0  0  0  1  0  0  0  0  0  0
   -0.0635   -1.4357   -1.6183 H   0  0  0  0  0  0  0  0  0  0  0  0
   -0.0635   -3.0402   -3.0340 H   0  0  0  0  0  0  0  0  0  0  0  0
   -0.0635   -0.1280   -1.5555 C   0  0  0  0  0  0  0  0  0  0  0  0
    1.1670    0.3854   -0.8196 C   0  0  0  0  0  0  0  0  0  0  0  0
    0.8703    1.5613    0.0884 C   0  0  0  0  0  0  0  0  0  0  0  0
   -0.0198    1.1572    1.0980 O   0  0  0  0  0  0  0  0  0  0  0  0
   -0.3805    2.1975    1.9705 C   0  0  0  0  0  0  0  0  0  0  0  0
   -1.3349    1.6574    3.0102 C   0  0  0  0  0  0  0  0  0  0  0  0
   -0.8261   -0.4571   -0.8497 H   0  0  0  0  0  0  0  0  0  0  0  0
   -0.4995    0.6560   -2.1797 H   0  0  0  0  0  0  0  0  0  0  0  0
    1.9308    0.6987   -1.5367 H   0  0  0  0  0  0  0  0  0  0  0  0
    1.6060   -0.4151   -0.2186 H   0  0  0  0  0  0  0  0  0  0  0  0
    0.4281    2.3858   -0.4932 H   0  0  0  0  0  0  0  0  0  0  0  0
    1.8001    1.9402    0.5377 H   0  0  0  0  0  0  0  0  0  0  0  0
    0.5178    2.6120    2.4517 H   0  0  0  0  0  0  0  0  0  0  0  0
   -0.8508    3.0151    1.4046 H   0  0  0  0  0  0  0  0  0  0  0  0
   -0.8646    0.8560    3.5811 H   0  0  0  0  0  0  0  0  0  0  0  0
   -1.6291    2.4492    3.7010 H   0  0  0  0  0  0  0  0  0  0  0  0
   -2.2327    1.2604    2.5352 H   0  0  0  0  0  0  0  0  0  0  0  0
  1  3  1  0
  2  4  1  0
  4  5  1  0
  4 10  1  0
  4 11  1  0
  5  6  1  0
  5 12  1  0
  5 13  1  0
  6  7  1  0
  6 14  1  0
  6 15  1  0
  7  8  1  0
  8  9  1  0
  8 16  1  0
  8 17  1  0
  9 18  1  0
  9 19  1  0
  9 20  1  0
M  RAD  1   1   2
M  END
>  <reaction>  (11) 
rmg_rxn_239

>  <mol_properties>  (11) 
{"0": {"label": "*1", "atom_type": "S2s"}, "1": {"label": "*2", "atom_type": "H0"}, "2": {"label": "*0", "atom_type": "H0"}, "3": {"label": "*3", "atom_type": "Cs"}, "4": {"label": "*4", "atom_type": "Cs"}}

>  <type>  (11) 
unop_7

>  <geom_source>  (11) 
Heuristics

$$$$

     RDKit          3D

 20 18  0  0  0  0  0  0  0  0999 V2000
    0.5553   -3.8195   -0.5511 S   0  0  0  0  0  1  0  0  0  0  0  0
    0.5553   -2.2150   -0.4740 H   0  0  0  0  0  0  0  0  0  0  0  0
    0.5553   -3.8195   -1.8897 H   0  0  0  0  0  0  0  0  0  0  0  0
    0.5553   -0.9073   -0.4111 C   0  0  0  0  0  0  0  0  0  0  0  0
   -0.8656   -0.3598   -0.3848 C   0  0  0  0  0  0  0  0  0  0  0  0
   -1.0350    0.8117    0.5607 C   0  0  0  0  0  0  0  0  0  0  0  0
   -0.2365    1.8823    0.1234 O   0  0  0  0  0  0  0  0  0  0  0  0
   -0.3035    3.0058    0.9643 C   0  0  0  0  0  0  0  0  0  0  0  0
    0.5875    4.0909    0.4056 C   0  0  0  0  0  0  0  0  0  0  0  0
    1.2594   -0.1386   -0.7296 H   0  0  0  0  0  0  0  0  0  0  0  0
    0.8589   -1.2506    0.5810 H   0  0  0  0  0  0  0  0  0  0  0  0
   -1.5649   -1.1428   -0.0787 H   0  0  0  0  0  0  0  0  0  0  0  0
   -1.1642   -0.0427   -1.3874 H   0  0  0  0  0  0  0  0  0  0  0  0
   -0.7427    0.5188    1.5816 H   0  0  0  0  0  0  0  0  0  0  0  0
   -2.0897    1.1215    0.5989 H   0  0  0  0  0  0  0  0  0  0  0  0
   -1.3426    3.3600    1.0350 H   0  0  0  0  0  0  0  0  0  0  0  0
    0.0150    2.7323    1.9810 H   0  0  0  0  0  0  0  0  0  0  0  0
    0.2640    4.3724   -0.5971 H   0  0  0  0  0  0  0  0  0  0  0  0
    0.5511    4.9756    1.0432 H   0  0  0  0  0  0  0  0  0  0  0  0
    1.6206    3.7460    0.3497 H   0  0  0  0  0  0  0  0  0  0  0  0
  1  3  1  0
  2  4  1  0
  4  5  1  0
  4 10  1  0
  4 11  1  0
  5  6  1  0
  5 12  1  0
  5 13  1  0
  6  7  1  0
  6 14  1  0
  6 15  1  0
  7  8  1  0
  8  9  1  0
  8 16  1  0
  8 17  1  0
  9 18  1  0
  9 19  1  0
  9 20  1  0
M  RAD  1   1   2
M  END
>  <reaction>  (12) 
rmg_rxn_239

>  <mol_properties>  (12) 
{"0": {"label": "*1", "atom_type": "S2s"}, "1": {"label": "*2", "atom_type": "H0"}, "2": {"label": "*0", "atom_type": "H0"}, "3": {"label": "*3", "atom_type": "Cs"}, "4": {"label": "*4", "atom_type": "Cs"}}

>  <type>  (12) 
unop_8

>  <geom_source>  (12) 
Heuristics

$$$$

     RDKit          3D

 20 18  0  0  0  0  0  0  0  0999 V2000
   -1.1936   -3.5309   -0.0676 S   0  0  0  0  0  1  0  0  0  0  0  0
   -1.1936   -1.9264    0.0094 H   0  0  0  0  0  0  0  0  0  0  0  0
   -1.1936   -3.5309   -1.4063 H   0  0  0  0  0  0  0  0  0  0  0  0
   -1.1936   -0.6188    0.0723 C   0  0  0  0  0  0  0  0  0  0  0  0
   -0.4832   -0.0122   -1.1305 C   0  0  0  0  0  0  0  0  0  0  0  0
   -0.0762    1.4313   -0.9162 C   0  0  0  0  0  0  0  0  0  0  0  0
    0.8544    1.5017    0.1344 O   0  0  0  0  0  0  0  0  0  0  0  0
    1.2631    2.8133    0.4283 C   0  0  0  0  0  0  0  0  0  0  0  0
    2.2566    2.7745    1.5664 C   0  0  0  0  0  0  0  0  0  0  0  0
   -0.5500   -0.5981    0.9517 H   0  0  0  0  0  0  0  0  0  0  0  0
   -2.1036   -0.0617    0.3090 H   0  0  0  0  0  0  0  0  0  0  0  0
   -1.1319   -0.0516   -2.0100 H   0  0  0  0  0  0  0  0  0  0  0  0
    0.4112   -0.5931   -1.3703 H   0  0  0  0  0  0  0  0  0  0  0  0
   -0.9610    2.0415   -0.6748 H   0  0  0  0  0  0  0  0  0  0  0  0
    0.3643    1.8438   -1.8358 H   0  0  0  0  0  0  0  0  0  0  0  0
    1.7165    3.2734   -0.4622 H   0  0  0  0  0  0  0  0  0  0  0  0
    0.3907    3.4256    0.7002 H   0  0  0  0  0  0  0  0  0  0  0  0
    3.1282    2.1790    1.2926 H   0  0  0  0  0  0  0  0  0  0  0  0
    2.5893    3.7841    1.8124 H   0  0  0  0  0  0  0  0  0  0  0  0
    1.8032    2.3327    2.4545 H   0  0  0  0  0  0  0  0  0  0  0  0
  1  3  1  0
  2  4  1  0
  4  5  1  0
  4 10  1  0
  4 11  1  0
  5  6  1  0
  5 12  1  0
  5 13  1  0
  6  7  1  0
  6 14  1  0
  6 15  1  0
  7  8  1  0
  8  9  1  0
  8 16  1  0
  8 17  1  0
  9 18  1  0
  9 19  1  0
  9 20  1  0
M  RAD  1   1   2
M  END
>  <reaction>  (13) 
rmg_rxn_239

>  <mol_properties>  (13) 
{"0": {"label": "*1", "atom_type": "S2s"}, "1": {"label": "*2", "atom_type": "H0"}, "2": {"label": "*0", "atom_type": "H0"}, "3": {"label": "*3", "atom_type": "Cs"}, "4": {"label": "*4", "atom_type": "Cs"}}

>  <type>  (13) 
unop_9

>  <geom_source>  (13) 
Heuristics

$$$$

     RDKit          3D

 20 18  0  0  0  0  0  0  0  0999 V2000
    0.5631   -3.8778   -0.0669 S   0  0  0  0  0  1  0  0  0  0  0  0
    0.5631   -2.2733    0.0102 H   0  0  0  0  0  0  0  0  0  0  0  0
    0.5631   -3.8778   -1.4055 H   0  0  0  0  0  0  0  0  0  0  0  0
    0.5631   -0.9656    0.0730 C   0  0  0  0  0  0  0  0  0  0  0  0
   -0.6674   -0.3841   -0.6103 C   0  0  0  0  0  0  0  0  0  0  0  0
   -1.1498    0.9031    0.0267 C   0  0  0  0  0  0  0  0  0  0  0  0
   -0.1563    1.8884   -0.1044 O   0  0  0  0  0  0  0  0  0  0  0  0
   -0.5043    3.1119    0.4918 C   0  0  0  0  0  0  0  0  0  0  0  0
    0.6273    4.0937    0.2944 C   0  0  0  0  0  0  0  0  0  0  0  0
    1.3947   -0.2621    0.0348 H   0  0  0  0  0  0  0  0  0  0  0  0
    0.3578   -1.1861    1.1236 H   0  0  0  0  0  0  0  0  0  0  0  0
   -1.4904   -1.1035   -0.5793 H   0  0  0  0  0  0  0  0  0  0  0  0
   -0.4550   -0.1911   -1.6650 H   0  0  0  0  0  0  0  0  0  0  0  0
   -1.3741    0.7366    1.0922 H   0  0  0  0  0  0  0  0  0  0  0  0
   -2.0794    1.2414   -0.4541 H   0  0  0  0  0  0  0  0  0  0  0  0
   -1.4312    3.4981    0.0423 H   0  0  0  0  0  0  0  0  0  0  0  0
   -0.7020    2.9635    1.5637 H   0  0  0  0  0  0  0  0  0  0  0  0
    0.8149    4.2520   -0.7682 H   0  0  0  0  0  0  0  0  0  0  0  0
    0.3788    5.0536    0.7498 H   0  0  0  0  0  0  0  0  0  0  0  0
    1.5429    3.7188    0.7533 H   0  0  0  0  0  0  0  0  0  0  0  0
  1  3  1  0
  2  4  1  0
  4  5  1  0
  4 10  1  0
  4 11  1  0
  5  6  1  0
  5 12  1  0
  5 13  1  0
  6  7  1  0
  6 14  1  0
  6 15  1  0
  7  8  1  0
  8  9  1  0
  8 16  1  0
  8 17  1  0
  9 18  1  0
  9 19  1  0
  9 20  1  0
M  RAD  1   1   2
M  END
>  <reaction>  (14) 
rmg_rxn_239

>  <mol_properties>  (14) 
{"0": {"label": "*1", "atom_type": "S2s"}, "1": {"label": "*2", "atom_type": "H0"}, "2": {"label": "*0", "atom_type": "H0"}, "3": {"label": "*3", "atom_type": "Cs"}, "4": {"label": "*4", "atom_type": "Cs"}}

>  <type>  (14) 
unop_10

>  <geom_source>  (14) 
Heuristics

$$$$

     RDKit          3D

 20 18  0  0  0  0  0  0  0  0999 V2000
    0.6412   -3.2782   -1.3822 S   0  0  0  0  0  1  0  0  0  0  0  0
    0.6412   -1.6737   -1.3051 H   0  0  0  0  0  0  0  0  0  0  0  0
    0.6412   -3.2782   -2.7208 H   0  0  0  0  0  0  0  0  0  0  0  0
    0.6412   -0.3660   -1.2423 C   0  0  0  0  0  0  0  0  0  0  0  0
    1.3516    0.1224    0.0131 C   0  0  0  0  0  0  0  0  0  0  0  0
    0.8337    1.4568    0.5094 C   0  0  0  0  0  0  0  0  0  0  0  0
   -0.5158    1.3244    0.8787 O   0  0  0  0  0  0  0  0  0  0  0  0
   -1.0921    2.5271    1.3203 C   0  0  0  0  0  0  0  0  0  0  0  0
   -2.5355    2.2735    1.6888 C   0  0  0  0  0  0  0  0  0  0  0  0
   -0.4262   -0.4888   -1.0588 H   0  0  0  0  0  0  0  0  0  0  0  0
    0.7614    0.3481   -2.0608 H   0  0  0  0  0  0  0  0  0  0  0  0
    2.4232    0.2276   -0.1778 H   0  0  0  0  0  0  0  0  0  0  0  0
    1.2434   -0.6121    0.8154 H   0  0  0  0  0  0  0  0  0  0  0  0
    0.9332    2.2183   -0.2803 H   0  0  0  0  0  0  0  0  0  0  0  0
    1.4263    1.7995    1.3704 H   0  0  0  0  0  0  0  0  0  0  0  0
   -0.5361    2.9134    2.1874 H   0  0  0  0  0  0  0  0  0  0  0  0
   -1.0254    3.2875    0.5282 H   0  0  0  0  0  0  0  0  0  0  0  0
   -2.6019    1.5298    2.4837 H   0  0  0  0  0  0  0  0  0  0  0  0
   -3.0046    3.1955    2.0360 H   0  0  0  0  0  0  0  0  0  0  0  0
   -3.0913    1.9053    0.8258 H   0  0  0  0  0  0  0  0  0  0  0  0
  1  3  1  0
  2  4  1  0
  4  5  1  0
  4 10  1  0
  4 11  1  0
  5  6  1  0
  5 12  1  0
  5 13  1  0
  6  7  1  0
  6 14  1  0
  6 15  1  0
  7  8  1  0
  8  9  1  0
  8 16  1  0
  8 17  1  0
  9 18  1  0
  9 19  1  0
  9 20  1  0
M  RAD  1   1   2
M  END
>  <reaction>  (15) 
rmg_rxn_239

>  <mol_properties>  (15) 
{"0": {"label": "*1", "atom_type": "S2s"}, "1": {"label": "*2", "atom_type": "H0"}, "2": {"label": "*0", "atom_type": "H0"}, "3": {"label": "*3", "atom_type": "Cs"}, "4": {"label": "*4", "atom_type": "Cs"}}

>  <type>  (15) 
unop_11

>  <geom_source>  (15) 
Heuristics

$$$$

     RDKit          3D

 20 18  0  0  0  0  0  0  0  0999 V2000
   -0.6041   -3.7905    0.4140 S   0  0  0  0  0  1  0  0  0  0  0  0
   -0.6041   -2.1860    0.4911 H   0  0  0  0  0  0  0  0  0  0  0  0
   -0.6041   -3.7905   -0.9246 H   0  0  0  0  0  0  0  0  0  0  0  0
   -0.6041   -0.8783    0.5539 C   0  0  0  0  0  0  0  0  0  0  0  0
   -0.6041   -0.2626   -0.8390 C   0  0  0  0  0  0  0  0  0  0  0  0
   -0.6116    1.2522   -0.8205 C   0  0  0  0  0  0  0  0  0  0  0  0
    0.5678    1.7164   -0.2134 O   0  0  0  0  0  0  0  0  0  0  0  0
    0.6314    3.1167   -0.1203 C   0  0  0  0  0  0  0  0  0  0  0  0
    1.9314    3.5059    0.5447 C   0  0  0  0  0  0  0  0  0  0  0  0
    0.2758   -0.5639    1.1150 H   0  0  0  0  0  0  0  0  0  0  0  0
   -1.4890   -0.5697    1.1163 H   0  0  0  0  0  0  0  0  0  0  0  0
   -1.4828   -0.5964   -1.3979 H   0  0  0  0  0  0  0  0  0  0  0  0
    0.2731   -0.5987   -1.3978 H   0  0  0  0  0  0  0  0  0  0  0  0
   -1.4889    1.6191   -0.2643 H   0  0  0  0  0  0  0  0  0  0  0  0
   -0.6861    1.6457   -1.8450 H   0  0  0  0  0  0  0  0  0  0  0  0
    0.5641    3.5629   -1.1236 H   0  0  0  0  0  0  0  0  0  0  0  0
   -0.2246    3.4929    0.4592 H   0  0  0  0  0  0  0  0  0  0  0  0
    2.7808    3.1452   -0.0365 H   0  0  0  0  0  0  0  0  0  0  0  0
    2.0035    4.5915    0.6276 H   0  0  0  0  0  0  0  0  0  0  0  0
    1.9921    3.0768    1.5455 H   0  0  0  0  0  0  0  0  0  0  0  0
  1  3  1  0
  2  4  1  0
  4  5  1  0
  4 10  1  0
  4 11  1  0
  5  6  1  0
  5 12  1  0
  5 13  1  0
  6  7  1  0
  6 14  1  0
  6 15  1  0
  7  8  1  0
  8  9  1  0
  8 16  1  0
  8 17  1  0
  9 18  1  0
  9 19  1  0
  9 20  1  0
M  RAD  1   1   2
M  END
>  <reaction>  (16) 
rmg_rxn_239

>  <mol_properties>  (16) 
{"0": {"label": "*1", "atom_type": "S2s"}, "1": {"label": "*2", "atom_type": "H0"}, "2": {"label": "*0", "atom_type": "H0"}, "3": {"label": "*3", "atom_type": "Cs"}, "4": {"label": "*4", "atom_type": "Cs"}}

>  <type>  (16) 
unop_12

>  <geom_source>  (16) 
Heuristics

$$$$

     RDKit          3D

 20 18  0  0  0  0  0  0  0  0999 V2000
    0.1313   -3.9020    0.3727 S   0  0  0  0  0  1  0  0  0  0  0  0
    0.1313   -2.2975    0.4497 H   0  0  0  0  0  0  0  0  0  0  0  0
    0.1313   -3.9020   -0.9660 H   0  0  0  0  0  0  0  0  0  0  0  0
    0.1313   -0.9898    0.5126 C   0  0  0  0  0  0  0  0  0  0  0  0
   -0.5791   -0.3833   -0.6902 C   0  0  0  0  0  0  0  0  0  0  0  0
   -0.9992    1.0556   -0.4705 C   0  0  0  0  0  0  0  0  0  0  0  0
    0.1439    1.8505   -0.2793 O   0  0  0  0  0  0  0  0  0  0  0  0
   -0.1530    3.2011   -0.0318 C   0  0  0  0  0  0  0  0  0  0  0  0
    1.1394    3.9608    0.1588 C   0  0  0  0  0  0  0  0  0  0  0  0
    1.0349   -0.4287    0.7507 H   0  0  0  0  0  0  0  0  0  0  0  0
   -0.5144   -0.9763    1.3941 H   0  0  0  0  0  0  0  0  0  0  0  0
   -1.4753   -0.9624   -0.9293 H   0  0  0  0  0  0  0  0  0  0  0  0
    0.0691   -0.4253   -1.5694 H   0  0  0  0  0  0  0  0  0  0  0  0
   -1.6569    1.1270    0.4103 H   0  0  0  0  0  0  0  0  0  0  0  0
   -1.5707    1.4223   -1.3358 H   0  0  0  0  0  0  0  0  0  0  0  0
   -0.7246    3.6199   -0.8733 H   0  0  0  0  0  0  0  0  0  0  0  0
   -0.7856    3.2876    0.8639 H   0  0  0  0  0  0  0  0  0  0  0  0
    1.7612    3.8871   -0.7340 H   0  0  0  0  0  0  0  0  0  0  0  0
    0.9334    5.0147    0.3523 H   0  0  0  0  0  0  0  0  0  0  0  0
    1.6995    3.5563    1.0026 H   0  0  0  0  0  0  0  0  0  0  0  0
  1  3  1  0
  2  4  1  0
  4  5  1  0
  4 10  1  0
  4 11  1  0
  5  6  1  0
  5 12  1  0
  5 13  1  0
  6  7  1  0
  6 14  1  0
  6 15  1  0
  7  8  1  0
  8  9  1  0
  8 16  1  0
  8 17  1  0
  9 18  1  0
  9 19  1  0
  9 20  1  0
M  RAD  1   1   2
M  END
>  <reaction>  (17) 
rmg_rxn_239

>  <mol_properties>  (17) 
{"0": {"label": "*1", "atom_type": "S2s"}, "1": {"label": "*2", "atom_type": "H0"}, "2": {"label": "*0", "atom_type": "H0"}, "3": {"label": "*3", "atom_type": "Cs"}, "4": {"label": "*4", "atom_type": "Cs"}}

>  <type>  (17) 
unop_13

>  <geom_source>  (17) 
gaussian_log

$$$$
