
     RDKit          3D

  9  8  0  0  0  0  0  0  0  0999 V2000
   -1.2461    0.5037    0.0950 C   0  0  0  0  0  0  0  0  0  0  0  0
   -0.0155   -0.3334    0.0640 C   0  0  0  0  0  0  0  0  0  0  0  0
    1.0697    0.1457   -0.3733 N   0  0  0  0  0  0  0  0  0  0  0  0
    2.1001   -0.7834   -0.3224 O   0  0  0  0  0  0  0  0  0  0  0  0
   -2.0357    0.0440   -0.5039 H   0  0  0  0  0  0  0  0  0  0  0  0
   -1.6237    0.5897    1.1166 H   0  0  0  0  0  0  0  0  0  0  0  0
   -1.0397    1.4998   -0.2929 H   0  0  0  0  0  0  0  0  0  0  0  0
   -0.0537   -1.3634    0.4205 H   0  0  0  0  0  0  0  0  0  0  0  0
    2.8478   -0.2985   -0.6758 H   0  0  0  0  0  0  0  0  0  0  0  0
  1  2  1  0
  1  5  1  0
  1  6  1  0
  1  7  1  0
  2  3  2  3
  2  8  1  0
  3  4  1  0
  4  9  1  0
M  END
>  <reaction>  (1) 
rmg_rxn_511

>  <mol_properties>  (1) 
{"3": {"label": "donator", "atom_type": "O2s"}, "8": {"label": "d_hydrogen", "atom_type": "H0"}}

>  <type>  (1) 
r1h

$$$$

     RDKit          3D

 10  9  0  0  0  0  0  0  0  0999 V2000
    1.4352    0.2660   -0.1351 C   0  0  0  0  0  3  0  0  0  0  0  0
    0.2236   -0.3243    0.4850 C   0  0  0  0  0  0  0  0  0  0  0  0
   -0.8893    0.6872    0.7364 C   0  0  0  0  0  0  0  0  0  0  0  0
    2.3577   -0.2958   -0.1940 H   0  0  0  0  0  0  0  0  0  0  0  0
    1.3935    1.2286   -0.6287 H   0  0  0  0  0  0  0  0  0  0  0  0
   -0.1633   -1.1318   -0.1556 H   0  0  0  0  0  0  0  0  0  0  0  0
    0.4945   -0.8215    1.4240 H   0  0  0  0  0  0  0  0  0  0  0  0
   -1.1991    1.1627   -0.1967 H   0  0  0  0  0  0  0  0  0  0  0  0
   -1.7660    0.2103    1.1768 H   0  0  0  0  0  0  0  0  0  0  0  0
   -0.5545    1.4732    1.4159 H   0  0  0  0  0  0  0  0  0  0  0  0
  1  2  1  0
  1  4  1  0
  1  5  1  0
  2  3  1  0
  2  6  1  0
  2  7  1  0
  3  8  1  0
  3  9  1  0
  3 10  1  0
M  RAD  1   1   2
M  END
>  <reaction>  (2) 
rmg_rxn_511

>  <mol_properties>  (2) 
{"0": {"label": "acceptor", "atom_type": "Cs"}}

>  <type>  (2) 
r2

$$$$

     RDKit          3D

 11 10  0  0  0  0  0  0  0  0999 V2000
   -1.2710    0.1907   -0.2084 C   0  0  0  0  0  0  0  0  0  0  0  0
    0.0202   -0.6130   -0.2928 C   0  0  0  0  0  0  0  0  0  0  0  0
    0.1086   -1.6953    0.7756 C   0  0  0  0  0  0  0  0  0  0  0  0
   -1.3607    0.6851    0.7620 H   0  0  0  0  0  0  0  0  0  0  0  0
   -2.1429   -0.4567   -0.3299 H   0  0  0  0  0  0  0  0  0  0  0  0
   -1.3158    0.9602   -0.9809 H   0  0  0  0  0  0  0  0  0  0  0  0
    0.8757    0.0616   -0.1992 H   0  0  0  0  0  0  0  0  0  0  0  0
    0.0997   -1.0712   -1.2825 H   0  0  0  0  0  0  0  0  0  0  0  0
   -0.7198   -2.4022    0.6850 H   0  0  0  0  0  0  0  0  0  0  0  0
    1.0395   -2.2596    0.6989 H   0  0  0  0  0  0  0  0  0  0  0  0
    0.0624   -1.2603    1.7770 H   0  0  0  0  0  0  0  0  0  0  0  0
  1  2  1  0
  1  4  1  0
  1  5  1  0
  1  6  1  0
  2  3  1  0
  2  7  1  0
  2  8  1  0
  3  9  1  0
  3 10  1  0
  3 11  1  0
M  END
>  <reaction>  (3) 
rmg_rxn_511

>  <mol_properties>  (3) 
{"0": {"label": "a_hydrogen", "atom_type": "H0"}, "1": {"label": "acceptor", "atom_type": "Cs"}}

>  <type>  (3) 
r2h

$$$$

     RDKit          3D

 19 17  0  0  0  0  0  0  0  0999 V2000
   -0.5402   -1.5805   -2.8063 C   0  0  0  0  0  0  0  0  0  0  0  0
    0.4263   -1.4236   -1.6833 C   0  0  0  0  0  0  0  0  0  0  0  0
    0.3925   -0.3887   -0.9509 N   0  0  0  0  0  0  0  0  0  0  0  0
    1.3060   -0.3559    0.0264 O   0  0  0  0  0  0  0  0  0  0  0  0
   -0.0125   -1.6790   -3.7581 H   0  0  0  0  0  0  0  0  0  0  0  0
   -1.1403   -2.4843   -2.6752 H   0  0  0  0  0  0  0  0  0  0  0  0
   -1.2044   -0.7192   -2.8575 H   0  0  0  0  0  0  0  0  0  0  0  0
    1.1631   -2.2059   -1.4972 H   0  0  0  0  0  0  0  0  0  0  0  0
    1.1123    0.6937    0.5970 H   0  0  0  0  0  0  0  0  0  0  0  0
    0.7960    1.8196    1.1754 C   0  0  0  0  0  3  0  0  0  0  0  0
    0.0078    1.4845    2.4085 C   0  0  0  0  0  0  0  0  0  0  0  0
   -1.3000    0.7609    2.1126 C   0  0  0  0  0  0  0  0  0  0  0  0
    1.7661    2.2841    1.3436 H   0  0  0  0  0  0  0  0  0  0  0  0
    0.2326    2.2916    0.3705 H   0  0  0  0  0  0  0  0  0  0  0  0
    0.6238    0.8854    3.0847 H   0  0  0  0  0  0  0  0  0  0  0  0
   -0.2021    2.4189    2.9461 H   0  0  0  0  0  0  0  0  0  0  0  0
   -1.1114   -0.1880    1.6090 H   0  0  0  0  0  0  0  0  0  0  0  0
   -1.8520    0.5575    3.0311 H   0  0  0  0  0  0  0  0  0  0  0  0
   -1.9380    1.3603    1.4597 H   0  0  0  0  0  0  0  0  0  0  0  0
  1  2  1  0
  1  5  1  0
  1  6  1  0
  1  7  1  0
  2  3  2  3
  2  8  1  0
  3  4  1  0
  4  9  1  0
 10 11  1  0
 10 13  1  0
 10 14  1  0
 11 12  1  0
 11 15  1  0
 11 16  1  0
 12 17  1  0
 12 18  1  0
 12 19  1  0
M  RAD  1  10   2
M  END
>  <reaction>  (4) 
rmg_rxn_511

>  <mol_properties>  (4) 
{"2": {"label": "*0", "atom_type": "N3d"}, "3": {"label": "*1", "atom_type": "O2s"}, "8": {"label": "*2", "atom_type": "H0"}, "9": {"label": "*3", "atom_type": "Cs"}, "10": {"label": "*4", "atom_type": "Cs"}}

>  <type>  (4) 
ts

$$$$

     RDKit          3D

 19 17  0  0  0  0  0  0  0  0999 V2000
    0.5094   -1.8239   -3.0637 C   0  0  0  0  0  0  0  0  0  0  0  0
    0.5094   -1.8239   -1.5751 C   0  0  0  0  0  0  0  0  0  0  0  0
    0.5094   -0.7318   -0.9383 N   0  0  0  0  0  0  0  0  0  0  0  0
    0.5094   -0.9365    0.4349 O   0  0  0  0  0  0  0  0  0  0  0  0
    1.3888   -2.3477   -3.4455 H   0  0  0  0  0  0  0  0  0  0  0  0
   -0.3700   -2.3477   -3.4455 H   0  0  0  0  0  0  0  0  0  0  0  0
    0.5094   -0.8042   -3.4452 H   0  0  0  0  0  0  0  0  0  0  0  0
    0.5094   -2.7714   -1.0349 H   0  0  0  0  0  0  0  0  0  0  0  0
    0.5094    0.1332    0.8583 H   0  0  0  0  0  0  0  0  0  0  0  0
    0.5094    1.3524    1.3408 C   0  0  0  0  0  3  0  0  0  0  0  0
   -0.7227    1.5970    2.2026 C   0  0  0  0  0  0  0  0  0  0  0  0
   -1.8199    2.3470    1.4582 C   0  0  0  0  0  0  0  0  0  0  0  0
    1.2834    0.8146    1.8909 H   0  0  0  0  0  0  0  0  0  0  0  0
    0.9385    2.2963    0.9960 H   0  0  0  0  0  0  0  0  0  0  0  0
   -1.1134    0.6399    2.5591 H   0  0  0  0  0  0  0  0  0  0  0  0
   -0.4368    2.1613    3.0946 H   0  0  0  0  0  0  0  0  0  0  0  0
   -2.1461    1.7888    0.5773 H   0  0  0  0  0  0  0  0  0  0  0  0
   -2.6932    2.5126    2.0914 H   0  0  0  0  0  0  0  0  0  0  0  0
   -1.4642    3.3223    1.1171 H   0  0  0  0  0  0  0  0  0  0  0  0
  1  2  1  0
  1  5  1  0
  1  6  1  0
  1  7  1  0
  2  3  2  3
  2  8  1  0
  3  4  1  0
  4  9  1  0
 10 11  1  0
 10 13  1  0
 10 14  1  0
 11 12  1  0
 11 15  1  0
 11 16  1  0
 12 17  1  0
 12 18  1  0
 12 19  1  0
M  RAD  1  10   2
M  END
>  <reaction>  (5) 
rmg_rxn_511

>  <mol_properties>  (5) 
{"2": {"label": "*0", "atom_type": "N3d"}, "3": {"label": "*1", "atom_type": "O2s"}, "8": {"label": "*2", "atom_type": "H0"}, "9": {"label": "*3", "atom_type": "Cs"}, "10": {"label": "*4", "atom_type": "Cs"}}

>  <type>  (5) 
unop_1

>  <geom_source>  (5) 
Heuristics

$$$$

     RDKit          3D

 19 17  0  0  0  0  0  0  0  0999 V2000
    0.0780   -1.9786   -2.4806 C   0  0  0  0  0  0  0  0  0  0  0  0
    0.0780   -1.9786   -0.9920 C   0  0  0  0  0  0  0  0  0  0  0  0
    0.0780   -0.8866   -0.3552 N   0  0  0  0  0  0  0  0  0  0  0  0
    0.0780   -1.0913    1.0180 O   0  0  0  0  0  0  0  0  0  0  0  0
    0.9574   -2.5025   -2.8624 H   0  0  0  0  0  0  0  0  0  0  0  0
   -0.8015   -2.5025   -2.8624 H   0  0  0  0  0  0  0  0  0  0  0  0
    0.0780   -0.9590   -2.8621 H   0  0  0  0  0  0  0  0  0  0  0  0
    0.0780   -2.9262   -0.4518 H   0  0  0  0  0  0  0  0  0  0  0  0
    0.0780   -0.0216    1.4414 H   0  0  0  0  0  0  0  0  0  0  0  0
    0.0780    1.1977    1.9239 C   0  0  0  0  0  3  0  0  0  0  0  0
   -0.6334    2.1574    0.9787 C   0  0  0  0  0  0  0  0  0  0  0  0
    0.2294    2.5556   -0.2119 C   0  0  0  0  0  0  0  0  0  0  0  0
   -0.5554    0.9243    2.7696 H   0  0  0  0  0  0  0  0  0  0  0  0
    0.9917    1.6462    2.3214 H   0  0  0  0  0  0  0  0  0  0  0  0
   -1.5581    1.6968    0.6203 H   0  0  0  0  0  0  0  0  0  0  0  0
   -0.9322    3.0546    1.5280 H   0  0  0  0  0  0  0  0  0  0  0  0
    0.5171    1.6785   -0.7966 H   0  0  0  0  0  0  0  0  0  0  0  0
   -0.2968    3.2426   -0.8767 H   0  0  0  0  0  0  0  0  0  0  0  0
    1.1479    3.0470    0.1183 H   0  0  0  0  0  0  0  0  0  0  0  0
  1  2  1  0
  1  5  1  0
  1  6  1  0
  1  7  1  0
  2  3  2  3
  2  8  1  0
  3  4  1  0
  4  9  1  0
 10 11  1  0
 10 13  1  0
 10 14  1  0
 11 12  1  0
 11 15  1  0
 11 16  1  0
 12 17  1  0
 12 18  1  0
 12 19  1  0
M  RAD  1  10   2
M  END
>  <reaction>  (6) 
rmg_rxn_511

>  <mol_properties>  (6) 
{"2": {"label": "*0", "atom_type": "N3d"}, "3": {"label": "*1", "atom_type": "O2s"}, "8": {"label": "*2", "atom_type": "H0"}, "9": {"label": "*3", "atom_type": "Cs"}, "10": {"label": "*4", "atom_type": "Cs"}}

>  <type>  (6) 
unop_2

>  <geom_source>  (6) 
Heuristics

$$$$

     RDKit          3D

 19 17  0  0  0  0  0  0  0  0999 V2000
    0.4189   -1.6964   -3.2883 C   0  0  0  0  0  0  0  0  0  0  0  0
    0.4189   -1.6964   -1.7996 C   0  0  0  0  0  0  0  0  0  0  0  0
    0.4189   -0.6043   -1.1628 N   0  0  0  0  0  0  0  0  0  0  0  0
    0.4189   -0.8090    0.2104 O   0  0  0  0  0  0  0  0  0  0  0  0
    1.2983   -2.2202   -3.6701 H   0  0  0  0  0  0  0  0  0  0  0  0
   -0.4605   -2.2202   -3.6701 H   0  0  0  0  0  0  0  0  0  0  0  0
    0.4189   -0.6767   -3.6697 H   0  0  0  0  0  0  0  0  0  0  0  0
    0.4189   -2.6439   -1.2595 H   0  0  0  0  0  0  0  0  0  0  0  0
    0.4189    0.2607    0.6338 H   0  0  0  0  0  0  0  0  0  0  0  0
    0.4189    1.4799    1.1163 C   0  0  0  0  0  3  0  0  0  0  0  0
   -0.2924    1.5328    2.4623 C   0  0  0  0  0  0  0  0  0  0  0  0
   -1.7904    1.7731    2.3252 C   0  0  0  0  0  0  0  0  0  0  0  0
    1.4899    1.3072    1.2351 H   0  0  0  0  0  0  0  0  0  0  0  0
    0.2896    2.4168    0.5690 H   0  0  0  0  0  0  0  0  0  0  0  0
   -0.1217    0.5968    3.0013 H   0  0  0  0  0  0  0  0  0  0  0  0
    0.1483    2.3233    3.0761 H   0  0  0  0  0  0  0  0  0  0  0  0
   -2.2615    0.9791    1.7407 H   0  0  0  0  0  0  0  0  0  0  0  0
   -2.2819    1.8078    3.2990 H   0  0  0  0  0  0  0  0  0  0  0  0
   -1.9893    2.7193    1.8160 H   0  0  0  0  0  0  0  0  0  0  0  0
  1  2  1  0
  1  5  1  0
  1  6  1  0
  1  7  1  0
  2  3  2  3
  2  8  1  0
  3  4  1  0
  4  9  1  0
 10 11  1  0
 10 13  1  0
 10 14  1  0
 11 12  1  0
 11 15  1  0
 11 16  1  0
 12 17  1  0
 12 18  1  0
 12 19  1  0
M  RAD  1  10   2
M  END
>  <reaction>  (7) 
rmg_rxn_511

>  <mol_properties>  (7) 
{"2": {"label": "*0", "atom_type": "N3d"}, "3": {"label": "*1", "atom_type": "O2s"}, "8": {"label": "*2", "atom_type": "H0"}, "9": {"label": "*3", "atom_type": "Cs"}, "10": {"label": "*4", "atom_type": "Cs"}}

>  <type>  (7) 
unop_3

>  <geom_source>  (7) 
Heuristics

$$$$

     RDKit          3D

 19 17  0  0  0  0  0  0  0  0999 V2000
   -0.5286   -1.7295   -2.7551 C   0  0  0  0  0  0  0  0  0  0  0  0
   -0.5286   -1.7295   -1.2665 C   0  0  0  0  0  0  0  0  0  0  0  0
   -0.5286   -0.6374   -0.6297 N   0  0  0  0  0  0  0  0  0  0  0  0
   -0.5286   -0.8421    0.7435 O   0  0  0  0  0  0  0  0  0  0  0  0
    0.3509   -2.2533   -3.1369 H   0  0  0  0  0  0  0  0  0  0  0  0
   -1.4080   -2.2533   -3.1369 H   0  0  0  0  0  0  0  0  0  0  0  0
   -0.5286   -0.7098   -3.1365 H   0  0  0  0  0  0  0  0  0  0  0  0
   -0.5286   -2.6770   -0.7263 H   0  0  0  0  0  0  0  0  0  0  0  0
   -0.5286    0.2276    1.1669 H   0  0  0  0  0  0  0  0  0  0  0  0
   -0.5286    1.4468    1.6494 C   0  0  0  0  0  3  0  0  0  0  0  0
    0.7035    2.2150    1.1884 C   0  0  0  0  0  0  0  0  0  0  0  0
    1.8928    1.3044    0.9108 C   0  0  0  0  0  0  0  0  0  0  0  0
   -1.3690    2.1155    1.8431 H   0  0  0  0  0  0  0  0  0  0  0  0
   -0.3225    0.8934    2.5688 H   0  0  0  0  0  0  0  0  0  0  0  0
    0.4616    2.7832    0.2860 H   0  0  0  0  0  0  0  0  0  0  0  0
    0.9786    2.9516    1.9484 H   0  0  0  0  0  0  0  0  0  0  0  0
    1.6540    0.5767    0.1314 H   0  0  0  0  0  0  0  0  0  0  0  0
    2.7647    1.8723    0.5821 H   0  0  0  0  0  0  0  0  0  0  0  0
    2.1751    0.7465    1.8070 H   0  0  0  0  0  0  0  0  0  0  0  0
  1  2  1  0
  1  5  1  0
  1  6  1  0
  1  7  1  0
  2  3  2  3
  2  8  1  0
  3  4  1  0
  4  9  1  0
 10 11  1  0
 10 13  1  0
 10 14  1  0
 11 12  1  0
 11 15  1  0
 11 16  1  0
 12 17  1  0
 12 18  1  0
 12 19  1  0
M  RAD  1  10   2
M  END
>  <reaction>  (8) 
rmg_rxn_511

>  <mol_properties>  (8) 
{"2": {"label": "*0", "atom_type": "N3d"}, "3": {"label": "*1", "atom_type": "O2s"}, "8": {"label": "*2", "atom_type": "H0"}, "9": {"label": "*3", "atom_type": "Cs"}, "10": {"label": "*4", "atom_type": "Cs"}}

>  <type>  (8) 
unop_4

>  <geom_source>  (8) 
Heuristics

$$$$

     RDKit          3D

 19 17  0  0  0  0  0  0  0  0999 V2000
    0.1788   -1.5379   -3.4419 C   0  0  0  0  0  0  0  0  0  0  0  0
    0.1788   -1.5379   -1.9532 C   0  0  0  0  0  0  0  0  0  0  0  0
    0.1788   -0.4458   -1.3164 N   0  0  0  0  0  0  0  0  0  0  0  0
    0.1788   -0.6505    0.0568 O   0  0  0  0  0  0  0  0  0  0  0  0
    1.0582   -2.0617   -3.8237 H   0  0  0  0  0  0  0  0  0  0  0  0
   -0.7006   -2.0617   -3.8237 H   0  0  0  0  0  0  0  0  0  0  0  0
    0.1788   -0.5182   -3.8233 H   0  0  0  0  0  0  0  0  0  0  0  0
    0.1788   -2.4854   -1.4131 H   0  0  0  0  0  0  0  0  0  0  0  0
    0.1788    0.4192    0.4801 H   0  0  0  0  0  0  0  0  0  0  0  0
    0.1788    1.6384    0.9627 C   0  0  0  0  0  3  0  0  0  0  0  0
    0.1788    1.6212    2.4859 C   0  0  0  0  0  0  0  0  0  0  0  0
   -1.0354    0.9062    3.0646 C   0  0  0  0  0  0  0  0  0  0  0  0
    1.0554    2.1544    0.5673 H   0  0  0  0  0  0  0  0  0  0  0  0
   -0.7096    2.1450    0.5777 H   0  0  0  0  0  0  0  0  0  0  0  0
    1.0914    1.1371    2.8445 H   0  0  0  0  0  0  0  0  0  0  0  0
    0.2100    2.6478    2.8615 H   0  0  0  0  0  0  0  0  0  0  0  0
   -1.0737   -0.1329    2.7287 H   0  0  0  0  0  0  0  0  0  0  0  0
   -1.0176    0.9043    4.1557 H   0  0  0  0  0  0  0  0  0  0  0  0
   -1.9621    1.3897    2.7459 H   0  0  0  0  0  0  0  0  0  0  0  0
  1  2  1  0
  1  5  1  0
  1  6  1  0
  1  7  1  0
  2  3  2  3
  2  8  1  0
  3  4  1  0
  4  9  1  0
 10 11  1  0
 10 13  1  0
 10 14  1  0
 11 12  1  0
 11 15  1  0
 11 16  1  0
 12 17  1  0
 12 18  1  0
 12 19  1  0
M  RAD  1  10   2
M  END
>  <reaction>  (9) 
rmg_rxn_511

>  <mol_properties>  (9) 
{"2": {"label": "*0", "atom_type": "N3d"}, "3": {"label": "*1", "atom_type": "O2s"}, "8": {"label": "*2", "atom_type": "H0"}, "9": {"label": "*3", "atom_type": "Cs"}, "10": {"label": "*4", "atom_type": "Cs"}}

>  <type>  (9) 
unop_5

>  <geom_source>  (9) 
Heuristics

$$$$

     RDKit          3D

 19 17  0  0  0  0  0  0  0  0999 V2000
   -0.5553   -1.6214   -2.9979 C   0  0  0  0  0  0  0  0  0  0  0  0
   -0.5553   -1.6214   -1.5092 C   0  0  0  0  0  0  0  0  0  0  0  0
   -0.5553   -0.5293   -0.8724 N   0  0  0  0  0  0  0  0  0  0  0  0
   -0.5553   -0.7340    0.5008 O   0  0  0  0  0  0  0  0  0  0  0  0
    0.3241   -2.1452   -3.3797 H   0  0  0  0  0  0  0  0  0  0  0  0
   -1.4347   -2.1452   -3.3797 H   0  0  0  0  0  0  0  0  0  0  0  0
   -0.5553   -0.6017   -3.3793 H   0  0  0  0  0  0  0  0  0  0  0  0
   -0.5553   -2.5689   -0.9691 H   0  0  0  0  0  0  0  0  0  0  0  0
   -0.5553    0.3357    0.9242 H   0  0  0  0  0  0  0  0  0  0  0  0
   -0.5553    1.5550    1.4067 C   0  0  0  0  0  3  0  0  0  0  0  0
    0.8673    2.0613    1.6071 C   0  0  0  0  0  0  0  0  0  0  0  0
    1.8860    0.9317    1.6896 C   0  0  0  0  0  0  0  0  0  0  0  0
   -1.2698    2.3779    1.3501 H   0  0  0  0  0  0  0  0  0  0  0  0
   -0.8583    0.9048    2.2311 H   0  0  0  0  0  0  0  0  0  0  0  0
    1.1339    2.7325    0.7860 H   0  0  0  0  0  0  0  0  0  0  0  0
    0.9148    2.6617    2.5199 H   0  0  0  0  0  0  0  0  0  0  0  0
    1.8807    0.3333    0.7753 H   0  0  0  0  0  0  0  0  0  0  0  0
    2.8981    1.3139    1.8331 H   0  0  0  0  0  0  0  0  0  0  0  0
    1.6599    0.2619    2.5229 H   0  0  0  0  0  0  0  0  0  0  0  0
  1  2  1  0
  1  5  1  0
  1  6  1  0
  1  7  1  0
  2  3  2  3
  2  8  1  0
  3  4  1  0
  4  9  1  0
 10 11  1  0
 10 13  1  0
 10 14  1  0
 11 12  1  0
 11 15  1  0
 11 16  1  0
 12 17  1  0
 12 18  1  0
 12 19  1  0
M  RAD  1  10   2
M  END
>  <reaction>  (10) 
rmg_rxn_511

>  <mol_properties>  (10) 
{"2": {"label": "*0", "atom_type": "N3d"}, "3": {"label": "*1", "atom_type": "O2s"}, "8": {"label": "*2", "atom_type": "H0"}, "9": {"label": "*3", "atom_type": "Cs"}, "10": {"label": "*4", "atom_type": "Cs"}}

>  <type>  (10) 
unop_6

>  <geom_source>  (10) 
Heuristics

$$$$

     RDKit          3D

 19 17  0  0  0  0  0  0  0  0999 V2000
   -0.4423   -1.5230   -3.2451 C   0  0  0  0  0  0  0  0  0  0  0  0
   -0.4423   -1.5230   -1.7564 C   0  0  0  0  0  0  0  0  0  0  0  0
   -0.4423   -0.4309   -1.1196 N   0  0  0  0  0  0  0  0  0  0  0  0
   -0.4423   -0.6356    0.2536 O   0  0  0  0  0  0  0  0  0  0  0  0
    0.4371   -2.0468   -3.6269 H   0  0  0  0  0  0  0  0  0  0  0  0
   -1.3217   -2.0468   -3.6269 H   0  0  0  0  0  0  0  0  0  0  0  0
   -0.4423   -0.5033   -3.6265 H   0  0  0  0  0  0  0  0  0  0  0  0
   -0.4423   -2.4705   -1.2163 H   0  0  0  0  0  0  0  0  0  0  0  0
   -0.4423    0.4341    0.6769 H   0  0  0  0  0  0  0  0  0  0  0  0
   -0.4423    1.6533    1.1595 C   0  0  0  0  0  3  0  0  0  0  0  0
    0.7898    1.8979    2.0213 C   0  0  0  0  0  0  0  0  0  0  0  0
    1.4313    0.6049    2.5082 C   0  0  0  0  0  0  0  0  0  0  0  0
   -0.8873    2.5904    0.8206 H   0  0  0  0  0  0  0  0  0  0  0  0
   -1.2048    1.1025    1.7155 H   0  0  0  0  0  0  0  0  0  0  0  0
    1.5230    2.4763    1.4524 H   0  0  0  0  0  0  0  0  0  0  0  0
    0.5156    2.5147    2.8817 H   0  0  0  0  0  0  0  0  0  0  0  0
    1.7432   -0.0177    1.6661 H   0  0  0  0  0  0  0  0  0  0  0  0
    2.3113    0.8005    3.1232 H   0  0  0  0  0  0  0  0  0  0  0  0
    0.7278    0.0210    3.1067 H   0  0  0  0  0  0  0  0  0  0  0  0
  1  2  1  0
  1  5  1  0
  1  6  1  0
  1  7  1  0
  2  3  2  3
  2  8  1  0
  3  4  1  0
  4  9  1  0
 10 11  1  0
 10 13  1  0
 10 14  1  0
 11 12  1  0
 11 15  1  0
 11 16  1  0
 12 17  1  0
 12 18  1  0
 12 19  1  0
M  RAD  1  10   2
M  END
>  <reaction>  (11) 
rmg_rxn_511

>  <mol_properties>  (11) 
{"2": {"label": "*0", "atom_type": "N3d"}, "3": {"label": "*1", "atom_type": "O2s"}, "8": {"label": "*2", "atom_type": "H0"}, "9": {"label": "*3", "atom_type": "Cs"}, "10": {"label": "*4", "atom_type": "Cs"}}

>  <type>  (11) 
unop_7

>  <geom_source>  (11) 
Heuristics

$$$$

     RDKit          3D

 19 17  0  0  0  0  0  0  0  0999 V2000
    0.4745   -1.9198   -2.8180 C   0  0  0  0  0  0  0  0  0  0  0  0
    0.4745   -1.9198   -1.3294 C   0  0  0  0  0  0  0  0  0  0  0  0
    0.4745   -0.8277   -0.6926 N   0  0  0  0  0  0  0  0  0  0  0  0
    0.4745   -1.0324    0.6806 O   0  0  0  0  0  0  0  0  0  0  0  0
    1.3539   -2.4436   -3.1998 H   0  0  0  0  0  0  0  0  0  0  0  0
   -0.4050   -2.4436   -3.1998 H   0  0  0  0  0  0  0  0  0  0  0  0
    0.4745   -0.9001   -3.1994 H   0  0  0  0  0  0  0  0  0  0  0  0
    0.4745   -2.8673   -0.7892 H   0  0  0  0  0  0  0  0  0  0  0  0
    0.4745    0.0373    1.1040 H   0  0  0  0  0  0  0  0  0  0  0  0
    0.4745    1.2566    1.5866 C   0  0  0  0  0  3  0  0  0  0  0  0
   -0.9482    1.7629    1.7870 C   0  0  0  0  0  0  0  0  0  0  0  0
   -1.4178    2.6594    0.6484 C   0  0  0  0  0  0  0  0  0  0  0  0
    0.7925    0.6168    2.4115 H   0  0  0  0  0  0  0  0  0  0  0  0
    1.1792    2.0888    1.5175 H   0  0  0  0  0  0  0  0  0  0  0  0
   -1.6274    0.9114    1.8836 H   0  0  0  0  0  0  0  0  0  0  0  0
   -1.0098    2.3112    2.7311 H   0  0  0  0  0  0  0  0  0  0  0  0
   -1.3951    2.1249   -0.3044 H   0  0  0  0  0  0  0  0  0  0  0  0
   -2.4379    3.0118    0.8098 H   0  0  0  0  0  0  0  0  0  0  0  0
   -0.7726    3.5358    0.5497 H   0  0  0  0  0  0  0  0  0  0  0  0
  1  2  1  0
  1  5  1  0
  1  6  1  0
  1  7  1  0
  2  3  2  3
  2  8  1  0
  3  4  1  0
  4  9  1  0
 10 11  1  0
 10 13  1  0
 10 14  1  0
 11 12  1  0
 11 15  1  0
 11 16  1  0
 12 17  1  0
 12 18  1  0
 12 19  1  0
M  RAD  1  10   2
M  END
>  <reaction>  (12) 
rmg_rxn_511

>  <mol_properties>  (12) 
{"2": {"label": "*0", "atom_type": "N3d"}, "3": {"label": "*1", "atom_type": "O2s"}, "8": {"label": "*2", "atom_type": "H0"}, "9": {"label": "*3", "atom_type": "Cs"}, "10": {"label": "*4", "atom_type": "Cs"}}

>  <type>  (12) 
unop_8

>  <geom_source>  (12) 
Heuristics

$$$$

     RDKit          3D

 19 17  0  0  0  0  0  0  0  0999 V2000
   -0.3923   -1.8325   -2.5687 C   0  0  0  0  0  0  0  0  0  0  0  0
   -0.3923   -1.8325   -1.0801 C   0  0  0  0  0  0  0  0  0  0  0  0
   -0.3923   -0.7404   -0.4433 N   0  0  0  0  0  0  0  0  0  0  0  0
   -0.3923   -0.9451    0.9299 O   0  0  0  0  0  0  0  0  0  0  0  0
    0.4871   -2.3563   -2.9505 H   0  0  0  0  0  0  0  0  0  0  0  0
   -1.2717   -2.3563   -2.9505 H   0  0  0  0  0  0  0  0  0  0  0  0
   -0.3923   -0.8128   -2.9502 H   0  0  0  0  0  0  0  0  0  0  0  0
   -0.3923   -2.7800   -0.5399 H   0  0  0  0  0  0  0  0  0  0  0  0
   -0.3923    0.1246    1.3533 H   0  0  0  0  0  0  0  0  0  0  0  0
   -0.3923    1.3438    1.8358 C   0  0  0  0  0  3  0  0  0  0  0  0
    0.3191    2.3036    0.8906 C   0  0  0  0  0  0  0  0  0  0  0  0
    1.5904    1.7092    0.2983 C   0  0  0  0  0  0  0  0  0  0  0  0
   -1.2996    1.7871    2.2496 H   0  0  0  0  0  0  0  0  0  0  0  0
    0.2554    1.0662    2.6709 H   0  0  0  0  0  0  0  0  0  0  0  0
   -0.3602    2.5890    0.0826 H   0  0  0  0  0  0  0  0  0  0  0  0
    0.5630    3.2263    1.4245 H   0  0  0  0  0  0  0  0  0  0  0  0
    1.3700    0.8008   -0.2676 H   0  0  0  0  0  0  0  0  0  0  0  0
    2.0852    2.4108   -0.3754 H   0  0  0  0  0  0  0  0  0  0  0  0
    2.3006    1.4431    1.0849 H   0  0  0  0  0  0  0  0  0  0  0  0
  1  2  1  0
  1  5  1  0
  1  6  1  0
  1  7  1  0
  2  3  2  3
  2  8  1  0
  3  4  1  0
  4  9  1  0
 10 11  1  0
 10 13  1  0
 10 14  1  0
 11 12  1  0
 11 15  1  0
 11 16  1  0
 12 17  1  0
 12 18  1  0
 12 19  1  0
M  RAD  1  10   2
M  END
>  <reaction>  (13) 
rmg_rxn_511

>  <mol_properties>  (13) 
{"2": {"label": "*0", "atom_type": "N3d"}, "3": {"label": "*1", "atom_type": "O2s"}, "8": {"label": "*2", "atom_type": "H0"}, "9": {"label": "*3", "atom_type": "Cs"}, "10": {"label": "*4", "atom_type": "Cs"}}

>  <type>  (13) 
unop_9

>  <geom_source>  (13) 
Heuristics

$$$$

     RDKit          3D

 19 17  0  0  0  0  0  0  0  0999 V2000
    0.3182   -1.9772   -2.6058 C   0  0  0  0  0  0  0  0  0  0  0  0
    0.3182   -1.9772   -1.1171 C   0  0  0  0  0  0  0  0  0  0  0  0
    0.3182   -0.8852   -0.4803 N   0  0  0  0  0  0  0  0  0  0  0  0
    0.3182   -1.0898    0.8929 O   0  0  0  0  0  0  0  0  0  0  0  0
    1.1976   -2.5011   -2.9876 H   0  0  0  0  0  0  0  0  0  0  0  0
   -0.5612   -2.5011   -2.9876 H   0  0  0  0  0  0  0  0  0  0  0  0
    0.3182   -0.9575   -2.9872 H   0  0  0  0  0  0  0  0  0  0  0  0
    0.3182   -2.9247   -0.5770 H   0  0  0  0  0  0  0  0  0  0  0  0
    0.3182   -0.0202    1.3162 H   0  0  0  0  0  0  0  0  0  0  0  0
    0.3182    1.1991    1.7988 C   0  0  0  0  0  3  0  0  0  0  0  0
   -0.9138    1.9672    1.3378 C   0  0  0  0  0  0  0  0  0  0  0  0
   -0.6749    2.7389    0.0463 C   0  0  0  0  0  0  0  0  0  0  0  0
    0.1276    0.6533    2.7244 H   0  0  0  0  0  0  0  0  0  0  0  0
    1.1571    1.8764    1.9764 H   0  0  0  0  0  0  0  0  0  0  0  0
   -1.7454    1.2711    1.1973 H   0  0  0  0  0  0  0  0  0  0  0  0
   -1.2257    2.6606    2.1237 H   0  0  0  0  0  0  0  0  0  0  0  0
   -0.3912    2.0642   -0.7651 H   0  0  0  0  0  0  0  0  0  0  0  0
   -1.5679    3.2821   -0.2675 H   0  0  0  0  0  0  0  0  0  0  0  0
    0.1326    3.4648    0.1687 H   0  0  0  0  0  0  0  0  0  0  0  0
  1  2  1  0
  1  5  1  0
  1  6  1  0
  1  7  1  0
  2  3  2  3
  2  8  1  0
  3  4  1  0
  4  9  1  0
 10 11  1  0
 10 13  1  0
 10 14  1  0
 11 12  1  0
 11 15  1  0
 11 16  1  0
 12 17  1  0
 12 18  1  0
 12 19  1  0
M  RAD  1  10   2
M  END
>  <reaction>  (14) 
rmg_rxn_511

>  <mol_properties>  (14) 
{"2": {"label": "*0", "atom_type": "N3d"}, "3": {"label": "*1", "atom_type": "O2s"}, "8": {"label": "*2", "atom_type": "H0"}, "9": {"label": "*3", "atom_type": "Cs"}, "10": {"label": "*4", "atom_type": "Cs"}}

>  <type>  (14) 
unop_10

>  <geom_source>  (14) 
Heuristics

$$$$

     RDKit          3D

 19 17  0  0  0  0  0  0  0  0999 V2000
   -0.1777   -1.4702   -3.4246 C   0  0  0  0  0  0  0  0  0  0  0  0
   -0.1777   -1.4702   -1.9359 C   0  0  0  0  0  0  0  0  0  0  0  0
   -0.1777   -0.3781   -1.2992 N   0  0  0  0  0  0  0  0  0  0  0  0
   -0.1777   -0.5828    0.0740 O   0  0  0  0  0  0  0  0  0  0  0  0
    0.7017   -1.9940   -3.8064 H   0  0  0  0  0  0  0  0  0  0  0  0
   -1.0572   -1.9940   -3.8064 H   0  0  0  0  0  0  0  0  0  0  0  0
   -0.1777   -0.4505   -3.8060 H   0  0  0  0  0  0  0  0  0  0  0  0
   -0.1777   -2.4177   -1.3958 H   0  0  0  0  0  0  0  0  0  0  0  0
   -0.1777    0.4869    0.4974 H   0  0  0  0  0  0  0  0  0  0  0  0
   -0.1777    1.7061    0.9800 C   0  0  0  0  0  3  0  0  0  0  0  0
    0.5336    1.7591    2.3260 C   0  0  0  0  0  0  0  0  0  0  0  0
    0.3942    0.4633    3.1146 C   0  0  0  0  0  0  0  0  0  0  0  0
   -0.0666    2.6424    0.4304 H   0  0  0  0  0  0  0  0  0  0  0  0
   -1.2465    1.5192    1.1100 H   0  0  0  0  0  0  0  0  0  0  0  0
    1.5935    1.9775    2.1692 H   0  0  0  0  0  0  0  0  0  0  0  0
    0.1349    2.5890    2.9160 H   0  0  0  0  0  0  0  0  0  0  0  0
    0.8136   -0.3791    2.5593 H   0  0  0  0  0  0  0  0  0  0  0  0
    0.9097    0.5206    4.0748 H   0  0  0  0  0  0  0  0  0  0  0  0
   -0.6565    0.2372    3.3120 H   0  0  0  0  0  0  0  0  0  0  0  0
  1  2  1  0
  1  5  1  0
  1  6  1  0
  1  7  1  0
  2  3  2  3
  2  8  1  0
  3  4  1  0
  4  9  1  0
 10 11  1  0
 10 13  1  0
 10 14  1  0
 11 12  1  0
 11 15  1  0
 11 16  1  0
 12 17  1  0
 12 18  1  0
 12 19  1  0
M  RAD  1  10   2
M  END
>  <reaction>  (15) 
rmg_rxn_511

>  <mol_properties>  (15) 
{"2": {"label": "*0", "atom_type": "N3d"}, "3": {"label": "*1", "atom_type": "O2s"}, "8": {"label": "*2", "atom_type": "H0"}, "9": {"label": "*3", "atom_type": "Cs"}, "10": {"label": "*4", "atom_type": "Cs"}}

>  <type>  (15) 
unop_11

>  <geom_source>  (15) 
Heuristics

$$$$

     RDKit          3D

 19 17  0  0  0  0  0  0  0  0999 V2000
   -0.1788   -1.9224   -2.4702 C   0  0  0  0  0  0  0  0  0  0  0  0
   -0.1788   -1.9224   -0.9816 C   0  0  0  0  0  0  0  0  0  0  0  0
   -0.1788   -0.8304   -0.3448 N   0  0  0  0  0  0  0  0  0  0  0  0
   -0.1788   -1.0350    1.0284 O   0  0  0  0  0  0  0  0  0  0  0  0
    0.7006   -2.4463   -2.8520 H   0  0  0  0  0  0  0  0  0  0  0  0
   -1.0582   -2.4463   -2.8520 H   0  0  0  0  0  0  0  0  0  0  0  0
   -0.1788   -0.9027   -2.8517 H   0  0  0  0  0  0  0  0  0  0  0  0
   -0.1788   -2.8699   -0.4414 H   0  0  0  0  0  0  0  0  0  0  0  0
   -0.1788    0.0346    1.4518 H   0  0  0  0  0  0  0  0  0  0  0  0
   -0.1788    1.2539    1.9343 C   0  0  0  0  0  3  0  0  0  0  0  0
   -0.1788    2.2838    0.8119 C   0  0  0  0  0  0  0  0  0  0  0  0
    1.0354    2.1585   -0.0994 C   0  0  0  0  0  0  0  0  0  0  0  0
   -1.0554    1.3595    2.5757 H   0  0  0  0  0  0  0  0  0  0  0  0
    0.7096    1.3598    2.5617 H   0  0  0  0  0  0  0  0  0  0  0  0
   -1.0914    2.1762    0.2191 H   0  0  0  0  0  0  0  0  0  0  0  0
   -0.2100    3.2893    1.2405 H   0  0  0  0  0  0  0  0  0  0  0  0
    1.0737    1.1709   -0.5656 H   0  0  0  0  0  0  0  0  0  0  0  0
    1.0176    2.9038   -0.8963 H   0  0  0  0  0  0  0  0  0  0  0  0
    1.9621    2.2929    0.4639 H   0  0  0  0  0  0  0  0  0  0  0  0
  1  2  1  0
  1  5  1  0
  1  6  1  0
  1  7  1  0
  2  3  2  3
  2  8  1  0
  3  4  1  0
  4  9  1  0
 10 11  1  0
 10 13  1  0
 10 14  1  0
 11 12  1  0
 11 15  1  0
 11 16  1  0
 12 17  1  0
 12 18  1  0
 12 19  1  0
M  RAD  1  10   2
M  END
>  <reaction>  (16) 
rmg_rxn_511

>  <mol_properties>  (16) 
{"2": {"label": "*0", "atom_type": "N3d"}, "3": {"label": "*1", "atom_type": "O2s"}, "8": {"label": "*2", "atom_type": "H0"}, "9": {"label": "*3", "atom_type": "Cs"}, "10": {"label": "*4", "atom_type": "Cs"}}

>  <type>  (16) 
unop_12

>  <geom_source>  (16) 
Heuristics

$$$$

     RDKit          3D

 19 17  0  0  0  0  0  0  0  0999 V2000
    0.8555    0.1585    1.2543 O   0  0  0  0  0  1  0  0  0  0  0  0
    1.9761   -0.5169    0.8313 N   0  0  0  0  0  2  0  0  0  0  0  0
   -2.4886    0.3402    0.4842 C   0  0  0  0  0  0  0  0  0  0  0  0
   -1.1036    0.2876   -0.1522 C   0  0  0  0  0  0  0  0  0  0  0  0
   -3.5767   -0.0132   -0.5251 C   0  0  0  0  0  0  0  0  0  0  0  0
    4.1454   -0.6310   -0.2205 C   0  0  0  0  0  0  0  0  0  0  0  0
    2.9353    0.1114    0.2338 C   0  0  0  0  0  3  0  0  0  0  0  0
   -2.5284   -0.3757    1.3332 H   0  0  0  0  0  0  0  0  0  0  0  0
   -2.6713    1.3629    0.8785 H   0  0  0  0  0  0  0  0  0  0  0  0
   -0.8922   -0.7344   -0.5331 H   0  0  0  0  0  0  0  0  0  0  0  0
   -1.0359    1.0136   -0.9903 H   0  0  0  0  0  0  0  0  0  0  0  0
   -0.2749    0.5708    0.6703 H   0  0  0  0  0  0  0  0  0  0  0  0
   -4.5704    0.0342   -0.0317 H   0  0  0  0  0  0  0  0  0  0  0  0
   -3.5658    0.7058   -1.3719 H   0  0  0  0  0  0  0  0  0  0  0  0
   -3.4221   -1.0420   -0.9148 H   0  0  0  0  0  0  0  0  0  0  0  0
    4.6454   -1.1039    0.6507 H   0  0  0  0  0  0  0  0  0  0  0  0
    3.8533   -1.4161   -0.9492 H   0  0  0  0  0  0  0  0  0  0  0  0
    4.8550    0.0694   -0.7085 H   0  0  0  0  0  0  0  0  0  0  0  0
    2.8639    1.1788    0.0608 H   0  0  0  0  0  0  0  0  0  0  0  0
  1  2  1  0
  2  7  1  0
  3  8  1  0
  3  4  1  0
  3  9  1  0
  3  5  1  0
  4 12  1  0
  4 11  1  0
  4 10  1  0
  5 15  1  0
  5 14  1  0
  5 13  1  0
  6 18  1  0
  6 17  1  0
  6  7  1  0
  6 16  1  0
  7 19  1  0
M  RAD  3   1   2   2   2   7   2
M  END
>  <reaction>  (17) 
rmg_rxn_511

>  <mol_properties>  (17) 
{"2": {"label": "*0", "atom_type": "N3d"}, "3": {"label": "*1", "atom_type": "O2s"}, "8": {"label": "*2", "atom_type": "H0"}, "9": {"label": "*3", "atom_type": "Cs"}, "10": {"label": "*4", "atom_type": "Cs"}}

>  <type>  (17) 
unop_13

>  <geom_source>  (17) 
AutoTST

$$$$

     RDKit          3D

 19 17  0  0  0  0  0  0  0  0999 V2000
    0.0780   -1.9787   -2.4806 C   0  0  0  0  0  0  0  0  0  0  0  0
    0.0780   -1.9787   -0.9920 C   0  0  0  0  0  0  0  0  0  0  0  0
    0.0780   -0.8866   -0.3552 N   0  0  0  0  0  0  0  0  0  0  0  0
    0.0780   -1.0913    1.0180 O   0  0  0  0  0  0  0  0  0  0  0  0
    0.9574   -2.5025   -2.8624 H   0  0  0  0  0  0  0  0  0  0  0  0
   -0.8014   -2.5025   -2.8624 H   0  0  0  0  0  0  0  0  0  0  0  0
    0.0780   -0.9589   -2.8620 H   0  0  0  0  0  0  0  0  0  0  0  0
    0.0780   -2.9262   -0.4518 H   0  0  0  0  0  0  0  0  0  0  0  0
    0.0780   -0.0216    1.4414 H   0  0  0  0  0  0  0  0  0  0  0  0
    0.0780    1.1977    1.9239 C   0  0  0  0  0  3  0  0  0  0  0  0
   -0.6334    2.1574    0.9787 C   0  0  0  0  0  0  0  0  0  0  0  0
    0.2294    2.5556   -0.2119 C   0  0  0  0  0  0  0  0  0  0  0  0
   -0.5554    0.9243    2.7696 H   0  0  0  0  0  0  0  0  0  0  0  0
    0.9917    1.6462    2.3214 H   0  0  0  0  0  0  0  0  0  0  0  0
   -1.5581    1.6968    0.6203 H   0  0  0  0  0  0  0  0  0  0  0  0
   -0.9322    3.0546    1.5280 H   0  0  0  0  0  0  0  0  0  0  0  0
    0.5171    1.6784   -0.7966 H   0  0  0  0  0  0  0  0  0  0  0  0
   -0.2968    3.2426   -0.8767 H   0  0  0  0  0  0  0  0  0  0  0  0
    1.1479    3.0470    0.1183 H   0  0  0  0  0  0  0  0  0  0  0  0
  1  2  1  0
  1  5  1  0
  1  6  1  0
  1  7  1  0
  2  3  2  3
  2  8  1  0
  3  4  1  0
  4  9  1  0
 10 11  1  0
 10 13  1  0
 10 14  1  0
 11 12  1  0
 11 15  1  0
 11 16  1  0
 12 17  1  0
 12 18  1  0
 12 19  1  0
M  RAD  1  10   2
M  END
>  <reaction>  (18) 
rmg_rxn_511

>  <mol_properties>  (18) 
{"2": {"label": "*0", "atom_type": "N3d"}, "3": {"label": "*1", "atom_type": "O2s"}, "8": {"label": "*2", "atom_type": "H0"}, "9": {"label": "*3", "atom_type": "Cs"}, "10": {"label": "*4", "atom_type": "Cs"}}

>  <type>  (18) 
unop_14

>  <geom_source>  (18) 
gaussian_log

$$$$
