
     RDKit          3D

 18 17  0  0  0  0  0  0  0  0999 V2000
    2.2026   -0.7213   -0.2612 C   0  0  0  0  0  0  0  0  0  0  0  0
    1.5384    0.2638    0.6915 C   0  0  0  0  0  0  0  0  0  0  0  0
    2.2584    1.5946    0.7694 C   0  0  0  0  0  0  0  0  0  0  0  0
    2.2212    2.2185   -0.4893 O   0  0  0  0  0  0  0  0  0  0  0  0
    2.8988    3.4488   -0.5204 C   0  0  0  0  0  0  0  0  0  0  0  0
    2.7981    4.0296   -1.9118 C   0  0  0  0  0  0  0  0  0  0  0  0
    3.2294   -0.9309    0.0486 H   0  0  0  0  0  0  0  0  0  0  0  0
    2.2338   -0.3181   -1.2734 H   0  0  0  0  0  0  0  0  0  0  0  0
    1.6610   -1.6680   -0.2875 H   0  0  0  0  0  0  0  0  0  0  0  0
    1.4990   -0.1566    1.7002 H   0  0  0  0  0  0  0  0  0  0  0  0
    0.5055    0.4455    0.3835 H   0  0  0  0  0  0  0  0  0  0  0  0
    3.3038    1.4410    1.0808 H   0  0  0  0  0  0  0  0  0  0  0  0
    1.7844    2.2410    1.5226 H   0  0  0  0  0  0  0  0  0  0  0  0
    2.4596    4.1376    0.2164 H   0  0  0  0  0  0  0  0  0  0  0  0
    3.9524    3.3035   -0.2397 H   0  0  0  0  0  0  0  0  0  0  0  0
    1.7543    4.1869   -2.1856 H   0  0  0  0  0  0  0  0  0  0  0  0
    3.2472    3.3545   -2.6411 H   0  0  0  0  0  0  0  0  0  0  0  0
    3.3178    4.9878   -1.9600 H   0  0  0  0  0  0  0  0  0  0  0  0
  1  2  1  0
  1  7  1  0
  1  8  1  0
  1  9  1  0
  2  3  1  0
  2 10  1  0
  2 11  1  0
  3  4  1  0
  3 12  1  0
  3 13  1  0
  4  5  1  0
  5  6  1  0
  5 14  1  0
  5 15  1  0
  6 16  1  0
  6 17  1  0
  6 18  1  0
M  END
>  <reaction>  (1) 
rmg_rxn_314

>  <mol_properties>  (1) 
{"1": {"label": "donator", "atom_type": "Cs"}, "9": {"label": "d_hydrogen", "atom_type": "H0"}}

>  <type>  (1) 
r1h

$$$$

     RDKit          3D

 11 10  0  0  0  0  0  0  0  0999 V2000
   -1.2230    0.3768   -0.0849 C   0  0  0  0  0  0  0  0  0  0  0  0
   -0.0734   -0.5533    0.2746 C   0  0  0  0  0  0  0  0  0  0  0  0
   -0.0853   -1.8426   -0.5372 C   0  0  0  0  0  0  0  0  0  0  0  0
    0.0319   -1.6944   -1.8815 O   0  0  0  0  0  1  0  0  0  0  0  0
   -2.1874   -0.0885    0.1341 H   0  0  0  0  0  0  0  0  0  0  0  0
   -1.1670    1.3099    0.4765 H   0  0  0  0  0  0  0  0  0  0  0  0
   -1.2014    0.6189   -1.1483 H   0  0  0  0  0  0  0  0  0  0  0  0
    0.8834   -0.0518    0.1071 H   0  0  0  0  0  0  0  0  0  0  0  0
   -0.1104   -0.8149    1.3362 H   0  0  0  0  0  0  0  0  0  0  0  0
    0.6767   -2.5604   -0.1861 H   0  0  0  0  0  0  0  0  0  0  0  0
   -1.0401   -2.3871   -0.3877 H   0  0  0  0  0  0  0  0  0  0  0  0
  1  2  1  0
  1  5  1  0
  1  6  1  0
  1  7  1  0
  2  3  1  0
  2  8  1  0
  2  9  1  0
  3  4  1  0
  3 10  1  0
  3 11  1  0
M  RAD  1   4   2
M  END
>  <reaction>  (2) 
rmg_rxn_314

>  <mol_properties>  (2) 
{"3": {"label": "acceptor", "atom_type": "O2s"}}

>  <type>  (2) 
r2

$$$$

     RDKit          3D

 12 11  0  0  0  0  0  0  0  0999 V2000
   -1.4643   -0.2505   -0.5284 C   0  0  0  0  0  0  0  0  0  0  0  0
   -0.3946    0.4302    0.3143 C   0  0  0  0  0  0  0  0  0  0  0  0
   -0.5959    0.2382    1.8102 C   0  0  0  0  0  0  0  0  0  0  0  0
   -0.5633   -1.1190    2.2092 O   0  0  0  0  0  0  0  0  0  0  0  0
   -2.4511    0.1644   -0.3109 H   0  0  0  0  0  0  0  0  0  0  0  0
   -1.5019   -1.3198   -0.3181 H   0  0  0  0  0  0  0  0  0  0  0  0
   -1.2720   -0.1182   -1.5941 H   0  0  0  0  0  0  0  0  0  0  0  0
    0.5965    0.0515    0.0385 H   0  0  0  0  0  0  0  0  0  0  0  0
   -0.3776    1.5047    0.1078 H   0  0  0  0  0  0  0  0  0  0  0  0
   -1.5821    0.6048    2.1034 H   0  0  0  0  0  0  0  0  0  0  0  0
    0.1495    0.8220    2.3649 H   0  0  0  0  0  0  0  0  0  0  0  0
    0.3017   -1.4750    1.9997 H   0  0  0  0  0  0  0  0  0  0  0  0
  1  2  1  0
  1  5  1  0
  1  6  1  0
  1  7  1  0
  2  3  1  0
  2  8  1  0
  2  9  1  0
  3  4  1  0
  3 10  1  0
  3 11  1  0
  4 12  1  0
M  END
>  <reaction>  (3) 
rmg_rxn_314

>  <mol_properties>  (3) 
{"3": {"label": "acceptor", "atom_type": "O2s"}, "11": {"label": "a_hydrogen", "atom_type": "H0"}}

>  <type>  (3) 
r2h

$$$$

     RDKit          3D

 29 27  0  0  0  0  0  0  0  0999 V2000
    3.4775   -0.1941    0.0348 C   0  0  0  0  0  0  0  0  0  0  0  0
    2.6083   -0.8882   -1.0033 C   0  0  0  0  0  0  0  0  0  0  0  0
    2.0223   -2.2053   -0.5092 C   0  0  0  0  0  0  0  0  0  0  0  0
    1.2926   -2.1068    0.6736 O   0  0  0  0  0  1  0  0  0  0  0  0
    4.3316   -0.8179    0.3092 H   0  0  0  0  0  0  0  0  0  0  0  0
    3.8623    0.7545   -0.3425 H   0  0  0  0  0  0  0  0  0  0  0  0
    2.9077    0.0039    0.9432 H   0  0  0  0  0  0  0  0  0  0  0  0
    1.7885   -0.2279   -1.3018 H   0  0  0  0  0  0  0  0  0  0  0  0
    3.1854   -1.0907   -1.9107 H   0  0  0  0  0  0  0  0  0  0  0  0
    1.4285   -2.6803   -1.3028 H   0  0  0  0  0  0  0  0  0  0  0  0
    2.8367   -2.9057   -0.2743 H   0  0  0  0  0  0  0  0  0  0  0  0
   -1.1660   -1.2404   -1.3487 C   0  0  0  0  0  0  0  0  0  0  0  0
   -0.8707   -0.9566    0.0988 C   0  0  0  0  0  0  0  0  0  0  0  0
   -0.6441    0.4874    0.4610 C   0  0  0  0  0  0  0  0  0  0  0  0
   -1.8515    1.1916    0.2916 O   0  0  0  0  0  0  0  0  0  0  0  0
   -1.7426    2.5571    0.6149 C   0  0  0  0  0  0  0  0  0  0  0  0
   -3.0827    3.2196    0.3965 C   0  0  0  0  0  0  0  0  0  0  0  0
   -0.3953   -0.8252   -2.0021 H   0  0  0  0  0  0  0  0  0  0  0  0
   -2.1181   -0.7828   -1.6316 H   0  0  0  0  0  0  0  0  0  0  0  0
   -1.2383   -2.3122   -1.5373 H   0  0  0  0  0  0  0  0  0  0  0  0
    0.1988   -1.5324    0.4100 H   0  0  0  0  0  0  0  0  0  0  0  0
   -1.5717   -1.4395    0.7813 H   0  0  0  0  0  0  0  0  0  0  0  0
    0.1383    0.9216   -0.1792 H   0  0  0  0  0  0  0  0  0  0  0  0
   -0.2986    0.5659    1.5007 H   0  0  0  0  0  0  0  0  0  0  0  0
   -1.4230    2.6687    1.6610 H   0  0  0  0  0  0  0  0  0  0  0  0
   -0.9724    3.0287   -0.0124 H   0  0  0  0  0  0  0  0  0  0  0  0
   -3.8439    2.7596    1.0275 H   0  0  0  0  0  0  0  0  0  0  0  0
   -3.3928    3.1219   -0.6445 H   0  0  0  0  0  0  0  0  0  0  0  0
   -3.0232    4.2809    0.6424 H   0  0  0  0  0  0  0  0  0  0  0  0
  1  2  1  0
  1  5  1  0
  1  6  1  0
  1  7  1  0
  2  3  1  0
  2  8  1  0
  2  9  1  0
  3  4  1  0
  3 10  1  0
  3 11  1  0
 12 13  1  0
 12 18  1  0
 12 19  1  0
 12 20  1  0
 13 14  1  0
 13 21  1  0
 13 22  1  0
 14 15  1  0
 14 23  1  0
 14 24  1  0
 15 16  1  0
 16 17  1  0
 16 25  1  0
 16 26  1  0
 17 27  1  0
 17 28  1  0
 17 29  1  0
M  RAD  1   4   2
M  END
>  <reaction>  (4) 
rmg_rxn_314

>  <mol_properties>  (4) 
{"2": {"label": "*4", "atom_type": "Cs"}, "3": {"label": "*3", "atom_type": "O2s"}, "12": {"label": "*1", "atom_type": "Cs"}, "13": {"label": "*0", "atom_type": "Cs"}, "20": {"label": "*2", "atom_type": "H0"}}

>  <type>  (4) 
ts

$$$$

     RDKit          3D

 29 27  0  0  0  0  0  0  0  0999 V2000
    0.5095   -0.5246    2.1886 C   0  0  0  0  0  0  0  0  0  0  0  0
    1.7028   -0.1570    1.3176 C   0  0  0  0  0  0  0  0  0  0  0  0
    2.5010   -1.3655    0.8512 C   0  0  0  0  0  0  0  0  0  0  0  0
    1.7433   -2.2675    0.0672 O   0  0  0  0  0  0  0  0  0  0  0  0
    0.8364   -1.0285    3.1011 H   0  0  0  0  0  0  0  0  0  0  0  0
   -0.0562    0.3619    2.4790 H   0  0  0  0  0  0  0  0  0  0  0  0
   -0.1629   -1.2012    1.6604 H   0  0  0  0  0  0  0  0  0  0  0  0
    1.3660    0.4057    0.4392 H   0  0  0  0  0  0  0  0  0  0  0  0
    2.3788    0.5079    1.8637 H   0  0  0  0  0  0  0  0  0  0  0  0
    3.3938   -1.0350    0.3055 H   0  0  0  0  0  0  0  0  0  0  0  0
    2.8406   -1.9431    1.7138 H   0  0  0  0  0  0  0  0  0  0  0  0
   -0.2418   -1.0820   -2.3030 C   0  0  0  0  0  0  0  0  0  0  0  0
   -0.2418   -1.0820   -0.7801 C   0  0  0  0  0  3  0  0  0  0  0  0
   -0.2418    0.3111   -0.1846 C   0  0  0  0  0  0  0  0  0  0  0  0
   -1.4248    0.9747   -0.5522 O   0  0  0  0  0  0  0  0  0  0  0  0
   -1.4955    2.2928   -0.0713 C   0  0  0  0  0  0  0  0  0  0  0  0
   -2.7988    2.9105   -0.5221 C   0  0  0  0  0  0  0  0  0  0  0  0
    0.6403   -0.5676   -2.6927 H   0  0  0  0  0  0  0  0  0  0  0  0
   -1.1245   -0.5723   -2.6891 H   0  0  0  0  0  0  0  0  0  0  0  0
   -0.2363   -2.0998   -2.6957 H   0  0  0  0  0  0  0  0  0  0  0  0
    0.8161   -1.7137   -0.3286 H   0  0  0  0  0  0  0  0  0  0  0  0
   -1.1161   -1.6199   -0.4048 H   0  0  0  0  0  0  0  0  0  0  0  0
    0.6324    0.8762   -0.5450 H   0  0  0  0  0  0  0  0  0  0  0  0
   -0.1670    0.2572    0.9114 H   0  0  0  0  0  0  0  0  0  0  0  0
   -1.4282    2.2956    1.0268 H   0  0  0  0  0  0  0  0  0  0  0  0
   -0.6426    2.8757   -0.4492 H   0  0  0  0  0  0  0  0  0  0  0  0
   -3.6452    2.3411   -0.1365 H   0  0  0  0  0  0  0  0  0  0  0  0
   -2.8596    2.9224   -1.6110 H   0  0  0  0  0  0  0  0  0  0  0  0
   -2.8764    3.9366   -0.1591 H   0  0  0  0  0  0  0  0  0  0  0  0
  1  2  1  0
  1  5  1  0
  1  6  1  0
  1  7  1  0
  2  3  1  0
  2  8  1  0
  2  9  1  0
  3  4  1  0
  3 10  1  0
  3 11  1  0
  4 21  1  0
 12 13  1  0
 12 18  1  0
 12 19  1  0
 12 20  1  0
 13 14  1  0
 13 22  1  0
 14 15  1  0
 14 23  1  0
 14 24  1  0
 15 16  1  0
 16 17  1  0
 16 25  1  0
 16 26  1  0
 17 27  1  0
 17 28  1  0
 17 29  1  0
M  RAD  1  13   2
M  END
>  <reaction>  (5) 
rmg_rxn_314

>  <mol_properties>  (5) 
{"2": {"label": "*4", "atom_type": "Cs"}, "3": {"label": "*3", "atom_type": "O2s"}, "12": {"label": "*1", "atom_type": "Cs"}, "13": {"label": "*0", "atom_type": "Cs"}, "20": {"label": "*2", "atom_type": "H0"}}

>  <type>  (5) 
unop_1

>  <geom_source>  (5) 
Heuristics

$$$$

     RDKit          3D

 29 27  0  0  0  0  0  0  0  0999 V2000
    2.7328    0.3959    0.3154 C   0  0  0  0  0  0  0  0  0  0  0  0
    2.4711   -0.6667   -0.7431 C   0  0  0  0  0  0  0  0  0  0  0  0
    2.3805   -2.0740   -0.1719 C   0  0  0  0  0  0  0  0  0  0  0  0
    1.3330   -2.2304    0.7664 O   0  0  0  0  0  0  0  0  0  0  0  0
    3.6897    0.2203    0.8124 H   0  0  0  0  0  0  0  0  0  0  0  0
    2.7613    1.3938   -0.1244 H   0  0  0  0  0  0  0  0  0  0  0  0
    1.9558    0.3815    1.0803 H   0  0  0  0  0  0  0  0  0  0  0  0
    1.5415   -0.4409   -1.2784 H   0  0  0  0  0  0  0  0  0  0  0  0
    3.2656   -0.6546   -1.4953 H   0  0  0  0  0  0  0  0  0  0  0  0
    2.2809   -2.8018   -0.9871 H   0  0  0  0  0  0  0  0  0  0  0  0
    3.2969   -2.3153    0.3712 H   0  0  0  0  0  0  0  0  0  0  0  0
   -0.6521   -1.0449   -1.6039 C   0  0  0  0  0  0  0  0  0  0  0  0
   -0.6521   -1.0449   -0.0810 C   0  0  0  0  0  3  0  0  0  0  0  0
   -0.6521    0.3482    0.5146 C   0  0  0  0  0  0  0  0  0  0  0  0
   -1.8351    1.0118    0.1470 O   0  0  0  0  0  0  0  0  0  0  0  0
   -1.9058    2.3298    0.6278 C   0  0  0  0  0  0  0  0  0  0  0  0
   -3.2092    2.9476    0.1770 C   0  0  0  0  0  0  0  0  0  0  0  0
    0.2299   -0.5306   -1.9935 H   0  0  0  0  0  0  0  0  0  0  0  0
   -1.5348   -0.5352   -1.9899 H   0  0  0  0  0  0  0  0  0  0  0  0
   -0.6466   -2.0627   -1.9965 H   0  0  0  0  0  0  0  0  0  0  0  0
    0.4057   -1.6766    0.3706 H   0  0  0  0  0  0  0  0  0  0  0  0
   -1.5265   -1.5829    0.2943 H   0  0  0  0  0  0  0  0  0  0  0  0
    0.2221    0.9133    0.1542 H   0  0  0  0  0  0  0  0  0  0  0  0
   -0.5773    0.2943    1.6106 H   0  0  0  0  0  0  0  0  0  0  0  0
   -1.8386    2.3327    1.7259 H   0  0  0  0  0  0  0  0  0  0  0  0
   -1.0530    2.9128    0.2500 H   0  0  0  0  0  0  0  0  0  0  0  0
   -4.0555    2.3782    0.5627 H   0  0  0  0  0  0  0  0  0  0  0  0
   -3.2700    2.9595   -0.9118 H   0  0  0  0  0  0  0  0  0  0  0  0
   -3.2868    3.9736    0.5401 H   0  0  0  0  0  0  0  0  0  0  0  0
  1  2  1  0
  1  5  1  0
  1  6  1  0
  1  7  1  0
  2  3  1  0
  2  8  1  0
  2  9  1  0
  3  4  1  0
  3 10  1  0
  3 11  1  0
  4 21  1  0
 12 13  1  0
 12 18  1  0
 12 19  1  0
 12 20  1  0
 13 14  1  0
 13 22  1  0
 14 15  1  0
 14 23  1  0
 14 24  1  0
 15 16  1  0
 16 17  1  0
 16 25  1  0
 16 26  1  0
 17 27  1  0
 17 28  1  0
 17 29  1  0
M  RAD  1  13   2
M  END
>  <reaction>  (6) 
rmg_rxn_314

>  <mol_properties>  (6) 
{"2": {"label": "*4", "atom_type": "Cs"}, "3": {"label": "*3", "atom_type": "O2s"}, "12": {"label": "*1", "atom_type": "Cs"}, "13": {"label": "*0", "atom_type": "Cs"}, "20": {"label": "*2", "atom_type": "H0"}}

>  <type>  (6) 
unop_2

>  <geom_source>  (6) 
Heuristics

$$$$

     RDKit          3D

 29 27  0  0  0  0  0  0  0  0999 V2000
    0.0566   -1.9097    2.2839 C   0  0  0  0  0  0  0  0  0  0  0  0
    1.0960   -0.8502    1.9448 C   0  0  0  0  0  0  0  0  0  0  0  0
    2.2832   -1.4003    1.1682 C   0  0  0  0  0  0  0  0  0  0  0  0
    1.9228   -1.9670   -0.0772 O   0  0  0  0  0  0  0  0  0  0  0  0
    0.4877   -2.6858    2.9205 H   0  0  0  0  0  0  0  0  0  0  0  0
   -0.7930   -1.4755    2.8128 H   0  0  0  0  0  0  0  0  0  0  0  0
   -0.3145   -2.3929    1.3795 H   0  0  0  0  0  0  0  0  0  0  0  0
    0.6336   -0.0451    1.3621 H   0  0  0  0  0  0  0  0  0  0  0  0
    1.4736   -0.3846    2.8602 H   0  0  0  0  0  0  0  0  0  0  0  0
    3.0362   -0.6139    1.0315 H   0  0  0  0  0  0  0  0  0  0  0  0
    2.7542   -2.2091    1.7313 H   0  0  0  0  0  0  0  0  0  0  0  0
   -0.0623   -0.7815   -2.4474 C   0  0  0  0  0  0  0  0  0  0  0  0
   -0.0623   -0.7815   -0.9245 C   0  0  0  0  0  3  0  0  0  0  0  0
   -0.0623    0.6116   -0.3290 C   0  0  0  0  0  0  0  0  0  0  0  0
   -1.2453    1.2752   -0.6966 O   0  0  0  0  0  0  0  0  0  0  0  0
   -1.3160    2.5933   -0.2157 C   0  0  0  0  0  0  0  0  0  0  0  0
   -2.6194    3.2110   -0.6665 C   0  0  0  0  0  0  0  0  0  0  0  0
    0.8197   -0.2671   -2.8371 H   0  0  0  0  0  0  0  0  0  0  0  0
   -0.9451   -0.2718   -2.8335 H   0  0  0  0  0  0  0  0  0  0  0  0
   -0.0569   -1.7993   -2.8401 H   0  0  0  0  0  0  0  0  0  0  0  0
    0.9955   -1.4132   -0.4730 H   0  0  0  0  0  0  0  0  0  0  0  0
   -0.9367   -1.3194   -0.5493 H   0  0  0  0  0  0  0  0  0  0  0  0
    0.8119    1.1767   -0.6894 H   0  0  0  0  0  0  0  0  0  0  0  0
    0.0125    0.5577    0.7670 H   0  0  0  0  0  0  0  0  0  0  0  0
   -1.2488    2.5961    0.8824 H   0  0  0  0  0  0  0  0  0  0  0  0
   -0.4632    3.1762   -0.5936 H   0  0  0  0  0  0  0  0  0  0  0  0
   -3.4657    2.6416   -0.2809 H   0  0  0  0  0  0  0  0  0  0  0  0
   -2.6802    3.2229   -1.7554 H   0  0  0  0  0  0  0  0  0  0  0  0
   -2.6970    4.2371   -0.3035 H   0  0  0  0  0  0  0  0  0  0  0  0
  1  2  1  0
  1  5  1  0
  1  6  1  0
  1  7  1  0
  2  3  1  0
  2  8  1  0
  2  9  1  0
  3  4  1  0
  3 10  1  0
  3 11  1  0
  4 21  1  0
 12 13  1  0
 12 18  1  0
 12 19  1  0
 12 20  1  0
 13 14  1  0
 13 22  1  0
 14 15  1  0
 14 23  1  0
 14 24  1  0
 15 16  1  0
 16 17  1  0
 16 25  1  0
 16 26  1  0
 17 27  1  0
 17 28  1  0
 17 29  1  0
M  RAD  1  13   2
M  END
>  <reaction>  (7) 
rmg_rxn_314

>  <mol_properties>  (7) 
{"2": {"label": "*4", "atom_type": "Cs"}, "3": {"label": "*3", "atom_type": "O2s"}, "12": {"label": "*1", "atom_type": "Cs"}, "13": {"label": "*0", "atom_type": "Cs"}, "20": {"label": "*2", "atom_type": "H0"}}

>  <type>  (7) 
unop_3

>  <geom_source>  (7) 
Heuristics

$$$$

     RDKit          3D

 29 27  0  0  0  0  0  0  0  0999 V2000
    3.6588   -2.6327   -0.6821 C   0  0  0  0  0  0  0  0  0  0  0  0
    2.1798   -2.9340   -0.8818 C   0  0  0  0  0  0  0  0  0  0  0  0
    1.3484   -2.7210    0.3747 C   0  0  0  0  0  0  0  0  0  0  0  0
    1.3866   -1.3894    0.8515 O   0  0  0  0  0  0  0  0  0  0  0  0
    4.0913   -3.2963    0.0702 H   0  0  0  0  0  0  0  0  0  0  0  0
    4.2183   -2.7663   -1.6090 H   0  0  0  0  0  0  0  0  0  0  0  0
    3.8033   -1.6074   -0.3404 H   0  0  0  0  0  0  0  0  0  0  0  0
    1.7752   -2.3072   -1.6850 H   0  0  0  0  0  0  0  0  0  0  0  0
    2.0457   -3.9699   -1.2078 H   0  0  0  0  0  0  0  0  0  0  0  0
    0.3133   -3.0377    0.1951 H   0  0  0  0  0  0  0  0  0  0  0  0
    1.7408   -3.3338    1.1893 H   0  0  0  0  0  0  0  0  0  0  0  0
   -0.5985   -0.2038   -1.5188 C   0  0  0  0  0  0  0  0  0  0  0  0
   -0.5985   -0.2038    0.0041 C   0  0  0  0  0  3  0  0  0  0  0  0
   -0.5985    1.1892    0.5996 C   0  0  0  0  0  0  0  0  0  0  0  0
   -1.7815    1.8528    0.2320 O   0  0  0  0  0  0  0  0  0  0  0  0
   -1.8522    3.1709    0.7129 C   0  0  0  0  0  0  0  0  0  0  0  0
   -3.1556    3.7887    0.2621 C   0  0  0  0  0  0  0  0  0  0  0  0
    0.2836    0.3105   -1.9084 H   0  0  0  0  0  0  0  0  0  0  0  0
   -1.4812    0.3059   -1.9049 H   0  0  0  0  0  0  0  0  0  0  0  0
   -0.5930   -1.2217   -1.9115 H   0  0  0  0  0  0  0  0  0  0  0  0
    0.4593   -0.8356    0.4557 H   0  0  0  0  0  0  0  0  0  0  0  0
   -1.4729   -0.7418    0.3794 H   0  0  0  0  0  0  0  0  0  0  0  0
    0.2757    1.7543    0.2392 H   0  0  0  0  0  0  0  0  0  0  0  0
   -0.5237    1.1353    1.6957 H   0  0  0  0  0  0  0  0  0  0  0  0
   -1.7850    3.1738    1.8110 H   0  0  0  0  0  0  0  0  0  0  0  0
   -0.9994    3.7539    0.3350 H   0  0  0  0  0  0  0  0  0  0  0  0
   -4.0019    3.2193    0.6478 H   0  0  0  0  0  0  0  0  0  0  0  0
   -3.2164    3.8005   -0.8267 H   0  0  0  0  0  0  0  0  0  0  0  0
   -3.2332    4.8147    0.6252 H   0  0  0  0  0  0  0  0  0  0  0  0
  1  2  1  0
  1  5  1  0
  1  6  1  0
  1  7  1  0
  2  3  1  0
  2  8  1  0
  2  9  1  0
  3  4  1  0
  3 10  1  0
  3 11  1  0
  4 21  1  0
 12 13  1  0
 12 18  1  0
 12 19  1  0
 12 20  1  0
 13 14  1  0
 13 22  1  0
 14 15  1  0
 14 23  1  0
 14 24  1  0
 15 16  1  0
 16 17  1  0
 16 25  1  0
 16 26  1  0
 17 27  1  0
 17 28  1  0
 17 29  1  0
M  RAD  1  13   2
M  END
>  <reaction>  (8) 
rmg_rxn_314

>  <mol_properties>  (8) 
{"2": {"label": "*4", "atom_type": "Cs"}, "3": {"label": "*3", "atom_type": "O2s"}, "12": {"label": "*1", "atom_type": "Cs"}, "13": {"label": "*0", "atom_type": "Cs"}, "20": {"label": "*2", "atom_type": "H0"}}

>  <type>  (8) 
unop_4

>  <geom_source>  (8) 
Heuristics

$$$$

     RDKit          3D

 29 27  0  0  0  0  0  0  0  0999 V2000
    0.6283   -3.6767    1.6091 C   0  0  0  0  0  0  0  0  0  0  0  0
    0.6962   -2.2013    1.9788 C   0  0  0  0  0  0  0  0  0  0  0  0
    1.9104   -1.4918    1.3977 C   0  0  0  0  0  0  0  0  0  0  0  0
    1.9473   -1.5138   -0.0166 O   0  0  0  0  0  0  0  0  0  0  0  0
    1.4953   -4.2143    1.9996 H   0  0  0  0  0  0  0  0  0  0  0  0
   -0.2687   -4.1456    2.0162 H   0  0  0  0  0  0  0  0  0  0  0  0
    0.6199   -3.8056    0.5264 H   0  0  0  0  0  0  0  0  0  0  0  0
   -0.2107   -1.6880    1.6387 H   0  0  0  0  0  0  0  0  0  0  0  0
    0.7216   -2.0850    3.0665 H   0  0  0  0  0  0  0  0  0  0  0  0
    1.9529   -0.4602    1.7694 H   0  0  0  0  0  0  0  0  0  0  0  0
    2.8251   -1.9934    1.7212 H   0  0  0  0  0  0  0  0  0  0  0  0
   -0.0378   -0.3283   -2.3868 C   0  0  0  0  0  0  0  0  0  0  0  0
   -0.0378   -0.3283   -0.8639 C   0  0  0  0  0  3  0  0  0  0  0  0
   -0.0378    1.0648   -0.2684 C   0  0  0  0  0  0  0  0  0  0  0  0
   -1.2208    1.7284   -0.6360 O   0  0  0  0  0  0  0  0  0  0  0  0
   -1.2915    3.0464   -0.1551 C   0  0  0  0  0  0  0  0  0  0  0  0
   -2.5948    3.6642   -0.6060 C   0  0  0  0  0  0  0  0  0  0  0  0
    0.8443    0.1860   -2.7765 H   0  0  0  0  0  0  0  0  0  0  0  0
   -0.9205    0.1814   -2.7729 H   0  0  0  0  0  0  0  0  0  0  0  0
   -0.0323   -1.3462   -2.7795 H   0  0  0  0  0  0  0  0  0  0  0  0
    1.0200   -0.9600   -0.4124 H   0  0  0  0  0  0  0  0  0  0  0  0
   -0.9122   -0.8663   -0.4887 H   0  0  0  0  0  0  0  0  0  0  0  0
    0.8364    1.6299   -0.6288 H   0  0  0  0  0  0  0  0  0  0  0  0
    0.0370    1.0109    0.8276 H   0  0  0  0  0  0  0  0  0  0  0  0
   -1.2243    3.0493    0.9430 H   0  0  0  0  0  0  0  0  0  0  0  0
   -0.4386    3.6294   -0.5330 H   0  0  0  0  0  0  0  0  0  0  0  0
   -3.4412    3.0948   -0.2203 H   0  0  0  0  0  0  0  0  0  0  0  0
   -2.6556    3.6761   -1.6948 H   0  0  0  0  0  0  0  0  0  0  0  0
   -2.6724    4.6902   -0.2429 H   0  0  0  0  0  0  0  0  0  0  0  0
  1  2  1  0
  1  5  1  0
  1  6  1  0
  1  7  1  0
  2  3  1  0
  2  8  1  0
  2  9  1  0
  3  4  1  0
  3 10  1  0
  3 11  1  0
  4 21  1  0
 12 13  1  0
 12 18  1  0
 12 19  1  0
 12 20  1  0
 13 14  1  0
 13 22  1  0
 14 15  1  0
 14 23  1  0
 14 24  1  0
 15 16  1  0
 16 17  1  0
 16 25  1  0
 16 26  1  0
 17 27  1  0
 17 28  1  0
 17 29  1  0
M  RAD  1  13   2
M  END
>  <reaction>  (9) 
rmg_rxn_314

>  <mol_properties>  (9) 
{"2": {"label": "*4", "atom_type": "Cs"}, "3": {"label": "*3", "atom_type": "O2s"}, "12": {"label": "*1", "atom_type": "Cs"}, "13": {"label": "*0", "atom_type": "Cs"}, "20": {"label": "*2", "atom_type": "H0"}}

>  <type>  (9) 
unop_5

>  <geom_source>  (9) 
Heuristics

$$$$

     RDKit          3D

 29 27  0  0  0  0  0  0  0  0999 V2000
    3.2909   -3.4386   -0.3385 C   0  0  0  0  0  0  0  0  0  0  0  0
    1.7698   -3.4710   -0.2829 C   0  0  0  0  0  0  0  0  0  0  0  0
    1.1898   -2.5865    0.8110 C   0  0  0  0  0  0  0  0  0  0  0  0
    1.5185   -1.2189    0.6574 O   0  0  0  0  0  0  0  0  0  0  0  0
    3.7208   -3.8089    0.5950 H   0  0  0  0  0  0  0  0  0  0  0  0
    3.6703   -4.0588   -1.1519 H   0  0  0  0  0  0  0  0  0  0  0  0
    3.6523   -2.4207   -0.4877 H   0  0  0  0  0  0  0  0  0  0  0  0
    1.3532   -3.1602   -1.2480 H   0  0  0  0  0  0  0  0  0  0  0  0
    1.4194   -4.4940   -0.1157 H   0  0  0  0  0  0  0  0  0  0  0  0
    0.1016   -2.7193    0.8602 H   0  0  0  0  0  0  0  0  0  0  0  0
    1.5985   -2.8776    1.7812 H   0  0  0  0  0  0  0  0  0  0  0  0
   -0.4666   -0.0333   -1.7128 C   0  0  0  0  0  0  0  0  0  0  0  0
   -0.4666   -0.0333   -0.1899 C   0  0  0  0  0  3  0  0  0  0  0  0
   -0.4666    1.3598    0.4056 C   0  0  0  0  0  0  0  0  0  0  0  0
   -1.6496    2.0233    0.0380 O   0  0  0  0  0  0  0  0  0  0  0  0
   -1.7203    3.3414    0.5189 C   0  0  0  0  0  0  0  0  0  0  0  0
   -3.0236    3.9592    0.0681 C   0  0  0  0  0  0  0  0  0  0  0  0
    0.4155    0.4810   -2.1024 H   0  0  0  0  0  0  0  0  0  0  0  0
   -1.3493    0.4764   -2.0989 H   0  0  0  0  0  0  0  0  0  0  0  0
   -0.4611   -1.0512   -2.1055 H   0  0  0  0  0  0  0  0  0  0  0  0
    0.5912   -0.6651    0.2616 H   0  0  0  0  0  0  0  0  0  0  0  0
   -1.3410   -0.5713    0.1854 H   0  0  0  0  0  0  0  0  0  0  0  0
    0.4076    1.9248    0.0452 H   0  0  0  0  0  0  0  0  0  0  0  0
   -0.3918    1.3058    1.5017 H   0  0  0  0  0  0  0  0  0  0  0  0
   -1.6531    3.3443    1.6170 H   0  0  0  0  0  0  0  0  0  0  0  0
   -0.8675    3.9244    0.1410 H   0  0  0  0  0  0  0  0  0  0  0  0
   -3.8700    3.3898    0.4538 H   0  0  0  0  0  0  0  0  0  0  0  0
   -3.0845    3.9710   -1.0208 H   0  0  0  0  0  0  0  0  0  0  0  0
   -3.1013    4.9852    0.4311 H   0  0  0  0  0  0  0  0  0  0  0  0
  1  2  1  0
  1  5  1  0
  1  6  1  0
  1  7  1  0
  2  3  1  0
  2  8  1  0
  2  9  1  0
  3  4  1  0
  3 10  1  0
  3 11  1  0
  4 21  1  0
 12 13  1  0
 12 18  1  0
 12 19  1  0
 12 20  1  0
 13 14  1  0
 13 22  1  0
 14 15  1  0
 14 23  1  0
 14 24  1  0
 15 16  1  0
 16 17  1  0
 16 25  1  0
 16 26  1  0
 17 27  1  0
 17 28  1  0
 17 29  1  0
M  RAD  1  13   2
M  END
>  <reaction>  (10) 
rmg_rxn_314

>  <mol_properties>  (10) 
{"2": {"label": "*4", "atom_type": "Cs"}, "3": {"label": "*3", "atom_type": "O2s"}, "12": {"label": "*1", "atom_type": "Cs"}, "13": {"label": "*0", "atom_type": "Cs"}, "20": {"label": "*2", "atom_type": "H0"}}

>  <type>  (10) 
unop_6

>  <geom_source>  (10) 
Heuristics

$$$$

     RDKit          3D

 29 27  0  0  0  0  0  0  0  0999 V2000
    2.7996   -3.9378    0.1395 C   0  0  0  0  0  0  0  0  0  0  0  0
    1.3586   -3.6090    0.5046 C   0  0  0  0  0  0  0  0  0  0  0  0
    1.2081   -2.2682    1.2080 C   0  0  0  0  0  0  0  0  0  0  0  0
    1.6429   -1.1735    0.4241 O   0  0  0  0  0  0  0  0  0  0  0  0
    3.4203   -4.0070    1.0358 H   0  0  0  0  0  0  0  0  0  0  0  0
    2.8664   -4.8897   -0.3892 H   0  0  0  0  0  0  0  0  0  0  0  0
    3.2252   -3.1622   -0.4979 H   0  0  0  0  0  0  0  0  0  0  0  0
    0.7349   -3.6083   -0.3969 H   0  0  0  0  0  0  0  0  0  0  0  0
    0.9478   -4.3848    1.1578 H   0  0  0  0  0  0  0  0  0  0  0  0
    0.1668   -2.1277    1.5242 H   0  0  0  0  0  0  0  0  0  0  0  0
    1.8281   -2.2476    2.1071 H   0  0  0  0  0  0  0  0  0  0  0  0
   -0.3422    0.0121   -1.9462 C   0  0  0  0  0  0  0  0  0  0  0  0
   -0.3422    0.0121   -0.4233 C   0  0  0  0  0  3  0  0  0  0  0  0
   -0.3422    1.4051    0.1722 C   0  0  0  0  0  0  0  0  0  0  0  0
   -1.5252    2.0687   -0.1954 O   0  0  0  0  0  0  0  0  0  0  0  0
   -1.5959    3.3868    0.2855 C   0  0  0  0  0  0  0  0  0  0  0  0
   -2.8992    4.0046   -0.1653 C   0  0  0  0  0  0  0  0  0  0  0  0
    0.5399    0.5264   -2.3358 H   0  0  0  0  0  0  0  0  0  0  0  0
   -1.2249    0.5218   -2.3323 H   0  0  0  0  0  0  0  0  0  0  0  0
   -0.3367   -1.0058   -2.3389 H   0  0  0  0  0  0  0  0  0  0  0  0
    0.7157   -0.6197    0.0282 H   0  0  0  0  0  0  0  0  0  0  0  0
   -1.2165   -0.5259   -0.0480 H   0  0  0  0  0  0  0  0  0  0  0  0
    0.5320    1.9702   -0.1882 H   0  0  0  0  0  0  0  0  0  0  0  0
   -0.2674    1.3512    1.2683 H   0  0  0  0  0  0  0  0  0  0  0  0
   -1.5286    3.3897    1.3836 H   0  0  0  0  0  0  0  0  0  0  0  0
   -0.7430    3.9698   -0.0924 H   0  0  0  0  0  0  0  0  0  0  0  0
   -3.7456    3.4352    0.2204 H   0  0  0  0  0  0  0  0  0  0  0  0
   -2.9600    4.0164   -1.2541 H   0  0  0  0  0  0  0  0  0  0  0  0
   -2.9768    5.0306    0.1977 H   0  0  0  0  0  0  0  0  0  0  0  0
  1  2  1  0
  1  5  1  0
  1  6  1  0
  1  7  1  0
  2  3  1  0
  2  8  1  0
  2  9  1  0
  3  4  1  0
  3 10  1  0
  3 11  1  0
  4 21  1  0
 12 13  1  0
 12 18  1  0
 12 19  1  0
 12 20  1  0
 13 14  1  0
 13 22  1  0
 14 15  1  0
 14 23  1  0
 14 24  1  0
 15 16  1  0
 16 17  1  0
 16 25  1  0
 16 26  1  0
 17 27  1  0
 17 28  1  0
 17 29  1  0
M  RAD  1  13   2
M  END
>  <reaction>  (11) 
rmg_rxn_314

>  <mol_properties>  (11) 
{"2": {"label": "*4", "atom_type": "Cs"}, "3": {"label": "*3", "atom_type": "O2s"}, "12": {"label": "*1", "atom_type": "Cs"}, "13": {"label": "*0", "atom_type": "Cs"}, "20": {"label": "*2", "atom_type": "H0"}}

>  <type>  (11) 
unop_7

>  <geom_source>  (11) 
Heuristics

$$$$

     RDKit          3D

 29 27  0  0  0  0  0  0  0  0999 V2000
    1.1954    0.2531    1.6971 C   0  0  0  0  0  0  0  0  0  0  0  0
    2.1304   -0.0104    0.5248 C   0  0  0  0  0  0  0  0  0  0  0  0
    2.6171   -1.4504    0.4565 C   0  0  0  0  0  0  0  0  0  0  0  0
    1.5689   -2.3884    0.3029 O   0  0  0  0  0  0  0  0  0  0  0  0
    1.7040    0.0714    2.6468 H   0  0  0  0  0  0  0  0  0  0  0  0
    0.8427    1.2854    1.6975 H   0  0  0  0  0  0  0  0  0  0  0  0
    0.3269   -0.4049    1.6565 H   0  0  0  0  0  0  0  0  0  0  0  0
    1.6289    0.2393   -0.4174 H   0  0  0  0  0  0  0  0  0  0  0  0
    3.0061    0.6429    0.5854 H   0  0  0  0  0  0  0  0  0  0  0  0
    3.3529   -1.5576   -0.3505 H   0  0  0  0  0  0  0  0  0  0  0  0
    3.1151   -1.7200    1.3905 H   0  0  0  0  0  0  0  0  0  0  0  0
   -0.4162   -1.2028   -2.0673 C   0  0  0  0  0  0  0  0  0  0  0  0
   -0.4162   -1.2028   -0.5444 C   0  0  0  0  0  3  0  0  0  0  0  0
   -0.4162    0.1902    0.0511 C   0  0  0  0  0  0  0  0  0  0  0  0
   -1.5992    0.8538   -0.3165 O   0  0  0  0  0  0  0  0  0  0  0  0
   -1.6700    2.1719    0.1644 C   0  0  0  0  0  0  0  0  0  0  0  0
   -2.9733    2.7897   -0.2864 C   0  0  0  0  0  0  0  0  0  0  0  0
    0.4658   -0.6885   -2.4569 H   0  0  0  0  0  0  0  0  0  0  0  0
   -1.2990   -0.6931   -2.4534 H   0  0  0  0  0  0  0  0  0  0  0  0
   -0.4108   -2.2207   -2.4600 H   0  0  0  0  0  0  0  0  0  0  0  0
    0.6416   -1.8346   -0.0929 H   0  0  0  0  0  0  0  0  0  0  0  0
   -1.2906   -1.7408   -0.1691 H   0  0  0  0  0  0  0  0  0  0  0  0
    0.4580    0.7553   -0.3093 H   0  0  0  0  0  0  0  0  0  0  0  0
   -0.3415    0.1363    1.1472 H   0  0  0  0  0  0  0  0  0  0  0  0
   -1.6027    2.1747    1.2625 H   0  0  0  0  0  0  0  0  0  0  0  0
   -0.8171    2.7549   -0.2135 H   0  0  0  0  0  0  0  0  0  0  0  0
   -3.8196    2.2203    0.0993 H   0  0  0  0  0  0  0  0  0  0  0  0
   -3.0341    2.8015   -1.3752 H   0  0  0  0  0  0  0  0  0  0  0  0
   -3.0509    3.8157    0.0766 H   0  0  0  0  0  0  0  0  0  0  0  0
  1  2  1  0
  1  5  1  0
  1  6  1  0
  1  7  1  0
  2  3  1  0
  2  8  1  0
  2  9  1  0
  3  4  1  0
  3 10  1  0
  3 11  1  0
  4 21  1  0
 12 13  1  0
 12 18  1  0
 12 19  1  0
 12 20  1  0
 13 14  1  0
 13 22  1  0
 14 15  1  0
 14 23  1  0
 14 24  1  0
 15 16  1  0
 16 17  1  0
 16 25  1  0
 16 26  1  0
 17 27  1  0
 17 28  1  0
 17 29  1  0
M  RAD  1  13   2
M  END
>  <reaction>  (12) 
rmg_rxn_314

>  <mol_properties>  (12) 
{"2": {"label": "*4", "atom_type": "Cs"}, "3": {"label": "*3", "atom_type": "O2s"}, "12": {"label": "*1", "atom_type": "Cs"}, "13": {"label": "*0", "atom_type": "Cs"}, "20": {"label": "*2", "atom_type": "H0"}}

>  <type>  (12) 
unop_8

>  <geom_source>  (12) 
Heuristics

$$$$

     RDKit          3D

 29 27  0  0  0  0  0  0  0  0999 V2000
    3.7865   -1.5067   -0.7213 C   0  0  0  0  0  0  0  0  0  0  0  0
    2.4664   -2.1294   -1.1544 C   0  0  0  0  0  0  0  0  0  0  0  0
    1.6454   -2.6664    0.0086 C   0  0  0  0  0  0  0  0  0  0  0  0
    1.2863   -1.6700    0.9469 O   0  0  0  0  0  0  0  0  0  0  0  0
    4.4227   -2.2481   -0.2325 H   0  0  0  0  0  0  0  0  0  0  0  0
    4.3339   -1.1058   -1.5756 H   0  0  0  0  0  0  0  0  0  0  0  0
    3.6190   -0.6960   -0.0117 H   0  0  0  0  0  0  0  0  0  0  0  0
    1.8666   -1.3927   -1.7014 H   0  0  0  0  0  0  0  0  0  0  0  0
    2.6477   -2.9523   -1.8524 H   0  0  0  0  0  0  0  0  0  0  0  0
    0.7528   -3.1797   -0.3706 H   0  0  0  0  0  0  0  0  0  0  0  0
    2.2296   -3.3988    0.5702 H   0  0  0  0  0  0  0  0  0  0  0  0
   -0.6988   -0.4844   -1.4233 C   0  0  0  0  0  0  0  0  0  0  0  0
   -0.6988   -0.4844    0.0996 C   0  0  0  0  0  3  0  0  0  0  0  0
   -0.6988    0.9086    0.6951 C   0  0  0  0  0  0  0  0  0  0  0  0
   -1.8818    1.5722    0.3275 O   0  0  0  0  0  0  0  0  0  0  0  0
   -1.9525    2.8903    0.8084 C   0  0  0  0  0  0  0  0  0  0  0  0
   -3.2558    3.5081    0.3575 C   0  0  0  0  0  0  0  0  0  0  0  0
    0.1833    0.0299   -1.8130 H   0  0  0  0  0  0  0  0  0  0  0  0
   -1.5815    0.0253   -1.8094 H   0  0  0  0  0  0  0  0  0  0  0  0
   -0.6933   -1.5023   -1.8160 H   0  0  0  0  0  0  0  0  0  0  0  0
    0.3591   -1.1162    0.5511 H   0  0  0  0  0  0  0  0  0  0  0  0
   -1.5732   -1.0224    0.4748 H   0  0  0  0  0  0  0  0  0  0  0  0
    0.1754    1.4737    0.3347 H   0  0  0  0  0  0  0  0  0  0  0  0
   -0.6240    0.8547    1.7911 H   0  0  0  0  0  0  0  0  0  0  0  0
   -1.8852    2.8931    1.9065 H   0  0  0  0  0  0  0  0  0  0  0  0
   -1.0996    3.4733    0.4305 H   0  0  0  0  0  0  0  0  0  0  0  0
   -4.1022    2.9387    0.7432 H   0  0  0  0  0  0  0  0  0  0  0  0
   -3.3166    3.5199   -0.7313 H   0  0  0  0  0  0  0  0  0  0  0  0
   -3.3334    4.5341    0.7206 H   0  0  0  0  0  0  0  0  0  0  0  0
  1  2  1  0
  1  5  1  0
  1  6  1  0
  1  7  1  0
  2  3  1  0
  2  8  1  0
  2  9  1  0
  3  4  1  0
  3 10  1  0
  3 11  1  0
  4 21  1  0
 12 13  1  0
 12 18  1  0
 12 19  1  0
 12 20  1  0
 13 14  1  0
 13 22  1  0
 14 15  1  0
 14 23  1  0
 14 24  1  0
 15 16  1  0
 16 17  1  0
 16 25  1  0
 16 26  1  0
 17 27  1  0
 17 28  1  0
 17 29  1  0
M  RAD  1  13   2
M  END
>  <reaction>  (13) 
rmg_rxn_314

>  <mol_properties>  (13) 
{"2": {"label": "*4", "atom_type": "Cs"}, "3": {"label": "*3", "atom_type": "O2s"}, "12": {"label": "*1", "atom_type": "Cs"}, "13": {"label": "*0", "atom_type": "Cs"}, "20": {"label": "*2", "atom_type": "H0"}}

>  <type>  (13) 
unop_9

>  <geom_source>  (13) 
Heuristics

$$$$

     RDKit          3D

 29 27  0  0  0  0  0  0  0  0999 V2000
    1.9388    0.5602    1.0347 C   0  0  0  0  0  0  0  0  0  0  0  0
    2.3593   -0.2241   -0.2006 C   0  0  0  0  0  0  0  0  0  0  0  0
    2.5881   -1.7027    0.0757 C   0  0  0  0  0  0  0  0  0  0  0  0
    1.4338   -2.3678    0.5525 O   0  0  0  0  0  0  0  0  0  0  0  0
    2.7169    0.5232    1.8006 H   0  0  0  0  0  0  0  0  0  0  0  0
    1.7542    1.6081    0.7942 H   0  0  0  0  0  0  0  0  0  0  0  0
    1.0290    0.1435    1.4680 H   0  0  0  0  0  0  0  0  0  0  0  0
    1.5996   -0.1234   -0.9845 H   0  0  0  0  0  0  0  0  0  0  0  0
    3.2820    0.1918   -0.6164 H   0  0  0  0  0  0  0  0  0  0  0  0
    2.9732   -2.1954   -0.8260 H   0  0  0  0  0  0  0  0  0  0  0  0
    3.3390   -1.8233    0.8598 H   0  0  0  0  0  0  0  0  0  0  0  0
   -0.5513   -1.1823   -1.8178 C   0  0  0  0  0  0  0  0  0  0  0  0
   -0.5513   -1.1823   -0.2949 C   0  0  0  0  0  3  0  0  0  0  0  0
   -0.5513    0.2108    0.3007 C   0  0  0  0  0  0  0  0  0  0  0  0
   -1.7343    0.8744   -0.0669 O   0  0  0  0  0  0  0  0  0  0  0  0
   -1.8050    2.1925    0.4140 C   0  0  0  0  0  0  0  0  0  0  0  0
   -3.1083    2.8102   -0.0369 C   0  0  0  0  0  0  0  0  0  0  0  0
    0.3308   -0.6679   -2.2074 H   0  0  0  0  0  0  0  0  0  0  0  0
   -1.4340   -0.6726   -2.2038 H   0  0  0  0  0  0  0  0  0  0  0  0
   -0.5458   -2.2001   -2.2104 H   0  0  0  0  0  0  0  0  0  0  0  0
    0.5065   -1.8140    0.1567 H   0  0  0  0  0  0  0  0  0  0  0  0
   -1.4257   -1.7202    0.0804 H   0  0  0  0  0  0  0  0  0  0  0  0
    0.3229    0.7759   -0.0597 H   0  0  0  0  0  0  0  0  0  0  0  0
   -0.4765    0.1569    1.3967 H   0  0  0  0  0  0  0  0  0  0  0  0
   -1.7378    2.1953    1.5120 H   0  0  0  0  0  0  0  0  0  0  0  0
   -0.9522    2.7754    0.0361 H   0  0  0  0  0  0  0  0  0  0  0  0
   -3.9547    2.2408    0.3488 H   0  0  0  0  0  0  0  0  0  0  0  0
   -3.1692    2.8221   -1.1257 H   0  0  0  0  0  0  0  0  0  0  0  0
   -3.1860    3.8363    0.3262 H   0  0  0  0  0  0  0  0  0  0  0  0
  1  2  1  0
  1  5  1  0
  1  6  1  0
  1  7  1  0
  2  3  1  0
  2  8  1  0
  2  9  1  0
  3  4  1  0
  3 10  1  0
  3 11  1  0
  4 21  1  0
 12 13  1  0
 12 18  1  0
 12 19  1  0
 12 20  1  0
 13 14  1  0
 13 22  1  0
 14 15  1  0
 14 23  1  0
 14 24  1  0
 15 16  1  0
 16 17  1  0
 16 25  1  0
 16 26  1  0
 17 27  1  0
 17 28  1  0
 17 29  1  0
M  RAD  1  13   2
M  END
>  <reaction>  (14) 
rmg_rxn_314

>  <mol_properties>  (14) 
{"2": {"label": "*4", "atom_type": "Cs"}, "3": {"label": "*3", "atom_type": "O2s"}, "12": {"label": "*1", "atom_type": "Cs"}, "13": {"label": "*0", "atom_type": "Cs"}, "20": {"label": "*2", "atom_type": "H0"}}

>  <type>  (14) 
unop_10

>  <geom_source>  (14) 
Heuristics

$$$$

     RDKit          3D

 29 27  0  0  0  0  0  0  0  0999 V2000
    2.0071   -4.2008    0.7128 C   0  0  0  0  0  0  0  0  0  0  0  0
    0.9681   -3.2692    1.3215 C   0  0  0  0  0  0  0  0  0  0  0  0
    1.4484   -1.8304    1.4418 C   0  0  0  0  0  0  0  0  0  0  0  0
    1.7764   -1.2443    0.1964 O   0  0  0  0  0  0  0  0  0  0  0  0
    2.9026   -4.2431    1.3370 H   0  0  0  0  0  0  0  0  0  0  0  0
    1.6189   -5.2155    0.6137 H   0  0  0  0  0  0  0  0  0  0  0  0
    2.3094   -3.8525   -0.2752 H   0  0  0  0  0  0  0  0  0  0  0  0
    0.0512   -3.2877    0.7210 H   0  0  0  0  0  0  0  0  0  0  0  0
    0.6852   -3.6187    2.3191 H   0  0  0  0  0  0  0  0  0  0  0  0
    0.6954   -1.2284    1.9659 H   0  0  0  0  0  0  0  0  0  0  0  0
    2.3662   -1.7923    2.0328 H   0  0  0  0  0  0  0  0  0  0  0  0
   -0.2087   -0.0588   -2.1739 C   0  0  0  0  0  0  0  0  0  0  0  0
   -0.2087   -0.0588   -0.6509 C   0  0  0  0  0  3  0  0  0  0  0  0
   -0.2087    1.3343   -0.0554 C   0  0  0  0  0  0  0  0  0  0  0  0
   -1.3917    1.9979   -0.4230 O   0  0  0  0  0  0  0  0  0  0  0  0
   -1.4624    3.3159    0.0579 C   0  0  0  0  0  0  0  0  0  0  0  0
   -2.7657    3.9337   -0.3930 C   0  0  0  0  0  0  0  0  0  0  0  0
    0.6734    0.4555   -2.5635 H   0  0  0  0  0  0  0  0  0  0  0  0
   -1.0914    0.4509   -2.5599 H   0  0  0  0  0  0  0  0  0  0  0  0
   -0.2032   -1.0766   -2.5665 H   0  0  0  0  0  0  0  0  0  0  0  0
    0.8492   -0.6905   -0.1994 H   0  0  0  0  0  0  0  0  0  0  0  0
   -1.0830   -0.5968   -0.2757 H   0  0  0  0  0  0  0  0  0  0  0  0
    0.6655    1.8994   -0.4158 H   0  0  0  0  0  0  0  0  0  0  0  0
   -0.1339    1.2804    1.0406 H   0  0  0  0  0  0  0  0  0  0  0  0
   -1.3951    3.3188    1.1559 H   0  0  0  0  0  0  0  0  0  0  0  0
   -0.6095    3.8989   -0.3200 H   0  0  0  0  0  0  0  0  0  0  0  0
   -3.6121    3.3643   -0.0073 H   0  0  0  0  0  0  0  0  0  0  0  0
   -2.8265    3.9456   -1.4818 H   0  0  0  0  0  0  0  0  0  0  0  0
   -2.8433    4.9597   -0.0299 H   0  0  0  0  0  0  0  0  0  0  0  0
  1  2  1  0
  1  5  1  0
  1  6  1  0
  1  7  1  0
  2  3  1  0
  2  8  1  0
  2  9  1  0
  3  4  1  0
  3 10  1  0
  3 11  1  0
  4 21  1  0
 12 13  1  0
 12 18  1  0
 12 19  1  0
 12 20  1  0
 13 14  1  0
 13 22  1  0
 14 15  1  0
 14 23  1  0
 14 24  1  0
 15 16  1  0
 16 17  1  0
 16 25  1  0
 16 26  1  0
 17 27  1  0
 17 28  1  0
 17 29  1  0
M  RAD  1  13   2
M  END
>  <reaction>  (15) 
rmg_rxn_314

>  <mol_properties>  (15) 
{"2": {"label": "*4", "atom_type": "Cs"}, "3": {"label": "*3", "atom_type": "O2s"}, "12": {"label": "*1", "atom_type": "Cs"}, "13": {"label": "*0", "atom_type": "Cs"}, "20": {"label": "*2", "atom_type": "H0"}}

>  <type>  (15) 
unop_11

>  <geom_source>  (15) 
Heuristics

$$$$

     RDKit          3D

 29 27  0  0  0  0  0  0  0  0999 V2000
    3.4555   -0.3392   -0.3446 C   0  0  0  0  0  0  0  0  0  0  0  0
    2.5358   -1.3058   -1.0779 C   0  0  0  0  0  0  0  0  0  0  0  0
    2.0265   -2.4364   -0.1959 C   0  0  0  0  0  0  0  0  0  0  0  0
    1.2701   -1.9846    0.9113 O   0  0  0  0  0  0  0  0  0  0  0  0
    4.3493   -0.8531    0.0164 H   0  0  0  0  0  0  0  0  0  0  0  0
    3.7765    0.4737   -0.9976 H   0  0  0  0  0  0  0  0  0  0  0  0
    2.9524    0.0952    0.5198 H   0  0  0  0  0  0  0  0  0  0  0  0
    1.6769   -0.7646   -1.4915 H   0  0  0  0  0  0  0  0  0  0  0  0
    3.0565   -1.7483   -1.9325 H   0  0  0  0  0  0  0  0  0  0  0  0
    1.4448   -3.1458   -0.7978 H   0  0  0  0  0  0  0  0  0  0  0  0
    2.8695   -2.9844    0.2309 H   0  0  0  0  0  0  0  0  0  0  0  0
   -0.7150   -0.7991   -1.4590 C   0  0  0  0  0  0  0  0  0  0  0  0
   -0.7150   -0.7991    0.0639 C   0  0  0  0  0  3  0  0  0  0  0  0
   -0.7150    0.5940    0.6594 C   0  0  0  0  0  0  0  0  0  0  0  0
   -1.8980    1.2576    0.2918 O   0  0  0  0  0  0  0  0  0  0  0  0
   -1.9687    2.5757    0.7727 C   0  0  0  0  0  0  0  0  0  0  0  0
   -3.2720    3.1934    0.3219 C   0  0  0  0  0  0  0  0  0  0  0  0
    0.1671   -0.2847   -1.8486 H   0  0  0  0  0  0  0  0  0  0  0  0
   -1.5977   -0.2894   -1.8451 H   0  0  0  0  0  0  0  0  0  0  0  0
   -0.7095   -1.8169   -1.8517 H   0  0  0  0  0  0  0  0  0  0  0  0
    0.3428   -1.4308    0.5154 H   0  0  0  0  0  0  0  0  0  0  0  0
   -1.5894   -1.3370    0.4392 H   0  0  0  0  0  0  0  0  0  0  0  0
    0.1592    1.1591    0.2990 H   0  0  0  0  0  0  0  0  0  0  0  0
   -0.6402    0.5401    1.7555 H   0  0  0  0  0  0  0  0  0  0  0  0
   -1.9015    2.5785    1.8708 H   0  0  0  0  0  0  0  0  0  0  0  0
   -1.1159    3.1586    0.3948 H   0  0  0  0  0  0  0  0  0  0  0  0
   -4.1184    2.6240    0.7076 H   0  0  0  0  0  0  0  0  0  0  0  0
   -3.3328    3.2053   -0.7669 H   0  0  0  0  0  0  0  0  0  0  0  0
   -3.3497    4.2195    0.6849 H   0  0  0  0  0  0  0  0  0  0  0  0
  1  2  1  0
  1  5  1  0
  1  6  1  0
  1  7  1  0
  2  3  1  0
  2  8  1  0
  2  9  1  0
  3  4  1  0
  3 10  1  0
  3 11  1  0
  4 21  1  0
 12 13  1  0
 12 18  1  0
 12 19  1  0
 12 20  1  0
 13 14  1  0
 13 22  1  0
 14 15  1  0
 14 23  1  0
 14 24  1  0
 15 16  1  0
 16 17  1  0
 16 25  1  0
 16 26  1  0
 17 27  1  0
 17 28  1  0
 17 29  1  0
M  RAD  1  13   2
M  END
>  <reaction>  (16) 
rmg_rxn_314

>  <mol_properties>  (16) 
{"2": {"label": "*4", "atom_type": "Cs"}, "3": {"label": "*3", "atom_type": "O2s"}, "12": {"label": "*1", "atom_type": "Cs"}, "13": {"label": "*0", "atom_type": "Cs"}, "20": {"label": "*2", "atom_type": "H0"}}

>  <type>  (16) 
unop_12

>  <geom_source>  (16) 
Heuristics

$$$$

     RDKit          3D

 29 27  0  0  0  0  0  0  0  0999 V2000
   -2.0589    0.1851   -0.1512 O   0  0  0  0  0  0  0  0  0  0  0  0
    1.4726   -0.3273   -0.5832 O   0  0  0  0  0  0  0  0  0  0  0  0
    3.7317    0.4676   -0.3890 C   0  0  0  0  0  0  0  0  0  0  0  0
    2.7297   -0.6376   -0.0540 C   0  0  0  0  0  0  0  0  0  0  0  0
   -2.9213    1.0622    0.5410 C   0  0  0  0  0  0  0  0  0  0  0  0
   -1.3719   -0.6284    0.7759 C   0  0  0  0  0  0  0  0  0  0  0  0
    3.3704    1.7877    0.2888 C   0  0  0  0  0  0  0  0  0  0  0  0
   -3.6474    1.9434   -0.4636 C   0  0  0  0  0  0  0  0  0  0  0  0
   -1.2486   -2.5946   -0.8163 C   0  0  0  0  0  0  0  0  0  0  0  0
   -0.4604   -1.5951    0.0244 C   0  0  0  0  0  3  0  0  0  0  0  0
    4.7423    0.1541   -0.0490 H   0  0  0  0  0  0  0  0  0  0  0  0
    3.7682    0.6154   -1.4902 H   0  0  0  0  0  0  0  0  0  0  0  0
    2.6545   -0.7625    1.0486 H   0  0  0  0  0  0  0  0  0  0  0  0
    3.0861   -1.5940   -0.4944 H   0  0  0  0  0  0  0  0  0  0  0  0
   -3.6842    0.4925    1.1193 H   0  0  0  0  0  0  0  0  0  0  0  0
   -2.3467    1.7213    1.2314 H   0  0  0  0  0  0  0  0  0  0  0  0
    3.3440    1.6608    1.3921 H   0  0  0  0  0  0  0  0  0  0  0  0
    4.1340    2.5540    0.0384 H   0  0  0  0  0  0  0  0  0  0  0  0
    2.3805    2.1476   -0.0634 H   0  0  0  0  0  0  0  0  0  0  0  0
   -2.9134    2.5381   -1.0479 H   0  0  0  0  0  0  0  0  0  0  0  0
   -4.3303    2.6378    0.0700 H   0  0  0  0  0  0  0  0  0  0  0  0
   -4.2437    1.3152   -1.1590 H   0  0  0  0  0  0  0  0  0  0  0  0
   -0.7297   -0.0031    1.4365 H   0  0  0  0  0  0  0  0  0  0  0  0
   -2.0814   -1.2145    1.4049 H   0  0  0  0  0  0  0  0  0  0  0  0
   -1.8571   -2.0632   -1.5778 H   0  0  0  0  0  0  0  0  0  0  0  0
   -0.5412   -3.2706   -1.3400 H   0  0  0  0  0  0  0  0  0  0  0  0
   -1.9146   -3.2043   -0.1693 H   0  0  0  0  0  0  0  0  0  0  0  0
    0.1825   -2.1434    0.7465 H   0  0  0  0  0  0  0  0  0  0  0  0
    0.7545   -1.2437   -0.2694 H   0  0  0  0  0  0  0  0  0  0  0  0
  1  5  1  0
  1  6  1  0
  2  4  1  0
  2 29  1  0
  3  7  1  0
  3  4  1  0
  3 11  1  0
  3 12  1  0
  4 13  1  0
  4 14  1  0
  5  8  1  0
  5 15  1  0
  5 16  1  0
  6 10  1  0
  6 23  1  0
  6 24  1  0
  7 17  1  0
  7 18  1  0
  7 19  1  0
  8 20  1  0
  8 21  1  0
  8 22  1  0
  9 10  1  0
  9 25  1  0
  9 26  1  0
  9 27  1  0
 10 28  1  0
M  RAD  1  10   2
M  END
>  <reaction>  (17) 
rmg_rxn_314

>  <mol_properties>  (17) 
{"2": {"label": "*4", "atom_type": "Cs"}, "3": {"label": "*3", "atom_type": "O2s"}, "12": {"label": "*1", "atom_type": "Cs"}, "13": {"label": "*0", "atom_type": "Cs"}, "20": {"label": "*2", "atom_type": "H0"}}

>  <type>  (17) 
unop_13

>  <geom_source>  (17) 
AutoTST

$$$$

     RDKit          3D

 29 27  0  0  0  0  0  0  0  0999 V2000
    2.7328    0.3959    0.3154 C   0  0  0  0  0  0  0  0  0  0  0  0
    2.4711   -0.6667   -0.7431 C   0  0  0  0  0  0  0  0  0  0  0  0
    2.3805   -2.0741   -0.1719 C   0  0  0  0  0  0  0  0  0  0  0  0
    1.3330   -2.2304    0.7664 O   0  0  0  0  0  0  0  0  0  0  0  0
    3.6896    0.2203    0.8124 H   0  0  0  0  0  0  0  0  0  0  0  0
    2.7613    1.3938   -0.1244 H   0  0  0  0  0  0  0  0  0  0  0  0
    1.9558    0.3815    1.0803 H   0  0  0  0  0  0  0  0  0  0  0  0
    1.5415   -0.4409   -1.2784 H   0  0  0  0  0  0  0  0  0  0  0  0
    3.2656   -0.6546   -1.4953 H   0  0  0  0  0  0  0  0  0  0  0  0
    2.2809   -2.8018   -0.9871 H   0  0  0  0  0  0  0  0  0  0  0  0
    3.2969   -2.3153    0.3712 H   0  0  0  0  0  0  0  0  0  0  0  0
   -0.6521   -1.0449   -1.6039 C   0  0  0  0  0  0  0  0  0  0  0  0
   -0.6521   -1.0449   -0.0810 C   0  0  0  0  0  3  0  0  0  0  0  0
   -0.6521    0.3482    0.5145 C   0  0  0  0  0  0  0  0  0  0  0  0
   -1.8351    1.0118    0.1469 O   0  0  0  0  0  0  0  0  0  0  0  0
   -1.9058    2.3298    0.6278 C   0  0  0  0  0  0  0  0  0  0  0  0
   -3.2092    2.9476    0.1770 C   0  0  0  0  0  0  0  0  0  0  0  0
    0.2299   -0.5306   -1.9935 H   0  0  0  0  0  0  0  0  0  0  0  0
   -1.5349   -0.5352   -1.9900 H   0  0  0  0  0  0  0  0  0  0  0  0
   -0.6466   -2.0627   -1.9965 H   0  0  0  0  0  0  0  0  0  0  0  0
    0.4057   -1.6766    0.3706 H   0  0  0  0  0  0  0  0  0  0  0  0
   -1.5265   -1.5829    0.2943 H   0  0  0  0  0  0  0  0  0  0  0  0
    0.2221    0.9133    0.1542 H   0  0  0  0  0  0  0  0  0  0  0  0
   -0.5773    0.2943    1.6106 H   0  0  0  0  0  0  0  0  0  0  0  0
   -1.8386    2.3327    1.7259 H   0  0  0  0  0  0  0  0  0  0  0  0
   -1.0530    2.9128    0.2500 H   0  0  0  0  0  0  0  0  0  0  0  0
   -4.0555    2.3782    0.5627 H   0  0  0  0  0  0  0  0  0  0  0  0
   -3.2700    2.9595   -0.9118 H   0  0  0  0  0  0  0  0  0  0  0  0
   -3.2868    3.9736    0.5401 H   0  0  0  0  0  0  0  0  0  0  0  0
  1  2  1  0
  1  5  1  0
  1  6  1  0
  1  7  1  0
  2  3  1  0
  2  8  1  0
  2  9  1  0
  3  4  1  0
  3 10  1  0
  3 11  1  0
  4 21  1  0
 12 13  1  0
 12 18  1  0
 12 19  1  0
 12 20  1  0
 13 14  1  0
 13 22  1  0
 14 15  1  0
 14 23  1  0
 14 24  1  0
 15 16  1  0
 16 17  1  0
 16 25  1  0
 16 26  1  0
 17 27  1  0
 17 28  1  0
 17 29  1  0
M  RAD  1  13   2
M  END
>  <reaction>  (18) 
rmg_rxn_314

>  <mol_properties>  (18) 
{"2": {"label": "*4", "atom_type": "Cs"}, "3": {"label": "*3", "atom_type": "O2s"}, "12": {"label": "*1", "atom_type": "Cs"}, "13": {"label": "*0", "atom_type": "Cs"}, "20": {"label": "*2", "atom_type": "H0"}}

>  <type>  (18) 
unop_14

>  <geom_source>  (18) 
gaussian_log

$$$$
