
     RDKit          3D

 18 17  0  0  0  0  0  0  0  0999 V2000
    2.2026   -0.7213   -0.2612 C   0  0  0  0  0  0  0  0  0  0  0  0
    1.5384    0.2638    0.6915 C   0  0  0  0  0  0  0  0  0  0  0  0
    2.2584    1.5946    0.7694 C   0  0  0  0  0  0  0  0  0  0  0  0
    2.2212    2.2185   -0.4893 O   0  0  0  0  0  0  0  0  0  0  0  0
    2.8988    3.4488   -0.5204 C   0  0  0  0  0  0  0  0  0  0  0  0
    2.7981    4.0296   -1.9118 C   0  0  0  0  0  0  0  0  0  0  0  0
    3.2294   -0.9309    0.0486 H   0  0  0  0  0  0  0  0  0  0  0  0
    2.2338   -0.3181   -1.2734 H   0  0  0  0  0  0  0  0  0  0  0  0
    1.6610   -1.6680   -0.2875 H   0  0  0  0  0  0  0  0  0  0  0  0
    1.4990   -0.1566    1.7002 H   0  0  0  0  0  0  0  0  0  0  0  0
    0.5055    0.4455    0.3835 H   0  0  0  0  0  0  0  0  0  0  0  0
    3.3038    1.4410    1.0808 H   0  0  0  0  0  0  0  0  0  0  0  0
    1.7844    2.2410    1.5226 H   0  0  0  0  0  0  0  0  0  0  0  0
    2.4596    4.1376    0.2164 H   0  0  0  0  0  0  0  0  0  0  0  0
    3.9524    3.3035   -0.2397 H   0  0  0  0  0  0  0  0  0  0  0  0
    1.7543    4.1869   -2.1856 H   0  0  0  0  0  0  0  0  0  0  0  0
    3.2472    3.3545   -2.6411 H   0  0  0  0  0  0  0  0  0  0  0  0
    3.3178    4.9878   -1.9600 H   0  0  0  0  0  0  0  0  0  0  0  0
  1  2  1  0
  1  7  1  0
  1  8  1  0
  1  9  1  0
  2  3  1  0
  2 10  1  0
  2 11  1  0
  3  4  1  0
  3 12  1  0
  3 13  1  0
  4  5  1  0
  5  6  1  0
  5 14  1  0
  5 15  1  0
  6 16  1  0
  6 17  1  0
  6 18  1  0
M  END
>  <reaction>  (1) 
rmg_rxn_345

>  <mol_properties>  (1) 
{"1": {"label": "donator", "atom_type": "Cs"}, "9": {"label": "d_hydrogen", "atom_type": "H0"}}

>  <type>  (1) 
r1h

$$$$

     RDKit          3D

  8  7  0  0  0  0  0  0  0  0999 V2000
    1.3778   -0.6812    0.2772 C   0  0  0  0  0  3  0  0  0  0  0  0
    0.4890    0.2108   -0.0590 C   0  0  0  0  0  0  0  0  0  0  0  0
   -1.0010    0.0286   -0.0323 C   0  0  0  0  0  0  0  0  0  0  0  0
    2.4535   -0.7507    0.3287 H   0  0  0  0  0  0  0  0  0  0  0  0
    0.8447    1.1899   -0.3945 H   0  0  0  0  0  0  0  0  0  0  0  0
   -1.4635    0.7638    0.6301 H   0  0  0  0  0  0  0  0  0  0  0  0
   -1.2709   -0.9687    0.3117 H   0  0  0  0  0  0  0  0  0  0  0  0
   -1.4218    0.1801   -1.0289 H   0  0  0  0  0  0  0  0  0  0  0  0
  1  2  2  3
  1  4  1  0
  2  3  1  0
  2  5  1  0
  3  6  1  0
  3  7  1  0
  3  8  1  0
M  RAD  1   1   2
M  END
>  <reaction>  (2) 
rmg_rxn_345

>  <mol_properties>  (2) 
{"0": {"label": "acceptor", "atom_type": "Cd"}}

>  <type>  (2) 
r2

$$$$

     RDKit          3D

  9  8  0  0  0  0  0  0  0  0999 V2000
    1.1303   -0.2933   -0.7510 C   0  0  0  0  0  0  0  0  0  0  0  0
    0.2866    0.4560   -0.0588 C   0  0  0  0  0  0  0  0  0  0  0  0
   -0.9719   -0.0331    0.5823 C   0  0  0  0  0  0  0  0  0  0  0  0
    2.0274    0.1230   -1.1916 H   0  0  0  0  0  0  0  0  0  0  0  0
    0.9532   -1.3530   -0.9023 H   0  0  0  0  0  0  0  0  0  0  0  0
    0.5065    1.5132    0.0659 H   0  0  0  0  0  0  0  0  0  0  0  0
   -0.9526    0.1426    1.6610 H   0  0  0  0  0  0  0  0  0  0  0  0
   -1.1182   -1.1002    0.4106 H   0  0  0  0  0  0  0  0  0  0  0  0
   -1.8412    0.5010    0.1901 H   0  0  0  0  0  0  0  0  0  0  0  0
  1  2  2  3
  1  4  1  0
  1  5  1  0
  2  3  1  0
  2  6  1  0
  3  7  1  0
  3  8  1  0
  3  9  1  0
M  END
>  <reaction>  (3) 
rmg_rxn_345

>  <mol_properties>  (3) 
{"0": {"label": "acceptor", "atom_type": "Cd"}, "8": {"label": "a_hydrogen", "atom_type": "H0"}}

>  <type>  (3) 
r2h

$$$$

     RDKit          3D

 26 24  0  0  0  0  0  0  0  0999 V2000
    1.6663   -1.8170    1.0029 C   0  0  0  0  0  3  0  0  0  0  0  0
    2.7552   -1.8173    0.2662 C   0  0  0  0  0  0  0  0  0  0  0  0
    4.1052   -2.3078    0.7037 C   0  0  0  0  0  0  0  0  0  0  0  0
    1.5542   -2.1595    2.0263 H   0  0  0  0  0  0  0  0  0  0  0  0
    2.6963   -1.4364   -0.7525 H   0  0  0  0  0  0  0  0  0  0  0  0
    4.4483   -3.1179    0.0553 H   0  0  0  0  0  0  0  0  0  0  0  0
    4.0835   -2.6731    1.7306 H   0  0  0  0  0  0  0  0  0  0  0  0
    4.8456   -1.5067    0.6368 H   0  0  0  0  0  0  0  0  0  0  0  0
   -0.0963   -0.7489   -1.6976 C   0  0  0  0  0  0  0  0  0  0  0  0
   -0.4781   -0.7895   -0.2391 C   0  0  0  0  0  0  0  0  0  0  0  0
   -0.6781    0.5498    0.4150 C   0  0  0  0  0  0  0  0  0  0  0  0
   -1.7851    1.1994   -0.1671 O   0  0  0  0  0  0  0  0  0  0  0  0
   -2.0246    2.4743    0.3744 C   0  0  0  0  0  0  0  0  0  0  0  0
   -3.2235    3.0827   -0.3155 C   0  0  0  0  0  0  0  0  0  0  0  0
    0.7824   -0.1173   -1.8528 H   0  0  0  0  0  0  0  0  0  0  0  0
   -0.9087   -0.3347   -2.2999 H   0  0  0  0  0  0  0  0  0  0  0  0
    0.1304   -1.7476   -2.0744 H   0  0  0  0  0  0  0  0  0  0  0  0
    0.4934   -1.3085    0.3916 H   0  0  0  0  0  0  0  0  0  0  0  0
   -1.3084   -1.4676   -0.0363 H   0  0  0  0  0  0  0  0  0  0  0  0
    0.2265    1.1649    0.2892 H   0  0  0  0  0  0  0  0  0  0  0  0
   -0.8414    0.4260    1.4955 H   0  0  0  0  0  0  0  0  0  0  0  0
   -2.2032    2.3945    1.4570 H   0  0  0  0  0  0  0  0  0  0  0  0
   -1.1382    3.1113    0.2388 H   0  0  0  0  0  0  0  0  0  0  0  0
   -4.1059    2.4588   -0.1692 H   0  0  0  0  0  0  0  0  0  0  0  0
   -3.0415    3.1754   -1.3868 H   0  0  0  0  0  0  0  0  0  0  0  0
   -3.4291    4.0752    0.0886 H   0  0  0  0  0  0  0  0  0  0  0  0
  1  2  2  3
  1  4  1  0
  2  3  1  0
  2  5  1  0
  3  6  1  0
  3  7  1  0
  3  8  1  0
  9 10  1  0
  9 15  1  0
  9 16  1  0
  9 17  1  0
 10 11  1  0
 10 18  1  0
 10 19  1  0
 11 12  1  0
 11 20  1  0
 11 21  1  0
 12 13  1  0
 13 14  1  0
 13 22  1  0
 13 23  1  0
 14 24  1  0
 14 25  1  0
 14 26  1  0
M  RAD  1   1   2
M  END
>  <reaction>  (4) 
rmg_rxn_345

>  <mol_properties>  (4) 
{"0": {"label": "*3", "atom_type": "Cd"}, "1": {"label": "*4", "atom_type": "Cd"}, "9": {"label": "*1", "atom_type": "Cs"}, "10": {"label": "*0", "atom_type": "Cs"}, "17": {"label": "*2", "atom_type": "H0"}}

>  <type>  (4) 
ts

$$$$

     RDKit          3D

 26 24  0  0  0  0  0  0  0  0999 V2000
    1.7424   -2.1592    0.2647 C   0  0  0  0  0  0  0  0  0  0  0  0
    2.6350   -1.5544    1.0326 C   0  0  0  0  0  0  0  0  0  0  0  0
    3.2215   -2.1248    2.2835 C   0  0  0  0  0  0  0  0  0  0  0  0
    1.3655   -3.1477    0.5056 H   0  0  0  0  0  0  0  0  0  0  0  0
    2.9830   -0.5640    0.7504 H   0  0  0  0  0  0  0  0  0  0  0  0
    4.3089   -2.2021    2.2031 H   0  0  0  0  0  0  0  0  0  0  0  0
    2.8213   -3.1171    2.4951 H   0  0  0  0  0  0  0  0  0  0  0  0
    3.0126   -1.4794    3.1406 H   0  0  0  0  0  0  0  0  0  0  0  0
   -0.3628   -0.9020   -2.1568 C   0  0  0  0  0  0  0  0  0  0  0  0
   -0.3628   -0.9020   -0.6339 C   0  0  0  0  0  3  0  0  0  0  0  0
   -0.3628    0.4911   -0.0384 C   0  0  0  0  0  0  0  0  0  0  0  0
   -1.5458    1.1547   -0.4060 O   0  0  0  0  0  0  0  0  0  0  0  0
   -1.6166    2.4728    0.0749 C   0  0  0  0  0  0  0  0  0  0  0  0
   -2.9199    3.0905   -0.3759 C   0  0  0  0  0  0  0  0  0  0  0  0
    0.5192   -0.3876   -2.5464 H   0  0  0  0  0  0  0  0  0  0  0  0
   -1.2456   -0.3923   -2.5429 H   0  0  0  0  0  0  0  0  0  0  0  0
   -0.3574   -1.9198   -2.5495 H   0  0  0  0  0  0  0  0  0  0  0  0
    0.6950   -1.5337   -0.1824 H   0  0  0  0  0  0  0  0  0  0  0  0
   -1.2372   -1.4399   -0.2586 H   0  0  0  0  0  0  0  0  0  0  0  0
    0.5114    1.0562   -0.3988 H   0  0  0  0  0  0  0  0  0  0  0  0
   -0.2881    0.4372    1.0577 H   0  0  0  0  0  0  0  0  0  0  0  0
   -1.5493    2.4756    1.1730 H   0  0  0  0  0  0  0  0  0  0  0  0
   -0.7637    3.0557   -0.3030 H   0  0  0  0  0  0  0  0  0  0  0  0
   -3.7662    2.5211    0.0098 H   0  0  0  0  0  0  0  0  0  0  0  0
   -2.9807    3.1024   -1.4647 H   0  0  0  0  0  0  0  0  0  0  0  0
   -2.9975    4.1166   -0.0129 H   0  0  0  0  0  0  0  0  0  0  0  0
  1  2  2  3
  1  4  1  0
  1 18  1  0
  2  3  1  0
  2  5  1  0
  3  6  1  0
  3  7  1  0
  3  8  1  0
  9 10  1  0
  9 15  1  0
  9 16  1  0
  9 17  1  0
 10 11  1  0
 10 19  1  0
 11 12  1  0
 11 20  1  0
 11 21  1  0
 12 13  1  0
 13 14  1  0
 13 22  1  0
 13 23  1  0
 14 24  1  0
 14 25  1  0
 14 26  1  0
M  RAD  1  10   2
M  END
>  <reaction>  (5) 
rmg_rxn_345

>  <mol_properties>  (5) 
{"0": {"label": "*3", "atom_type": "Cd"}, "1": {"label": "*4", "atom_type": "Cd"}, "9": {"label": "*1", "atom_type": "Cs"}, "10": {"label": "*0", "atom_type": "Cs"}, "17": {"label": "*2", "atom_type": "H0"}}

>  <type>  (5) 
unop_1

>  <geom_source>  (5) 
Heuristics

$$$$

     RDKit          3D

 26 24  0  0  0  0  0  0  0  0999 V2000
    1.5978   -2.0502    0.6621 C   0  0  0  0  0  0  0  0  0  0  0  0
    2.7339   -2.0717   -0.0169 C   0  0  0  0  0  0  0  0  0  0  0  0
    4.0707   -2.4214    0.5533 C   0  0  0  0  0  0  0  0  0  0  0  0
    1.5650   -2.2952    1.7185 H   0  0  0  0  0  0  0  0  0  0  0  0
    2.7170   -1.8186   -1.0739 H   0  0  0  0  0  0  0  0  0  0  0  0
    4.5025   -3.2805    0.0335 H   0  0  0  0  0  0  0  0  0  0  0  0
    4.0008   -2.6617    1.6149 H   0  0  0  0  0  0  0  0  0  0  0  0
    4.7734   -1.5928    0.4333 H   0  0  0  0  0  0  0  0  0  0  0  0
   -0.5074   -0.7929   -1.7594 C   0  0  0  0  0  0  0  0  0  0  0  0
   -0.5074   -0.7929   -0.2365 C   0  0  0  0  0  3  0  0  0  0  0  0
   -0.5074    0.6001    0.3590 C   0  0  0  0  0  0  0  0  0  0  0  0
   -1.6904    1.2637   -0.0086 O   0  0  0  0  0  0  0  0  0  0  0  0
   -1.7611    2.5818    0.4723 C   0  0  0  0  0  0  0  0  0  0  0  0
   -3.0644    3.1996    0.0215 C   0  0  0  0  0  0  0  0  0  0  0  0
    0.3747   -0.2786   -2.1490 H   0  0  0  0  0  0  0  0  0  0  0  0
   -1.3901   -0.2832   -2.1455 H   0  0  0  0  0  0  0  0  0  0  0  0
   -0.5019   -1.8108   -2.1521 H   0  0  0  0  0  0  0  0  0  0  0  0
    0.5504   -1.4247    0.2150 H   0  0  0  0  0  0  0  0  0  0  0  0
   -1.3818   -1.3309    0.1388 H   0  0  0  0  0  0  0  0  0  0  0  0
    0.3668    1.1652   -0.0014 H   0  0  0  0  0  0  0  0  0  0  0  0
   -0.4326    0.5462    1.4551 H   0  0  0  0  0  0  0  0  0  0  0  0
   -1.6939    2.5847    1.5704 H   0  0  0  0  0  0  0  0  0  0  0  0
   -0.9083    3.1648    0.0944 H   0  0  0  0  0  0  0  0  0  0  0  0
   -3.9108    2.6302    0.4072 H   0  0  0  0  0  0  0  0  0  0  0  0
   -3.1252    3.2114   -1.0673 H   0  0  0  0  0  0  0  0  0  0  0  0
   -3.1421    4.2256    0.3845 H   0  0  0  0  0  0  0  0  0  0  0  0
  1  2  2  3
  1  4  1  0
  1 18  1  0
  2  3  1  0
  2  5  1  0
  3  6  1  0
  3  7  1  0
  3  8  1  0
  9 10  1  0
  9 15  1  0
  9 16  1  0
  9 17  1  0
 10 11  1  0
 10 19  1  0
 11 12  1  0
 11 20  1  0
 11 21  1  0
 12 13  1  0
 13 14  1  0
 13 22  1  0
 13 23  1  0
 14 24  1  0
 14 25  1  0
 14 26  1  0
M  RAD  1  10   2
M  END
>  <reaction>  (6) 
rmg_rxn_345

>  <mol_properties>  (6) 
{"0": {"label": "*3", "atom_type": "Cd"}, "1": {"label": "*4", "atom_type": "Cd"}, "9": {"label": "*1", "atom_type": "Cs"}, "10": {"label": "*0", "atom_type": "Cs"}, "17": {"label": "*2", "atom_type": "H0"}}

>  <type>  (6) 
unop_2

>  <geom_source>  (6) 
Heuristics

$$$$

     RDKit          3D

 26 24  0  0  0  0  0  0  0  0999 V2000
    1.8143   -2.0492    0.2147 C   0  0  0  0  0  0  0  0  0  0  0  0
    2.3732   -1.7260    1.3703 C   0  0  0  0  0  0  0  0  0  0  0  0
    2.9641   -2.6963    2.3416 C   0  0  0  0  0  0  0  0  0  0  0  0
    1.7477   -3.0814   -0.1128 H   0  0  0  0  0  0  0  0  0  0  0  0
    2.4168   -0.6780    1.6558 H   0  0  0  0  0  0  0  0  0  0  0  0
    4.0209   -2.4779    2.5154 H   0  0  0  0  0  0  0  0  0  0  0  0
    2.8801   -3.7223    1.9812 H   0  0  0  0  0  0  0  0  0  0  0  0
    2.4636   -2.6298    3.3110 H   0  0  0  0  0  0  0  0  0  0  0  0
   -0.2909   -0.7919   -2.2068 C   0  0  0  0  0  0  0  0  0  0  0  0
   -0.2909   -0.7919   -0.6839 C   0  0  0  0  0  3  0  0  0  0  0  0
   -0.2909    0.6011   -0.0884 C   0  0  0  0  0  0  0  0  0  0  0  0
   -1.4739    1.2647   -0.4560 O   0  0  0  0  0  0  0  0  0  0  0  0
   -1.5446    2.5828    0.0249 C   0  0  0  0  0  0  0  0  0  0  0  0
   -2.8479    3.2006   -0.4259 C   0  0  0  0  0  0  0  0  0  0  0  0
    0.5912   -0.2776   -2.5965 H   0  0  0  0  0  0  0  0  0  0  0  0
   -1.1736   -0.2822   -2.5929 H   0  0  0  0  0  0  0  0  0  0  0  0
   -0.2854   -1.8098   -2.5995 H   0  0  0  0  0  0  0  0  0  0  0  0
    0.7669   -1.4237   -0.2324 H   0  0  0  0  0  0  0  0  0  0  0  0
   -1.1653   -1.3299   -0.3087 H   0  0  0  0  0  0  0  0  0  0  0  0
    0.5833    1.1662   -0.4488 H   0  0  0  0  0  0  0  0  0  0  0  0
   -0.2161    0.5472    1.0076 H   0  0  0  0  0  0  0  0  0  0  0  0
   -1.4774    2.5857    1.1230 H   0  0  0  0  0  0  0  0  0  0  0  0
   -0.6918    3.1658   -0.3530 H   0  0  0  0  0  0  0  0  0  0  0  0
   -3.6943    2.6312   -0.0403 H   0  0  0  0  0  0  0  0  0  0  0  0
   -2.9088    3.2124   -1.5148 H   0  0  0  0  0  0  0  0  0  0  0  0
   -2.9256    4.2266   -0.0629 H   0  0  0  0  0  0  0  0  0  0  0  0
  1  2  2  3
  1  4  1  0
  1 18  1  0
  2  3  1  0
  2  5  1  0
  3  6  1  0
  3  7  1  0
  3  8  1  0
  9 10  1  0
  9 15  1  0
  9 16  1  0
  9 17  1  0
 10 11  1  0
 10 19  1  0
 11 12  1  0
 11 20  1  0
 11 21  1  0
 12 13  1  0
 13 14  1  0
 13 22  1  0
 13 23  1  0
 14 24  1  0
 14 25  1  0
 14 26  1  0
M  RAD  1  10   2
M  END
>  <reaction>  (7) 
rmg_rxn_345

>  <mol_properties>  (7) 
{"0": {"label": "*3", "atom_type": "Cd"}, "1": {"label": "*4", "atom_type": "Cd"}, "9": {"label": "*1", "atom_type": "Cs"}, "10": {"label": "*0", "atom_type": "Cs"}, "17": {"label": "*2", "atom_type": "H0"}}

>  <type>  (7) 
unop_3

>  <geom_source>  (7) 
Heuristics

$$$$

     RDKit          3D

 26 24  0  0  0  0  0  0  0  0999 V2000
    1.8761   -1.7015    0.5378 C   0  0  0  0  0  0  0  0  0  0  0  0
    2.1001   -2.9732    0.2465 C   0  0  0  0  0  0  0  0  0  0  0  0
    2.7806   -3.9549    1.1450 C   0  0  0  0  0  0  0  0  0  0  0  0
    2.1854   -1.2751    1.4862 H   0  0  0  0  0  0  0  0  0  0  0  0
    1.7716   -3.3553   -0.7167 H   0  0  0  0  0  0  0  0  0  0  0  0
    2.1233   -4.7994    1.3672 H   0  0  0  0  0  0  0  0  0  0  0  0
    3.0775   -3.4933    2.0876 H   0  0  0  0  0  0  0  0  0  0  0  0
    3.6734   -4.3659    0.6667 H   0  0  0  0  0  0  0  0  0  0  0  0
   -0.2291   -0.4442   -1.8837 C   0  0  0  0  0  0  0  0  0  0  0  0
   -0.2291   -0.4442   -0.3608 C   0  0  0  0  0  3  0  0  0  0  0  0
   -0.2291    0.9489    0.2347 C   0  0  0  0  0  0  0  0  0  0  0  0
   -1.4121    1.6125   -0.1329 O   0  0  0  0  0  0  0  0  0  0  0  0
   -1.4829    2.9305    0.3480 C   0  0  0  0  0  0  0  0  0  0  0  0
   -2.7862    3.5483   -0.1028 C   0  0  0  0  0  0  0  0  0  0  0  0
    0.6529    0.0701   -2.2734 H   0  0  0  0  0  0  0  0  0  0  0  0
   -1.1119    0.0655   -2.2698 H   0  0  0  0  0  0  0  0  0  0  0  0
   -0.2237   -1.4620   -2.2764 H   0  0  0  0  0  0  0  0  0  0  0  0
    0.8287   -1.0759    0.0907 H   0  0  0  0  0  0  0  0  0  0  0  0
   -1.1035   -0.9822    0.0145 H   0  0  0  0  0  0  0  0  0  0  0  0
    0.6451    1.5140   -0.1257 H   0  0  0  0  0  0  0  0  0  0  0  0
   -0.1544    0.8950    1.3307 H   0  0  0  0  0  0  0  0  0  0  0  0
   -1.4156    2.9334    1.4461 H   0  0  0  0  0  0  0  0  0  0  0  0
   -0.6300    3.5135   -0.0299 H   0  0  0  0  0  0  0  0  0  0  0  0
   -3.6325    2.9789    0.2828 H   0  0  0  0  0  0  0  0  0  0  0  0
   -2.8470    3.5602   -1.1917 H   0  0  0  0  0  0  0  0  0  0  0  0
   -2.8638    4.5743    0.2602 H   0  0  0  0  0  0  0  0  0  0  0  0
  1  2  2  3
  1  4  1  0
  1 18  1  0
  2  3  1  0
  2  5  1  0
  3  6  1  0
  3  7  1  0
  3  8  1  0
  9 10  1  0
  9 15  1  0
  9 16  1  0
  9 17  1  0
 10 11  1  0
 10 19  1  0
 11 12  1  0
 11 20  1  0
 11 21  1  0
 12 13  1  0
 13 14  1  0
 13 22  1  0
 13 23  1  0
 14 24  1  0
 14 25  1  0
 14 26  1  0
M  RAD  1  10   2
M  END
>  <reaction>  (8) 
rmg_rxn_345

>  <mol_properties>  (8) 
{"0": {"label": "*3", "atom_type": "Cd"}, "1": {"label": "*4", "atom_type": "Cd"}, "9": {"label": "*1", "atom_type": "Cs"}, "10": {"label": "*0", "atom_type": "Cs"}, "17": {"label": "*2", "atom_type": "H0"}}

>  <type>  (8) 
unop_4

>  <geom_source>  (8) 
Heuristics

$$$$

     RDKit          3D

 26 24  0  0  0  0  0  0  0  0999 V2000
    1.8154   -1.9827    0.2291 C   0  0  0  0  0  0  0  0  0  0  0  0
    2.0405   -2.1171    1.5266 C   0  0  0  0  0  0  0  0  0  0  0  0
    3.2153   -2.8187    2.1281 C   0  0  0  0  0  0  0  0  0  0  0  0
    2.4982   -2.3904   -0.5090 H   0  0  0  0  0  0  0  0  0  0  0  0
    1.3278   -1.6914    2.2284 H   0  0  0  0  0  0  0  0  0  0  0  0
    3.7904   -2.1398    2.7630 H   0  0  0  0  0  0  0  0  0  0  0  0
    3.8794   -3.2153    1.3591 H   0  0  0  0  0  0  0  0  0  0  0  0
    2.8903   -3.6469    2.7630 H   0  0  0  0  0  0  0  0  0  0  0  0
   -0.2898   -0.7254   -2.1925 C   0  0  0  0  0  0  0  0  0  0  0  0
   -0.2898   -0.7254   -0.6696 C   0  0  0  0  0  3  0  0  0  0  0  0
   -0.2898    0.6677   -0.0740 C   0  0  0  0  0  0  0  0  0  0  0  0
   -1.4728    1.3313   -0.4416 O   0  0  0  0  0  0  0  0  0  0  0  0
   -1.5435    2.6493    0.0393 C   0  0  0  0  0  0  0  0  0  0  0  0
   -2.8468    3.2671   -0.4116 C   0  0  0  0  0  0  0  0  0  0  0  0
    0.5923   -0.2111   -2.5821 H   0  0  0  0  0  0  0  0  0  0  0  0
   -1.1725   -0.2157   -2.5785 H   0  0  0  0  0  0  0  0  0  0  0  0
   -0.2843   -1.7433   -2.5851 H   0  0  0  0  0  0  0  0  0  0  0  0
    0.7681   -1.3571   -0.2180 H   0  0  0  0  0  0  0  0  0  0  0  0
   -1.1641   -1.2634   -0.2943 H   0  0  0  0  0  0  0  0  0  0  0  0
    0.5844    1.2328   -0.4344 H   0  0  0  0  0  0  0  0  0  0  0  0
   -0.2150    0.6138    1.0220 H   0  0  0  0  0  0  0  0  0  0  0  0
   -1.4762    2.6522    1.1373 H   0  0  0  0  0  0  0  0  0  0  0  0
   -0.6906    3.2323   -0.3386 H   0  0  0  0  0  0  0  0  0  0  0  0
   -3.6932    2.6977   -0.0259 H   0  0  0  0  0  0  0  0  0  0  0  0
   -2.9076    3.2790   -1.5004 H   0  0  0  0  0  0  0  0  0  0  0  0
   -2.9244    4.2931   -0.0485 H   0  0  0  0  0  0  0  0  0  0  0  0
  1  2  2  3
  1  4  1  0
  1 18  1  0
  2  3  1  0
  2  5  1  0
  3  6  1  0
  3  7  1  0
  3  8  1  0
  9 10  1  0
  9 15  1  0
  9 16  1  0
  9 17  1  0
 10 11  1  0
 10 19  1  0
 11 12  1  0
 11 20  1  0
 11 21  1  0
 12 13  1  0
 13 14  1  0
 13 22  1  0
 13 23  1  0
 14 24  1  0
 14 25  1  0
 14 26  1  0
M  RAD  1  10   2
M  END
>  <reaction>  (9) 
rmg_rxn_345

>  <mol_properties>  (9) 
{"0": {"label": "*3", "atom_type": "Cd"}, "1": {"label": "*4", "atom_type": "Cd"}, "9": {"label": "*1", "atom_type": "Cs"}, "10": {"label": "*0", "atom_type": "Cs"}, "17": {"label": "*2", "atom_type": "H0"}}

>  <type>  (9) 
unop_5

>  <geom_source>  (9) 
Heuristics

$$$$

     RDKit          3D

 26 24  0  0  0  0  0  0  0  0999 V2000
    1.9375   -1.7334    0.3872 C   0  0  0  0  0  0  0  0  0  0  0  0
    1.9174   -3.0354    0.6255 C   0  0  0  0  0  0  0  0  0  0  0  0
    2.5287   -3.7019    1.8155 C   0  0  0  0  0  0  0  0  0  0  0  0
    2.4191   -1.0405    1.0692 H   0  0  0  0  0  0  0  0  0  0  0  0
    1.4227   -3.6904   -0.0871 H   0  0  0  0  0  0  0  0  0  0  0  0
    1.7732   -4.2479    2.3863 H   0  0  0  0  0  0  0  0  0  0  0  0
    3.0031   -2.9773    2.4785 H   0  0  0  0  0  0  0  0  0  0  0  0
    3.2820   -4.4319    1.5081 H   0  0  0  0  0  0  0  0  0  0  0  0
   -0.1677   -0.4761   -2.0344 C   0  0  0  0  0  0  0  0  0  0  0  0
   -0.1677   -0.4761   -0.5115 C   0  0  0  0  0  3  0  0  0  0  0  0
   -0.1677    0.9169    0.0841 C   0  0  0  0  0  0  0  0  0  0  0  0
   -1.3507    1.5805   -0.2835 O   0  0  0  0  0  0  0  0  0  0  0  0
   -1.4214    2.8986    0.1974 C   0  0  0  0  0  0  0  0  0  0  0  0
   -2.7247    3.5164   -0.2535 C   0  0  0  0  0  0  0  0  0  0  0  0
    0.7144    0.0382   -2.4240 H   0  0  0  0  0  0  0  0  0  0  0  0
   -1.0504    0.0336   -2.4204 H   0  0  0  0  0  0  0  0  0  0  0  0
   -0.1622   -1.4940   -2.4270 H   0  0  0  0  0  0  0  0  0  0  0  0
    0.8902   -1.1079   -0.0599 H   0  0  0  0  0  0  0  0  0  0  0  0
   -1.0420   -1.0141   -0.1362 H   0  0  0  0  0  0  0  0  0  0  0  0
    0.7065    1.4820   -0.2763 H   0  0  0  0  0  0  0  0  0  0  0  0
   -0.0929    0.8630    1.1801 H   0  0  0  0  0  0  0  0  0  0  0  0
   -1.3541    2.9015    1.2954 H   0  0  0  0  0  0  0  0  0  0  0  0
   -0.5685    3.4816   -0.1805 H   0  0  0  0  0  0  0  0  0  0  0  0
   -3.5711    2.9470    0.1322 H   0  0  0  0  0  0  0  0  0  0  0  0
   -2.7855    3.5282   -1.3423 H   0  0  0  0  0  0  0  0  0  0  0  0
   -2.8023    4.5424    0.1096 H   0  0  0  0  0  0  0  0  0  0  0  0
  1  2  2  3
  1  4  1  0
  1 18  1  0
  2  3  1  0
  2  5  1  0
  3  6  1  0
  3  7  1  0
  3  8  1  0
  9 10  1  0
  9 15  1  0
  9 16  1  0
  9 17  1  0
 10 11  1  0
 10 19  1  0
 11 12  1  0
 11 20  1  0
 11 21  1  0
 12 13  1  0
 13 14  1  0
 13 22  1  0
 13 23  1  0
 14 24  1  0
 14 25  1  0
 14 26  1  0
M  RAD  1  10   2
M  END
>  <reaction>  (10) 
rmg_rxn_345

>  <mol_properties>  (10) 
{"0": {"label": "*3", "atom_type": "Cd"}, "1": {"label": "*4", "atom_type": "Cd"}, "9": {"label": "*1", "atom_type": "Cs"}, "10": {"label": "*0", "atom_type": "Cs"}, "17": {"label": "*2", "atom_type": "H0"}}

>  <type>  (10) 
unop_6

>  <geom_source>  (10) 
Heuristics

$$$$

     RDKit          3D

 26 24  0  0  0  0  0  0  0  0999 V2000
    1.9362   -1.8346    0.2647 C   0  0  0  0  0  0  0  0  0  0  0  0
    1.8270   -2.9073    1.0326 C   0  0  0  0  0  0  0  0  0  0  0  0
    2.6073   -3.1532    2.2835 C   0  0  0  0  0  0  0  0  0  0  0  0
    2.6278   -1.0341    0.5056 H   0  0  0  0  0  0  0  0  0  0  0  0
    1.1201   -3.6834    0.7504 H   0  0  0  0  0  0  0  0  0  0  0  0
    1.9400   -3.2753    3.1406 H   0  0  0  0  0  0  0  0  0  0  0  0
    3.2912   -2.3303    2.4951 H   0  0  0  0  0  0  0  0  0  0  0  0
    3.1910   -4.0739    2.2031 H   0  0  0  0  0  0  0  0  0  0  0  0
   -0.1690   -0.5773   -2.1568 C   0  0  0  0  0  0  0  0  0  0  0  0
   -0.1690   -0.5773   -0.6339 C   0  0  0  0  0  3  0  0  0  0  0  0
   -0.1690    0.8157   -0.0384 C   0  0  0  0  0  0  0  0  0  0  0  0
   -1.3520    1.4793   -0.4060 O   0  0  0  0  0  0  0  0  0  0  0  0
   -1.4227    2.7974    0.0749 C   0  0  0  0  0  0  0  0  0  0  0  0
   -2.7260    3.4152   -0.3759 C   0  0  0  0  0  0  0  0  0  0  0  0
    0.7131   -0.0630   -2.5464 H   0  0  0  0  0  0  0  0  0  0  0  0
   -1.0517   -0.0676   -2.5429 H   0  0  0  0  0  0  0  0  0  0  0  0
   -0.1635   -1.5952   -2.5495 H   0  0  0  0  0  0  0  0  0  0  0  0
    0.8889   -1.2091   -0.1824 H   0  0  0  0  0  0  0  0  0  0  0  0
   -1.0433   -1.1153   -0.2586 H   0  0  0  0  0  0  0  0  0  0  0  0
    0.7052    1.3808   -0.3988 H   0  0  0  0  0  0  0  0  0  0  0  0
   -0.0942    0.7618    1.0577 H   0  0  0  0  0  0  0  0  0  0  0  0
   -1.3554    2.8003    1.1730 H   0  0  0  0  0  0  0  0  0  0  0  0
   -0.5698    3.3804   -0.3030 H   0  0  0  0  0  0  0  0  0  0  0  0
   -3.5724    2.8458    0.0098 H   0  0  0  0  0  0  0  0  0  0  0  0
   -2.7868    3.4270   -1.4647 H   0  0  0  0  0  0  0  0  0  0  0  0
   -2.8036    4.4412   -0.0129 H   0  0  0  0  0  0  0  0  0  0  0  0
  1  2  2  3
  1  4  1  0
  1 18  1  0
  2  3  1  0
  2  5  1  0
  3  6  1  0
  3  7  1  0
  3  8  1  0
  9 10  1  0
  9 15  1  0
  9 16  1  0
  9 17  1  0
 10 11  1  0
 10 19  1  0
 11 12  1  0
 11 20  1  0
 11 21  1  0
 12 13  1  0
 13 14  1  0
 13 22  1  0
 13 23  1  0
 14 24  1  0
 14 25  1  0
 14 26  1  0
M  RAD  1  10   2
M  END
>  <reaction>  (11) 
rmg_rxn_345

>  <mol_properties>  (11) 
{"0": {"label": "*3", "atom_type": "Cd"}, "1": {"label": "*4", "atom_type": "Cd"}, "9": {"label": "*1", "atom_type": "Cs"}, "10": {"label": "*0", "atom_type": "Cs"}, "17": {"label": "*2", "atom_type": "H0"}}

>  <type>  (11) 
unop_7

>  <geom_source>  (11) 
Heuristics

$$$$

     RDKit          3D

 26 24  0  0  0  0  0  0  0  0999 V2000
    1.6539   -2.2084    0.3872 C   0  0  0  0  0  0  0  0  0  0  0  0
    2.7906   -1.5732    0.6255 C   0  0  0  0  0  0  0  0  0  0  0  0
    3.6674   -1.7954    1.8155 C   0  0  0  0  0  0  0  0  0  0  0  0
    1.2722   -2.9609    1.0692 H   0  0  0  0  0  0  0  0  0  0  0  0
    3.1328   -0.8271   -0.0871 H   0  0  0  0  0  0  0  0  0  0  0  0
    4.6672   -2.1124    1.5081 H   0  0  0  0  0  0  0  0  0  0  0  0
    3.2543   -2.5566    2.4785 H   0  0  0  0  0  0  0  0  0  0  0  0
    3.7897   -0.8713    2.3863 H   0  0  0  0  0  0  0  0  0  0  0  0
   -0.4513   -0.9511   -2.0344 C   0  0  0  0  0  0  0  0  0  0  0  0
   -0.4513   -0.9511   -0.5115 C   0  0  0  0  0  3  0  0  0  0  0  0
   -0.4513    0.4420    0.0841 C   0  0  0  0  0  0  0  0  0  0  0  0
   -1.6343    1.1056   -0.2835 O   0  0  0  0  0  0  0  0  0  0  0  0
   -1.7050    2.4236    0.1974 C   0  0  0  0  0  0  0  0  0  0  0  0
   -3.0084    3.0414   -0.2535 C   0  0  0  0  0  0  0  0  0  0  0  0
    0.4308   -0.4368   -2.4240 H   0  0  0  0  0  0  0  0  0  0  0  0
   -1.3340   -0.4414   -2.4204 H   0  0  0  0  0  0  0  0  0  0  0  0
   -0.4458   -1.9689   -2.4270 H   0  0  0  0  0  0  0  0  0  0  0  0
    0.6065   -1.5828   -0.0599 H   0  0  0  0  0  0  0  0  0  0  0  0
   -1.3257   -1.4891   -0.1362 H   0  0  0  0  0  0  0  0  0  0  0  0
    0.4229    1.0071   -0.2763 H   0  0  0  0  0  0  0  0  0  0  0  0
   -0.3765    0.3881    1.1801 H   0  0  0  0  0  0  0  0  0  0  0  0
   -1.6378    2.4265    1.2954 H   0  0  0  0  0  0  0  0  0  0  0  0
   -0.8522    3.0066   -0.1805 H   0  0  0  0  0  0  0  0  0  0  0  0
   -3.8547    2.4720    0.1322 H   0  0  0  0  0  0  0  0  0  0  0  0
   -3.0692    3.0533   -1.3423 H   0  0  0  0  0  0  0  0  0  0  0  0
   -3.0860    4.0674    0.1096 H   0  0  0  0  0  0  0  0  0  0  0  0
  1  2  2  3
  1  4  1  0
  1 18  1  0
  2  3  1  0
  2  5  1  0
  3  6  1  0
  3  7  1  0
  3  8  1  0
  9 10  1  0
  9 15  1  0
  9 16  1  0
  9 17  1  0
 10 11  1  0
 10 19  1  0
 11 12  1  0
 11 20  1  0
 11 21  1  0
 12 13  1  0
 13 14  1  0
 13 22  1  0
 13 23  1  0
 14 24  1  0
 14 25  1  0
 14 26  1  0
M  RAD  1  10   2
M  END
>  <reaction>  (12) 
rmg_rxn_345

>  <mol_properties>  (12) 
{"0": {"label": "*3", "atom_type": "Cd"}, "1": {"label": "*4", "atom_type": "Cd"}, "9": {"label": "*1", "atom_type": "Cs"}, "10": {"label": "*0", "atom_type": "Cs"}, "17": {"label": "*2", "atom_type": "H0"}}

>  <type>  (12) 
unop_8

>  <geom_source>  (12) 
Heuristics

$$$$

     RDKit          3D

 26 24  0  0  0  0  0  0  0  0999 V2000
    1.7717   -1.7590    0.6621 C   0  0  0  0  0  0  0  0  0  0  0  0
    2.3294   -2.7491   -0.0169 C   0  0  0  0  0  0  0  0  0  0  0  0
    3.2711   -3.7602    0.5533 C   0  0  0  0  0  0  0  0  0  0  0  0
    1.9719   -1.6140    1.7185 H   0  0  0  0  0  0  0  0  0  0  0  0
    2.0985   -2.8542   -1.0739 H   0  0  0  0  0  0  0  0  0  0  0  0
    2.8749   -4.7718    0.4333 H   0  0  0  0  0  0  0  0  0  0  0  0
    3.4495   -3.5847    1.6149 H   0  0  0  0  0  0  0  0  0  0  0  0
    4.2323   -3.7330    0.0335 H   0  0  0  0  0  0  0  0  0  0  0  0
   -0.3335   -0.5018   -1.7594 C   0  0  0  0  0  0  0  0  0  0  0  0
   -0.3335   -0.5018   -0.2365 C   0  0  0  0  0  3  0  0  0  0  0  0
   -0.3335    0.8913    0.3590 C   0  0  0  0  0  0  0  0  0  0  0  0
   -1.5165    1.5549   -0.0086 O   0  0  0  0  0  0  0  0  0  0  0  0
   -1.5872    2.8730    0.4723 C   0  0  0  0  0  0  0  0  0  0  0  0
   -2.8906    3.4907    0.0215 C   0  0  0  0  0  0  0  0  0  0  0  0
    0.5486    0.0126   -2.1490 H   0  0  0  0  0  0  0  0  0  0  0  0
   -1.2162    0.0079   -2.1455 H   0  0  0  0  0  0  0  0  0  0  0  0
   -0.3280   -1.5196   -2.1521 H   0  0  0  0  0  0  0  0  0  0  0  0
    0.7243   -1.1335    0.2150 H   0  0  0  0  0  0  0  0  0  0  0  0
   -1.2079   -1.0397    0.1388 H   0  0  0  0  0  0  0  0  0  0  0  0
    0.5407    1.4564   -0.0014 H   0  0  0  0  0  0  0  0  0  0  0  0
   -0.2587    0.8374    1.4551 H   0  0  0  0  0  0  0  0  0  0  0  0
   -1.5200    2.8758    1.5704 H   0  0  0  0  0  0  0  0  0  0  0  0
   -0.7344    3.4559    0.0944 H   0  0  0  0  0  0  0  0  0  0  0  0
   -3.7369    2.9213    0.4072 H   0  0  0  0  0  0  0  0  0  0  0  0
   -2.9514    3.5026   -1.0673 H   0  0  0  0  0  0  0  0  0  0  0  0
   -2.9682    4.5168    0.3845 H   0  0  0  0  0  0  0  0  0  0  0  0
  1  2  2  3
  1  4  1  0
  1 18  1  0
  2  3  1  0
  2  5  1  0
  3  6  1  0
  3  7  1  0
  3  8  1  0
  9 10  1  0
  9 15  1  0
  9 16  1  0
  9 17  1  0
 10 11  1  0
 10 19  1  0
 11 12  1  0
 11 20  1  0
 11 21  1  0
 12 13  1  0
 13 14  1  0
 13 22  1  0
 13 23  1  0
 14 24  1  0
 14 25  1  0
 14 26  1  0
M  RAD  1  10   2
M  END
>  <reaction>  (13) 
rmg_rxn_345

>  <mol_properties>  (13) 
{"0": {"label": "*3", "atom_type": "Cd"}, "1": {"label": "*4", "atom_type": "Cd"}, "9": {"label": "*1", "atom_type": "Cs"}, "10": {"label": "*0", "atom_type": "Cs"}, "17": {"label": "*2", "atom_type": "H0"}}

>  <type>  (13) 
unop_9

>  <geom_source>  (13) 
Heuristics

$$$$

     RDKit          3D

 26 24  0  0  0  0  0  0  0  0999 V2000
    1.5966   -2.1694    0.5378 C   0  0  0  0  0  0  0  0  0  0  0  0
    2.8225   -1.7635    0.2465 C   0  0  0  0  0  0  0  0  0  0  0  0
    4.0095   -1.8973    1.1450 C   0  0  0  0  0  0  0  0  0  0  0  0
    1.3679   -2.6440    1.4862 H   0  0  0  0  0  0  0  0  0  0  0  0
    3.0032   -1.2932   -0.7167 H   0  0  0  0  0  0  0  0  0  0  0  0
    4.7947   -2.4883    0.6667 H   0  0  0  0  0  0  0  0  0  0  0  0
    3.7439   -2.3775    2.0876 H   0  0  0  0  0  0  0  0  0  0  0  0
    4.4413   -0.9180    1.3672 H   0  0  0  0  0  0  0  0  0  0  0  0
   -0.5086   -0.9121   -1.8837 C   0  0  0  0  0  0  0  0  0  0  0  0
   -0.5086   -0.9121   -0.3608 C   0  0  0  0  0  3  0  0  0  0  0  0
   -0.5086    0.4809    0.2347 C   0  0  0  0  0  0  0  0  0  0  0  0
   -1.6916    1.1445   -0.1329 O   0  0  0  0  0  0  0  0  0  0  0  0
   -1.7623    2.4626    0.3480 C   0  0  0  0  0  0  0  0  0  0  0  0
   -3.0656    3.0804   -0.1028 C   0  0  0  0  0  0  0  0  0  0  0  0
    0.3735   -0.3978   -2.2734 H   0  0  0  0  0  0  0  0  0  0  0  0
   -1.3913   -0.4024   -2.2698 H   0  0  0  0  0  0  0  0  0  0  0  0
   -0.5031   -1.9300   -2.2764 H   0  0  0  0  0  0  0  0  0  0  0  0
    0.5492   -1.5439    0.0907 H   0  0  0  0  0  0  0  0  0  0  0  0
   -1.3830   -1.4501    0.0145 H   0  0  0  0  0  0  0  0  0  0  0  0
    0.3656    1.0460   -0.1257 H   0  0  0  0  0  0  0  0  0  0  0  0
   -0.4338    0.4270    1.3307 H   0  0  0  0  0  0  0  0  0  0  0  0
   -1.6951    2.4655    1.4461 H   0  0  0  0  0  0  0  0  0  0  0  0
   -0.9094    3.0456   -0.0299 H   0  0  0  0  0  0  0  0  0  0  0  0
   -3.9120    2.5110    0.2828 H   0  0  0  0  0  0  0  0  0  0  0  0
   -3.1264    3.0922   -1.1917 H   0  0  0  0  0  0  0  0  0  0  0  0
   -3.1432    4.1064    0.2602 H   0  0  0  0  0  0  0  0  0  0  0  0
  1  2  2  3
  1  4  1  0
  1 18  1  0
  2  3  1  0
  2  5  1  0
  3  6  1  0
  3  7  1  0
  3  8  1  0
  9 10  1  0
  9 15  1  0
  9 16  1  0
  9 17  1  0
 10 11  1  0
 10 19  1  0
 11 12  1  0
 11 20  1  0
 11 21  1  0
 12 13  1  0
 13 14  1  0
 13 22  1  0
 13 23  1  0
 14 24  1  0
 14 25  1  0
 14 26  1  0
M  RAD  1  10   2
M  END
>  <reaction>  (14) 
rmg_rxn_345

>  <mol_properties>  (14) 
{"0": {"label": "*3", "atom_type": "Cd"}, "1": {"label": "*4", "atom_type": "Cd"}, "9": {"label": "*1", "atom_type": "Cs"}, "10": {"label": "*0", "atom_type": "Cs"}, "17": {"label": "*2", "atom_type": "H0"}}

>  <type>  (14) 
unop_10

>  <geom_source>  (14) 
Heuristics

$$$$

     RDKit          3D

 26 24  0  0  0  0  0  0  0  0999 V2000
    1.8735   -1.9501    0.2147 C   0  0  0  0  0  0  0  0  0  0  0  0
    1.8539   -2.5954    1.3703 C   0  0  0  0  0  0  0  0  0  0  0  0
    2.9885   -2.6556    2.3416 C   0  0  0  0  0  0  0  0  0  0  0  0
    2.7507   -1.4020   -0.1128 H   0  0  0  0  0  0  0  0  0  0  0  0
    0.9520   -3.1307    1.6558 H   0  0  0  0  0  0  0  0  0  0  0  0
    2.6926   -2.2464    3.3110 H   0  0  0  0  0  0  0  0  0  0  0  0
    3.8519   -2.0951    1.9812 H   0  0  0  0  0  0  0  0  0  0  0  0
    3.2973   -3.6896    2.5154 H   0  0  0  0  0  0  0  0  0  0  0  0
   -0.2317   -0.6928   -2.2068 C   0  0  0  0  0  0  0  0  0  0  0  0
   -0.2317   -0.6928   -0.6839 C   0  0  0  0  0  3  0  0  0  0  0  0
   -0.2317    0.7002   -0.0884 C   0  0  0  0  0  0  0  0  0  0  0  0
   -1.4147    1.3638   -0.4560 O   0  0  0  0  0  0  0  0  0  0  0  0
   -1.4854    2.6819    0.0249 C   0  0  0  0  0  0  0  0  0  0  0  0
   -2.7888    3.2997   -0.4259 C   0  0  0  0  0  0  0  0  0  0  0  0
    0.6503   -0.1785   -2.5965 H   0  0  0  0  0  0  0  0  0  0  0  0
   -1.1144   -0.1831   -2.5929 H   0  0  0  0  0  0  0  0  0  0  0  0
   -0.2262   -1.7107   -2.5995 H   0  0  0  0  0  0  0  0  0  0  0  0
    0.8261   -1.3246   -0.2324 H   0  0  0  0  0  0  0  0  0  0  0  0
   -1.1061   -1.2308   -0.3087 H   0  0  0  0  0  0  0  0  0  0  0  0
    0.6425    1.2653   -0.4488 H   0  0  0  0  0  0  0  0  0  0  0  0
   -0.1569    0.6463    1.0076 H   0  0  0  0  0  0  0  0  0  0  0  0
   -1.4182    2.6847    1.1230 H   0  0  0  0  0  0  0  0  0  0  0  0
   -0.6326    3.2649   -0.3530 H   0  0  0  0  0  0  0  0  0  0  0  0
   -3.6351    2.7303   -0.0403 H   0  0  0  0  0  0  0  0  0  0  0  0
   -2.8496    3.3115   -1.5148 H   0  0  0  0  0  0  0  0  0  0  0  0
   -2.8664    4.3257   -0.0629 H   0  0  0  0  0  0  0  0  0  0  0  0
  1  2  2  3
  1  4  1  0
  1 18  1  0
  2  3  1  0
  2  5  1  0
  3  6  1  0
  3  7  1  0
  3  8  1  0
  9 10  1  0
  9 15  1  0
  9 16  1  0
  9 17  1  0
 10 11  1  0
 10 19  1  0
 11 12  1  0
 11 20  1  0
 11 21  1  0
 12 13  1  0
 13 14  1  0
 13 22  1  0
 13 23  1  0
 14 24  1  0
 14 25  1  0
 14 26  1  0
M  RAD  1  10   2
M  END
>  <reaction>  (15) 
rmg_rxn_345

>  <mol_properties>  (15) 
{"0": {"label": "*3", "atom_type": "Cd"}, "1": {"label": "*4", "atom_type": "Cd"}, "9": {"label": "*1", "atom_type": "Cs"}, "10": {"label": "*0", "atom_type": "Cs"}, "17": {"label": "*2", "atom_type": "H0"}}

>  <type>  (15) 
unop_11

>  <geom_source>  (15) 
Heuristics

$$$$

     RDKit          3D

 26 24  0  0  0  0  0  0  0  0999 V2000
    1.6639   -1.8922    0.7107 C   0  0  0  0  0  0  0  0  0  0  0  0
    2.5555   -2.4246   -0.1103 C   0  0  0  0  0  0  0  0  0  0  0  0
    3.7858   -3.1594    0.3149 C   0  0  0  0  0  0  0  0  0  0  0  0
    1.7755   -1.9588    1.7878 H   0  0  0  0  0  0  0  0  0  0  0  0
    2.4009   -2.3323   -1.1822 H   0  0  0  0  0  0  0  0  0  0  0  0
    3.7834   -4.1803   -0.0756 H   0  0  0  0  0  0  0  0  0  0  0  0
    3.8660   -3.2073    1.4016 H   0  0  0  0  0  0  0  0  0  0  0  0
    4.6835   -2.6732   -0.0756 H   0  0  0  0  0  0  0  0  0  0  0  0
   -0.4413   -0.6349   -1.7109 C   0  0  0  0  0  0  0  0  0  0  0  0
   -0.4413   -0.6349   -0.1880 C   0  0  0  0  0  3  0  0  0  0  0  0
   -0.4413    0.7582    0.4076 C   0  0  0  0  0  0  0  0  0  0  0  0
   -1.6243    1.4218    0.0400 O   0  0  0  0  0  0  0  0  0  0  0  0
   -1.6950    2.7398    0.5209 C   0  0  0  0  0  0  0  0  0  0  0  0
   -2.9983    3.3576    0.0700 C   0  0  0  0  0  0  0  0  0  0  0  0
    0.4408   -0.1206   -2.1005 H   0  0  0  0  0  0  0  0  0  0  0  0
   -1.3240   -0.1252   -2.0969 H   0  0  0  0  0  0  0  0  0  0  0  0
   -0.4358   -1.6528   -2.1035 H   0  0  0  0  0  0  0  0  0  0  0  0
    0.6165   -1.2667    0.2636 H   0  0  0  0  0  0  0  0  0  0  0  0
   -1.3157   -1.1729    0.1873 H   0  0  0  0  0  0  0  0  0  0  0  0
    0.4329    1.3232    0.0472 H   0  0  0  0  0  0  0  0  0  0  0  0
   -0.3665    0.7042    1.5036 H   0  0  0  0  0  0  0  0  0  0  0  0
   -1.6278    2.7427    1.6189 H   0  0  0  0  0  0  0  0  0  0  0  0
   -0.8421    3.3228    0.1430 H   0  0  0  0  0  0  0  0  0  0  0  0
   -3.8447    2.7882    0.4557 H   0  0  0  0  0  0  0  0  0  0  0  0
   -3.0591    3.3695   -1.0188 H   0  0  0  0  0  0  0  0  0  0  0  0
   -3.0759    4.3836    0.4331 H   0  0  0  0  0  0  0  0  0  0  0  0
  1  2  2  3
  1  4  1  0
  1 18  1  0
  2  3  1  0
  2  5  1  0
  3  6  1  0
  3  7  1  0
  3  8  1  0
  9 10  1  0
  9 15  1  0
  9 16  1  0
  9 17  1  0
 10 11  1  0
 10 19  1  0
 11 12  1  0
 11 20  1  0
 11 21  1  0
 12 13  1  0
 13 14  1  0
 13 22  1  0
 13 23  1  0
 14 24  1  0
 14 25  1  0
 14 26  1  0
M  RAD  1  10   2
M  END
>  <reaction>  (16) 
rmg_rxn_345

>  <mol_properties>  (16) 
{"0": {"label": "*3", "atom_type": "Cd"}, "1": {"label": "*4", "atom_type": "Cd"}, "9": {"label": "*1", "atom_type": "Cs"}, "10": {"label": "*0", "atom_type": "Cs"}, "17": {"label": "*2", "atom_type": "H0"}}

>  <type>  (16) 
unop_12

>  <geom_source>  (16) 
Heuristics

$$$$

     RDKit          3D

 26 24  0  0  0  0  0  0  0  0999 V2000
    1.7275    0.1428   -0.0083 O   0  0  0  0  0  0  0  0  0  0  0  0
    2.9953    0.5788   -0.4496 C   0  0  0  0  0  0  0  0  0  0  0  0
    1.2849   -0.9203   -0.8251 C   0  0  0  0  0  0  0  0  0  0  0  0
    3.4588    1.7321    0.4270 C   0  0  0  0  0  0  0  0  0  0  0  0
    0.0103   -2.0336    1.0597 C   0  0  0  0  0  0  0  0  0  0  0  0
   -4.2989    1.2056    0.0453 C   0  0  0  0  0  0  0  0  0  0  0  0
   -0.0738   -1.4088   -0.3295 C   0  0  0  0  0  3  0  0  0  0  0  0
   -2.9739    0.6178    0.4195 C   0  0  0  0  0  0  0  0  0  0  0  0
   -2.1776    0.0683   -0.4995 C   0  0  0  0  0  0  0  0  0  0  0  0
    3.7452   -0.2411   -0.3709 H   0  0  0  0  0  0  0  0  0  0  0  0
    2.9468    0.9392   -1.5026 H   0  0  0  0  0  0  0  0  0  0  0  0
    2.7384    2.5747    0.3588 H   0  0  0  0  0  0  0  0  0  0  0  0
    3.5324    1.4000    1.4844 H   0  0  0  0  0  0  0  0  0  0  0  0
    4.4568    2.0832    0.0894 H   0  0  0  0  0  0  0  0  0  0  0  0
    2.0042   -1.7716   -0.8079 H   0  0  0  0  0  0  0  0  0  0  0  0
    1.1563   -0.5725   -1.8751 H   0  0  0  0  0  0  0  0  0  0  0  0
   -4.9464    0.4244   -0.4061 H   0  0  0  0  0  0  0  0  0  0  0  0
   -4.1552    2.0324   -0.6821 H   0  0  0  0  0  0  0  0  0  0  0  0
   -4.7994    1.6073    0.9511 H   0  0  0  0  0  0  0  0  0  0  0  0
    0.3763   -1.2882    1.7966 H   0  0  0  0  0  0  0  0  0  0  0  0
   -1.0002   -2.3701    1.3715 H   0  0  0  0  0  0  0  0  0  0  0  0
    0.6927   -2.9101    1.0492 H   0  0  0  0  0  0  0  0  0  0  0  0
   -0.4901   -2.1504   -1.0451 H   0  0  0  0  0  0  0  0  0  0  0  0
   -2.6540    0.6384    1.4568 H   0  0  0  0  0  0  0  0  0  0  0  0
   -2.4714    0.0335   -1.5444 H   0  0  0  0  0  0  0  0  0  0  0  0
   -1.0850   -0.4117   -0.1632 H   0  0  0  0  0  0  0  0  0  0  0  0
  1  2  1  0
  1  3  1  0
  2  4  1  0
  2 10  1  0
  2 11  1  0
  3  7  1  0
  3 15  1  0
  3 16  1  0
  4 12  1  0
  4 13  1  0
  4 14  1  0
  5  7  1  0
  5 20  1  0
  5 21  1  0
  5 22  1  0
  6  8  1  0
  6 17  1  0
  6 18  1  0
  6 19  1  0
  7 23  1  0
  8  9  2  3
  8 24  1  0
  9 25  1  0
  9 26  1  0
M  RAD  1   7   2
M  END
>  <reaction>  (17) 
rmg_rxn_345

>  <mol_properties>  (17) 
{"0": {"label": "*3", "atom_type": "Cd"}, "1": {"label": "*4", "atom_type": "Cd"}, "9": {"label": "*1", "atom_type": "Cs"}, "10": {"label": "*0", "atom_type": "Cs"}, "17": {"label": "*2", "atom_type": "H0"}}

>  <type>  (17) 
unop_13

>  <geom_source>  (17) 
AutoTST

$$$$

     RDKit          3D

 26 24  0  0  0  0  0  0  0  0999 V2000
    1.5978   -2.0502    0.6621 C   0  0  0  0  0  0  0  0  0  0  0  0
    2.7339   -2.0717   -0.0169 C   0  0  0  0  0  0  0  0  0  0  0  0
    4.0707   -2.4214    0.5533 C   0  0  0  0  0  0  0  0  0  0  0  0
    1.5650   -2.2952    1.7185 H   0  0  0  0  0  0  0  0  0  0  0  0
    2.7170   -1.8186   -1.0739 H   0  0  0  0  0  0  0  0  0  0  0  0
    4.5025   -3.2805    0.0335 H   0  0  0  0  0  0  0  0  0  0  0  0
    4.0008   -2.6617    1.6149 H   0  0  0  0  0  0  0  0  0  0  0  0
    4.7734   -1.5928    0.4333 H   0  0  0  0  0  0  0  0  0  0  0  0
   -0.5074   -0.7929   -1.7594 C   0  0  0  0  0  0  0  0  0  0  0  0
   -0.5074   -0.7929   -0.2365 C   0  0  0  0  0  3  0  0  0  0  0  0
   -0.5074    0.6001    0.3590 C   0  0  0  0  0  0  0  0  0  0  0  0
   -1.6904    1.2637   -0.0086 O   0  0  0  0  0  0  0  0  0  0  0  0
   -1.7611    2.5818    0.4723 C   0  0  0  0  0  0  0  0  0  0  0  0
   -3.0644    3.1996    0.0215 C   0  0  0  0  0  0  0  0  0  0  0  0
    0.3747   -0.2786   -2.1490 H   0  0  0  0  0  0  0  0  0  0  0  0
   -1.3901   -0.2832   -2.1455 H   0  0  0  0  0  0  0  0  0  0  0  0
   -0.5019   -1.8108   -2.1521 H   0  0  0  0  0  0  0  0  0  0  0  0
    0.5504   -1.4247    0.2150 H   0  0  0  0  0  0  0  0  0  0  0  0
   -1.3818   -1.3309    0.1388 H   0  0  0  0  0  0  0  0  0  0  0  0
    0.3668    1.1652   -0.0014 H   0  0  0  0  0  0  0  0  0  0  0  0
   -0.4326    0.5462    1.4551 H   0  0  0  0  0  0  0  0  0  0  0  0
   -1.6939    2.5847    1.5704 H   0  0  0  0  0  0  0  0  0  0  0  0
   -0.9083    3.1648    0.0944 H   0  0  0  0  0  0  0  0  0  0  0  0
   -3.9108    2.6302    0.4072 H   0  0  0  0  0  0  0  0  0  0  0  0
   -3.1252    3.2115   -1.0673 H   0  0  0  0  0  0  0  0  0  0  0  0
   -3.1421    4.2256    0.3845 H   0  0  0  0  0  0  0  0  0  0  0  0
  1  2  2  3
  1  4  1  0
  1 18  1  0
  2  3  1  0
  2  5  1  0
  3  6  1  0
  3  7  1  0
  3  8  1  0
  9 10  1  0
  9 15  1  0
  9 16  1  0
  9 17  1  0
 10 11  1  0
 10 19  1  0
 11 12  1  0
 11 20  1  0
 11 21  1  0
 12 13  1  0
 13 14  1  0
 13 22  1  0
 13 23  1  0
 14 24  1  0
 14 25  1  0
 14 26  1  0
M  RAD  1  10   2
M  END
>  <reaction>  (18) 
rmg_rxn_345

>  <mol_properties>  (18) 
{"0": {"label": "*3", "atom_type": "Cd"}, "1": {"label": "*4", "atom_type": "Cd"}, "9": {"label": "*1", "atom_type": "Cs"}, "10": {"label": "*0", "atom_type": "Cs"}, "17": {"label": "*2", "atom_type": "H0"}}

>  <type>  (18) 
unop_14

>  <geom_source>  (18) 
gaussian_log

$$$$
