
     RDKit          3D

 18 17  0  0  0  0  0  0  0  0999 V2000
    2.2026   -0.7213   -0.2612 C   0  0  0  0  0  0  0  0  0  0  0  0
    1.5384    0.2638    0.6915 C   0  0  0  0  0  0  0  0  0  0  0  0
    2.2584    1.5946    0.7694 C   0  0  0  0  0  0  0  0  0  0  0  0
    2.2212    2.2185   -0.4893 O   0  0  0  0  0  0  0  0  0  0  0  0
    2.8988    3.4488   -0.5204 C   0  0  0  0  0  0  0  0  0  0  0  0
    2.7981    4.0296   -1.9118 C   0  0  0  0  0  0  0  0  0  0  0  0
    3.2294   -0.9309    0.0486 H   0  0  0  0  0  0  0  0  0  0  0  0
    2.2338   -0.3181   -1.2734 H   0  0  0  0  0  0  0  0  0  0  0  0
    1.6610   -1.6680   -0.2875 H   0  0  0  0  0  0  0  0  0  0  0  0
    1.4990   -0.1566    1.7002 H   0  0  0  0  0  0  0  0  0  0  0  0
    0.5055    0.4455    0.3835 H   0  0  0  0  0  0  0  0  0  0  0  0
    3.3038    1.4410    1.0808 H   0  0  0  0  0  0  0  0  0  0  0  0
    1.7844    2.2410    1.5226 H   0  0  0  0  0  0  0  0  0  0  0  0
    2.4596    4.1376    0.2164 H   0  0  0  0  0  0  0  0  0  0  0  0
    3.9524    3.3035   -0.2397 H   0  0  0  0  0  0  0  0  0  0  0  0
    1.7543    4.1869   -2.1856 H   0  0  0  0  0  0  0  0  0  0  0  0
    3.2472    3.3545   -2.6411 H   0  0  0  0  0  0  0  0  0  0  0  0
    3.3178    4.9878   -1.9600 H   0  0  0  0  0  0  0  0  0  0  0  0
  1  2  1  0
  1  7  1  0
  1  8  1  0
  1  9  1  0
  2  3  1  0
  2 10  1  0
  2 11  1  0
  3  4  1  0
  3 12  1  0
  3 13  1  0
  4  5  1  0
  5  6  1  0
  5 14  1  0
  5 15  1  0
  6 16  1  0
  6 17  1  0
  6 18  1  0
M  END
>  <reaction>  (1) 
rmg_rxn_342

>  <mol_properties>  (1) 
{"2": {"label": "donator", "atom_type": "Cs"}, "11": {"label": "d_hydrogen", "atom_type": "H0"}}

>  <type>  (1) 
r1h

$$$$

     RDKit          3D

 11 10  0  0  0  0  0  0  0  0999 V2000
   -1.2230    0.3768   -0.0849 C   0  0  0  0  0  0  0  0  0  0  0  0
   -0.0734   -0.5533    0.2746 C   0  0  0  0  0  0  0  0  0  0  0  0
   -0.0853   -1.8426   -0.5372 C   0  0  0  0  0  0  0  0  0  0  0  0
    0.0319   -1.6944   -1.8815 O   0  0  0  0  0  1  0  0  0  0  0  0
   -2.1874   -0.0885    0.1341 H   0  0  0  0  0  0  0  0  0  0  0  0
   -1.1670    1.3099    0.4765 H   0  0  0  0  0  0  0  0  0  0  0  0
   -1.2014    0.6189   -1.1483 H   0  0  0  0  0  0  0  0  0  0  0  0
    0.8834   -0.0518    0.1071 H   0  0  0  0  0  0  0  0  0  0  0  0
   -0.1104   -0.8149    1.3362 H   0  0  0  0  0  0  0  0  0  0  0  0
    0.6767   -2.5604   -0.1861 H   0  0  0  0  0  0  0  0  0  0  0  0
   -1.0401   -2.3871   -0.3877 H   0  0  0  0  0  0  0  0  0  0  0  0
  1  2  1  0
  1  5  1  0
  1  6  1  0
  1  7  1  0
  2  3  1  0
  2  8  1  0
  2  9  1  0
  3  4  1  0
  3 10  1  0
  3 11  1  0
M  RAD  1   4   2
M  END
>  <reaction>  (2) 
rmg_rxn_342

>  <mol_properties>  (2) 
{"3": {"label": "acceptor", "atom_type": "O2s"}}

>  <type>  (2) 
r2

$$$$

     RDKit          3D

 12 11  0  0  0  0  0  0  0  0999 V2000
   -1.4643   -0.2505   -0.5284 C   0  0  0  0  0  0  0  0  0  0  0  0
   -0.3946    0.4302    0.3143 C   0  0  0  0  0  0  0  0  0  0  0  0
   -0.5959    0.2382    1.8102 C   0  0  0  0  0  0  0  0  0  0  0  0
   -0.5633   -1.1190    2.2092 O   0  0  0  0  0  0  0  0  0  0  0  0
   -2.4511    0.1644   -0.3109 H   0  0  0  0  0  0  0  0  0  0  0  0
   -1.5019   -1.3198   -0.3181 H   0  0  0  0  0  0  0  0  0  0  0  0
   -1.2720   -0.1182   -1.5941 H   0  0  0  0  0  0  0  0  0  0  0  0
    0.5965    0.0515    0.0385 H   0  0  0  0  0  0  0  0  0  0  0  0
   -0.3776    1.5047    0.1078 H   0  0  0  0  0  0  0  0  0  0  0  0
   -1.5821    0.6048    2.1034 H   0  0  0  0  0  0  0  0  0  0  0  0
    0.1495    0.8220    2.3649 H   0  0  0  0  0  0  0  0  0  0  0  0
    0.3017   -1.4750    1.9997 H   0  0  0  0  0  0  0  0  0  0  0  0
  1  2  1  0
  1  5  1  0
  1  6  1  0
  1  7  1  0
  2  3  1  0
  2  8  1  0
  2  9  1  0
  3  4  1  0
  3 10  1  0
  3 11  1  0
  4 12  1  0
M  END
>  <reaction>  (3) 
rmg_rxn_342

>  <mol_properties>  (3) 
{"3": {"label": "acceptor", "atom_type": "O2s"}, "11": {"label": "a_hydrogen", "atom_type": "H0"}}

>  <type>  (3) 
r2h

$$$$

     RDKit          3D

 29 27  0  0  0  0  0  0  0  0999 V2000
    3.4446   -0.4033    0.1337 C   0  0  0  0  0  0  0  0  0  0  0  0
    2.6445    0.3622    1.1767 C   0  0  0  0  0  0  0  0  0  0  0  0
    1.8689    1.5413    0.5953 C   0  0  0  0  0  0  0  0  0  0  0  0
    1.0522    1.2208   -0.4797 O   0  0  0  0  0  1  0  0  0  0  0  0
    4.1813    0.2444   -0.3474 H   0  0  0  0  0  0  0  0  0  0  0  0
    3.9774   -1.2423    0.5837 H   0  0  0  0  0  0  0  0  0  0  0  0
    2.7894   -0.7924   -0.6464 H   0  0  0  0  0  0  0  0  0  0  0  0
    1.9381   -0.3124    1.6709 H   0  0  0  0  0  0  0  0  0  0  0  0
    3.3045    0.7424    1.9620 H   0  0  0  0  0  0  0  0  0  0  0  0
    1.3074    2.0524    1.3917 H   0  0  0  0  0  0  0  0  0  0  0  0
    2.5791    2.2804    0.1935 H   0  0  0  0  0  0  0  0  0  0  0  0
   -0.1241   -2.0119   -1.4670 C   0  0  0  0  0  0  0  0  0  0  0  0
   -0.2550   -1.8388    0.0409 C   0  0  0  0  0  0  0  0  0  0  0  0
   -0.6853   -0.4503    0.4415 C   0  0  0  0  0  0  0  0  0  0  0  0
   -1.9118   -0.1233   -0.0874 O   0  0  0  0  0  0  0  0  0  0  0  0
   -2.3752    1.1621    0.2825 C   0  0  0  0  0  0  0  0  0  0  0  0
   -3.7146    1.4024   -0.3708 C   0  0  0  0  0  0  0  0  0  0  0  0
    0.5927   -1.2954   -1.8727 H   0  0  0  0  0  0  0  0  0  0  0  0
   -1.0811   -1.8458   -1.9613 H   0  0  0  0  0  0  0  0  0  0  0  0
    0.2178   -3.0179   -1.7130 H   0  0  0  0  0  0  0  0  0  0  0  0
    0.7037   -2.0395    0.5259 H   0  0  0  0  0  0  0  0  0  0  0  0
   -0.9740   -2.5584    0.4456 H   0  0  0  0  0  0  0  0  0  0  0  0
    0.1304    0.3179   -0.0072 H   0  0  0  0  0  0  0  0  0  0  0  0
   -0.6449   -0.2760    1.5275 H   0  0  0  0  0  0  0  0  0  0  0  0
   -2.4583    1.2166    1.3765 H   0  0  0  0  0  0  0  0  0  0  0  0
   -1.6406    1.9104   -0.0359 H   0  0  0  0  0  0  0  0  0  0  0  0
   -4.4403    0.6536   -0.0516 H   0  0  0  0  0  0  0  0  0  0  0  0
   -3.6237    1.3565   -1.4563 H   0  0  0  0  0  0  0  0  0  0  0  0
   -4.0914    2.3889   -0.0969 H   0  0  0  0  0  0  0  0  0  0  0  0
  1  2  1  0
  1  5  1  0
  1  6  1  0
  1  7  1  0
  2  3  1  0
  2  8  1  0
  2  9  1  0
  3  4  1  0
  3 10  1  0
  3 11  1  0
 12 13  1  0
 12 18  1  0
 12 19  1  0
 12 20  1  0
 13 14  1  0
 13 21  1  0
 13 22  1  0
 14 15  1  0
 14 23  1  0
 14 24  1  0
 15 16  1  0
 16 17  1  0
 16 25  1  0
 16 26  1  0
 17 27  1  0
 17 28  1  0
 17 29  1  0
M  RAD  1   4   2
M  END
>  <reaction>  (4) 
rmg_rxn_342

>  <mol_properties>  (4) 
{"2": {"label": "*4", "atom_type": "Cs"}, "3": {"label": "*3", "atom_type": "O2s"}, "13": {"label": "*1", "atom_type": "Cs"}, "14": {"label": "*0", "atom_type": "O2s"}, "22": {"label": "*2", "atom_type": "H0"}}

>  <type>  (4) 
ts

$$$$

     RDKit          3D

 29 27  0  0  0  0  0  0  0  0999 V2000
    3.9640    0.3994    0.6747 C   0  0  0  0  0  0  0  0  0  0  0  0
    2.6645    0.7613    1.3804 C   0  0  0  0  0  0  0  0  0  0  0  0
    1.5972    1.2959    0.4369 C   0  0  0  0  0  0  0  0  0  0  0  0
    1.2209    0.3694   -0.5643 O   0  0  0  0  0  0  0  0  0  0  0  0
    4.4063    1.2794    0.2020 H   0  0  0  0  0  0  0  0  0  0  0  0
    4.6944   -0.0080    1.3751 H   0  0  0  0  0  0  0  0  0  0  0  0
    3.7886   -0.3416   -0.1058 H   0  0  0  0  0  0  0  0  0  0  0  0
    2.2668   -0.1152    1.9052 H   0  0  0  0  0  0  0  0  0  0  0  0
    2.8497    1.5176    2.1491 H   0  0  0  0  0  0  0  0  0  0  0  0
    0.7207    1.6214    1.0112 H   0  0  0  0  0  0  0  0  0  0  0  0
    1.9777    2.1674   -0.1004 H   0  0  0  0  0  0  0  0  0  0  0  0
   -0.7410   -2.2918   -1.8739 C   0  0  0  0  0  0  0  0  0  0  0  0
   -0.7410   -2.2918   -0.3510 C   0  0  0  0  0  0  0  0  0  0  0  0
   -0.7410   -0.8988    0.2445 C   0  0  0  0  0  3  0  0  0  0  0  0
   -1.9240   -0.2352   -0.1231 O   0  0  0  0  0  0  0  0  0  0  0  0
   -1.9947    1.0829    0.3578 C   0  0  0  0  0  0  0  0  0  0  0  0
   -3.2980    1.7007   -0.0930 C   0  0  0  0  0  0  0  0  0  0  0  0
    0.1411   -1.7775   -2.2635 H   0  0  0  0  0  0  0  0  0  0  0  0
   -1.6237   -1.7821   -2.2600 H   0  0  0  0  0  0  0  0  0  0  0  0
   -0.7355   -3.3097   -2.2666 H   0  0  0  0  0  0  0  0  0  0  0  0
    0.1405   -2.8183    0.0253 H   0  0  0  0  0  0  0  0  0  0  0  0
   -1.6154   -2.8298    0.0243 H   0  0  0  0  0  0  0  0  0  0  0  0
    0.3080   -0.2206   -0.1880 H   0  0  0  0  0  0  0  0  0  0  0  0
   -0.6662   -0.9527    1.3406 H   0  0  0  0  0  0  0  0  0  0  0  0
   -1.9275    1.0858    1.4559 H   0  0  0  0  0  0  0  0  0  0  0  0
   -1.1418    1.6659   -0.0201 H   0  0  0  0  0  0  0  0  0  0  0  0
   -4.1444    1.1313    0.2927 H   0  0  0  0  0  0  0  0  0  0  0  0
   -3.3588    1.7125   -1.1818 H   0  0  0  0  0  0  0  0  0  0  0  0
   -3.3756    2.7267    0.2700 H   0  0  0  0  0  0  0  0  0  0  0  0
  1  2  1  0
  1  5  1  0
  1  6  1  0
  1  7  1  0
  2  3  1  0
  2  8  1  0
  2  9  1  0
  3  4  1  0
  3 10  1  0
  3 11  1  0
  4 23  1  0
 12 13  1  0
 12 18  1  0
 12 19  1  0
 12 20  1  0
 13 14  1  0
 13 21  1  0
 13 22  1  0
 14 15  1  0
 14 24  1  0
 15 16  1  0
 16 17  1  0
 16 25  1  0
 16 26  1  0
 17 27  1  0
 17 28  1  0
 17 29  1  0
M  RAD  1  14   2
M  END
>  <reaction>  (5) 
rmg_rxn_342

>  <mol_properties>  (5) 
{"2": {"label": "*4", "atom_type": "Cs"}, "3": {"label": "*3", "atom_type": "O2s"}, "13": {"label": "*1", "atom_type": "Cs"}, "14": {"label": "*0", "atom_type": "O2s"}, "22": {"label": "*2", "atom_type": "H0"}}

>  <type>  (5) 
unop_1

>  <geom_source>  (5) 
Heuristics

$$$$

     RDKit          3D

 29 27  0  0  0  0  0  0  0  0999 V2000
   -0.3156    1.5182   -1.1166 C   0  0  0  0  0  0  0  0  0  0  0  0
    0.5729    0.3897   -1.6216 C   0  0  0  0  0  0  0  0  0  0  0  0
    1.9961    0.4610   -1.0881 C   0  0  0  0  0  0  0  0  0  0  0  0
    2.0694    0.3773    0.3225 O   0  0  0  0  0  0  0  0  0  0  0  0
    0.0691    2.4883   -1.4394 H   0  0  0  0  0  0  0  0  0  0  0  0
   -1.3343    1.4187   -1.4939 H   0  0  0  0  0  0  0  0  0  0  0  0
   -0.3537    1.5241   -0.0268 H   0  0  0  0  0  0  0  0  0  0  0  0
    0.1397   -0.5792   -1.3474 H   0  0  0  0  0  0  0  0  0  0  0  0
    0.6176    0.4042   -2.7148 H   0  0  0  0  0  0  0  0  0  0  0  0
    2.6087   -0.3211   -1.5539 H   0  0  0  0  0  0  0  0  0  0  0  0
    2.4431    1.4234   -1.3467 H   0  0  0  0  0  0  0  0  0  0  0  0
    0.1075   -2.2840   -0.9871 C   0  0  0  0  0  0  0  0  0  0  0  0
    0.1075   -2.2840    0.5358 C   0  0  0  0  0  0  0  0  0  0  0  0
    0.1075   -0.8909    1.1314 C   0  0  0  0  0  3  0  0  0  0  0  0
   -1.0755   -0.2273    0.7638 O   0  0  0  0  0  0  0  0  0  0  0  0
   -1.1463    1.0907    1.2446 C   0  0  0  0  0  0  0  0  0  0  0  0
   -2.4496    1.7085    0.7938 C   0  0  0  0  0  0  0  0  0  0  0  0
    0.9895   -1.7697   -1.3767 H   0  0  0  0  0  0  0  0  0  0  0  0
   -0.7753   -1.7743   -1.3731 H   0  0  0  0  0  0  0  0  0  0  0  0
    0.1129   -3.3019   -1.3797 H   0  0  0  0  0  0  0  0  0  0  0  0
    0.9890   -2.8105    0.9121 H   0  0  0  0  0  0  0  0  0  0  0  0
   -0.7669   -2.8220    0.9111 H   0  0  0  0  0  0  0  0  0  0  0  0
    1.1565   -0.2128    0.6989 H   0  0  0  0  0  0  0  0  0  0  0  0
    0.1822   -0.9448    2.2274 H   0  0  0  0  0  0  0  0  0  0  0  0
   -1.0790    1.0936    2.3427 H   0  0  0  0  0  0  0  0  0  0  0  0
   -0.2934    1.6737    0.8668 H   0  0  0  0  0  0  0  0  0  0  0  0
   -3.2959    1.1391    1.1795 H   0  0  0  0  0  0  0  0  0  0  0  0
   -2.5104    1.7204   -0.2950 H   0  0  0  0  0  0  0  0  0  0  0  0
   -2.5272    2.7345    1.1569 H   0  0  0  0  0  0  0  0  0  0  0  0
  1  2  1  0
  1  5  1  0
  1  6  1  0
  1  7  1  0
  2  3  1  0
  2  8  1  0
  2  9  1  0
  3  4  1  0
  3 10  1  0
  3 11  1  0
  4 23  1  0
 12 13  1  0
 12 18  1  0
 12 19  1  0
 12 20  1  0
 13 14  1  0
 13 21  1  0
 13 22  1  0
 14 15  1  0
 14 24  1  0
 15 16  1  0
 16 17  1  0
 16 25  1  0
 16 26  1  0
 17 27  1  0
 17 28  1  0
 17 29  1  0
M  RAD  1  14   2
M  END
>  <reaction>  (6) 
rmg_rxn_342

>  <mol_properties>  (6) 
{"2": {"label": "*4", "atom_type": "Cs"}, "3": {"label": "*3", "atom_type": "O2s"}, "13": {"label": "*1", "atom_type": "Cs"}, "14": {"label": "*0", "atom_type": "O2s"}, "22": {"label": "*2", "atom_type": "H0"}}

>  <type>  (6) 
unop_2

>  <geom_source>  (6) 
Heuristics

$$$$

     RDKit          3D

 29 27  0  0  0  0  0  0  0  0999 V2000
    4.0863    0.1962   -0.3101 C   0  0  0  0  0  0  0  0  0  0  0  0
    3.1432    0.0862    0.8800 C   0  0  0  0  0  0  0  0  0  0  0  0
    1.8793    0.9189    0.7239 C   0  0  0  0  0  0  0  0  0  0  0  0
    1.0977    0.5447   -0.3947 O   0  0  0  0  0  0  0  0  0  0  0  0
    4.4288    1.2255   -0.4392 H   0  0  0  0  0  0  0  0  0  0  0  0
    4.9655   -0.4359   -0.1779 H   0  0  0  0  0  0  0  0  0  0  0  0
    3.5855   -0.1031   -1.2313 H   0  0  0  0  0  0  0  0  0  0  0  0
    2.8604   -0.9611    1.0379 H   0  0  0  0  0  0  0  0  0  0  0  0
    3.6508    0.4053    1.7953 H   0  0  0  0  0  0  0  0  0  0  0  0
    1.2845    0.8702    1.6446 H   0  0  0  0  0  0  0  0  0  0  0  0
    2.1414    1.9664    0.5593 H   0  0  0  0  0  0  0  0  0  0  0  0
   -0.8642   -2.1165   -1.7043 C   0  0  0  0  0  0  0  0  0  0  0  0
   -0.8642   -2.1165   -0.1814 C   0  0  0  0  0  0  0  0  0  0  0  0
   -0.8642   -0.7235    0.4141 C   0  0  0  0  0  3  0  0  0  0  0  0
   -2.0472   -0.0599    0.0465 O   0  0  0  0  0  0  0  0  0  0  0  0
   -2.1180    1.2582    0.5274 C   0  0  0  0  0  0  0  0  0  0  0  0
   -3.4213    1.8760    0.0766 C   0  0  0  0  0  0  0  0  0  0  0  0
    0.0178   -1.6022   -2.0939 H   0  0  0  0  0  0  0  0  0  0  0  0
   -1.7470   -1.6069   -2.0904 H   0  0  0  0  0  0  0  0  0  0  0  0
   -0.8588   -3.1344   -2.0970 H   0  0  0  0  0  0  0  0  0  0  0  0
    0.0173   -2.6430    0.1949 H   0  0  0  0  0  0  0  0  0  0  0  0
   -1.7386   -2.6545    0.1939 H   0  0  0  0  0  0  0  0  0  0  0  0
    0.1848   -0.0454   -0.0184 H   0  0  0  0  0  0  0  0  0  0  0  0
   -0.7895   -0.7774    1.5101 H   0  0  0  0  0  0  0  0  0  0  0  0
   -2.0507    1.2610    1.6255 H   0  0  0  0  0  0  0  0  0  0  0  0
   -1.2651    1.8412    0.1495 H   0  0  0  0  0  0  0  0  0  0  0  0
   -4.2676    1.3066    0.4622 H   0  0  0  0  0  0  0  0  0  0  0  0
   -3.4821    1.8878   -1.0123 H   0  0  0  0  0  0  0  0  0  0  0  0
   -3.4989    2.9020    0.4396 H   0  0  0  0  0  0  0  0  0  0  0  0
  1  2  1  0
  1  5  1  0
  1  6  1  0
  1  7  1  0
  2  3  1  0
  2  8  1  0
  2  9  1  0
  3  4  1  0
  3 10  1  0
  3 11  1  0
  4 23  1  0
 12 13  1  0
 12 18  1  0
 12 19  1  0
 12 20  1  0
 13 14  1  0
 13 21  1  0
 13 22  1  0
 14 15  1  0
 14 24  1  0
 15 16  1  0
 16 17  1  0
 16 25  1  0
 16 26  1  0
 17 27  1  0
 17 28  1  0
 17 29  1  0
M  RAD  1  14   2
M  END
>  <reaction>  (7) 
rmg_rxn_342

>  <mol_properties>  (7) 
{"2": {"label": "*4", "atom_type": "Cs"}, "3": {"label": "*3", "atom_type": "O2s"}, "13": {"label": "*1", "atom_type": "Cs"}, "14": {"label": "*0", "atom_type": "O2s"}, "22": {"label": "*2", "atom_type": "H0"}}

>  <type>  (7) 
unop_3

>  <geom_source>  (7) 
Heuristics

$$$$

     RDKit          3D

 29 27  0  0  0  0  0  0  0  0999 V2000
    3.8619    0.0173   -1.1080 C   0  0  0  0  0  0  0  0  0  0  0  0
    3.2047   -0.4696    0.1761 C   0  0  0  0  0  0  0  0  0  0  0  0
    2.1547    0.4907    0.7150 C   0  0  0  0  0  0  0  0  0  0  0  0
    1.0823    0.7077   -0.1821 O   0  0  0  0  0  0  0  0  0  0  0  0
    4.3871    0.9605   -0.9410 H   0  0  0  0  0  0  0  0  0  0  0  0
    4.5858   -0.7083   -1.4817 H   0  0  0  0  0  0  0  0  0  0  0  0
    3.1163    0.1876   -1.8853 H   0  0  0  0  0  0  0  0  0  0  0  0
    2.7386   -1.4478    0.0104 H   0  0  0  0  0  0  0  0  0  0  0  0
    3.9598   -0.6204    0.9535 H   0  0  0  0  0  0  0  0  0  0  0  0
    1.7824    0.1315    1.6827 H   0  0  0  0  0  0  0  0  0  0  0  0
    2.5997    1.4743    0.8809 H   0  0  0  0  0  0  0  0  0  0  0  0
   -0.8797   -1.9535   -1.4917 C   0  0  0  0  0  0  0  0  0  0  0  0
   -0.8797   -1.9535    0.0312 C   0  0  0  0  0  0  0  0  0  0  0  0
   -0.8797   -0.5605    0.6267 C   0  0  0  0  0  3  0  0  0  0  0  0
   -2.0627    0.1031    0.2591 O   0  0  0  0  0  0  0  0  0  0  0  0
   -2.1334    1.4212    0.7400 C   0  0  0  0  0  0  0  0  0  0  0  0
   -3.4367    2.0390    0.2892 C   0  0  0  0  0  0  0  0  0  0  0  0
    0.0024   -1.4392   -1.8813 H   0  0  0  0  0  0  0  0  0  0  0  0
   -1.7624   -1.4438   -1.8778 H   0  0  0  0  0  0  0  0  0  0  0  0
   -0.8742   -2.9714   -1.8844 H   0  0  0  0  0  0  0  0  0  0  0  0
    0.0019   -2.4800    0.4075 H   0  0  0  0  0  0  0  0  0  0  0  0
   -1.7540   -2.4915    0.4065 H   0  0  0  0  0  0  0  0  0  0  0  0
    0.1694    0.1176    0.1942 H   0  0  0  0  0  0  0  0  0  0  0  0
   -0.8049   -0.6144    1.7228 H   0  0  0  0  0  0  0  0  0  0  0  0
   -2.0661    1.4240    1.8381 H   0  0  0  0  0  0  0  0  0  0  0  0
   -1.2805    2.0042    0.3621 H   0  0  0  0  0  0  0  0  0  0  0  0
   -4.2831    1.4696    0.6749 H   0  0  0  0  0  0  0  0  0  0  0  0
   -3.4975    2.0508   -0.7997 H   0  0  0  0  0  0  0  0  0  0  0  0
   -3.5143    3.0650    0.6522 H   0  0  0  0  0  0  0  0  0  0  0  0
  1  2  1  0
  1  5  1  0
  1  6  1  0
  1  7  1  0
  2  3  1  0
  2  8  1  0
  2  9  1  0
  3  4  1  0
  3 10  1  0
  3 11  1  0
  4 23  1  0
 12 13  1  0
 12 18  1  0
 12 19  1  0
 12 20  1  0
 13 14  1  0
 13 21  1  0
 13 22  1  0
 14 15  1  0
 14 24  1  0
 15 16  1  0
 16 17  1  0
 16 25  1  0
 16 26  1  0
 17 27  1  0
 17 28  1  0
 17 29  1  0
M  RAD  1  14   2
M  END
>  <reaction>  (8) 
rmg_rxn_342

>  <mol_properties>  (8) 
{"2": {"label": "*4", "atom_type": "Cs"}, "3": {"label": "*3", "atom_type": "O2s"}, "13": {"label": "*1", "atom_type": "Cs"}, "14": {"label": "*0", "atom_type": "O2s"}, "22": {"label": "*2", "atom_type": "H0"}}

>  <type>  (8) 
unop_4

>  <geom_source>  (8) 
Heuristics

$$$$

     RDKit          3D

 29 27  0  0  0  0  0  0  0  0999 V2000
    2.3610    0.1822   -2.4661 C   0  0  0  0  0  0  0  0  0  0  0  0
    2.3208   -0.7888   -1.2942 C   0  0  0  0  0  0  0  0  0  0  0  0
    2.4308   -0.1020    0.0591 C   0  0  0  0  0  0  0  0  0  0  0  0
    1.3804    0.8125    0.3092 O   0  0  0  0  0  0  0  0  0  0  0  0
    3.3101    0.7227   -2.4891 H   0  0  0  0  0  0  0  0  0  0  0  0
    2.2493   -0.3406   -3.4170 H   0  0  0  0  0  0  0  0  0  0  0  0
    1.5624    0.9204   -2.3860 H   0  0  0  0  0  0  0  0  0  0  0  0
    1.3923   -1.3708   -1.3218 H   0  0  0  0  0  0  0  0  0  0  0  0
    3.1364   -1.5137   -1.3758 H   0  0  0  0  0  0  0  0  0  0  0  0
    2.4860   -0.8544    0.8559 H   0  0  0  0  0  0  0  0  0  0  0  0
    3.3485    0.4887    0.1036 H   0  0  0  0  0  0  0  0  0  0  0  0
   -0.5815   -1.8488   -1.0005 C   0  0  0  0  0  0  0  0  0  0  0  0
   -0.5815   -1.8488    0.5224 C   0  0  0  0  0  0  0  0  0  0  0  0
   -0.5815   -0.4557    1.1180 C   0  0  0  0  0  3  0  0  0  0  0  0
   -1.7645    0.2079    0.7504 O   0  0  0  0  0  0  0  0  0  0  0  0
   -1.8352    1.5260    1.2313 C   0  0  0  0  0  0  0  0  0  0  0  0
   -3.1385    2.1437    0.7804 C   0  0  0  0  0  0  0  0  0  0  0  0
    0.3006   -1.3344   -1.3901 H   0  0  0  0  0  0  0  0  0  0  0  0
   -1.4642   -1.3391   -1.3865 H   0  0  0  0  0  0  0  0  0  0  0  0
   -0.5760   -2.8666   -1.3931 H   0  0  0  0  0  0  0  0  0  0  0  0
    0.3000   -2.3752    0.8987 H   0  0  0  0  0  0  0  0  0  0  0  0
   -1.4559   -2.3867    0.8977 H   0  0  0  0  0  0  0  0  0  0  0  0
    0.4675    0.2224    0.6855 H   0  0  0  0  0  0  0  0  0  0  0  0
   -0.5067   -0.5096    2.2140 H   0  0  0  0  0  0  0  0  0  0  0  0
   -1.7680    1.5288    2.3293 H   0  0  0  0  0  0  0  0  0  0  0  0
   -0.9824    2.1089    0.8534 H   0  0  0  0  0  0  0  0  0  0  0  0
   -3.9849    1.5743    1.1661 H   0  0  0  0  0  0  0  0  0  0  0  0
   -3.1993    2.1556   -0.3084 H   0  0  0  0  0  0  0  0  0  0  0  0
   -3.2161    3.1698    1.1435 H   0  0  0  0  0  0  0  0  0  0  0  0
  1  2  1  0
  1  5  1  0
  1  6  1  0
  1  7  1  0
  2  3  1  0
  2  8  1  0
  2  9  1  0
  3  4  1  0
  3 10  1  0
  3 11  1  0
  4 23  1  0
 12 13  1  0
 12 18  1  0
 12 19  1  0
 12 20  1  0
 13 14  1  0
 13 21  1  0
 13 22  1  0
 14 15  1  0
 14 24  1  0
 15 16  1  0
 16 17  1  0
 16 25  1  0
 16 26  1  0
 17 27  1  0
 17 28  1  0
 17 29  1  0
M  RAD  1  14   2
M  END
>  <reaction>  (9) 
rmg_rxn_342

>  <mol_properties>  (9) 
{"2": {"label": "*4", "atom_type": "Cs"}, "3": {"label": "*3", "atom_type": "O2s"}, "13": {"label": "*1", "atom_type": "Cs"}, "14": {"label": "*0", "atom_type": "O2s"}, "22": {"label": "*2", "atom_type": "H0"}}

>  <type>  (9) 
unop_5

>  <geom_source>  (9) 
Heuristics

$$$$

     RDKit          3D

 29 27  0  0  0  0  0  0  0  0999 V2000
    2.8751    0.8344    1.9413 C   0  0  0  0  0  0  0  0  0  0  0  0
    1.5894    1.4605    1.4190 C   0  0  0  0  0  0  0  0  0  0  0  0
    1.5033    1.4772   -0.1001 C   0  0  0  0  0  0  0  0  0  0  0  0
    1.5383    0.1854   -0.6765 O   0  0  0  0  0  0  0  0  0  0  0  0
    3.7464    1.4014    1.6056 H   0  0  0  0  0  0  0  0  0  0  0  0
    2.8894    0.8116    3.0318 H   0  0  0  0  0  0  0  0  0  0  0  0
    2.9854   -0.1872    1.5765 H   0  0  0  0  0  0  0  0  0  0  0  0
    0.7219    0.9216    1.8172 H   0  0  0  0  0  0  0  0  0  0  0  0
    1.4979    2.4905    1.7769 H   0  0  0  0  0  0  0  0  0  0  0  0
    0.6021    2.0173   -0.4167 H   0  0  0  0  0  0  0  0  0  0  0  0
    2.3639    2.0057   -0.5162 H   0  0  0  0  0  0  0  0  0  0  0  0
   -0.4236   -2.4758   -1.9861 C   0  0  0  0  0  0  0  0  0  0  0  0
   -0.4236   -2.4758   -0.4632 C   0  0  0  0  0  0  0  0  0  0  0  0
   -0.4236   -1.0828    0.1323 C   0  0  0  0  0  3  0  0  0  0  0  0
   -1.6066   -0.4192   -0.2353 O   0  0  0  0  0  0  0  0  0  0  0  0
   -1.6773    0.8989    0.2456 C   0  0  0  0  0  0  0  0  0  0  0  0
   -2.9806    1.5167   -0.2052 C   0  0  0  0  0  0  0  0  0  0  0  0
    0.4585   -1.9615   -2.3757 H   0  0  0  0  0  0  0  0  0  0  0  0
   -1.3063   -1.9661   -2.3722 H   0  0  0  0  0  0  0  0  0  0  0  0
   -0.4181   -3.4937   -2.3788 H   0  0  0  0  0  0  0  0  0  0  0  0
    0.4579   -3.0023   -0.0869 H   0  0  0  0  0  0  0  0  0  0  0  0
   -1.2980   -3.0138   -0.0879 H   0  0  0  0  0  0  0  0  0  0  0  0
    0.6255   -0.4047   -0.3001 H   0  0  0  0  0  0  0  0  0  0  0  0
   -0.3488   -1.1367    1.2284 H   0  0  0  0  0  0  0  0  0  0  0  0
   -1.6100    0.9018    1.3437 H   0  0  0  0  0  0  0  0  0  0  0  0
   -0.8244    1.4819   -0.1322 H   0  0  0  0  0  0  0  0  0  0  0  0
   -3.8270    0.9473    0.1805 H   0  0  0  0  0  0  0  0  0  0  0  0
   -3.0414    1.5285   -1.2940 H   0  0  0  0  0  0  0  0  0  0  0  0
   -3.0582    2.5427    0.1579 H   0  0  0  0  0  0  0  0  0  0  0  0
  1  2  1  0
  1  5  1  0
  1  6  1  0
  1  7  1  0
  2  3  1  0
  2  8  1  0
  2  9  1  0
  3  4  1  0
  3 10  1  0
  3 11  1  0
  4 23  1  0
 12 13  1  0
 12 18  1  0
 12 19  1  0
 12 20  1  0
 13 14  1  0
 13 21  1  0
 13 22  1  0
 14 15  1  0
 14 24  1  0
 15 16  1  0
 16 17  1  0
 16 25  1  0
 16 26  1  0
 17 27  1  0
 17 28  1  0
 17 29  1  0
M  RAD  1  14   2
M  END
>  <reaction>  (10) 
rmg_rxn_342

>  <mol_properties>  (10) 
{"2": {"label": "*4", "atom_type": "Cs"}, "3": {"label": "*3", "atom_type": "O2s"}, "13": {"label": "*1", "atom_type": "Cs"}, "14": {"label": "*0", "atom_type": "O2s"}, "22": {"label": "*2", "atom_type": "H0"}}

>  <type>  (10) 
unop_6

>  <geom_source>  (10) 
Heuristics

$$$$

     RDKit          3D

 29 26  0  0  0  0  0  0  0  0999 V2000
    0.0088    1.8863    0.9595 C   0  0  0  0  0  0  0  0  0  0  0  0
    0.2183    1.5682   -0.5145 C   0  0  0  0  0  3  0  0  0  0  0  0
    1.6565    1.2037   -0.8519 C   0  0  0  0  0  0  0  0  0  0  0  0
    2.1191    0.0571   -0.1637 O   0  0  0  0  0  0  0  0  0  0  0  0
    0.6069    2.7503    1.2583 H   0  0  0  0  0  0  0  0  0  0  0  0
   -1.0372    2.1131    1.1705 H   0  0  0  0  0  0  0  0  0  0  0  0
    0.3090    1.0449    1.5847 H   0  0  0  0  0  0  0  0  0  0  0  0
   -0.4367    0.7425   -0.8161 H   0  0  0  0  0  0  0  0  0  0  0  0
   -0.0697    2.4253   -1.1308 H   0  0  0  0  0  0  0  0  0  0  0  0
    1.7637    1.0730   -1.9361 H   0  0  0  0  0  0  0  0  0  0  0  0
    2.3260    2.0132   -0.5527 H   0  0  0  0  0  0  0  0  0  0  0  0
    0.1571   -2.6041   -1.4733 C   0  0  0  0  0  0  0  0  0  0  0  0
    0.1571   -2.6041    0.0496 C   0  0  0  0  0  0  0  0  0  0  0  0
    0.1571   -1.2111    0.6451 C   0  0  0  0  0  0  0  0  0  0  0  0
   -1.0259   -0.5475    0.2775 O   0  0  0  0  0  3  0  0  0  0  0  0
   -1.0966    0.7706    0.7584 C   0  0  0  0  0  3  0  0  0  0  0  0
   -2.3999    1.3884    0.3076 C   0  0  0  0  0  0  0  0  0  0  0  0
    1.0392   -2.0898   -1.8629 H   0  0  0  0  0  0  0  0  0  0  0  0
   -0.7256   -2.0944   -1.8594 H   0  0  0  0  0  0  0  0  0  0  0  0
    0.1626   -3.6220   -1.8660 H   0  0  0  0  0  0  0  0  0  0  0  0
    1.0387   -3.1306    0.4259 H   0  0  0  0  0  0  0  0  0  0  0  0
   -0.7172   -3.1421    0.4249 H   0  0  0  0  0  0  0  0  0  0  0  0
    1.2062   -0.5330    0.2127 H   0  0  0  0  0  0  0  0  0  0  0  0
    0.2319   -1.2650    1.7412 H   0  0  0  0  0  0  0  0  0  0  0  0
   -1.0293    0.7734    1.8565 H   0  0  0  0  0  0  0  0  0  0  0  0
   -0.2437    1.3536    0.3805 H   0  0  0  0  0  0  0  0  0  0  0  0
   -3.2463    0.8190    0.6933 H   0  0  0  0  0  0  0  0  0  0  0  0
   -2.4607    1.4002   -0.7812 H   0  0  0  0  0  0  0  0  0  0  0  0
   -2.4775    2.4144    0.6706 H   0  0  0  0  0  0  0  0  0  0  0  0
  1  5  1  0
  1  6  1  0
  1  7  1  0
  1 26  1  0
  2  3  1  0
  2  8  1  0
  2  9  1  0
  3  4  1  0
  3 10  1  0
  3 11  1  0
  4 23  1  0
 12 13  1  0
 12 18  1  0
 12 19  1  0
 12 20  1  0
 13 14  1  0
 13 21  1  0
 13 22  1  0
 14 15  2  3
 14 24  1  0
 15 16  1  0
 16 17  1  0
 16 25  1  0
 17 27  1  0
 17 28  1  0
 17 29  1  0
M  CHG  2  15   1  16  -1
M  RAD  1   2   2
M  END
>  <reaction>  (11) 
rmg_rxn_342

>  <mol_properties>  (11) 
{"2": {"label": "*4", "atom_type": "Cs"}, "3": {"label": "*3", "atom_type": "O2s"}, "13": {"label": "*1", "atom_type": "Cs"}, "14": {"label": "*0", "atom_type": "O2s"}, "22": {"label": "*2", "atom_type": "H0"}}

>  <type>  (11) 
unop_7

>  <geom_source>  (11) 
Heuristics

$$$$

     RDKit          3D

 29 27  0  0  0  0  0  0  0  0999 V2000
    3.3083   -0.0267   -1.8790 C   0  0  0  0  0  0  0  0  0  0  0  0
    2.9099   -0.7815   -0.6183 C   0  0  0  0  0  0  0  0  0  0  0  0
    2.3460    0.1210    0.4692 C   0  0  0  0  0  0  0  0  0  0  0  0
    1.1751    0.8097    0.0730 O   0  0  0  0  0  0  0  0  0  0  0  0
    4.0963    0.6986   -1.6637 H   0  0  0  0  0  0  0  0  0  0  0  0
    3.6791   -0.7071   -2.6469 H   0  0  0  0  0  0  0  0  0  0  0  0
    2.4587    0.5205   -2.2886 H   0  0  0  0  0  0  0  0  0  0  0  0
    2.1673   -1.5504   -0.8612 H   0  0  0  0  0  0  0  0  0  0  0  0
    3.7736   -1.3124   -0.2067 H   0  0  0  0  0  0  0  0  0  0  0  0
    2.1615   -0.4627    1.3799 H   0  0  0  0  0  0  0  0  0  0  0  0
    3.0706    0.8986    0.7209 H   0  0  0  0  0  0  0  0  0  0  0  0
   -0.7868   -1.8516   -1.2366 C   0  0  0  0  0  0  0  0  0  0  0  0
   -0.7868   -1.8516    0.2863 C   0  0  0  0  0  0  0  0  0  0  0  0
   -0.7868   -0.4585    0.8819 C   0  0  0  0  0  3  0  0  0  0  0  0
   -1.9698    0.2051    0.5143 O   0  0  0  0  0  0  0  0  0  0  0  0
   -2.0405    1.5232    0.9952 C   0  0  0  0  0  0  0  0  0  0  0  0
   -3.3439    2.1409    0.5443 C   0  0  0  0  0  0  0  0  0  0  0  0
    0.0953   -1.3372   -1.6262 H   0  0  0  0  0  0  0  0  0  0  0  0
   -1.6695   -1.3419   -1.6226 H   0  0  0  0  0  0  0  0  0  0  0  0
   -0.7813   -2.8694   -1.6292 H   0  0  0  0  0  0  0  0  0  0  0  0
    0.0947   -2.3780    0.6626 H   0  0  0  0  0  0  0  0  0  0  0  0
   -1.6612   -2.3895    0.6616 H   0  0  0  0  0  0  0  0  0  0  0  0
    0.2622    0.2196    0.4494 H   0  0  0  0  0  0  0  0  0  0  0  0
   -0.7120   -0.5124    1.9779 H   0  0  0  0  0  0  0  0  0  0  0  0
   -1.9733    1.5260    2.0932 H   0  0  0  0  0  0  0  0  0  0  0  0
   -1.1877    2.1061    0.6173 H   0  0  0  0  0  0  0  0  0  0  0  0
   -4.1902    1.5715    0.9300 H   0  0  0  0  0  0  0  0  0  0  0  0
   -3.4047    2.1528   -0.5445 H   0  0  0  0  0  0  0  0  0  0  0  0
   -3.4215    3.1670    0.9074 H   0  0  0  0  0  0  0  0  0  0  0  0
  1  2  1  0
  1  5  1  0
  1  6  1  0
  1  7  1  0
  2  3  1  0
  2  8  1  0
  2  9  1  0
  3  4  1  0
  3 10  1  0
  3 11  1  0
  4 23  1  0
 12 13  1  0
 12 18  1  0
 12 19  1  0
 12 20  1  0
 13 14  1  0
 13 21  1  0
 13 22  1  0
 14 15  1  0
 14 24  1  0
 15 16  1  0
 16 17  1  0
 16 25  1  0
 16 26  1  0
 17 27  1  0
 17 28  1  0
 17 29  1  0
M  RAD  1  14   2
M  END
>  <reaction>  (12) 
rmg_rxn_342

>  <mol_properties>  (12) 
{"2": {"label": "*4", "atom_type": "Cs"}, "3": {"label": "*3", "atom_type": "O2s"}, "13": {"label": "*1", "atom_type": "Cs"}, "14": {"label": "*0", "atom_type": "O2s"}, "22": {"label": "*2", "atom_type": "H0"}}

>  <type>  (12) 
unop_8

>  <geom_source>  (12) 
Heuristics

$$$$

     RDKit          3D

 29 27  0  0  0  0  0  0  0  0999 V2000
    0.1886    1.1052   -1.9827 C   0  0  0  0  0  0  0  0  0  0  0  0
    1.0179   -0.1488   -1.7429 C   0  0  0  0  0  0  0  0  0  0  0  0
    2.2336    0.0946   -0.8609 C   0  0  0  0  0  0  0  0  0  0  0  0
    1.9015    0.5631    0.4323 O   0  0  0  0  0  0  0  0  0  0  0  0
    0.7773    1.8660   -2.5004 H   0  0  0  0  0  0  0  0  0  0  0  0
   -0.6896    0.8881   -2.5925 H   0  0  0  0  0  0  0  0  0  0  0  0
   -0.1484    1.5342   -1.0386 H   0  0  0  0  0  0  0  0  0  0  0  0
    0.3966   -0.9263   -1.2835 H   0  0  0  0  0  0  0  0  0  0  0  0
    1.3648   -0.5605   -2.6955 H   0  0  0  0  0  0  0  0  0  0  0  0
    2.8374   -0.8194   -0.7975 H   0  0  0  0  0  0  0  0  0  0  0  0
    2.8628    0.8719   -1.3000 H   0  0  0  0  0  0  0  0  0  0  0  0
   -0.0604   -2.0981   -0.8773 C   0  0  0  0  0  0  0  0  0  0  0  0
   -0.0604   -2.0981    0.6456 C   0  0  0  0  0  0  0  0  0  0  0  0
   -0.0604   -0.7051    1.2411 C   0  0  0  0  0  3  0  0  0  0  0  0
   -1.2434   -0.0415    0.8735 O   0  0  0  0  0  0  0  0  0  0  0  0
   -1.3141    1.2766    1.3544 C   0  0  0  0  0  0  0  0  0  0  0  0
   -2.6175    1.8944    0.9036 C   0  0  0  0  0  0  0  0  0  0  0  0
    0.8216   -1.5838   -1.2669 H   0  0  0  0  0  0  0  0  0  0  0  0
   -0.9432   -1.5884   -1.2634 H   0  0  0  0  0  0  0  0  0  0  0  0
   -0.0550   -3.1160   -1.2700 H   0  0  0  0  0  0  0  0  0  0  0  0
    0.8211   -2.6246    1.0219 H   0  0  0  0  0  0  0  0  0  0  0  0
   -0.9348   -2.6361    1.0209 H   0  0  0  0  0  0  0  0  0  0  0  0
    0.9886   -0.0270    0.8087 H   0  0  0  0  0  0  0  0  0  0  0  0
    0.0144   -0.7590    2.3372 H   0  0  0  0  0  0  0  0  0  0  0  0
   -1.2469    1.2794    2.4525 H   0  0  0  0  0  0  0  0  0  0  0  0
   -0.4613    1.8596    0.9765 H   0  0  0  0  0  0  0  0  0  0  0  0
   -3.4638    1.3250    1.2893 H   0  0  0  0  0  0  0  0  0  0  0  0
   -2.6783    1.9062   -0.1852 H   0  0  0  0  0  0  0  0  0  0  0  0
   -2.6951    2.9204    1.2667 H   0  0  0  0  0  0  0  0  0  0  0  0
  1  2  1  0
  1  5  1  0
  1  6  1  0
  1  7  1  0
  2  3  1  0
  2  8  1  0
  2  9  1  0
  3  4  1  0
  3 10  1  0
  3 11  1  0
  4 23  1  0
 12 13  1  0
 12 18  1  0
 12 19  1  0
 12 20  1  0
 13 14  1  0
 13 21  1  0
 13 22  1  0
 14 15  1  0
 14 24  1  0
 15 16  1  0
 16 17  1  0
 16 25  1  0
 16 26  1  0
 17 27  1  0
 17 28  1  0
 17 29  1  0
M  RAD  1  14   2
M  END
>  <reaction>  (13) 
rmg_rxn_342

>  <mol_properties>  (13) 
{"2": {"label": "*4", "atom_type": "Cs"}, "3": {"label": "*3", "atom_type": "O2s"}, "13": {"label": "*1", "atom_type": "Cs"}, "14": {"label": "*0", "atom_type": "O2s"}, "22": {"label": "*2", "atom_type": "H0"}}

>  <type>  (13) 
unop_9

>  <geom_source>  (13) 
Heuristics

$$$$

     RDKit          3D

 29 27  0  0  0  0  0  0  0  0999 V2000
   -1.6789    0.3635   -0.3299 O   0  0  0  0  0  0  0  0  0  0  0  0
    1.3213   -0.2196   -0.6791 O   0  0  0  0  0  0  0  0  0  0  0  0
    3.2684    1.1554   -0.3769 C   0  0  0  0  0  0  0  0  0  0  0  0
   -1.1498   -1.8289    0.5939 C   0  0  0  0  0  0  0  0  0  0  0  0
    1.8816    0.7684    0.1375 C   0  0  0  0  0  0  0  0  0  0  0  0
   -2.9384    0.3183   -0.9662 C   0  0  0  0  0  0  0  0  0  0  0  0
    4.2578   -0.0033   -0.2725 C   0  0  0  0  0  0  0  0  0  0  0  0
   -0.5830   -1.2672    1.8935 C   0  0  0  0  0  0  0  0  0  0  0  0
   -3.7357    1.5553   -0.5831 C   0  0  0  0  0  0  0  0  0  0  0  0
   -0.9735   -0.8409   -0.5596 C   0  0  0  0  0  3  0  0  0  0  0  0
    3.1940    1.4836   -1.4364 H   0  0  0  0  0  0  0  0  0  0  0  0
    3.6508    2.0093    0.2230 H   0  0  0  0  0  0  0  0  0  0  0  0
   -2.2247   -2.0731    0.7292 H   0  0  0  0  0  0  0  0  0  0  0  0
   -0.6100   -2.7673    0.3443 H   0  0  0  0  0  0  0  0  0  0  0  0
    1.2280    1.6675    0.1252 H   0  0  0  0  0  0  0  0  0  0  0  0
    1.9531    0.3976    1.1837 H   0  0  0  0  0  0  0  0  0  0  0  0
   -2.8127    0.3113   -2.0725 H   0  0  0  0  0  0  0  0  0  0  0  0
   -3.5182   -0.5797   -0.6532 H   0  0  0  0  0  0  0  0  0  0  0  0
    3.9220   -0.8588   -0.8961 H   0  0  0  0  0  0  0  0  0  0  0  0
    4.3551   -0.3341    0.7835 H   0  0  0  0  0  0  0  0  0  0  0  0
    5.2546    0.3268   -0.6337 H   0  0  0  0  0  0  0  0  0  0  0  0
   -4.7273    1.5330   -1.0825 H   0  0  0  0  0  0  0  0  0  0  0  0
   -3.8868    1.5836    0.5170 H   0  0  0  0  0  0  0  0  0  0  0  0
   -3.1930    2.4710   -0.9003 H   0  0  0  0  0  0  0  0  0  0  0  0
    0.4917   -1.0153    1.7676 H   0  0  0  0  0  0  0  0  0  0  0  0
   -1.1409   -0.3565    2.1987 H   0  0  0  0  0  0  0  0  0  0  0  0
   -0.6789   -2.0258    2.6986 H   0  0  0  0  0  0  0  0  0  0  0  0
   -1.1790   -1.3141   -1.5488 H   0  0  0  0  0  0  0  0  0  0  0  0
    0.2526   -0.4597   -0.2048 H   0  0  0  0  0  0  0  0  0  0  0  0
  1  6  1  0
  1 10  1  0
  2  5  1  0
  2 29  1  0
  3  7  1  0
  3  5  1  0
  3 11  1  0
  3 12  1  0
  4  8  1  0
  4 10  1  0
  4 13  1  0
  4 14  1  0
  5 15  1  0
  5 16  1  0
  6  9  1  0
  6 17  1  0
  6 18  1  0
  7 19  1  0
  7 20  1  0
  7 21  1  0
  8 25  1  0
  8 26  1  0
  8 27  1  0
  9 22  1  0
  9 23  1  0
  9 24  1  0
 10 28  1  0
M  RAD  1  10   2
M  END
>  <reaction>  (14) 
rmg_rxn_342

>  <mol_properties>  (14) 
{"2": {"label": "*4", "atom_type": "Cs"}, "3": {"label": "*3", "atom_type": "O2s"}, "13": {"label": "*1", "atom_type": "Cs"}, "14": {"label": "*0", "atom_type": "O2s"}, "22": {"label": "*2", "atom_type": "H0"}}

>  <type>  (14) 
unop_10

>  <geom_source>  (14) 
AutoTST

$$$$

     RDKit          3D

 29 27  0  0  0  0  0  0  0  0999 V2000
   -0.3156    1.5182   -1.1165 C   0  0  0  0  0  0  0  0  0  0  0  0
    0.5729    0.3897   -1.6216 C   0  0  0  0  0  0  0  0  0  0  0  0
    1.9961    0.4610   -1.0881 C   0  0  0  0  0  0  0  0  0  0  0  0
    2.0694    0.3773    0.3225 O   0  0  0  0  0  0  0  0  0  0  0  0
    0.0691    2.4883   -1.4394 H   0  0  0  0  0  0  0  0  0  0  0  0
   -1.3343    1.4187   -1.4939 H   0  0  0  0  0  0  0  0  0  0  0  0
   -0.3537    1.5241   -0.0268 H   0  0  0  0  0  0  0  0  0  0  0  0
    0.1397   -0.5792   -1.3474 H   0  0  0  0  0  0  0  0  0  0  0  0
    0.6176    0.4042   -2.7148 H   0  0  0  0  0  0  0  0  0  0  0  0
    2.6087   -0.3211   -1.5539 H   0  0  0  0  0  0  0  0  0  0  0  0
    2.4431    1.4234   -1.3467 H   0  0  0  0  0  0  0  0  0  0  0  0
    0.1075   -2.2840   -0.9871 C   0  0  0  0  0  0  0  0  0  0  0  0
    0.1075   -2.2840    0.5358 C   0  0  0  0  0  0  0  0  0  0  0  0
    0.1075   -0.8909    1.1314 C   0  0  0  0  0  3  0  0  0  0  0  0
   -1.0755   -0.2273    0.7638 O   0  0  0  0  0  0  0  0  0  0  0  0
   -1.1463    1.0907    1.2447 C   0  0  0  0  0  0  0  0  0  0  0  0
   -2.4496    1.7085    0.7938 C   0  0  0  0  0  0  0  0  0  0  0  0
    0.9895   -1.7697   -1.3767 H   0  0  0  0  0  0  0  0  0  0  0  0
   -0.7753   -1.7743   -1.3731 H   0  0  0  0  0  0  0  0  0  0  0  0
    0.1129   -3.3018   -1.3797 H   0  0  0  0  0  0  0  0  0  0  0  0
    0.9890   -2.8105    0.9121 H   0  0  0  0  0  0  0  0  0  0  0  0
   -0.7669   -2.8220    0.9111 H   0  0  0  0  0  0  0  0  0  0  0  0
    1.1565   -0.2128    0.6989 H   0  0  0  0  0  0  0  0  0  0  0  0
    0.1822   -0.9448    2.2274 H   0  0  0  0  0  0  0  0  0  0  0  0
   -1.0790    1.0936    2.3427 H   0  0  0  0  0  0  0  0  0  0  0  0
   -0.2934    1.6737    0.8668 H   0  0  0  0  0  0  0  0  0  0  0  0
   -3.2959    1.1391    1.1795 H   0  0  0  0  0  0  0  0  0  0  0  0
   -2.5104    1.7204   -0.2950 H   0  0  0  0  0  0  0  0  0  0  0  0
   -2.5272    2.7345    1.1569 H   0  0  0  0  0  0  0  0  0  0  0  0
  1  2  1  0
  1  5  1  0
  1  6  1  0
  1  7  1  0
  2  3  1  0
  2  8  1  0
  2  9  1  0
  3  4  1  0
  3 10  1  0
  3 11  1  0
  4 23  1  0
 12 13  1  0
 12 18  1  0
 12 19  1  0
 12 20  1  0
 13 14  1  0
 13 21  1  0
 13 22  1  0
 14 15  1  0
 14 24  1  0
 15 16  1  0
 16 17  1  0
 16 25  1  0
 16 26  1  0
 17 27  1  0
 17 28  1  0
 17 29  1  0
M  RAD  1  14   2
M  END
>  <reaction>  (15) 
rmg_rxn_342

>  <mol_properties>  (15) 
{"2": {"label": "*4", "atom_type": "Cs"}, "3": {"label": "*3", "atom_type": "O2s"}, "13": {"label": "*1", "atom_type": "Cs"}, "14": {"label": "*0", "atom_type": "O2s"}, "22": {"label": "*2", "atom_type": "H0"}}

>  <type>  (15) 
unop_11

>  <geom_source>  (15) 
gaussian_log

$$$$
