
     RDKit          3D

  8  7  0  0  0  0  0  0  0  0999 V2000
    0.9548    0.1194   -0.0790 C   0  0  0  0  0  0  0  0  0  0  0  0
   -0.4838   -0.2649    0.0193 C   0  0  0  0  0  0  0  0  0  0  0  0
   -0.8933   -1.1081    0.8664 N   0  0  0  0  0  0  0  0  0  0  0  0
    1.3360   -0.0983   -1.0800 H   0  0  0  0  0  0  0  0  0  0  0  0
    1.0698    1.1948    0.0786 H   0  0  0  0  0  0  0  0  0  0  0  0
    1.5426   -0.4219    0.6602 H   0  0  0  0  0  0  0  0  0  0  0  0
   -1.1575    0.2324   -0.6905 H   0  0  0  0  0  0  0  0  0  0  0  0
   -1.8989   -1.2455    0.7886 H   0  0  0  0  0  0  0  0  0  0  0  0
  1  2  1  0
  1  4  1  0
  1  5  1  0
  1  6  1  0
  2  3  2  3
  2  7  1  0
  3  8  1  0
M  END
>  <reaction>  (1) 
rmg_rxn_16497

>  <mol_properties>  (1) 
{"2": {"label": "donator", "atom_type": "N3d"}, "7": {"label": "d_hydrogen", "atom_type": "H0"}}

>  <type>  (1) 
r1h

$$$$

     RDKit          3D

  8  7  0  0  0  0  0  0  0  0999 V2000
   -1.0607    0.1793   -0.1423 C   0  0  0  0  0  0  0  0  0  0  0  0
    0.2796    0.0327    0.4820 C   0  0  0  0  0  3  0  0  0  0  0  0
    0.8817   -1.4663    1.0792 S   0  0  0  0  0  0  0  0  0  0  0  0
   -1.3043    1.2328   -0.2850 H   0  0  0  0  0  0  0  0  0  0  0  0
   -1.8444   -0.2641    0.4799 H   0  0  0  0  0  0  0  0  0  0  0  0
   -1.1164   -0.3100   -1.1237 H   0  0  0  0  0  0  0  0  0  0  0  0
    1.0449    0.7826    0.3391 H   0  0  0  0  0  0  0  0  0  0  0  0
   -0.2993   -2.0725    1.2719 H   0  0  0  0  0  0  0  0  0  0  0  0
  1  2  1  0
  1  4  1  0
  1  5  1  0
  1  6  1  0
  2  3  1  0
  2  7  1  0
  3  8  1  0
M  RAD  1   2   2
M  END
>  <reaction>  (2) 
rmg_rxn_16497

>  <mol_properties>  (2) 
{"1": {"label": "acceptor", "atom_type": "Cs"}}

>  <type>  (2) 
r2

$$$$

     RDKit          3D

  9  8  0  0  0  0  0  0  0  0999 V2000
   -0.8818   -0.3578    0.1297 C   0  0  0  0  0  0  0  0  0  0  0  0
    0.6153   -0.3021   -0.1188 C   0  0  0  0  0  0  0  0  0  0  0  0
    1.5354   -1.7170    0.5545 S   0  0  0  0  0  0  0  0  0  0  0  0
   -1.1018   -0.3317    1.1984 H   0  0  0  0  0  0  0  0  0  0  0  0
   -1.3114   -1.2723   -0.2799 H   0  0  0  0  0  0  0  0  0  0  0  0
   -1.3767    0.4976   -0.3363 H   0  0  0  0  0  0  0  0  0  0  0  0
    1.0467    0.6194    0.2718 H   0  0  0  0  0  0  0  0  0  0  0  0
    0.8295   -0.3275   -1.1882 H   0  0  0  0  0  0  0  0  0  0  0  0
    1.2306   -1.5077    1.8423 H   0  0  0  0  0  0  0  0  0  0  0  0
  1  2  1  0
  1  4  1  0
  1  5  1  0
  1  6  1  0
  2  3  1  0
  2  7  1  0
  2  8  1  0
  3  9  1  0
M  END
>  <reaction>  (3) 
rmg_rxn_16497

>  <mol_properties>  (3) 
{"1": {"label": "acceptor", "atom_type": "Cs"}, "8": {"label": "a_hydrogen", "atom_type": "H0"}}

>  <type>  (3) 
r2h

$$$$

     RDKit          3D

 16 14  0  0  0  0  0  0  0  0999 V2000
    1.9566   -1.5190   -0.3417 C   0  0  0  0  0  0  0  0  0  0  0  0
    1.2413   -0.4604    0.4572 C   0  0  0  0  0  3  0  0  0  0  0  0
    1.4934    1.2306   -0.0081 S   0  0  0  0  0  0  0  0  0  0  0  0
    1.6855   -1.4591   -1.3979 H   0  0  0  0  0  0  0  0  0  0  0  0
    1.6745   -2.5099    0.0179 H   0  0  0  0  0  0  0  0  0  0  0  0
    3.0424   -1.4180   -0.2643 H   0  0  0  0  0  0  0  0  0  0  0  0
    1.3963   -0.5319    1.5332 H   0  0  0  0  0  0  0  0  0  0  0  0
    1.3408    1.0641   -1.3300 H   0  0  0  0  0  0  0  0  0  0  0  0
   -3.3441    0.1951   -0.1724 C   0  0  0  0  0  0  0  0  0  0  0  0
   -1.8642    0.0807    0.0443 C   0  0  0  0  0  0  0  0  0  0  0  0
   -1.2793   -1.0218    0.1675 N   0  0  0  0  0  0  0  0  0  0  0  0
   -3.8064   -0.7896   -0.2084 H   0  0  0  0  0  0  0  0  0  0  0  0
   -3.7921    0.7793    0.6346 H   0  0  0  0  0  0  0  0  0  0  0  0
   -3.5426    0.7264   -1.1060 H   0  0  0  0  0  0  0  0  0  0  0  0
   -1.3047    1.0283    0.0895 H   0  0  0  0  0  0  0  0  0  0  0  0
   -0.0600   -0.7784    0.3282 H   0  0  0  0  0  0  0  0  0  0  0  0
  1  2  1  0
  1  4  1  0
  1  5  1  0
  1  6  1  0
  2  3  1  0
  2  7  1  0
  3  8  1  0
  9 10  1  0
  9 12  1  0
  9 13  1  0
  9 14  1  0
 10 11  2  3
 10 15  1  0
 11 16  1  0
M  RAD  1   2   2
M  END
>  <reaction>  (4) 
rmg_rxn_16497

>  <mol_properties>  (4) 
{"1": {"label": "*3", "atom_type": "Cs"}, "2": {"label": "*4", "atom_type": "S2s"}, "9": {"label": "*0", "atom_type": "Cd"}, "10": {"label": "*1", "atom_type": "N3d"}, "15": {"label": "*2", "atom_type": "H0"}}

>  <type>  (4) 
ts

$$$$

     RDKit          3D

 16 14  0  0  0  0  0  0  0  0999 V2000
    2.0039   -1.5198   -0.3429 C   0  0  0  0  0  0  0  0  0  0  0  0
    1.2154   -0.5240    0.4632 C   0  0  0  0  0  3  0  0  0  0  0  0
    1.4166    1.1797   -0.0150 S   0  0  0  0  0  0  0  0  0  0  0  0
    1.7514   -1.4480   -1.4003 H   0  0  0  0  0  0  0  0  0  0  0  0
    1.7715   -2.5258   -0.0004 H   0  0  0  0  0  0  0  0  0  0  0  0
    3.0787   -1.3585   -0.2352 H   0  0  0  0  0  0  0  0  0  0  0  0
    1.3993   -0.5815    1.5331 H   0  0  0  0  0  0  0  0  0  0  0  0
    1.3024    0.9731   -1.3292 H   0  0  0  0  0  0  0  0  0  0  0  0
   -3.3580    0.2166   -0.1627 C   0  0  0  0  0  0  0  0  0  0  0  0
   -1.8773    0.1210    0.0326 C   0  0  0  0  0  0  0  0  0  0  0  0
   -1.2774   -0.9564    0.1649 N   0  0  0  0  0  0  0  0  0  0  0  0
   -3.8026   -0.7746   -0.1747 H   0  0  0  0  0  0  0  0  0  0  0  0
   -3.7898    0.8040    0.6461 H   0  0  0  0  0  0  0  0  0  0  0  0
   -3.5673    0.7263   -1.1020 H   0  0  0  0  0  0  0  0  0  0  0  0
   -1.3664    1.0992    0.0477 H   0  0  0  0  0  0  0  0  0  0  0  0
   -0.0628   -0.8150    0.3184 H   0  0  0  0  0  0  0  0  0  0  0  0
  1  2  1  0
  1  4  1  0
  1  5  1  0
  1  6  1  0
  2  3  1  0
  2  7  1  0
  3  8  1  0
  9 10  1  0
  9 12  1  0
  9 13  1  0
  9 14  1  0
 10 11  2  3
 10 15  1  0
 11 16  1  0
M  RAD  1   2   2
M  END
>  <reaction>  (5) 
rmg_rxn_16497

>  <mol_properties>  (5) 
{"1": {"label": "*3", "atom_type": "Cs"}, "2": {"label": "*4", "atom_type": "S2s"}, "9": {"label": "*0", "atom_type": "Cd"}, "10": {"label": "*1", "atom_type": "N3d"}, "15": {"label": "*2", "atom_type": "H0"}}

>  <type>  (5) 
unop_1

>  <geom_source>  (5) 
crest_best.xyz

$$$$

     RDKit          3D

 16 14  0  0  0  0  0  0  0  0999 V2000
    1.4638    0.2313    2.0784 C   0  0  0  0  0  0  0  0  0  0  0  0
    0.2332   -0.3654    1.4180 C   0  0  0  0  0  3  0  0  0  0  0  0
   -1.0718    0.8428    1.0449 S   0  0  0  0  0  0  0  0  0  0  0  0
    2.2224   -0.5391    2.2354 H   0  0  0  0  0  0  0  0  0  0  0  0
    1.2158    0.6613    3.0505 H   0  0  0  0  0  0  0  0  0  0  0  0
    1.8936    1.0207    1.4613 H   0  0  0  0  0  0  0  0  0  0  0  0
   -0.1892   -1.1682    2.0219 H   0  0  0  0  0  0  0  0  0  0  0  0
   -1.3101    1.2164    2.3093 H   0  0  0  0  0  0  0  0  0  0  0  0
    0.2332   -0.9611   -3.2273 C   0  0  0  0  0  0  0  0  0  0  0  0
    0.2332   -0.9611   -1.7350 C   0  0  0  0  0  0  0  0  0  0  0  0
    0.2332    0.1115   -1.0673 N   0  0  0  0  0  0  0  0  0  0  0  0
    1.1115   -1.4911   -3.6047 H   0  0  0  0  0  0  0  0  0  0  0  0
   -0.6450   -1.4911   -3.6047 H   0  0  0  0  0  0  0  0  0  0  0  0
    0.2332    0.0595   -3.6059 H   0  0  0  0  0  0  0  0  0  0  0  0
    0.2333   -1.9508   -1.2603 H   0  0  0  0  0  0  0  0  0  0  0  0
    0.2332   -0.1187    0.1323 H   0  0  0  0  0  0  0  0  0  0  0  0
  1  2  1  0
  1  4  1  0
  1  5  1  0
  1  6  1  0
  2  3  1  0
  2  7  1  0
  3  8  1  0
  9 10  1  0
  9 12  1  0
  9 13  1  0
  9 14  1  0
 10 11  2  3
 10 15  1  0
 11 16  1  0
M  RAD  1   2   2
M  END
>  <reaction>  (6) 
rmg_rxn_16497

>  <mol_properties>  (6) 
{"1": {"label": "*3", "atom_type": "Cs"}, "2": {"label": "*4", "atom_type": "S2s"}, "9": {"label": "*0", "atom_type": "Cd"}, "10": {"label": "*1", "atom_type": "N3d"}, "15": {"label": "*2", "atom_type": "H0"}}

>  <type>  (6) 
unop_2

>  <geom_source>  (6) 
Heuristics

$$$$

     RDKit          3D

 16 14  0  0  0  0  0  0  0  0999 V2000
    0.2856   -1.4746    1.5651 C   0  0  0  0  0  0  0  0  0  0  0  0
   -0.4248   -0.1651    1.2705 C   0  0  0  0  0  3  0  0  0  0  0  0
    0.5973    1.3134    1.5372 S   0  0  0  0  0  0  0  0  0  0  0  0
   -0.3693   -2.3207    1.3441 H   0  0  0  0  0  0  0  0  0  0  0  0
    0.5706   -1.5365    2.6169 H   0  0  0  0  0  0  0  0  0  0  0  0
    1.1909   -1.5709    0.9652 H   0  0  0  0  0  0  0  0  0  0  0  0
   -1.3408   -0.0726    1.8537 H   0  0  0  0  0  0  0  0  0  0  0  0
    0.7987    1.1340    2.8496 H   0  0  0  0  0  0  0  0  0  0  0  0
   -0.4248   -0.7608   -3.3748 C   0  0  0  0  0  0  0  0  0  0  0  0
   -0.4248   -0.7608   -1.8825 C   0  0  0  0  0  0  0  0  0  0  0  0
   -0.4248    0.3118   -1.2148 N   0  0  0  0  0  0  0  0  0  0  0  0
    0.4535   -1.2908   -3.7522 H   0  0  0  0  0  0  0  0  0  0  0  0
   -1.3031   -1.2908   -3.7522 H   0  0  0  0  0  0  0  0  0  0  0  0
   -0.4248    0.2598   -3.7534 H   0  0  0  0  0  0  0  0  0  0  0  0
   -0.4248   -1.7505   -1.4078 H   0  0  0  0  0  0  0  0  0  0  0  0
   -0.4248    0.0816   -0.0152 H   0  0  0  0  0  0  0  0  0  0  0  0
  1  2  1  0
  1  4  1  0
  1  5  1  0
  1  6  1  0
  2  3  1  0
  2  7  1  0
  3  8  1  0
  9 10  1  0
  9 12  1  0
  9 13  1  0
  9 14  1  0
 10 11  2  3
 10 15  1  0
 11 16  1  0
M  RAD  1   2   2
M  END
>  <reaction>  (7) 
rmg_rxn_16497

>  <mol_properties>  (7) 
{"1": {"label": "*3", "atom_type": "Cs"}, "2": {"label": "*4", "atom_type": "S2s"}, "9": {"label": "*0", "atom_type": "Cd"}, "10": {"label": "*1", "atom_type": "N3d"}, "15": {"label": "*2", "atom_type": "H0"}}

>  <type>  (7) 
unop_3

>  <geom_source>  (7) 
Heuristics

$$$$

     RDKit          3D

 16 14  0  0  0  0  0  0  0  0999 V2000
    1.1677    0.9610    2.1229 C   0  0  0  0  0  0  0  0  0  0  0  0
    0.4572   -0.1464    1.3645 C   0  0  0  0  0  3  0  0  0  0  0  0
   -1.3195    0.1420    1.1158 S   0  0  0  0  0  0  0  0  0  0  0  0
    2.2359    0.7448    2.1995 H   0  0  0  0  0  0  0  0  0  0  0  0
    0.7714    1.0578    3.1353 H   0  0  0  0  0  0  0  0  0  0  0  0
    1.0432    1.9203    1.6199 H   0  0  0  0  0  0  0  0  0  0  0  0
    0.5947   -1.1109    1.8530 H   0  0  0  0  0  0  0  0  0  0  0  0
   -1.6608    0.1644    2.4113 H   0  0  0  0  0  0  0  0  0  0  0  0
    0.4572   -0.7422   -3.2808 C   0  0  0  0  0  0  0  0  0  0  0  0
    0.4572   -0.7422   -1.7885 C   0  0  0  0  0  0  0  0  0  0  0  0
    0.4572    0.3304   -1.1208 N   0  0  0  0  0  0  0  0  0  0  0  0
    1.3355   -1.2722   -3.6582 H   0  0  0  0  0  0  0  0  0  0  0  0
   -0.4210   -1.2722   -3.6582 H   0  0  0  0  0  0  0  0  0  0  0  0
    0.4572    0.2784   -3.6594 H   0  0  0  0  0  0  0  0  0  0  0  0
    0.4572   -1.7319   -1.3138 H   0  0  0  0  0  0  0  0  0  0  0  0
    0.4572    0.1003    0.0788 H   0  0  0  0  0  0  0  0  0  0  0  0
  1  2  1  0
  1  4  1  0
  1  5  1  0
  1  6  1  0
  2  3  1  0
  2  7  1  0
  3  8  1  0
  9 10  1  0
  9 12  1  0
  9 13  1  0
  9 14  1  0
 10 11  2  3
 10 15  1  0
 11 16  1  0
M  RAD  1   2   2
M  END
>  <reaction>  (8) 
rmg_rxn_16497

>  <mol_properties>  (8) 
{"1": {"label": "*3", "atom_type": "Cs"}, "2": {"label": "*4", "atom_type": "S2s"}, "9": {"label": "*0", "atom_type": "Cd"}, "10": {"label": "*1", "atom_type": "N3d"}, "15": {"label": "*2", "atom_type": "H0"}}

>  <type>  (8) 
unop_4

>  <geom_source>  (8) 
Heuristics

$$$$

     RDKit          3D

 16 14  0  0  0  0  0  0  0  0999 V2000
   -1.5011   -0.4804    1.4166 C   0  0  0  0  0  0  0  0  0  0  0  0
   -0.2706    0.3183    1.0239 C   0  0  0  0  0  3  0  0  0  0  0  0
    1.1946   -0.0212    2.0436 S   0  0  0  0  0  0  0  0  0  0  0  0
   -2.3296   -0.2602    0.7392 H   0  0  0  0  0  0  0  0  0  0  0  0
   -1.8212   -0.2321    2.4301 H   0  0  0  0  0  0  0  0  0  0  0  0
   -1.2990   -1.5512    1.3806 H   0  0  0  0  0  0  0  0  0  0  0  0
   -0.4729    1.3890    1.0397 H   0  0  0  0  0  0  0  0  0  0  0  0
    0.6775    0.3909    3.2089 H   0  0  0  0  0  0  0  0  0  0  0  0
   -0.2706   -0.2775   -3.6214 C   0  0  0  0  0  0  0  0  0  0  0  0
   -0.2706   -0.2775   -2.1291 C   0  0  0  0  0  0  0  0  0  0  0  0
   -0.2706    0.7952   -1.4614 N   0  0  0  0  0  0  0  0  0  0  0  0
    0.6077   -0.8075   -3.9988 H   0  0  0  0  0  0  0  0  0  0  0  0
   -1.1489   -0.8075   -3.9988 H   0  0  0  0  0  0  0  0  0  0  0  0
   -0.2706    0.7432   -4.0000 H   0  0  0  0  0  0  0  0  0  0  0  0
   -0.2706   -1.2672   -1.6544 H   0  0  0  0  0  0  0  0  0  0  0  0
   -0.2706    0.5650   -0.2618 H   0  0  0  0  0  0  0  0  0  0  0  0
  1  2  1  0
  1  4  1  0
  1  5  1  0
  1  6  1  0
  2  3  1  0
  2  7  1  0
  3  8  1  0
  9 10  1  0
  9 12  1  0
  9 13  1  0
  9 14  1  0
 10 11  2  3
 10 15  1  0
 11 16  1  0
M  RAD  1   2   2
M  END
>  <reaction>  (9) 
rmg_rxn_16497

>  <mol_properties>  (9) 
{"1": {"label": "*3", "atom_type": "Cs"}, "2": {"label": "*4", "atom_type": "S2s"}, "9": {"label": "*0", "atom_type": "Cd"}, "10": {"label": "*1", "atom_type": "N3d"}, "15": {"label": "*2", "atom_type": "H0"}}

>  <type>  (9) 
unop_5

>  <geom_source>  (9) 
Heuristics

$$$$

     RDKit          3D

 16 14  0  0  0  0  0  0  0  0999 V2000
    0.4566    1.5366    1.9957 C   0  0  0  0  0  0  0  0  0  0  0  0
    0.4566    0.2422    1.2014 C   0  0  0  0  0  3  0  0  0  0  0  0
   -1.0170   -0.7894    1.4582 S   0  0  0  0  0  0  0  0  0  0  0  0
    1.3469    2.1257    1.7628 H   0  0  0  0  0  0  0  0  0  0  0  0
    0.4576    1.3367    3.0687 H   0  0  0  0  0  0  0  0  0  0  0  0
   -0.4251    2.1353    1.7660 H   0  0  0  0  0  0  0  0  0  0  0  0
    1.3459   -0.3512    1.4131 H   0  0  0  0  0  0  0  0  0  0  0  0
   -0.8367   -1.0027    2.7685 H   0  0  0  0  0  0  0  0  0  0  0  0
    0.4566   -0.3535   -3.4439 C   0  0  0  0  0  0  0  0  0  0  0  0
    0.4566   -0.3535   -1.9515 C   0  0  0  0  0  0  0  0  0  0  0  0
    0.4566    0.7191   -1.2839 N   0  0  0  0  0  0  0  0  0  0  0  0
    1.3349   -0.8835   -3.8213 H   0  0  0  0  0  0  0  0  0  0  0  0
   -0.4216   -0.8835   -3.8213 H   0  0  0  0  0  0  0  0  0  0  0  0
    0.4566    0.6671   -3.8225 H   0  0  0  0  0  0  0  0  0  0  0  0
    0.4566   -1.3432   -1.4769 H   0  0  0  0  0  0  0  0  0  0  0  0
    0.4566    0.4889   -0.0843 H   0  0  0  0  0  0  0  0  0  0  0  0
  1  2  1  0
  1  4  1  0
  1  5  1  0
  1  6  1  0
  2  3  1  0
  2  7  1  0
  3  8  1  0
  9 10  1  0
  9 12  1  0
  9 13  1  0
  9 14  1  0
 10 11  2  3
 10 15  1  0
 11 16  1  0
M  RAD  1   2   2
M  END
>  <reaction>  (10) 
rmg_rxn_16497

>  <mol_properties>  (10) 
{"1": {"label": "*3", "atom_type": "Cs"}, "2": {"label": "*4", "atom_type": "S2s"}, "9": {"label": "*0", "atom_type": "Cd"}, "10": {"label": "*1", "atom_type": "N3d"}, "15": {"label": "*2", "atom_type": "H0"}}

>  <type>  (10) 
unop_6

>  <geom_source>  (10) 
Heuristics

$$$$

     RDKit          3D

 16 14  0  0  0  0  0  0  0  0999 V2000
   -1.5974    0.2763    1.5340 C   0  0  0  0  0  0  0  0  0  0  0  0
   -0.1765    0.3773    1.0074 C   0  0  0  0  0  3  0  0  0  0  0  0
    1.0569   -0.4911    2.0206 S   0  0  0  0  0  0  0  0  0  0  0  0
   -2.2905    0.7821    0.8575 H   0  0  0  0  0  0  0  0  0  0  0  0
   -1.6845    0.7450    2.5158 H   0  0  0  0  0  0  0  0  0  0  0  0
   -1.9047   -0.7653    1.6301 H   0  0  0  0  0  0  0  0  0  0  0  0
    0.1288    1.4170    0.8913 H   0  0  0  0  0  0  0  0  0  0  0  0
    0.8814    0.2280    3.1374 H   0  0  0  0  0  0  0  0  0  0  0  0
   -0.1765   -0.2184   -3.6379 C   0  0  0  0  0  0  0  0  0  0  0  0
   -0.1765   -0.2184   -2.1455 C   0  0  0  0  0  0  0  0  0  0  0  0
   -0.1765    0.8542   -1.4779 N   0  0  0  0  0  0  0  0  0  0  0  0
    0.7018   -0.7484   -4.0153 H   0  0  0  0  0  0  0  0  0  0  0  0
   -1.0548   -0.7484   -4.0153 H   0  0  0  0  0  0  0  0  0  0  0  0
   -0.1765    0.8022   -4.0165 H   0  0  0  0  0  0  0  0  0  0  0  0
   -0.1765   -1.2081   -1.6709 H   0  0  0  0  0  0  0  0  0  0  0  0
   -0.1765    0.6240   -0.2783 H   0  0  0  0  0  0  0  0  0  0  0  0
  1  2  1  0
  1  4  1  0
  1  5  1  0
  1  6  1  0
  2  3  1  0
  2  7  1  0
  3  8  1  0
  9 10  1  0
  9 12  1  0
  9 13  1  0
  9 14  1  0
 10 11  2  3
 10 15  1  0
 11 16  1  0
M  RAD  1   2   2
M  END
>  <reaction>  (11) 
rmg_rxn_16497

>  <mol_properties>  (11) 
{"1": {"label": "*3", "atom_type": "Cs"}, "2": {"label": "*4", "atom_type": "S2s"}, "9": {"label": "*0", "atom_type": "Cd"}, "10": {"label": "*1", "atom_type": "N3d"}, "15": {"label": "*2", "atom_type": "H0"}}

>  <type>  (11) 
unop_7

>  <geom_source>  (11) 
Heuristics

$$$$

     RDKit          3D

 16 14  0  0  0  0  0  0  0  0999 V2000
   -1.2895    1.0335    1.6782 C   0  0  0  0  0  0  0  0  0  0  0  0
   -0.0590    0.4369    1.0178 C   0  0  0  0  0  3  0  0  0  0  0  0
    0.6837   -0.9440    1.9362 S   0  0  0  0  0  0  0  0  0  0  0  0
   -1.7086    1.8271    1.0550 H   0  0  0  0  0  0  0  0  0  0  0  0
   -1.0412    1.4653    2.6494 H   0  0  0  0  0  0  0  0  0  0  0  0
   -2.0558    0.2738    1.8339 H   0  0  0  0  0  0  0  0  0  0  0  0
    0.7027    1.1962    0.8424 H   0  0  0  0  0  0  0  0  0  0  0  0
    0.9908   -0.2534    3.0425 H   0  0  0  0  0  0  0  0  0  0  0  0
   -0.0590   -0.1589   -3.6275 C   0  0  0  0  0  0  0  0  0  0  0  0
   -0.0590   -0.1589   -2.1352 C   0  0  0  0  0  0  0  0  0  0  0  0
   -0.0590    0.9137   -1.4675 N   0  0  0  0  0  0  0  0  0  0  0  0
    0.8192   -0.6889   -4.0049 H   0  0  0  0  0  0  0  0  0  0  0  0
   -0.9373   -0.6889   -4.0049 H   0  0  0  0  0  0  0  0  0  0  0  0
   -0.0590    0.8617   -4.0061 H   0  0  0  0  0  0  0  0  0  0  0  0
   -0.0590   -1.1486   -1.6605 H   0  0  0  0  0  0  0  0  0  0  0  0
   -0.0590    0.6835   -0.2679 H   0  0  0  0  0  0  0  0  0  0  0  0
  1  2  1  0
  1  4  1  0
  1  5  1  0
  1  6  1  0
  2  3  1  0
  2  7  1  0
  3  8  1  0
  9 10  1  0
  9 12  1  0
  9 13  1  0
  9 14  1  0
 10 11  2  3
 10 15  1  0
 11 16  1  0
M  RAD  1   2   2
M  END
>  <reaction>  (12) 
rmg_rxn_16497

>  <mol_properties>  (12) 
{"1": {"label": "*3", "atom_type": "Cs"}, "2": {"label": "*4", "atom_type": "S2s"}, "9": {"label": "*0", "atom_type": "Cd"}, "10": {"label": "*1", "atom_type": "N3d"}, "15": {"label": "*2", "atom_type": "H0"}}

>  <type>  (12) 
unop_8

>  <geom_source>  (12) 
Heuristics

$$$$

     RDKit          3D

 16 14  0  0  0  0  0  0  0  0999 V2000
    1.3935   -0.5203    1.9314 C   0  0  0  0  0  0  0  0  0  0  0  0
   -0.0274   -0.4192    1.4048 C   0  0  0  0  0  3  0  0  0  0  0  0
   -0.6028    1.2832    1.1355 S   0  0  0  0  0  0  0  0  0  0  0  0
    1.6891   -1.5675    2.0297 H   0  0  0  0  0  0  0  0  0  0  0  0
    1.4802   -0.0534    2.9141 H   0  0  0  0  0  0  0  0  0  0  0  0
    2.0945   -0.0237    1.2601 H   0  0  0  0  0  0  0  0  0  0  0  0
   -0.7298   -0.9308    2.0626 H   0  0  0  0  0  0  0  0  0  0  0  0
   -0.5079    1.6875    2.4093 H   0  0  0  0  0  0  0  0  0  0  0  0
   -0.0274   -1.0150   -3.2405 C   0  0  0  0  0  0  0  0  0  0  0  0
   -0.0274   -1.0150   -1.7481 C   0  0  0  0  0  0  0  0  0  0  0  0
   -0.0274    0.0576   -1.0805 N   0  0  0  0  0  0  0  0  0  0  0  0
    0.8509   -1.5450   -3.6179 H   0  0  0  0  0  0  0  0  0  0  0  0
   -0.9056   -1.5450   -3.6179 H   0  0  0  0  0  0  0  0  0  0  0  0
   -0.0274    0.0056   -3.6191 H   0  0  0  0  0  0  0  0  0  0  0  0
   -0.0274   -2.0047   -1.2735 H   0  0  0  0  0  0  0  0  0  0  0  0
   -0.0274   -0.1726    0.1191 H   0  0  0  0  0  0  0  0  0  0  0  0
  1  2  1  0
  1  4  1  0
  1  5  1  0
  1  6  1  0
  2  3  1  0
  2  7  1  0
  3  8  1  0
  9 10  1  0
  9 12  1  0
  9 13  1  0
  9 14  1  0
 10 11  2  3
 10 15  1  0
 11 16  1  0
M  RAD  1   2   2
M  END
>  <reaction>  (13) 
rmg_rxn_16497

>  <mol_properties>  (13) 
{"1": {"label": "*3", "atom_type": "Cs"}, "2": {"label": "*4", "atom_type": "S2s"}, "9": {"label": "*0", "atom_type": "Cd"}, "10": {"label": "*1", "atom_type": "N3d"}, "15": {"label": "*2", "atom_type": "H0"}}

>  <type>  (13) 
unop_9

>  <geom_source>  (13) 
Heuristics

$$$$

     RDKit          3D

 16 14  0  0  0  0  0  0  0  0999 V2000
    2.0039   -1.5198   -0.3429 C   0  0  0  0  0  0  0  0  0  0  0  0
    1.2154   -0.5240    0.4632 C   0  0  0  0  0  3  0  0  0  0  0  0
    1.4166    1.1797   -0.0150 S   0  0  0  0  0  0  0  0  0  0  0  0
    1.7514   -1.4480   -1.4003 H   0  0  0  0  0  0  0  0  0  0  0  0
    1.7715   -2.5258   -0.0004 H   0  0  0  0  0  0  0  0  0  0  0  0
    3.0787   -1.3585   -0.2352 H   0  0  0  0  0  0  0  0  0  0  0  0
    1.3993   -0.5815    1.5331 H   0  0  0  0  0  0  0  0  0  0  0  0
    1.3024    0.9731   -1.3292 H   0  0  0  0  0  0  0  0  0  0  0  0
   -3.3580    0.2166   -0.1627 C   0  0  0  0  0  0  0  0  0  0  0  0
   -1.8773    0.1210    0.0326 C   0  0  0  0  0  0  0  0  0  0  0  0
   -1.2774   -0.9564    0.1649 N   0  0  0  0  0  0  0  0  0  0  0  0
   -3.8026   -0.7746   -0.1747 H   0  0  0  0  0  0  0  0  0  0  0  0
   -3.7898    0.8040    0.6461 H   0  0  0  0  0  0  0  0  0  0  0  0
   -3.5673    0.7263   -1.1020 H   0  0  0  0  0  0  0  0  0  0  0  0
   -1.3664    1.0992    0.0477 H   0  0  0  0  0  0  0  0  0  0  0  0
   -0.0628   -0.8150    0.3184 H   0  0  0  0  0  0  0  0  0  0  0  0
  1  2  1  0
  1  4  1  0
  1  5  1  0
  1  6  1  0
  2  3  1  0
  2  7  1  0
  3  8  1  0
  9 10  1  0
  9 12  1  0
  9 13  1  0
  9 14  1  0
 10 11  2  3
 10 15  1  0
 11 16  1  0
M  RAD  1   2   2
M  END
>  <reaction>  (14) 
rmg_rxn_16497

>  <mol_properties>  (14) 
{"1": {"label": "*3", "atom_type": "Cs"}, "2": {"label": "*4", "atom_type": "S2s"}, "9": {"label": "*0", "atom_type": "Cd"}, "10": {"label": "*1", "atom_type": "N3d"}, "15": {"label": "*2", "atom_type": "H0"}}

>  <type>  (14) 
unop_10

>  <geom_source>  (14) 
Heuristics

$$$$

     RDKit          3D

 16 14  0  0  0  0  0  0  0  0999 V2000
   -1.0875   -1.0834    1.3700 C   0  0  0  0  0  0  0  0  0  0  0  0
   -0.3771    0.2261    1.0754 C   0  0  0  0  0  3  0  0  0  0  0  0
    1.1887    0.4423    1.9718 S   0  0  0  0  0  0  0  0  0  0  0  0
   -1.9958   -1.1670    0.7686 H   0  0  0  0  0  0  0  0  0  0  0  0
   -1.3743   -1.1445    2.4214 H   0  0  0  0  0  0  0  0  0  0  0  0
   -0.4443   -1.9350    1.1469 H   0  0  0  0  0  0  0  0  0  0  0  0
   -1.0226    1.0802    1.2786 H   0  0  0  0  0  0  0  0  0  0  0  0
    0.6705    0.4174    3.2071 H   0  0  0  0  0  0  0  0  0  0  0  0
   -0.3771   -0.3697   -3.5700 C   0  0  0  0  0  0  0  0  0  0  0  0
   -0.3771   -0.3697   -2.0776 C   0  0  0  0  0  0  0  0  0  0  0  0
   -0.3771    0.7029   -1.4099 N   0  0  0  0  0  0  0  0  0  0  0  0
    0.5012   -0.8997   -3.9474 H   0  0  0  0  0  0  0  0  0  0  0  0
   -1.2553   -0.8997   -3.9474 H   0  0  0  0  0  0  0  0  0  0  0  0
   -0.3771    0.6509   -3.9485 H   0  0  0  0  0  0  0  0  0  0  0  0
   -0.3771   -1.3594   -1.6030 H   0  0  0  0  0  0  0  0  0  0  0  0
   -0.3771    0.4727   -0.2103 H   0  0  0  0  0  0  0  0  0  0  0  0
  1  2  1  0
  1  4  1  0
  1  5  1  0
  1  6  1  0
  2  3  1  0
  2  7  1  0
  3  8  1  0
  9 10  1  0
  9 12  1  0
  9 13  1  0
  9 14  1  0
 10 11  2  3
 10 15  1  0
 11 16  1  0
M  RAD  1   2   2
M  END
>  <reaction>  (15) 
rmg_rxn_16497

>  <mol_properties>  (15) 
{"1": {"label": "*3", "atom_type": "Cs"}, "2": {"label": "*4", "atom_type": "S2s"}, "9": {"label": "*0", "atom_type": "Cd"}, "10": {"label": "*1", "atom_type": "N3d"}, "15": {"label": "*2", "atom_type": "H0"}}

>  <type>  (15) 
unop_11

>  <geom_source>  (15) 
Heuristics

$$$$

     RDKit          3D

 16 14  0  0  0  0  0  0  0  0999 V2000
    0.9659   -1.1426    1.7469 C   0  0  0  0  0  0  0  0  0  0  0  0
   -0.2646   -0.3439    1.3543 C   0  0  0  0  0  3  0  0  0  0  0  0
   -0.0025    1.4536    1.3079 S   0  0  0  0  0  0  0  0  0  0  0  0
    0.7509   -2.2133    1.7135 H   0  0  0  0  0  0  0  0  0  0  0  0
    1.2847   -0.8958    2.7612 H   0  0  0  0  0  0  0  0  0  0  0  0
    1.7973   -0.9347    1.0730 H   0  0  0  0  0  0  0  0  0  0  0  0
   -1.1045   -0.5626    2.0133 H   0  0  0  0  0  0  0  0  0  0  0  0
    0.3032    1.6041    2.6036 H   0  0  0  0  0  0  0  0  0  0  0  0
   -0.2646   -0.9396   -3.2911 C   0  0  0  0  0  0  0  0  0  0  0  0
   -0.2646   -0.9396   -1.7987 C   0  0  0  0  0  0  0  0  0  0  0  0
   -0.2646    0.1330   -1.1310 N   0  0  0  0  0  0  0  0  0  0  0  0
    0.6136   -1.4696   -3.6685 H   0  0  0  0  0  0  0  0  0  0  0  0
   -1.1429   -1.4696   -3.6685 H   0  0  0  0  0  0  0  0  0  0  0  0
   -0.2646    0.0810   -3.6697 H   0  0  0  0  0  0  0  0  0  0  0  0
   -0.2646   -1.9293   -1.3241 H   0  0  0  0  0  0  0  0  0  0  0  0
   -0.2646   -0.0972    0.0685 H   0  0  0  0  0  0  0  0  0  0  0  0
  1  2  1  0
  1  4  1  0
  1  5  1  0
  1  6  1  0
  2  3  1  0
  2  7  1  0
  3  8  1  0
  9 10  1  0
  9 12  1  0
  9 13  1  0
  9 14  1  0
 10 11  2  3
 10 15  1  0
 11 16  1  0
M  RAD  1   2   2
M  END
>  <reaction>  (16) 
rmg_rxn_16497

>  <mol_properties>  (16) 
{"1": {"label": "*3", "atom_type": "Cs"}, "2": {"label": "*4", "atom_type": "S2s"}, "9": {"label": "*0", "atom_type": "Cd"}, "10": {"label": "*1", "atom_type": "N3d"}, "15": {"label": "*2", "atom_type": "H0"}}

>  <type>  (16) 
unop_12

>  <geom_source>  (16) 
Heuristics

$$$$

     RDKit          3D

 16 14  0  0  0  0  0  0  0  0999 V2000
   -0.5499    1.5629    1.8226 C   0  0  0  0  0  0  0  0  0  0  0  0
    0.1605    0.4555    1.0643 C   0  0  0  0  0  3  0  0  0  0  0  0
   -0.0564   -1.1986    1.7846 S   0  0  0  0  0  0  0  0  0  0  0  0
   -0.4139    2.5202    1.3138 H   0  0  0  0  0  0  0  0  0  0  0  0
   -0.1523    1.6610    2.8344 H   0  0  0  0  0  0  0  0  0  0  0  0
   -1.6184    1.3599    1.8995 H   0  0  0  0  0  0  0  0  0  0  0  0
    1.2260    0.6631    0.9680 H   0  0  0  0  0  0  0  0  0  0  0  0
    0.5289   -0.9385    2.9614 H   0  0  0  0  0  0  0  0  0  0  0  0
    0.1605   -0.1403   -3.5811 C   0  0  0  0  0  0  0  0  0  0  0  0
    0.1605   -0.1403   -2.0887 C   0  0  0  0  0  0  0  0  0  0  0  0
    0.1605    0.9323   -1.4210 N   0  0  0  0  0  0  0  0  0  0  0  0
    1.0388   -0.6703   -3.9585 H   0  0  0  0  0  0  0  0  0  0  0  0
   -0.7178   -0.6703   -3.9585 H   0  0  0  0  0  0  0  0  0  0  0  0
    0.1605    0.8803   -3.9597 H   0  0  0  0  0  0  0  0  0  0  0  0
    0.1605   -1.1300   -1.6141 H   0  0  0  0  0  0  0  0  0  0  0  0
    0.1605    0.7022   -0.2215 H   0  0  0  0  0  0  0  0  0  0  0  0
  1  2  1  0
  1  4  1  0
  1  5  1  0
  1  6  1  0
  2  3  1  0
  2  7  1  0
  3  8  1  0
  9 10  1  0
  9 12  1  0
  9 13  1  0
  9 14  1  0
 10 11  2  3
 10 15  1  0
 11 16  1  0
M  RAD  1   2   2
M  END
>  <reaction>  (17) 
rmg_rxn_16497

>  <mol_properties>  (17) 
{"1": {"label": "*3", "atom_type": "Cs"}, "2": {"label": "*4", "atom_type": "S2s"}, "9": {"label": "*0", "atom_type": "Cd"}, "10": {"label": "*1", "atom_type": "N3d"}, "15": {"label": "*2", "atom_type": "H0"}}

>  <type>  (17) 
unop_13

>  <geom_source>  (17) 
Heuristics

$$$$

     RDKit          3D

 16 14  0  0  0  0  0  0  0  0999 V2000
   -0.4566   -1.4408    1.4244 C   0  0  0  0  0  0  0  0  0  0  0  0
   -0.4566    0.0556    1.1656 C   0  0  0  0  0  3  0  0  0  0  0  0
    1.0170    0.9189    1.7860 S   0  0  0  0  0  0  0  0  0  0  0  0
   -1.3469   -1.9019    0.9901 H   0  0  0  0  0  0  0  0  0  0  0  0
   -0.4576   -1.6522    2.4952 H   0  0  0  0  0  0  0  0  0  0  0  0
    0.4251   -1.9120    0.9894 H   0  0  0  0  0  0  0  0  0  0  0  0
   -1.3459    0.5286    1.5819 H   0  0  0  0  0  0  0  0  0  0  0  0
    0.8367    0.6321    3.0822 H   0  0  0  0  0  0  0  0  0  0  0  0
   -0.4566   -0.5402   -3.4797 C   0  0  0  0  0  0  0  0  0  0  0  0
   -0.4566   -0.5402   -1.9873 C   0  0  0  0  0  0  0  0  0  0  0  0
   -0.4566    0.5325   -1.3197 N   0  0  0  0  0  0  0  0  0  0  0  0
    0.4216   -1.0702   -3.8571 H   0  0  0  0  0  0  0  0  0  0  0  0
   -1.3349   -1.0702   -3.8571 H   0  0  0  0  0  0  0  0  0  0  0  0
   -0.4566    0.4805   -3.8583 H   0  0  0  0  0  0  0  0  0  0  0  0
   -0.4566   -1.5299   -1.5127 H   0  0  0  0  0  0  0  0  0  0  0  0
   -0.4566    0.3023   -0.1201 H   0  0  0  0  0  0  0  0  0  0  0  0
  1  2  1  0
  1  4  1  0
  1  5  1  0
  1  6  1  0
  2  3  1  0
  2  7  1  0
  3  8  1  0
  9 10  1  0
  9 12  1  0
  9 13  1  0
  9 14  1  0
 10 11  2  3
 10 15  1  0
 11 16  1  0
M  RAD  1   2   2
M  END
>  <reaction>  (18) 
rmg_rxn_16497

>  <mol_properties>  (18) 
{"1": {"label": "*3", "atom_type": "Cs"}, "2": {"label": "*4", "atom_type": "S2s"}, "9": {"label": "*0", "atom_type": "Cd"}, "10": {"label": "*1", "atom_type": "N3d"}, "15": {"label": "*2", "atom_type": "H0"}}

>  <type>  (18) 
unop_14

>  <geom_source>  (18) 
Heuristics

$$$$

     RDKit          3D

 16 14  0  0  0  0  0  0  0  0999 V2000
    0.2856   -1.4746    1.5651 C   0  0  0  0  0  0  0  0  0  0  0  0
   -0.4248   -0.1651    1.2705 C   0  0  0  0  0  3  0  0  0  0  0  0
    0.5973    1.3134    1.5372 S   0  0  0  0  0  0  0  0  0  0  0  0
   -0.3693   -2.3207    1.3441 H   0  0  0  0  0  0  0  0  0  0  0  0
    0.5706   -1.5365    2.6169 H   0  0  0  0  0  0  0  0  0  0  0  0
    1.1909   -1.5709    0.9652 H   0  0  0  0  0  0  0  0  0  0  0  0
   -1.3408   -0.0726    1.8537 H   0  0  0  0  0  0  0  0  0  0  0  0
    0.7987    1.1340    2.8495 H   0  0  0  0  0  0  0  0  0  0  0  0
   -0.4248   -0.7608   -3.3748 C   0  0  0  0  0  0  0  0  0  0  0  0
   -0.4248   -0.7608   -1.8825 C   0  0  0  0  0  0  0  0  0  0  0  0
   -0.4248    0.3118   -1.2148 N   0  0  0  0  0  0  0  0  0  0  0  0
    0.4535   -1.2908   -3.7522 H   0  0  0  0  0  0  0  0  0  0  0  0
   -1.3031   -1.2908   -3.7522 H   0  0  0  0  0  0  0  0  0  0  0  0
   -0.4248    0.2598   -3.7534 H   0  0  0  0  0  0  0  0  0  0  0  0
   -0.4248   -1.7505   -1.4079 H   0  0  0  0  0  0  0  0  0  0  0  0
   -0.4248    0.0816   -0.0152 H   0  0  0  0  0  0  0  0  0  0  0  0
  1  2  1  0
  1  4  1  0
  1  5  1  0
  1  6  1  0
  2  3  1  0
  2  7  1  0
  3  8  1  0
  9 10  1  0
  9 12  1  0
  9 13  1  0
  9 14  1  0
 10 11  2  3
 10 15  1  0
 11 16  1  0
M  RAD  1   2   2
M  END
>  <reaction>  (19) 
rmg_rxn_16497

>  <mol_properties>  (19) 
{"1": {"label": "*3", "atom_type": "Cs"}, "2": {"label": "*4", "atom_type": "S2s"}, "9": {"label": "*0", "atom_type": "Cd"}, "10": {"label": "*1", "atom_type": "N3d"}, "15": {"label": "*2", "atom_type": "H0"}}

>  <type>  (19) 
unop_15

>  <geom_source>  (19) 
gaussian_log

$$$$
