
     RDKit          3D

  9  8  0  0  0  0  0  0  0  0999 V2000
   -0.8818   -0.3578    0.1297 C   0  0  0  0  0  0  0  0  0  0  0  0
    0.6153   -0.3021   -0.1188 C   0  0  0  0  0  0  0  0  0  0  0  0
    1.5354   -1.7170    0.5545 S   0  0  0  0  0  0  0  0  0  0  0  0
   -1.1018   -0.3317    1.1984 H   0  0  0  0  0  0  0  0  0  0  0  0
   -1.3114   -1.2723   -0.2799 H   0  0  0  0  0  0  0  0  0  0  0  0
   -1.3767    0.4976   -0.3363 H   0  0  0  0  0  0  0  0  0  0  0  0
    1.0467    0.6194    0.2718 H   0  0  0  0  0  0  0  0  0  0  0  0
    0.8295   -0.3275   -1.1882 H   0  0  0  0  0  0  0  0  0  0  0  0
    1.2306   -1.5077    1.8423 H   0  0  0  0  0  0  0  0  0  0  0  0
  1  2  1  0
  1  4  1  0
  1  5  1  0
  1  6  1  0
  2  3  1  0
  2  7  1  0
  2  8  1  0
  3  9  1  0
M  END
>  <reaction>  (1) 
rmg_rxn_16496

>  <mol_properties>  (1) 
{"2": {"label": "donator", "atom_type": "S2s"}, "8": {"label": "d_hydrogen", "atom_type": "H0"}}

>  <type>  (1) 
r1h

$$$$

     RDKit          3D

  7  6  0  0  0  0  0  0  0  0999 V2000
   -0.6441   -0.1356    0.0624 C   0  0  0  0  0  0  0  0  0  0  0  0
    0.8523    0.0148   -0.0333 C   0  0  0  0  0  0  0  0  0  0  0  0
    1.6700   -0.6077    0.6603 N   0  0  0  0  0  2  0  0  0  0  0  0
   -1.0940    0.8275    0.3091 H   0  0  0  0  0  0  0  0  0  0  0  0
   -0.9104   -0.8656    0.8237 H   0  0  0  0  0  0  0  0  0  0  0  0
   -1.0427   -0.4545   -0.9022 H   0  0  0  0  0  0  0  0  0  0  0  0
    1.2362    0.7308   -0.7748 H   0  0  0  0  0  0  0  0  0  0  0  0
  1  2  1  0
  1  4  1  0
  1  5  1  0
  1  6  1  0
  2  3  2  0
  2  7  1  0
M  RAD  1   3   2
M  END
>  <reaction>  (2) 
rmg_rxn_16496

>  <mol_properties>  (2) 
{"2": {"label": "acceptor", "atom_type": "N3d"}}

>  <type>  (2) 
r2

$$$$

     RDKit          3D

  8  7  0  0  0  0  0  0  0  0999 V2000
    0.9548    0.1194   -0.0790 C   0  0  0  0  0  0  0  0  0  0  0  0
   -0.4838   -0.2649    0.0193 C   0  0  0  0  0  0  0  0  0  0  0  0
   -0.8933   -1.1081    0.8664 N   0  0  0  0  0  0  0  0  0  0  0  0
    1.3360   -0.0983   -1.0800 H   0  0  0  0  0  0  0  0  0  0  0  0
    1.0698    1.1948    0.0786 H   0  0  0  0  0  0  0  0  0  0  0  0
    1.5426   -0.4219    0.6602 H   0  0  0  0  0  0  0  0  0  0  0  0
   -1.1575    0.2324   -0.6905 H   0  0  0  0  0  0  0  0  0  0  0  0
   -1.8989   -1.2455    0.7886 H   0  0  0  0  0  0  0  0  0  0  0  0
  1  2  1  0
  1  4  1  0
  1  5  1  0
  1  6  1  0
  2  3  2  3
  2  7  1  0
  3  8  1  0
M  END
>  <reaction>  (3) 
rmg_rxn_16496

>  <mol_properties>  (3) 
{"2": {"label": "acceptor", "atom_type": "N3d"}, "7": {"label": "a_hydrogen", "atom_type": "H0"}}

>  <type>  (3) 
r2h

$$$$

     RDKit          3D

 16 14  0  0  0  0  0  0  0  0999 V2000
    2.2775   -0.4682    0.4215 C   0  0  0  0  0  0  0  0  0  0  0  0
    2.1428    0.8433   -0.2935 C   0  0  0  0  0  0  0  0  0  0  0  0
    1.2736    1.2199   -1.1076 N   0  0  0  0  0  0  0  0  0  0  0  0
    1.5047   -1.1676    0.1086 H   0  0  0  0  0  0  0  0  0  0  0  0
    2.2167   -0.2972    1.4984 H   0  0  0  0  0  0  0  0  0  0  0  0
    3.2636   -0.8885    0.2156 H   0  0  0  0  0  0  0  0  0  0  0  0
    2.9207    1.5881   -0.0741 H   0  0  0  0  0  0  0  0  0  0  0  0
   -2.1992    1.1121    0.0587 C   0  0  0  0  0  0  0  0  0  0  0  0
   -1.5326   -0.2519    0.1286 C   0  0  0  0  0  0  0  0  0  0  0  0
   -0.7348   -0.7651   -1.4176 S   0  0  0  0  0  1  0  0  0  0  0  0
   -2.6780    1.3534    1.0112 H   0  0  0  0  0  0  0  0  0  0  0  0
   -2.9575    1.1318   -0.7246 H   0  0  0  0  0  0  0  0  0  0  0  0
   -1.4679    1.8905   -0.1629 H   0  0  0  0  0  0  0  0  0  0  0  0
   -2.2656   -1.0312    0.3471 H   0  0  0  0  0  0  0  0  0  0  0  0
   -0.7950   -0.2832    0.9334 H   0  0  0  0  0  0  0  0  0  0  0  0
    0.3181    0.3473   -1.3890 H   0  0  0  0  0  0  0  0  0  0  0  0
  1  2  1  0
  1  4  1  0
  1  5  1  0
  1  6  1  0
  2  3  2  3
  2  7  1  0
  3 16  1  0
  8  9  1  0
  8 11  1  0
  8 12  1  0
  8 13  1  0
  9 10  1  0
  9 14  1  0
  9 15  1  0
M  RAD  1  10   2
M  END
>  <reaction>  (4) 
rmg_rxn_16496

>  <mol_properties>  (4) 
{"1": {"label": "*0", "atom_type": "Cd"}, "2": {"label": "*1", "atom_type": "N3d"}, "8": {"label": "*4", "atom_type": "Cs"}, "9": {"label": "*3", "atom_type": "S2s"}, "15": {"label": "*2", "atom_type": "H0"}}

>  <type>  (4) 
ts

$$$$

     RDKit          3D

 16 14  0  0  0  0  0  0  0  0999 V2000
    2.8803   -0.5594   -0.1998 C   0  0  0  0  0  0  0  0  0  0  0  0
    2.2768    0.7728    0.0990 C   0  0  0  0  0  0  0  0  0  0  0  0
    1.0802    1.0808    0.2288 N   0  0  0  0  0  0  0  0  0  0  0  0
    2.1071   -1.3173   -0.3009 H   0  0  0  0  0  0  0  0  0  0  0  0
    3.5632   -0.8360    0.6020 H   0  0  0  0  0  0  0  0  0  0  0  0
    3.4555   -0.4970   -1.1222 H   0  0  0  0  0  0  0  0  0  0  0  0
    2.9981    1.5849    0.2185 H   0  0  0  0  0  0  0  0  0  0  0  0
   -2.3755    1.1300   -0.4559 C   0  0  0  0  0  0  0  0  0  0  0  0
   -2.1165   -0.0298    0.4863 C   0  0  0  0  0  0  0  0  0  0  0  0
   -0.7296   -1.0585   -0.0564 S   0  0  0  0  0  1  0  0  0  0  0  0
   -3.2441    1.6931   -0.1194 H   0  0  0  0  0  0  0  0  0  0  0  0
   -2.5636    0.7660   -1.4639 H   0  0  0  0  0  0  0  0  0  0  0  0
   -1.5138    1.7937   -0.4800 H   0  0  0  0  0  0  0  0  0  0  0  0
   -2.9710   -0.7081    0.5255 H   0  0  0  0  0  0  0  0  0  0  0  0
   -1.8948    0.3161    1.4970 H   0  0  0  0  0  0  0  0  0  0  0  0
    0.3351    0.2024    0.0950 H   0  0  0  0  0  0  0  0  0  0  0  0
  1  2  1  0
  1  4  1  0
  1  5  1  0
  1  6  1  0
  2  3  2  3
  2  7  1  0
  3 16  1  0
  8  9  1  0
  8 11  1  0
  8 12  1  0
  8 13  1  0
  9 10  1  0
  9 14  1  0
  9 15  1  0
M  RAD  1  10   2
M  END
>  <reaction>  (5) 
rmg_rxn_16496

>  <mol_properties>  (5) 
{"1": {"label": "*0", "atom_type": "Cd"}, "2": {"label": "*1", "atom_type": "N3d"}, "8": {"label": "*4", "atom_type": "Cs"}, "9": {"label": "*3", "atom_type": "S2s"}, "15": {"label": "*2", "atom_type": "H0"}}

>  <type>  (5) 
unop_1

>  <geom_source>  (5) 
crest_best.xyz

$$$$

     RDKit          3D

 16 14  0  0  0  0  0  0  0  0999 V2000
    2.1809    2.6921   -0.6713 C   0  0  0  0  0  0  0  0  0  0  0  0
    1.2238    1.5484   -0.7265 C   0  0  0  0  0  0  0  0  0  0  0  0
    1.3672    0.5223   -0.0035 N   0  0  0  0  0  0  0  0  0  0  0  0
    2.6252    2.8603   -1.6557 H   0  0  0  0  0  0  0  0  0  0  0  0
    2.9676    2.4927    0.0542 H   0  0  0  0  0  0  0  0  0  0  0  0
    1.6557    3.6109   -0.3979 H   0  0  0  0  0  0  0  0  0  0  0  0
    0.3919    1.6594   -1.4340 H   0  0  0  0  0  0  0  0  0  0  0  0
   -1.1136   -1.9833   -1.2039 C   0  0  0  0  0  0  0  0  0  0  0  0
   -1.1136   -1.9833    0.3148 C   0  0  0  0  0  0  0  0  0  0  0  0
   -1.1136   -0.3260    1.0598 S   0  0  0  0  0  1  0  0  0  0  0  0
   -0.2070   -1.5179   -1.5946 H   0  0  0  0  0  0  0  0  0  0  0  0
   -1.9696   -1.4321   -1.5940 H   0  0  0  0  0  0  0  0  0  0  0  0
   -1.1567   -3.0067   -1.5842 H   0  0  0  0  0  0  0  0  0  0  0  0
   -0.2703   -2.5494    0.7099 H   0  0  0  0  0  0  0  0  0  0  0  0
   -2.0212   -2.4504    0.6999 H   0  0  0  0  0  0  0  0  0  0  0  0
    0.2962    0.1561    0.4555 H   0  0  0  0  0  0  0  0  0  0  0  0
  1  2  1  0
  1  4  1  0
  1  5  1  0
  1  6  1  0
  2  3  2  3
  2  7  1  0
  3 16  1  0
  8  9  1  0
  8 11  1  0
  8 12  1  0
  8 13  1  0
  9 10  1  0
  9 14  1  0
  9 15  1  0
M  RAD  1  10   2
M  END
>  <reaction>  (6) 
rmg_rxn_16496

>  <mol_properties>  (6) 
{"1": {"label": "*0", "atom_type": "Cd"}, "2": {"label": "*1", "atom_type": "N3d"}, "8": {"label": "*4", "atom_type": "Cs"}, "9": {"label": "*3", "atom_type": "S2s"}, "15": {"label": "*2", "atom_type": "H0"}}

>  <type>  (6) 
unop_2

>  <geom_source>  (6) 
Heuristics

$$$$

     RDKit          3D

 16 14  0  0  0  0  0  0  0  0999 V2000
    2.4821    1.0486   -1.8253 C   0  0  0  0  0  0  0  0  0  0  0  0
    1.4868    0.4955   -0.8607 C   0  0  0  0  0  0  0  0  0  0  0  0
    1.2579    1.0474    0.2526 N   0  0  0  0  0  0  0  0  0  0  0  0
    3.2568    0.3067   -2.0353 H   0  0  0  0  0  0  0  0  0  0  0  0
    2.9405    1.9496   -1.4214 H   0  0  0  0  0  0  0  0  0  0  0  0
    1.9969    1.2804   -2.7769 H   0  0  0  0  0  0  0  0  0  0  0  0
    0.9705   -0.4180   -1.1829 H   0  0  0  0  0  0  0  0  0  0  0  0
   -1.2229   -1.4582   -0.9477 C   0  0  0  0  0  0  0  0  0  0  0  0
   -1.2229   -1.4582    0.5709 C   0  0  0  0  0  0  0  0  0  0  0  0
   -1.2229    0.1991    1.3159 S   0  0  0  0  0  1  0  0  0  0  0  0
   -0.3162   -0.9928   -1.3385 H   0  0  0  0  0  0  0  0  0  0  0  0
   -2.0788   -0.9070   -1.3378 H   0  0  0  0  0  0  0  0  0  0  0  0
   -1.2659   -2.4816   -1.3280 H   0  0  0  0  0  0  0  0  0  0  0  0
   -0.3796   -2.0243    0.9660 H   0  0  0  0  0  0  0  0  0  0  0  0
   -2.1305   -1.9253    0.9561 H   0  0  0  0  0  0  0  0  0  0  0  0
    0.1869    0.6812    0.7117 H   0  0  0  0  0  0  0  0  0  0  0  0
  1  2  1  0
  1  4  1  0
  1  5  1  0
  1  6  1  0
  2  3  2  3
  2  7  1  0
  3 16  1  0
  8  9  1  0
  8 11  1  0
  8 12  1  0
  8 13  1  0
  9 10  1  0
  9 14  1  0
  9 15  1  0
M  RAD  1  10   2
M  END
>  <reaction>  (7) 
rmg_rxn_16496

>  <mol_properties>  (7) 
{"1": {"label": "*0", "atom_type": "Cd"}, "2": {"label": "*1", "atom_type": "N3d"}, "8": {"label": "*4", "atom_type": "Cs"}, "9": {"label": "*3", "atom_type": "S2s"}, "15": {"label": "*2", "atom_type": "H0"}}

>  <type>  (7) 
unop_3

>  <geom_source>  (7) 
Heuristics

$$$$

     RDKit          3D

 16 14  0  0  0  0  0  0  0  0999 V2000
    2.5485    2.5599   -0.2248 C   0  0  0  0  0  0  0  0  0  0  0  0
    1.2940    1.7602   -0.3421 C   0  0  0  0  0  0  0  0  0  0  0  0
    1.2805    0.5094   -0.1645 N   0  0  0  0  0  0  0  0  0  0  0  0
    2.7535    3.0803   -1.1639 H   0  0  0  0  0  0  0  0  0  0  0  0
    3.3880    1.9130    0.0238 H   0  0  0  0  0  0  0  0  0  0  0  0
    2.4368    3.3265    0.5462 H   0  0  0  0  0  0  0  0  0  0  0  0
    0.3896    2.3299   -0.5916 H   0  0  0  0  0  0  0  0  0  0  0  0
   -1.2003   -1.9962   -1.3648 C   0  0  0  0  0  0  0  0  0  0  0  0
   -1.2003   -1.9962    0.1538 C   0  0  0  0  0  0  0  0  0  0  0  0
   -1.2003   -0.3389    0.8988 S   0  0  0  0  0  1  0  0  0  0  0  0
   -0.2937   -1.5308   -1.7556 H   0  0  0  0  0  0  0  0  0  0  0  0
   -2.0563   -1.4450   -1.7549 H   0  0  0  0  0  0  0  0  0  0  0  0
   -1.2434   -3.0196   -1.7451 H   0  0  0  0  0  0  0  0  0  0  0  0
   -0.3571   -2.5623    0.5489 H   0  0  0  0  0  0  0  0  0  0  0  0
   -2.1079   -2.4633    0.5390 H   0  0  0  0  0  0  0  0  0  0  0  0
    0.2094    0.1432    0.2946 H   0  0  0  0  0  0  0  0  0  0  0  0
  1  2  1  0
  1  4  1  0
  1  5  1  0
  1  6  1  0
  2  3  2  3
  2  7  1  0
  3 16  1  0
  8  9  1  0
  8 11  1  0
  8 12  1  0
  8 13  1  0
  9 10  1  0
  9 14  1  0
  9 15  1  0
M  RAD  1  10   2
M  END
>  <reaction>  (8) 
rmg_rxn_16496

>  <mol_properties>  (8) 
{"1": {"label": "*0", "atom_type": "Cd"}, "2": {"label": "*1", "atom_type": "N3d"}, "8": {"label": "*4", "atom_type": "Cs"}, "9": {"label": "*3", "atom_type": "S2s"}, "15": {"label": "*2", "atom_type": "H0"}}

>  <type>  (8) 
unop_4

>  <geom_source>  (8) 
Heuristics

$$$$

     RDKit          3D

 16 14  0  0  0  0  0  0  0  0999 V2000
    3.3216    0.8728    0.2877 C   0  0  0  0  0  0  0  0  0  0  0  0
    1.9437    0.3546    0.0432 C   0  0  0  0  0  0  0  0  0  0  0  0
    1.0048    1.1088   -0.3388 N   0  0  0  0  0  0  0  0  0  0  0  0
    3.6196    0.6795    1.3214 H   0  0  0  0  0  0  0  0  0  0  0  0
    3.3644    1.9425    0.0904 H   0  0  0  0  0  0  0  0  0  0  0  0
    4.0392    0.3538   -0.3528 H   0  0  0  0  0  0  0  0  0  0  0  0
    1.8029   -0.7200    0.2170 H   0  0  0  0  0  0  0  0  0  0  0  0
   -1.4761   -1.3968   -1.5392 C   0  0  0  0  0  0  0  0  0  0  0  0
   -1.4761   -1.3968   -0.0205 C   0  0  0  0  0  0  0  0  0  0  0  0
   -1.4761    0.2606    0.7245 S   0  0  0  0  0  1  0  0  0  0  0  0
   -0.5694   -0.9314   -1.9299 H   0  0  0  0  0  0  0  0  0  0  0  0
   -2.3320   -0.8456   -1.9293 H   0  0  0  0  0  0  0  0  0  0  0  0
   -1.5191   -2.4201   -1.9195 H   0  0  0  0  0  0  0  0  0  0  0  0
   -0.6328   -1.9629    0.3746 H   0  0  0  0  0  0  0  0  0  0  0  0
   -2.3837   -1.8638    0.3646 H   0  0  0  0  0  0  0  0  0  0  0  0
   -0.0663    0.7426    0.1202 H   0  0  0  0  0  0  0  0  0  0  0  0
  1  2  1  0
  1  4  1  0
  1  5  1  0
  1  6  1  0
  2  3  2  3
  2  7  1  0
  3 16  1  0
  8  9  1  0
  8 11  1  0
  8 12  1  0
  8 13  1  0
  9 10  1  0
  9 14  1  0
  9 15  1  0
M  RAD  1  10   2
M  END
>  <reaction>  (9) 
rmg_rxn_16496

>  <mol_properties>  (9) 
{"1": {"label": "*0", "atom_type": "Cd"}, "2": {"label": "*1", "atom_type": "N3d"}, "8": {"label": "*4", "atom_type": "Cs"}, "9": {"label": "*3", "atom_type": "S2s"}, "15": {"label": "*2", "atom_type": "H0"}}

>  <type>  (9) 
unop_5

>  <geom_source>  (9) 
Heuristics

$$$$

     RDKit          3D

 16 14  0  0  0  0  0  0  0  0999 V2000
    2.7368    2.4106   -0.2913 C   0  0  0  0  0  0  0  0  0  0  0  0
    1.4813    1.7230    0.1306 C   0  0  0  0  0  0  0  0  0  0  0  0
    1.2079    0.5462   -0.2391 N   0  0  0  0  0  0  0  0  0  0  0  0
    2.4999    3.3319   -0.8295 H   0  0  0  0  0  0  0  0  0  0  0  0
    3.3296    1.7580   -0.9299 H   0  0  0  0  0  0  0  0  0  0  0  0
    3.3238    2.6959    0.5854 H   0  0  0  0  0  0  0  0  0  0  0  0
    0.8160    2.3063    0.7802 H   0  0  0  0  0  0  0  0  0  0  0  0
   -1.2729   -1.9594   -1.4395 C   0  0  0  0  0  0  0  0  0  0  0  0
   -1.2729   -1.9594    0.0792 C   0  0  0  0  0  0  0  0  0  0  0  0
   -1.2729   -0.3020    0.8242 S   0  0  0  0  0  1  0  0  0  0  0  0
   -0.3663   -1.4940   -1.8302 H   0  0  0  0  0  0  0  0  0  0  0  0
   -2.1289   -1.4082   -1.8296 H   0  0  0  0  0  0  0  0  0  0  0  0
   -1.3160   -2.9828   -1.8197 H   0  0  0  0  0  0  0  0  0  0  0  0
   -0.4296   -2.5255    0.4743 H   0  0  0  0  0  0  0  0  0  0  0  0
   -2.1805   -2.4264    0.4643 H   0  0  0  0  0  0  0  0  0  0  0  0
    0.1369    0.1800    0.2200 H   0  0  0  0  0  0  0  0  0  0  0  0
  1  2  1  0
  1  4  1  0
  1  5  1  0
  1  6  1  0
  2  3  2  3
  2  7  1  0
  3 16  1  0
  8  9  1  0
  8 11  1  0
  8 12  1  0
  8 13  1  0
  9 10  1  0
  9 14  1  0
  9 15  1  0
M  RAD  1  10   2
M  END
>  <reaction>  (10) 
rmg_rxn_16496

>  <mol_properties>  (10) 
{"1": {"label": "*0", "atom_type": "Cd"}, "2": {"label": "*1", "atom_type": "N3d"}, "8": {"label": "*4", "atom_type": "Cs"}, "9": {"label": "*3", "atom_type": "S2s"}, "15": {"label": "*2", "atom_type": "H0"}}

>  <type>  (10) 
unop_6

>  <geom_source>  (10) 
Heuristics

$$$$

     RDKit          3D

 16 14  0  0  0  0  0  0  0  0999 V2000
    3.1134    1.5730    0.5873 C   0  0  0  0  0  0  0  0  0  0  0  0
    1.9889    0.6269    0.3276 C   0  0  0  0  0  0  0  0  0  0  0  0
    1.0380    0.9179   -0.4518 N   0  0  0  0  0  0  0  0  0  0  0  0
    3.1730    1.8047    1.6538 H   0  0  0  0  0  0  0  0  0  0  0  0
    2.9727    2.4926    0.0222 H   0  0  0  0  0  0  0  0  0  0  0  0
    4.0651    1.1139    0.3076 H   0  0  0  0  0  0  0  0  0  0  0  0
    2.0444   -0.3330    0.8570 H   0  0  0  0  0  0  0  0  0  0  0  0
   -1.4428   -1.5877   -1.6521 C   0  0  0  0  0  0  0  0  0  0  0  0
   -1.4428   -1.5877   -0.1335 C   0  0  0  0  0  0  0  0  0  0  0  0
   -1.4428    0.0697    0.6115 S   0  0  0  0  0  1  0  0  0  0  0  0
   -0.5361   -1.1223   -2.0429 H   0  0  0  0  0  0  0  0  0  0  0  0
   -2.2987   -1.0365   -2.0422 H   0  0  0  0  0  0  0  0  0  0  0  0
   -1.4858   -2.6111   -2.0324 H   0  0  0  0  0  0  0  0  0  0  0  0
   -0.5995   -2.1538    0.2616 H   0  0  0  0  0  0  0  0  0  0  0  0
   -2.3504   -2.0547    0.2517 H   0  0  0  0  0  0  0  0  0  0  0  0
   -0.0330    0.5517    0.0073 H   0  0  0  0  0  0  0  0  0  0  0  0
  1  2  1  0
  1  4  1  0
  1  5  1  0
  1  6  1  0
  2  3  2  3
  2  7  1  0
  3 16  1  0
  8  9  1  0
  8 11  1  0
  8 12  1  0
  8 13  1  0
  9 10  1  0
  9 14  1  0
  9 15  1  0
M  RAD  1  10   2
M  END
>  <reaction>  (11) 
rmg_rxn_16496

>  <mol_properties>  (11) 
{"1": {"label": "*0", "atom_type": "Cd"}, "2": {"label": "*1", "atom_type": "N3d"}, "8": {"label": "*4", "atom_type": "Cs"}, "9": {"label": "*3", "atom_type": "S2s"}, "15": {"label": "*2", "atom_type": "H0"}}

>  <type>  (11) 
unop_7

>  <geom_source>  (11) 
Heuristics

$$$$

     RDKit          3D

 16 14  0  0  0  0  0  0  0  0999 V2000
    2.8083    2.2078    0.4062 C   0  0  0  0  0  0  0  0  0  0  0  0
    1.9256    1.0067    0.4787 C   0  0  0  0  0  0  0  0  0  0  0  0
    1.1110    0.7201   -0.4436 N   0  0  0  0  0  0  0  0  0  0  0  0
    2.6197    2.8667    1.2576 H   0  0  0  0  0  0  0  0  0  0  0  0
    2.6329    2.7511   -0.5207 H   0  0  0  0  0  0  0  0  0  0  0  0
    3.8581    1.9086    0.4615 H   0  0  0  0  0  0  0  0  0  0  0  0
    2.0321    0.3933    1.3827 H   0  0  0  0  0  0  0  0  0  0  0  0
   -1.3698   -1.7855   -1.6439 C   0  0  0  0  0  0  0  0  0  0  0  0
   -1.3698   -1.7855   -0.1253 C   0  0  0  0  0  0  0  0  0  0  0  0
   -1.3698   -0.1282    0.6197 S   0  0  0  0  0  1  0  0  0  0  0  0
   -0.4632   -1.3201   -2.0347 H   0  0  0  0  0  0  0  0  0  0  0  0
   -2.2258   -1.2343   -2.0340 H   0  0  0  0  0  0  0  0  0  0  0  0
   -1.4129   -2.8089   -2.0242 H   0  0  0  0  0  0  0  0  0  0  0  0
   -0.5266   -2.3516    0.2698 H   0  0  0  0  0  0  0  0  0  0  0  0
   -2.2774   -2.2526    0.2599 H   0  0  0  0  0  0  0  0  0  0  0  0
    0.0399    0.3539    0.0155 H   0  0  0  0  0  0  0  0  0  0  0  0
  1  2  1  0
  1  4  1  0
  1  5  1  0
  1  6  1  0
  2  3  2  3
  2  7  1  0
  3 16  1  0
  8  9  1  0
  8 11  1  0
  8 12  1  0
  8 13  1  0
  9 10  1  0
  9 14  1  0
  9 15  1  0
M  RAD  1  10   2
M  END
>  <reaction>  (12) 
rmg_rxn_16496

>  <mol_properties>  (12) 
{"1": {"label": "*0", "atom_type": "Cd"}, "2": {"label": "*1", "atom_type": "N3d"}, "8": {"label": "*4", "atom_type": "Cs"}, "9": {"label": "*3", "atom_type": "S2s"}, "15": {"label": "*2", "atom_type": "H0"}}

>  <type>  (12) 
unop_8

>  <geom_source>  (12) 
Heuristics

$$$$

     RDKit          3D

 16 14  0  0  0  0  0  0  0  0999 V2000
    1.9992    2.4331   -1.3262 C   0  0  0  0  0  0  0  0  0  0  0  0
    1.2444    1.2016   -0.9510 C   0  0  0  0  0  0  0  0  0  0  0  0
    1.3998    0.6387    0.1694 N   0  0  0  0  0  0  0  0  0  0  0  0
    2.5875    2.2545   -2.2299 H   0  0  0  0  0  0  0  0  0  0  0  0
    2.6598    2.7341   -0.5151 H   0  0  0  0  0  0  0  0  0  0  0  0
    1.3053    3.2465   -1.5536 H   0  0  0  0  0  0  0  0  0  0  0  0
    0.5494    0.8210   -1.7105 H   0  0  0  0  0  0  0  0  0  0  0  0
   -1.0810   -1.8669   -1.0309 C   0  0  0  0  0  0  0  0  0  0  0  0
   -1.0810   -1.8669    0.4877 C   0  0  0  0  0  0  0  0  0  0  0  0
   -1.0810   -0.2096    1.2327 S   0  0  0  0  0  1  0  0  0  0  0  0
   -0.1744   -1.4015   -1.4217 H   0  0  0  0  0  0  0  0  0  0  0  0
   -1.9370   -1.3157   -1.4210 H   0  0  0  0  0  0  0  0  0  0  0  0
   -1.1241   -2.8903   -1.4112 H   0  0  0  0  0  0  0  0  0  0  0  0
   -0.2378   -2.4330    0.8828 H   0  0  0  0  0  0  0  0  0  0  0  0
   -1.9886   -2.3340    0.8729 H   0  0  0  0  0  0  0  0  0  0  0  0
    0.3287    0.2725    0.6285 H   0  0  0  0  0  0  0  0  0  0  0  0
  1  2  1  0
  1  4  1  0
  1  5  1  0
  1  6  1  0
  2  3  2  3
  2  7  1  0
  3 16  1  0
  8  9  1  0
  8 11  1  0
  8 12  1  0
  8 13  1  0
  9 10  1  0
  9 14  1  0
  9 15  1  0
M  RAD  1  10   2
M  END
>  <reaction>  (13) 
rmg_rxn_16496

>  <mol_properties>  (13) 
{"1": {"label": "*0", "atom_type": "Cd"}, "2": {"label": "*1", "atom_type": "N3d"}, "8": {"label": "*4", "atom_type": "Cs"}, "9": {"label": "*3", "atom_type": "S2s"}, "15": {"label": "*2", "atom_type": "H0"}}

>  <type>  (13) 
unop_9

>  <geom_source>  (13) 
Heuristics

$$$$

     RDKit          3D

 16 14  0  0  0  0  0  0  0  0999 V2000
    2.8803   -0.5594   -0.1998 C   0  0  0  0  0  0  0  0  0  0  0  0
    2.2768    0.7728    0.0990 C   0  0  0  0  0  0  0  0  0  0  0  0
    1.0802    1.0808    0.2288 N   0  0  0  0  0  0  0  0  0  0  0  0
    2.1071   -1.3173   -0.3009 H   0  0  0  0  0  0  0  0  0  0  0  0
    3.5632   -0.8360    0.6020 H   0  0  0  0  0  0  0  0  0  0  0  0
    3.4555   -0.4970   -1.1222 H   0  0  0  0  0  0  0  0  0  0  0  0
    2.9981    1.5849    0.2185 H   0  0  0  0  0  0  0  0  0  0  0  0
   -2.3755    1.1300   -0.4559 C   0  0  0  0  0  0  0  0  0  0  0  0
   -2.1165   -0.0298    0.4863 C   0  0  0  0  0  0  0  0  0  0  0  0
   -0.7296   -1.0585   -0.0564 S   0  0  0  0  0  1  0  0  0  0  0  0
   -3.2441    1.6931   -0.1194 H   0  0  0  0  0  0  0  0  0  0  0  0
   -2.5636    0.7660   -1.4639 H   0  0  0  0  0  0  0  0  0  0  0  0
   -1.5138    1.7937   -0.4800 H   0  0  0  0  0  0  0  0  0  0  0  0
   -2.9710   -0.7081    0.5255 H   0  0  0  0  0  0  0  0  0  0  0  0
   -1.8948    0.3161    1.4970 H   0  0  0  0  0  0  0  0  0  0  0  0
    0.3351    0.2024    0.0950 H   0  0  0  0  0  0  0  0  0  0  0  0
  1  2  1  0
  1  4  1  0
  1  5  1  0
  1  6  1  0
  2  3  2  3
  2  7  1  0
  3 16  1  0
  8  9  1  0
  8 11  1  0
  8 12  1  0
  8 13  1  0
  9 10  1  0
  9 14  1  0
  9 15  1  0
M  RAD  1  10   2
M  END
>  <reaction>  (14) 
rmg_rxn_16496

>  <mol_properties>  (14) 
{"1": {"label": "*0", "atom_type": "Cd"}, "2": {"label": "*1", "atom_type": "N3d"}, "8": {"label": "*4", "atom_type": "Cs"}, "9": {"label": "*3", "atom_type": "S2s"}, "15": {"label": "*2", "atom_type": "H0"}}

>  <type>  (14) 
unop_10

>  <geom_source>  (14) 
Heuristics

$$$$

     RDKit          3D

 16 14  0  0  0  0  0  0  0  0999 V2000
    3.2907    0.4244   -0.4366 C   0  0  0  0  0  0  0  0  0  0  0  0
    1.8166    0.2409   -0.2943 C   0  0  0  0  0  0  0  0  0  0  0  0
    1.0346    1.2198   -0.1310 N   0  0  0  0  0  0  0  0  0  0  0  0
    3.8169   -0.1245    0.3486 H   0  0  0  0  0  0  0  0  0  0  0  0
    3.5482    1.4804   -0.3777 H   0  0  0  0  0  0  0  0  0  0  0  0
    3.6312    0.0177   -1.3923 H   0  0  0  0  0  0  0  0  0  0  0  0
    1.4606   -0.7963   -0.3411 H   0  0  0  0  0  0  0  0  0  0  0  0
   -1.4462   -1.2858   -1.3313 C   0  0  0  0  0  0  0  0  0  0  0  0
   -1.4462   -1.2858    0.1874 C   0  0  0  0  0  0  0  0  0  0  0  0
   -1.4462    0.3716    0.9323 S   0  0  0  0  0  1  0  0  0  0  0  0
   -0.5396   -0.8204   -1.7221 H   0  0  0  0  0  0  0  0  0  0  0  0
   -2.3022   -0.7346   -1.7214 H   0  0  0  0  0  0  0  0  0  0  0  0
   -1.4893   -2.3092   -1.7116 H   0  0  0  0  0  0  0  0  0  0  0  0
   -0.6030   -1.8519    0.5825 H   0  0  0  0  0  0  0  0  0  0  0  0
   -2.3538   -1.7528    0.5725 H   0  0  0  0  0  0  0  0  0  0  0  0
   -0.0365    0.8536    0.3281 H   0  0  0  0  0  0  0  0  0  0  0  0
  1  2  1  0
  1  4  1  0
  1  5  1  0
  1  6  1  0
  2  3  2  3
  2  7  1  0
  3 16  1  0
  8  9  1  0
  8 11  1  0
  8 12  1  0
  8 13  1  0
  9 10  1  0
  9 14  1  0
  9 15  1  0
M  RAD  1  10   2
M  END
>  <reaction>  (15) 
rmg_rxn_16496

>  <mol_properties>  (15) 
{"1": {"label": "*0", "atom_type": "Cd"}, "2": {"label": "*1", "atom_type": "N3d"}, "8": {"label": "*4", "atom_type": "Cs"}, "9": {"label": "*3", "atom_type": "S2s"}, "15": {"label": "*2", "atom_type": "H0"}}

>  <type>  (15) 
unop_11

>  <geom_source>  (15) 
Heuristics

$$$$

     RDKit          3D

 16 14  0  0  0  0  0  0  0  0999 V2000
    2.1043    1.8125   -1.8027 C   0  0  0  0  0  0  0  0  0  0  0  0
    1.3415    0.8195   -0.9909 C   0  0  0  0  0  0  0  0  0  0  0  0
    1.3606    0.8341    0.2723 N   0  0  0  0  0  0  0  0  0  0  0  0
    2.8139    1.2996   -2.4570 H   0  0  0  0  0  0  0  0  0  0  0  0
    2.6408    2.5011   -1.1523 H   0  0  0  0  0  0  0  0  0  0  0  0
    1.4244    2.3741   -2.4485 H   0  0  0  0  0  0  0  0  0  0  0  0
    0.7663    0.0802   -1.5631 H   0  0  0  0  0  0  0  0  0  0  0  0
   -1.1202   -1.6715   -0.9280 C   0  0  0  0  0  0  0  0  0  0  0  0
   -1.1202   -1.6715    0.5906 C   0  0  0  0  0  0  0  0  0  0  0  0
   -1.1202   -0.0141    1.3356 S   0  0  0  0  0  1  0  0  0  0  0  0
   -0.2135   -1.2061   -1.3188 H   0  0  0  0  0  0  0  0  0  0  0  0
   -1.9761   -1.1203   -1.3181 H   0  0  0  0  0  0  0  0  0  0  0  0
   -1.1632   -2.6949   -1.3083 H   0  0  0  0  0  0  0  0  0  0  0  0
   -0.2769   -2.2376    0.9857 H   0  0  0  0  0  0  0  0  0  0  0  0
   -2.0278   -2.1385    0.9758 H   0  0  0  0  0  0  0  0  0  0  0  0
    0.2896    0.4679    0.7314 H   0  0  0  0  0  0  0  0  0  0  0  0
  1  2  1  0
  1  4  1  0
  1  5  1  0
  1  6  1  0
  2  3  2  3
  2  7  1  0
  3 16  1  0
  8  9  1  0
  8 11  1  0
  8 12  1  0
  8 13  1  0
  9 10  1  0
  9 14  1  0
  9 15  1  0
M  RAD  1  10   2
M  END
>  <reaction>  (16) 
rmg_rxn_16496

>  <mol_properties>  (16) 
{"1": {"label": "*0", "atom_type": "Cd"}, "2": {"label": "*1", "atom_type": "N3d"}, "8": {"label": "*4", "atom_type": "Cs"}, "9": {"label": "*3", "atom_type": "S2s"}, "15": {"label": "*2", "atom_type": "H0"}}

>  <type>  (16) 
unop_12

>  <geom_source>  (16) 
Heuristics

$$$$

     RDKit          3D

 16 14  0  0  0  0  0  0  0  0999 V2000
    2.6318    2.4956   -0.0818 C   0  0  0  0  0  0  0  0  0  0  0  0
    1.7463    1.4111    0.4347 C   0  0  0  0  0  0  0  0  0  0  0  0
    1.1797    0.5872   -0.3377 N   0  0  0  0  0  0  0  0  0  0  0  0
    2.2470    3.4730    0.2203 H   0  0  0  0  0  0  0  0  0  0  0  0
    2.6943    2.4485   -1.1675 H   0  0  0  0  0  0  0  0  0  0  0  0
    3.6330    2.4014    0.3465 H   0  0  0  0  0  0  0  0  0  0  0  0
    1.6219    1.3786    1.5248 H   0  0  0  0  0  0  0  0  0  0  0  0
   -1.3012   -1.9184   -1.5380 C   0  0  0  0  0  0  0  0  0  0  0  0
   -1.3012   -1.9184   -0.0193 C   0  0  0  0  0  0  0  0  0  0  0  0
   -1.3012   -0.2610    0.7257 S   0  0  0  0  0  1  0  0  0  0  0  0
   -0.3945   -1.4530   -1.9288 H   0  0  0  0  0  0  0  0  0  0  0  0
   -2.1571   -1.3672   -1.9281 H   0  0  0  0  0  0  0  0  0  0  0  0
   -1.3442   -2.9418   -1.9183 H   0  0  0  0  0  0  0  0  0  0  0  0
   -0.4579   -2.4845    0.3758 H   0  0  0  0  0  0  0  0  0  0  0  0
   -2.2088   -2.3854    0.3658 H   0  0  0  0  0  0  0  0  0  0  0  0
    0.1086    0.2210    0.1214 H   0  0  0  0  0  0  0  0  0  0  0  0
  1  2  1  0
  1  4  1  0
  1  5  1  0
  1  6  1  0
  2  3  2  3
  2  7  1  0
  3 16  1  0
  8  9  1  0
  8 11  1  0
  8 12  1  0
  8 13  1  0
  9 10  1  0
  9 14  1  0
  9 15  1  0
M  RAD  1  10   2
M  END
>  <reaction>  (17) 
rmg_rxn_16496

>  <mol_properties>  (17) 
{"1": {"label": "*0", "atom_type": "Cd"}, "2": {"label": "*1", "atom_type": "N3d"}, "8": {"label": "*4", "atom_type": "Cs"}, "9": {"label": "*3", "atom_type": "S2s"}, "15": {"label": "*2", "atom_type": "H0"}}

>  <type>  (17) 
unop_13

>  <geom_source>  (17) 
Heuristics

$$$$

     RDKit          3D

 16 14  0  0  0  0  0  0  0  0999 V2000
    2.9669    0.4844   -1.2911 C   0  0  0  0  0  0  0  0  0  0  0  0
    1.6521    0.2932   -0.6115 C   0  0  0  0  0  0  0  0  0  0  0  0
    1.1301    1.1980    0.0992 N   0  0  0  0  0  0  0  0  0  0  0  0
    3.6786   -0.2746   -0.9565 H   0  0  0  0  0  0  0  0  0  0  0  0
    3.3634    1.4753   -1.0766 H   0  0  0  0  0  0  0  0  0  0  0  0
    2.8547    0.3615   -2.3714 H   0  0  0  0  0  0  0  0  0  0  0  0
    1.1729   -0.6814   -0.7705 H   0  0  0  0  0  0  0  0  0  0  0  0
   -1.3508   -1.3076   -1.1011 C   0  0  0  0  0  0  0  0  0  0  0  0
   -1.3508   -1.3076    0.4175 C   0  0  0  0  0  0  0  0  0  0  0  0
   -1.3508    0.3498    1.1625 S   0  0  0  0  0  1  0  0  0  0  0  0
   -0.4441   -0.8421   -1.4919 H   0  0  0  0  0  0  0  0  0  0  0  0
   -2.2067   -0.7563   -1.4912 H   0  0  0  0  0  0  0  0  0  0  0  0
   -1.3938   -2.3309   -1.4814 H   0  0  0  0  0  0  0  0  0  0  0  0
   -0.5075   -1.8737    0.8127 H   0  0  0  0  0  0  0  0  0  0  0  0
   -2.2584   -1.7746    0.8027 H   0  0  0  0  0  0  0  0  0  0  0  0
    0.0590    0.8318    0.5583 H   0  0  0  0  0  0  0  0  0  0  0  0
  1  2  1  0
  1  4  1  0
  1  5  1  0
  1  6  1  0
  2  3  2  3
  2  7  1  0
  3 16  1  0
  8  9  1  0
  8 11  1  0
  8 12  1  0
  8 13  1  0
  9 10  1  0
  9 14  1  0
  9 15  1  0
M  RAD  1  10   2
M  END
>  <reaction>  (18) 
rmg_rxn_16496

>  <mol_properties>  (18) 
{"1": {"label": "*0", "atom_type": "Cd"}, "2": {"label": "*1", "atom_type": "N3d"}, "8": {"label": "*4", "atom_type": "Cs"}, "9": {"label": "*3", "atom_type": "S2s"}, "15": {"label": "*2", "atom_type": "H0"}}

>  <type>  (18) 
unop_14

>  <geom_source>  (18) 
Heuristics

$$$$

     RDKit          3D

 16 14  0  0  0  0  0  0  0  0999 V2000
    2.4821    1.0487   -1.8253 C   0  0  0  0  0  0  0  0  0  0  0  0
    1.4868    0.4955   -0.8607 C   0  0  0  0  0  0  0  0  0  0  0  0
    1.2579    1.0474    0.2526 N   0  0  0  0  0  0  0  0  0  0  0  0
    3.2568    0.3068   -2.0353 H   0  0  0  0  0  0  0  0  0  0  0  0
    2.9405    1.9496   -1.4214 H   0  0  0  0  0  0  0  0  0  0  0  0
    1.9969    1.2804   -2.7769 H   0  0  0  0  0  0  0  0  0  0  0  0
    0.9705   -0.4180   -1.1829 H   0  0  0  0  0  0  0  0  0  0  0  0
   -1.2229   -1.4582   -0.9477 C   0  0  0  0  0  0  0  0  0  0  0  0
   -1.2229   -1.4582    0.5709 C   0  0  0  0  0  0  0  0  0  0  0  0
   -1.2229    0.1991    1.3159 S   0  0  0  0  0  1  0  0  0  0  0  0
   -0.3162   -0.9928   -1.3385 H   0  0  0  0  0  0  0  0  0  0  0  0
   -2.0788   -0.9070   -1.3378 H   0  0  0  0  0  0  0  0  0  0  0  0
   -1.2659   -2.4816   -1.3280 H   0  0  0  0  0  0  0  0  0  0  0  0
   -0.3796   -2.0243    0.9660 H   0  0  0  0  0  0  0  0  0  0  0  0
   -2.1305   -1.9253    0.9561 H   0  0  0  0  0  0  0  0  0  0  0  0
    0.1869    0.6812    0.7117 H   0  0  0  0  0  0  0  0  0  0  0  0
  1  2  1  0
  1  4  1  0
  1  5  1  0
  1  6  1  0
  2  3  2  3
  2  7  1  0
  3 16  1  0
  8  9  1  0
  8 11  1  0
  8 12  1  0
  8 13  1  0
  9 10  1  0
  9 14  1  0
  9 15  1  0
M  RAD  1  10   2
M  END
>  <reaction>  (19) 
rmg_rxn_16496

>  <mol_properties>  (19) 
{"1": {"label": "*0", "atom_type": "Cd"}, "2": {"label": "*1", "atom_type": "N3d"}, "8": {"label": "*4", "atom_type": "Cs"}, "9": {"label": "*3", "atom_type": "S2s"}, "15": {"label": "*2", "atom_type": "H0"}}

>  <type>  (19) 
unop_15

>  <geom_source>  (19) 
gaussian_log

$$$$
