
     RDKit          3D

  9  8  0  0  0  0  0  0  0  0999 V2000
   -1.5470   -0.0755   -0.1976 C   0  0  0  0  0  0  0  0  0  0  0  0
   -0.2885    0.4507    0.1749 O   0  0  0  0  0  0  0  0  0  0  0  0
   -0.1502    1.7216   -0.3294 N   0  0  0  0  0  0  0  0  0  0  0  0
    0.9626    2.2353   -0.0219 C   0  0  0  0  0  0  0  0  0  0  0  0
   -1.6392   -0.1356   -1.2844 H   0  0  0  0  0  0  0  0  0  0  0  0
   -2.3597    0.5337    0.2044 H   0  0  0  0  0  0  0  0  0  0  0  0
   -1.5879   -1.0750    0.2318 H   0  0  0  0  0  0  0  0  0  0  0  0
    1.1497    3.2381   -0.3820 H   0  0  0  0  0  0  0  0  0  0  0  0
    1.7060    1.7101    0.5739 H   0  0  0  0  0  0  0  0  0  0  0  0
  1  2  1  0
  1  5  1  0
  1  6  1  0
  1  7  1  0
  2  3  1  0
  3  4  2  3
  4  8  1  0
  4  9  1  0
M  END
>  <reaction>  (1) 
rmg_rxn_15591

>  <mol_properties>  (1) 
{"0": {"label": "donator", "atom_type": "Cs"}, "4": {"label": "d_hydrogen", "atom_type": "H0"}}

>  <type>  (1) 
r1h

$$$$

     RDKit          3D

 10  9  0  0  0  0  0  0  0  0999 V2000
    1.4352    0.2660   -0.1351 C   0  0  0  0  0  3  0  0  0  0  0  0
    0.2236   -0.3243    0.4850 C   0  0  0  0  0  0  0  0  0  0  0  0
   -0.8893    0.6872    0.7364 C   0  0  0  0  0  0  0  0  0  0  0  0
    2.3577   -0.2958   -0.1940 H   0  0  0  0  0  0  0  0  0  0  0  0
    1.3935    1.2286   -0.6287 H   0  0  0  0  0  0  0  0  0  0  0  0
   -0.1633   -1.1318   -0.1556 H   0  0  0  0  0  0  0  0  0  0  0  0
    0.4945   -0.8215    1.4240 H   0  0  0  0  0  0  0  0  0  0  0  0
   -1.1991    1.1627   -0.1967 H   0  0  0  0  0  0  0  0  0  0  0  0
   -1.7660    0.2103    1.1768 H   0  0  0  0  0  0  0  0  0  0  0  0
   -0.5545    1.4732    1.4159 H   0  0  0  0  0  0  0  0  0  0  0  0
  1  2  1  0
  1  4  1  0
  1  5  1  0
  2  3  1  0
  2  6  1  0
  2  7  1  0
  3  8  1  0
  3  9  1  0
  3 10  1  0
M  RAD  1   1   2
M  END
>  <reaction>  (2) 
rmg_rxn_15591

>  <mol_properties>  (2) 
{"0": {"label": "acceptor", "atom_type": "Cs"}}

>  <type>  (2) 
r2

$$$$

     RDKit          3D

 11 10  0  0  0  0  0  0  0  0999 V2000
   -1.2710    0.1907   -0.2084 C   0  0  0  0  0  0  0  0  0  0  0  0
    0.0202   -0.6130   -0.2928 C   0  0  0  0  0  0  0  0  0  0  0  0
    0.1086   -1.6953    0.7756 C   0  0  0  0  0  0  0  0  0  0  0  0
   -1.3607    0.6851    0.7620 H   0  0  0  0  0  0  0  0  0  0  0  0
   -2.1429   -0.4567   -0.3299 H   0  0  0  0  0  0  0  0  0  0  0  0
   -1.3158    0.9602   -0.9809 H   0  0  0  0  0  0  0  0  0  0  0  0
    0.8757    0.0616   -0.1992 H   0  0  0  0  0  0  0  0  0  0  0  0
    0.0997   -1.0712   -1.2825 H   0  0  0  0  0  0  0  0  0  0  0  0
   -0.7198   -2.4022    0.6850 H   0  0  0  0  0  0  0  0  0  0  0  0
    1.0395   -2.2596    0.6989 H   0  0  0  0  0  0  0  0  0  0  0  0
    0.0624   -1.2603    1.7770 H   0  0  0  0  0  0  0  0  0  0  0  0
  1  2  1  0
  1  4  1  0
  1  5  1  0
  1  6  1  0
  2  3  1  0
  2  7  1  0
  2  8  1  0
  3  9  1  0
  3 10  1  0
  3 11  1  0
M  END
>  <reaction>  (3) 
rmg_rxn_15591

>  <mol_properties>  (3) 
{"0": {"label": "a_hydrogen", "atom_type": "H0"}, "1": {"label": "acceptor", "atom_type": "Cs"}}

>  <type>  (3) 
r2h

$$$$

     RDKit          3D

 19 17  0  0  0  0  0  0  0  0999 V2000
   -1.2863    0.7662    1.0090 C   0  0  0  0  0  0  0  0  0  0  0  0
   -1.1912    0.8365   -0.3779 O   0  0  0  0  0  0  0  0  0  0  0  0
   -1.3290   -0.4132   -0.9405 N   0  0  0  0  0  0  0  0  0  0  0  0
   -1.1260   -0.3886   -2.1877 C   0  0  0  0  0  0  0  0  0  0  0  0
   -0.1662    0.2308    1.5042 H   0  0  0  0  0  0  0  0  0  0  0  0
   -2.0977    0.1210    1.3450 H   0  0  0  0  0  0  0  0  0  0  0  0
   -1.3401    1.7826    1.3903 H   0  0  0  0  0  0  0  0  0  0  0  0
   -1.2264   -1.3295   -2.7120 H   0  0  0  0  0  0  0  0  0  0  0  0
   -0.8653    0.5221   -2.7219 H   0  0  0  0  0  0  0  0  0  0  0  0
    0.9814   -0.3766    1.9376 C   0  0  0  0  0  3  0  0  0  0  0  0
    1.7241   -0.8618    0.7198 C   0  0  0  0  0  0  0  0  0  0  0  0
    2.2264    0.2734   -0.1647 C   0  0  0  0  0  0  0  0  0  0  0  0
    0.6001   -1.1626    2.5876 H   0  0  0  0  0  0  0  0  0  0  0  0
    1.4906    0.4045    2.5027 H   0  0  0  0  0  0  0  0  0  0  0  0
    2.5754   -1.4788    1.0334 H   0  0  0  0  0  0  0  0  0  0  0  0
    1.0717   -1.5197    0.1389 H   0  0  0  0  0  0  0  0  0  0  0  0
    2.9063    0.9262    0.3884 H   0  0  0  0  0  0  0  0  0  0  0  0
    2.7645   -0.1096   -1.0336 H   0  0  0  0  0  0  0  0  0  0  0  0
    1.3953    0.8843   -0.5222 H   0  0  0  0  0  0  0  0  0  0  0  0
  1  2  1  0
  1  5  1  0
  1  6  1  0
  1  7  1  0
  2  3  1  0
  3  4  2  3
  4  8  1  0
  4  9  1  0
 10 11  1  0
 10 13  1  0
 10 14  1  0
 11 12  1  0
 11 15  1  0
 11 16  1  0
 12 17  1  0
 12 18  1  0
 12 19  1  0
M  RAD  1  10   2
M  END
>  <reaction>  (4) 
rmg_rxn_15591

>  <mol_properties>  (4) 
{"0": {"label": "*1", "atom_type": "Cs"}, "1": {"label": "*0", "atom_type": "O2s"}, "4": {"label": "*2", "atom_type": "H0"}, "9": {"label": "*3", "atom_type": "Cs"}, "10": {"label": "*4", "atom_type": "Cs"}}

>  <type>  (4) 
ts

$$$$

     RDKit          3D

 19 17  0  0  0  0  0  0  0  0999 V2000
   -0.4547   -1.6034   -0.4515 C   0  0  0  0  0  3  0  0  0  0  0  0
   -1.3388   -0.8292    0.2753 O   0  0  0  0  0  0  0  0  0  0  0  0
   -1.5959    0.3886   -0.3190 N   0  0  0  0  0  0  0  0  0  0  0  0
   -2.3472    1.1721    0.3293 C   0  0  0  0  0  0  0  0  0  0  0  0
    0.8123   -1.2710   -0.1191 H   0  0  0  0  0  0  0  0  0  0  0  0
   -0.5139   -1.4386   -1.5241 H   0  0  0  0  0  0  0  0  0  0  0  0
   -0.5806   -2.6376   -0.1515 H   0  0  0  0  0  0  0  0  0  0  0  0
   -2.5559    2.1223   -0.1282 H   0  0  0  0  0  0  0  0  0  0  0  0
   -2.7841    0.9407    1.2957 H   0  0  0  0  0  0  0  0  0  0  0  0
    2.0274   -0.9494    0.2017 C   0  0  0  0  0  0  0  0  0  0  0  0
    2.0594    0.5120    0.5704 C   0  0  0  0  0  0  0  0  0  0  0  0
    1.6543    1.4101   -0.5930 C   0  0  0  0  0  0  0  0  0  0  0  0
    2.6184   -1.1777   -0.6791 H   0  0  0  0  0  0  0  0  0  0  0  0
    2.2873   -1.6030    1.0275 H   0  0  0  0  0  0  0  0  0  0  0  0
    1.3920    0.6896    1.4177 H   0  0  0  0  0  0  0  0  0  0  0  0
    3.0722    0.7814    0.8951 H   0  0  0  0  0  0  0  0  0  0  0  0
    2.2984    1.2335   -1.4519 H   0  0  0  0  0  0  0  0  0  0  0  0
    0.6248    1.2128   -0.8841 H   0  0  0  0  0  0  0  0  0  0  0  0
    1.7356    2.4578   -0.3124 H   0  0  0  0  0  0  0  0  0  0  0  0
  1  2  1  0
  1  6  1  0
  1  7  1  0
  2  3  1  0
  3  4  2  3
  4  8  1  0
  4  9  1  0
  5 10  1  0
 10 11  1  0
 10 13  1  0
 10 14  1  0
 11 12  1  0
 11 15  1  0
 11 16  1  0
 12 17  1  0
 12 18  1  0
 12 19  1  0
M  RAD  1   1   2
M  END
>  <reaction>  (5) 
rmg_rxn_15591

>  <mol_properties>  (5) 
{"0": {"label": "*1", "atom_type": "Cs"}, "1": {"label": "*0", "atom_type": "O2s"}, "4": {"label": "*2", "atom_type": "H0"}, "9": {"label": "*3", "atom_type": "Cs"}, "10": {"label": "*4", "atom_type": "Cs"}}

>  <type>  (5) 
unop_1

>  <geom_source>  (5) 
crest_best.xyz

$$$$

     RDKit          3D

 19 17  0  0  0  0  0  0  0  0999 V2000
   -1.0219    0.4153    0.2042 C   0  0  0  0  0  0  0  0  0  0  0  0
   -1.0219    0.4732   -1.2087 O   0  0  0  0  0  0  0  0  0  0  0  0
   -1.0219   -0.8006   -1.7245 N   0  0  0  0  0  0  0  0  0  0  0  0
   -1.0219   -0.8006   -2.9881 C   0  0  0  0  0  0  0  0  0  0  0  0
    0.0487   -0.1968    0.6483 H   0  0  0  0  0  0  0  0  0  0  0  0
   -1.9140   -0.0949    0.5743 H   0  0  0  0  0  0  0  0  0  0  0  0
   -1.0219    1.4502    0.5420 H   0  0  0  0  0  0  0  0  0  0  0  0
   -1.0219   -1.7677   -3.4729 H   0  0  0  0  0  0  0  0  0  0  0  0
   -1.0219    0.1158   -3.5742 H   0  0  0  0  0  0  0  0  0  0  0  0
    1.1197   -0.8092    1.0926 C   0  0  0  0  0  3  0  0  0  0  0  0
    1.9393    0.1091    1.9900 C   0  0  0  0  0  0  0  0  0  0  0  0
    1.1243    1.2729    2.5393 C   0  0  0  0  0  0  0  0  0  0  0  0
    1.7202   -1.6359    0.7092 H   0  0  0  0  0  0  0  0  0  0  0  0
    0.2737   -1.2348    1.6377 H   0  0  0  0  0  0  0  0  0  0  0  0
    2.3541   -0.4688    2.8205 H   0  0  0  0  0  0  0  0  0  0  0  0
    2.7951    0.4963    1.4300 H   0  0  0  0  0  0  0  0  0  0  0  0
    0.2784    0.9130    3.1300 H   0  0  0  0  0  0  0  0  0  0  0  0
    1.7280    1.9188    3.1791 H   0  0  0  0  0  0  0  0  0  0  0  0
    0.7228    1.8858    1.7286 H   0  0  0  0  0  0  0  0  0  0  0  0
  1  2  1  0
  1  5  1  0
  1  6  1  0
  1  7  1  0
  2  3  1  0
  3  4  2  3
  4  8  1  0
  4  9  1  0
 10 11  1  0
 10 13  1  0
 10 14  1  0
 11 12  1  0
 11 15  1  0
 11 16  1  0
 12 17  1  0
 12 18  1  0
 12 19  1  0
M  RAD  1  10   2
M  END
>  <reaction>  (6) 
rmg_rxn_15591

>  <mol_properties>  (6) 
{"0": {"label": "*1", "atom_type": "Cs"}, "1": {"label": "*0", "atom_type": "O2s"}, "4": {"label": "*2", "atom_type": "H0"}, "9": {"label": "*3", "atom_type": "Cs"}, "10": {"label": "*4", "atom_type": "Cs"}}

>  <type>  (6) 
unop_2

>  <geom_source>  (6) 
Heuristics

$$$$

     RDKit          3D

 19 17  0  0  0  0  0  0  0  0999 V2000
   -0.4547    1.6046   -0.4488 C   0  0  0  0  0  3  0  0  0  0  0  0
   -1.3372    0.8285    0.2777 O   0  0  0  0  0  0  0  0  0  0  0  0
   -1.5974   -0.3868   -0.3203 N   0  0  0  0  0  0  0  0  0  0  0  0
   -2.3483   -1.1715    0.3272 C   0  0  0  0  0  0  0  0  0  0  0  0
    0.8131    1.2709   -0.1205 H   0  0  0  0  0  0  0  0  0  0  0  0
   -0.5794    2.6379   -0.1454 H   0  0  0  0  0  0  0  0  0  0  0  0
   -0.5164    1.4431   -1.5218 H   0  0  0  0  0  0  0  0  0  0  0  0
   -2.5602   -2.1195   -0.1332 H   0  0  0  0  0  0  0  0  0  0  0  0
   -2.7824   -0.9425    1.2953 H   0  0  0  0  0  0  0  0  0  0  0  0
    2.0291    0.9488    0.1963 C   0  0  0  0  0  0  0  0  0  0  0  0
    2.0604   -0.5112    0.5701 C   0  0  0  0  0  0  0  0  0  0  0  0
    1.6523   -1.4130   -0.5894 C   0  0  0  0  0  0  0  0  0  0  0  0
    2.2932    1.6050    1.0188 H   0  0  0  0  0  0  0  0  0  0  0  0
    2.6171    1.1731   -0.6876 H   0  0  0  0  0  0  0  0  0  0  0  0
    3.0735   -0.7805    0.8940 H   0  0  0  0  0  0  0  0  0  0  0  0
    1.3944   -0.6851    1.4192 H   0  0  0  0  0  0  0  0  0  0  0  0
    1.7323   -2.4597   -0.3051 H   0  0  0  0  0  0  0  0  0  0  0  0
    0.6228   -1.2151   -0.8800 H   0  0  0  0  0  0  0  0  0  0  0  0
    2.2956   -1.2406   -1.4498 H   0  0  0  0  0  0  0  0  0  0  0  0
  1  2  1  0
  1  6  1  0
  1  7  1  0
  2  3  1  0
  3  4  2  3
  4  8  1  0
  4  9  1  0
  5 10  1  0
 10 11  1  0
 10 13  1  0
 10 14  1  0
 11 12  1  0
 11 15  1  0
 11 16  1  0
 12 17  1  0
 12 18  1  0
 12 19  1  0
M  RAD  1   1   2
M  END
>  <reaction>  (7) 
rmg_rxn_15591

>  <mol_properties>  (7) 
{"0": {"label": "*1", "atom_type": "Cs"}, "1": {"label": "*0", "atom_type": "O2s"}, "4": {"label": "*2", "atom_type": "H0"}, "9": {"label": "*3", "atom_type": "Cs"}, "10": {"label": "*4", "atom_type": "Cs"}}

>  <type>  (7) 
unop_3

>  <geom_source>  (7) 
Heuristics

$$$$

     RDKit          3D

 19 17  0  0  0  0  0  0  0  0999 V2000
    0.4550   -1.6030    0.4524 C   0  0  0  0  0  3  0  0  0  0  0  0
    1.3393   -0.8293   -0.2745 O   0  0  0  0  0  0  0  0  0  0  0  0
    1.5954    0.3893    0.3187 N   0  0  0  0  0  0  0  0  0  0  0  0
    2.3468    1.1724   -0.3299 C   0  0  0  0  0  0  0  0  0  0  0  0
   -0.8118   -1.2712    0.1184 H   0  0  0  0  0  0  0  0  0  0  0  0
    0.5133   -1.4372    1.5249 H   0  0  0  0  0  0  0  0  0  0  0  0
    0.5813   -2.6375    0.1535 H   0  0  0  0  0  0  0  0  0  0  0  0
    2.5550    2.1231    0.1269 H   0  0  0  0  0  0  0  0  0  0  0  0
    2.7845    0.9401   -1.2957 H   0  0  0  0  0  0  0  0  0  0  0  0
   -2.0266   -0.9497   -0.2034 C   0  0  0  0  0  0  0  0  0  0  0  0
   -2.0583    0.5120   -0.5708 C   0  0  0  0  0  0  0  0  0  0  0  0
   -1.6558    1.4092    0.5943 C   0  0  0  0  0  0  0  0  0  0  0  0
   -2.6189   -1.1789    0.6763 H   0  0  0  0  0  0  0  0  0  0  0  0
   -2.2852   -1.6025   -1.0303 H   0  0  0  0  0  0  0  0  0  0  0  0
   -1.3892    0.6906   -1.4166 H   0  0  0  0  0  0  0  0  0  0  0  0
   -3.0705    0.7815   -0.8974 H   0  0  0  0  0  0  0  0  0  0  0  0
   -0.6270    1.2117    0.8874 H   0  0  0  0  0  0  0  0  0  0  0  0
   -1.7366    2.4571    0.3145 H   0  0  0  0  0  0  0  0  0  0  0  0
   -2.3018    1.2316    1.4516 H   0  0  0  0  0  0  0  0  0  0  0  0
  1  2  1  0
  1  6  1  0
  1  7  1  0
  2  3  1  0
  3  4  2  3
  4  8  1  0
  4  9  1  0
  5 10  1  0
 10 11  1  0
 10 13  1  0
 10 14  1  0
 11 12  1  0
 11 15  1  0
 11 16  1  0
 12 17  1  0
 12 18  1  0
 12 19  1  0
M  RAD  1   1   2
M  END
>  <reaction>  (8) 
rmg_rxn_15591

>  <mol_properties>  (8) 
{"0": {"label": "*1", "atom_type": "Cs"}, "1": {"label": "*0", "atom_type": "O2s"}, "4": {"label": "*2", "atom_type": "H0"}, "9": {"label": "*3", "atom_type": "Cs"}, "10": {"label": "*4", "atom_type": "Cs"}}

>  <type>  (8) 
unop_4

>  <geom_source>  (8) 
Heuristics

$$$$

     RDKit          3D

 19 17  0  0  0  0  0  0  0  0999 V2000
   -1.2617    0.5775    0.8911 C   0  0  0  0  0  0  0  0  0  0  0  0
   -1.2617    0.6354   -0.5218 O   0  0  0  0  0  0  0  0  0  0  0  0
   -1.2617   -0.6385   -1.0375 N   0  0  0  0  0  0  0  0  0  0  0  0
   -1.2617   -0.6385   -2.3011 C   0  0  0  0  0  0  0  0  0  0  0  0
   -0.1911   -0.0347    1.3352 H   0  0  0  0  0  0  0  0  0  0  0  0
   -2.1538    0.0673    1.2612 H   0  0  0  0  0  0  0  0  0  0  0  0
   -1.2617    1.6124    1.2289 H   0  0  0  0  0  0  0  0  0  0  0  0
   -1.2617   -1.6056   -2.7859 H   0  0  0  0  0  0  0  0  0  0  0  0
   -1.2617    0.2780   -2.8873 H   0  0  0  0  0  0  0  0  0  0  0  0
    0.8798   -0.6471    1.7795 C   0  0  0  0  0  3  0  0  0  0  0  0
    2.0549   -0.4462    0.8312 C   0  0  0  0  0  0  0  0  0  0  0  0
    2.1457    0.9799    0.3034 C   0  0  0  0  0  0  0  0  0  0  0  0
    0.8316   -1.6737    2.1466 H   0  0  0  0  0  0  0  0  0  0  0  0
    0.9592    0.0146    2.6455 H   0  0  0  0  0  0  0  0  0  0  0  0
    2.9853   -0.7042    1.3446 H   0  0  0  0  0  0  0  0  0  0  0  0
    1.9673   -1.1404   -0.0092 H   0  0  0  0  0  0  0  0  0  0  0  0
    2.2649    1.6929    1.1228 H   0  0  0  0  0  0  0  0  0  0  0  0
    2.9927    1.1040   -0.3735 H   0  0  0  0  0  0  0  0  0  0  0  0
    1.2389    1.2532   -0.2417 H   0  0  0  0  0  0  0  0  0  0  0  0
  1  2  1  0
  1  5  1  0
  1  6  1  0
  1  7  1  0
  2  3  1  0
  3  4  2  3
  4  8  1  0
  4  9  1  0
 10 11  1  0
 10 13  1  0
 10 14  1  0
 11 12  1  0
 11 15  1  0
 11 16  1  0
 12 17  1  0
 12 18  1  0
 12 19  1  0
M  RAD  1  10   2
M  END
>  <reaction>  (9) 
rmg_rxn_15591

>  <mol_properties>  (9) 
{"0": {"label": "*1", "atom_type": "Cs"}, "1": {"label": "*0", "atom_type": "O2s"}, "4": {"label": "*2", "atom_type": "H0"}, "9": {"label": "*3", "atom_type": "Cs"}, "10": {"label": "*4", "atom_type": "Cs"}}

>  <type>  (9) 
unop_5

>  <geom_source>  (9) 
Heuristics

$$$$

     RDKit          3D

 19 17  0  0  0  0  0  0  0  0999 V2000
   -0.9259    1.7000    0.4853 C   0  0  0  0  0  3  0  0  0  0  0  0
   -1.5272    0.7736   -0.2723 O   0  0  0  0  0  0  0  0  0  0  0  0
   -1.6211   -0.4709    0.3043 N   0  0  0  0  0  0  0  0  0  0  0  0
   -2.1428   -1.3734   -0.4240 C   0  0  0  0  0  0  0  0  0  0  0  0
    0.6975   -0.9929    1.0175 H   0  0  0  0  0  0  0  0  0  0  0  0
   -0.6883    1.4820    1.5092 H   0  0  0  0  0  0  0  0  0  0  0  0
   -0.9820    2.6919    0.0857 H   0  0  0  0  0  0  0  0  0  0  0  0
   -2.2219   -2.3515    0.0132 H   0  0  0  0  0  0  0  0  0  0  0  0
   -2.5025   -1.2093   -1.4342 H   0  0  0  0  0  0  0  0  0  0  0  0
    1.7390   -1.2000    0.7622 C   0  0  0  0  0  0  0  0  0  0  0  0
    2.1909   -0.5130   -0.5114 C   0  0  0  0  0  0  0  0  0  0  0  0
    2.2476    1.0001   -0.3414 C   0  0  0  0  0  0  0  0  0  0  0  0
    1.5755   -2.2507    0.6518 H   0  0  0  0  0  0  0  0  0  0  0  0
    2.3896   -0.9921    1.6025 H   0  0  0  0  0  0  0  0  0  0  0  0
    3.1800   -0.8845   -0.7920 H   0  0  0  0  0  0  0  0  0  0  0  0
    1.5019   -0.7605   -1.3223 H   0  0  0  0  0  0  0  0  0  0  0  0
    2.9375    1.2686    0.4559 H   0  0  0  0  0  0  0  0  0  0  0  0
    2.5776    1.4799   -1.2603 H   0  0  0  0  0  0  0  0  0  0  0  0
    1.2582    1.3874   -0.0832 H   0  0  0  0  0  0  0  0  0  0  0  0
  1  2  1  0
  1  6  1  0
  1  7  1  0
  2  3  1  0
  3  4  2  3
  4  8  1  0
  4  9  1  0
  5 10  1  0
 10 11  1  0
 10 13  1  0
 10 14  1  0
 11 12  1  0
 11 15  1  0
 11 16  1  0
 12 17  1  0
 12 18  1  0
 12 19  1  0
M  RAD  1   1   2
M  END
>  <reaction>  (10) 
rmg_rxn_15591

>  <mol_properties>  (10) 
{"0": {"label": "*1", "atom_type": "Cs"}, "1": {"label": "*0", "atom_type": "O2s"}, "4": {"label": "*2", "atom_type": "H0"}, "9": {"label": "*3", "atom_type": "Cs"}, "10": {"label": "*4", "atom_type": "Cs"}}

>  <type>  (10) 
unop_6

>  <geom_source>  (10) 
Heuristics

$$$$

     RDKit          3D

 19 17  0  0  0  0  0  0  0  0999 V2000
   -0.8492    0.6293    0.0327 C   0  0  0  0  0  0  0  0  0  0  0  0
   -0.8492    0.6872   -1.3802 O   0  0  0  0  0  0  0  0  0  0  0  0
   -0.8492   -0.5867   -1.8959 N   0  0  0  0  0  0  0  0  0  0  0  0
   -0.8492   -0.5867   -3.1596 C   0  0  0  0  0  0  0  0  0  0  0  0
    0.2214    0.0171    0.4768 H   0  0  0  0  0  0  0  0  0  0  0  0
   -1.7413    0.1191    0.4028 H   0  0  0  0  0  0  0  0  0  0  0  0
   -0.8492    1.6642    0.3705 H   0  0  0  0  0  0  0  0  0  0  0  0
   -0.8492   -1.5538   -3.6444 H   0  0  0  0  0  0  0  0  0  0  0  0
   -0.8492    0.3298   -3.7457 H   0  0  0  0  0  0  0  0  0  0  0  0
    1.2924   -0.5953    0.9211 C   0  0  0  0  0  3  0  0  0  0  0  0
    1.6966   -0.0617    2.2894 C   0  0  0  0  0  0  0  0  0  0  0  0
    0.5035    0.4071    3.1123 C   0  0  0  0  0  0  0  0  0  0  0  0
    2.1597   -0.9258    0.3471 H   0  0  0  0  0  0  0  0  0  0  0  0
    0.6120   -1.4448    1.0185 H   0  0  0  0  0  0  0  0  0  0  0  0
    2.2349   -0.8390    2.8388 H   0  0  0  0  0  0  0  0  0  0  0  0
    2.4001    0.7661    2.1640 H   0  0  0  0  0  0  0  0  0  0  0  0
   -0.2018   -0.4109    3.2788 H   0  0  0  0  0  0  0  0  0  0  0  0
    0.8129    0.7854    4.0881 H   0  0  0  0  0  0  0  0  0  0  0  0
   -0.0353    1.2070    2.5986 H   0  0  0  0  0  0  0  0  0  0  0  0
  1  2  1  0
  1  5  1  0
  1  6  1  0
  1  7  1  0
  2  3  1  0
  3  4  2  3
  4  8  1  0
  4  9  1  0
 10 11  1  0
 10 13  1  0
 10 14  1  0
 11 12  1  0
 11 15  1  0
 11 16  1  0
 12 17  1  0
 12 18  1  0
 12 19  1  0
M  RAD  1  10   2
M  END
>  <reaction>  (11) 
rmg_rxn_15591

>  <mol_properties>  (11) 
{"0": {"label": "*1", "atom_type": "Cs"}, "1": {"label": "*0", "atom_type": "O2s"}, "4": {"label": "*2", "atom_type": "H0"}, "9": {"label": "*3", "atom_type": "Cs"}, "10": {"label": "*4", "atom_type": "Cs"}}

>  <type>  (11) 
unop_7

>  <geom_source>  (11) 
Heuristics

$$$$

     RDKit          3D

 19 17  0  0  0  0  0  0  0  0999 V2000
   -1.0442    1.2701    0.8840 C   0  0  0  0  0  0  0  0  0  0  0  0
   -1.0442    1.3281   -0.5288 O   0  0  0  0  0  0  0  0  0  0  0  0
   -1.0442    0.0542   -1.0446 N   0  0  0  0  0  0  0  0  0  0  0  0
   -1.0442    0.0542   -2.3082 C   0  0  0  0  0  0  0  0  0  0  0  0
    0.0264    0.6580    1.3282 H   0  0  0  0  0  0  0  0  0  0  0  0
   -1.9363    0.7599    1.2542 H   0  0  0  0  0  0  0  0  0  0  0  0
   -1.0442    2.3050    1.2218 H   0  0  0  0  0  0  0  0  0  0  0  0
   -1.0442   -0.9129   -2.7930 H   0  0  0  0  0  0  0  0  0  0  0  0
   -1.0442    0.9707   -2.8944 H   0  0  0  0  0  0  0  0  0  0  0  0
    1.0974    0.0456    1.7724 C   0  0  0  0  0  3  0  0  0  0  0  0
    1.1673   -1.3815    1.2440 C   0  0  0  0  0  0  0  0  0  0  0  0
    1.9455   -1.4863   -0.0613 C   0  0  0  0  0  0  0  0  0  0  0  0
    0.5366    0.1002    2.7070 H   0  0  0  0  0  0  0  0  0  0  0  0
    2.0982    0.4426    1.9589 H   0  0  0  0  0  0  0  0  0  0  0  0
    1.6302   -2.0260    1.9965 H   0  0  0  0  0  0  0  0  0  0  0  0
    0.1540   -1.7647    1.0955 H   0  0  0  0  0  0  0  0  0  0  0  0
    2.9730   -1.1376    0.0674 H   0  0  0  0  0  0  0  0  0  0  0  0
    1.9845   -2.5150   -0.4236 H   0  0  0  0  0  0  0  0  0  0  0  0
    1.4851   -0.8743   -0.8408 H   0  0  0  0  0  0  0  0  0  0  0  0
  1  2  1  0
  1  5  1  0
  1  6  1  0
  1  7  1  0
  2  3  1  0
  3  4  2  3
  4  8  1  0
  4  9  1  0
 10 11  1  0
 10 13  1  0
 10 14  1  0
 11 12  1  0
 11 15  1  0
 11 16  1  0
 12 17  1  0
 12 18  1  0
 12 19  1  0
M  RAD  1  10   2
M  END
>  <reaction>  (12) 
rmg_rxn_15591

>  <mol_properties>  (12) 
{"0": {"label": "*1", "atom_type": "Cs"}, "1": {"label": "*0", "atom_type": "O2s"}, "4": {"label": "*2", "atom_type": "H0"}, "9": {"label": "*3", "atom_type": "Cs"}, "10": {"label": "*4", "atom_type": "Cs"}}

>  <type>  (12) 
unop_8

>  <geom_source>  (12) 
Heuristics

$$$$

     RDKit          3D

 19 17  0  0  0  0  0  0  0  0999 V2000
    0.4546   -1.6048   -0.4492 C   0  0  0  0  0  3  0  0  0  0  0  0
    1.3372   -0.8288    0.2775 O   0  0  0  0  0  0  0  0  0  0  0  0
    1.5967    0.3869   -0.3201 N   0  0  0  0  0  0  0  0  0  0  0  0
    2.3469    1.1720    0.3276 C   0  0  0  0  0  0  0  0  0  0  0  0
   -0.8130   -1.2712   -0.1203 H   0  0  0  0  0  0  0  0  0  0  0  0
    0.5796   -2.6383   -0.1463 H   0  0  0  0  0  0  0  0  0  0  0  0
    0.5161   -1.4428   -1.5221 H   0  0  0  0  0  0  0  0  0  0  0  0
    2.5573    2.1206   -0.1325 H   0  0  0  0  0  0  0  0  0  0  0  0
    2.7810    0.9436    1.2958 H   0  0  0  0  0  0  0  0  0  0  0  0
   -2.0287   -0.9488    0.1973 C   0  0  0  0  0  0  0  0  0  0  0  0
   -2.0596    0.5116    0.5700 C   0  0  0  0  0  0  0  0  0  0  0  0
   -1.6514    1.4124   -0.5902 C   0  0  0  0  0  0  0  0  0  0  0  0
   -2.2923   -1.6042    1.0205 H   0  0  0  0  0  0  0  0  0  0  0  0
   -2.6173   -1.1736   -0.6861 H   0  0  0  0  0  0  0  0  0  0  0  0
   -3.0726    0.7814    0.8939 H   0  0  0  0  0  0  0  0  0  0  0  0
   -1.3934    0.6860    1.4190 H   0  0  0  0  0  0  0  0  0  0  0  0
   -1.7312    2.4595   -0.3066 H   0  0  0  0  0  0  0  0  0  0  0  0
   -0.6219    1.2142   -0.8807 H   0  0  0  0  0  0  0  0  0  0  0  0
   -2.2948    1.2395   -1.4504 H   0  0  0  0  0  0  0  0  0  0  0  0
  1  2  1  0
  1  6  1  0
  1  7  1  0
  2  3  1  0
  3  4  2  3
  4  8  1  0
  4  9  1  0
  5 10  1  0
 10 11  1  0
 10 13  1  0
 10 14  1  0
 11 12  1  0
 11 15  1  0
 11 16  1  0
 12 17  1  0
 12 18  1  0
 12 19  1  0
M  RAD  1   1   2
M  END
>  <reaction>  (13) 
rmg_rxn_15591

>  <mol_properties>  (13) 
{"0": {"label": "*1", "atom_type": "Cs"}, "1": {"label": "*0", "atom_type": "O2s"}, "4": {"label": "*2", "atom_type": "H0"}, "9": {"label": "*3", "atom_type": "Cs"}, "10": {"label": "*4", "atom_type": "Cs"}}

>  <type>  (13) 
unop_9

>  <geom_source>  (13) 
Heuristics

$$$$

     RDKit          3D

 19 17  0  0  0  0  0  0  0  0999 V2000
   -0.7357    0.9744    0.0303 C   0  0  0  0  0  0  0  0  0  0  0  0
   -0.7357    1.0324   -1.3826 O   0  0  0  0  0  0  0  0  0  0  0  0
   -0.7357   -0.2415   -1.8983 N   0  0  0  0  0  0  0  0  0  0  0  0
   -0.7357   -0.2415   -3.1620 C   0  0  0  0  0  0  0  0  0  0  0  0
    0.3349    0.3623    0.4744 H   0  0  0  0  0  0  0  0  0  0  0  0
   -1.6278    0.4642    0.4004 H   0  0  0  0  0  0  0  0  0  0  0  0
   -0.7357    2.0093    0.3681 H   0  0  0  0  0  0  0  0  0  0  0  0
   -0.7357   -1.2086   -3.6468 H   0  0  0  0  0  0  0  0  0  0  0  0
   -0.7357    0.6750   -3.7481 H   0  0  0  0  0  0  0  0  0  0  0  0
    1.4059   -0.2501    0.9187 C   0  0  0  0  0  3  0  0  0  0  0  0
    1.4056   -0.3124    2.4407 C   0  0  0  0  0  0  0  0  0  0  0  0
    0.1972   -1.0543    2.9974 C   0  0  0  0  0  0  0  0  0  0  0  0
    2.2783    0.2845    0.5392 H   0  0  0  0  0  0  0  0  0  0  0  0
    1.4144   -1.2538    0.4867 H   0  0  0  0  0  0  0  0  0  0  0  0
    2.3222   -0.7993    2.7853 H   0  0  0  0  0  0  0  0  0  0  0  0
    1.4282    0.7028    2.8466 H   0  0  0  0  0  0  0  0  0  0  0  0
    0.1677   -2.0833    2.6309 H   0  0  0  0  0  0  0  0  0  0  0  0
    0.2148   -1.0883    4.0881 H   0  0  0  0  0  0  0  0  0  0  0  0
   -0.7333   -0.5693    2.6927 H   0  0  0  0  0  0  0  0  0  0  0  0
  1  2  1  0
  1  5  1  0
  1  6  1  0
  1  7  1  0
  2  3  1  0
  3  4  2  3
  4  8  1  0
  4  9  1  0
 10 11  1  0
 10 13  1  0
 10 14  1  0
 11 12  1  0
 11 15  1  0
 11 16  1  0
 12 17  1  0
 12 18  1  0
 12 19  1  0
M  RAD  1  10   2
M  END
>  <reaction>  (14) 
rmg_rxn_15591

>  <mol_properties>  (14) 
{"0": {"label": "*1", "atom_type": "Cs"}, "1": {"label": "*0", "atom_type": "O2s"}, "4": {"label": "*2", "atom_type": "H0"}, "9": {"label": "*3", "atom_type": "Cs"}, "10": {"label": "*4", "atom_type": "Cs"}}

>  <type>  (14) 
unop_10

>  <geom_source>  (14) 
Heuristics

$$$$

     RDKit          3D

 19 17  0  0  0  0  0  0  0  0999 V2000
   -0.9092    1.6588   -0.5046 C   0  0  0  0  0  3  0  0  0  0  0  0
   -1.5799    0.7708    0.2447 O   0  0  0  0  0  0  0  0  0  0  0  0
   -1.6357   -0.4973   -0.2845 N   0  0  0  0  0  0  0  0  0  0  0  0
   -2.2222   -1.3659    0.4344 C   0  0  0  0  0  0  0  0  0  0  0  0
    1.1372    1.3179    0.1719 H   0  0  0  0  0  0  0  0  0  0  0  0
   -0.6449    1.4050   -1.5145 H   0  0  0  0  0  0  0  0  0  0  0  0
   -1.0007    2.6689   -0.1588 H   0  0  0  0  0  0  0  0  0  0  0  0
   -2.2716   -2.3611    0.0325 H   0  0  0  0  0  0  0  0  0  0  0  0
   -2.6631   -1.1582    1.4035 H   0  0  0  0  0  0  0  0  0  0  0  0
    2.1701    1.0150    0.3943 C   0  0  0  0  0  0  0  0  0  0  0  0
    2.3475   -0.4874    0.4788 C   0  0  0  0  0  0  0  0  0  0  0  0
    1.7970   -1.1964   -0.7523 C   0  0  0  0  0  0  0  0  0  0  0  0
    2.5444    1.5377    1.2655 H   0  0  0  0  0  0  0  0  0  0  0  0
    2.5484    1.4439   -0.5094 H   0  0  0  0  0  0  0  0  0  0  0  0
    3.4109   -0.7173    0.5869 H   0  0  0  0  0  0  0  0  0  0  0  0
    1.8369   -0.8607    1.3699 H   0  0  0  0  0  0  0  0  0  0  0  0
    2.2888   -0.8315   -1.6519 H   0  0  0  0  0  0  0  0  0  0  0  0
    1.9633   -2.2691   -0.6822 H   0  0  0  0  0  0  0  0  0  0  0  0
    0.7271   -1.0222   -0.8467 H   0  0  0  0  0  0  0  0  0  0  0  0
  1  2  1  0
  1  6  1  0
  1  7  1  0
  2  3  1  0
  3  4  2  3
  4  8  1  0
  4  9  1  0
  5 10  1  0
 10 11  1  0
 10 13  1  0
 10 14  1  0
 11 12  1  0
 11 15  1  0
 11 16  1  0
 12 17  1  0
 12 18  1  0
 12 19  1  0
M  RAD  1   1   2
M  END
>  <reaction>  (15) 
rmg_rxn_15591

>  <mol_properties>  (15) 
{"0": {"label": "*1", "atom_type": "Cs"}, "1": {"label": "*0", "atom_type": "O2s"}, "4": {"label": "*2", "atom_type": "H0"}, "9": {"label": "*3", "atom_type": "Cs"}, "10": {"label": "*4", "atom_type": "Cs"}}

>  <type>  (15) 
unop_11

>  <geom_source>  (15) 
Heuristics

$$$$

     RDKit          3D

 19 17  0  0  0  0  0  0  0  0999 V2000
   -0.9203    1.3887    0.6759 C   0  0  0  0  0  0  0  0  0  0  0  0
   -0.9203    1.4466   -0.7370 O   0  0  0  0  0  0  0  0  0  0  0  0
   -0.9203    0.1727   -1.2528 N   0  0  0  0  0  0  0  0  0  0  0  0
   -0.9203    0.1727   -2.5164 C   0  0  0  0  0  0  0  0  0  0  0  0
    0.1503    0.7765    1.1200 H   0  0  0  0  0  0  0  0  0  0  0  0
   -1.8124    0.8785    1.0460 H   0  0  0  0  0  0  0  0  0  0  0  0
   -0.9203    2.4236    1.0137 H   0  0  0  0  0  0  0  0  0  0  0  0
   -0.9203   -0.7944   -3.0012 H   0  0  0  0  0  0  0  0  0  0  0  0
   -0.9203    1.0892   -3.1025 H   0  0  0  0  0  0  0  0  0  0  0  0
    1.2213    0.1641    1.5643 C   0  0  0  0  0  3  0  0  0  0  0  0
    0.9763   -1.3335    1.6978 C   0  0  0  0  0  0  0  0  0  0  0  0
    1.5216   -2.1249    0.5159 C   0  0  0  0  0  0  0  0  0  0  0  0
    0.8240    0.7134    2.4195 H   0  0  0  0  0  0  0  0  0  0  0  0
    2.2901    0.3804    1.4948 H   0  0  0  0  0  0  0  0  0  0  0  0
    1.4352   -1.6964    2.6217 H   0  0  0  0  0  0  0  0  0  0  0  0
   -0.0968   -1.5194    1.7964 H   0  0  0  0  0  0  0  0  0  0  0  0
    2.5999   -1.9807    0.4134 H   0  0  0  0  0  0  0  0  0  0  0  0
    1.3367   -3.1944    0.6298 H   0  0  0  0  0  0  0  0  0  0  0  0
    1.0559   -1.8023   -0.4184 H   0  0  0  0  0  0  0  0  0  0  0  0
  1  2  1  0
  1  5  1  0
  1  6  1  0
  1  7  1  0
  2  3  1  0
  3  4  2  3
  4  8  1  0
  4  9  1  0
 10 11  1  0
 10 13  1  0
 10 14  1  0
 11 12  1  0
 11 15  1  0
 11 16  1  0
 12 17  1  0
 12 18  1  0
 12 19  1  0
M  RAD  1  10   2
M  END
>  <reaction>  (16) 
rmg_rxn_15591

>  <mol_properties>  (16) 
{"0": {"label": "*1", "atom_type": "Cs"}, "1": {"label": "*0", "atom_type": "O2s"}, "4": {"label": "*2", "atom_type": "H0"}, "9": {"label": "*3", "atom_type": "Cs"}, "10": {"label": "*4", "atom_type": "Cs"}}

>  <type>  (16) 
unop_12

>  <geom_source>  (16) 
Heuristics

$$$$

     RDKit          3D

 19 17  0  0  0  0  0  0  0  0999 V2000
   -0.9084    1.6608   -0.5005 C   0  0  0  0  0  3  0  0  0  0  0  0
   -1.5797    0.7717    0.2468 O   0  0  0  0  0  0  0  0  0  0  0  0
   -1.6375   -0.4950   -0.2855 N   0  0  0  0  0  0  0  0  0  0  0  0
   -2.2243   -1.3647    0.4319 C   0  0  0  0  0  0  0  0  0  0  0  0
    1.1415    1.3183    0.1737 H   0  0  0  0  0  0  0  0  0  0  0  0
   -0.6430    1.4088   -1.5106 H   0  0  0  0  0  0  0  0  0  0  0  0
   -0.9983    2.6701   -0.1520 H   0  0  0  0  0  0  0  0  0  0  0  0
   -2.2753   -2.3589    0.0280 H   0  0  0  0  0  0  0  0  0  0  0  0
   -2.6639   -1.1585    1.4020 H   0  0  0  0  0  0  0  0  0  0  0  0
    2.1766    1.0148    0.3862 C   0  0  0  0  0  0  0  0  0  0  0  0
    2.3513   -0.4877    0.4771 C   0  0  0  0  0  0  0  0  0  0  0  0
    1.7894   -1.2018   -0.7458 C   0  0  0  0  0  0  0  0  0  0  0  0
    2.5604    1.5406    1.2514 H   0  0  0  0  0  0  0  0  0  0  0  0
    2.5499    1.4375   -0.5228 H   0  0  0  0  0  0  0  0  0  0  0  0
    3.4150   -0.7194    0.5778 H   0  0  0  0  0  0  0  0  0  0  0  0
    1.8473   -0.8551    1.3742 H   0  0  0  0  0  0  0  0  0  0  0  0
    0.7194   -1.0251   -0.8332 H   0  0  0  0  0  0  0  0  0  0  0  0
    2.2753   -0.8434   -1.6511 H   0  0  0  0  0  0  0  0  0  0  0  0
    1.9532   -2.2746   -0.6710 H   0  0  0  0  0  0  0  0  0  0  0  0
  1  2  1  0
  1  6  1  0
  1  7  1  0
  2  3  1  0
  3  4  2  3
  4  8  1  0
  4  9  1  0
  5 10  1  0
 10 11  1  0
 10 13  1  0
 10 14  1  0
 11 12  1  0
 11 15  1  0
 11 16  1  0
 12 17  1  0
 12 18  1  0
 12 19  1  0
M  RAD  1   1   2
M  END
>  <reaction>  (17) 
rmg_rxn_15591

>  <mol_properties>  (17) 
{"0": {"label": "*1", "atom_type": "Cs"}, "1": {"label": "*0", "atom_type": "O2s"}, "4": {"label": "*2", "atom_type": "H0"}, "9": {"label": "*3", "atom_type": "Cs"}, "10": {"label": "*4", "atom_type": "Cs"}}

>  <type>  (17) 
unop_13

>  <geom_source>  (17) 
Heuristics

$$$$

     RDKit          3D

 19 17  0  0  0  0  0  0  0  0999 V2000
   -0.8218    1.3842    0.4287 C   0  0  0  0  0  0  0  0  0  0  0  0
   -0.8219    1.4421   -0.9842 O   0  0  0  0  0  0  0  0  0  0  0  0
   -0.8219    0.1682   -1.4999 N   0  0  0  0  0  0  0  0  0  0  0  0
   -0.8219    0.1682   -2.7635 C   0  0  0  0  0  0  0  0  0  0  0  0
    0.2488    0.7720    0.8728 H   0  0  0  0  0  0  0  0  0  0  0  0
   -1.7140    0.8740    0.7988 H   0  0  0  0  0  0  0  0  0  0  0  0
   -0.8219    2.4191    0.7665 H   0  0  0  0  0  0  0  0  0  0  0  0
   -0.8219   -0.7988   -3.2484 H   0  0  0  0  0  0  0  0  0  0  0  0
   -0.8218    1.0847   -3.3497 H   0  0  0  0  0  0  0  0  0  0  0  0
    1.3197    0.1596    1.3171 C   0  0  0  0  0  3  0  0  0  0  0  0
    0.9446   -1.0753    2.1263 C   0  0  0  0  0  0  0  0  0  0  0  0
    1.0613   -2.3626    1.3202 C   0  0  0  0  0  0  0  0  0  0  0  0
    1.2300    1.0708    1.9109 H   0  0  0  0  0  0  0  0  0  0  0  0
    2.3499    0.0938    0.9588 H   0  0  0  0  0  0  0  0  0  0  0  0
    1.5854   -1.1399    3.0100 H   0  0  0  0  0  0  0  0  0  0  0  0
   -0.0784   -0.9701    2.4980 H   0  0  0  0  0  0  0  0  0  0  0  0
    2.0834   -2.5080    0.9620 H   0  0  0  0  0  0  0  0  0  0  0  0
    0.7888   -3.2353    1.9162 H   0  0  0  0  0  0  0  0  0  0  0  0
    0.4064   -2.3368    0.4459 H   0  0  0  0  0  0  0  0  0  0  0  0
  1  2  1  0
  1  5  1  0
  1  6  1  0
  1  7  1  0
  2  3  1  0
  3  4  2  3
  4  8  1  0
  4  9  1  0
 10 11  1  0
 10 13  1  0
 10 14  1  0
 11 12  1  0
 11 15  1  0
 11 16  1  0
 12 17  1  0
 12 18  1  0
 12 19  1  0
M  RAD  1  10   2
M  END
>  <reaction>  (18) 
rmg_rxn_15591

>  <mol_properties>  (18) 
{"0": {"label": "*1", "atom_type": "Cs"}, "1": {"label": "*0", "atom_type": "O2s"}, "4": {"label": "*2", "atom_type": "H0"}, "9": {"label": "*3", "atom_type": "Cs"}, "10": {"label": "*4", "atom_type": "Cs"}}

>  <type>  (18) 
unop_14

>  <geom_source>  (18) 
Heuristics

$$$$

     RDKit          3D

 19 17  0  0  0  0  0  0  0  0999 V2000
   -0.9341   -1.6995   -0.4862 C   0  0  0  0  0  3  0  0  0  0  0  0
   -1.5321   -0.7709    0.2713 O   0  0  0  0  0  0  0  0  0  0  0  0
   -1.6174    0.4749   -0.3037 N   0  0  0  0  0  0  0  0  0  0  0  0
   -2.1335    1.3798    0.4257 C   0  0  0  0  0  0  0  0  0  0  0  0
    0.6981    0.9965   -1.0125 H   0  0  0  0  0  0  0  0  0  0  0  0
   -0.6937   -1.4818   -1.5095 H   0  0  0  0  0  0  0  0  0  0  0  0
   -0.9965   -2.6917   -0.0881 H   0  0  0  0  0  0  0  0  0  0  0  0
   -2.2062    2.3591   -0.0101 H   0  0  0  0  0  0  0  0  0  0  0  0
   -2.4946    1.2164    1.4355 H   0  0  0  0  0  0  0  0  0  0  0  0
    1.7434    1.1950   -0.7648 C   0  0  0  0  0  0  0  0  0  0  0  0
    2.1959    0.5094    0.5094 C   0  0  0  0  0  0  0  0  0  0  0  0
    2.2389   -1.0047    0.3456 C   0  0  0  0  0  0  0  0  0  0  0  0
    1.5955    2.2486   -0.6589 H   0  0  0  0  0  0  0  0  0  0  0  0
    2.3863    0.9742   -1.6079 H   0  0  0  0  0  0  0  0  0  0  0  0
    3.1894    0.8734    0.7838 H   0  0  0  0  0  0  0  0  0  0  0  0
    1.5130    0.7662    1.3225 H   0  0  0  0  0  0  0  0  0  0  0  0
    2.9233   -1.2824   -0.4533 H   0  0  0  0  0  0  0  0  0  0  0  0
    2.5686   -1.4835    1.2651 H   0  0  0  0  0  0  0  0  0  0  0  0
    1.2454   -1.3850    0.0928 H   0  0  0  0  0  0  0  0  0  0  0  0
  1  2  1  0
  1  6  1  0
  1  7  1  0
  2  3  1  0
  3  4  2  3
  4  8  1  0
  4  9  1  0
  5 10  1  0
 10 11  1  0
 10 13  1  0
 10 14  1  0
 11 12  1  0
 11 15  1  0
 11 16  1  0
 12 17  1  0
 12 18  1  0
 12 19  1  0
M  RAD  1   1   2
M  END
>  <reaction>  (19) 
rmg_rxn_15591

>  <mol_properties>  (19) 
{"0": {"label": "*1", "atom_type": "Cs"}, "1": {"label": "*0", "atom_type": "O2s"}, "4": {"label": "*2", "atom_type": "H0"}, "9": {"label": "*3", "atom_type": "Cs"}, "10": {"label": "*4", "atom_type": "Cs"}}

>  <type>  (19) 
unop_15

>  <geom_source>  (19) 
Heuristics

$$$$

     RDKit          3D

 19 17  0  0  0  0  0  0  0  0999 V2000
   -1.1603    0.3527    0.4501 C   0  0  0  0  0  0  0  0  0  0  0  0
   -1.1603    0.4106   -0.9628 O   0  0  0  0  0  0  0  0  0  0  0  0
   -1.1603   -0.8633   -1.4785 N   0  0  0  0  0  0  0  0  0  0  0  0
   -1.1603   -0.8633   -2.7421 C   0  0  0  0  0  0  0  0  0  0  0  0
   -0.0897   -0.2595    0.8942 H   0  0  0  0  0  0  0  0  0  0  0  0
   -2.0524   -0.1575    0.8202 H   0  0  0  0  0  0  0  0  0  0  0  0
   -1.1603    1.3876    0.7879 H   0  0  0  0  0  0  0  0  0  0  0  0
   -1.1603   -1.8303   -3.2270 H   0  0  0  0  0  0  0  0  0  0  0  0
   -1.1603    0.0532   -3.3283 H   0  0  0  0  0  0  0  0  0  0  0  0
    0.9812   -0.8719    1.3385 C   0  0  0  0  0  3  0  0  0  0  0  0
    2.1158    0.1170    1.5740 C   0  0  0  0  0  0  0  0  0  0  0  0
    1.6226    1.5501    1.7278 C   0  0  0  0  0  0  0  0  0  0  0  0
    1.3540   -1.8919    1.2309 H   0  0  0  0  0  0  0  0  0  0  0  0
    0.2738   -0.8602    2.1712 H   0  0  0  0  0  0  0  0  0  0  0  0
    2.6727   -0.1743    2.4688 H   0  0  0  0  0  0  0  0  0  0  0  0
    2.8241    0.0631    0.7426 H   0  0  0  0  0  0  0  0  0  0  0  0
    0.9353    1.6380    2.5728 H   0  0  0  0  0  0  0  0  0  0  0  0
    2.4489    2.2429    1.8956 H   0  0  0  0  0  0  0  0  0  0  0  0
    1.0878    1.8773    0.8329 H   0  0  0  0  0  0  0  0  0  0  0  0
  1  2  1  0
  1  5  1  0
  1  6  1  0
  1  7  1  0
  2  3  1  0
  3  4  2  3
  4  8  1  0
  4  9  1  0
 10 11  1  0
 10 13  1  0
 10 14  1  0
 11 12  1  0
 11 15  1  0
 11 16  1  0
 12 17  1  0
 12 18  1  0
 12 19  1  0
M  RAD  1  10   2
M  END
>  <reaction>  (20) 
rmg_rxn_15591

>  <mol_properties>  (20) 
{"0": {"label": "*1", "atom_type": "Cs"}, "1": {"label": "*0", "atom_type": "O2s"}, "4": {"label": "*2", "atom_type": "H0"}, "9": {"label": "*3", "atom_type": "Cs"}, "10": {"label": "*4", "atom_type": "Cs"}}

>  <type>  (20) 
unop_16

>  <geom_source>  (20) 
Heuristics

$$$$

     RDKit          3D

 19 17  0  0  0  0  0  0  0  0999 V2000
   -0.4547   -1.6034   -0.4515 C   0  0  0  0  0  3  0  0  0  0  0  0
   -1.3388   -0.8292    0.2753 O   0  0  0  0  0  0  0  0  0  0  0  0
   -1.5959    0.3886   -0.3190 N   0  0  0  0  0  0  0  0  0  0  0  0
   -2.3472    1.1721    0.3293 C   0  0  0  0  0  0  0  0  0  0  0  0
    0.8123   -1.2710   -0.1191 H   0  0  0  0  0  0  0  0  0  0  0  0
   -0.5139   -1.4386   -1.5241 H   0  0  0  0  0  0  0  0  0  0  0  0
   -0.5806   -2.6376   -0.1515 H   0  0  0  0  0  0  0  0  0  0  0  0
   -2.5559    2.1223   -0.1282 H   0  0  0  0  0  0  0  0  0  0  0  0
   -2.7841    0.9407    1.2957 H   0  0  0  0  0  0  0  0  0  0  0  0
    2.0274   -0.9494    0.2017 C   0  0  0  0  0  0  0  0  0  0  0  0
    2.0594    0.5120    0.5704 C   0  0  0  0  0  0  0  0  0  0  0  0
    1.6543    1.4101   -0.5930 C   0  0  0  0  0  0  0  0  0  0  0  0
    2.6184   -1.1777   -0.6791 H   0  0  0  0  0  0  0  0  0  0  0  0
    2.2873   -1.6030    1.0275 H   0  0  0  0  0  0  0  0  0  0  0  0
    1.3920    0.6896    1.4177 H   0  0  0  0  0  0  0  0  0  0  0  0
    3.0722    0.7814    0.8951 H   0  0  0  0  0  0  0  0  0  0  0  0
    2.2984    1.2335   -1.4519 H   0  0  0  0  0  0  0  0  0  0  0  0
    0.6248    1.2128   -0.8841 H   0  0  0  0  0  0  0  0  0  0  0  0
    1.7356    2.4578   -0.3124 H   0  0  0  0  0  0  0  0  0  0  0  0
  1  2  1  0
  1  6  1  0
  1  7  1  0
  2  3  1  0
  3  4  2  3
  4  8  1  0
  4  9  1  0
  5 10  1  0
 10 11  1  0
 10 13  1  0
 10 14  1  0
 11 12  1  0
 11 15  1  0
 11 16  1  0
 12 17  1  0
 12 18  1  0
 12 19  1  0
M  RAD  1   1   2
M  END
>  <reaction>  (21) 
rmg_rxn_15591

>  <mol_properties>  (21) 
{"0": {"label": "*1", "atom_type": "Cs"}, "1": {"label": "*0", "atom_type": "O2s"}, "4": {"label": "*2", "atom_type": "H0"}, "9": {"label": "*3", "atom_type": "Cs"}, "10": {"label": "*4", "atom_type": "Cs"}}

>  <type>  (21) 
unop_17

>  <geom_source>  (21) 
Heuristics

$$$$

     RDKit          3D

 19 17  0  0  0  0  0  0  0  0999 V2000
   -1.1607    1.0551    1.0005 C   0  0  0  0  0  0  0  0  0  0  0  0
   -1.1607    1.1130   -0.4124 O   0  0  0  0  0  0  0  0  0  0  0  0
   -1.1607   -0.1609   -0.9281 N   0  0  0  0  0  0  0  0  0  0  0  0
   -1.1607   -0.1609   -2.1917 C   0  0  0  0  0  0  0  0  0  0  0  0
   -0.0901    0.4429    1.4446 H   0  0  0  0  0  0  0  0  0  0  0  0
   -2.0528    0.5449    1.3706 H   0  0  0  0  0  0  0  0  0  0  0  0
   -1.1607    2.0900    1.3383 H   0  0  0  0  0  0  0  0  0  0  0  0
   -1.1607   -1.1280   -2.6766 H   0  0  0  0  0  0  0  0  0  0  0  0
   -1.1607    0.7556   -2.7779 H   0  0  0  0  0  0  0  0  0  0  0  0
    0.9808   -0.1695    1.8889 C   0  0  0  0  0  3  0  0  0  0  0  0
    1.4662   -1.2118    0.8896 C   0  0  0  0  0  0  0  0  0  0  0  0
    2.2211   -0.5954   -0.2811 C   0  0  0  0  0  0  0  0  0  0  0  0
    0.4429   -0.6299    2.7194 H   0  0  0  0  0  0  0  0  0  0  0  0
    1.8200    0.3934    2.3047 H   0  0  0  0  0  0  0  0  0  0  0  0
    2.1112   -1.9325    1.3997 H   0  0  0  0  0  0  0  0  0  0  0  0
    0.6115   -1.7804    0.5127 H   0  0  0  0  0  0  0  0  0  0  0  0
    3.0994   -0.0458    0.0663 H   0  0  0  0  0  0  0  0  0  0  0  0
    2.5604   -1.3569   -0.9853 H   0  0  0  0  0  0  0  0  0  0  0  0
    1.5878    0.1075   -0.8277 H   0  0  0  0  0  0  0  0  0  0  0  0
  1  2  1  0
  1  5  1  0
  1  6  1  0
  1  7  1  0
  2  3  1  0
  3  4  2  3
  4  8  1  0
  4  9  1  0
 10 11  1  0
 10 13  1  0
 10 14  1  0
 11 12  1  0
 11 15  1  0
 11 16  1  0
 12 17  1  0
 12 18  1  0
 12 19  1  0
M  RAD  1  10   2
M  END
>  <reaction>  (22) 
rmg_rxn_15591

>  <mol_properties>  (22) 
{"0": {"label": "*1", "atom_type": "Cs"}, "1": {"label": "*0", "atom_type": "O2s"}, "4": {"label": "*2", "atom_type": "H0"}, "9": {"label": "*3", "atom_type": "Cs"}, "10": {"label": "*4", "atom_type": "Cs"}}

>  <type>  (22) 
unop_18

>  <geom_source>  (22) 
Heuristics

$$$$

     RDKit          3D

 19 17  0  0  0  0  0  0  0  0999 V2000
   -1.2395    0.4172    0.6969 C   0  0  0  0  0  0  0  0  0  0  0  0
   -1.2395    0.4751   -0.7160 O   0  0  0  0  0  0  0  0  0  0  0  0
   -1.2395   -0.7988   -1.2317 N   0  0  0  0  0  0  0  0  0  0  0  0
   -1.2395   -0.7988   -2.4954 C   0  0  0  0  0  0  0  0  0  0  0  0
   -0.1689   -0.1950    1.1410 H   0  0  0  0  0  0  0  0  0  0  0  0
   -2.1317   -0.0930    1.0670 H   0  0  0  0  0  0  0  0  0  0  0  0
   -1.2396    1.4521    1.0347 H   0  0  0  0  0  0  0  0  0  0  0  0
   -1.2396   -1.7659   -2.9802 H   0  0  0  0  0  0  0  0  0  0  0  0
   -1.2395    0.1177   -3.0815 H   0  0  0  0  0  0  0  0  0  0  0  0
    0.9020   -0.8074    1.5853 C   0  0  0  0  0  3  0  0  0  0  0  0
    2.1667   -0.0811    1.1451 C   0  0  0  0  0  0  0  0  0  0  0  0
    1.9442    1.4117    0.9386 C   0  0  0  0  0  0  0  0  0  0  0  0
    1.0812   -1.8744    1.7279 H   0  0  0  0  0  0  0  0  0  0  0  0
    0.5269   -0.4021    2.5282 H   0  0  0  0  0  0  0  0  0  0  0  0
    2.9517   -0.2324    1.8913 H   0  0  0  0  0  0  0  0  0  0  0  0
    2.5376   -0.5257    0.2174 H   0  0  0  0  0  0  0  0  0  0  0  0
    1.6019    1.8869    1.8611 H   0  0  0  0  0  0  0  0  0  0  0  0
    2.8605    1.9140    0.6239 H   0  0  0  0  0  0  0  0  0  0  0  0
    1.1845    1.5913    0.1740 H   0  0  0  0  0  0  0  0  0  0  0  0
  1  2  1  0
  1  5  1  0
  1  6  1  0
  1  7  1  0
  2  3  1  0
  3  4  2  3
  4  8  1  0
  4  9  1  0
 10 11  1  0
 10 13  1  0
 10 14  1  0
 11 12  1  0
 11 15  1  0
 11 16  1  0
 12 17  1  0
 12 18  1  0
 12 19  1  0
M  RAD  1  10   2
M  END
>  <reaction>  (23) 
rmg_rxn_15591

>  <mol_properties>  (23) 
{"0": {"label": "*1", "atom_type": "Cs"}, "1": {"label": "*0", "atom_type": "O2s"}, "4": {"label": "*2", "atom_type": "H0"}, "9": {"label": "*3", "atom_type": "Cs"}, "10": {"label": "*4", "atom_type": "Cs"}}

>  <type>  (23) 
unop_19

>  <geom_source>  (23) 
Heuristics

$$$$

     RDKit          3D

 19 17  0  0  0  0  0  0  0  0999 V2000
   -0.7564    1.2538    0.1972 C   0  0  0  0  0  0  0  0  0  0  0  0
   -0.7564    1.3118   -1.2156 O   0  0  0  0  0  0  0  0  0  0  0  0
   -0.7564    0.0379   -1.7314 N   0  0  0  0  0  0  0  0  0  0  0  0
   -0.7564    0.0379   -2.9950 C   0  0  0  0  0  0  0  0  0  0  0  0
    0.3142    0.6417    0.6414 H   0  0  0  0  0  0  0  0  0  0  0  0
   -1.6486    0.7436    0.5674 H   0  0  0  0  0  0  0  0  0  0  0  0
   -0.7565    2.2887    0.5351 H   0  0  0  0  0  0  0  0  0  0  0  0
   -0.7565   -0.9292   -3.4798 H   0  0  0  0  0  0  0  0  0  0  0  0
   -0.7564    0.9544   -3.5811 H   0  0  0  0  0  0  0  0  0  0  0  0
    1.3851    0.0293    1.0856 C   0  0  0  0  0  3  0  0  0  0  0  0
    1.0996   -0.6803    2.4030 C   0  0  0  0  0  0  0  0  0  0  0  0
    0.5821   -2.0993    2.2050 C   0  0  0  0  0  0  0  0  0  0  0  0
    1.7545    1.0432    1.2480 H   0  0  0  0  0  0  0  0  0  0  0  0
    2.1365   -0.5118    0.5054 H   0  0  0  0  0  0  0  0  0  0  0  0
    2.0106   -0.7061    3.0075 H   0  0  0  0  0  0  0  0  0  0  0  0
    0.3690   -0.1031    2.9765 H   0  0  0  0  0  0  0  0  0  0  0  0
    1.3082   -2.7074    1.6600 H   0  0  0  0  0  0  0  0  0  0  0  0
    0.3836   -2.5907    3.1590 H   0  0  0  0  0  0  0  0  0  0  0  0
   -0.3463   -2.0997    1.6288 H   0  0  0  0  0  0  0  0  0  0  0  0
  1  2  1  0
  1  5  1  0
  1  6  1  0
  1  7  1  0
  2  3  1  0
  3  4  2  3
  4  8  1  0
  4  9  1  0
 10 11  1  0
 10 13  1  0
 10 14  1  0
 11 12  1  0
 11 15  1  0
 11 16  1  0
 12 17  1  0
 12 18  1  0
 12 19  1  0
M  RAD  1  10   2
M  END
>  <reaction>  (24) 
rmg_rxn_15591

>  <mol_properties>  (24) 
{"0": {"label": "*1", "atom_type": "Cs"}, "1": {"label": "*0", "atom_type": "O2s"}, "4": {"label": "*2", "atom_type": "H0"}, "9": {"label": "*3", "atom_type": "Cs"}, "10": {"label": "*4", "atom_type": "Cs"}}

>  <type>  (24) 
unop_20

>  <geom_source>  (24) 
Heuristics

$$$$

     RDKit          3D

 19 17  0  0  0  0  0  0  0  0999 V2000
   -1.2360    0.8030    0.9999 C   0  0  0  0  0  0  0  0  0  0  0  0
   -1.2360    0.8609   -0.4129 O   0  0  0  0  0  0  0  0  0  0  0  0
   -1.2360   -0.4130   -0.9287 N   0  0  0  0  0  0  0  0  0  0  0  0
   -1.2360   -0.4130   -2.1923 C   0  0  0  0  0  0  0  0  0  0  0  0
   -0.1654    0.1908    1.4441 H   0  0  0  0  0  0  0  0  0  0  0  0
   -2.1281    0.2928    1.3701 H   0  0  0  0  0  0  0  0  0  0  0  0
   -1.2360    1.8379    1.3377 H   0  0  0  0  0  0  0  0  0  0  0  0
   -1.2360   -1.3801   -2.6771 H   0  0  0  0  0  0  0  0  0  0  0  0
   -1.2360    0.5035   -2.7785 H   0  0  0  0  0  0  0  0  0  0  0  0
    0.9056   -0.4216    1.8883 C   0  0  0  0  0  3  0  0  0  0  0  0
    1.7954   -0.8680    0.7353 C   0  0  0  0  0  0  0  0  0  0  0  0
    2.2657    0.2959   -0.1276 C   0  0  0  0  0  0  0  0  0  0  0  0
    0.5792   -1.2685    2.4943 H   0  0  0  0  0  0  0  0  0  0  0  0
    1.4350    0.2744    2.5435 H   0  0  0  0  0  0  0  0  0  0  0  0
    2.6638   -1.4018    1.1312 H   0  0  0  0  0  0  0  0  0  0  0  0
    1.2531   -1.5860    0.1139 H   0  0  0  0  0  0  0  0  0  0  0  0
    2.8380    1.0146    0.4641 H   0  0  0  0  0  0  0  0  0  0  0  0
    2.9011   -0.0435   -0.9473 H   0  0  0  0  0  0  0  0  0  0  0  0
    1.4161    0.8289   -0.5614 H   0  0  0  0  0  0  0  0  0  0  0  0
  1  2  1  0
  1  5  1  0
  1  6  1  0
  1  7  1  0
  2  3  1  0
  3  4  2  3
  4  8  1  0
  4  9  1  0
 10 11  1  0
 10 13  1  0
 10 14  1  0
 11 12  1  0
 11 15  1  0
 11 16  1  0
 12 17  1  0
 12 18  1  0
 12 19  1  0
M  RAD  1  10   2
M  END
>  <reaction>  (25) 
rmg_rxn_15591

>  <mol_properties>  (25) 
{"0": {"label": "*1", "atom_type": "Cs"}, "1": {"label": "*0", "atom_type": "O2s"}, "4": {"label": "*2", "atom_type": "H0"}, "9": {"label": "*3", "atom_type": "Cs"}, "10": {"label": "*4", "atom_type": "Cs"}}

>  <type>  (25) 
unop_21

>  <geom_source>  (25) 
Heuristics

$$$$

     RDKit          3D

 19 17  0  0  0  0  0  0  0  0999 V2000
   -0.4549    1.6040   -0.4504 C   0  0  0  0  0  3  0  0  0  0  0  0
   -1.3383    0.8290    0.2762 O   0  0  0  0  0  0  0  0  0  0  0  0
   -1.5961   -0.3881   -0.3193 N   0  0  0  0  0  0  0  0  0  0  0  0
   -2.3475   -1.1720    0.3282 C   0  0  0  0  0  0  0  0  0  0  0  0
    0.8124    1.2710   -0.1192 H   0  0  0  0  0  0  0  0  0  0  0  0
   -0.5802    2.6378   -0.1489 H   0  0  0  0  0  0  0  0  0  0  0  0
   -0.5150    1.4406   -1.5231 H   0  0  0  0  0  0  0  0  0  0  0  0
   -2.5569   -2.1215   -0.1305 H   0  0  0  0  0  0  0  0  0  0  0  0
   -2.7841   -0.9416    1.2949 H   0  0  0  0  0  0  0  0  0  0  0  0
    2.0279    0.9492    0.1994 C   0  0  0  0  0  0  0  0  0  0  0  0
    2.0597   -0.5116    0.5703 C   0  0  0  0  0  0  0  0  0  0  0  0
    1.6535   -1.4113   -0.5915 C   0  0  0  0  0  0  0  0  0  0  0  0
    2.2897    1.6039    1.0238 H   0  0  0  0  0  0  0  0  0  0  0  0
    2.6175    1.1758   -0.6829 H   0  0  0  0  0  0  0  0  0  0  0  0
    3.0727   -0.7808    0.8947 H   0  0  0  0  0  0  0  0  0  0  0  0
    1.3930   -0.6877    1.4184 H   0  0  0  0  0  0  0  0  0  0  0  0
    2.2962   -1.2352   -1.4515 H   0  0  0  0  0  0  0  0  0  0  0  0
    1.7359   -2.4586   -0.3098 H   0  0  0  0  0  0  0  0  0  0  0  0
    0.6235   -1.2149   -0.8813 H   0  0  0  0  0  0  0  0  0  0  0  0
  1  2  1  0
  1  6  1  0
  1  7  1  0
  2  3  1  0
  3  4  2  3
  4  8  1  0
  4  9  1  0
  5 10  1  0
 10 11  1  0
 10 13  1  0
 10 14  1  0
 11 12  1  0
 11 15  1  0
 11 16  1  0
 12 17  1  0
 12 18  1  0
 12 19  1  0
M  RAD  1   1   2
M  END
>  <reaction>  (26) 
rmg_rxn_15591

>  <mol_properties>  (26) 
{"0": {"label": "*1", "atom_type": "Cs"}, "1": {"label": "*0", "atom_type": "O2s"}, "4": {"label": "*2", "atom_type": "H0"}, "9": {"label": "*3", "atom_type": "Cs"}, "10": {"label": "*4", "atom_type": "Cs"}}

>  <type>  (26) 
unop_22

>  <geom_source>  (26) 
Heuristics

$$$$

     RDKit          3D

 19 16  0  0  0  0  0  0  0  0999 V2000
    2.1482   -0.1764    0.4555 O   0  0  0  0  0  1  0  0  0  0  0  0
    2.4482    1.0463   -0.1005 N   0  0  0  0  0  0  0  0  0  0  0  0
   -2.0864   -0.5029    0.4042 C   0  0  0  0  0  0  0  0  0  0  0  0
   -1.0632   -1.4963   -0.1346 C   0  0  0  0  0  0  0  0  0  0  0  0
   -1.9946    0.8333   -0.3253 C   0  0  0  0  0  0  0  0  0  0  0  0
    1.4842   -1.1680   -0.3099 C   0  0  0  0  0  2  0  0  0  0  0  0
    3.0533    1.9522    0.5941 C   0  0  0  0  0  0  0  0  0  0  0  0
   -3.1080   -0.9219    0.2778 H   0  0  0  0  0  0  0  0  0  0  0  0
   -1.9030   -0.3420    1.4882 H   0  0  0  0  0  0  0  0  0  0  0  0
   -1.2446   -1.6910   -1.2132 H   0  0  0  0  0  0  0  0  0  0  0  0
   -1.1476   -2.4550    0.4193 H   0  0  0  0  0  0  0  0  0  0  0  0
    0.1346   -1.0298    0.0215 H   0  0  0  0  0  0  0  0  0  0  0  0
   -0.9854    1.2778   -0.1912 H   0  0  0  0  0  0  0  0  0  0  0  0
   -2.1942    0.6957   -1.4094 H   0  0  0  0  0  0  0  0  0  0  0  0
   -2.7493    1.5348    0.0885 H   0  0  0  0  0  0  0  0  0  0  0  0
    0.4931   -0.7913   -0.6392 H   0  0  0  0  0  0  0  0  0  0  0  0
    2.0984   -1.4376   -1.1946 H   0  0  0  0  0  0  0  0  0  0  0  0
    3.2835    2.9090    0.1460 H   0  0  0  0  0  0  0  0  0  0  0  0
    3.3330    1.7630    1.6229 H   0  0  0  0  0  0  0  0  0  0  0  0
  1  2  1  0
  2  7  2  3
  3  4  1  0
  3  5  1  0
  3  8  1  0
  3  9  1  0
  4 10  1  0
  4 11  1  0
  4 12  1  0
  5 13  1  0
  5 14  1  0
  5 15  1  0
  6 16  1  0
  6 17  1  0
  7 18  1  0
  7 19  1  0
M  RAD  2   1   2   6   3
M  END
>  <reaction>  (27) 
rmg_rxn_15591

>  <mol_properties>  (27) 
{"0": {"label": "*1", "atom_type": "Cs"}, "1": {"label": "*0", "atom_type": "O2s"}, "4": {"label": "*2", "atom_type": "H0"}, "9": {"label": "*3", "atom_type": "Cs"}, "10": {"label": "*4", "atom_type": "Cs"}}

>  <type>  (27) 
unop_23

>  <geom_source>  (27) 
AutoTST

$$$$

     RDKit          3D

 19 17  0  0  0  0  0  0  0  0999 V2000
   -1.2617    0.5775    0.8911 C   0  0  0  0  0  0  0  0  0  0  0  0
   -1.2617    0.6354   -0.5218 O   0  0  0  0  0  0  0  0  0  0  0  0
   -1.2617   -0.6385   -1.0375 N   0  0  0  0  0  0  0  0  0  0  0  0
   -1.2617   -0.6385   -2.3011 C   0  0  0  0  0  0  0  0  0  0  0  0
   -0.1911   -0.0347    1.3352 H   0  0  0  0  0  0  0  0  0  0  0  0
   -2.1538    0.0673    1.2612 H   0  0  0  0  0  0  0  0  0  0  0  0
   -1.2617    1.6124    1.2289 H   0  0  0  0  0  0  0  0  0  0  0  0
   -1.2617   -1.6056   -2.7859 H   0  0  0  0  0  0  0  0  0  0  0  0
   -1.2617    0.2780   -2.8873 H   0  0  0  0  0  0  0  0  0  0  0  0
    0.8799   -0.6471    1.7795 C   0  0  0  0  0  3  0  0  0  0  0  0
    2.0549   -0.4462    0.8312 C   0  0  0  0  0  0  0  0  0  0  0  0
    2.1457    0.9799    0.3034 C   0  0  0  0  0  0  0  0  0  0  0  0
    0.8316   -1.6737    2.1466 H   0  0  0  0  0  0  0  0  0  0  0  0
    0.9592    0.0146    2.6455 H   0  0  0  0  0  0  0  0  0  0  0  0
    2.9853   -0.7042    1.3446 H   0  0  0  0  0  0  0  0  0  0  0  0
    1.9673   -1.1404   -0.0092 H   0  0  0  0  0  0  0  0  0  0  0  0
    2.2649    1.6929    1.1228 H   0  0  0  0  0  0  0  0  0  0  0  0
    2.9927    1.1040   -0.3735 H   0  0  0  0  0  0  0  0  0  0  0  0
    1.2389    1.2532   -0.2417 H   0  0  0  0  0  0  0  0  0  0  0  0
  1  2  1  0
  1  5  1  0
  1  6  1  0
  1  7  1  0
  2  3  1  0
  3  4  2  3
  4  8  1  0
  4  9  1  0
 10 11  1  0
 10 13  1  0
 10 14  1  0
 11 12  1  0
 11 15  1  0
 11 16  1  0
 12 17  1  0
 12 18  1  0
 12 19  1  0
M  RAD  1  10   2
M  END
>  <reaction>  (28) 
rmg_rxn_15591

>  <mol_properties>  (28) 
{"0": {"label": "*1", "atom_type": "Cs"}, "1": {"label": "*0", "atom_type": "O2s"}, "4": {"label": "*2", "atom_type": "H0"}, "9": {"label": "*3", "atom_type": "Cs"}, "10": {"label": "*4", "atom_type": "Cs"}}

>  <type>  (28) 
unop_24

>  <geom_source>  (28) 
gaussian_log

$$$$
