
     RDKit          3D

 18 17  0  0  0  0  0  0  0  0999 V2000
    1.2952   -1.2294    0.8974 C   0  0  0  0  0  0  0  0  0  0  0  0
    0.9866    0.0007    0.0906 C   0  0  0  0  0  0  0  0  0  0  0  0
    0.3534   -0.0733   -1.0557 C   0  0  0  0  0  0  0  0  0  0  0  0
   -0.2134   -0.1912   -2.2217 C   0  0  0  0  0  0  0  0  0  0  0  0
    1.4692    1.1933    0.6363 N   0  0  0  0  0  0  0  0  0  0  0  0
    1.0588    2.4466    0.0389 C   0  0  0  0  0  0  0  0  0  0  0  0
    1.6511    3.6217    0.7933 C   0  0  0  0  0  0  0  0  0  0  0  0
    2.3742   -1.3246    1.0379 H   0  0  0  0  0  0  0  0  0  0  0  0
    0.8319   -1.1664    1.8866 H   0  0  0  0  0  0  0  0  0  0  0  0
    0.9219   -2.1223    0.4017 H   0  0  0  0  0  0  0  0  0  0  0  0
    0.3708   -0.3040   -3.1311 H   0  0  0  0  0  0  0  0  0  0  0  0
   -1.2935   -0.1811   -2.3359 H   0  0  0  0  0  0  0  0  0  0  0  0
    1.4189    1.2001    1.6444 H   0  0  0  0  0  0  0  0  0  0  0  0
    1.4061    2.4525   -0.9971 H   0  0  0  0  0  0  0  0  0  0  0  0
   -0.0368    2.5320   -0.0010 H   0  0  0  0  0  0  0  0  0  0  0  0
    2.7405    3.5649    0.8051 H   0  0  0  0  0  0  0  0  0  0  0  0
    1.2988    3.6441    1.8280 H   0  0  0  0  0  0  0  0  0  0  0  0
    1.3588    4.5620    0.3252 H   0  0  0  0  0  0  0  0  0  0  0  0
  1  2  1  0
  1  8  1  0
  1  9  1  0
  1 10  1  0
  2  3  2  0
  2  5  1  0
  3  4  2  0
  4 11  1  0
  4 12  1  0
  5  6  1  0
  5 13  1  0
  6  7  1  0
  6 14  1  0
  6 15  1  0
  7 16  1  0
  7 17  1  0
  7 18  1  0
M  END
>  <reaction>  (1) 
rmg_rxn_15670

>  <mol_properties>  (1) 
{"4": {"label": "donator", "atom_type": "N3s"}, "12": {"label": "d_hydrogen", "atom_type": "H0"}}

>  <type>  (1) 
r1h

$$$$

     RDKit          3D

  8  7  0  0  0  0  0  0  0  0999 V2000
    1.7077   -0.1964   -0.0607 C   0  0  0  0  0  3  0  0  0  0  0  0
    0.4209   -0.4565    0.2808 O   0  0  0  0  0  0  0  0  0  0  0  0
   -0.4607    0.4385   -0.2968 N   0  0  0  0  0  0  0  0  0  0  0  0
   -1.6584    0.1416   -0.0244 C   0  0  0  0  0  0  0  0  0  0  0  0
    2.4163   -0.7685    0.5170 H   0  0  0  0  0  0  0  0  0  0  0  0
    1.9214    0.7645   -0.5045 H   0  0  0  0  0  0  0  0  0  0  0  0
   -2.4185    0.7953   -0.4307 H   0  0  0  0  0  0  0  0  0  0  0  0
   -1.9286   -0.7185    0.5831 H   0  0  0  0  0  0  0  0  0  0  0  0
  1  2  1  0
  1  5  1  0
  1  6  1  0
  2  3  1  0
  3  4  2  3
  4  7  1  0
  4  8  1  0
M  RAD  1   1   2
M  END
>  <reaction>  (2) 
rmg_rxn_15670

>  <mol_properties>  (2) 
{"0": {"label": "acceptor", "atom_type": "Cs"}}

>  <type>  (2) 
r2

$$$$

     RDKit          3D

  9  8  0  0  0  0  0  0  0  0999 V2000
   -1.5470   -0.0755   -0.1976 C   0  0  0  0  0  0  0  0  0  0  0  0
   -0.2885    0.4507    0.1749 O   0  0  0  0  0  0  0  0  0  0  0  0
   -0.1502    1.7216   -0.3294 N   0  0  0  0  0  0  0  0  0  0  0  0
    0.9626    2.2353   -0.0219 C   0  0  0  0  0  0  0  0  0  0  0  0
   -1.6392   -0.1356   -1.2844 H   0  0  0  0  0  0  0  0  0  0  0  0
   -2.3597    0.5337    0.2044 H   0  0  0  0  0  0  0  0  0  0  0  0
   -1.5879   -1.0750    0.2318 H   0  0  0  0  0  0  0  0  0  0  0  0
    1.1497    3.2381   -0.3820 H   0  0  0  0  0  0  0  0  0  0  0  0
    1.7060    1.7101    0.5739 H   0  0  0  0  0  0  0  0  0  0  0  0
  1  2  1  0
  1  5  1  0
  1  6  1  0
  1  7  1  0
  2  3  1  0
  3  4  2  3
  4  8  1  0
  4  9  1  0
M  END
>  <reaction>  (3) 
rmg_rxn_15670

>  <mol_properties>  (3) 
{"0": {"label": "acceptor", "atom_type": "Cs"}, "8": {"label": "a_hydrogen", "atom_type": "H0"}}

>  <type>  (3) 
r2h

$$$$

     RDKit          3D

 26 24  0  0  0  0  0  0  0  0999 V2000
   -0.0269   -2.0143   -0.7049 C   0  0  0  0  0  3  0  0  0  0  0  0
   -0.8521   -1.2015   -1.4577 O   0  0  0  0  0  0  0  0  0  0  0  0
   -1.9476   -0.7918   -0.7198 N   0  0  0  0  0  0  0  0  0  0  0  0
   -2.6054    0.1003   -1.3247 C   0  0  0  0  0  0  0  0  0  0  0  0
   -0.5709   -2.6553   -0.0131 H   0  0  0  0  0  0  0  0  0  0  0  0
    0.6595   -2.5299   -1.3718 H   0  0  0  0  0  0  0  0  0  0  0  0
   -3.4928    0.4650   -0.8251 H   0  0  0  0  0  0  0  0  0  0  0  0
   -2.3081    0.4943   -2.2933 H   0  0  0  0  0  0  0  0  0  0  0  0
    1.9788    0.7856   -1.3006 C   0  0  0  0  0  0  0  0  0  0  0  0
    1.1211    0.8612   -0.0679 C   0  0  0  0  0  0  0  0  0  0  0  0
    0.3877    1.9276    0.1895 C   0  0  0  0  0  0  0  0  0  0  0  0
   -0.2700    3.0120    0.4717 C   0  0  0  0  0  0  0  0  0  0  0  0
    1.1868   -0.2546    0.7572 N   0  0  0  0  0  0  0  0  0  0  0  0
    0.3704   -0.2218    1.9610 C   0  0  0  0  0  0  0  0  0  0  0  0
    0.5966   -1.4685    2.7961 C   0  0  0  0  0  0  0  0  0  0  0  0
    3.0173    0.6050   -1.0184 H   0  0  0  0  0  0  0  0  0  0  0  0
    1.6529   -0.0444   -1.9321 H   0  0  0  0  0  0  0  0  0  0  0  0
    1.9170    1.7040   -1.8813 H   0  0  0  0  0  0  0  0  0  0  0  0
    0.1597    3.7991    1.0849 H   0  0  0  0  0  0  0  0  0  0  0  0
   -1.2798    3.1733    0.1049 H   0  0  0  0  0  0  0  0  0  0  0  0
    0.7670   -1.2018    0.0835 H   0  0  0  0  0  0  0  0  0  0  0  0
    0.6592    0.6652    2.5323 H   0  0  0  0  0  0  0  0  0  0  0  0
   -0.6948   -0.1057    1.7236 H   0  0  0  0  0  0  0  0  0  0  0  0
    1.6511   -1.5705    3.0554 H   0  0  0  0  0  0  0  0  0  0  0  0
    0.2932   -2.3673    2.2560 H   0  0  0  0  0  0  0  0  0  0  0  0
    0.0141   -1.4214    3.7174 H   0  0  0  0  0  0  0  0  0  0  0  0
  1  2  1  0
  1  5  1  0
  1  6  1  0
  2  3  1  0
  3  4  2  3
  4  7  1  0
  4  8  1  0
  9 10  1  0
  9 16  1  0
  9 17  1  0
  9 18  1  0
 10 11  2  0
 10 13  1  0
 11 12  2  0
 12 19  1  0
 12 20  1  0
 13 14  1  0
 13 21  1  0
 14 15  1  0
 14 22  1  0
 14 23  1  0
 15 24  1  0
 15 25  1  0
 15 26  1  0
M  RAD  1   1   2
M  END
>  <reaction>  (4) 
rmg_rxn_15670

>  <mol_properties>  (4) 
{"0": {"label": "*3", "atom_type": "Cs"}, "1": {"label": "*4", "atom_type": "O2s"}, "9": {"label": "*0", "atom_type": "Cd"}, "12": {"label": "*1", "atom_type": "N3s"}, "20": {"label": "*2", "atom_type": "H0"}}

>  <type>  (4) 
ts

$$$$

     RDKit          3D

 26 24  0  0  0  0  0  0  0  0999 V2000
   -1.6893    1.0918    1.0158 C   0  0  0  0  0  3  0  0  0  0  0  0
   -2.2211    0.6035   -0.1842 O   0  0  0  0  0  0  0  0  0  0  0  0
   -2.3442   -0.7670   -0.1784 N   0  0  0  0  0  0  0  0  0  0  0  0
   -2.7835   -1.2920   -1.2375 C   0  0  0  0  0  0  0  0  0  0  0  0
   -1.8728    2.1615    1.0296 H   0  0  0  0  0  0  0  0  0  0  0  0
   -2.0933    0.5822    1.8883 H   0  0  0  0  0  0  0  0  0  0  0  0
   -2.8839   -2.3628   -1.2369 H   0  0  0  0  0  0  0  0  0  0  0  0
   -3.0627   -0.7353   -2.1272 H   0  0  0  0  0  0  0  0  0  0  0  0
    0.4445   -1.5950    1.4773 C   0  0  0  0  0  0  0  0  0  0  0  0
    1.1559   -0.5527    0.6556 C   0  0  0  0  0  0  0  0  0  0  0  0
    2.0333   -0.9317   -0.2713 C   0  0  0  0  0  0  0  0  0  0  0  0
    3.0215   -1.2810   -1.0283 C   0  0  0  0  0  0  0  0  0  0  0  0
    0.8404    0.7303    0.9470 N   0  0  0  0  0  0  0  0  0  0  0  0
    1.3963    1.7862    0.1395 C   0  0  0  0  0  0  0  0  0  0  0  0
    0.8620    1.8386   -1.2945 C   0  0  0  0  0  0  0  0  0  0  0  0
    0.9281   -2.5621    1.3714 H   0  0  0  0  0  0  0  0  0  0  0  0
    0.4479   -1.2969    2.5229 H   0  0  0  0  0  0  0  0  0  0  0  0
   -0.5897   -1.6762    1.1415 H   0  0  0  0  0  0  0  0  0  0  0  0
    4.0461   -1.3074   -0.6778 H   0  0  0  0  0  0  0  0  0  0  0  0
    2.8784   -1.5760   -2.0591 H   0  0  0  0  0  0  0  0  0  0  0  0
   -0.4076    0.9071    1.0412 H   0  0  0  0  0  0  0  0  0  0  0  0
    1.1654    2.7256    0.6522 H   0  0  0  0  0  0  0  0  0  0  0  0
    2.4860    1.6680    0.1106 H   0  0  0  0  0  0  0  0  0  0  0  0
    1.0888    0.9102   -1.8133 H   0  0  0  0  0  0  0  0  0  0  0  0
    1.3234    2.6624   -1.8328 H   0  0  0  0  0  0  0  0  0  0  0  0
   -0.2158    1.9811   -1.2916 H   0  0  0  0  0  0  0  0  0  0  0  0
  1  2  1  0
  1  5  1  0
  1  6  1  0
  2  3  1  0
  3  4  2  3
  4  7  1  0
  4  8  1  0
  9 10  1  0
  9 16  1  0
  9 17  1  0
  9 18  1  0
 10 11  2  0
 10 13  1  0
 11 12  2  0
 12 19  1  0
 12 20  1  0
 13 14  1  0
 13 21  1  0
 14 15  1  0
 14 22  1  0
 14 23  1  0
 15 24  1  0
 15 25  1  0
 15 26  1  0
M  RAD  1   1   2
M  END
>  <reaction>  (5) 
rmg_rxn_15670

>  <mol_properties>  (5) 
{"0": {"label": "*3", "atom_type": "Cs"}, "1": {"label": "*4", "atom_type": "O2s"}, "9": {"label": "*0", "atom_type": "Cd"}, "12": {"label": "*1", "atom_type": "N3s"}, "20": {"label": "*2", "atom_type": "H0"}}

>  <type>  (5) 
unop_1

>  <geom_source>  (5) 
crest_best.xyz

$$$$

     RDKit          3D

 26 24  0  0  0  0  0  0  0  0999 V2000
   -1.0008   -1.0337   -0.8322 C   0  0  0  0  0  3  0  0  0  0  0  0
   -0.0671   -2.0254   -1.2121 O   0  0  0  0  0  0  0  0  0  0  0  0
   -0.6559   -3.2654   -1.1458 N   0  0  0  0  0  0  0  0  0  0  0  0
    0.1419   -4.1875   -1.4774 C   0  0  0  0  0  0  0  0  0  0  0  0
   -1.8625   -1.0306   -1.5035 H   0  0  0  0  0  0  0  0  0  0  0  0
   -1.3388   -1.1884    0.1949 H   0  0  0  0  0  0  0  0  0  0  0  0
   -0.2462   -5.1970   -1.4516 H   0  0  0  0  0  0  0  0  0  0  0  0
    1.1699   -3.9939   -1.7763 H   0  0  0  0  0  0  0  0  0  0  0  0
    0.2592    1.9396   -1.6093 C   0  0  0  0  0  0  0  0  0  0  0  0
    0.2592    1.9396   -0.1061 C   0  0  0  0  0  0  0  0  0  0  0  0
    0.2592    3.0583    0.5786 C   0  0  0  0  0  0  0  0  0  0  0  0
    0.3308    4.1864    1.2244 C   0  0  0  0  0  0  0  0  0  0  0  0
    0.3093    0.6710    0.4779 N   0  0  0  0  0  0  0  0  0  0  0  0
    0.1184    0.5568    1.9085 C   0  0  0  0  0  0  0  0  0  0  0  0
    0.1666   -0.8954    2.3436 C   0  0  0  0  0  0  0  0  0  0  0  0
    1.1441    1.4207   -1.9841 H   0  0  0  0  0  0  0  0  0  0  0  0
   -0.6233    1.4194   -1.9935 H   0  0  0  0  0  0  0  0  0  0  0  0
    0.2526    2.9554   -1.9972 H   0  0  0  0  0  0  0  0  0  0  0  0
    1.2856    4.6262    1.5002 H   0  0  0  0  0  0  0  0  0  0  0  0
   -0.5597    4.7359    1.5157 H   0  0  0  0  0  0  0  0  0  0  0  0
   -0.3210   -0.1492   -0.1524 H   0  0  0  0  0  0  0  0  0  0  0  0
    0.9154    1.1217    2.3980 H   0  0  0  0  0  0  0  0  0  0  0  0
   -0.8281    1.0187    2.2247 H   0  0  0  0  0  0  0  0  0  0  0  0
    1.1184   -1.3512    2.0671 H   0  0  0  0  0  0  0  0  0  0  0  0
   -0.6367   -1.4732    1.8789 H   0  0  0  0  0  0  0  0  0  0  0  0
    0.0465   -0.9740    3.4244 H   0  0  0  0  0  0  0  0  0  0  0  0
  1  2  1  0
  1  5  1  0
  1  6  1  0
  2  3  1  0
  3  4  2  3
  4  7  1  0
  4  8  1  0
  9 10  1  0
  9 16  1  0
  9 17  1  0
  9 18  1  0
 10 11  2  0
 10 13  1  0
 11 12  2  0
 12 19  1  0
 12 20  1  0
 13 14  1  0
 13 21  1  0
 14 15  1  0
 14 22  1  0
 14 23  1  0
 15 24  1  0
 15 25  1  0
 15 26  1  0
M  RAD  1   1   2
M  END
>  <reaction>  (6) 
rmg_rxn_15670

>  <mol_properties>  (6) 
{"0": {"label": "*3", "atom_type": "Cs"}, "1": {"label": "*4", "atom_type": "O2s"}, "9": {"label": "*0", "atom_type": "Cd"}, "12": {"label": "*1", "atom_type": "N3s"}, "20": {"label": "*2", "atom_type": "H0"}}

>  <type>  (6) 
unop_2

>  <geom_source>  (6) 
Heuristics

$$$$

     RDKit          3D

 26 24  0  0  0  0  0  0  0  0999 V2000
   -1.6879   -1.0928   -1.0150 C   0  0  0  0  0  3  0  0  0  0  0  0
   -2.2192   -0.6048    0.1853 O   0  0  0  0  0  0  0  0  0  0  0  0
   -2.3493    0.7650    0.1771 N   0  0  0  0  0  0  0  0  0  0  0  0
   -2.7886    1.2896    1.2365 C   0  0  0  0  0  0  0  0  0  0  0  0
   -1.8706   -2.1626   -1.0290 H   0  0  0  0  0  0  0  0  0  0  0  0
   -2.0924   -0.5833   -1.8873 H   0  0  0  0  0  0  0  0  0  0  0  0
   -2.8945    2.3598    1.2344 H   0  0  0  0  0  0  0  0  0  0  0  0
   -3.0625    0.7330    2.1279 H   0  0  0  0  0  0  0  0  0  0  0  0
    0.4438    1.5950   -1.4771 C   0  0  0  0  0  0  0  0  0  0  0  0
    1.1558    0.5534   -0.6551 C   0  0  0  0  0  0  0  0  0  0  0  0
    2.0323    0.9336    0.2722 C   0  0  0  0  0  0  0  0  0  0  0  0
    3.0205    1.2848    1.0284 C   0  0  0  0  0  0  0  0  0  0  0  0
    0.8416   -0.7298   -0.9470 N   0  0  0  0  0  0  0  0  0  0  0  0
    1.3989   -1.7858   -0.1405 C   0  0  0  0  0  0  0  0  0  0  0  0
    0.8671   -1.8386    1.2944 C   0  0  0  0  0  0  0  0  0  0  0  0
    0.9255    2.5629   -1.3698 H   0  0  0  0  0  0  0  0  0  0  0  0
    0.4491    1.2977   -2.5229 H   0  0  0  0  0  0  0  0  0  0  0  0
   -0.5911    1.6744   -1.1427 H   0  0  0  0  0  0  0  0  0  0  0  0
    4.0448    1.3130    0.6770 H   0  0  0  0  0  0  0  0  0  0  0  0
    2.8776    1.5795    2.0592 H   0  0  0  0  0  0  0  0  0  0  0  0
   -0.4061   -0.9076   -1.0408 H   0  0  0  0  0  0  0  0  0  0  0  0
    1.1671   -2.7251   -0.6529 H   0  0  0  0  0  0  0  0  0  0  0  0
    2.4886   -1.6675   -0.1136 H   0  0  0  0  0  0  0  0  0  0  0  0
    1.3295   -2.6626    1.8316 H   0  0  0  0  0  0  0  0  0  0  0  0
   -0.2107   -1.9811    1.2934 H   0  0  0  0  0  0  0  0  0  0  0  0
    1.0948   -0.9105    1.8132 H   0  0  0  0  0  0  0  0  0  0  0  0
  1  2  1  0
  1  5  1  0
  1  6  1  0
  2  3  1  0
  3  4  2  3
  4  7  1  0
  4  8  1  0
  9 10  1  0
  9 16  1  0
  9 17  1  0
  9 18  1  0
 10 11  2  0
 10 13  1  0
 11 12  2  0
 12 19  1  0
 12 20  1  0
 13 14  1  0
 13 21  1  0
 14 15  1  0
 14 22  1  0
 14 23  1  0
 15 24  1  0
 15 25  1  0
 15 26  1  0
M  RAD  1   1   2
M  END
>  <reaction>  (7) 
rmg_rxn_15670

>  <mol_properties>  (7) 
{"0": {"label": "*3", "atom_type": "Cs"}, "1": {"label": "*4", "atom_type": "O2s"}, "9": {"label": "*0", "atom_type": "Cd"}, "12": {"label": "*1", "atom_type": "N3s"}, "20": {"label": "*2", "atom_type": "H0"}}

>  <type>  (7) 
unop_3

>  <geom_source>  (7) 
Heuristics

$$$$

     RDKit          3D

 26 24  0  0  0  0  0  0  0  0999 V2000
    1.6898   -1.0886    1.0183 C   0  0  0  0  0  3  0  0  0  0  0  0
    2.2217   -0.6025   -0.1825 O   0  0  0  0  0  0  0  0  0  0  0  0
    2.3462    0.7678   -0.1786 N   0  0  0  0  0  0  0  0  0  0  0  0
    2.7853    1.2908   -1.2388 C   0  0  0  0  0  0  0  0  0  0  0  0
    1.8745   -2.1581    1.0349 H   0  0  0  0  0  0  0  0  0  0  0  0
    2.0923   -0.5764    1.8899 H   0  0  0  0  0  0  0  0  0  0  0  0
    2.8868    2.3615   -1.2402 H   0  0  0  0  0  0  0  0  0  0  0  0
    3.0632    0.7323   -2.1278 H   0  0  0  0  0  0  0  0  0  0  0  0
   -0.4468    1.5952    1.4758 C   0  0  0  0  0  0  0  0  0  0  0  0
   -1.1572    0.5518    0.6547 C   0  0  0  0  0  0  0  0  0  0  0  0
   -2.0351    0.9303   -0.2721 C   0  0  0  0  0  0  0  0  0  0  0  0
   -3.0249    1.2802   -1.0268 C   0  0  0  0  0  0  0  0  0  0  0  0
   -0.8403   -0.7306    0.9465 N   0  0  0  0  0  0  0  0  0  0  0  0
   -1.3942   -1.7876    0.1391 C   0  0  0  0  0  0  0  0  0  0  0  0
   -0.8605   -1.8385   -1.2951 C   0  0  0  0  0  0  0  0  0  0  0  0
    0.5870    1.6781    1.1391 H   0  0  0  0  0  0  0  0  0  0  0  0
   -0.9319    2.5616    1.3703 H   0  0  0  0  0  0  0  0  0  0  0  0
   -0.4487    1.2971    2.5214 H   0  0  0  0  0  0  0  0  0  0  0  0
   -4.0488    1.3064   -0.6740 H   0  0  0  0  0  0  0  0  0  0  0  0
   -2.8841    1.5755   -2.0578 H   0  0  0  0  0  0  0  0  0  0  0  0
    0.4077   -0.9058    1.0420 H   0  0  0  0  0  0  0  0  0  0  0  0
   -1.1609   -2.7266    0.6515 H   0  0  0  0  0  0  0  0  0  0  0  0
   -2.4842   -1.6719    0.1108 H   0  0  0  0  0  0  0  0  0  0  0  0
   -1.3202   -2.6632   -1.8335 H   0  0  0  0  0  0  0  0  0  0  0  0
    0.2176   -1.9786   -1.2927 H   0  0  0  0  0  0  0  0  0  0  0  0
   -1.0895   -0.9106   -1.8137 H   0  0  0  0  0  0  0  0  0  0  0  0
  1  2  1  0
  1  5  1  0
  1  6  1  0
  2  3  1  0
  3  4  2  3
  4  7  1  0
  4  8  1  0
  9 10  1  0
  9 16  1  0
  9 17  1  0
  9 18  1  0
 10 11  2  0
 10 13  1  0
 11 12  2  0
 12 19  1  0
 12 20  1  0
 13 14  1  0
 13 21  1  0
 14 15  1  0
 14 22  1  0
 14 23  1  0
 15 24  1  0
 15 25  1  0
 15 26  1  0
M  RAD  1   1   2
M  END
>  <reaction>  (8) 
rmg_rxn_15670

>  <mol_properties>  (8) 
{"0": {"label": "*3", "atom_type": "Cs"}, "1": {"label": "*4", "atom_type": "O2s"}, "9": {"label": "*0", "atom_type": "Cd"}, "12": {"label": "*1", "atom_type": "N3s"}, "20": {"label": "*2", "atom_type": "H0"}}

>  <type>  (8) 
unop_4

>  <geom_source>  (8) 
Heuristics

$$$$

     RDKit          3D

 26 24  0  0  0  0  0  0  0  0999 V2000
   -1.6879    1.0929   -1.0150 C   0  0  0  0  0  3  0  0  0  0  0  0
   -2.2210    0.6055    0.1847 O   0  0  0  0  0  0  0  0  0  0  0  0
   -2.3494   -0.7645    0.1776 N   0  0  0  0  0  0  0  0  0  0  0  0
   -2.7923   -1.2885    1.2358 C   0  0  0  0  0  0  0  0  0  0  0  0
   -2.0924    0.5842   -1.8878 H   0  0  0  0  0  0  0  0  0  0  0  0
   -1.8693    2.1629   -1.0288 H   0  0  0  0  0  0  0  0  0  0  0  0
   -2.8963   -2.3589    1.2346 H   0  0  0  0  0  0  0  0  0  0  0  0
   -3.0708   -0.7312    2.1253 H   0  0  0  0  0  0  0  0  0  0  0  0
    0.4429   -1.5974   -1.4734 C   0  0  0  0  0  0  0  0  0  0  0  0
    1.1561   -0.5545   -0.6541 C   0  0  0  0  0  0  0  0  0  0  0  0
    2.0342   -0.9332    0.2723 C   0  0  0  0  0  0  0  0  0  0  0  0
    3.0240   -1.2824    1.0274 C   0  0  0  0  0  0  0  0  0  0  0  0
    0.8414    0.7283   -0.9470 N   0  0  0  0  0  0  0  0  0  0  0  0
    1.3992    1.7851   -0.1420 C   0  0  0  0  0  0  0  0  0  0  0  0
    0.8682    1.8391    1.2931 C   0  0  0  0  0  0  0  0  0  0  0  0
    0.9240   -2.5653   -1.3643 H   0  0  0  0  0  0  0  0  0  0  0  0
   -0.5918   -1.6751   -1.1384 H   0  0  0  0  0  0  0  0  0  0  0  0
    0.4479   -1.3023   -2.5199 H   0  0  0  0  0  0  0  0  0  0  0  0
    2.8832   -1.5756    2.0589 H   0  0  0  0  0  0  0  0  0  0  0  0
    4.0477   -1.3106    0.6741 H   0  0  0  0  0  0  0  0  0  0  0  0
   -0.4064    0.9062   -1.0403 H   0  0  0  0  0  0  0  0  0  0  0  0
    2.4889    1.6668   -0.1156 H   0  0  0  0  0  0  0  0  0  0  0  0
    1.1672    2.7239   -0.6552 H   0  0  0  0  0  0  0  0  0  0  0  0
    1.0945    0.9105    1.8118 H   0  0  0  0  0  0  0  0  0  0  0  0
   -0.2093    1.9835    1.2926 H   0  0  0  0  0  0  0  0  0  0  0  0
    1.3323    2.6622    1.8301 H   0  0  0  0  0  0  0  0  0  0  0  0
  1  2  1  0
  1  5  1  0
  1  6  1  0
  2  3  1  0
  3  4  2  3
  4  7  1  0
  4  8  1  0
  9 10  1  0
  9 16  1  0
  9 17  1  0
  9 18  1  0
 10 11  2  0
 10 13  1  0
 11 12  2  0
 12 19  1  0
 12 20  1  0
 13 14  1  0
 13 21  1  0
 14 15  1  0
 14 22  1  0
 14 23  1  0
 15 24  1  0
 15 25  1  0
 15 26  1  0
M  RAD  1   1   2
M  END
>  <reaction>  (9) 
rmg_rxn_15670

>  <mol_properties>  (9) 
{"0": {"label": "*3", "atom_type": "Cs"}, "1": {"label": "*4", "atom_type": "O2s"}, "9": {"label": "*0", "atom_type": "Cd"}, "12": {"label": "*1", "atom_type": "N3s"}, "20": {"label": "*2", "atom_type": "H0"}}

>  <type>  (9) 
unop_5

>  <geom_source>  (9) 
Heuristics

$$$$

     RDKit          3D

 26 24  0  0  0  0  0  0  0  0999 V2000
   -0.7353   -1.5835   -0.3111 C   0  0  0  0  0  3  0  0  0  0  0  0
   -0.6760   -1.1595   -1.6588 O   0  0  0  0  0  0  0  0  0  0  0  0
   -0.9921   -2.2084   -2.4887 N   0  0  0  0  0  0  0  0  0  0  0  0
   -0.9526   -1.8774   -3.7075 C   0  0  0  0  0  0  0  0  0  0  0  0
   -1.7408   -1.9229   -0.0522 H   0  0  0  0  0  0  0  0  0  0  0  0
   -0.0191   -2.3864   -0.1223 H   0  0  0  0  0  0  0  0  0  0  0  0
   -1.1896   -2.6492   -4.4275 H   0  0  0  0  0  0  0  0  0  0  0  0
   -0.6952   -0.8720   -4.0338 H   0  0  0  0  0  0  0  0  0  0  0  0
    0.5246    1.3898   -1.0882 C   0  0  0  0  0  0  0  0  0  0  0  0
    0.5246    1.3898    0.4150 C   0  0  0  0  0  0  0  0  0  0  0  0
    0.5246    2.5085    1.0997 C   0  0  0  0  0  0  0  0  0  0  0  0
    0.5962    3.6366    1.7454 C   0  0  0  0  0  0  0  0  0  0  0  0
    0.5748    0.1211    0.9990 N   0  0  0  0  0  0  0  0  0  0  0  0
    0.3839    0.0070    2.4295 C   0  0  0  0  0  0  0  0  0  0  0  0
    0.4320   -1.4452    2.8646 C   0  0  0  0  0  0  0  0  0  0  0  0
    1.4096    0.8708   -1.4630 H   0  0  0  0  0  0  0  0  0  0  0  0
   -0.3579    0.8695   -1.4724 H   0  0  0  0  0  0  0  0  0  0  0  0
    0.5181    2.4056   -1.4762 H   0  0  0  0  0  0  0  0  0  0  0  0
    1.5510    4.0763    2.0212 H   0  0  0  0  0  0  0  0  0  0  0  0
   -0.2943    4.1860    2.0368 H   0  0  0  0  0  0  0  0  0  0  0  0
   -0.0555   -0.6990    0.3687 H   0  0  0  0  0  0  0  0  0  0  0  0
    1.1809    0.5719    2.9191 H   0  0  0  0  0  0  0  0  0  0  0  0
   -0.5627    0.4688    2.7458 H   0  0  0  0  0  0  0  0  0  0  0  0
    1.3839   -1.9010    2.5881 H   0  0  0  0  0  0  0  0  0  0  0  0
   -0.3713   -2.0230    2.3999 H   0  0  0  0  0  0  0  0  0  0  0  0
    0.3119   -1.5238    3.9454 H   0  0  0  0  0  0  0  0  0  0  0  0
  1  2  1  0
  1  5  1  0
  1  6  1  0
  2  3  1  0
  3  4  2  3
  4  7  1  0
  4  8  1  0
  9 10  1  0
  9 16  1  0
  9 17  1  0
  9 18  1  0
 10 11  2  0
 10 13  1  0
 11 12  2  0
 12 19  1  0
 12 20  1  0
 13 14  1  0
 13 21  1  0
 14 15  1  0
 14 22  1  0
 14 23  1  0
 15 24  1  0
 15 25  1  0
 15 26  1  0
M  RAD  1   1   2
M  END
>  <reaction>  (10) 
rmg_rxn_15670

>  <mol_properties>  (10) 
{"0": {"label": "*3", "atom_type": "Cs"}, "1": {"label": "*4", "atom_type": "O2s"}, "9": {"label": "*0", "atom_type": "Cd"}, "12": {"label": "*1", "atom_type": "N3s"}, "20": {"label": "*2", "atom_type": "H0"}}

>  <type>  (10) 
unop_6

>  <geom_source>  (10) 
Heuristics

$$$$

     RDKit          3D

 26 24  0  0  0  0  0  0  0  0999 V2000
    1.6882   -1.0912    1.0164 C   0  0  0  0  0  3  0  0  0  0  0  0
    2.2205   -0.6047   -0.1840 O   0  0  0  0  0  0  0  0  0  0  0  0
    2.3500    0.7652   -0.1777 N   0  0  0  0  0  0  0  0  0  0  0  0
    2.7905    1.2884   -1.2372 C   0  0  0  0  0  0  0  0  0  0  0  0
    1.8712   -2.1609    1.0320 H   0  0  0  0  0  0  0  0  0  0  0  0
    2.0917   -0.5803    1.8884 H   0  0  0  0  0  0  0  0  0  0  0  0
    2.8960    2.3587   -1.2365 H   0  0  0  0  0  0  0  0  0  0  0  0
    3.0658    0.7306   -2.1274 H   0  0  0  0  0  0  0  0  0  0  0  0
   -0.4441    1.5960    1.4750 C   0  0  0  0  0  0  0  0  0  0  0  0
   -1.1565    0.5535    0.6544 C   0  0  0  0  0  0  0  0  0  0  0  0
   -2.0338    0.9329   -0.2725 C   0  0  0  0  0  0  0  0  0  0  0  0
   -3.0234    1.2834   -1.0272 C   0  0  0  0  0  0  0  0  0  0  0  0
   -0.8414   -0.7293    0.9467 N   0  0  0  0  0  0  0  0  0  0  0  0
   -1.3982   -1.7860    0.1409 C   0  0  0  0  0  0  0  0  0  0  0  0
   -0.8670   -1.8389   -1.2942 C   0  0  0  0  0  0  0  0  0  0  0  0
    0.5899    1.6766    1.1386 H   0  0  0  0  0  0  0  0  0  0  0  0
   -0.9272    2.5633    1.3688 H   0  0  0  0  0  0  0  0  0  0  0  0
   -0.4469    1.2985    2.5208 H   0  0  0  0  0  0  0  0  0  0  0  0
   -4.0471    1.3113   -0.6741 H   0  0  0  0  0  0  0  0  0  0  0  0
   -2.8824    1.5778   -2.0584 H   0  0  0  0  0  0  0  0  0  0  0  0
    0.4064   -0.9063    1.0409 H   0  0  0  0  0  0  0  0  0  0  0  0
   -1.1654   -2.7249    0.6536 H   0  0  0  0  0  0  0  0  0  0  0  0
   -2.4880   -1.6687    0.1144 H   0  0  0  0  0  0  0  0  0  0  0  0
   -1.0960   -0.9113   -1.8134 H   0  0  0  0  0  0  0  0  0  0  0  0
   -1.3286   -2.6637   -1.8308 H   0  0  0  0  0  0  0  0  0  0  0  0
    0.2110   -1.9802   -1.2935 H   0  0  0  0  0  0  0  0  0  0  0  0
  1  2  1  0
  1  5  1  0
  1  6  1  0
  2  3  1  0
  3  4  2  3
  4  7  1  0
  4  8  1  0
  9 10  1  0
  9 16  1  0
  9 17  1  0
  9 18  1  0
 10 11  2  0
 10 13  1  0
 11 12  2  0
 12 19  1  0
 12 20  1  0
 13 14  1  0
 13 21  1  0
 14 15  1  0
 14 22  1  0
 14 23  1  0
 15 24  1  0
 15 25  1  0
 15 26  1  0
M  RAD  1   1   2
M  END
>  <reaction>  (11) 
rmg_rxn_15670

>  <mol_properties>  (11) 
{"0": {"label": "*3", "atom_type": "Cs"}, "1": {"label": "*4", "atom_type": "O2s"}, "9": {"label": "*0", "atom_type": "Cd"}, "12": {"label": "*1", "atom_type": "N3s"}, "20": {"label": "*2", "atom_type": "H0"}}

>  <type>  (11) 
unop_7

>  <geom_source>  (11) 
Heuristics

$$$$

     RDKit          3D

 26 24  0  0  0  0  0  0  0  0999 V2000
   -0.8405   -0.9850   -1.0073 C   0  0  0  0  0  3  0  0  0  0  0  0
   -0.1881   -2.2204   -0.7890 O   0  0  0  0  0  0  0  0  0  0  0  0
   -1.0840   -3.2510   -0.9436 N   0  0  0  0  0  0  0  0  0  0  0  0
   -0.5459   -4.3791   -0.7577 C   0  0  0  0  0  0  0  0  0  0  0  0
   -1.2421   -0.9291   -2.0216 H   0  0  0  0  0  0  0  0  0  0  0  0
   -1.6477   -0.8367   -0.2865 H   0  0  0  0  0  0  0  0  0  0  0  0
   -1.1863   -5.2447   -0.8613 H   0  0  0  0  0  0  0  0  0  0  0  0
    0.5063   -4.4922   -0.5056 H   0  0  0  0  0  0  0  0  0  0  0  0
    0.4195    1.9883   -1.7844 C   0  0  0  0  0  0  0  0  0  0  0  0
    0.4195    1.9883   -0.2812 C   0  0  0  0  0  0  0  0  0  0  0  0
    0.4195    3.1070    0.4035 C   0  0  0  0  0  0  0  0  0  0  0  0
    0.4911    4.2351    1.0492 C   0  0  0  0  0  0  0  0  0  0  0  0
    0.4696    0.7196    0.3028 N   0  0  0  0  0  0  0  0  0  0  0  0
    0.2787    0.6055    1.7334 C   0  0  0  0  0  0  0  0  0  0  0  0
    0.3269   -0.8467    2.1684 C   0  0  0  0  0  0  0  0  0  0  0  0
    1.3044    1.4693   -2.1592 H   0  0  0  0  0  0  0  0  0  0  0  0
   -0.4631    1.4680   -2.1686 H   0  0  0  0  0  0  0  0  0  0  0  0
    0.4129    3.0041   -2.1723 H   0  0  0  0  0  0  0  0  0  0  0  0
    1.4459    4.6748    1.3251 H   0  0  0  0  0  0  0  0  0  0  0  0
   -0.3994    4.7845    1.3406 H   0  0  0  0  0  0  0  0  0  0  0  0
   -0.1607   -0.1005   -0.3275 H   0  0  0  0  0  0  0  0  0  0  0  0
    1.0757    1.1704    2.2229 H   0  0  0  0  0  0  0  0  0  0  0  0
   -0.6678    1.0673    2.0496 H   0  0  0  0  0  0  0  0  0  0  0  0
    1.2787   -1.3025    1.8920 H   0  0  0  0  0  0  0  0  0  0  0  0
   -0.4765   -1.4245    1.7038 H   0  0  0  0  0  0  0  0  0  0  0  0
    0.2067   -0.9253    3.2493 H   0  0  0  0  0  0  0  0  0  0  0  0
  1  2  1  0
  1  5  1  0
  1  6  1  0
  2  3  1  0
  3  4  2  3
  4  7  1  0
  4  8  1  0
  9 10  1  0
  9 16  1  0
  9 17  1  0
  9 18  1  0
 10 11  2  0
 10 13  1  0
 11 12  2  0
 12 19  1  0
 12 20  1  0
 13 14  1  0
 13 21  1  0
 14 15  1  0
 14 22  1  0
 14 23  1  0
 15 24  1  0
 15 25  1  0
 15 26  1  0
M  RAD  1   1   2
M  END
>  <reaction>  (12) 
rmg_rxn_15670

>  <mol_properties>  (12) 
{"0": {"label": "*3", "atom_type": "Cs"}, "1": {"label": "*4", "atom_type": "O2s"}, "9": {"label": "*0", "atom_type": "Cd"}, "12": {"label": "*1", "atom_type": "N3s"}, "20": {"label": "*2", "atom_type": "H0"}}

>  <type>  (12) 
unop_8

>  <geom_source>  (12) 
Heuristics

$$$$

     RDKit          3D

 26 24  0  0  0  0  0  0  0  0999 V2000
   -0.1255   -1.5981   -0.9468 C   0  0  0  0  0  3  0  0  0  0  0  0
   -1.4582   -1.1255   -0.9658 O   0  0  0  0  0  0  0  0  0  0  0  0
   -2.3269   -2.1903   -0.9856 N   0  0  0  0  0  0  0  0  0  0  0  0
   -3.5340   -1.8171   -1.0032 C   0  0  0  0  0  0  0  0  0  0  0  0
    0.0630   -2.1997   -0.0547 H   0  0  0  0  0  0  0  0  0  0  0  0
    0.0919   -2.1900   -1.8387 H   0  0  0  0  0  0  0  0  0  0  0  0
   -4.2827   -2.5978   -1.0195 H   0  0  0  0  0  0  0  0  0  0  0  0
   -3.8234   -0.7684   -1.0022 H   0  0  0  0  0  0  0  0  0  0  0  0
    1.1344    1.3751   -1.7238 C   0  0  0  0  0  0  0  0  0  0  0  0
    1.1344    1.3751   -0.2207 C   0  0  0  0  0  0  0  0  0  0  0  0
    1.1344    2.4939    0.4640 C   0  0  0  0  0  0  0  0  0  0  0  0
    1.2060    3.6220    1.1098 C   0  0  0  0  0  0  0  0  0  0  0  0
    1.1846    0.1065    0.3633 N   0  0  0  0  0  0  0  0  0  0  0  0
    0.9937   -0.0076    1.7939 C   0  0  0  0  0  0  0  0  0  0  0  0
    1.0418   -1.4599    2.2290 C   0  0  0  0  0  0  0  0  0  0  0  0
    2.0194    0.8562   -2.0987 H   0  0  0  0  0  0  0  0  0  0  0  0
    0.2519    0.8549   -2.1081 H   0  0  0  0  0  0  0  0  0  0  0  0
    1.1279    2.3909   -2.1118 H   0  0  0  0  0  0  0  0  0  0  0  0
    2.1608    4.0617    1.3856 H   0  0  0  0  0  0  0  0  0  0  0  0
    0.3155    4.1714    1.4011 H   0  0  0  0  0  0  0  0  0  0  0  0
    0.5543   -0.7136   -0.2670 H   0  0  0  0  0  0  0  0  0  0  0  0
    1.7906    0.5572    2.2834 H   0  0  0  0  0  0  0  0  0  0  0  0
    0.0471    0.4542    2.1101 H   0  0  0  0  0  0  0  0  0  0  0  0
    1.9936   -1.9156    1.9525 H   0  0  0  0  0  0  0  0  0  0  0  0
    0.2385   -2.0377    1.7643 H   0  0  0  0  0  0  0  0  0  0  0  0
    0.9217   -1.5385    3.3098 H   0  0  0  0  0  0  0  0  0  0  0  0
  1  2  1  0
  1  5  1  0
  1  6  1  0
  2  3  1  0
  3  4  2  3
  4  7  1  0
  4  8  1  0
  9 10  1  0
  9 16  1  0
  9 17  1  0
  9 18  1  0
 10 11  2  0
 10 13  1  0
 11 12  2  0
 12 19  1  0
 12 20  1  0
 13 14  1  0
 13 21  1  0
 14 15  1  0
 14 22  1  0
 14 23  1  0
 15 24  1  0
 15 25  1  0
 15 26  1  0
M  RAD  1   1   2
M  END
>  <reaction>  (13) 
rmg_rxn_15670

>  <mol_properties>  (13) 
{"0": {"label": "*3", "atom_type": "Cs"}, "1": {"label": "*4", "atom_type": "O2s"}, "9": {"label": "*0", "atom_type": "Cd"}, "12": {"label": "*1", "atom_type": "N3s"}, "20": {"label": "*2", "atom_type": "H0"}}

>  <type>  (13) 
unop_9

>  <geom_source>  (13) 
Heuristics

$$$$

     RDKit          3D

 26 24  0  0  0  0  0  0  0  0999 V2000
    1.6889   -1.0900    1.0174 C   0  0  0  0  0  3  0  0  0  0  0  0
    2.2220   -0.6042   -0.1830 O   0  0  0  0  0  0  0  0  0  0  0  0
    2.3482    0.7660   -0.1787 N   0  0  0  0  0  0  0  0  0  0  0  0
    2.7904    1.2885   -1.2378 C   0  0  0  0  0  0  0  0  0  0  0  0
    1.8718   -2.1598    1.0335 H   0  0  0  0  0  0  0  0  0  0  0  0
    2.0922   -0.5789    1.8894 H   0  0  0  0  0  0  0  0  0  0  0  0
    2.8931    2.3590   -1.2387 H   0  0  0  0  0  0  0  0  0  0  0  0
    3.0700    0.7298   -2.1261 H   0  0  0  0  0  0  0  0  0  0  0  0
   -0.4453    1.5970    1.4740 C   0  0  0  0  0  0  0  0  0  0  0  0
   -1.1570    0.5536    0.6541 C   0  0  0  0  0  0  0  0  0  0  0  0
   -2.0351    0.9316   -0.2725 C   0  0  0  0  0  0  0  0  0  0  0  0
   -3.0254    1.2802   -1.0272 C   0  0  0  0  0  0  0  0  0  0  0  0
   -0.8408   -0.7289    0.9468 N   0  0  0  0  0  0  0  0  0  0  0  0
   -1.3965   -1.7863    0.1411 C   0  0  0  0  0  0  0  0  0  0  0  0
   -0.8653   -1.8384   -1.2940 C   0  0  0  0  0  0  0  0  0  0  0  0
   -0.9280    2.5642    1.3659 H   0  0  0  0  0  0  0  0  0  0  0  0
   -0.4494    1.3012    2.5203 H   0  0  0  0  0  0  0  0  0  0  0  0
    0.5891    1.6768    1.1387 H   0  0  0  0  0  0  0  0  0  0  0  0
   -4.0490    1.3070   -0.6738 H   0  0  0  0  0  0  0  0  0  0  0  0
   -2.8850    1.5742   -2.0586 H   0  0  0  0  0  0  0  0  0  0  0  0
    0.4071   -0.9052    1.0414 H   0  0  0  0  0  0  0  0  0  0  0  0
   -1.1626   -2.7249    0.6537 H   0  0  0  0  0  0  0  0  0  0  0  0
   -2.4865   -1.6701    0.1147 H   0  0  0  0  0  0  0  0  0  0  0  0
    0.2129   -1.9778   -1.2934 H   0  0  0  0  0  0  0  0  0  0  0  0
   -1.0960   -0.9114   -1.8133 H   0  0  0  0  0  0  0  0  0  0  0  0
   -1.3254   -2.6642   -1.8305 H   0  0  0  0  0  0  0  0  0  0  0  0
  1  2  1  0
  1  5  1  0
  1  6  1  0
  2  3  1  0
  3  4  2  3
  4  7  1  0
  4  8  1  0
  9 10  1  0
  9 16  1  0
  9 17  1  0
  9 18  1  0
 10 11  2  0
 10 13  1  0
 11 12  2  0
 12 19  1  0
 12 20  1  0
 13 14  1  0
 13 21  1  0
 14 15  1  0
 14 22  1  0
 14 23  1  0
 15 24  1  0
 15 25  1  0
 15 26  1  0
M  RAD  1   1   2
M  END
>  <reaction>  (14) 
rmg_rxn_15670

>  <mol_properties>  (14) 
{"0": {"label": "*3", "atom_type": "Cs"}, "1": {"label": "*4", "atom_type": "O2s"}, "9": {"label": "*0", "atom_type": "Cd"}, "12": {"label": "*1", "atom_type": "N3s"}, "20": {"label": "*2", "atom_type": "H0"}}

>  <type>  (14) 
unop_10

>  <geom_source>  (14) 
Heuristics

$$$$

     RDKit          3D

 26 24  0  0  0  0  0  0  0  0999 V2000
   -0.6948   -0.9982   -1.0897 C   0  0  0  0  0  3  0  0  0  0  0  0
   -0.5519   -2.2158   -0.3851 O   0  0  0  0  0  0  0  0  0  0  0  0
   -1.2414   -3.2110   -1.0354 N   0  0  0  0  0  0  0  0  0  0  0  0
   -1.1433   -4.3220   -0.4415 C   0  0  0  0  0  0  0  0  0  0  0  0
   -0.2877   -1.0813   -2.0999 H   0  0  0  0  0  0  0  0  0  0  0  0
   -1.7438   -0.6981   -1.1425 H   0  0  0  0  0  0  0  0  0  0  0  0
   -1.6595   -5.1595   -0.8914 H   0  0  0  0  0  0  0  0  0  0  0  0
   -0.5728   -4.4476    0.4763 H   0  0  0  0  0  0  0  0  0  0  0  0
    0.5651    1.9751   -1.8668 C   0  0  0  0  0  0  0  0  0  0  0  0
    0.5651    1.9751   -0.3636 C   0  0  0  0  0  0  0  0  0  0  0  0
    0.5651    3.0938    0.3211 C   0  0  0  0  0  0  0  0  0  0  0  0
    0.6367    4.2219    0.9668 C   0  0  0  0  0  0  0  0  0  0  0  0
    0.6153    0.7065    0.2204 N   0  0  0  0  0  0  0  0  0  0  0  0
    0.4244    0.5923    1.6510 C   0  0  0  0  0  0  0  0  0  0  0  0
    0.4725   -0.8599    2.0860 C   0  0  0  0  0  0  0  0  0  0  0  0
    1.4501    1.4562   -2.2416 H   0  0  0  0  0  0  0  0  0  0  0  0
   -0.3174    1.4549   -2.2510 H   0  0  0  0  0  0  0  0  0  0  0  0
    0.5586    2.9909   -2.2547 H   0  0  0  0  0  0  0  0  0  0  0  0
    1.5915    4.6617    1.2427 H   0  0  0  0  0  0  0  0  0  0  0  0
   -0.2538    4.7714    1.2582 H   0  0  0  0  0  0  0  0  0  0  0  0
   -0.0150   -0.1137   -0.4099 H   0  0  0  0  0  0  0  0  0  0  0  0
    1.2214    1.1572    2.1405 H   0  0  0  0  0  0  0  0  0  0  0  0
   -0.5222    1.0542    1.9672 H   0  0  0  0  0  0  0  0  0  0  0  0
    1.4244   -1.3157    1.8096 H   0  0  0  0  0  0  0  0  0  0  0  0
   -0.3308   -1.4377    1.6214 H   0  0  0  0  0  0  0  0  0  0  0  0
    0.3524   -0.9385    3.1669 H   0  0  0  0  0  0  0  0  0  0  0  0
  1  2  1  0
  1  5  1  0
  1  6  1  0
  2  3  1  0
  3  4  2  3
  4  7  1  0
  4  8  1  0
  9 10  1  0
  9 16  1  0
  9 17  1  0
  9 18  1  0
 10 11  2  0
 10 13  1  0
 11 12  2  0
 12 19  1  0
 12 20  1  0
 13 14  1  0
 13 21  1  0
 14 15  1  0
 14 22  1  0
 14 23  1  0
 15 24  1  0
 15 25  1  0
 15 26  1  0
M  RAD  1   1   2
M  END
>  <reaction>  (15) 
rmg_rxn_15670

>  <mol_properties>  (15) 
{"0": {"label": "*3", "atom_type": "Cs"}, "1": {"label": "*4", "atom_type": "O2s"}, "9": {"label": "*0", "atom_type": "Cd"}, "12": {"label": "*1", "atom_type": "N3s"}, "20": {"label": "*2", "atom_type": "H0"}}

>  <type>  (15) 
unop_11

>  <geom_source>  (15) 
Heuristics

$$$$

     RDKit          3D

 26 24  0  0  0  0  0  0  0  0999 V2000
    1.6863   -1.0990    1.0100 C   0  0  0  0  0  3  0  0  0  0  0  0
    2.2187   -0.6081   -0.1886 O   0  0  0  0  0  0  0  0  0  0  0  0
    2.3524    0.7613   -0.1755 N   0  0  0  0  0  0  0  0  0  0  0  0
    2.7948    1.2887   -1.2321 C   0  0  0  0  0  0  0  0  0  0  0  0
    1.8651   -2.1695    1.0194 H   0  0  0  0  0  0  0  0  0  0  0  0
    2.0933   -0.5946    1.8841 H   0  0  0  0  0  0  0  0  0  0  0  0
    2.9031    2.3587   -1.2259 H   0  0  0  0  0  0  0  0  0  0  0  0
    3.0692    0.7347   -2.1250 H   0  0  0  0  0  0  0  0  0  0  0  0
   -0.4367    1.5968    1.4727 C   0  0  0  0  0  0  0  0  0  0  0  0
   -1.1536    0.5558    0.6541 C   0  0  0  0  0  0  0  0  0  0  0  0
   -2.0314    0.9370   -0.2716 C   0  0  0  0  0  0  0  0  0  0  0  0
   -3.0209    1.2892   -1.0255 C   0  0  0  0  0  0  0  0  0  0  0  0
   -0.8422   -0.7278    0.9470 N   0  0  0  0  0  0  0  0  0  0  0  0
   -1.4046   -1.7833    0.1436 C   0  0  0  0  0  0  0  0  0  0  0  0
   -0.8768   -1.8396   -1.2926 C   0  0  0  0  0  0  0  0  0  0  0  0
    0.5982    1.6710    1.1375 H   0  0  0  0  0  0  0  0  0  0  0  0
   -0.9146    2.5662    1.3632 H   0  0  0  0  0  0  0  0  0  0  0  0
   -0.4424    1.3023    2.5193 H   0  0  0  0  0  0  0  0  0  0  0  0
   -4.0441    1.3206   -0.6711 H   0  0  0  0  0  0  0  0  0  0  0  0
   -2.8804    1.5820   -2.0572 H   0  0  0  0  0  0  0  0  0  0  0  0
    0.4052   -0.9092    1.0379 H   0  0  0  0  0  0  0  0  0  0  0  0
   -1.1741   -2.7226    0.6567 H   0  0  0  0  0  0  0  0  0  0  0  0
   -2.4940   -1.6621    0.1194 H   0  0  0  0  0  0  0  0  0  0  0  0
    0.2005   -1.9862   -1.2943 H   0  0  0  0  0  0  0  0  0  0  0  0
   -1.1023   -0.9110   -1.8116 H   0  0  0  0  0  0  0  0  0  0  0  0
   -1.3437   -2.6622   -1.8279 H   0  0  0  0  0  0  0  0  0  0  0  0
  1  2  1  0
  1  5  1  0
  1  6  1  0
  2  3  1  0
  3  4  2  3
  4  7  1  0
  4  8  1  0
  9 10  1  0
  9 16  1  0
  9 17  1  0
  9 18  1  0
 10 11  2  0
 10 13  1  0
 11 12  2  0
 12 19  1  0
 12 20  1  0
 13 14  1  0
 13 21  1  0
 14 15  1  0
 14 22  1  0
 14 23  1  0
 15 24  1  0
 15 25  1  0
 15 26  1  0
M  RAD  1   1   2
M  END
>  <reaction>  (16) 
rmg_rxn_15670

>  <mol_properties>  (16) 
{"0": {"label": "*3", "atom_type": "Cs"}, "1": {"label": "*4", "atom_type": "O2s"}, "9": {"label": "*0", "atom_type": "Cd"}, "12": {"label": "*1", "atom_type": "N3s"}, "20": {"label": "*2", "atom_type": "H0"}}

>  <type>  (16) 
unop_12

>  <geom_source>  (16) 
Heuristics

$$$$

     RDKit          3D

 26 24  0  0  0  0  0  0  0  0999 V2000
   -0.2018   -1.3986   -1.1603 C   0  0  0  0  0  3  0  0  0  0  0  0
   -1.5120   -1.3659   -0.6294 O   0  0  0  0  0  0  0  0  0  0  0  0
   -2.0217   -2.6411   -0.5751 N   0  0  0  0  0  0  0  0  0  0  0  0
   -3.1947   -2.6633   -0.1059 C   0  0  0  0  0  0  0  0  0  0  0  0
    0.4604   -1.9965   -0.5300 H   0  0  0  0  0  0  0  0  0  0  0  0
   -0.2015   -1.8019   -2.1755 H   0  0  0  0  0  0  0  0  0  0  0  0
   -3.6683   -3.6329   -0.0300 H   0  0  0  0  0  0  0  0  0  0  0  0
   -3.7166   -1.7627    0.2104 H   0  0  0  0  0  0  0  0  0  0  0  0
    1.0582    1.5746   -1.9374 C   0  0  0  0  0  0  0  0  0  0  0  0
    1.0582    1.5746   -0.4342 C   0  0  0  0  0  0  0  0  0  0  0  0
    1.0582    2.6934    0.2505 C   0  0  0  0  0  0  0  0  0  0  0  0
    1.1298    3.8215    0.8962 C   0  0  0  0  0  0  0  0  0  0  0  0
    1.1083    0.3060    0.1498 N   0  0  0  0  0  0  0  0  0  0  0  0
    0.9174    0.1919    1.5803 C   0  0  0  0  0  0  0  0  0  0  0  0
    0.9656   -1.2604    2.0154 C   0  0  0  0  0  0  0  0  0  0  0  0
    1.9431    1.0557   -2.3122 H   0  0  0  0  0  0  0  0  0  0  0  0
    0.1756    1.0544   -2.3216 H   0  0  0  0  0  0  0  0  0  0  0  0
    1.0516    2.5904   -2.3254 H   0  0  0  0  0  0  0  0  0  0  0  0
    2.0846    4.2612    1.1720 H   0  0  0  0  0  0  0  0  0  0  0  0
    0.2393    4.3709    1.1876 H   0  0  0  0  0  0  0  0  0  0  0  0
    0.4780   -0.5141   -0.4805 H   0  0  0  0  0  0  0  0  0  0  0  0
    1.7144    0.7567    2.0699 H   0  0  0  0  0  0  0  0  0  0  0  0
   -0.0291    0.6537    1.8966 H   0  0  0  0  0  0  0  0  0  0  0  0
    1.9174   -1.7161    1.7389 H   0  0  0  0  0  0  0  0  0  0  0  0
    0.1623   -1.8382    1.5507 H   0  0  0  0  0  0  0  0  0  0  0  0
    0.8455   -1.3390    3.0962 H   0  0  0  0  0  0  0  0  0  0  0  0
  1  2  1  0
  1  5  1  0
  1  6  1  0
  2  3  1  0
  3  4  2  3
  4  7  1  0
  4  8  1  0
  9 10  1  0
  9 16  1  0
  9 17  1  0
  9 18  1  0
 10 11  2  0
 10 13  1  0
 11 12  2  0
 12 19  1  0
 12 20  1  0
 13 14  1  0
 13 21  1  0
 14 15  1  0
 14 22  1  0
 14 23  1  0
 15 24  1  0
 15 25  1  0
 15 26  1  0
M  RAD  1   1   2
M  END
>  <reaction>  (17) 
rmg_rxn_15670

>  <mol_properties>  (17) 
{"0": {"label": "*3", "atom_type": "Cs"}, "1": {"label": "*4", "atom_type": "O2s"}, "9": {"label": "*0", "atom_type": "Cd"}, "12": {"label": "*1", "atom_type": "N3s"}, "20": {"label": "*2", "atom_type": "H0"}}

>  <type>  (17) 
unop_13

>  <geom_source>  (17) 
Heuristics

$$$$

     RDKit          3D

 26 24  0  0  0  0  0  0  0  0999 V2000
    1.6901   -1.0886    1.0184 C   0  0  0  0  0  3  0  0  0  0  0  0
    2.2220   -0.6024   -0.1824 O   0  0  0  0  0  0  0  0  0  0  0  0
    2.3442    0.7682   -0.1792 N   0  0  0  0  0  0  0  0  0  0  0  0
    2.7836    1.2911   -1.2394 C   0  0  0  0  0  0  0  0  0  0  0  0
    1.8750   -2.1580    1.0349 H   0  0  0  0  0  0  0  0  0  0  0  0
    2.0927   -0.5764    1.8901 H   0  0  0  0  0  0  0  0  0  0  0  0
    2.8831    2.3620   -1.2413 H   0  0  0  0  0  0  0  0  0  0  0  0
    3.0632    0.7325   -2.1278 H   0  0  0  0  0  0  0  0  0  0  0  0
   -0.4475    1.5950    1.4774 C   0  0  0  0  0  0  0  0  0  0  0  0
   -1.1570    0.5519    0.6552 C   0  0  0  0  0  0  0  0  0  0  0  0
   -2.0342    0.9303   -0.2722 C   0  0  0  0  0  0  0  0  0  0  0  0
   -3.0236    1.2789   -1.0280 C   0  0  0  0  0  0  0  0  0  0  0  0
   -0.8400   -0.7307    0.9467 N   0  0  0  0  0  0  0  0  0  0  0  0
   -1.3938   -1.7875    0.1390 C   0  0  0  0  0  0  0  0  0  0  0  0
   -0.8599   -1.8380   -1.2952 C   0  0  0  0  0  0  0  0  0  0  0  0
   -0.4519    1.2974    2.5231 H   0  0  0  0  0  0  0  0  0  0  0  0
    0.5871    1.6769    1.1428 H   0  0  0  0  0  0  0  0  0  0  0  0
   -0.9316    2.5617    1.3704 H   0  0  0  0  0  0  0  0  0  0  0  0
   -4.0478    1.3044   -0.6762 H   0  0  0  0  0  0  0  0  0  0  0  0
   -2.8819    1.5744   -2.0588 H   0  0  0  0  0  0  0  0  0  0  0  0
    0.4080   -0.9059    1.0423 H   0  0  0  0  0  0  0  0  0  0  0  0
   -1.1606   -2.7265    0.6511 H   0  0  0  0  0  0  0  0  0  0  0  0
   -2.4838   -1.6716    0.1106 H   0  0  0  0  0  0  0  0  0  0  0  0
   -1.0880   -0.9096   -1.8132 H   0  0  0  0  0  0  0  0  0  0  0  0
   -1.3203   -2.6620   -1.8340 H   0  0  0  0  0  0  0  0  0  0  0  0
    0.2181   -1.9792   -1.2927 H   0  0  0  0  0  0  0  0  0  0  0  0
  1  2  1  0
  1  5  1  0
  1  6  1  0
  2  3  1  0
  3  4  2  3
  4  7  1  0
  4  8  1  0
  9 10  1  0
  9 16  1  0
  9 17  1  0
  9 18  1  0
 10 11  2  0
 10 13  1  0
 11 12  2  0
 12 19  1  0
 12 20  1  0
 13 14  1  0
 13 21  1  0
 14 15  1  0
 14 22  1  0
 14 23  1  0
 15 24  1  0
 15 25  1  0
 15 26  1  0
M  RAD  1   1   2
M  END
>  <reaction>  (18) 
rmg_rxn_15670

>  <mol_properties>  (18) 
{"0": {"label": "*3", "atom_type": "Cs"}, "1": {"label": "*4", "atom_type": "O2s"}, "9": {"label": "*0", "atom_type": "Cd"}, "12": {"label": "*1", "atom_type": "N3s"}, "20": {"label": "*2", "atom_type": "H0"}}

>  <type>  (18) 
unop_14

>  <geom_source>  (18) 
Heuristics

$$$$

     RDKit          3D

 26 24  0  0  0  0  0  0  0  0999 V2000
   -0.3802   -1.1970   -1.2403 C   0  0  0  0  0  3  0  0  0  0  0  0
   -1.3704   -1.6824   -0.3552 O   0  0  0  0  0  0  0  0  0  0  0  0
   -1.5515   -3.0298   -0.5568 N   0  0  0  0  0  0  0  0  0  0  0  0
   -2.4299   -3.5107    0.2138 C   0  0  0  0  0  0  0  0  0  0  0  0
    0.5773   -1.6926   -1.0651 H   0  0  0  0  0  0  0  0  0  0  0  0
   -0.6811   -1.3415   -2.2803 H   0  0  0  0  0  0  0  0  0  0  0  0
   -2.6323   -4.5691    0.1175 H   0  0  0  0  0  0  0  0  0  0  0  0
   -2.9650   -2.9057    0.9426 H   0  0  0  0  0  0  0  0  0  0  0  0
    0.8798    1.7763   -2.0173 C   0  0  0  0  0  0  0  0  0  0  0  0
    0.8798    1.7763   -0.5141 C   0  0  0  0  0  0  0  0  0  0  0  0
    0.8798    2.8950    0.1705 C   0  0  0  0  0  0  0  0  0  0  0  0
    0.9514    4.0231    0.8163 C   0  0  0  0  0  0  0  0  0  0  0  0
    0.9299    0.5077    0.0698 N   0  0  0  0  0  0  0  0  0  0  0  0
    0.7390    0.3935    1.5004 C   0  0  0  0  0  0  0  0  0  0  0  0
    0.7872   -1.0587    1.9355 C   0  0  0  0  0  0  0  0  0  0  0  0
    1.7647    1.2574   -2.3921 H   0  0  0  0  0  0  0  0  0  0  0  0
   -0.0028    1.2560   -2.4016 H   0  0  0  0  0  0  0  0  0  0  0  0
    0.8732    2.7921   -2.4053 H   0  0  0  0  0  0  0  0  0  0  0  0
    1.9061    4.4628    1.0921 H   0  0  0  0  0  0  0  0  0  0  0  0
    0.0609    4.5726    1.1076 H   0  0  0  0  0  0  0  0  0  0  0  0
    0.2996   -0.3125   -0.5605 H   0  0  0  0  0  0  0  0  0  0  0  0
    1.5360    0.9584    1.9899 H   0  0  0  0  0  0  0  0  0  0  0  0
   -0.2075    0.8553    1.8166 H   0  0  0  0  0  0  0  0  0  0  0  0
    1.7390   -1.5145    1.6590 H   0  0  0  0  0  0  0  0  0  0  0  0
   -0.0162   -1.6365    1.4708 H   0  0  0  0  0  0  0  0  0  0  0  0
    0.6670   -1.1373    3.0163 H   0  0  0  0  0  0  0  0  0  0  0  0
  1  2  1  0
  1  5  1  0
  1  6  1  0
  2  3  1  0
  3  4  2  3
  4  7  1  0
  4  8  1  0
  9 10  1  0
  9 16  1  0
  9 17  1  0
  9 18  1  0
 10 11  2  0
 10 13  1  0
 11 12  2  0
 12 19  1  0
 12 20  1  0
 13 14  1  0
 13 21  1  0
 14 15  1  0
 14 22  1  0
 14 23  1  0
 15 24  1  0
 15 25  1  0
 15 26  1  0
M  RAD  1   1   2
M  END
>  <reaction>  (19) 
rmg_rxn_15670

>  <mol_properties>  (19) 
{"0": {"label": "*3", "atom_type": "Cs"}, "1": {"label": "*4", "atom_type": "O2s"}, "9": {"label": "*0", "atom_type": "Cd"}, "12": {"label": "*1", "atom_type": "N3s"}, "20": {"label": "*2", "atom_type": "H0"}}

>  <type>  (19) 
unop_15

>  <geom_source>  (19) 
Heuristics

$$$$

     RDKit          3D

 26 24  0  0  0  0  0  0  0  0999 V2000
   -1.6879   -1.0939   -1.0141 C   0  0  0  0  0  3  0  0  0  0  0  0
   -2.2198   -0.6052    0.1856 O   0  0  0  0  0  0  0  0  0  0  0  0
   -2.3484    0.7648    0.1772 N   0  0  0  0  0  0  0  0  0  0  0  0
   -2.7885    1.2900    1.2359 C   0  0  0  0  0  0  0  0  0  0  0  0
   -1.8702   -2.1638   -1.0272 H   0  0  0  0  0  0  0  0  0  0  0  0
   -2.0926   -0.5853   -1.8870 H   0  0  0  0  0  0  0  0  0  0  0  0
   -2.8931    2.3604    1.2336 H   0  0  0  0  0  0  0  0  0  0  0  0
   -3.0646    0.7337    2.1268 H   0  0  0  0  0  0  0  0  0  0  0  0
    0.4424    1.5950   -1.4766 C   0  0  0  0  0  0  0  0  0  0  0  0
    1.1552    0.5536   -0.6551 C   0  0  0  0  0  0  0  0  0  0  0  0
    2.0319    0.9341    0.2720 C   0  0  0  0  0  0  0  0  0  0  0  0
    3.0205    1.2855    1.0276 C   0  0  0  0  0  0  0  0  0  0  0  0
    0.8414   -0.7296   -0.9468 N   0  0  0  0  0  0  0  0  0  0  0  0
    1.3997   -1.7854   -0.1408 C   0  0  0  0  0  0  0  0  0  0  0  0
    0.8683   -1.8391    1.2942 C   0  0  0  0  0  0  0  0  0  0  0  0
    0.4479    1.2980   -2.5225 H   0  0  0  0  0  0  0  0  0  0  0  0
   -0.5925    1.6734   -1.1422 H   0  0  0  0  0  0  0  0  0  0  0  0
    0.9234    2.5632   -1.3690 H   0  0  0  0  0  0  0  0  0  0  0  0
    4.0445    1.3139    0.6756 H   0  0  0  0  0  0  0  0  0  0  0  0
    2.8782    1.5802    2.0585 H   0  0  0  0  0  0  0  0  0  0  0  0
   -0.4063   -0.9080   -1.0401 H   0  0  0  0  0  0  0  0  0  0  0  0
    1.1685   -2.7248   -0.6535 H   0  0  0  0  0  0  0  0  0  0  0  0
    2.4893   -1.6664   -0.1141 H   0  0  0  0  0  0  0  0  0  0  0  0
   -0.2093   -1.9827    1.2934 H   0  0  0  0  0  0  0  0  0  0  0  0
    1.0952   -0.9109    1.8131 H   0  0  0  0  0  0  0  0  0  0  0  0
    1.3316   -2.6628    1.8311 H   0  0  0  0  0  0  0  0  0  0  0  0
  1  2  1  0
  1  5  1  0
  1  6  1  0
  2  3  1  0
  3  4  2  3
  4  7  1  0
  4  8  1  0
  9 10  1  0
  9 16  1  0
  9 17  1  0
  9 18  1  0
 10 11  2  0
 10 13  1  0
 11 12  2  0
 12 19  1  0
 12 20  1  0
 13 14  1  0
 13 21  1  0
 14 15  1  0
 14 22  1  0
 14 23  1  0
 15 24  1  0
 15 25  1  0
 15 26  1  0
M  RAD  1   1   2
M  END
>  <reaction>  (20) 
rmg_rxn_15670

>  <mol_properties>  (20) 
{"0": {"label": "*3", "atom_type": "Cs"}, "1": {"label": "*4", "atom_type": "O2s"}, "9": {"label": "*0", "atom_type": "Cd"}, "12": {"label": "*1", "atom_type": "N3s"}, "20": {"label": "*2", "atom_type": "H0"}}

>  <type>  (20) 
unop_16

>  <geom_source>  (20) 
Heuristics

$$$$

     RDKit          3D

 26 24  0  0  0  0  0  0  0  0999 V2000
   -1.0606   -1.1726   -0.5955 C   0  0  0  0  0  3  0  0  0  0  0  0
   -0.1494   -1.7245   -1.5254 O   0  0  0  0  0  0  0  0  0  0  0  0
   -0.3797   -3.0732   -1.6549 N   0  0  0  0  0  0  0  0  0  0  0  0
    0.4128   -3.6126   -2.4782 C   0  0  0  0  0  0  0  0  0  0  0  0
   -2.0911   -1.3047   -0.9329 H   0  0  0  0  0  0  0  0  0  0  0  0
   -0.9378   -1.6285    0.3895 H   0  0  0  0  0  0  0  0  0  0  0  0
    0.2965   -4.6763   -2.6373 H   0  0  0  0  0  0  0  0  0  0  0  0
    1.1787   -3.0510   -3.0086 H   0  0  0  0  0  0  0  0  0  0  0  0
    0.1993    1.8006   -1.3726 C   0  0  0  0  0  0  0  0  0  0  0  0
    0.1993    1.8006    0.1306 C   0  0  0  0  0  0  0  0  0  0  0  0
    0.1993    2.9194    0.8153 C   0  0  0  0  0  0  0  0  0  0  0  0
    0.2709    4.0475    1.4610 C   0  0  0  0  0  0  0  0  0  0  0  0
    0.2495    0.5320    0.7146 N   0  0  0  0  0  0  0  0  0  0  0  0
    0.0586    0.4179    2.1451 C   0  0  0  0  0  0  0  0  0  0  0  0
    0.1067   -1.0344    2.5802 C   0  0  0  0  0  0  0  0  0  0  0  0
    1.0842    1.2817   -1.7474 H   0  0  0  0  0  0  0  0  0  0  0  0
   -0.6832    1.2804   -1.7569 H   0  0  0  0  0  0  0  0  0  0  0  0
    0.1928    2.8164   -1.7606 H   0  0  0  0  0  0  0  0  0  0  0  0
    1.2257    4.4872    1.7368 H   0  0  0  0  0  0  0  0  0  0  0  0
   -0.6196    4.5969    1.7524 H   0  0  0  0  0  0  0  0  0  0  0  0
   -0.3808   -0.2881    0.0842 H   0  0  0  0  0  0  0  0  0  0  0  0
    0.8555    0.9827    2.6347 H   0  0  0  0  0  0  0  0  0  0  0  0
   -0.8880    0.8797    2.4614 H   0  0  0  0  0  0  0  0  0  0  0  0
    1.0585   -1.4901    2.3037 H   0  0  0  0  0  0  0  0  0  0  0  0
   -0.6966   -1.6122    2.1155 H   0  0  0  0  0  0  0  0  0  0  0  0
   -0.0134   -1.1130    3.6610 H   0  0  0  0  0  0  0  0  0  0  0  0
  1  2  1  0
  1  5  1  0
  1  6  1  0
  2  3  1  0
  3  4  2  3
  4  7  1  0
  4  8  1  0
  9 10  1  0
  9 16  1  0
  9 17  1  0
  9 18  1  0
 10 11  2  0
 10 13  1  0
 11 12  2  0
 12 19  1  0
 12 20  1  0
 13 14  1  0
 13 21  1  0
 14 15  1  0
 14 22  1  0
 14 23  1  0
 15 24  1  0
 15 25  1  0
 15 26  1  0
M  RAD  1   1   2
M  END
>  <reaction>  (21) 
rmg_rxn_15670

>  <mol_properties>  (21) 
{"0": {"label": "*3", "atom_type": "Cs"}, "1": {"label": "*4", "atom_type": "O2s"}, "9": {"label": "*0", "atom_type": "Cd"}, "12": {"label": "*1", "atom_type": "N3s"}, "20": {"label": "*2", "atom_type": "H0"}}

>  <type>  (21) 
unop_17

>  <geom_source>  (21) 
Heuristics

$$$$

     RDKit          3D

 26 24  0  0  0  0  0  0  0  0999 V2000
   -1.6893    1.0918    1.0158 C   0  0  0  0  0  3  0  0  0  0  0  0
   -2.2211    0.6035   -0.1842 O   0  0  0  0  0  0  0  0  0  0  0  0
   -2.3442   -0.7670   -0.1784 N   0  0  0  0  0  0  0  0  0  0  0  0
   -2.7835   -1.2920   -1.2375 C   0  0  0  0  0  0  0  0  0  0  0  0
   -1.8728    2.1615    1.0296 H   0  0  0  0  0  0  0  0  0  0  0  0
   -2.0933    0.5822    1.8883 H   0  0  0  0  0  0  0  0  0  0  0  0
   -2.8839   -2.3628   -1.2369 H   0  0  0  0  0  0  0  0  0  0  0  0
   -3.0627   -0.7353   -2.1272 H   0  0  0  0  0  0  0  0  0  0  0  0
    0.4445   -1.5950    1.4773 C   0  0  0  0  0  0  0  0  0  0  0  0
    1.1559   -0.5527    0.6556 C   0  0  0  0  0  0  0  0  0  0  0  0
    2.0333   -0.9317   -0.2713 C   0  0  0  0  0  0  0  0  0  0  0  0
    3.0215   -1.2810   -1.0283 C   0  0  0  0  0  0  0  0  0  0  0  0
    0.8404    0.7303    0.9470 N   0  0  0  0  0  0  0  0  0  0  0  0
    1.3963    1.7862    0.1395 C   0  0  0  0  0  0  0  0  0  0  0  0
    0.8620    1.8386   -1.2945 C   0  0  0  0  0  0  0  0  0  0  0  0
    0.9281   -2.5621    1.3714 H   0  0  0  0  0  0  0  0  0  0  0  0
    0.4479   -1.2969    2.5229 H   0  0  0  0  0  0  0  0  0  0  0  0
   -0.5897   -1.6762    1.1415 H   0  0  0  0  0  0  0  0  0  0  0  0
    4.0461   -1.3074   -0.6778 H   0  0  0  0  0  0  0  0  0  0  0  0
    2.8784   -1.5760   -2.0591 H   0  0  0  0  0  0  0  0  0  0  0  0
   -0.4076    0.9071    1.0412 H   0  0  0  0  0  0  0  0  0  0  0  0
    1.1654    2.7256    0.6522 H   0  0  0  0  0  0  0  0  0  0  0  0
    2.4860    1.6680    0.1106 H   0  0  0  0  0  0  0  0  0  0  0  0
    1.0888    0.9102   -1.8133 H   0  0  0  0  0  0  0  0  0  0  0  0
    1.3234    2.6624   -1.8328 H   0  0  0  0  0  0  0  0  0  0  0  0
   -0.2158    1.9811   -1.2916 H   0  0  0  0  0  0  0  0  0  0  0  0
  1  2  1  0
  1  5  1  0
  1  6  1  0
  2  3  1  0
  3  4  2  3
  4  7  1  0
  4  8  1  0
  9 10  1  0
  9 16  1  0
  9 17  1  0
  9 18  1  0
 10 11  2  0
 10 13  1  0
 11 12  2  0
 12 19  1  0
 12 20  1  0
 13 14  1  0
 13 21  1  0
 14 15  1  0
 14 22  1  0
 14 23  1  0
 15 24  1  0
 15 25  1  0
 15 26  1  0
M  RAD  1   1   2
M  END
>  <reaction>  (22) 
rmg_rxn_15670

>  <mol_properties>  (22) 
{"0": {"label": "*3", "atom_type": "Cs"}, "1": {"label": "*4", "atom_type": "O2s"}, "9": {"label": "*0", "atom_type": "Cd"}, "12": {"label": "*1", "atom_type": "N3s"}, "20": {"label": "*2", "atom_type": "H0"}}

>  <type>  (22) 
unop_18

>  <geom_source>  (22) 
Heuristics

$$$$

     RDKit          3D

 26 24  0  0  0  0  0  0  0  0999 V2000
   -0.2046   -1.7231   -0.6601 C   0  0  0  0  0  3  0  0  0  0  0  0
   -1.2560   -1.0069   -1.2774 O   0  0  0  0  0  0  0  0  0  0  0  0
   -2.2456   -1.8786   -1.6644 N   0  0  0  0  0  0  0  0  0  0  0  0
   -3.2101   -1.2833   -2.2230 C   0  0  0  0  0  0  0  0  0  0  0  0
   -0.5583   -2.2445    0.2323 H   0  0  0  0  0  0  0  0  0  0  0  0
    0.2368   -2.4433   -1.3526 H   0  0  0  0  0  0  0  0  0  0  0  0
   -4.0325   -1.9011   -2.5580 H   0  0  0  0  0  0  0  0  0  0  0  0
   -3.2289   -0.2052   -2.3677 H   0  0  0  0  0  0  0  0  0  0  0  0
    1.0553    1.2501   -1.4372 C   0  0  0  0  0  0  0  0  0  0  0  0
    1.0553    1.2501    0.0660 C   0  0  0  0  0  0  0  0  0  0  0  0
    1.0553    2.3689    0.7507 C   0  0  0  0  0  0  0  0  0  0  0  0
    1.1269    3.4970    1.3965 C   0  0  0  0  0  0  0  0  0  0  0  0
    1.1055   -0.0185    0.6500 N   0  0  0  0  0  0  0  0  0  0  0  0
    0.9146   -0.1326    2.0806 C   0  0  0  0  0  0  0  0  0  0  0  0
    0.9627   -1.5849    2.5157 C   0  0  0  0  0  0  0  0  0  0  0  0
    1.9402    0.7312   -1.8120 H   0  0  0  0  0  0  0  0  0  0  0  0
    0.1728    0.7299   -1.8214 H   0  0  0  0  0  0  0  0  0  0  0  0
    1.0488    2.2659   -1.8251 H   0  0  0  0  0  0  0  0  0  0  0  0
    2.0817    3.9367    1.6723 H   0  0  0  0  0  0  0  0  0  0  0  0
    0.2364    4.0464    1.6878 H   0  0  0  0  0  0  0  0  0  0  0  0
    0.4751   -0.8386    0.0197 H   0  0  0  0  0  0  0  0  0  0  0  0
    1.7115    0.4322    2.5701 H   0  0  0  0  0  0  0  0  0  0  0  0
   -0.0320    0.3292    2.3968 H   0  0  0  0  0  0  0  0  0  0  0  0
    1.9145   -2.0406    2.2392 H   0  0  0  0  0  0  0  0  0  0  0  0
    0.1594   -2.1627    2.0510 H   0  0  0  0  0  0  0  0  0  0  0  0
    0.8426   -1.6635    3.5965 H   0  0  0  0  0  0  0  0  0  0  0  0
  1  2  1  0
  1  5  1  0
  1  6  1  0
  2  3  1  0
  3  4  2  3
  4  7  1  0
  4  8  1  0
  9 10  1  0
  9 16  1  0
  9 17  1  0
  9 18  1  0
 10 11  2  0
 10 13  1  0
 11 12  2  0
 12 19  1  0
 12 20  1  0
 13 14  1  0
 13 21  1  0
 14 15  1  0
 14 22  1  0
 14 23  1  0
 15 24  1  0
 15 25  1  0
 15 26  1  0
M  RAD  1   1   2
M  END
>  <reaction>  (23) 
rmg_rxn_15670

>  <mol_properties>  (23) 
{"0": {"label": "*3", "atom_type": "Cs"}, "1": {"label": "*4", "atom_type": "O2s"}, "9": {"label": "*0", "atom_type": "Cd"}, "12": {"label": "*1", "atom_type": "N3s"}, "20": {"label": "*2", "atom_type": "H0"}}

>  <type>  (23) 
unop_19

>  <geom_source>  (23) 
Heuristics

$$$$

     RDKit          3D

 26 24  0  0  0  0  0  0  0  0999 V2000
   -0.9688   -1.3762   -0.3922 C   0  0  0  0  0  3  0  0  0  0  0  0
   -0.3776   -1.4099   -1.6763 O   0  0  0  0  0  0  0  0  0  0  0  0
   -0.4799   -2.6763   -2.2002 N   0  0  0  0  0  0  0  0  0  0  0  0
    0.0362   -2.7566   -3.3509 C   0  0  0  0  0  0  0  0  0  0  0  0
   -2.0296   -1.6317   -0.4437 H   0  0  0  0  0  0  0  0  0  0  0  0
   -0.4609   -2.0618    0.2898 H   0  0  0  0  0  0  0  0  0  0  0  0
   -0.0034   -3.7240   -3.8335 H   0  0  0  0  0  0  0  0  0  0  0  0
    0.5006   -1.9063   -3.8456 H   0  0  0  0  0  0  0  0  0  0  0  0
    0.2911    1.5971   -1.1693 C   0  0  0  0  0  0  0  0  0  0  0  0
    0.2911    1.5971    0.3339 C   0  0  0  0  0  0  0  0  0  0  0  0
    0.2911    2.7158    1.0186 C   0  0  0  0  0  0  0  0  0  0  0  0
    0.3627    3.8439    1.6643 C   0  0  0  0  0  0  0  0  0  0  0  0
    0.3413    0.3284    0.9179 N   0  0  0  0  0  0  0  0  0  0  0  0
    0.1504    0.2143    2.3484 C   0  0  0  0  0  0  0  0  0  0  0  0
    0.1985   -1.2380    2.7835 C   0  0  0  0  0  0  0  0  0  0  0  0
    1.1761    1.0781   -1.5441 H   0  0  0  0  0  0  0  0  0  0  0  0
   -0.5914    1.0768   -1.5535 H   0  0  0  0  0  0  0  0  0  0  0  0
    0.2846    2.6129   -1.5573 H   0  0  0  0  0  0  0  0  0  0  0  0
    1.3175    4.2836    1.9401 H   0  0  0  0  0  0  0  0  0  0  0  0
   -0.5278    4.3933    1.9557 H   0  0  0  0  0  0  0  0  0  0  0  0
   -0.2890   -0.4917    0.2875 H   0  0  0  0  0  0  0  0  0  0  0  0
    0.9473    0.7792    2.8380 H   0  0  0  0  0  0  0  0  0  0  0  0
   -0.7962    0.6761    2.6647 H   0  0  0  0  0  0  0  0  0  0  0  0
    1.1503   -1.6937    2.5070 H   0  0  0  0  0  0  0  0  0  0  0  0
   -0.6048   -1.8158    2.3188 H   0  0  0  0  0  0  0  0  0  0  0  0
    0.0784   -1.3166    3.8643 H   0  0  0  0  0  0  0  0  0  0  0  0
  1  2  1  0
  1  5  1  0
  1  6  1  0
  2  3  1  0
  3  4  2  3
  4  7  1  0
  4  8  1  0
  9 10  1  0
  9 16  1  0
  9 17  1  0
  9 18  1  0
 10 11  2  0
 10 13  1  0
 11 12  2  0
 12 19  1  0
 12 20  1  0
 13 14  1  0
 13 21  1  0
 14 15  1  0
 14 22  1  0
 14 23  1  0
 15 24  1  0
 15 25  1  0
 15 26  1  0
M  RAD  1   1   2
M  END
>  <reaction>  (24) 
rmg_rxn_15670

>  <mol_properties>  (24) 
{"0": {"label": "*3", "atom_type": "Cs"}, "1": {"label": "*4", "atom_type": "O2s"}, "9": {"label": "*0", "atom_type": "Cd"}, "12": {"label": "*1", "atom_type": "N3s"}, "20": {"label": "*2", "atom_type": "H0"}}

>  <type>  (24) 
unop_20

>  <geom_source>  (24) 
Heuristics

$$$$

     RDKit          3D

 26 24  0  0  0  0  0  0  0  0999 V2000
   -0.5697   -1.0563   -1.1854 C   0  0  0  0  0  3  0  0  0  0  0  0
   -1.0280   -1.9994   -0.2367 O   0  0  0  0  0  0  0  0  0  0  0  0
   -1.2272   -3.2133   -0.8494 N   0  0  0  0  0  0  0  0  0  0  0  0
   -1.6384   -4.0916   -0.0393 C   0  0  0  0  0  0  0  0  0  0  0  0
    0.3814   -1.3707   -1.6208 H   0  0  0  0  0  0  0  0  0  0  0  0
   -1.3052   -0.9125   -1.9801 H   0  0  0  0  0  0  0  0  0  0  0  0
   -1.8200   -5.0780   -0.4446 H   0  0  0  0  0  0  0  0  0  0  0  0
   -1.8066   -3.8835    1.0152 H   0  0  0  0  0  0  0  0  0  0  0  0
    0.6903    1.9170   -1.9624 C   0  0  0  0  0  0  0  0  0  0  0  0
    0.6903    1.9170   -0.4593 C   0  0  0  0  0  0  0  0  0  0  0  0
    0.6903    3.0357    0.2254 C   0  0  0  0  0  0  0  0  0  0  0  0
    0.7618    4.1639    0.8712 C   0  0  0  0  0  0  0  0  0  0  0  0
    0.7404    0.6484    0.1247 N   0  0  0  0  0  0  0  0  0  0  0  0
    0.5495    0.5343    1.5553 C   0  0  0  0  0  0  0  0  0  0  0  0
    0.5977   -0.9180    1.9904 C   0  0  0  0  0  0  0  0  0  0  0  0
    1.5752    1.3981   -2.3373 H   0  0  0  0  0  0  0  0  0  0  0  0
   -0.1923    1.3968   -2.3467 H   0  0  0  0  0  0  0  0  0  0  0  0
    0.6837    2.9328   -2.3504 H   0  0  0  0  0  0  0  0  0  0  0  0
    1.7166    4.6036    1.1470 H   0  0  0  0  0  0  0  0  0  0  0  0
   -0.1287    4.7133    1.1625 H   0  0  0  0  0  0  0  0  0  0  0  0
    0.1101   -0.1717   -0.5056 H   0  0  0  0  0  0  0  0  0  0  0  0
    1.3465    1.0991    2.0448 H   0  0  0  0  0  0  0  0  0  0  0  0
   -0.3971    0.9961    1.8715 H   0  0  0  0  0  0  0  0  0  0  0  0
    1.5495   -1.3737    1.7139 H   0  0  0  0  0  0  0  0  0  0  0  0
   -0.2057   -1.4958    1.5257 H   0  0  0  0  0  0  0  0  0  0  0  0
    0.4775   -0.9966    3.0712 H   0  0  0  0  0  0  0  0  0  0  0  0
  1  2  1  0
  1  5  1  0
  1  6  1  0
  2  3  1  0
  3  4  2  3
  4  7  1  0
  4  8  1  0
  9 10  1  0
  9 16  1  0
  9 17  1  0
  9 18  1  0
 10 11  2  0
 10 13  1  0
 11 12  2  0
 12 19  1  0
 12 20  1  0
 13 14  1  0
 13 21  1  0
 14 15  1  0
 14 22  1  0
 14 23  1  0
 15 24  1  0
 15 25  1  0
 15 26  1  0
M  RAD  1   1   2
M  END
>  <reaction>  (25) 
rmg_rxn_15670

>  <mol_properties>  (25) 
{"0": {"label": "*3", "atom_type": "Cs"}, "1": {"label": "*4", "atom_type": "O2s"}, "9": {"label": "*0", "atom_type": "Cd"}, "12": {"label": "*1", "atom_type": "N3s"}, "20": {"label": "*2", "atom_type": "H0"}}

>  <type>  (25) 
unop_21

>  <geom_source>  (25) 
Heuristics

$$$$

     RDKit          3D

 26 24  0  0  0  0  0  0  0  0999 V2000
   -0.4373   -1.7186   -0.4098 C   0  0  0  0  0  3  0  0  0  0  0  0
   -0.9792   -1.0202   -1.5134 O   0  0  0  0  0  0  0  0  0  0  0  0
   -1.7166   -1.8816   -2.2900 N   0  0  0  0  0  0  0  0  0  0  0  0
   -2.2228   -1.3015   -3.2920 C   0  0  0  0  0  0  0  0  0  0  0  0
   -1.2296   -2.1367    0.2152 H   0  0  0  0  0  0  0  0  0  0  0  0
    0.2265   -2.5199   -0.7422 H   0  0  0  0  0  0  0  0  0  0  0  0
   -2.8200   -1.9127   -3.9554 H   0  0  0  0  0  0  0  0  0  0  0  0
   -2.0758   -0.2424   -3.4923 H   0  0  0  0  0  0  0  0  0  0  0  0
    0.8226    1.2546   -1.1868 C   0  0  0  0  0  0  0  0  0  0  0  0
    0.8226    1.2546    0.3163 C   0  0  0  0  0  0  0  0  0  0  0  0
    0.8226    2.3734    1.0010 C   0  0  0  0  0  0  0  0  0  0  0  0
    0.8942    3.5015    1.6468 C   0  0  0  0  0  0  0  0  0  0  0  0
    0.8728   -0.0140    0.9003 N   0  0  0  0  0  0  0  0  0  0  0  0
    0.6819   -0.1281    2.3309 C   0  0  0  0  0  0  0  0  0  0  0  0
    0.7301   -1.5804    2.7660 C   0  0  0  0  0  0  0  0  0  0  0  0
    1.7076    0.7357   -1.5617 H   0  0  0  0  0  0  0  0  0  0  0  0
   -0.0599    0.7344   -1.5711 H   0  0  0  0  0  0  0  0  0  0  0  0
    0.8161    2.2704   -1.5748 H   0  0  0  0  0  0  0  0  0  0  0  0
    1.8490    3.9412    1.9226 H   0  0  0  0  0  0  0  0  0  0  0  0
    0.0037    4.0509    1.9381 H   0  0  0  0  0  0  0  0  0  0  0  0
    0.2425   -0.8341    0.2700 H   0  0  0  0  0  0  0  0  0  0  0  0
    1.4789    0.4367    2.8204 H   0  0  0  0  0  0  0  0  0  0  0  0
   -0.2647    0.3337    2.6471 H   0  0  0  0  0  0  0  0  0  0  0  0
    1.6819   -2.0361    2.4895 H   0  0  0  0  0  0  0  0  0  0  0  0
   -0.0733   -2.1582    2.3013 H   0  0  0  0  0  0  0  0  0  0  0  0
    0.6099   -1.6590    3.8468 H   0  0  0  0  0  0  0  0  0  0  0  0
  1  2  1  0
  1  5  1  0
  1  6  1  0
  2  3  1  0
  3  4  2  3
  4  7  1  0
  4  8  1  0
  9 10  1  0
  9 16  1  0
  9 17  1  0
  9 18  1  0
 10 11  2  0
 10 13  1  0
 11 12  2  0
 12 19  1  0
 12 20  1  0
 13 14  1  0
 13 21  1  0
 14 15  1  0
 14 22  1  0
 14 23  1  0
 15 24  1  0
 15 25  1  0
 15 26  1  0
M  RAD  1   1   2
M  END
>  <reaction>  (26) 
rmg_rxn_15670

>  <mol_properties>  (26) 
{"0": {"label": "*3", "atom_type": "Cs"}, "1": {"label": "*4", "atom_type": "O2s"}, "9": {"label": "*0", "atom_type": "Cd"}, "12": {"label": "*1", "atom_type": "N3s"}, "20": {"label": "*2", "atom_type": "H0"}}

>  <type>  (26) 
unop_22

>  <geom_source>  (26) 
Heuristics

$$$$

     RDKit          3D

 26 24  0  0  0  0  0  0  0  0999 V2000
   -1.6878    1.0957    1.0125 C   0  0  0  0  0  3  0  0  0  0  0  0
   -2.2196    0.6059   -0.1868 O   0  0  0  0  0  0  0  0  0  0  0  0
   -2.3490   -0.7640   -0.1767 N   0  0  0  0  0  0  0  0  0  0  0  0
   -2.7894   -1.2904   -1.2347 C   0  0  0  0  0  0  0  0  0  0  0  0
   -1.8690    2.1658    1.0240 H   0  0  0  0  0  0  0  0  0  0  0  0
   -2.0934    0.5888    1.8859 H   0  0  0  0  0  0  0  0  0  0  0  0
   -2.8946   -2.3607   -1.2308 H   0  0  0  0  0  0  0  0  0  0  0  0
   -3.0651   -0.7353   -2.1265 H   0  0  0  0  0  0  0  0  0  0  0  0
    0.4410   -1.5952    1.4761 C   0  0  0  0  0  0  0  0  0  0  0  0
    1.1546   -0.5540    0.6550 C   0  0  0  0  0  0  0  0  0  0  0  0
    2.0315   -0.9348   -0.2717 C   0  0  0  0  0  0  0  0  0  0  0  0
    3.0201   -1.2869   -1.0270 C   0  0  0  0  0  0  0  0  0  0  0  0
    0.8413    0.7293    0.9468 N   0  0  0  0  0  0  0  0  0  0  0  0
    1.4007    1.7851    0.1416 C   0  0  0  0  0  0  0  0  0  0  0  0
    0.8711    1.8391   -1.2940 C   0  0  0  0  0  0  0  0  0  0  0  0
    0.4470   -1.2988    2.5222 H   0  0  0  0  0  0  0  0  0  0  0  0
   -0.5939   -1.6726    1.1419 H   0  0  0  0  0  0  0  0  0  0  0  0
    0.9212   -2.5637    1.3680 H   0  0  0  0  0  0  0  0  0  0  0  0
    4.0441   -1.3160   -0.6748 H   0  0  0  0  0  0  0  0  0  0  0  0
    2.8779   -1.5814   -2.0580 H   0  0  0  0  0  0  0  0  0  0  0  0
   -0.4064    0.9086    1.0393 H   0  0  0  0  0  0  0  0  0  0  0  0
    1.1691    2.7244    0.6541 H   0  0  0  0  0  0  0  0  0  0  0  0
    2.4903    1.6659    0.1162 H   0  0  0  0  0  0  0  0  0  0  0  0
    1.3347    2.6632   -1.8300 H   0  0  0  0  0  0  0  0  0  0  0  0
   -0.2066    1.9822   -1.2945 H   0  0  0  0  0  0  0  0  0  0  0  0
    1.0991    0.9112   -1.8131 H   0  0  0  0  0  0  0  0  0  0  0  0
  1  2  1  0
  1  5  1  0
  1  6  1  0
  2  3  1  0
  3  4  2  3
  4  7  1  0
  4  8  1  0
  9 10  1  0
  9 16  1  0
  9 17  1  0
  9 18  1  0
 10 11  2  0
 10 13  1  0
 11 12  2  0
 12 19  1  0
 12 20  1  0
 13 14  1  0
 13 21  1  0
 14 15  1  0
 14 22  1  0
 14 23  1  0
 15 24  1  0
 15 25  1  0
 15 26  1  0
M  RAD  1   1   2
M  END
>  <reaction>  (27) 
rmg_rxn_15670

>  <mol_properties>  (27) 
{"0": {"label": "*3", "atom_type": "Cs"}, "1": {"label": "*4", "atom_type": "O2s"}, "9": {"label": "*0", "atom_type": "Cd"}, "12": {"label": "*1", "atom_type": "N3s"}, "20": {"label": "*2", "atom_type": "H0"}}

>  <type>  (27) 
unop_23

>  <geom_source>  (27) 
Heuristics

$$$$

     RDKit          3D

 26 24  0  0  0  0  0  0  0  0999 V2000
   -0.7353   -1.5835   -0.3111 C   0  0  0  0  0  3  0  0  0  0  0  0
   -0.6760   -1.1595   -1.6588 O   0  0  0  0  0  0  0  0  0  0  0  0
   -0.9921   -2.2084   -2.4887 N   0  0  0  0  0  0  0  0  0  0  0  0
   -0.9526   -1.8774   -3.7075 C   0  0  0  0  0  0  0  0  0  0  0  0
   -1.7408   -1.9229   -0.0522 H   0  0  0  0  0  0  0  0  0  0  0  0
   -0.0191   -2.3864   -0.1223 H   0  0  0  0  0  0  0  0  0  0  0  0
   -1.1896   -2.6492   -4.4275 H   0  0  0  0  0  0  0  0  0  0  0  0
   -0.6952   -0.8720   -4.0338 H   0  0  0  0  0  0  0  0  0  0  0  0
    0.5246    1.3898   -1.0882 C   0  0  0  0  0  0  0  0  0  0  0  0
    0.5246    1.3898    0.4150 C   0  0  0  0  0  0  0  0  0  0  0  0
    0.5246    2.5085    1.0997 C   0  0  0  0  0  0  0  0  0  0  0  0
    0.5962    3.6366    1.7454 C   0  0  0  0  0  0  0  0  0  0  0  0
    0.5748    0.1211    0.9990 N   0  0  0  0  0  0  0  0  0  0  0  0
    0.3839    0.0070    2.4295 C   0  0  0  0  0  0  0  0  0  0  0  0
    0.4320   -1.4452    2.8646 C   0  0  0  0  0  0  0  0  0  0  0  0
    1.4096    0.8708   -1.4630 H   0  0  0  0  0  0  0  0  0  0  0  0
   -0.3579    0.8695   -1.4724 H   0  0  0  0  0  0  0  0  0  0  0  0
    0.5181    2.4056   -1.4762 H   0  0  0  0  0  0  0  0  0  0  0  0
    1.5510    4.0763    2.0212 H   0  0  0  0  0  0  0  0  0  0  0  0
   -0.2943    4.1860    2.0368 H   0  0  0  0  0  0  0  0  0  0  0  0
   -0.0555   -0.6990    0.3687 H   0  0  0  0  0  0  0  0  0  0  0  0
    1.1809    0.5719    2.9191 H   0  0  0  0  0  0  0  0  0  0  0  0
   -0.5627    0.4688    2.7458 H   0  0  0  0  0  0  0  0  0  0  0  0
    1.3839   -1.9010    2.5881 H   0  0  0  0  0  0  0  0  0  0  0  0
   -0.3713   -2.0230    2.3999 H   0  0  0  0  0  0  0  0  0  0  0  0
    0.3119   -1.5238    3.9454 H   0  0  0  0  0  0  0  0  0  0  0  0
  1  2  1  0
  1  5  1  0
  1  6  1  0
  2  3  1  0
  3  4  2  3
  4  7  1  0
  4  8  1  0
  9 10  1  0
  9 16  1  0
  9 17  1  0
  9 18  1  0
 10 11  2  0
 10 13  1  0
 11 12  2  0
 12 19  1  0
 12 20  1  0
 13 14  1  0
 13 21  1  0
 14 15  1  0
 14 22  1  0
 14 23  1  0
 15 24  1  0
 15 25  1  0
 15 26  1  0
M  RAD  1   1   2
M  END
>  <reaction>  (28) 
rmg_rxn_15670

>  <mol_properties>  (28) 
{"0": {"label": "*3", "atom_type": "Cs"}, "1": {"label": "*4", "atom_type": "O2s"}, "9": {"label": "*0", "atom_type": "Cd"}, "12": {"label": "*1", "atom_type": "N3s"}, "20": {"label": "*2", "atom_type": "H0"}}

>  <type>  (28) 
unop_24

>  <geom_source>  (28) 
gaussian_log

$$$$
