
     RDKit          3D

  9  8  0  0  0  0  0  0  0  0999 V2000
   -1.2461    0.5037    0.0950 C   0  0  0  0  0  0  0  0  0  0  0  0
   -0.0155   -0.3334    0.0640 C   0  0  0  0  0  0  0  0  0  0  0  0
    1.0697    0.1457   -0.3733 N   0  0  0  0  0  0  0  0  0  0  0  0
    2.1001   -0.7834   -0.3224 O   0  0  0  0  0  0  0  0  0  0  0  0
   -2.0357    0.0440   -0.5039 H   0  0  0  0  0  0  0  0  0  0  0  0
   -1.6237    0.5897    1.1166 H   0  0  0  0  0  0  0  0  0  0  0  0
   -1.0397    1.4998   -0.2929 H   0  0  0  0  0  0  0  0  0  0  0  0
   -0.0537   -1.3634    0.4205 H   0  0  0  0  0  0  0  0  0  0  0  0
    2.8478   -0.2985   -0.6758 H   0  0  0  0  0  0  0  0  0  0  0  0
  1  2  1  0
  1  5  1  0
  1  6  1  0
  1  7  1  0
  2  3  2  3
  2  8  1  0
  3  4  1  0
  4  9  1  0
M  END
>  <reaction>  (1) 
rmg_rxn_323

>  <mol_properties>  (1) 
{"3": {"label": "donator", "atom_type": "O2s"}, "8": {"label": "d_hydrogen", "atom_type": "H0"}}

>  <type>  (1) 
r1h

$$$$

     RDKit          3D

 17 16  0  0  0  0  0  0  0  0999 V2000
   -2.5196    0.7765    0.6863 C   0  0  0  0  0  0  0  0  0  0  0  0
   -1.7832    0.2264   -0.5439 C   0  0  0  0  0  0  0  0  0  0  0  0
   -0.5364   -0.5090   -0.2164 C   0  0  0  0  0  3  0  0  0  0  0  0
   -0.7195   -1.6896    0.4220 O   0  0  0  0  0  0  0  0  0  0  0  0
    0.4618   -2.3470    0.8423 C   0  0  0  0  0  0  0  0  0  0  0  0
    0.0797   -3.6206    1.5573 C   0  0  0  0  0  0  0  0  0  0  0  0
   -1.8902    1.4809    1.2340 H   0  0  0  0  0  0  0  0  0  0  0  0
   -3.4347    1.2951    0.3937 H   0  0  0  0  0  0  0  0  0  0  0  0
   -2.7882   -0.0345    1.3642 H   0  0  0  0  0  0  0  0  0  0  0  0
   -2.4551   -0.4399   -1.0937 H   0  0  0  0  0  0  0  0  0  0  0  0
   -1.5294    1.0480   -1.2176 H   0  0  0  0  0  0  0  0  0  0  0  0
    0.3864    0.0229    0.0104 H   0  0  0  0  0  0  0  0  0  0  0  0
    1.0871   -2.5604   -0.0319 H   0  0  0  0  0  0  0  0  0  0  0  0
    1.0283   -1.6824    1.5065 H   0  0  0  0  0  0  0  0  0  0  0  0
   -0.4799   -4.2803    0.8934 H   0  0  0  0  0  0  0  0  0  0  0  0
    0.9764   -4.1449    1.8908 H   0  0  0  0  0  0  0  0  0  0  0  0
   -0.5383   -3.4025    2.4289 H   0  0  0  0  0  0  0  0  0  0  0  0
  1  2  1  0
  1  7  1  0
  1  8  1  0
  1  9  1  0
  2  3  1  0
  2 10  1  0
  2 11  1  0
  3  4  1  0
  3 12  1  0
  4  5  1  0
  5  6  1  0
  5 13  1  0
  5 14  1  0
  6 15  1  0
  6 16  1  0
  6 17  1  0
M  RAD  1   3   2
M  END
>  <reaction>  (2) 
rmg_rxn_323

>  <mol_properties>  (2) 
{"2": {"label": "acceptor", "atom_type": "Cs"}}

>  <type>  (2) 
r2

$$$$

     RDKit          3D

 18 17  0  0  0  0  0  0  0  0999 V2000
    2.2026   -0.7213   -0.2612 C   0  0  0  0  0  0  0  0  0  0  0  0
    1.5384    0.2638    0.6915 C   0  0  0  0  0  0  0  0  0  0  0  0
    2.2584    1.5946    0.7694 C   0  0  0  0  0  0  0  0  0  0  0  0
    2.2212    2.2185   -0.4893 O   0  0  0  0  0  0  0  0  0  0  0  0
    2.8988    3.4488   -0.5204 C   0  0  0  0  0  0  0  0  0  0  0  0
    2.7981    4.0296   -1.9118 C   0  0  0  0  0  0  0  0  0  0  0  0
    3.2294   -0.9309    0.0486 H   0  0  0  0  0  0  0  0  0  0  0  0
    2.2338   -0.3181   -1.2734 H   0  0  0  0  0  0  0  0  0  0  0  0
    1.6610   -1.6680   -0.2875 H   0  0  0  0  0  0  0  0  0  0  0  0
    1.4990   -0.1566    1.7002 H   0  0  0  0  0  0  0  0  0  0  0  0
    0.5055    0.4455    0.3835 H   0  0  0  0  0  0  0  0  0  0  0  0
    3.3038    1.4410    1.0808 H   0  0  0  0  0  0  0  0  0  0  0  0
    1.7844    2.2410    1.5226 H   0  0  0  0  0  0  0  0  0  0  0  0
    2.4596    4.1376    0.2164 H   0  0  0  0  0  0  0  0  0  0  0  0
    3.9524    3.3035   -0.2397 H   0  0  0  0  0  0  0  0  0  0  0  0
    1.7543    4.1869   -2.1856 H   0  0  0  0  0  0  0  0  0  0  0  0
    3.2472    3.3545   -2.6411 H   0  0  0  0  0  0  0  0  0  0  0  0
    3.3178    4.9878   -1.9600 H   0  0  0  0  0  0  0  0  0  0  0  0
  1  2  1  0
  1  7  1  0
  1  8  1  0
  1  9  1  0
  2  3  1  0
  2 10  1  0
  2 11  1  0
  3  4  1  0
  3 12  1  0
  3 13  1  0
  4  5  1  0
  5  6  1  0
  5 14  1  0
  5 15  1  0
  6 16  1  0
  6 17  1  0
  6 18  1  0
M  END
>  <reaction>  (3) 
rmg_rxn_323

>  <mol_properties>  (3) 
{"0": {"label": "a_hydrogen", "atom_type": "H0"}, "3": {"label": "acceptor", "atom_type": "Cs"}}

>  <type>  (3) 
r2h

$$$$

     RDKit          3D

 26 24  0  0  0  0  0  0  0  0999 V2000
    0.6866   -2.7899   -2.0595 C   0  0  0  0  0  0  0  0  0  0  0  0
   -0.5665   -2.0862   -1.6648 C   0  0  0  0  0  3  0  0  0  0  0  0
   -0.5202   -1.0866   -0.8839 N   0  0  0  0  0  2  0  0  0  0  0  0
   -1.6792   -0.5192   -0.5778 O   0  0  0  0  0  1  0  0  0  0  0  0
    0.6576   -3.8381   -1.7513 H   0  0  0  0  0  0  0  0  0  0  0  0
    0.8127   -2.7767   -3.1449 H   0  0  0  0  0  0  0  0  0  0  0  0
    1.5496   -2.3102   -1.5997 H   0  0  0  0  0  0  0  0  0  0  0  0
   -1.5240   -2.4362   -2.0520 H   0  0  0  0  0  0  0  0  0  0  0  0
   -1.3467    0.4722    0.1615 H   0  0  0  0  0  0  0  0  0  0  0  0
   -0.1652    2.5807   -1.2779 C   0  0  0  0  0  0  0  0  0  0  0  0
   -0.9227    2.6642    0.0420 C   0  0  0  0  0  0  0  0  0  0  0  0
   -0.8344    1.4050    0.8628 C   0  0  0  0  0  0  0  0  0  0  0  0
    0.4530    1.0392    1.1201 O   0  0  0  0  0  0  0  0  0  0  0  0
    0.6003   -0.0258    2.0484 C   0  0  0  0  0  0  0  0  0  0  0  0
    2.0256   -0.5159    1.9929 C   0  0  0  0  0  0  0  0  0  0  0  0
   -0.5550    1.7696   -1.8944 H   0  0  0  0  0  0  0  0  0  0  0  0
   -0.2616    3.5135   -1.8349 H   0  0  0  0  0  0  0  0  0  0  0  0
    0.8940    2.3912   -1.1066 H   0  0  0  0  0  0  0  0  0  0  0  0
   -0.5414    3.4977    0.6428 H   0  0  0  0  0  0  0  0  0  0  0  0
   -1.9809    2.8654   -0.1407 H   0  0  0  0  0  0  0  0  0  0  0  0
   -1.4712    1.3964    1.7578 H   0  0  0  0  0  0  0  0  0  0  0  0
    0.3426    0.3405    3.0500 H   0  0  0  0  0  0  0  0  0  0  0  0
   -0.0942   -0.8288    1.7865 H   0  0  0  0  0  0  0  0  0  0  0  0
    2.7223    0.2895    2.2285 H   0  0  0  0  0  0  0  0  0  0  0  0
    2.1716   -1.3219    2.7134 H   0  0  0  0  0  0  0  0  0  0  0  0
    2.2498   -0.8929    0.9950 H   0  0  0  0  0  0  0  0  0  0  0  0
  1  7  1  0
  1  5  1  0
  1  2  1  0
  1  6  1  0
  2  3  1  0
  2  8  1  0
  3  4  1  0
  9 12  1  0
 10 18  1  0
 10 16  1  0
 10 17  1  0
 10 11  1  0
 11 20  1  0
 11 19  1  0
 11 12  1  0
 12 21  1  0
 12 13  1  0
 13 14  1  0
 14 15  1  0
 14 22  1  0
 14 23  1  0
 15 25  1  0
 15 26  1  0
 15 24  1  0
M  RAD  3   2   2   3   2   4   2
M  END
>  <reaction>  (4) 
rmg_rxn_323

>  <mol_properties>  (4) 
{"2": {"label": "*4", "atom_type": "N3s"}, "3": {"label": "*3", "atom_type": "O2s"}, "8": {"label": "*2", "atom_type": "H0"}, "11": {"label": "*1", "atom_type": "Cs"}, "12": {"label": "*0", "atom_type": "O2s"}}

>  <type>  (4) 
ts

$$$$

     RDKit          3D

 26 24  0  0  0  0  0  0  0  0999 V2000
   -0.0770   -2.7222   -3.1397 C   0  0  0  0  0  0  0  0  0  0  0  0
   -0.0770   -2.7222   -1.6511 C   0  0  0  0  0  0  0  0  0  0  0  0
   -0.0770   -1.6301   -1.0143 N   0  0  0  0  0  0  0  0  0  0  0  0
   -0.0770   -1.8348    0.3589 O   0  0  0  0  0  0  0  0  0  0  0  0
    0.8024   -3.2460   -3.5215 H   0  0  0  0  0  0  0  0  0  0  0  0
   -0.9564   -3.2460   -3.5215 H   0  0  0  0  0  0  0  0  0  0  0  0
   -0.0770   -1.7025   -3.5212 H   0  0  0  0  0  0  0  0  0  0  0  0
   -0.0770   -3.6697   -1.1109 H   0  0  0  0  0  0  0  0  0  0  0  0
   -0.0770   -0.7651    0.7823 H   0  0  0  0  0  0  0  0  0  0  0  0
   -2.4436    1.3680    1.3687 C   0  0  0  0  0  0  0  0  0  0  0  0
   -1.3094    0.6855    2.1216 C   0  0  0  0  0  0  0  0  0  0  0  0
   -0.0770    0.4640    1.2687 C   0  0  0  0  0  3  0  0  0  0  0  0
    0.4426    1.7072    0.8694 O   0  0  0  0  0  0  0  0  0  0  0  0
    1.5721    1.5979    0.0413 C   0  0  0  0  0  0  0  0  0  0  0  0
    2.0462    2.9844   -0.3279 C   0  0  0  0  0  0  0  0  0  0  0  0
   -2.7539    0.7714    0.5072 H   0  0  0  0  0  0  0  0  0  0  0  0
   -3.3144    1.5059    2.0114 H   0  0  0  0  0  0  0  0  0  0  0  0
   -2.1310    2.3462    1.0036 H   0  0  0  0  0  0  0  0  0  0  0  0
   -1.0258    1.2809    2.9933 H   0  0  0  0  0  0  0  0  0  0  0  0
   -1.6384   -0.2878    2.4961 H   0  0  0  0  0  0  0  0  0  0  0  0
    0.6825   -0.0958    1.8342 H   0  0  0  0  0  0  0  0  0  0  0  0
    2.3679    1.0458    0.5631 H   0  0  0  0  0  0  0  0  0  0  0  0
    1.3197    1.0243   -0.8628 H   0  0  0  0  0  0  0  0  0  0  0  0
    2.3098    3.5491    0.5670 H   0  0  0  0  0  0  0  0  0  0  0  0
    2.9250    2.9245   -0.9719 H   0  0  0  0  0  0  0  0  0  0  0  0
    1.2634    3.5271   -0.8591 H   0  0  0  0  0  0  0  0  0  0  0  0
  1  2  1  0
  1  5  1  0
  1  6  1  0
  1  7  1  0
  2  3  2  3
  2  8  1  0
  3  4  1  0
  4  9  1  0
 10 11  1  0
 10 16  1  0
 10 17  1  0
 10 18  1  0
 11 12  1  0
 11 19  1  0
 11 20  1  0
 12 13  1  0
 12 21  1  0
 13 14  1  0
 14 15  1  0
 14 22  1  0
 14 23  1  0
 15 24  1  0
 15 25  1  0
 15 26  1  0
M  RAD  1  12   2
M  END
>  <reaction>  (5) 
rmg_rxn_323

>  <mol_properties>  (5) 
{"2": {"label": "*4", "atom_type": "N3s"}, "3": {"label": "*3", "atom_type": "O2s"}, "8": {"label": "*2", "atom_type": "H0"}, "11": {"label": "*1", "atom_type": "Cs"}, "12": {"label": "*0", "atom_type": "O2s"}}

>  <type>  (5) 
unop_1

>  <geom_source>  (5) 
Heuristics

$$$$

     RDKit          3D

 26 24  0  0  0  0  0  0  0  0999 V2000
   -0.5651   -2.4426   -3.4390 C   0  0  0  0  0  0  0  0  0  0  0  0
   -0.5651   -2.4426   -1.9504 C   0  0  0  0  0  0  0  0  0  0  0  0
   -0.5651   -1.3506   -1.3136 N   0  0  0  0  0  0  0  0  0  0  0  0
   -0.5651   -1.5552    0.0596 O   0  0  0  0  0  0  0  0  0  0  0  0
    0.3143   -2.9665   -3.8208 H   0  0  0  0  0  0  0  0  0  0  0  0
   -1.4445   -2.9665   -3.8208 H   0  0  0  0  0  0  0  0  0  0  0  0
   -0.5651   -1.4229   -3.8205 H   0  0  0  0  0  0  0  0  0  0  0  0
   -0.5651   -3.3901   -1.4102 H   0  0  0  0  0  0  0  0  0  0  0  0
   -0.5651   -0.4856    0.4830 H   0  0  0  0  0  0  0  0  0  0  0  0
   -0.4423    2.0352   -1.2088 C   0  0  0  0  0  0  0  0  0  0  0  0
   -1.2766    1.6804    0.0148 C   0  0  0  0  0  0  0  0  0  0  0  0
   -0.5651    0.7435    0.9694 C   0  0  0  0  0  3  0  0  0  0  0  0
    0.5810    1.3786    1.4775 O   0  0  0  0  0  0  0  0  0  0  0  0
    1.3264    0.5670    2.3489 C   0  0  0  0  0  0  0  0  0  0  0  0
    2.5297    1.3423    2.8331 C   0  0  0  0  0  0  0  0  0  0  0  0
   -0.1815    1.1382   -1.7760 H   0  0  0  0  0  0  0  0  0  0  0  0
   -0.9876    2.7055   -1.8749 H   0  0  0  0  0  0  0  0  0  0  0  0
    0.4849    2.5268   -0.9146 H   0  0  0  0  0  0  0  0  0  0  0  0
   -1.5501    2.5882    0.5587 H   0  0  0  0  0  0  0  0  0  0  0  0
   -2.2105    1.2016   -0.2925 H   0  0  0  0  0  0  0  0  0  0  0  0
   -1.2342    0.4603    1.7952 H   0  0  0  0  0  0  0  0  0  0  0  0
    0.7013    0.2567    3.1994 H   0  0  0  0  0  0  0  0  0  0  0  0
    1.6430   -0.3491    1.8288 H   0  0  0  0  0  0  0  0  0  0  0  0
    2.2165    2.2437    3.3609 H   0  0  0  0  0  0  0  0  0  0  0  0
    3.1247    0.7309    3.5133 H   0  0  0  0  0  0  0  0  0  0  0  0
    3.1582    1.6370    1.9919 H   0  0  0  0  0  0  0  0  0  0  0  0
  1  2  1  0
  1  5  1  0
  1  6  1  0
  1  7  1  0
  2  3  2  3
  2  8  1  0
  3  4  1  0
  4  9  1  0
 10 11  1  0
 10 16  1  0
 10 17  1  0
 10 18  1  0
 11 12  1  0
 11 19  1  0
 11 20  1  0
 12 13  1  0
 12 21  1  0
 13 14  1  0
 14 15  1  0
 14 22  1  0
 14 23  1  0
 15 24  1  0
 15 25  1  0
 15 26  1  0
M  RAD  1  12   2
M  END
>  <reaction>  (6) 
rmg_rxn_323

>  <mol_properties>  (6) 
{"2": {"label": "*4", "atom_type": "N3s"}, "3": {"label": "*3", "atom_type": "O2s"}, "8": {"label": "*2", "atom_type": "H0"}, "11": {"label": "*1", "atom_type": "Cs"}, "12": {"label": "*0", "atom_type": "O2s"}}

>  <type>  (6) 
unop_2

>  <geom_source>  (6) 
Heuristics

$$$$

     RDKit          3D

 26 24  0  0  0  0  0  0  0  0999 V2000
    0.2533   -2.6582   -3.1067 C   0  0  0  0  0  0  0  0  0  0  0  0
    0.2533   -2.6582   -1.6181 C   0  0  0  0  0  0  0  0  0  0  0  0
    0.2533   -1.5662   -0.9813 N   0  0  0  0  0  0  0  0  0  0  0  0
    0.2533   -1.7708    0.3919 O   0  0  0  0  0  0  0  0  0  0  0  0
    1.1327   -3.1821   -3.4885 H   0  0  0  0  0  0  0  0  0  0  0  0
   -0.6261   -3.1821   -3.4885 H   0  0  0  0  0  0  0  0  0  0  0  0
    0.2533   -1.6385   -3.4881 H   0  0  0  0  0  0  0  0  0  0  0  0
    0.2533   -3.6057   -1.0779 H   0  0  0  0  0  0  0  0  0  0  0  0
    0.2533   -0.7012    0.8153 H   0  0  0  0  0  0  0  0  0  0  0  0
   -1.9670    0.7197    2.5107 C   0  0  0  0  0  0  0  0  0  0  0  0
   -0.4582    0.5577    2.6389 C   0  0  0  0  0  0  0  0  0  0  0  0
    0.2533    0.5279    1.3017 C   0  0  0  0  0  3  0  0  0  0  0  0
    0.0700    1.7590    0.6491 O   0  0  0  0  0  0  0  0  0  0  0  0
    0.6687    1.8099   -0.6207 C   0  0  0  0  0  0  0  0  0  0  0  0
    0.4114    3.1683   -1.2307 C   0  0  0  0  0  0  0  0  0  0  0  0
   -2.3998   -0.1032    1.9364 H   0  0  0  0  0  0  0  0  0  0  0  0
   -2.4454    0.7315    3.4912 H   0  0  0  0  0  0  0  0  0  0  0  0
   -2.2133    1.6505    1.9999 H   0  0  0  0  0  0  0  0  0  0  0  0
   -0.0424    1.3740    3.2353 H   0  0  0  0  0  0  0  0  0  0  0  0
   -0.2229   -0.3713    3.1657 H   0  0  0  0  0  0  0  0  0  0  0  0
    1.3268    0.3357    1.4452 H   0  0  0  0  0  0  0  0  0  0  0  0
    1.7499    1.6263   -0.5333 H   0  0  0  0  0  0  0  0  0  0  0  0
    0.2565    1.0164   -1.2614 H   0  0  0  0  0  0  0  0  0  0  0  0
    0.8318    3.9548   -0.6031 H   0  0  0  0  0  0  0  0  0  0  0  0
    0.8686    3.2315   -2.2193 H   0  0  0  0  0  0  0  0  0  0  0  0
   -0.6600    3.3448   -1.3321 H   0  0  0  0  0  0  0  0  0  0  0  0
  1  2  1  0
  1  5  1  0
  1  6  1  0
  1  7  1  0
  2  3  2  3
  2  8  1  0
  3  4  1  0
  4  9  1  0
 10 11  1  0
 10 16  1  0
 10 17  1  0
 10 18  1  0
 11 12  1  0
 11 19  1  0
 11 20  1  0
 12 13  1  0
 12 21  1  0
 13 14  1  0
 14 15  1  0
 14 22  1  0
 14 23  1  0
 15 24  1  0
 15 25  1  0
 15 26  1  0
M  RAD  1  12   2
M  END
>  <reaction>  (7) 
rmg_rxn_323

>  <mol_properties>  (7) 
{"2": {"label": "*4", "atom_type": "N3s"}, "3": {"label": "*3", "atom_type": "O2s"}, "8": {"label": "*2", "atom_type": "H0"}, "11": {"label": "*1", "atom_type": "Cs"}, "12": {"label": "*0", "atom_type": "O2s"}}

>  <type>  (7) 
unop_3

>  <geom_source>  (7) 
Heuristics

$$$$

     RDKit          3D

 26 24  0  0  0  0  0  0  0  0999 V2000
   -0.2769   -1.7428   -3.8458 C   0  0  0  0  0  0  0  0  0  0  0  0
   -0.2769   -1.7428   -2.3571 C   0  0  0  0  0  0  0  0  0  0  0  0
   -0.2769   -0.6507   -1.7203 N   0  0  0  0  0  0  0  0  0  0  0  0
   -0.2769   -0.8554   -0.3471 O   0  0  0  0  0  0  0  0  0  0  0  0
    0.6025   -2.2666   -4.2276 H   0  0  0  0  0  0  0  0  0  0  0  0
   -1.1563   -2.2666   -4.2276 H   0  0  0  0  0  0  0  0  0  0  0  0
   -0.2769   -0.7231   -4.2272 H   0  0  0  0  0  0  0  0  0  0  0  0
   -0.2769   -2.6903   -1.8170 H   0  0  0  0  0  0  0  0  0  0  0  0
   -0.2769    0.2143    0.0762 H   0  0  0  0  0  0  0  0  0  0  0  0
    2.1246    1.2678   -0.2313 C   0  0  0  0  0  0  0  0  0  0  0  0
    0.9555    2.1885    0.0924 C   0  0  0  0  0  0  0  0  0  0  0  0
   -0.2769    1.4434    0.5627 C   0  0  0  0  0  3  0  0  0  0  0  0
    0.0120    0.7788    1.7668 O   0  0  0  0  0  0  0  0  0  0  0  0
   -1.0682    0.0289    2.2611 C   0  0  0  0  0  0  0  0  0  0  0  0
   -0.6517   -0.6411    3.5500 C   0  0  0  0  0  0  0  0  0  0  0  0
    1.8572    0.5614   -1.0212 H   0  0  0  0  0  0  0  0  0  0  0  0
    2.9908    1.8375   -0.5711 H   0  0  0  0  0  0  0  0  0  0  0  0
    2.4179    0.6928    0.6470 H   0  0  0  0  0  0  0  0  0  0  0  0
    1.2447    2.9044    0.8661 H   0  0  0  0  0  0  0  0  0  0  0  0
    0.6795    2.7710   -0.7910 H   0  0  0  0  0  0  0  0  0  0  0  0
   -1.1120    2.1435    0.7116 H   0  0  0  0  0  0  0  0  0  0  0  0
   -1.9341    0.6857    2.4316 H   0  0  0  0  0  0  0  0  0  0  0  0
   -1.3736   -0.7228    1.5183 H   0  0  0  0  0  0  0  0  0  0  0  0
   -0.3619    0.1040    4.2917 H   0  0  0  0  0  0  0  0  0  0  0  0
   -1.4767   -1.2301    3.9537 H   0  0  0  0  0  0  0  0  0  0  0  0
    0.1969   -1.3044    3.3790 H   0  0  0  0  0  0  0  0  0  0  0  0
  1  2  1  0
  1  5  1  0
  1  6  1  0
  1  7  1  0
  2  3  2  3
  2  8  1  0
  3  4  1  0
  4  9  1  0
 10 11  1  0
 10 16  1  0
 10 17  1  0
 10 18  1  0
 11 12  1  0
 11 19  1  0
 11 20  1  0
 12 13  1  0
 12 21  1  0
 13 14  1  0
 14 15  1  0
 14 22  1  0
 14 23  1  0
 15 24  1  0
 15 25  1  0
 15 26  1  0
M  RAD  1  12   2
M  END
>  <reaction>  (8) 
rmg_rxn_323

>  <mol_properties>  (8) 
{"2": {"label": "*4", "atom_type": "N3s"}, "3": {"label": "*3", "atom_type": "O2s"}, "8": {"label": "*2", "atom_type": "H0"}, "11": {"label": "*1", "atom_type": "Cs"}, "12": {"label": "*0", "atom_type": "O2s"}}

>  <type>  (8) 
unop_4

>  <geom_source>  (8) 
Heuristics

$$$$

     RDKit          3D

 26 24  0  0  0  0  0  0  0  0999 V2000
    0.6158   -2.3268   -3.2732 C   0  0  0  0  0  0  0  0  0  0  0  0
    0.6158   -2.3268   -1.7845 C   0  0  0  0  0  0  0  0  0  0  0  0
    0.6158   -1.2347   -1.1477 N   0  0  0  0  0  0  0  0  0  0  0  0
    0.6158   -1.4394    0.2255 O   0  0  0  0  0  0  0  0  0  0  0  0
    1.4952   -2.8506   -3.6550 H   0  0  0  0  0  0  0  0  0  0  0  0
   -0.2636   -2.8506   -3.6550 H   0  0  0  0  0  0  0  0  0  0  0  0
    0.6158   -1.3071   -3.6546 H   0  0  0  0  0  0  0  0  0  0  0  0
    0.6158   -3.2743   -1.2444 H   0  0  0  0  0  0  0  0  0  0  0  0
    0.6158   -0.3697    0.6488 H   0  0  0  0  0  0  0  0  0  0  0  0
   -0.5673    0.0542    3.2282 C   0  0  0  0  0  0  0  0  0  0  0  0
    0.6158    0.8190    2.6498 C   0  0  0  0  0  0  0  0  0  0  0  0
    0.6158    0.8594    1.1353 C   0  0  0  0  0  3  0  0  0  0  0  0
   -0.5230    1.5507    0.6879 O   0  0  0  0  0  0  0  0  0  0  0  0
   -0.6250    1.6072   -0.7121 C   0  0  0  0  0  0  0  0  0  0  0  0
   -1.8776    2.3668   -1.0828 C   0  0  0  0  0  0  0  0  0  0  0  0
   -0.5689   -0.9819    2.8807 H   0  0  0  0  0  0  0  0  0  0  0  0
   -0.5314    0.0414    4.3185 H   0  0  0  0  0  0  0  0  0  0  0  0
   -1.5087    0.5113    2.9234 H   0  0  0  0  0  0  0  0  0  0  0  0
    0.6183    1.8459    3.0244 H   0  0  0  0  0  0  0  0  0  0  0  0
    1.5545    0.3612    2.9739 H   0  0  0  0  0  0  0  0  0  0  0  0
    1.5252    1.3567    0.7672 H   0  0  0  0  0  0  0  0  0  0  0  0
    0.2631    2.1013   -1.1333 H   0  0  0  0  0  0  0  0  0  0  0  0
   -0.6559    0.5889   -1.1269 H   0  0  0  0  0  0  0  0  0  0  0  0
   -1.8416    3.3811   -0.6837 H   0  0  0  0  0  0  0  0  0  0  0  0
   -1.9778    2.4242   -2.1678 H   0  0  0  0  0  0  0  0  0  0  0  0
   -2.7600    1.8692   -0.6788 H   0  0  0  0  0  0  0  0  0  0  0  0
  1  2  1  0
  1  5  1  0
  1  6  1  0
  1  7  1  0
  2  3  2  3
  2  8  1  0
  3  4  1  0
  4  9  1  0
 10 11  1  0
 10 16  1  0
 10 17  1  0
 10 18  1  0
 11 12  1  0
 11 19  1  0
 11 20  1  0
 12 13  1  0
 12 21  1  0
 13 14  1  0
 14 15  1  0
 14 22  1  0
 14 23  1  0
 15 24  1  0
 15 25  1  0
 15 26  1  0
M  RAD  1  12   2
M  END
>  <reaction>  (9) 
rmg_rxn_323

>  <mol_properties>  (9) 
{"2": {"label": "*4", "atom_type": "N3s"}, "3": {"label": "*3", "atom_type": "O2s"}, "8": {"label": "*2", "atom_type": "H0"}, "11": {"label": "*1", "atom_type": "Cs"}, "12": {"label": "*0", "atom_type": "O2s"}}

>  <type>  (9) 
unop_5

>  <geom_source>  (9) 
Heuristics

$$$$

     RDKit          3D

 26 24  0  0  0  0  0  0  0  0999 V2000
    0.0212   -1.6584   -3.8536 C   0  0  0  0  0  0  0  0  0  0  0  0
    0.0212   -1.6584   -2.3650 C   0  0  0  0  0  0  0  0  0  0  0  0
    0.0212   -0.5663   -1.7282 N   0  0  0  0  0  0  0  0  0  0  0  0
    0.0212   -0.7710   -0.3550 O   0  0  0  0  0  0  0  0  0  0  0  0
    0.9006   -2.1822   -4.2354 H   0  0  0  0  0  0  0  0  0  0  0  0
   -0.8582   -2.1822   -4.2354 H   0  0  0  0  0  0  0  0  0  0  0  0
    0.0212   -0.6387   -4.2351 H   0  0  0  0  0  0  0  0  0  0  0  0
    0.0212   -2.6059   -1.8248 H   0  0  0  0  0  0  0  0  0  0  0  0
    0.0212    0.2987    0.0684 H   0  0  0  0  0  0  0  0  0  0  0  0
    2.4613    0.8782    0.7834 C   0  0  0  0  0  0  0  0  0  0  0  0
    1.4443    2.0111    0.7461 C   0  0  0  0  0  0  0  0  0  0  0  0
    0.0212    1.5278    0.5548 C   0  0  0  0  0  3  0  0  0  0  0  0
   -0.3526    0.7341    1.6527 O   0  0  0  0  0  0  0  0  0  0  0  0
   -1.6517    0.2107    1.5439 C   0  0  0  0  0  0  0  0  0  0  0  0
   -1.9496   -0.6224    2.7689 C   0  0  0  0  0  0  0  0  0  0  0  0
    2.4405    0.3052   -0.1470 H   0  0  0  0  0  0  0  0  0  0  0  0
    3.4733    1.2633    0.9167 H   0  0  0  0  0  0  0  0  0  0  0  0
    2.2463    0.1932    1.6035 H   0  0  0  0  0  0  0  0  0  0  0  0
    1.4929    2.5896    1.6722 H   0  0  0  0  0  0  0  0  0  0  0  0
    1.6780    2.6999   -0.0704 H   0  0  0  0  0  0  0  0  0  0  0  0
   -0.6628    2.3840    0.4607 H   0  0  0  0  0  0  0  0  0  0  0  0
   -2.3797    1.0301    1.4500 H   0  0  0  0  0  0  0  0  0  0  0  0
   -1.7341   -0.4012    0.6335 H   0  0  0  0  0  0  0  0  0  0  0  0
   -1.8817   -0.0134    3.6710 H   0  0  0  0  0  0  0  0  0  0  0  0
   -2.9558   -1.0398    2.7069 H   0  0  0  0  0  0  0  0  0  0  0  0
   -1.2378   -1.4443    2.8544 H   0  0  0  0  0  0  0  0  0  0  0  0
  1  2  1  0
  1  5  1  0
  1  6  1  0
  1  7  1  0
  2  3  2  3
  2  8  1  0
  3  4  1  0
  4  9  1  0
 10 11  1  0
 10 16  1  0
 10 17  1  0
 10 18  1  0
 11 12  1  0
 11 19  1  0
 11 20  1  0
 12 13  1  0
 12 21  1  0
 13 14  1  0
 14 15  1  0
 14 22  1  0
 14 23  1  0
 15 24  1  0
 15 25  1  0
 15 26  1  0
M  RAD  1  12   2
M  END
>  <reaction>  (10) 
rmg_rxn_323

>  <mol_properties>  (10) 
{"2": {"label": "*4", "atom_type": "N3s"}, "3": {"label": "*3", "atom_type": "O2s"}, "8": {"label": "*2", "atom_type": "H0"}, "11": {"label": "*1", "atom_type": "Cs"}, "12": {"label": "*0", "atom_type": "O2s"}}

>  <type>  (10) 
unop_6

>  <geom_source>  (10) 
Heuristics

$$$$

     RDKit          3D

 26 24  0  0  0  0  0  0  0  0999 V2000
    0.3254   -1.6915   -3.7664 C   0  0  0  0  0  0  0  0  0  0  0  0
    0.3254   -1.6915   -2.2777 C   0  0  0  0  0  0  0  0  0  0  0  0
    0.3254   -0.5994   -1.6410 N   0  0  0  0  0  0  0  0  0  0  0  0
    0.3254   -0.8041   -0.2678 O   0  0  0  0  0  0  0  0  0  0  0  0
    1.2048   -2.2153   -4.1482 H   0  0  0  0  0  0  0  0  0  0  0  0
   -0.5540   -2.2153   -4.1482 H   0  0  0  0  0  0  0  0  0  0  0  0
    0.3254   -0.6718   -4.1478 H   0  0  0  0  0  0  0  0  0  0  0  0
    0.3254   -2.6390   -1.7376 H   0  0  0  0  0  0  0  0  0  0  0  0
    0.3254    0.2656    0.1556 H   0  0  0  0  0  0  0  0  0  0  0  0
    2.2147    0.4184    1.9461 C   0  0  0  0  0  0  0  0  0  0  0  0
    1.5578    1.7162    1.4949 C   0  0  0  0  0  0  0  0  0  0  0  0
    0.3254    1.4947    0.6421 C   0  0  0  0  0  3  0  0  0  0  0  0
   -0.6536    0.8318    1.4017 O   0  0  0  0  0  0  0  0  0  0  0  0
   -1.8243    0.5518    0.6773 C   0  0  0  0  0  0  0  0  0  0  0  0
   -2.8038   -0.1583    1.5828 C   0  0  0  0  0  0  0  0  0  0  0  0
    2.5244   -0.1809    1.0862 H   0  0  0  0  0  0  0  0  0  0  0  0
    3.1000    0.6164    2.5521 H   0  0  0  0  0  0  0  0  0  0  0  0
    1.5222   -0.1791    2.5389 H   0  0  0  0  0  0  0  0  0  0  0  0
    1.2753    2.3157    2.3642 H   0  0  0  0  0  0  0  0  0  0  0  0
    2.2656    2.3141    0.9141 H   0  0  0  0  0  0  0  0  0  0  0  0
   -0.0671    2.4571    0.2821 H   0  0  0  0  0  0  0  0  0  0  0  0
   -2.2617    1.4862    0.2954 H   0  0  0  0  0  0  0  0  0  0  0  0
   -1.5844   -0.0736   -0.1953 H   0  0  0  0  0  0  0  0  0  0  0  0
   -3.0528    0.4666    2.4412 H   0  0  0  0  0  0  0  0  0  0  0  0
   -3.7230   -0.3860    1.0409 H   0  0  0  0  0  0  0  0  0  0  0  0
   -2.3770   -1.0925    1.9496 H   0  0  0  0  0  0  0  0  0  0  0  0
  1  2  1  0
  1  5  1  0
  1  6  1  0
  1  7  1  0
  2  3  2  3
  2  8  1  0
  3  4  1  0
  4  9  1  0
 10 11  1  0
 10 16  1  0
 10 17  1  0
 10 18  1  0
 11 12  1  0
 11 19  1  0
 11 20  1  0
 12 13  1  0
 12 21  1  0
 13 14  1  0
 14 15  1  0
 14 22  1  0
 14 23  1  0
 15 24  1  0
 15 25  1  0
 15 26  1  0
M  RAD  1  12   2
M  END
>  <reaction>  (11) 
rmg_rxn_323

>  <mol_properties>  (11) 
{"2": {"label": "*4", "atom_type": "N3s"}, "3": {"label": "*3", "atom_type": "O2s"}, "8": {"label": "*2", "atom_type": "H0"}, "11": {"label": "*1", "atom_type": "Cs"}, "12": {"label": "*0", "atom_type": "O2s"}}

>  <type>  (11) 
unop_7

>  <geom_source>  (11) 
Heuristics

$$$$

     RDKit          3D

 26 24  0  0  0  0  0  0  0  0999 V2000
   -0.2862   -2.6861   -3.2288 C   0  0  0  0  0  0  0  0  0  0  0  0
   -0.2862   -2.6861   -1.7401 C   0  0  0  0  0  0  0  0  0  0  0  0
   -0.2862   -1.5940   -1.1033 N   0  0  0  0  0  0  0  0  0  0  0  0
   -0.2862   -1.7987    0.2699 O   0  0  0  0  0  0  0  0  0  0  0  0
    0.5932   -3.2099   -3.6106 H   0  0  0  0  0  0  0  0  0  0  0  0
   -1.1657   -3.2099   -3.6106 H   0  0  0  0  0  0  0  0  0  0  0  0
   -0.2862   -1.6664   -3.6102 H   0  0  0  0  0  0  0  0  0  0  0  0
   -0.2862   -3.6336   -1.2000 H   0  0  0  0  0  0  0  0  0  0  0  0
   -0.2862   -0.7290    0.6932 H   0  0  0  0  0  0  0  0  0  0  0  0
   -2.2171    1.8250    0.2077 C   0  0  0  0  0  0  0  0  0  0  0  0
   -1.7093    0.9834    1.3710 C   0  0  0  0  0  0  0  0  0  0  0  0
   -0.2862    0.5001    1.1797 C   0  0  0  0  0  3  0  0  0  0  0  0
    0.5777    1.6070    1.1220 O   0  0  0  0  0  0  0  0  0  0  0  0
    1.9207    1.2537    0.9097 C   0  0  0  0  0  0  0  0  0  0  0  0
    2.7577    2.5111    0.8638 C   0  0  0  0  0  0  0  0  0  0  0  0
   -2.1957    1.2547   -0.7243 H   0  0  0  0  0  0  0  0  0  0  0  0
   -3.2446    2.1501    0.3775 H   0  0  0  0  0  0  0  0  0  0  0  0
   -1.5970    2.7111    0.0726 H   0  0  0  0  0  0  0  0  0  0  0  0
   -1.7590    1.5578    2.2996 H   0  0  0  0  0  0  0  0  0  0  0  0
   -2.3471    0.1056    1.5069 H   0  0  0  0  0  0  0  0  0  0  0  0
    0.0064   -0.1614    2.0083 H   0  0  0  0  0  0  0  0  0  0  0  0
    2.2665    0.5910    1.7169 H   0  0  0  0  0  0  0  0  0  0  0  0
    2.0164    0.6935   -0.0321 H   0  0  0  0  0  0  0  0  0  0  0  0
    2.6743    3.0601    1.8023 H   0  0  0  0  0  0  0  0  0  0  0  0
    3.8071    2.2610    0.7000 H   0  0  0  0  0  0  0  0  0  0  0  0
    2.4258    3.1617    0.0539 H   0  0  0  0  0  0  0  0  0  0  0  0
  1  2  1  0
  1  5  1  0
  1  6  1  0
  1  7  1  0
  2  3  2  3
  2  8  1  0
  3  4  1  0
  4  9  1  0
 10 11  1  0
 10 16  1  0
 10 17  1  0
 10 18  1  0
 11 12  1  0
 11 19  1  0
 11 20  1  0
 12 13  1  0
 12 21  1  0
 13 14  1  0
 14 15  1  0
 14 22  1  0
 14 23  1  0
 15 24  1  0
 15 25  1  0
 15 26  1  0
M  RAD  1  12   2
M  END
>  <reaction>  (12) 
rmg_rxn_323

>  <mol_properties>  (12) 
{"2": {"label": "*4", "atom_type": "N3s"}, "3": {"label": "*3", "atom_type": "O2s"}, "8": {"label": "*2", "atom_type": "H0"}, "11": {"label": "*1", "atom_type": "Cs"}, "12": {"label": "*0", "atom_type": "O2s"}}

>  <type>  (12) 
unop_8

>  <geom_source>  (12) 
Heuristics

$$$$

     RDKit          3D

 26 24  0  0  0  0  0  0  0  0999 V2000
   -0.5146   -1.9363   -3.7469 C   0  0  0  0  0  0  0  0  0  0  0  0
   -0.5146   -1.9363   -2.2582 C   0  0  0  0  0  0  0  0  0  0  0  0
   -0.5146   -0.8442   -1.6214 N   0  0  0  0  0  0  0  0  0  0  0  0
   -0.5146   -1.0489   -0.2482 O   0  0  0  0  0  0  0  0  0  0  0  0
    0.3648   -2.4601   -4.1287 H   0  0  0  0  0  0  0  0  0  0  0  0
   -1.3940   -2.4601   -4.1287 H   0  0  0  0  0  0  0  0  0  0  0  0
   -0.5146   -0.9166   -4.1283 H   0  0  0  0  0  0  0  0  0  0  0  0
   -0.5146   -2.8838   -1.7181 H   0  0  0  0  0  0  0  0  0  0  0  0
   -0.5146    0.0208    0.1751 H   0  0  0  0  0  0  0  0  0  0  0  0
    1.4370    1.5688   -0.9252 C   0  0  0  0  0  0  0  0  0  0  0  0
    0.1970    2.1867   -0.2930 C   0  0  0  0  0  0  0  0  0  0  0  0
   -0.5146    1.2499    0.6616 C   0  0  0  0  0  3  0  0  0  0  0  0
    0.3360    0.9486    1.7390 O   0  0  0  0  0  0  0  0  0  0  0  0
   -0.2306    0.0531    2.6613 C   0  0  0  0  0  0  0  0  0  0  0  0
    0.7623   -0.2015    3.7717 C   0  0  0  0  0  0  0  0  0  0  0  0
    1.1791    0.6704   -1.4916 H   0  0  0  0  0  0  0  0  0  0  0  0
    1.9193    2.2686   -1.6093 H   0  0  0  0  0  0  0  0  0  0  0  0
    2.1603    1.2863   -0.1603 H   0  0  0  0  0  0  0  0  0  0  0  0
    0.4661    3.0966    0.2496 H   0  0  0  0  0  0  0  0  0  0  0  0
   -0.5150    2.4798   -1.0696 H   0  0  0  0  0  0  0  0  0  0  0  0
   -1.4399    1.7143    1.0328 H   0  0  0  0  0  0  0  0  0  0  0  0
   -1.1626    0.4730    3.0678 H   0  0  0  0  0  0  0  0  0  0  0  0
   -0.4930   -0.8884    2.1567 H   0  0  0  0  0  0  0  0  0  0  0  0
    1.0125    0.7295    4.2815 H   0  0  0  0  0  0  0  0  0  0  0  0
    0.3430   -0.8953    4.5020 H   0  0  0  0  0  0  0  0  0  0  0  0
    1.6808   -0.6323    3.3716 H   0  0  0  0  0  0  0  0  0  0  0  0
  1  2  1  0
  1  5  1  0
  1  6  1  0
  1  7  1  0
  2  3  2  3
  2  8  1  0
  3  4  1  0
  4  9  1  0
 10 11  1  0
 10 16  1  0
 10 17  1  0
 10 18  1  0
 11 12  1  0
 11 19  1  0
 11 20  1  0
 12 13  1  0
 12 21  1  0
 13 14  1  0
 14 15  1  0
 14 22  1  0
 14 23  1  0
 15 24  1  0
 15 25  1  0
 15 26  1  0
M  RAD  1  12   2
M  END
>  <reaction>  (13) 
rmg_rxn_323

>  <mol_properties>  (13) 
{"2": {"label": "*4", "atom_type": "N3s"}, "3": {"label": "*3", "atom_type": "O2s"}, "8": {"label": "*2", "atom_type": "H0"}, "11": {"label": "*1", "atom_type": "Cs"}, "12": {"label": "*0", "atom_type": "O2s"}}

>  <type>  (13) 
unop_9

>  <geom_source>  (13) 
Heuristics

$$$$

     RDKit          3D

 26 24  0  0  0  0  0  0  0  0999 V2000
   -0.4394   -2.5989   -3.3253 C   0  0  0  0  0  0  0  0  0  0  0  0
   -0.4394   -2.5989   -1.8366 C   0  0  0  0  0  0  0  0  0  0  0  0
   -0.4394   -1.5068   -1.1998 N   0  0  0  0  0  0  0  0  0  0  0  0
   -0.4394   -1.7115    0.1734 O   0  0  0  0  0  0  0  0  0  0  0  0
    0.4400   -3.1227   -3.7071 H   0  0  0  0  0  0  0  0  0  0  0  0
   -1.3188   -3.1227   -3.7071 H   0  0  0  0  0  0  0  0  0  0  0  0
   -0.4394   -1.5792   -3.7067 H   0  0  0  0  0  0  0  0  0  0  0  0
   -0.4394   -3.5464   -1.2965 H   0  0  0  0  0  0  0  0  0  0  0  0
   -0.4394   -0.6418    0.5967 H   0  0  0  0  0  0  0  0  0  0  0  0
   -1.4648    2.0565   -0.7108 C   0  0  0  0  0  0  0  0  0  0  0  0
   -1.6718    1.3324    0.6129 C   0  0  0  0  0  0  0  0  0  0  0  0
   -0.4394    0.5873    1.0832 C   0  0  0  0  0  3  0  0  0  0  0  0
    0.5963    1.5059    1.3247 O   0  0  0  0  0  0  0  0  0  0  0  0
    1.7952    0.8977    1.7328 C   0  0  0  0  0  0  0  0  0  0  0  0
    2.8356    1.9692    1.9630 C   0  0  0  0  0  0  0  0  0  0  0  0
   -1.1954    1.3524   -1.5021 H   0  0  0  0  0  0  0  0  0  0  0  0
   -2.3727    2.5763   -1.0203 H   0  0  0  0  0  0  0  0  0  0  0  0
   -0.6630    2.7903   -0.6282 H   0  0  0  0  0  0  0  0  0  0  0  0
   -1.9638    2.0449    1.3887 H   0  0  0  0  0  0  0  0  0  0  0  0
   -2.4876    0.6098    0.5229 H   0  0  0  0  0  0  0  0  0  0  0  0
   -0.6620    0.0231    2.0008 H   0  0  0  0  0  0  0  0  0  0  0  0
    1.6281    0.3199    2.6540 H   0  0  0  0  0  0  0  0  0  0  0  0
    2.1365    0.1891    0.9638 H   0  0  0  0  0  0  0  0  0  0  0  0
    2.5040    2.6643    2.7351 H   0  0  0  0  0  0  0  0  0  0  0  0
    3.7772    1.5195    2.2820 H   0  0  0  0  0  0  0  0  0  0  0  0
    3.0133    2.5325    1.0462 H   0  0  0  0  0  0  0  0  0  0  0  0
  1  2  1  0
  1  5  1  0
  1  6  1  0
  1  7  1  0
  2  3  2  3
  2  8  1  0
  3  4  1  0
  4  9  1  0
 10 11  1  0
 10 16  1  0
 10 17  1  0
 10 18  1  0
 11 12  1  0
 11 19  1  0
 11 20  1  0
 12 13  1  0
 12 21  1  0
 13 14  1  0
 14 15  1  0
 14 22  1  0
 14 23  1  0
 15 24  1  0
 15 25  1  0
 15 26  1  0
M  RAD  1  12   2
M  END
>  <reaction>  (14) 
rmg_rxn_323

>  <mol_properties>  (14) 
{"2": {"label": "*4", "atom_type": "N3s"}, "3": {"label": "*3", "atom_type": "O2s"}, "8": {"label": "*2", "atom_type": "H0"}, "11": {"label": "*1", "atom_type": "Cs"}, "12": {"label": "*0", "atom_type": "O2s"}}

>  <type>  (14) 
unop_10

>  <geom_source>  (14) 
Heuristics

$$$$

     RDKit          3D

 26 24  0  0  0  0  0  0  0  0999 V2000
    0.5905   -1.8917   -3.5728 C   0  0  0  0  0  0  0  0  0  0  0  0
    0.5905   -1.8917   -2.0841 C   0  0  0  0  0  0  0  0  0  0  0  0
    0.5905   -0.7996   -1.4473 N   0  0  0  0  0  0  0  0  0  0  0  0
    0.5905   -1.0043   -0.0741 O   0  0  0  0  0  0  0  0  0  0  0  0
    1.4699   -2.4155   -3.9546 H   0  0  0  0  0  0  0  0  0  0  0  0
   -0.2889   -2.4155   -3.9546 H   0  0  0  0  0  0  0  0  0  0  0  0
    0.5905   -0.8720   -3.9542 H   0  0  0  0  0  0  0  0  0  0  0  0
    0.5905   -2.8392   -1.5440 H   0  0  0  0  0  0  0  0  0  0  0  0
    0.5905    0.0654    0.3492 H   0  0  0  0  0  0  0  0  0  0  0  0
    1.1897    0.0135    2.9401 C   0  0  0  0  0  0  0  0  0  0  0  0
    1.3020    1.3243    2.1729 C   0  0  0  0  0  0  0  0  0  0  0  0
    0.5905    1.2945    0.8357 C   0  0  0  0  0  3  0  0  0  0  0  0
   -0.7866    1.1079    1.0450 O   0  0  0  0  0  0  0  0  0  0  0  0
   -1.5251    1.0319   -0.1477 C   0  0  0  0  0  0  0  0  0  0  0  0
   -2.9842    0.8310    0.1904 C   0  0  0  0  0  0  0  0  0  0  0  0
    1.6202   -0.8115    2.3670 H   0  0  0  0  0  0  0  0  0  0  0  0
    1.7173    0.0700    3.8933 H   0  0  0  0  0  0  0  0  0  0  0  0
    0.1460   -0.2275    3.1417 H   0  0  0  0  0  0  0  0  0  0  0  0
    0.8896    2.1436    2.7674 H   0  0  0  0  0  0  0  0  0  0  0  0
    2.3530    1.5638    1.9892 H   0  0  0  0  0  0  0  0  0  0  0  0
    0.7632    2.2343    0.2909 H   0  0  0  0  0  0  0  0  0  0  0  0
   -1.3894    1.9538   -0.7324 H   0  0  0  0  0  0  0  0  0  0  0  0
   -1.1553    0.1998   -0.7649 H   0  0  0  0  0  0  0  0  0  0  0  0
   -3.3553    1.6623    0.7908 H   0  0  0  0  0  0  0  0  0  0  0  0
   -3.5788    0.7695   -0.7224 H   0  0  0  0  0  0  0  0  0  0  0  0
   -3.1218   -0.0908    0.7567 H   0  0  0  0  0  0  0  0  0  0  0  0
  1  2  1  0
  1  5  1  0
  1  6  1  0
  1  7  1  0
  2  3  2  3
  2  8  1  0
  3  4  1  0
  4  9  1  0
 10 11  1  0
 10 16  1  0
 10 17  1  0
 10 18  1  0
 11 12  1  0
 11 19  1  0
 11 20  1  0
 12 13  1  0
 12 21  1  0
 13 14  1  0
 14 15  1  0
 14 22  1  0
 14 23  1  0
 15 24  1  0
 15 25  1  0
 15 26  1  0
M  RAD  1  12   2
M  END
>  <reaction>  (15) 
rmg_rxn_323

>  <mol_properties>  (15) 
{"2": {"label": "*4", "atom_type": "N3s"}, "3": {"label": "*3", "atom_type": "O2s"}, "8": {"label": "*2", "atom_type": "H0"}, "11": {"label": "*1", "atom_type": "Cs"}, "12": {"label": "*0", "atom_type": "O2s"}}

>  <type>  (15) 
unop_11

>  <geom_source>  (15) 
Heuristics

$$$$

     RDKit          3D

 26 24  0  0  0  0  0  0  0  0999 V2000
   -0.6158   -2.2015   -3.5896 C   0  0  0  0  0  0  0  0  0  0  0  0
   -0.6158   -2.2015   -2.1010 C   0  0  0  0  0  0  0  0  0  0  0  0
   -0.6158   -1.1094   -1.4642 N   0  0  0  0  0  0  0  0  0  0  0  0
   -0.6158   -1.3141   -0.0910 O   0  0  0  0  0  0  0  0  0  0  0  0
    0.2636   -2.7253   -3.9714 H   0  0  0  0  0  0  0  0  0  0  0  0
   -1.4952   -2.7253   -3.9714 H   0  0  0  0  0  0  0  0  0  0  0  0
   -0.6158   -1.1818   -3.9710 H   0  0  0  0  0  0  0  0  0  0  0  0
   -0.6158   -3.1490   -1.5608 H   0  0  0  0  0  0  0  0  0  0  0  0
   -0.6158   -0.2444    0.3324 H   0  0  0  0  0  0  0  0  0  0  0  0
    0.5673    1.8299   -1.2582 C   0  0  0  0  0  0  0  0  0  0  0  0
   -0.6158    1.9917   -0.3130 C   0  0  0  0  0  0  0  0  0  0  0  0
   -0.6158    0.9847    0.8189 C   0  0  0  0  0  3  0  0  0  0  0  0
    0.5230    1.1825    1.6182 O   0  0  0  0  0  0  0  0  0  0  0  0
    0.6250    0.2656    2.6776 C   0  0  0  0  0  0  0  0  0  0  0  0
    1.8776    0.5658    3.4678 C   0  0  0  0  0  0  0  0  0  0  0  0
    0.5689    0.8366   -1.7139 H   0  0  0  0  0  0  0  0  0  0  0  0
    0.5314    2.5667   -2.0620 H   0  0  0  0  0  0  0  0  0  0  0  0
    1.5087    1.9545   -0.7232 H   0  0  0  0  0  0  0  0  0  0  0  0
   -0.6183    2.9968    0.1165 H   0  0  0  0  0  0  0  0  0  0  0  0
   -1.5545    1.8797   -0.8626 H   0  0  0  0  0  0  0  0  0  0  0  0
   -1.5252    1.0953    1.4276 H   0  0  0  0  0  0  0  0  0  0  0  0
   -0.2631    0.3376    3.3229 H   0  0  0  0  0  0  0  0  0  0  0  0
    0.6559   -0.7608    2.2832 H   0  0  0  0  0  0  0  0  0  0  0  0
    1.8416    1.5785    3.8709 H   0  0  0  0  0  0  0  0  0  0  0  0
    1.9778   -0.1349    4.2982 H   0  0  0  0  0  0  0  0  0  0  0  0
    2.7600    0.4794    2.8327 H   0  0  0  0  0  0  0  0  0  0  0  0
  1  2  1  0
  1  5  1  0
  1  6  1  0
  1  7  1  0
  2  3  2  3
  2  8  1  0
  3  4  1  0
  4  9  1  0
 10 11  1  0
 10 16  1  0
 10 17  1  0
 10 18  1  0
 11 12  1  0
 11 19  1  0
 11 20  1  0
 12 13  1  0
 12 21  1  0
 13 14  1  0
 14 15  1  0
 14 22  1  0
 14 23  1  0
 15 24  1  0
 15 25  1  0
 15 26  1  0
M  RAD  1  12   2
M  END
>  <reaction>  (16) 
rmg_rxn_323

>  <mol_properties>  (16) 
{"2": {"label": "*4", "atom_type": "N3s"}, "3": {"label": "*3", "atom_type": "O2s"}, "8": {"label": "*2", "atom_type": "H0"}, "11": {"label": "*1", "atom_type": "Cs"}, "12": {"label": "*0", "atom_type": "O2s"}}

>  <type>  (16) 
unop_12

>  <geom_source>  (16) 
Heuristics

$$$$

     RDKit          3D

 26 24  0  0  0  0  0  0  0  0999 V2000
   -1.9719   -0.0942   -0.0174 O   0  0  0  0  0  0  0  0  0  0  0  0
    1.0794   -0.2538    1.6699 O   0  0  0  0  0  1  0  0  0  0  0  0
    2.2377    0.2066    1.0891 N   0  0  0  0  0  2  0  0  0  0  0  0
   -0.4281    1.7467   -0.1235 C   0  0  0  0  0  0  0  0  0  0  0  0
   -0.5987    0.2324   -0.0062 C   0  0  0  0  0  0  0  0  0  0  0  0
   -2.1206   -1.4876    0.1453 C   0  0  0  0  0  0  0  0  0  0  0  0
   -0.9284    2.2742   -1.4667 C   0  0  0  0  0  0  0  0  0  0  0  0
   -3.6000   -1.8384    0.1082 C   0  0  0  0  0  0  0  0  0  0  0  0
    4.4687   -0.0912    0.2180 C   0  0  0  0  0  0  0  0  0  0  0  0
    3.2178   -0.6015    0.8480 C   0  0  0  0  0  3  0  0  0  0  0  0
    0.6493    1.9970   -0.0167 H   0  0  0  0  0  0  0  0  0  0  0  0
   -0.9822    2.2467    0.7000 H   0  0  0  0  0  0  0  0  0  0  0  0
   -0.0648   -0.2588   -0.8522 H   0  0  0  0  0  0  0  0  0  0  0  0
   -0.0680   -0.1313    1.0801 H   0  0  0  0  0  0  0  0  0  0  0  0
   -1.6118   -2.0409   -0.6771 H   0  0  0  0  0  0  0  0  0  0  0  0
   -1.7095   -1.8179    1.1264 H   0  0  0  0  0  0  0  0  0  0  0  0
   -0.3746    1.7935   -2.3011 H   0  0  0  0  0  0  0  0  0  0  0  0
   -2.0146    2.0736   -1.5832 H   0  0  0  0  0  0  0  0  0  0  0  0
   -0.7647    3.3712   -1.5182 H   0  0  0  0  0  0  0  0  0  0  0  0
   -3.7299   -2.9339    0.2356 H   0  0  0  0  0  0  0  0  0  0  0  0
   -4.1356   -1.3143    0.9281 H   0  0  0  0  0  0  0  0  0  0  0  0
   -4.0383   -1.5346   -0.8661 H   0  0  0  0  0  0  0  0  0  0  0  0
    5.1917   -0.9237    0.0895 H   0  0  0  0  0  0  0  0  0  0  0  0
    4.9248    0.6875    0.8647 H   0  0  0  0  0  0  0  0  0  0  0  0
    4.2380    0.3442   -0.7770 H   0  0  0  0  0  0  0  0  0  0  0  0
    3.1346   -1.6515    1.1023 H   0  0  0  0  0  0  0  0  0  0  0  0
  1  5  1  0
  1  6  1  0
  2  3  1  0
  3 10  1  0
  4  5  1  0
  4 12  1  0
  4 11  1  0
  4  7  1  0
  5 13  1  0
  5 14  1  0
  6 16  1  0
  6  8  1  0
  6 15  1  0
  7 18  1  0
  7 19  1  0
  7 17  1  0
  8 22  1  0
  8 21  1  0
  8 20  1  0
  9 25  1  0
  9 23  1  0
  9 24  1  0
  9 10  1  0
 10 26  1  0
M  RAD  3   2   2   3   2  10   2
M  END
>  <reaction>  (17) 
rmg_rxn_323

>  <mol_properties>  (17) 
{"2": {"label": "*4", "atom_type": "N3s"}, "3": {"label": "*3", "atom_type": "O2s"}, "8": {"label": "*2", "atom_type": "H0"}, "11": {"label": "*1", "atom_type": "Cs"}, "12": {"label": "*0", "atom_type": "O2s"}}

>  <type>  (17) 
unop_13

>  <geom_source>  (17) 
AutoTST

$$$$

     RDKit          3D

 26 24  0  0  0  0  0  0  0  0999 V2000
   -0.5651   -2.4426   -3.4390 C   0  0  0  0  0  0  0  0  0  0  0  0
   -0.5651   -2.4426   -1.9504 C   0  0  0  0  0  0  0  0  0  0  0  0
   -0.5651   -1.3505   -1.3136 N   0  0  0  0  0  0  0  0  0  0  0  0
   -0.5651   -1.5552    0.0596 O   0  0  0  0  0  0  0  0  0  0  0  0
    0.3143   -2.9665   -3.8208 H   0  0  0  0  0  0  0  0  0  0  0  0
   -1.4445   -2.9665   -3.8208 H   0  0  0  0  0  0  0  0  0  0  0  0
   -0.5651   -1.4229   -3.8205 H   0  0  0  0  0  0  0  0  0  0  0  0
   -0.5651   -3.3901   -1.4102 H   0  0  0  0  0  0  0  0  0  0  0  0
   -0.5651   -0.4856    0.4830 H   0  0  0  0  0  0  0  0  0  0  0  0
   -0.4423    2.0352   -1.2088 C   0  0  0  0  0  0  0  0  0  0  0  0
   -1.2766    1.6804    0.0148 C   0  0  0  0  0  0  0  0  0  0  0  0
   -0.5651    0.7435    0.9694 C   0  0  0  0  0  3  0  0  0  0  0  0
    0.5810    1.3786    1.4775 O   0  0  0  0  0  0  0  0  0  0  0  0
    1.3264    0.5670    2.3489 C   0  0  0  0  0  0  0  0  0  0  0  0
    2.5297    1.3423    2.8331 C   0  0  0  0  0  0  0  0  0  0  0  0
   -0.1815    1.1382   -1.7760 H   0  0  0  0  0  0  0  0  0  0  0  0
   -0.9876    2.7055   -1.8749 H   0  0  0  0  0  0  0  0  0  0  0  0
    0.4849    2.5268   -0.9146 H   0  0  0  0  0  0  0  0  0  0  0  0
   -1.5501    2.5882    0.5587 H   0  0  0  0  0  0  0  0  0  0  0  0
   -2.2105    1.2016   -0.2925 H   0  0  0  0  0  0  0  0  0  0  0  0
   -1.2342    0.4603    1.7952 H   0  0  0  0  0  0  0  0  0  0  0  0
    0.7013    0.2567    3.1994 H   0  0  0  0  0  0  0  0  0  0  0  0
    1.6430   -0.3491    1.8288 H   0  0  0  0  0  0  0  0  0  0  0  0
    2.2165    2.2437    3.3609 H   0  0  0  0  0  0  0  0  0  0  0  0
    3.1247    0.7309    3.5133 H   0  0  0  0  0  0  0  0  0  0  0  0
    3.1582    1.6370    1.9919 H   0  0  0  0  0  0  0  0  0  0  0  0
  1  2  1  0
  1  5  1  0
  1  6  1  0
  1  7  1  0
  2  3  2  3
  2  8  1  0
  3  4  1  0
  4  9  1  0
 10 11  1  0
 10 16  1  0
 10 17  1  0
 10 18  1  0
 11 12  1  0
 11 19  1  0
 11 20  1  0
 12 13  1  0
 12 21  1  0
 13 14  1  0
 14 15  1  0
 14 22  1  0
 14 23  1  0
 15 24  1  0
 15 25  1  0
 15 26  1  0
M  RAD  1  12   2
M  END
>  <reaction>  (18) 
rmg_rxn_323

>  <mol_properties>  (18) 
{"2": {"label": "*4", "atom_type": "N3s"}, "3": {"label": "*3", "atom_type": "O2s"}, "8": {"label": "*2", "atom_type": "H0"}, "11": {"label": "*1", "atom_type": "Cs"}, "12": {"label": "*0", "atom_type": "O2s"}}

>  <type>  (18) 
unop_14

>  <geom_source>  (18) 
gaussian_log

$$$$
