
     RDKit          3D

 17 16  0  0  0  0  0  0  0  0999 V2000
    3.1099   -1.8290   -0.4133 C   0  0  0  0  0  0  0  0  0  0  0  0
    3.2191   -0.3608   -0.6746 C   0  0  0  0  0  0  0  0  0  0  0  0
    2.3786    0.5666   -0.2369 C   0  0  0  0  0  0  0  0  0  0  0  0
    1.2672    0.2611    0.4868 O   0  0  0  0  0  0  0  0  0  0  0  0
    0.8726    1.3903    1.3069 N   0  0  0  0  0  0  0  0  0  0  0  0
    1.4437    1.2702    2.5675 N   0  0  0  0  0  0  0  0  0  0  0  0
   -0.5688    1.2617    1.4132 C   0  0  0  0  0  0  0  0  0  0  0  0
    2.8525   -2.3739   -1.3257 H   0  0  0  0  0  0  0  0  0  0  0  0
    2.3430   -2.0431    0.3302 H   0  0  0  0  0  0  0  0  0  0  0  0
    4.0609   -2.2324   -0.0579 H   0  0  0  0  0  0  0  0  0  0  0  0
    4.0336   -0.0133   -1.2988 H   0  0  0  0  0  0  0  0  0  0  0  0
    2.4961    1.6238   -0.4474 H   0  0  0  0  0  0  0  0  0  0  0  0
    1.3456    0.3206    2.9243 H   0  0  0  0  0  0  0  0  0  0  0  0
    2.4253    1.5018    2.5027 H   0  0  0  0  0  0  0  0  0  0  0  0
   -0.8613    0.3089    1.8737 H   0  0  0  0  0  0  0  0  0  0  0  0
   -0.9985    1.3247    0.4163 H   0  0  0  0  0  0  0  0  0  0  0  0
   -0.9281    2.0857    2.0250 H   0  0  0  0  0  0  0  0  0  0  0  0
  1  2  1  0
  1  8  1  0
  1  9  1  0
  1 10  1  0
  2  3  2  3
  2 11  1  0
  3  4  1  0
  3 12  1  0
  4  5  1  0
  5  7  1  0
  5  6  1  0
  6 13  1  0
  6 14  1  0
  7 15  1  0
  7 16  1  0
  7 17  1  0
M  END
>  <reaction>  (1) 
rmg_rxn_15517

>  <mol_properties>  (1) 
{"5": {"label": "donator", "atom_type": "N3s"}, "12": {"label": "d_hydrogen", "atom_type": "H0"}}

>  <type>  (1) 
r1h

$$$$

     RDKit          3D

  5  4  0  0  0  0  0  0  0  0999 V2000
    0.8934    0.3742    0.4948 O   0  0  0  0  0  0  0  0  0  0  0  0
    0.1582   -0.1610   -0.5904 N   0  0  0  0  0  0  0  0  0  0  0  0
   -1.0297   -0.3739   -0.4689 C   0  0  0  0  0  3  0  0  0  0  0  0
    1.7804    0.4382    0.1306 H   0  0  0  0  0  0  0  0  0  0  0  0
   -1.8023   -0.2775    0.2859 H   0  0  0  0  0  0  0  0  0  0  0  0
  1  2  1  0
  1  4  1  0
  2  3  2  3
  3  5  1  0
M  RAD  1   3   2
M  END
>  <reaction>  (2) 
rmg_rxn_15517

>  <mol_properties>  (2) 
{"2": {"label": "acceptor", "atom_type": "Cd"}}

>  <type>  (2) 
r2

$$$$

     RDKit          3D

  6  5  0  0  0  0  0  0  0  0999 V2000
    1.2314    0.0428    0.5088 O   0  0  0  0  0  0  0  0  0  0  0  0
    0.2987    0.2341   -0.4915 N   0  0  0  0  0  0  0  0  0  0  0  0
   -0.8599   -0.1122   -0.1290 C   0  0  0  0  0  0  0  0  0  0  0  0
    2.0507    0.3401    0.1082 H   0  0  0  0  0  0  0  0  0  0  0  0
   -1.0700   -0.5112    0.8610 H   0  0  0  0  0  0  0  0  0  0  0  0
   -1.6509    0.0064   -0.8574 H   0  0  0  0  0  0  0  0  0  0  0  0
  1  2  1  0
  1  4  1  0
  2  3  2  3
  3  5  1  0
  3  6  1  0
M  END
>  <reaction>  (3) 
rmg_rxn_15517

>  <mol_properties>  (3) 
{"2": {"label": "acceptor", "atom_type": "Cd"}, "5": {"label": "a_hydrogen", "atom_type": "H0"}}

>  <type>  (3) 
r2h

$$$$

     RDKit          3D

 22 20  0  0  0  0  0  0  0  0999 V2000
   -1.9606    0.4065   -2.8885 O   0  0  0  0  0  0  0  0  0  0  0  0
   -1.7273    0.4145   -1.5053 N   0  0  0  0  0  0  0  0  0  0  0  0
   -0.9265    1.2746   -1.1142 C   0  0  0  0  0  3  0  0  0  0  0  0
   -2.5927   -0.3088   -2.9915 H   0  0  0  0  0  0  0  0  0  0  0  0
   -0.3739    2.0097   -1.6994 H   0  0  0  0  0  0  0  0  0  0  0  0
    0.7406   -2.3583   -1.1856 C   0  0  0  0  0  0  0  0  0  0  0  0
    0.8245   -2.5274    0.2965 C   0  0  0  0  0  0  0  0  0  0  0  0
    1.0550   -1.5625    1.1747 C   0  0  0  0  0  0  0  0  0  0  0  0
    1.3038   -0.2761    0.7894 O   0  0  0  0  0  0  0  0  0  0  0  0
    0.7201    0.6492    1.7342 N   0  0  0  0  0  0  0  0  0  0  0  0
   -0.5936    0.8876    1.4699 N   0  0  0  0  0  0  0  0  0  0  0  0
    1.5101    1.8577    1.6203 C   0  0  0  0  0  0  0  0  0  0  0  0
    1.6000   -2.8183   -1.6809 H   0  0  0  0  0  0  0  0  0  0  0  0
    0.7088   -1.3064   -1.4637 H   0  0  0  0  0  0  0  0  0  0  0  0
   -0.1550   -2.8453   -1.5771 H   0  0  0  0  0  0  0  0  0  0  0  0
    0.7198   -3.5272    0.7017 H   0  0  0  0  0  0  0  0  0  0  0  0
    1.0975   -1.7266    2.2461 H   0  0  0  0  0  0  0  0  0  0  0  0
   -0.7364    1.2219    0.3891 H   0  0  0  0  0  0  0  0  0  0  0  0
   -1.0925    0.0023    1.5211 H   0  0  0  0  0  0  0  0  0  0  0  0
    1.4584    2.2724    0.6060 H   0  0  0  0  0  0  0  0  0  0  0  0
    2.5435    1.6238    1.8625 H   0  0  0  0  0  0  0  0  0  0  0  0
    1.1137    2.5792    2.3302 H   0  0  0  0  0  0  0  0  0  0  0  0
  1  2  1  0
  1  4  1  0
  2  3  2  3
  3  5  1  0
  6  7  1  0
  6 13  1  0
  6 14  1  0
  6 15  1  0
  7  8  2  3
  7 16  1  0
  8  9  1  0
  8 17  1  0
  9 10  1  0
 10 12  1  0
 10 11  1  0
 11 18  1  0
 11 19  1  0
 12 20  1  0
 12 21  1  0
 12 22  1  0
M  RAD  1   3   2
M  END
>  <reaction>  (4) 
rmg_rxn_15517

>  <mol_properties>  (4) 
{"1": {"label": "*4", "atom_type": "N3d"}, "2": {"label": "*3", "atom_type": "Cd"}, "9": {"label": "*0", "atom_type": "N3s"}, "10": {"label": "*1", "atom_type": "N3s"}, "17": {"label": "*2", "atom_type": "H0"}}

>  <type>  (4) 
ts

$$$$

     RDKit          3D

 22 20  0  0  0  0  0  0  0  0999 V2000
   -3.0924    1.7923    0.2895 O   0  0  0  0  0  0  0  0  0  0  0  0
   -2.1785    0.7828    0.0888 N   0  0  0  0  0  0  0  0  0  0  0  0
   -2.4753   -0.2423   -0.5555 C   0  0  0  0  0  0  0  0  0  0  0  0
   -3.9490    1.5837   -0.1292 H   0  0  0  0  0  0  0  0  0  0  0  0
   -3.4453   -0.4495   -1.0136 H   0  0  0  0  0  0  0  0  0  0  0  0
    3.5397    1.3121   -0.1117 C   0  0  0  0  0  0  0  0  0  0  0  0
    2.0765    1.5727    0.0243 C   0  0  0  0  0  0  0  0  0  0  0  0
    1.1316    0.6497   -0.0671 C   0  0  0  0  0  0  0  0  0  0  0  0
    1.4446   -0.6720   -0.3346 O   0  0  0  0  0  0  0  0  0  0  0  0
    0.4728   -1.6384    0.0324 N   0  0  0  0  0  0  0  0  0  0  0  0
   -0.5247   -1.8771   -0.7999 N   0  0  0  0  0  2  0  0  0  0  0  0
    0.1382   -1.6402    1.4329 C   0  0  0  0  0  0  0  0  0  0  0  0
    4.0742    1.7068    0.7516 H   0  0  0  0  0  0  0  0  0  0  0  0
    3.9313    1.8081   -0.9996 H   0  0  0  0  0  0  0  0  0  0  0  0
    3.7264    0.2454   -0.1951 H   0  0  0  0  0  0  0  0  0  0  0  0
    1.7696    2.5948    0.1844 H   0  0  0  0  0  0  0  0  0  0  0  0
    0.0758    0.8731    0.0278 H   0  0  0  0  0  0  0  0  0  0  0  0
   -1.5592   -1.0941   -0.6816 H   0  0  0  0  0  0  0  0  0  0  0  0
   -0.2033   -1.7959   -1.7616 H   0  0  0  0  0  0  0  0  0  0  0  0
   -0.3842   -2.5712    1.6395 H   0  0  0  0  0  0  0  0  0  0  0  0
   -0.5060   -0.7977    1.7053 H   0  0  0  0  0  0  0  0  0  0  0  0
    1.0631   -1.5966    2.0045 H   0  0  0  0  0  0  0  0  0  0  0  0
  1  2  1  0
  1  4  1  0
  2  3  2  3
  3  5  1  0
  3 18  1  0
  6  7  1  0
  6 13  1  0
  6 14  1  0
  6 15  1  0
  7  8  2  3
  7 16  1  0
  8  9  1  0
  8 17  1  0
  9 10  1  0
 10 12  1  0
 10 11  1  0
 11 19  1  0
 12 20  1  0
 12 21  1  0
 12 22  1  0
M  RAD  1  11   2
M  END
>  <reaction>  (5) 
rmg_rxn_15517

>  <mol_properties>  (5) 
{"1": {"label": "*4", "atom_type": "N3d"}, "2": {"label": "*3", "atom_type": "Cd"}, "9": {"label": "*0", "atom_type": "N3s"}, "10": {"label": "*1", "atom_type": "N3s"}, "17": {"label": "*2", "atom_type": "H0"}}

>  <type>  (5) 
unop_1

>  <geom_source>  (5) 
crest_best.xyz

$$$$

     RDKit          3D

 22 20  0  0  0  0  0  0  0  0999 V2000
   -2.6674    0.9763   -2.5927 O   0  0  0  0  0  0  0  0  0  0  0  0
   -1.8004    0.3832   -1.6963 N   0  0  0  0  0  0  0  0  0  0  0  0
   -1.0632    1.2312   -1.1211 C   0  0  0  0  0  3  0  0  0  0  0  0
   -3.1582    0.2342   -2.9510 H   0  0  0  0  0  0  0  0  0  0  0  0
   -1.1251    2.2977   -1.3267 H   0  0  0  0  0  0  0  0  0  0  0  0
    1.1703   -2.5289   -1.0429 C   0  0  0  0  0  0  0  0  0  0  0  0
    1.1703   -2.5289    0.4524 C   0  0  0  0  0  0  0  0  0  0  0  0
    1.1703   -1.4514    1.2251 C   0  0  0  0  0  0  0  0  0  0  0  0
    1.2136   -0.1893    0.7175 O   0  0  0  0  0  0  0  0  0  0  0  0
    0.6302    0.7518    1.6540 N   0  0  0  0  0  0  0  0  0  0  0  0
   -0.7154    0.9277    1.3575 N   0  0  0  0  0  0  0  0  0  0  0  0
    1.3476    1.9880    1.4039 C   0  0  0  0  0  0  0  0  0  0  0  0
    2.1260   -2.8849   -1.4373 H   0  0  0  0  0  0  0  0  0  0  0  0
    0.9982   -1.5288   -1.4391 H   0  0  0  0  0  0  0  0  0  0  0  0
    0.3964   -3.1947   -1.4317 H   0  0  0  0  0  0  0  0  0  0  0  0
    1.2032   -3.4843    0.9621 H   0  0  0  0  0  0  0  0  0  0  0  0
    1.1675   -1.4956    2.3084 H   0  0  0  0  0  0  0  0  0  0  0  0
   -0.8841    1.0749    0.1552 H   0  0  0  0  0  0  0  0  0  0  0  0
   -1.2257    0.1124    1.6679 H   0  0  0  0  0  0  0  0  0  0  0  0
    1.2282    2.3272    0.3665 H   0  0  0  0  0  0  0  0  0  0  0  0
    2.4031    1.8257    1.6086 H   0  0  0  0  0  0  0  0  0  0  0  0
    0.9501    2.7413    2.0798 H   0  0  0  0  0  0  0  0  0  0  0  0
  1  2  1  0
  1  4  1  0
  2  3  2  3
  3  5  1  0
  6  7  1  0
  6 13  1  0
  6 14  1  0
  6 15  1  0
  7  8  2  3
  7 16  1  0
  8  9  1  0
  8 17  1  0
  9 10  1  0
 10 12  1  0
 10 11  1  0
 11 18  1  0
 11 19  1  0
 12 20  1  0
 12 21  1  0
 12 22  1  0
M  RAD  1   3   2
M  END
>  <reaction>  (6) 
rmg_rxn_15517

>  <mol_properties>  (6) 
{"1": {"label": "*4", "atom_type": "N3d"}, "2": {"label": "*3", "atom_type": "Cd"}, "9": {"label": "*0", "atom_type": "N3s"}, "10": {"label": "*1", "atom_type": "N3s"}, "17": {"label": "*2", "atom_type": "H0"}}

>  <type>  (6) 
unop_2

>  <geom_source>  (6) 
Heuristics

$$$$

     RDKit          3D

 22 20  0  0  0  0  0  0  0  0999 V2000
   -3.0919   -1.7924   -0.2899 O   0  0  0  0  0  0  0  0  0  0  0  0
   -2.1782   -0.7828   -0.0885 N   0  0  0  0  0  0  0  0  0  0  0  0
   -2.4749    0.2414    0.5572 C   0  0  0  0  0  0  0  0  0  0  0  0
   -3.9482   -1.5847    0.1296 H   0  0  0  0  0  0  0  0  0  0  0  0
   -3.4446    0.4478    1.0161 H   0  0  0  0  0  0  0  0  0  0  0  0
    3.5403   -1.3110    0.1128 C   0  0  0  0  0  0  0  0  0  0  0  0
    2.0774   -1.5721   -0.0246 C   0  0  0  0  0  0  0  0  0  0  0  0
    1.1321   -0.6495    0.0659 C   0  0  0  0  0  0  0  0  0  0  0  0
    1.4443    0.6723    0.3335 O   0  0  0  0  0  0  0  0  0  0  0  0
    0.4719    1.6382   -0.0328 N   0  0  0  0  0  0  0  0  0  0  0  0
   -0.5247    1.8769    0.8003 N   0  0  0  0  0  2  0  0  0  0  0  0
    0.1360    1.6397   -1.4331 C   0  0  0  0  0  0  0  0  0  0  0  0
    3.7267   -0.2441    0.1944 H   0  0  0  0  0  0  0  0  0  0  0  0
    4.0761   -1.7074   -0.7491 H   0  0  0  0  0  0  0  0  0  0  0  0
    3.9308   -1.8052    1.0021 H   0  0  0  0  0  0  0  0  0  0  0  0
    1.7709   -2.5943   -0.1849 H   0  0  0  0  0  0  0  0  0  0  0  0
    0.0765   -0.8734   -0.0297 H   0  0  0  0  0  0  0  0  0  0  0  0
   -1.5590    1.0934    0.6832 H   0  0  0  0  0  0  0  0  0  0  0  0
   -0.2024    1.7959    1.7617 H   0  0  0  0  0  0  0  0  0  0  0  0
    1.0605    1.5973   -2.0055 H   0  0  0  0  0  0  0  0  0  0  0  0
   -0.3877    2.5700   -1.6391 H   0  0  0  0  0  0  0  0  0  0  0  0
   -0.5073    0.7964   -1.7049 H   0  0  0  0  0  0  0  0  0  0  0  0
  1  2  1  0
  1  4  1  0
  2  3  2  3
  3  5  1  0
  3 18  1  0
  6  7  1  0
  6 13  1  0
  6 14  1  0
  6 15  1  0
  7  8  2  3
  7 16  1  0
  8  9  1  0
  8 17  1  0
  9 10  1  0
 10 12  1  0
 10 11  1  0
 11 19  1  0
 12 20  1  0
 12 21  1  0
 12 22  1  0
M  RAD  1  11   2
M  END
>  <reaction>  (7) 
rmg_rxn_15517

>  <mol_properties>  (7) 
{"1": {"label": "*4", "atom_type": "N3d"}, "2": {"label": "*3", "atom_type": "Cd"}, "9": {"label": "*0", "atom_type": "N3s"}, "10": {"label": "*1", "atom_type": "N3s"}, "17": {"label": "*2", "atom_type": "H0"}}

>  <type>  (7) 
unop_3

>  <geom_source>  (7) 
Heuristics

$$$$

     RDKit          3D

 22 20  0  0  0  0  0  0  0  0999 V2000
   -3.0914    1.7931   -0.2884 O   0  0  0  0  0  0  0  0  0  0  0  0
   -2.1777    0.7836   -0.0870 N   0  0  0  0  0  0  0  0  0  0  0  0
   -2.4770   -0.2446    0.5512 C   0  0  0  0  0  0  0  0  0  0  0  0
   -3.9499    1.5821    0.1248 H   0  0  0  0  0  0  0  0  0  0  0  0
   -3.4493   -0.4549    1.0028 H   0  0  0  0  0  0  0  0  0  0  0  0
    3.5395    1.3112    0.1098 C   0  0  0  0  0  0  0  0  0  0  0  0
    2.0762    1.5724   -0.0238 C   0  0  0  0  0  0  0  0  0  0  0  0
    1.1311    0.6500    0.0698 C   0  0  0  0  0  0  0  0  0  0  0  0
    1.4436   -0.6716    0.3378 O   0  0  0  0  0  0  0  0  0  0  0  0
    0.4730   -1.6381   -0.0323 N   0  0  0  0  0  0  0  0  0  0  0  0
   -0.5259   -1.8785    0.7977 N   0  0  0  0  0  2  0  0  0  0  0  0
    0.1410   -1.6380   -1.4334 C   0  0  0  0  0  0  0  0  0  0  0  0
    4.0728    1.7063   -0.7541 H   0  0  0  0  0  0  0  0  0  0  0  0
    3.7259    0.2443    0.1922 H   0  0  0  0  0  0  0  0  0  0  0  0
    3.9326    1.8064    0.9974 H   0  0  0  0  0  0  0  0  0  0  0  0
    1.7695    2.5946   -0.1839 H   0  0  0  0  0  0  0  0  0  0  0  0
    0.0752    0.8740   -0.0234 H   0  0  0  0  0  0  0  0  0  0  0  0
   -1.5607   -1.0960    0.6784 H   0  0  0  0  0  0  0  0  0  0  0  0
   -0.2065   -1.7982    1.7601 H   0  0  0  0  0  0  0  0  0  0  0  0
   -0.5017   -0.7943   -1.7060 H   0  0  0  0  0  0  0  0  0  0  0  0
   -0.3820   -2.5681   -1.6421 H   0  0  0  0  0  0  0  0  0  0  0  0
    1.0670   -1.5946   -2.0032 H   0  0  0  0  0  0  0  0  0  0  0  0
  1  2  1  0
  1  4  1  0
  2  3  2  3
  3  5  1  0
  3 18  1  0
  6  7  1  0
  6 13  1  0
  6 14  1  0
  6 15  1  0
  7  8  2  3
  7 16  1  0
  8  9  1  0
  8 17  1  0
  9 10  1  0
 10 12  1  0
 10 11  1  0
 11 19  1  0
 12 20  1  0
 12 21  1  0
 12 22  1  0
M  RAD  1  11   2
M  END
>  <reaction>  (8) 
rmg_rxn_15517

>  <mol_properties>  (8) 
{"1": {"label": "*4", "atom_type": "N3d"}, "2": {"label": "*3", "atom_type": "Cd"}, "9": {"label": "*0", "atom_type": "N3s"}, "10": {"label": "*1", "atom_type": "N3s"}, "17": {"label": "*2", "atom_type": "H0"}}

>  <type>  (8) 
unop_4

>  <geom_source>  (8) 
Heuristics

$$$$

     RDKit          3D

 22 20  0  0  0  0  0  0  0  0999 V2000
   -3.0923   -1.7919   -0.2911 O   0  0  0  0  0  0  0  0  0  0  0  0
   -2.1778   -0.7834   -0.0881 N   0  0  0  0  0  0  0  0  0  0  0  0
   -2.4743    0.2407    0.5580 C   0  0  0  0  0  0  0  0  0  0  0  0
   -3.9489   -1.5837    0.1275 H   0  0  0  0  0  0  0  0  0  0  0  0
   -3.4442    0.4478    1.0160 H   0  0  0  0  0  0  0  0  0  0  0  0
    3.5395   -1.3131    0.1121 C   0  0  0  0  0  0  0  0  0  0  0  0
    2.0762   -1.5728   -0.0238 C   0  0  0  0  0  0  0  0  0  0  0  0
    1.1321   -0.6490    0.0654 C   0  0  0  0  0  0  0  0  0  0  0  0
    1.4460    0.6730    0.3301 O   0  0  0  0  0  0  0  0  0  0  0  0
    0.4722    1.6389   -0.0323 N   0  0  0  0  0  0  0  0  0  0  0  0
   -0.5233    1.8750    0.8030 N   0  0  0  0  0  2  0  0  0  0  0  0
    0.1341    1.6431   -1.4320 C   0  0  0  0  0  0  0  0  0  0  0  0
    3.9302   -1.8063    1.0020 H   0  0  0  0  0  0  0  0  0  0  0  0
    3.7272   -0.2463    0.1918 H   0  0  0  0  0  0  0  0  0  0  0  0
    4.0742   -1.7114   -0.7495 H   0  0  0  0  0  0  0  0  0  0  0  0
    1.7685   -2.5950   -0.1822 H   0  0  0  0  0  0  0  0  0  0  0  0
    0.0761   -0.8719   -0.0290 H   0  0  0  0  0  0  0  0  0  0  0  0
   -1.5578    1.0920    0.6851 H   0  0  0  0  0  0  0  0  0  0  0  0
   -0.1995    1.7916    1.7636 H   0  0  0  0  0  0  0  0  0  0  0  0
   -0.3920    2.5727   -1.6350 H   0  0  0  0  0  0  0  0  0  0  0  0
   -0.5079    0.7990   -1.7048 H   0  0  0  0  0  0  0  0  0  0  0  0
    1.0577    1.6039   -2.0060 H   0  0  0  0  0  0  0  0  0  0  0  0
  1  2  1  0
  1  4  1  0
  2  3  2  3
  3  5  1  0
  3 18  1  0
  6  7  1  0
  6 13  1  0
  6 14  1  0
  6 15  1  0
  7  8  2  3
  7 16  1  0
  8  9  1  0
  8 17  1  0
  9 10  1  0
 10 12  1  0
 10 11  1  0
 11 19  1  0
 12 20  1  0
 12 21  1  0
 12 22  1  0
M  RAD  1  11   2
M  END
>  <reaction>  (9) 
rmg_rxn_15517

>  <mol_properties>  (9) 
{"1": {"label": "*4", "atom_type": "N3d"}, "2": {"label": "*3", "atom_type": "Cd"}, "9": {"label": "*0", "atom_type": "N3s"}, "10": {"label": "*1", "atom_type": "N3s"}, "17": {"label": "*2", "atom_type": "H0"}}

>  <type>  (9) 
unop_5

>  <geom_source>  (9) 
Heuristics

$$$$

     RDKit          3D

 22 20  0  0  0  0  0  0  0  0999 V2000
   -1.0961    0.5690   -3.0856 O   0  0  0  0  0  0  0  0  0  0  0  0
   -0.6169    0.6814   -1.7953 N   0  0  0  0  0  0  0  0  0  0  0  0
   -1.4419    1.2587   -1.0341 C   0  0  0  0  0  3  0  0  0  0  0  0
   -0.3850    0.1214   -3.5483 H   0  0  0  0  0  0  0  0  0  0  0  0
   -2.4095    1.6156   -1.3805 H   0  0  0  0  0  0  0  0  0  0  0  0
    0.7916   -2.5014   -0.9559 C   0  0  0  0  0  0  0  0  0  0  0  0
    0.7916   -2.5014    0.5394 C   0  0  0  0  0  0  0  0  0  0  0  0
    0.7916   -1.4239    1.3121 C   0  0  0  0  0  0  0  0  0  0  0  0
    0.8349   -0.1618    0.8045 O   0  0  0  0  0  0  0  0  0  0  0  0
    0.2515    0.7793    1.7410 N   0  0  0  0  0  0  0  0  0  0  0  0
   -1.0941    0.9552    1.4445 N   0  0  0  0  0  0  0  0  0  0  0  0
    0.9689    2.0155    1.4909 C   0  0  0  0  0  0  0  0  0  0  0  0
    1.7473   -2.8574   -1.3503 H   0  0  0  0  0  0  0  0  0  0  0  0
    0.6194   -1.5013   -1.3521 H   0  0  0  0  0  0  0  0  0  0  0  0
    0.0177   -3.1672   -1.3447 H   0  0  0  0  0  0  0  0  0  0  0  0
    0.8244   -3.4568    1.0491 H   0  0  0  0  0  0  0  0  0  0  0  0
    0.7888   -1.4681    2.3955 H   0  0  0  0  0  0  0  0  0  0  0  0
   -1.2628    1.1024    0.2422 H   0  0  0  0  0  0  0  0  0  0  0  0
   -1.6044    0.1399    1.7550 H   0  0  0  0  0  0  0  0  0  0  0  0
    0.8494    2.3547    0.4536 H   0  0  0  0  0  0  0  0  0  0  0  0
    2.0244    1.8532    1.6956 H   0  0  0  0  0  0  0  0  0  0  0  0
    0.5713    2.7688    2.1669 H   0  0  0  0  0  0  0  0  0  0  0  0
  1  2  1  0
  1  4  1  0
  2  3  2  3
  3  5  1  0
  6  7  1  0
  6 13  1  0
  6 14  1  0
  6 15  1  0
  7  8  2  3
  7 16  1  0
  8  9  1  0
  8 17  1  0
  9 10  1  0
 10 12  1  0
 10 11  1  0
 11 18  1  0
 11 19  1  0
 12 20  1  0
 12 21  1  0
 12 22  1  0
M  RAD  1   3   2
M  END
>  <reaction>  (10) 
rmg_rxn_15517

>  <mol_properties>  (10) 
{"1": {"label": "*4", "atom_type": "N3d"}, "2": {"label": "*3", "atom_type": "Cd"}, "9": {"label": "*0", "atom_type": "N3s"}, "10": {"label": "*1", "atom_type": "N3s"}, "17": {"label": "*2", "atom_type": "H0"}}

>  <type>  (10) 
unop_6

>  <geom_source>  (10) 
Heuristics

$$$$

     RDKit          3D

 22 20  0  0  0  0  0  0  0  0999 V2000
   -3.0925   -1.7924   -0.2890 O   0  0  0  0  0  0  0  0  0  0  0  0
   -2.1784   -0.7830   -0.0883 N   0  0  0  0  0  0  0  0  0  0  0  0
   -2.4762    0.2439    0.5525 C   0  0  0  0  0  0  0  0  0  0  0  0
   -3.9498   -1.5824    0.1271 H   0  0  0  0  0  0  0  0  0  0  0  0
   -3.4471    0.4528    1.0078 H   0  0  0  0  0  0  0  0  0  0  0  0
    3.5381   -1.3140    0.1115 C   0  0  0  0  0  0  0  0  0  0  0  0
    2.0748   -1.5735   -0.0251 C   0  0  0  0  0  0  0  0  0  0  0  0
    1.1306   -0.6500    0.0672 C   0  0  0  0  0  0  0  0  0  0  0  0
    1.4442    0.6710    0.3367 O   0  0  0  0  0  0  0  0  0  0  0  0
    0.4740    1.6386   -0.0312 N   0  0  0  0  0  0  0  0  0  0  0  0
   -0.5249    1.8775    0.7992 N   0  0  0  0  0  2  0  0  0  0  0  0
    0.1425    1.6422   -1.4325 C   0  0  0  0  0  0  0  0  0  0  0  0
    4.0728   -1.7086   -0.7518 H   0  0  0  0  0  0  0  0  0  0  0  0
    3.9290   -1.8108    0.9993 H   0  0  0  0  0  0  0  0  0  0  0  0
    3.7255   -0.2475    0.1956 H   0  0  0  0  0  0  0  0  0  0  0  0
    1.7672   -2.5951   -0.1867 H   0  0  0  0  0  0  0  0  0  0  0  0
    0.0746   -0.8727   -0.0284 H   0  0  0  0  0  0  0  0  0  0  0  0
   -1.5597    1.0951    0.6792 H   0  0  0  0  0  0  0  0  0  0  0  0
   -0.2054    1.7956    1.7614 H   0  0  0  0  0  0  0  0  0  0  0  0
    1.0687    1.5991   -2.0020 H   0  0  0  0  0  0  0  0  0  0  0  0
   -0.3794    2.5734   -1.6392 H   0  0  0  0  0  0  0  0  0  0  0  0
   -0.5010    0.7999   -1.7074 H   0  0  0  0  0  0  0  0  0  0  0  0
  1  2  1  0
  1  4  1  0
  2  3  2  3
  3  5  1  0
  3 18  1  0
  6  7  1  0
  6 13  1  0
  6 14  1  0
  6 15  1  0
  7  8  2  3
  7 16  1  0
  8  9  1  0
  8 17  1  0
  9 10  1  0
 10 12  1  0
 10 11  1  0
 11 19  1  0
 12 20  1  0
 12 21  1  0
 12 22  1  0
M  RAD  1  11   2
M  END
>  <reaction>  (11) 
rmg_rxn_15517

>  <mol_properties>  (11) 
{"1": {"label": "*4", "atom_type": "N3d"}, "2": {"label": "*3", "atom_type": "Cd"}, "9": {"label": "*0", "atom_type": "N3s"}, "10": {"label": "*1", "atom_type": "N3s"}, "17": {"label": "*2", "atom_type": "H0"}}

>  <type>  (11) 
unop_7

>  <geom_source>  (11) 
Heuristics

$$$$

     RDKit          3D

 22 20  0  0  0  0  0  0  0  0999 V2000
   -2.5650    1.4900   -2.6520 O   0  0  0  0  0  0  0  0  0  0  0  0
   -2.1396    0.7116   -1.5937 N   0  0  0  0  0  0  0  0  0  0  0  0
   -1.0393    1.1142   -1.1240 C   0  0  0  0  0  3  0  0  0  0  0  0
   -3.3945    1.0822   -2.9082 H   0  0  0  0  0  0  0  0  0  0  0  0
   -0.5102    1.9760   -1.5253 H   0  0  0  0  0  0  0  0  0  0  0  0
    1.1943   -2.6459   -1.0458 C   0  0  0  0  0  0  0  0  0  0  0  0
    1.1943   -2.6459    0.4495 C   0  0  0  0  0  0  0  0  0  0  0  0
    1.1943   -1.5684    1.2222 C   0  0  0  0  0  0  0  0  0  0  0  0
    1.2376   -0.3063    0.7146 O   0  0  0  0  0  0  0  0  0  0  0  0
    0.6542    0.6348    1.6511 N   0  0  0  0  0  0  0  0  0  0  0  0
   -0.6915    0.8107    1.3546 N   0  0  0  0  0  0  0  0  0  0  0  0
    1.3715    1.8710    1.4010 C   0  0  0  0  0  0  0  0  0  0  0  0
    2.1500   -3.0019   -1.4402 H   0  0  0  0  0  0  0  0  0  0  0  0
    1.0221   -1.6458   -1.4420 H   0  0  0  0  0  0  0  0  0  0  0  0
    0.4203   -3.3117   -1.4346 H   0  0  0  0  0  0  0  0  0  0  0  0
    1.2271   -3.6013    0.9592 H   0  0  0  0  0  0  0  0  0  0  0  0
    1.1914   -1.6126    2.3056 H   0  0  0  0  0  0  0  0  0  0  0  0
   -0.8602    0.9579    0.1523 H   0  0  0  0  0  0  0  0  0  0  0  0
   -1.2017   -0.0046    1.6650 H   0  0  0  0  0  0  0  0  0  0  0  0
    1.2521    2.2102    0.3636 H   0  0  0  0  0  0  0  0  0  0  0  0
    2.4270    1.7087    1.6057 H   0  0  0  0  0  0  0  0  0  0  0  0
    0.9740    2.6243    2.0769 H   0  0  0  0  0  0  0  0  0  0  0  0
  1  2  1  0
  1  4  1  0
  2  3  2  3
  3  5  1  0
  6  7  1  0
  6 13  1  0
  6 14  1  0
  6 15  1  0
  7  8  2  3
  7 16  1  0
  8  9  1  0
  8 17  1  0
  9 10  1  0
 10 12  1  0
 10 11  1  0
 11 18  1  0
 11 19  1  0
 12 20  1  0
 12 21  1  0
 12 22  1  0
M  RAD  1   3   2
M  END
>  <reaction>  (12) 
rmg_rxn_15517

>  <mol_properties>  (12) 
{"1": {"label": "*4", "atom_type": "N3d"}, "2": {"label": "*3", "atom_type": "Cd"}, "9": {"label": "*0", "atom_type": "N3s"}, "10": {"label": "*1", "atom_type": "N3s"}, "17": {"label": "*2", "atom_type": "H0"}}

>  <type>  (12) 
unop_8

>  <geom_source>  (12) 
Heuristics

$$$$

     RDKit          3D

 22 20  0  0  0  0  0  0  0  0999 V2000
   -1.5027    2.3489   -2.7042 O   0  0  0  0  0  0  0  0  0  0  0  0
   -0.7794    1.8356   -1.6457 N   0  0  0  0  0  0  0  0  0  0  0  0
   -1.3607    0.8515   -1.1099 C   0  0  0  0  0  3  0  0  0  0  0  0
   -0.9587    3.0759   -3.0131 H   0  0  0  0  0  0  0  0  0  0  0  0
   -2.3184    0.4734   -1.4613 H   0  0  0  0  0  0  0  0  0  0  0  0
    0.8728   -2.9086   -1.0318 C   0  0  0  0  0  0  0  0  0  0  0  0
    0.8728   -2.9086    0.4635 C   0  0  0  0  0  0  0  0  0  0  0  0
    0.8728   -1.8311    1.2363 C   0  0  0  0  0  0  0  0  0  0  0  0
    0.9161   -0.5691    0.7287 O   0  0  0  0  0  0  0  0  0  0  0  0
    0.3327    0.3721    1.6652 N   0  0  0  0  0  0  0  0  0  0  0  0
   -1.0129    0.5479    1.3687 N   0  0  0  0  0  0  0  0  0  0  0  0
    1.0501    1.6083    1.4151 C   0  0  0  0  0  0  0  0  0  0  0  0
    1.8285   -3.2646   -1.4261 H   0  0  0  0  0  0  0  0  0  0  0  0
    0.7007   -1.9085   -1.4279 H   0  0  0  0  0  0  0  0  0  0  0  0
    0.0989   -3.5745   -1.4205 H   0  0  0  0  0  0  0  0  0  0  0  0
    0.9057   -3.8640    0.9732 H   0  0  0  0  0  0  0  0  0  0  0  0
    0.8700   -1.8753    2.3196 H   0  0  0  0  0  0  0  0  0  0  0  0
   -1.1816    0.6952    0.1664 H   0  0  0  0  0  0  0  0  0  0  0  0
   -1.5232   -0.2674    1.6791 H   0  0  0  0  0  0  0  0  0  0  0  0
    0.9307    1.9475    0.3777 H   0  0  0  0  0  0  0  0  0  0  0  0
    2.1056    1.4460    1.6198 H   0  0  0  0  0  0  0  0  0  0  0  0
    0.6525    2.3616    2.0910 H   0  0  0  0  0  0  0  0  0  0  0  0
  1  2  1  0
  1  4  1  0
  2  3  2  3
  3  5  1  0
  6  7  1  0
  6 13  1  0
  6 14  1  0
  6 15  1  0
  7  8  2  3
  7 16  1  0
  8  9  1  0
  8 17  1  0
  9 10  1  0
 10 12  1  0
 10 11  1  0
 11 18  1  0
 11 19  1  0
 12 20  1  0
 12 21  1  0
 12 22  1  0
M  RAD  1   3   2
M  END
>  <reaction>  (13) 
rmg_rxn_15517

>  <mol_properties>  (13) 
{"1": {"label": "*4", "atom_type": "N3d"}, "2": {"label": "*3", "atom_type": "Cd"}, "9": {"label": "*0", "atom_type": "N3s"}, "10": {"label": "*1", "atom_type": "N3s"}, "17": {"label": "*2", "atom_type": "H0"}}

>  <type>  (13) 
unop_9

>  <geom_source>  (13) 
Heuristics

$$$$

     RDKit          3D

 22 20  0  0  0  0  0  0  0  0999 V2000
   -3.0922   -1.7926   -0.2886 O   0  0  0  0  0  0  0  0  0  0  0  0
   -2.1775   -0.7842   -0.0862 N   0  0  0  0  0  0  0  0  0  0  0  0
   -2.4777    0.2466    0.5473 C   0  0  0  0  0  0  0  0  0  0  0  0
   -3.9522   -1.5787    0.1200 H   0  0  0  0  0  0  0  0  0  0  0  0
   -3.4514    0.4602    0.9943 H   0  0  0  0  0  0  0  0  0  0  0  0
    3.5373   -1.3144    0.1061 C   0  0  0  0  0  0  0  0  0  0  0  0
    2.0733   -1.5738   -0.0220 C   0  0  0  0  0  0  0  0  0  0  0  0
    1.1297   -0.6500    0.0735 C   0  0  0  0  0  0  0  0  0  0  0  0
    1.4447    0.6716    0.3390 O   0  0  0  0  0  0  0  0  0  0  0  0
    0.4749    1.6387   -0.0313 N   0  0  0  0  0  0  0  0  0  0  0  0
   -0.5252    1.8785    0.7974 N   0  0  0  0  0  2  0  0  0  0  0  0
    0.1448    1.6395   -1.4329 C   0  0  0  0  0  0  0  0  0  0  0  0
    3.9329   -1.8086    0.9932 H   0  0  0  0  0  0  0  0  0  0  0  0
    3.7255   -0.2476    0.1860 H   0  0  0  0  0  0  0  0  0  0  0  0
    4.0671   -1.7118   -0.7589 H   0  0  0  0  0  0  0  0  0  0  0  0
    1.7646   -2.5958   -0.1794 H   0  0  0  0  0  0  0  0  0  0  0  0
    0.0732   -0.8727   -0.0161 H   0  0  0  0  0  0  0  0  0  0  0  0
   -1.5603    1.0968    0.6761 H   0  0  0  0  0  0  0  0  0  0  0  0
   -0.2073    1.7973    1.7602 H   0  0  0  0  0  0  0  0  0  0  0  0
   -0.4949    0.7943   -1.7074 H   0  0  0  0  0  0  0  0  0  0  0  0
    1.0719    1.5994   -2.0014 H   0  0  0  0  0  0  0  0  0  0  0  0
   -0.3804    2.5684   -1.6412 H   0  0  0  0  0  0  0  0  0  0  0  0
  1  2  1  0
  1  4  1  0
  2  3  2  3
  3  5  1  0
  3 18  1  0
  6  7  1  0
  6 13  1  0
  6 14  1  0
  6 15  1  0
  7  8  2  3
  7 16  1  0
  8  9  1  0
  8 17  1  0
  9 10  1  0
 10 12  1  0
 10 11  1  0
 11 19  1  0
 12 20  1  0
 12 21  1  0
 12 22  1  0
M  RAD  1  11   2
M  END
>  <reaction>  (14) 
rmg_rxn_15517

>  <mol_properties>  (14) 
{"1": {"label": "*4", "atom_type": "N3d"}, "2": {"label": "*3", "atom_type": "Cd"}, "9": {"label": "*0", "atom_type": "N3s"}, "10": {"label": "*1", "atom_type": "N3s"}, "17": {"label": "*2", "atom_type": "H0"}}

>  <type>  (14) 
unop_10

>  <geom_source>  (14) 
Heuristics

$$$$

     RDKit          3D

 22 20  0  0  0  0  0  0  0  0999 V2000
   -2.3314    1.3925   -2.8610 O   0  0  0  0  0  0  0  0  0  0  0  0
   -2.2515    1.2367   -1.4911 N   0  0  0  0  0  0  0  0  0  0  0  0
   -1.0619    1.0678   -1.1040 C   0  0  0  0  0  3  0  0  0  0  0  0
   -3.2706    1.5097   -3.0166 H   0  0  0  0  0  0  0  0  0  0  0  0
   -0.2182    1.0513   -1.7906 H   0  0  0  0  0  0  0  0  0  0  0  0
    1.1716   -2.6923   -1.0258 C   0  0  0  0  0  0  0  0  0  0  0  0
    1.1716   -2.6923    0.4695 C   0  0  0  0  0  0  0  0  0  0  0  0
    1.1716   -1.6148    1.2422 C   0  0  0  0  0  0  0  0  0  0  0  0
    1.2149   -0.3527    0.7346 O   0  0  0  0  0  0  0  0  0  0  0  0
    0.6315    0.5884    1.6711 N   0  0  0  0  0  0  0  0  0  0  0  0
   -0.7142    0.7643    1.3746 N   0  0  0  0  0  0  0  0  0  0  0  0
    1.3488    1.8246    1.4210 C   0  0  0  0  0  0  0  0  0  0  0  0
    2.1273   -3.0483   -1.4202 H   0  0  0  0  0  0  0  0  0  0  0  0
    0.9994   -1.6922   -1.4220 H   0  0  0  0  0  0  0  0  0  0  0  0
    0.3977   -3.3581   -1.4146 H   0  0  0  0  0  0  0  0  0  0  0  0
    1.2044   -3.6477    0.9792 H   0  0  0  0  0  0  0  0  0  0  0  0
    1.1688   -1.6590    2.3256 H   0  0  0  0  0  0  0  0  0  0  0  0
   -0.8829    0.9115    0.1723 H   0  0  0  0  0  0  0  0  0  0  0  0
   -1.2244   -0.0510    1.6851 H   0  0  0  0  0  0  0  0  0  0  0  0
    1.2294    2.1638    0.3837 H   0  0  0  0  0  0  0  0  0  0  0  0
    2.4043    1.6623    1.6257 H   0  0  0  0  0  0  0  0  0  0  0  0
    0.9513    2.5779    2.0970 H   0  0  0  0  0  0  0  0  0  0  0  0
  1  2  1  0
  1  4  1  0
  2  3  2  3
  3  5  1  0
  6  7  1  0
  6 13  1  0
  6 14  1  0
  6 15  1  0
  7  8  2  3
  7 16  1  0
  8  9  1  0
  8 17  1  0
  9 10  1  0
 10 12  1  0
 10 11  1  0
 11 18  1  0
 11 19  1  0
 12 20  1  0
 12 21  1  0
 12 22  1  0
M  RAD  1   3   2
M  END
>  <reaction>  (15) 
rmg_rxn_15517

>  <mol_properties>  (15) 
{"1": {"label": "*4", "atom_type": "N3d"}, "2": {"label": "*3", "atom_type": "Cd"}, "9": {"label": "*0", "atom_type": "N3s"}, "10": {"label": "*1", "atom_type": "N3s"}, "17": {"label": "*2", "atom_type": "H0"}}

>  <type>  (15) 
unop_11

>  <geom_source>  (15) 
Heuristics

$$$$

     RDKit          3D

 22 20  0  0  0  0  0  0  0  0999 V2000
   -3.0924   -1.7919   -0.2902 O   0  0  0  0  0  0  0  0  0  0  0  0
   -2.1786   -0.7824   -0.0890 N   0  0  0  0  0  0  0  0  0  0  0  0
   -2.4749    0.2412    0.5579 C   0  0  0  0  0  0  0  0  0  0  0  0
   -3.9483   -1.5848    0.1305 H   0  0  0  0  0  0  0  0  0  0  0  0
   -3.4441    0.4470    1.0181 H   0  0  0  0  0  0  0  0  0  0  0  0
    3.5406   -1.3106    0.1125 C   0  0  0  0  0  0  0  0  0  0  0  0
    2.0777   -1.5723   -0.0242 C   0  0  0  0  0  0  0  0  0  0  0  0
    1.1323   -0.6497    0.0662 C   0  0  0  0  0  0  0  0  0  0  0  0
    1.4446    0.6722    0.3329 O   0  0  0  0  0  0  0  0  0  0  0  0
    0.4720    1.6379   -0.0329 N   0  0  0  0  0  0  0  0  0  0  0  0
   -0.5244    1.8765    0.8006 N   0  0  0  0  0  2  0  0  0  0  0  0
    0.1357    1.6397   -1.4331 C   0  0  0  0  0  0  0  0  0  0  0  0
    3.7267   -0.2435    0.1927 H   0  0  0  0  0  0  0  0  0  0  0  0
    4.0762   -1.7079   -0.7490 H   0  0  0  0  0  0  0  0  0  0  0  0
    3.9315   -1.8035    1.0024 H   0  0  0  0  0  0  0  0  0  0  0  0
    1.7715   -2.5946   -0.1838 H   0  0  0  0  0  0  0  0  0  0  0  0
    0.0766   -0.8737   -0.0289 H   0  0  0  0  0  0  0  0  0  0  0  0
   -1.5590    1.0933    0.6836 H   0  0  0  0  0  0  0  0  0  0  0  0
   -0.2018    1.7950    1.7618 H   0  0  0  0  0  0  0  0  0  0  0  0
   -0.3877    2.5702   -1.6390 H   0  0  0  0  0  0  0  0  0  0  0  0
   -0.5081    0.7967   -1.7048 H   0  0  0  0  0  0  0  0  0  0  0  0
    1.0600    1.5968   -2.0057 H   0  0  0  0  0  0  0  0  0  0  0  0
  1  2  1  0
  1  4  1  0
  2  3  2  3
  3  5  1  0
  3 18  1  0
  6  7  1  0
  6 13  1  0
  6 14  1  0
  6 15  1  0
  7  8  2  3
  7 16  1  0
  8  9  1  0
  8 17  1  0
  9 10  1  0
 10 12  1  0
 10 11  1  0
 11 19  1  0
 12 20  1  0
 12 21  1  0
 12 22  1  0
M  RAD  1  11   2
M  END
>  <reaction>  (16) 
rmg_rxn_15517

>  <mol_properties>  (16) 
{"1": {"label": "*4", "atom_type": "N3d"}, "2": {"label": "*3", "atom_type": "Cd"}, "9": {"label": "*0", "atom_type": "N3s"}, "10": {"label": "*1", "atom_type": "N3s"}, "17": {"label": "*2", "atom_type": "H0"}}

>  <type>  (16) 
unop_12

>  <geom_source>  (16) 
Heuristics

$$$$

     RDKit          3D

 22 20  0  0  0  0  0  0  0  0999 V2000
   -2.1464    2.2608   -2.5323 O   0  0  0  0  0  0  0  0  0  0  0  0
   -1.1745    2.0267   -1.5795 N   0  0  0  0  0  0  0  0  0  0  0  0
   -1.2160    0.8427   -1.1439 C   0  0  0  0  0  3  0  0  0  0  0  0
   -2.0048    3.1784   -2.7731 H   0  0  0  0  0  0  0  0  0  0  0  0
   -1.9427    0.1134   -1.4956 H   0  0  0  0  0  0  0  0  0  0  0  0
    1.0175   -2.9175   -1.0658 C   0  0  0  0  0  0  0  0  0  0  0  0
    1.0175   -2.9175    0.4295 C   0  0  0  0  0  0  0  0  0  0  0  0
    1.0175   -1.8400    1.2022 C   0  0  0  0  0  0  0  0  0  0  0  0
    1.0608   -0.5779    0.6946 O   0  0  0  0  0  0  0  0  0  0  0  0
    0.4774    0.3632    1.6312 N   0  0  0  0  0  0  0  0  0  0  0  0
   -0.8682    0.5391    1.3346 N   0  0  0  0  0  0  0  0  0  0  0  0
    1.1948    1.5995    1.3811 C   0  0  0  0  0  0  0  0  0  0  0  0
    1.9732   -3.2735   -1.4602 H   0  0  0  0  0  0  0  0  0  0  0  0
    0.8453   -1.9174   -1.4619 H   0  0  0  0  0  0  0  0  0  0  0  0
    0.2436   -3.5833   -1.4546 H   0  0  0  0  0  0  0  0  0  0  0  0
    1.0503   -3.8729    0.9392 H   0  0  0  0  0  0  0  0  0  0  0  0
    1.0147   -1.8842    2.2856 H   0  0  0  0  0  0  0  0  0  0  0  0
   -1.0369    0.6864    0.1323 H   0  0  0  0  0  0  0  0  0  0  0  0
   -1.3785   -0.2762    1.6451 H   0  0  0  0  0  0  0  0  0  0  0  0
    1.0753    1.9386    0.3437 H   0  0  0  0  0  0  0  0  0  0  0  0
    2.2503    1.4372    1.5857 H   0  0  0  0  0  0  0  0  0  0  0  0
    0.7972    2.3528    2.0570 H   0  0  0  0  0  0  0  0  0  0  0  0
  1  2  1  0
  1  4  1  0
  2  3  2  3
  3  5  1  0
  6  7  1  0
  6 13  1  0
  6 14  1  0
  6 15  1  0
  7  8  2  3
  7 16  1  0
  8  9  1  0
  8 17  1  0
  9 10  1  0
 10 12  1  0
 10 11  1  0
 11 18  1  0
 11 19  1  0
 12 20  1  0
 12 21  1  0
 12 22  1  0
M  RAD  1   3   2
M  END
>  <reaction>  (17) 
rmg_rxn_15517

>  <mol_properties>  (17) 
{"1": {"label": "*4", "atom_type": "N3d"}, "2": {"label": "*3", "atom_type": "Cd"}, "9": {"label": "*0", "atom_type": "N3s"}, "10": {"label": "*1", "atom_type": "N3s"}, "17": {"label": "*2", "atom_type": "H0"}}

>  <type>  (17) 
unop_13

>  <geom_source>  (17) 
Heuristics

$$$$

     RDKit          3D

 22 20  0  0  0  0  0  0  0  0999 V2000
   -3.0937   -1.7912   -0.2902 O   0  0  0  0  0  0  0  0  0  0  0  0
   -2.1795   -0.7819   -0.0895 N   0  0  0  0  0  0  0  0  0  0  0  0
   -2.4749    0.2415    0.5580 C   0  0  0  0  0  0  0  0  0  0  0  0
   -3.9491   -1.5839    0.1314 H   0  0  0  0  0  0  0  0  0  0  0  0
   -3.4436    0.4473    1.0193 H   0  0  0  0  0  0  0  0  0  0  0  0
    3.5407   -1.3107    0.1117 C   0  0  0  0  0  0  0  0  0  0  0  0
    2.0777   -1.5724   -0.0237 C   0  0  0  0  0  0  0  0  0  0  0  0
    1.1324   -0.6500    0.0675 C   0  0  0  0  0  0  0  0  0  0  0  0
    1.4447    0.6720    0.3340 O   0  0  0  0  0  0  0  0  0  0  0  0
    0.4724    1.6378   -0.0331 N   0  0  0  0  0  0  0  0  0  0  0  0
   -0.5244    1.8769    0.7996 N   0  0  0  0  0  2  0  0  0  0  0  0
    0.1371    1.6384   -1.4335 C   0  0  0  0  0  0  0  0  0  0  0  0
    4.0754   -1.7070   -0.7508 H   0  0  0  0  0  0  0  0  0  0  0  0
    3.9326   -1.8044    1.0007 H   0  0  0  0  0  0  0  0  0  0  0  0
    3.7267   -0.2436    0.1927 H   0  0  0  0  0  0  0  0  0  0  0  0
    1.7714   -2.5948   -0.1830 H   0  0  0  0  0  0  0  0  0  0  0  0
    0.0766   -0.8740   -0.0269 H   0  0  0  0  0  0  0  0  0  0  0  0
   -1.5588    1.0935    0.6831 H   0  0  0  0  0  0  0  0  0  0  0  0
   -0.2023    1.7967    1.7611 H   0  0  0  0  0  0  0  0  0  0  0  0
   -0.5048    0.7940   -1.7054 H   0  0  0  0  0  0  0  0  0  0  0  0
    1.0619    1.5971   -2.0054 H   0  0  0  0  0  0  0  0  0  0  0  0
   -0.3879    2.5679   -1.6400 H   0  0  0  0  0  0  0  0  0  0  0  0
  1  2  1  0
  1  4  1  0
  2  3  2  3
  3  5  1  0
  3 18  1  0
  6  7  1  0
  6 13  1  0
  6 14  1  0
  6 15  1  0
  7  8  2  3
  7 16  1  0
  8  9  1  0
  8 17  1  0
  9 10  1  0
 10 12  1  0
 10 11  1  0
 11 19  1  0
 12 20  1  0
 12 21  1  0
 12 22  1  0
M  RAD  1  11   2
M  END
>  <reaction>  (18) 
rmg_rxn_15517

>  <mol_properties>  (18) 
{"1": {"label": "*4", "atom_type": "N3d"}, "2": {"label": "*3", "atom_type": "Cd"}, "9": {"label": "*0", "atom_type": "N3s"}, "10": {"label": "*1", "atom_type": "N3s"}, "17": {"label": "*2", "atom_type": "H0"}}

>  <type>  (18) 
unop_14

>  <geom_source>  (18) 
Heuristics

$$$$

     RDKit          3D

 22 20  0  0  0  0  0  0  0  0999 V2000
   -2.5788    1.8039   -2.5037 O   0  0  0  0  0  0  0  0  0  0  0  0
   -1.6273    2.0006   -1.5225 N   0  0  0  0  0  0  0  0  0  0  0  0
   -1.0970    0.9156   -1.1550 C   0  0  0  0  0  3  0  0  0  0  0  0
   -2.8953    2.6907   -2.6871 H   0  0  0  0  0  0  0  0  0  0  0  0
   -1.3760   -0.0468   -1.5786 H   0  0  0  0  0  0  0  0  0  0  0  0
    1.1366   -2.8445   -1.0768 C   0  0  0  0  0  0  0  0  0  0  0  0
    1.1366   -2.8445    0.4184 C   0  0  0  0  0  0  0  0  0  0  0  0
    1.1366   -1.7670    1.1912 C   0  0  0  0  0  0  0  0  0  0  0  0
    1.1799   -0.5049    0.6836 O   0  0  0  0  0  0  0  0  0  0  0  0
    0.5964    0.4362    1.6201 N   0  0  0  0  0  0  0  0  0  0  0  0
   -0.7492    0.6121    1.3236 N   0  0  0  0  0  0  0  0  0  0  0  0
    1.3138    1.6724    1.3700 C   0  0  0  0  0  0  0  0  0  0  0  0
    2.0922   -3.2005   -1.4712 H   0  0  0  0  0  0  0  0  0  0  0  0
    0.9644   -1.8444   -1.4730 H   0  0  0  0  0  0  0  0  0  0  0  0
    0.3626   -3.5103   -1.4656 H   0  0  0  0  0  0  0  0  0  0  0  0
    1.1694   -3.7999    0.9282 H   0  0  0  0  0  0  0  0  0  0  0  0
    1.1337   -1.8112    2.2745 H   0  0  0  0  0  0  0  0  0  0  0  0
   -0.9179    0.7593    0.1213 H   0  0  0  0  0  0  0  0  0  0  0  0
   -1.2594   -0.2032    1.6340 H   0  0  0  0  0  0  0  0  0  0  0  0
    1.1944    2.0116    0.3326 H   0  0  0  0  0  0  0  0  0  0  0  0
    2.3693    1.5101    1.5747 H   0  0  0  0  0  0  0  0  0  0  0  0
    0.9163    2.4257    2.0459 H   0  0  0  0  0  0  0  0  0  0  0  0
  1  2  1  0
  1  4  1  0
  2  3  2  3
  3  5  1  0
  6  7  1  0
  6 13  1  0
  6 14  1  0
  6 15  1  0
  7  8  2  3
  7 16  1  0
  8  9  1  0
  8 17  1  0
  9 10  1  0
 10 12  1  0
 10 11  1  0
 11 18  1  0
 11 19  1  0
 12 20  1  0
 12 21  1  0
 12 22  1  0
M  RAD  1   3   2
M  END
>  <reaction>  (19) 
rmg_rxn_15517

>  <mol_properties>  (19) 
{"1": {"label": "*4", "atom_type": "N3d"}, "2": {"label": "*3", "atom_type": "Cd"}, "9": {"label": "*0", "atom_type": "N3s"}, "10": {"label": "*1", "atom_type": "N3s"}, "17": {"label": "*2", "atom_type": "H0"}}

>  <type>  (19) 
unop_15

>  <geom_source>  (19) 
Heuristics

$$$$

     RDKit          3D

 22 20  0  0  0  0  0  0  0  0999 V2000
   -3.0928   -1.7919   -0.2904 O   0  0  0  0  0  0  0  0  0  0  0  0
   -2.1776   -0.7841   -0.0867 N   0  0  0  0  0  0  0  0  0  0  0  0
   -2.4761    0.2441    0.5519 C   0  0  0  0  0  0  0  0  0  0  0  0
   -3.9516   -1.5797    0.1214 H   0  0  0  0  0  0  0  0  0  0  0  0
   -3.4485    0.4557    1.0023 H   0  0  0  0  0  0  0  0  0  0  0  0
    3.5377   -1.3152    0.1078 C   0  0  0  0  0  0  0  0  0  0  0  0
    2.0737   -1.5740   -0.0220 C   0  0  0  0  0  0  0  0  0  0  0  0
    1.1306   -0.6494    0.0703 C   0  0  0  0  0  0  0  0  0  0  0  0
    1.4464    0.6725    0.3333 O   0  0  0  0  0  0  0  0  0  0  0  0
    0.4742    1.6391   -0.0313 N   0  0  0  0  0  0  0  0  0  0  0  0
   -0.5235    1.8759    0.8013 N   0  0  0  0  0  2  0  0  0  0  0  0
    0.1397    1.6431   -1.4319 C   0  0  0  0  0  0  0  0  0  0  0  0
    3.9311   -1.8057    0.9979 H   0  0  0  0  0  0  0  0  0  0  0  0
    3.7265   -0.2483    0.1834 H   0  0  0  0  0  0  0  0  0  0  0  0
    4.0689   -1.7169   -0.7544 H   0  0  0  0  0  0  0  0  0  0  0  0
    1.7646   -2.5961   -0.1783 H   0  0  0  0  0  0  0  0  0  0  0  0
    0.0741   -0.8715   -0.0203 H   0  0  0  0  0  0  0  0  0  0  0  0
   -1.5586    1.0940    0.6809 H   0  0  0  0  0  0  0  0  0  0  0  0
   -0.2025    1.7921    1.7629 H   0  0  0  0  0  0  0  0  0  0  0  0
    1.0650    1.6063   -2.0033 H   0  0  0  0  0  0  0  0  0  0  0  0
   -0.3880    2.5715   -1.6359 H   0  0  0  0  0  0  0  0  0  0  0  0
   -0.4993    0.7974   -1.7067 H   0  0  0  0  0  0  0  0  0  0  0  0
  1  2  1  0
  1  4  1  0
  2  3  2  3
  3  5  1  0
  3 18  1  0
  6  7  1  0
  6 13  1  0
  6 14  1  0
  6 15  1  0
  7  8  2  3
  7 16  1  0
  8  9  1  0
  8 17  1  0
  9 10  1  0
 10 12  1  0
 10 11  1  0
 11 19  1  0
 12 20  1  0
 12 21  1  0
 12 22  1  0
M  RAD  1  11   2
M  END
>  <reaction>  (20) 
rmg_rxn_15517

>  <mol_properties>  (20) 
{"1": {"label": "*4", "atom_type": "N3d"}, "2": {"label": "*3", "atom_type": "Cd"}, "9": {"label": "*0", "atom_type": "N3s"}, "10": {"label": "*1", "atom_type": "N3s"}, "17": {"label": "*2", "atom_type": "H0"}}

>  <type>  (20) 
unop_16

>  <geom_source>  (20) 
Heuristics

$$$$

     RDKit          3D

 22 20  0  0  0  0  0  0  0  0999 V2000
   -2.3396    0.4555   -2.7263 O   0  0  0  0  0  0  0  0  0  0  0  0
   -1.3620    0.2755   -1.7677 N   0  0  0  0  0  0  0  0  0  0  0  0
   -1.1646    1.3235   -1.0923 C   0  0  0  0  0  3  0  0  0  0  0  0
   -2.3878   -0.3999   -3.1576 H   0  0  0  0  0  0  0  0  0  0  0  0
   -1.7144    2.2459   -1.2664 H   0  0  0  0  0  0  0  0  0  0  0  0
    1.0690   -2.4366   -1.0141 C   0  0  0  0  0  0  0  0  0  0  0  0
    1.0690   -2.4366    0.4811 C   0  0  0  0  0  0  0  0  0  0  0  0
    1.0690   -1.3591    1.2539 C   0  0  0  0  0  0  0  0  0  0  0  0
    1.1122   -0.0970    0.7463 O   0  0  0  0  0  0  0  0  0  0  0  0
    0.5288    0.8441    1.6828 N   0  0  0  0  0  0  0  0  0  0  0  0
   -0.8168    1.0200    1.3863 N   0  0  0  0  0  0  0  0  0  0  0  0
    1.2462    2.0803    1.4327 C   0  0  0  0  0  0  0  0  0  0  0  0
    2.0246   -2.7926   -1.4085 H   0  0  0  0  0  0  0  0  0  0  0  0
    0.8968   -1.4365   -1.4103 H   0  0  0  0  0  0  0  0  0  0  0  0
    0.2950   -3.1024   -1.4029 H   0  0  0  0  0  0  0  0  0  0  0  0
    1.1018   -3.3920    0.9909 H   0  0  0  0  0  0  0  0  0  0  0  0
    1.0661   -1.4033    2.3372 H   0  0  0  0  0  0  0  0  0  0  0  0
   -0.9855    1.1672    0.1840 H   0  0  0  0  0  0  0  0  0  0  0  0
   -1.3270    0.2047    1.6967 H   0  0  0  0  0  0  0  0  0  0  0  0
    1.1268    2.4195    0.3953 H   0  0  0  0  0  0  0  0  0  0  0  0
    2.3017    1.9180    1.6374 H   0  0  0  0  0  0  0  0  0  0  0  0
    0.8487    2.8336    2.1086 H   0  0  0  0  0  0  0  0  0  0  0  0
  1  2  1  0
  1  4  1  0
  2  3  2  3
  3  5  1  0
  6  7  1  0
  6 13  1  0
  6 14  1  0
  6 15  1  0
  7  8  2  3
  7 16  1  0
  8  9  1  0
  8 17  1  0
  9 10  1  0
 10 12  1  0
 10 11  1  0
 11 18  1  0
 11 19  1  0
 12 20  1  0
 12 21  1  0
 12 22  1  0
M  RAD  1   3   2
M  END
>  <reaction>  (21) 
rmg_rxn_15517

>  <mol_properties>  (21) 
{"1": {"label": "*4", "atom_type": "N3d"}, "2": {"label": "*3", "atom_type": "Cd"}, "9": {"label": "*0", "atom_type": "N3s"}, "10": {"label": "*1", "atom_type": "N3s"}, "17": {"label": "*2", "atom_type": "H0"}}

>  <type>  (21) 
unop_17

>  <geom_source>  (21) 
Heuristics

$$$$

     RDKit          3D

 22 20  0  0  0  0  0  0  0  0999 V2000
   -3.0924    1.7923    0.2895 O   0  0  0  0  0  0  0  0  0  0  0  0
   -2.1785    0.7828    0.0888 N   0  0  0  0  0  0  0  0  0  0  0  0
   -2.4753   -0.2423   -0.5555 C   0  0  0  0  0  0  0  0  0  0  0  0
   -3.9490    1.5837   -0.1292 H   0  0  0  0  0  0  0  0  0  0  0  0
   -3.4453   -0.4495   -1.0136 H   0  0  0  0  0  0  0  0  0  0  0  0
    3.5397    1.3121   -0.1117 C   0  0  0  0  0  0  0  0  0  0  0  0
    2.0765    1.5727    0.0243 C   0  0  0  0  0  0  0  0  0  0  0  0
    1.1316    0.6497   -0.0671 C   0  0  0  0  0  0  0  0  0  0  0  0
    1.4446   -0.6720   -0.3346 O   0  0  0  0  0  0  0  0  0  0  0  0
    0.4728   -1.6384    0.0324 N   0  0  0  0  0  0  0  0  0  0  0  0
   -0.5247   -1.8771   -0.7999 N   0  0  0  0  0  2  0  0  0  0  0  0
    0.1382   -1.6402    1.4329 C   0  0  0  0  0  0  0  0  0  0  0  0
    4.0742    1.7068    0.7516 H   0  0  0  0  0  0  0  0  0  0  0  0
    3.9313    1.8081   -0.9996 H   0  0  0  0  0  0  0  0  0  0  0  0
    3.7264    0.2454   -0.1951 H   0  0  0  0  0  0  0  0  0  0  0  0
    1.7696    2.5948    0.1844 H   0  0  0  0  0  0  0  0  0  0  0  0
    0.0758    0.8731    0.0278 H   0  0  0  0  0  0  0  0  0  0  0  0
   -1.5592   -1.0941   -0.6816 H   0  0  0  0  0  0  0  0  0  0  0  0
   -0.2033   -1.7959   -1.7616 H   0  0  0  0  0  0  0  0  0  0  0  0
   -0.3842   -2.5712    1.6395 H   0  0  0  0  0  0  0  0  0  0  0  0
   -0.5060   -0.7977    1.7053 H   0  0  0  0  0  0  0  0  0  0  0  0
    1.0631   -1.5966    2.0045 H   0  0  0  0  0  0  0  0  0  0  0  0
  1  2  1  0
  1  4  1  0
  2  3  2  3
  3  5  1  0
  3 18  1  0
  6  7  1  0
  6 13  1  0
  6 14  1  0
  6 15  1  0
  7  8  2  3
  7 16  1  0
  8  9  1  0
  8 17  1  0
  9 10  1  0
 10 12  1  0
 10 11  1  0
 11 19  1  0
 12 20  1  0
 12 21  1  0
 12 22  1  0
M  RAD  1  11   2
M  END
>  <reaction>  (22) 
rmg_rxn_15517

>  <mol_properties>  (22) 
{"1": {"label": "*4", "atom_type": "N3d"}, "2": {"label": "*3", "atom_type": "Cd"}, "9": {"label": "*0", "atom_type": "N3s"}, "10": {"label": "*1", "atom_type": "N3s"}, "17": {"label": "*2", "atom_type": "H0"}}

>  <type>  (22) 
unop_18

>  <geom_source>  (22) 
Heuristics

$$$$

     RDKit          3D

 22 20  0  0  0  0  0  0  0  0999 V2000
   -0.9464    1.9676   -2.9353 O   0  0  0  0  0  0  0  0  0  0  0  0
   -0.5305    1.4890   -1.7085 N   0  0  0  0  0  0  0  0  0  0  0  0
   -1.4749    0.9503   -1.0672 C   0  0  0  0  0  3  0  0  0  0  0  0
   -0.1472    2.3435   -3.3095 H   0  0  0  0  0  0  0  0  0  0  0  0
   -2.4877    0.8848   -1.4591 H   0  0  0  0  0  0  0  0  0  0  0  0
    0.7586   -2.8098   -0.9891 C   0  0  0  0  0  0  0  0  0  0  0  0
    0.7586   -2.8098    0.5062 C   0  0  0  0  0  0  0  0  0  0  0  0
    0.7586   -1.7323    1.2790 C   0  0  0  0  0  0  0  0  0  0  0  0
    0.8019   -0.4702    0.7714 O   0  0  0  0  0  0  0  0  0  0  0  0
    0.2185    0.4709    1.7079 N   0  0  0  0  0  0  0  0  0  0  0  0
   -1.1271    0.6468    1.4114 N   0  0  0  0  0  0  0  0  0  0  0  0
    0.9359    1.7071    1.4578 C   0  0  0  0  0  0  0  0  0  0  0  0
    1.7143   -3.1658   -1.3834 H   0  0  0  0  0  0  0  0  0  0  0  0
    0.5864   -1.8097   -1.3852 H   0  0  0  0  0  0  0  0  0  0  0  0
   -0.0153   -3.4756   -1.3778 H   0  0  0  0  0  0  0  0  0  0  0  0
    0.7914   -3.7652    1.0159 H   0  0  0  0  0  0  0  0  0  0  0  0
    0.7558   -1.7765    2.3623 H   0  0  0  0  0  0  0  0  0  0  0  0
   -1.2959    0.7940    0.2091 H   0  0  0  0  0  0  0  0  0  0  0  0
   -1.6374   -0.1685    1.7218 H   0  0  0  0  0  0  0  0  0  0  0  0
    0.8164    2.0463    0.4204 H   0  0  0  0  0  0  0  0  0  0  0  0
    1.9913    1.5448    1.6625 H   0  0  0  0  0  0  0  0  0  0  0  0
    0.5383    2.4604    2.1337 H   0  0  0  0  0  0  0  0  0  0  0  0
  1  2  1  0
  1  4  1  0
  2  3  2  3
  3  5  1  0
  6  7  1  0
  6 13  1  0
  6 14  1  0
  6 15  1  0
  7  8  2  3
  7 16  1  0
  8  9  1  0
  8 17  1  0
  9 10  1  0
 10 12  1  0
 10 11  1  0
 11 18  1  0
 11 19  1  0
 12 20  1  0
 12 21  1  0
 12 22  1  0
M  RAD  1   3   2
M  END
>  <reaction>  (23) 
rmg_rxn_15517

>  <mol_properties>  (23) 
{"1": {"label": "*4", "atom_type": "N3d"}, "2": {"label": "*3", "atom_type": "Cd"}, "9": {"label": "*0", "atom_type": "N3s"}, "10": {"label": "*1", "atom_type": "N3s"}, "17": {"label": "*2", "atom_type": "H0"}}

>  <type>  (23) 
unop_19

>  <geom_source>  (23) 
Heuristics

$$$$

     RDKit          3D

 22 20  0  0  0  0  0  0  0  0999 V2000
   -1.7249    0.2728   -2.9273 O   0  0  0  0  0  0  0  0  0  0  0  0
   -0.9342    0.3893   -1.8011 N   0  0  0  0  0  0  0  0  0  0  0  0
   -1.3086    1.3382   -1.0576 C   0  0  0  0  0  3  0  0  0  0  0  0
   -1.3382   -0.4705   -3.3942 H   0  0  0  0  0  0  0  0  0  0  0  0
   -2.1578    1.9735   -1.3001 H   0  0  0  0  0  0  0  0  0  0  0  0
    0.9249   -2.4219   -0.9795 C   0  0  0  0  0  0  0  0  0  0  0  0
    0.9249   -2.4219    0.5158 C   0  0  0  0  0  0  0  0  0  0  0  0
    0.9249   -1.3444    1.2885 C   0  0  0  0  0  0  0  0  0  0  0  0
    0.9682   -0.0824    0.7810 O   0  0  0  0  0  0  0  0  0  0  0  0
    0.3848    0.8588    1.7175 N   0  0  0  0  0  0  0  0  0  0  0  0
   -0.9608    1.0346    1.4210 N   0  0  0  0  0  0  0  0  0  0  0  0
    1.1022    2.0950    1.4674 C   0  0  0  0  0  0  0  0  0  0  0  0
    1.8806   -2.7779   -1.3738 H   0  0  0  0  0  0  0  0  0  0  0  0
    0.7528   -1.4218   -1.3756 H   0  0  0  0  0  0  0  0  0  0  0  0
    0.1510   -3.0878   -1.3682 H   0  0  0  0  0  0  0  0  0  0  0  0
    0.9578   -3.3773    1.0255 H   0  0  0  0  0  0  0  0  0  0  0  0
    0.9221   -1.3886    2.3719 H   0  0  0  0  0  0  0  0  0  0  0  0
   -1.1295    1.1819    0.2187 H   0  0  0  0  0  0  0  0  0  0  0  0
   -1.4711    0.2193    1.7314 H   0  0  0  0  0  0  0  0  0  0  0  0
    0.9827    2.4342    0.4300 H   0  0  0  0  0  0  0  0  0  0  0  0
    2.1577    1.9327    1.6721 H   0  0  0  0  0  0  0  0  0  0  0  0
    0.7046    2.8483    2.1433 H   0  0  0  0  0  0  0  0  0  0  0  0
  1  2  1  0
  1  4  1  0
  2  3  2  3
  3  5  1  0
  6  7  1  0
  6 13  1  0
  6 14  1  0
  6 15  1  0
  7  8  2  3
  7 16  1  0
  8  9  1  0
  8 17  1  0
  9 10  1  0
 10 12  1  0
 10 11  1  0
 11 18  1  0
 11 19  1  0
 12 20  1  0
 12 21  1  0
 12 22  1  0
M  RAD  1   3   2
M  END
>  <reaction>  (24) 
rmg_rxn_15517

>  <mol_properties>  (24) 
{"1": {"label": "*4", "atom_type": "N3d"}, "2": {"label": "*3", "atom_type": "Cd"}, "9": {"label": "*0", "atom_type": "N3s"}, "10": {"label": "*1", "atom_type": "N3s"}, "17": {"label": "*2", "atom_type": "H0"}}

>  <type>  (24) 
unop_20

>  <geom_source>  (24) 
Heuristics

$$$$

     RDKit          3D

 22 20  0  0  0  0  0  0  0  0999 V2000
   -2.5849    1.3043   -2.6720 O   0  0  0  0  0  0  0  0  0  0  0  0
   -2.0299    1.7364   -1.4835 N   0  0  0  0  0  0  0  0  0  0  0  0
   -1.0490    1.0230   -1.1338 C   0  0  0  0  0  3  0  0  0  0  0  0
   -3.3047    1.9212   -2.8181 H   0  0  0  0  0  0  0  0  0  0  0  0
   -0.7031    0.1736   -1.7190 H   0  0  0  0  0  0  0  0  0  0  0  0
    1.1845   -2.7371   -1.0556 C   0  0  0  0  0  0  0  0  0  0  0  0
    1.1845   -2.7371    0.4397 C   0  0  0  0  0  0  0  0  0  0  0  0
    1.1845   -1.6596    1.2124 C   0  0  0  0  0  0  0  0  0  0  0  0
    1.2278   -0.3976    0.7048 O   0  0  0  0  0  0  0  0  0  0  0  0
    0.6444    0.5435    1.6413 N   0  0  0  0  0  0  0  0  0  0  0  0
   -0.7012    0.7194    1.3448 N   0  0  0  0  0  0  0  0  0  0  0  0
    1.3618    1.7798    1.3912 C   0  0  0  0  0  0  0  0  0  0  0  0
    2.1402   -3.0932   -1.4500 H   0  0  0  0  0  0  0  0  0  0  0  0
    1.0124   -1.7371   -1.4518 H   0  0  0  0  0  0  0  0  0  0  0  0
    0.4106   -3.4030   -1.4444 H   0  0  0  0  0  0  0  0  0  0  0  0
    1.2174   -3.6925    0.9494 H   0  0  0  0  0  0  0  0  0  0  0  0
    1.1817   -1.7039    2.2958 H   0  0  0  0  0  0  0  0  0  0  0  0
   -0.8699    0.8667    0.1425 H   0  0  0  0  0  0  0  0  0  0  0  0
   -1.2115   -0.0959    1.6552 H   0  0  0  0  0  0  0  0  0  0  0  0
    1.2423    2.1189    0.3538 H   0  0  0  0  0  0  0  0  0  0  0  0
    2.4173    1.6175    1.5959 H   0  0  0  0  0  0  0  0  0  0  0  0
    0.9642    2.5331    2.0671 H   0  0  0  0  0  0  0  0  0  0  0  0
  1  2  1  0
  1  4  1  0
  2  3  2  3
  3  5  1  0
  6  7  1  0
  6 13  1  0
  6 14  1  0
  6 15  1  0
  7  8  2  3
  7 16  1  0
  8  9  1  0
  8 17  1  0
  9 10  1  0
 10 12  1  0
 10 11  1  0
 11 18  1  0
 11 19  1  0
 12 20  1  0
 12 21  1  0
 12 22  1  0
M  RAD  1   3   2
M  END
>  <reaction>  (25) 
rmg_rxn_15517

>  <mol_properties>  (25) 
{"1": {"label": "*4", "atom_type": "N3d"}, "2": {"label": "*3", "atom_type": "Cd"}, "9": {"label": "*0", "atom_type": "N3s"}, "10": {"label": "*1", "atom_type": "N3s"}, "17": {"label": "*2", "atom_type": "H0"}}

>  <type>  (25) 
unop_21

>  <geom_source>  (25) 
Heuristics

$$$$

     RDKit          3D

 22 20  0  0  0  0  0  0  0  0999 V2000
   -0.7740    1.2511   -3.0968 O   0  0  0  0  0  0  0  0  0  0  0  0
   -0.4742    1.0754   -1.7603 N   0  0  0  0  0  0  0  0  0  0  0  0
   -1.5079    1.1083   -1.0364 C   0  0  0  0  0  3  0  0  0  0  0  0
    0.0833    1.2053   -3.5245 H   0  0  0  0  0  0  0  0  0  0  0  0
   -2.5052    1.2589   -1.4443 H   0  0  0  0  0  0  0  0  0  0  0  0
    0.7256   -2.6518   -0.9583 C   0  0  0  0  0  0  0  0  0  0  0  0
    0.7256   -2.6518    0.5370 C   0  0  0  0  0  0  0  0  0  0  0  0
    0.7256   -1.5743    1.3097 C   0  0  0  0  0  0  0  0  0  0  0  0
    0.7689   -0.3123    0.8021 O   0  0  0  0  0  0  0  0  0  0  0  0
    0.1855    0.6289    1.7387 N   0  0  0  0  0  0  0  0  0  0  0  0
   -1.1601    0.8047    1.4422 N   0  0  0  0  0  0  0  0  0  0  0  0
    0.9029    1.8651    1.4886 C   0  0  0  0  0  0  0  0  0  0  0  0
    1.6813   -3.0078   -1.3526 H   0  0  0  0  0  0  0  0  0  0  0  0
    0.5535   -1.6517   -1.3544 H   0  0  0  0  0  0  0  0  0  0  0  0
   -0.0483   -3.3177   -1.3471 H   0  0  0  0  0  0  0  0  0  0  0  0
    0.7585   -3.6072    1.0467 H   0  0  0  0  0  0  0  0  0  0  0  0
    0.7228   -1.6185    2.3931 H   0  0  0  0  0  0  0  0  0  0  0  0
   -1.3288    0.9520    0.2398 H   0  0  0  0  0  0  0  0  0  0  0  0
   -1.6704   -0.0106    1.7526 H   0  0  0  0  0  0  0  0  0  0  0  0
    0.7835    2.2043    0.4512 H   0  0  0  0  0  0  0  0  0  0  0  0
    1.9584    1.7028    1.6933 H   0  0  0  0  0  0  0  0  0  0  0  0
    0.5054    2.6184    2.1645 H   0  0  0  0  0  0  0  0  0  0  0  0
  1  2  1  0
  1  4  1  0
  2  3  2  3
  3  5  1  0
  6  7  1  0
  6 13  1  0
  6 14  1  0
  6 15  1  0
  7  8  2  3
  7 16  1  0
  8  9  1  0
  8 17  1  0
  9 10  1  0
 10 12  1  0
 10 11  1  0
 11 18  1  0
 11 19  1  0
 12 20  1  0
 12 21  1  0
 12 22  1  0
M  RAD  1   3   2
M  END
>  <reaction>  (26) 
rmg_rxn_15517

>  <mol_properties>  (26) 
{"1": {"label": "*4", "atom_type": "N3d"}, "2": {"label": "*3", "atom_type": "Cd"}, "9": {"label": "*0", "atom_type": "N3s"}, "10": {"label": "*1", "atom_type": "N3s"}, "17": {"label": "*2", "atom_type": "H0"}}

>  <type>  (26) 
unop_22

>  <geom_source>  (26) 
Heuristics

$$$$

     RDKit          3D

 22 20  0  0  0  0  0  0  0  0999 V2000
   -3.0940   -1.7916   -0.2890 O   0  0  0  0  0  0  0  0  0  0  0  0
   -2.1791   -0.7832   -0.0874 N   0  0  0  0  0  0  0  0  0  0  0  0
   -2.4772    0.2453    0.5508 C   0  0  0  0  0  0  0  0  0  0  0  0
   -3.9522   -1.5797    0.1243 H   0  0  0  0  0  0  0  0  0  0  0  0
   -3.4490    0.4565    1.0029 H   0  0  0  0  0  0  0  0  0  0  0  0
    3.5392   -1.3125    0.1080 C   0  0  0  0  0  0  0  0  0  0  0  0
    2.0756   -1.5733   -0.0226 C   0  0  0  0  0  0  0  0  0  0  0  0
    1.1311   -0.6504    0.0716 C   0  0  0  0  0  0  0  0  0  0  0  0
    1.4448    0.6713    0.3377 O   0  0  0  0  0  0  0  0  0  0  0  0
    0.4742    1.6379   -0.0319 N   0  0  0  0  0  0  0  0  0  0  0  0
   -0.5250    1.8778    0.7979 N   0  0  0  0  0  2  0  0  0  0  0  0
    0.1429    1.6386   -1.4332 C   0  0  0  0  0  0  0  0  0  0  0  0
    3.7262   -0.2456    0.1885 H   0  0  0  0  0  0  0  0  0  0  0  0
    4.0709   -1.7092   -0.7562 H   0  0  0  0  0  0  0  0  0  0  0  0
    3.9337   -1.8065    0.9957 H   0  0  0  0  0  0  0  0  0  0  0  0
    1.7682   -2.5955   -0.1810 H   0  0  0  0  0  0  0  0  0  0  0  0
    0.0749   -0.8738   -0.0200 H   0  0  0  0  0  0  0  0  0  0  0  0
   -1.5600    1.0957    0.6782 H   0  0  0  0  0  0  0  0  0  0  0  0
   -0.2058    1.7970    1.7603 H   0  0  0  0  0  0  0  0  0  0  0  0
   -0.4959    0.7926   -1.7076 H   0  0  0  0  0  0  0  0  0  0  0  0
    1.0695    1.6001   -2.0025 H   0  0  0  0  0  0  0  0  0  0  0  0
   -0.3839    2.5668   -1.6408 H   0  0  0  0  0  0  0  0  0  0  0  0
  1  2  1  0
  1  4  1  0
  2  3  2  3
  3  5  1  0
  3 18  1  0
  6  7  1  0
  6 13  1  0
  6 14  1  0
  6 15  1  0
  7  8  2  3
  7 16  1  0
  8  9  1  0
  8 17  1  0
  9 10  1  0
 10 12  1  0
 10 11  1  0
 11 19  1  0
 12 20  1  0
 12 21  1  0
 12 22  1  0
M  RAD  1  11   2
M  END
>  <reaction>  (27) 
rmg_rxn_15517

>  <mol_properties>  (27) 
{"1": {"label": "*4", "atom_type": "N3d"}, "2": {"label": "*3", "atom_type": "Cd"}, "9": {"label": "*0", "atom_type": "N3s"}, "10": {"label": "*1", "atom_type": "N3s"}, "17": {"label": "*2", "atom_type": "H0"}}

>  <type>  (27) 
unop_23

>  <geom_source>  (27) 
Heuristics

$$$$

     RDKit          3D

 22 20  0  0  0  0  0  0  0  0999 V2000
   -1.0961    0.5690   -3.0856 O   0  0  0  0  0  0  0  0  0  0  0  0
   -0.6169    0.6814   -1.7953 N   0  0  0  0  0  0  0  0  0  0  0  0
   -1.4419    1.2587   -1.0340 C   0  0  0  0  0  3  0  0  0  0  0  0
   -0.3850    0.1214   -3.5483 H   0  0  0  0  0  0  0  0  0  0  0  0
   -2.4095    1.6156   -1.3805 H   0  0  0  0  0  0  0  0  0  0  0  0
    0.7916   -2.5014   -0.9559 C   0  0  0  0  0  0  0  0  0  0  0  0
    0.7916   -2.5014    0.5394 C   0  0  0  0  0  0  0  0  0  0  0  0
    0.7916   -1.4239    1.3121 C   0  0  0  0  0  0  0  0  0  0  0  0
    0.8349   -0.1618    0.8045 O   0  0  0  0  0  0  0  0  0  0  0  0
    0.2515    0.7793    1.7410 N   0  0  0  0  0  0  0  0  0  0  0  0
   -1.0941    0.9552    1.4445 N   0  0  0  0  0  0  0  0  0  0  0  0
    0.9689    2.0155    1.4909 C   0  0  0  0  0  0  0  0  0  0  0  0
    1.7473   -2.8574   -1.3503 H   0  0  0  0  0  0  0  0  0  0  0  0
    0.6194   -1.5013   -1.3520 H   0  0  0  0  0  0  0  0  0  0  0  0
    0.0177   -3.1672   -1.3447 H   0  0  0  0  0  0  0  0  0  0  0  0
    0.8245   -3.4568    1.0491 H   0  0  0  0  0  0  0  0  0  0  0  0
    0.7888   -1.4681    2.3955 H   0  0  0  0  0  0  0  0  0  0  0  0
   -1.2629    1.1024    0.2422 H   0  0  0  0  0  0  0  0  0  0  0  0
   -1.6044    0.1399    1.7550 H   0  0  0  0  0  0  0  0  0  0  0  0
    0.8494    2.3547    0.4536 H   0  0  0  0  0  0  0  0  0  0  0  0
    2.0244    1.8532    1.6956 H   0  0  0  0  0  0  0  0  0  0  0  0
    0.5713    2.7688    2.1669 H   0  0  0  0  0  0  0  0  0  0  0  0
  1  2  1  0
  1  4  1  0
  2  3  2  3
  3  5  1  0
  6  7  1  0
  6 13  1  0
  6 14  1  0
  6 15  1  0
  7  8  2  3
  7 16  1  0
  8  9  1  0
  8 17  1  0
  9 10  1  0
 10 12  1  0
 10 11  1  0
 11 18  1  0
 11 19  1  0
 12 20  1  0
 12 21  1  0
 12 22  1  0
M  RAD  1   3   2
M  END
>  <reaction>  (28) 
rmg_rxn_15517

>  <mol_properties>  (28) 
{"1": {"label": "*4", "atom_type": "N3d"}, "2": {"label": "*3", "atom_type": "Cd"}, "9": {"label": "*0", "atom_type": "N3s"}, "10": {"label": "*1", "atom_type": "N3s"}, "17": {"label": "*2", "atom_type": "H0"}}

>  <type>  (28) 
unop_24

>  <geom_source>  (28) 
gaussian_log

$$$$
