
     RDKit          3D

 14 13  0  0  0  0  0  0  0  0999 V2000
    1.8106   -0.5953    0.5577 C   0  0  0  0  0  0  0  0  0  0  0  0
    0.5197    0.2064    0.6554 C   0  0  0  0  0  0  0  0  0  0  0  0
   -0.5206   -0.2080   -0.3788 C   0  0  0  0  0  0  0  0  0  0  0  0
   -1.8114    0.5937   -0.2812 C   0  0  0  0  0  0  0  0  0  0  0  0
    2.2725   -0.4752   -0.4251 H   0  0  0  0  0  0  0  0  0  0  0  0
    1.6214   -1.6612    0.7052 H   0  0  0  0  0  0  0  0  0  0  0  0
    2.5364   -0.2784    1.3084 H   0  0  0  0  0  0  0  0  0  0  0  0
    0.0930    0.0950    1.6574 H   0  0  0  0  0  0  0  0  0  0  0  0
    0.7393    1.2723    0.5354 H   0  0  0  0  0  0  0  0  0  0  0  0
   -0.7402   -1.2739   -0.2588 H   0  0  0  0  0  0  0  0  0  0  0  0
   -0.0938   -0.0965   -1.3808 H   0  0  0  0  0  0  0  0  0  0  0  0
   -1.6222    1.6596   -0.4287 H   0  0  0  0  0  0  0  0  0  0  0  0
   -2.2734    0.4736    0.7017 H   0  0  0  0  0  0  0  0  0  0  0  0
   -2.5373    0.2768   -1.0318 H   0  0  0  0  0  0  0  0  0  0  0  0
  1  2  1  0
  1  5  1  0
  1  6  1  0
  1  7  1  0
  2  3  1  0
  2  8  1  0
  2  9  1  0
  3  4  1  0
  3 10  1  0
  3 11  1  0
  4 12  1  0
  4 13  1  0
  4 14  1  0
M  END
>  <reaction>  (1) 
rmg_rxn_15408

>  <mol_properties>  (1) 
{"3": {"label": "donator", "atom_type": "Cs"}, "12": {"label": "d_hydrogen", "atom_type": "H0"}}

>  <type>  (1) 
r1h

$$$$

     RDKit          3D

  5  4  0  0  0  0  0  0  0  0999 V2000
    0.8934    0.3742    0.4948 O   0  0  0  0  0  0  0  0  0  0  0  0
    0.1582   -0.1610   -0.5904 N   0  0  0  0  0  0  0  0  0  0  0  0
   -1.0297   -0.3739   -0.4689 C   0  0  0  0  0  3  0  0  0  0  0  0
    1.7805    0.4382    0.1306 H   0  0  0  0  0  0  0  0  0  0  0  0
   -1.8023   -0.2775    0.2859 H   0  0  0  0  0  0  0  0  0  0  0  0
  1  2  1  0
  1  4  1  0
  2  3  2  3
  3  5  1  0
M  RAD  1   3   2
M  END
>  <reaction>  (2) 
rmg_rxn_15408

>  <mol_properties>  (2) 
{"2": {"label": "acceptor", "atom_type": "Cd"}}

>  <type>  (2) 
r2

$$$$

     RDKit          3D

  6  5  0  0  0  0  0  0  0  0999 V2000
    1.2314    0.0428    0.5088 O   0  0  0  0  0  0  0  0  0  0  0  0
    0.2987    0.2341   -0.4915 N   0  0  0  0  0  0  0  0  0  0  0  0
   -0.8599   -0.1122   -0.1290 C   0  0  0  0  0  0  0  0  0  0  0  0
    2.0507    0.3401    0.1082 H   0  0  0  0  0  0  0  0  0  0  0  0
   -1.0700   -0.5112    0.8610 H   0  0  0  0  0  0  0  0  0  0  0  0
   -1.6509    0.0064   -0.8574 H   0  0  0  0  0  0  0  0  0  0  0  0
  1  2  1  0
  1  4  1  0
  2  3  2  3
  3  5  1  0
  3  6  1  0
M  END
>  <reaction>  (3) 
rmg_rxn_15408

>  <mol_properties>  (3) 
{"2": {"label": "acceptor", "atom_type": "Cd"}, "5": {"label": "a_hydrogen", "atom_type": "H0"}}

>  <type>  (3) 
r2h

$$$$

     RDKit          3D

 19 17  0  0  0  0  0  0  0  0999 V2000
    3.0103    0.8374    0.2805 O   0  0  0  0  0  0  0  0  0  0  0  0
    1.7413    0.2437    0.3147 N   0  0  0  0  0  0  0  0  0  0  0  0
    1.6662   -0.8269   -0.3158 C   0  0  0  0  0  3  0  0  0  0  0  0
    2.8867    1.6326    0.8037 H   0  0  0  0  0  0  0  0  0  0  0  0
    2.4623   -1.3271   -0.8673 H   0  0  0  0  0  0  0  0  0  0  0  0
   -2.6110    1.5743    0.0218 C   0  0  0  0  0  0  0  0  0  0  0  0
   -1.8131    0.4061   -0.5401 C   0  0  0  0  0  0  0  0  0  0  0  0
   -1.5967   -0.7054    0.4807 C   0  0  0  0  0  0  0  0  0  0  0  0
   -0.7909   -1.8605   -0.0553 C   0  0  0  0  0  0  0  0  0  0  0  0
   -3.5972    1.2501    0.3632 H   0  0  0  0  0  0  0  0  0  0  0  0
   -2.7570    2.3541   -0.7273 H   0  0  0  0  0  0  0  0  0  0  0  0
   -2.0956    2.0223    0.8744 H   0  0  0  0  0  0  0  0  0  0  0  0
   -2.3271   -0.0056   -1.4147 H   0  0  0  0  0  0  0  0  0  0  0  0
   -0.8395    0.7607   -0.8882 H   0  0  0  0  0  0  0  0  0  0  0  0
   -2.5709   -1.0735    0.8273 H   0  0  0  0  0  0  0  0  0  0  0  0
   -1.0955   -0.2946    1.3629 H   0  0  0  0  0  0  0  0  0  0  0  0
   -0.6471   -2.6814    0.6458 H   0  0  0  0  0  0  0  0  0  0  0  0
    0.3942   -1.4230   -0.2491 H   0  0  0  0  0  0  0  0  0  0  0  0
   -1.1092   -2.2223   -1.0337 H   0  0  0  0  0  0  0  0  0  0  0  0
  1  2  1  0
  1  4  1  0
  2  3  2  3
  3  5  1  0
  6  7  1  0
  6 10  1  0
  6 11  1  0
  6 12  1  0
  7  8  1  0
  7 13  1  0
  7 14  1  0
  8  9  1  0
  8 15  1  0
  8 16  1  0
  9 17  1  0
  9 18  1  0
  9 19  1  0
M  RAD  1   3   2
M  END
>  <reaction>  (4) 
rmg_rxn_15408

>  <mol_properties>  (4) 
{"1": {"label": "*4", "atom_type": "N3d"}, "2": {"label": "*3", "atom_type": "Cd"}, "7": {"label": "*0", "atom_type": "Cs"}, "8": {"label": "*1", "atom_type": "Cs"}, "17": {"label": "*2", "atom_type": "H0"}}

>  <type>  (4) 
ts

$$$$

     RDKit          3D

 19 17  0  0  0  0  0  0  0  0999 V2000
   -3.0251    0.9245    0.0797 O   0  0  0  0  0  0  0  0  0  0  0  0
   -1.7607    0.2961    0.0613 N   0  0  0  0  0  0  0  0  0  0  0  0
   -1.6680   -0.9157   -0.1616 C   0  0  0  0  0  3  0  0  0  0  0  0
   -2.8293    1.8514    0.2737 H   0  0  0  0  0  0  0  0  0  0  0  0
   -2.4395   -1.6489   -0.3610 H   0  0  0  0  0  0  0  0  0  0  0  0
    2.6194    1.5609    0.0711 C   0  0  0  0  0  0  0  0  0  0  0  0
    1.7147    0.4617   -0.4714 C   0  0  0  0  0  0  0  0  0  0  0  0
    1.6759   -0.7498    0.4583 C   0  0  0  0  0  0  0  0  0  0  0  0
    0.7870   -1.8433   -0.0663 C   0  0  0  0  0  0  0  0  0  0  0  0
    3.6391    1.1980    0.1857 H   0  0  0  0  0  0  0  0  0  0  0  0
    2.2661    1.8985    1.0429 H   0  0  0  0  0  0  0  0  0  0  0  0
    2.6336    2.4135   -0.6036 H   0  0  0  0  0  0  0  0  0  0  0  0
    0.7003    0.8459   -0.5878 H   0  0  0  0  0  0  0  0  0  0  0  0
    2.0721    0.1495   -1.4554 H   0  0  0  0  0  0  0  0  0  0  0  0
    1.3276   -0.4373    1.4457 H   0  0  0  0  0  0  0  0  0  0  0  0
    2.6958   -1.1368    0.5830 H   0  0  0  0  0  0  0  0  0  0  0  0
    1.0160   -2.1374   -1.0849 H   0  0  0  0  0  0  0  0  0  0  0  0
   -0.4342   -1.3714   -0.1236 H   0  0  0  0  0  0  0  0  0  0  0  0
    0.7184   -2.7024    0.5921 H   0  0  0  0  0  0  0  0  0  0  0  0
  1  2  1  0
  1  4  1  0
  2  3  2  3
  3  5  1  0
  6  7  1  0
  6 10  1  0
  6 11  1  0
  6 12  1  0
  7  8  1  0
  7 13  1  0
  7 14  1  0
  8  9  1  0
  8 15  1  0
  8 16  1  0
  9 17  1  0
  9 18  1  0
  9 19  1  0
M  RAD  1   3   2
M  END
>  <reaction>  (5) 
rmg_rxn_15408

>  <mol_properties>  (5) 
{"1": {"label": "*4", "atom_type": "N3d"}, "2": {"label": "*3", "atom_type": "Cd"}, "7": {"label": "*0", "atom_type": "Cs"}, "8": {"label": "*1", "atom_type": "Cs"}, "17": {"label": "*2", "atom_type": "H0"}}

>  <type>  (5) 
unop_1

>  <geom_source>  (5) 
crest_best.xyz

$$$$

     RDKit          3D

 19 17  0  0  0  0  0  0  0  0999 V2000
   -1.7334   -1.0153    2.9898 O   0  0  0  0  0  0  0  0  0  0  0  0
   -0.9066   -0.9960    1.8839 N   0  0  0  0  0  0  0  0  0  0  0  0
   -1.1174    0.0125    1.1545 C   0  0  0  0  0  0  0  0  0  0  0  0
   -1.4731   -1.8170    3.4477 H   0  0  0  0  0  0  0  0  0  0  0  0
   -1.8684    0.7625    1.3933 H   0  0  0  0  0  0  0  0  0  0  0  0
    0.9879   -0.1639   -3.4229 C   0  0  0  0  0  0  0  0  0  0  0  0
    0.9879   -0.1639   -1.9002 C   0  0  0  0  0  0  0  0  0  0  0  0
    0.9879    1.2385   -1.3028 C   0  0  0  0  0  0  0  0  0  0  0  0
    0.9879    1.2385    0.2199 C   0  0  0  0  0  3  0  0  0  0  0  0
    1.8694    0.3494   -3.8143 H   0  0  0  0  0  0  0  0  0  0  0  0
    0.1064    0.3494   -3.8143 H   0  0  0  0  0  0  0  0  0  0  0  0
    0.9879   -1.1790   -3.8233 H   0  0  0  0  0  0  0  0  0  0  0  0
    0.1128   -0.7098   -1.5329 H   0  0  0  0  0  0  0  0  0  0  0  0
    1.8629   -0.7098   -1.5329 H   0  0  0  0  0  0  0  0  0  0  0  0
    0.1128    1.7843   -1.6702 H   0  0  0  0  0  0  0  0  0  0  0  0
    1.8629    1.7843   -1.6702 H   0  0  0  0  0  0  0  0  0  0  0  0
    1.8694    0.7251    0.6112 H   0  0  0  0  0  0  0  0  0  0  0  0
   -0.0700    0.6224    0.6895 H   0  0  0  0  0  0  0  0  0  0  0  0
    0.9879    2.2536    0.6202 H   0  0  0  0  0  0  0  0  0  0  0  0
  1  2  1  0
  1  4  1  0
  2  3  2  3
  3  5  1  0
  3 18  1  0
  6  7  1  0
  6 10  1  0
  6 11  1  0
  6 12  1  0
  7  8  1  0
  7 13  1  0
  7 14  1  0
  8  9  1  0
  8 15  1  0
  8 16  1  0
  9 17  1  0
  9 19  1  0
M  RAD  1   9   2
M  END
>  <reaction>  (6) 
rmg_rxn_15408

>  <mol_properties>  (6) 
{"1": {"label": "*4", "atom_type": "N3d"}, "2": {"label": "*3", "atom_type": "Cd"}, "7": {"label": "*0", "atom_type": "Cs"}, "8": {"label": "*1", "atom_type": "Cs"}, "17": {"label": "*2", "atom_type": "H0"}}

>  <type>  (6) 
unop_2

>  <geom_source>  (6) 
Heuristics

$$$$

     RDKit          3D

 19 17  0  0  0  0  0  0  0  0999 V2000
    3.0239   -0.9240   -0.0792 O   0  0  0  0  0  0  0  0  0  0  0  0
    1.7587   -0.2976   -0.0506 N   0  0  0  0  0  0  0  0  0  0  0  0
    1.6682    0.9193    0.1441 C   0  0  0  0  0  3  0  0  0  0  0  0
    2.8263   -1.8558   -0.2462 H   0  0  0  0  0  0  0  0  0  0  0  0
    2.4427    1.6578    0.3099 H   0  0  0  0  0  0  0  0  0  0  0  0
   -2.6160   -1.5627   -0.0762 C   0  0  0  0  0  0  0  0  0  0  0  0
   -1.7097   -0.4658    0.4683 C   0  0  0  0  0  0  0  0  0  0  0  0
   -1.6796    0.7529   -0.4524 C   0  0  0  0  0  0  0  0  0  0  0  0
   -0.7887    1.8439    0.0740 C   0  0  0  0  0  0  0  0  0  0  0  0
   -2.6240   -2.4204    0.5923 H   0  0  0  0  0  0  0  0  0  0  0  0
   -2.2688   -1.8926   -1.0529 H   0  0  0  0  0  0  0  0  0  0  0  0
   -3.6372   -1.2011   -0.1812 H   0  0  0  0  0  0  0  0  0  0  0  0
   -2.0610   -0.1616    1.4569 H   0  0  0  0  0  0  0  0  0  0  0  0
   -0.6938   -0.8486    0.5749 H   0  0  0  0  0  0  0  0  0  0  0  0
   -2.7009    1.1392   -0.5669 H   0  0  0  0  0  0  0  0  0  0  0  0
   -1.3380    0.4484   -1.4447 H   0  0  0  0  0  0  0  0  0  0  0  0
   -0.7257    2.7080   -0.5784 H   0  0  0  0  0  0  0  0  0  0  0  0
    0.4334    1.3728    0.1192 H   0  0  0  0  0  0  0  0  0  0  0  0
   -1.0110    2.1299    1.0965 H   0  0  0  0  0  0  0  0  0  0  0  0
  1  2  1  0
  1  4  1  0
  2  3  2  3
  3  5  1  0
  6  7  1  0
  6 10  1  0
  6 11  1  0
  6 12  1  0
  7  8  1  0
  7 13  1  0
  7 14  1  0
  8  9  1  0
  8 15  1  0
  8 16  1  0
  9 17  1  0
  9 18  1  0
  9 19  1  0
M  RAD  1   3   2
M  END
>  <reaction>  (7) 
rmg_rxn_15408

>  <mol_properties>  (7) 
{"1": {"label": "*4", "atom_type": "N3d"}, "2": {"label": "*3", "atom_type": "Cd"}, "7": {"label": "*0", "atom_type": "Cs"}, "8": {"label": "*1", "atom_type": "Cs"}, "17": {"label": "*2", "atom_type": "H0"}}

>  <type>  (7) 
unop_3

>  <geom_source>  (7) 
Heuristics

$$$$

     RDKit          3D

 19 17  0  0  0  0  0  0  0  0999 V2000
   -2.2146   -1.6315    1.6725 O   0  0  0  0  0  0  0  0  0  0  0  0
   -1.3825   -0.8011    0.9478 N   0  0  0  0  0  0  0  0  0  0  0  0
   -0.9081    0.1284    1.6581 C   0  0  0  0  0  0  0  0  0  0  0  0
   -2.4998   -2.2795    1.0255 H   0  0  0  0  0  0  0  0  0  0  0  0
   -1.1439    0.2382    2.7144 H   0  0  0  0  0  0  0  0  0  0  0  0
    1.1972   -0.0480   -2.9194 C   0  0  0  0  0  0  0  0  0  0  0  0
    1.1972   -0.0480   -1.3967 C   0  0  0  0  0  0  0  0  0  0  0  0
    1.1972    1.3543   -0.7993 C   0  0  0  0  0  0  0  0  0  0  0  0
    1.1972    1.3543    0.7234 C   0  0  0  0  0  3  0  0  0  0  0  0
    2.0787    0.4653   -3.3107 H   0  0  0  0  0  0  0  0  0  0  0  0
    0.3156    0.4653   -3.3107 H   0  0  0  0  0  0  0  0  0  0  0  0
    1.1972   -1.0631   -3.3197 H   0  0  0  0  0  0  0  0  0  0  0  0
    0.3221   -0.5939   -1.0293 H   0  0  0  0  0  0  0  0  0  0  0  0
    2.0722   -0.5939   -1.0293 H   0  0  0  0  0  0  0  0  0  0  0  0
    0.3221    1.9002   -1.1666 H   0  0  0  0  0  0  0  0  0  0  0  0
    2.0722    1.9002   -1.1666 H   0  0  0  0  0  0  0  0  0  0  0  0
    2.0787    0.8410    1.1148 H   0  0  0  0  0  0  0  0  0  0  0  0
    0.1393    0.7383    1.1931 H   0  0  0  0  0  0  0  0  0  0  0  0
    1.1972    2.3694    1.1238 H   0  0  0  0  0  0  0  0  0  0  0  0
  1  2  1  0
  1  4  1  0
  2  3  2  3
  3  5  1  0
  3 18  1  0
  6  7  1  0
  6 10  1  0
  6 11  1  0
  6 12  1  0
  7  8  1  0
  7 13  1  0
  7 14  1  0
  8  9  1  0
  8 15  1  0
  8 16  1  0
  9 17  1  0
  9 19  1  0
M  RAD  1   9   2
M  END
>  <reaction>  (8) 
rmg_rxn_15408

>  <mol_properties>  (8) 
{"1": {"label": "*4", "atom_type": "N3d"}, "2": {"label": "*3", "atom_type": "Cd"}, "7": {"label": "*0", "atom_type": "Cs"}, "8": {"label": "*1", "atom_type": "Cs"}, "17": {"label": "*2", "atom_type": "H0"}}

>  <type>  (8) 
unop_4

>  <geom_source>  (8) 
Heuristics

$$$$

     RDKit          3D

 19 17  0  0  0  0  0  0  0  0999 V2000
    3.0235    0.9237    0.0779 O   0  0  0  0  0  0  0  0  0  0  0  0
    1.7585    0.2967    0.0534 N   0  0  0  0  0  0  0  0  0  0  0  0
    1.6677   -0.9197   -0.1441 C   0  0  0  0  0  3  0  0  0  0  0  0
    2.8263    1.8551    0.2482 H   0  0  0  0  0  0  0  0  0  0  0  0
    2.4416   -1.6577   -0.3154 H   0  0  0  0  0  0  0  0  0  0  0  0
   -2.6146    1.5637    0.0756 C   0  0  0  0  0  0  0  0  0  0  0  0
   -1.7070    0.4670   -0.4675 C   0  0  0  0  0  0  0  0  0  0  0  0
   -1.6818   -0.7534    0.4511 C   0  0  0  0  0  0  0  0  0  0  0  0
   -0.7895   -1.8439   -0.0740 C   0  0  0  0  0  0  0  0  0  0  0  0
   -2.2712    1.8917    1.0543 H   0  0  0  0  0  0  0  0  0  0  0  0
   -3.6366    1.2029    0.1760 H   0  0  0  0  0  0  0  0  0  0  0  0
   -2.6192    2.4225   -0.5914 H   0  0  0  0  0  0  0  0  0  0  0  0
   -2.0545    0.1649   -1.4582 H   0  0  0  0  0  0  0  0  0  0  0  0
   -0.6902    0.8491   -0.5692 H   0  0  0  0  0  0  0  0  0  0  0  0
   -2.7039   -1.1392    0.5606 H   0  0  0  0  0  0  0  0  0  0  0  0
   -1.3440   -0.4511    1.4454 H   0  0  0  0  0  0  0  0  0  0  0  0
   -0.7275   -2.7081    0.5784 H   0  0  0  0  0  0  0  0  0  0  0  0
    0.4329   -1.3736   -0.1183 H   0  0  0  0  0  0  0  0  0  0  0  0
   -1.0103   -2.1299   -1.0967 H   0  0  0  0  0  0  0  0  0  0  0  0
  1  2  1  0
  1  4  1  0
  2  3  2  3
  3  5  1  0
  6  7  1  0
  6 10  1  0
  6 11  1  0
  6 12  1  0
  7  8  1  0
  7 13  1  0
  7 14  1  0
  8  9  1  0
  8 15  1  0
  8 16  1  0
  9 17  1  0
  9 18  1  0
  9 19  1  0
M  RAD  1   3   2
M  END
>  <reaction>  (9) 
rmg_rxn_15408

>  <mol_properties>  (9) 
{"1": {"label": "*4", "atom_type": "N3d"}, "2": {"label": "*3", "atom_type": "Cd"}, "7": {"label": "*0", "atom_type": "Cs"}, "8": {"label": "*1", "atom_type": "Cs"}, "17": {"label": "*2", "atom_type": "H0"}}

>  <type>  (9) 
unop_5

>  <geom_source>  (9) 
Heuristics

$$$$

     RDKit          3D

 19 17  0  0  0  0  0  0  0  0999 V2000
   -2.0716   -0.6758    2.9521 O   0  0  0  0  0  0  0  0  0  0  0  0
   -0.9034   -0.7039    2.2161 N   0  0  0  0  0  0  0  0  0  0  0  0
   -1.0341   -0.1269    1.1010 C   0  0  0  0  0  0  0  0  0  0  0  0
   -1.8370   -1.1388    3.7587 H   0  0  0  0  0  0  0  0  0  0  0  0
   -1.9687    0.3302    0.7830 H   0  0  0  0  0  0  0  0  0  0  0  0
    1.0711   -0.3033   -3.4764 C   0  0  0  0  0  0  0  0  0  0  0  0
    1.0711   -0.3033   -1.9537 C   0  0  0  0  0  0  0  0  0  0  0  0
    1.0711    1.0991   -1.3563 C   0  0  0  0  0  0  0  0  0  0  0  0
    1.0711    1.0991    0.1664 C   0  0  0  0  0  3  0  0  0  0  0  0
    1.9526    0.2100   -3.8678 H   0  0  0  0  0  0  0  0  0  0  0  0
    0.1896    0.2100   -3.8678 H   0  0  0  0  0  0  0  0  0  0  0  0
    1.0711   -1.3184   -3.8768 H   0  0  0  0  0  0  0  0  0  0  0  0
    0.1961   -0.8492   -1.5864 H   0  0  0  0  0  0  0  0  0  0  0  0
    1.9461   -0.8492   -1.5864 H   0  0  0  0  0  0  0  0  0  0  0  0
    0.1961    1.6449   -1.7236 H   0  0  0  0  0  0  0  0  0  0  0  0
    1.9461    1.6449   -1.7236 H   0  0  0  0  0  0  0  0  0  0  0  0
    1.9526    0.5857    0.5577 H   0  0  0  0  0  0  0  0  0  0  0  0
    0.0133    0.4830    0.6360 H   0  0  0  0  0  0  0  0  0  0  0  0
    1.0711    2.1142    0.5667 H   0  0  0  0  0  0  0  0  0  0  0  0
  1  2  1  0
  1  4  1  0
  2  3  2  3
  3  5  1  0
  3 18  1  0
  6  7  1  0
  6 10  1  0
  6 11  1  0
  6 12  1  0
  7  8  1  0
  7 13  1  0
  7 14  1  0
  8  9  1  0
  8 15  1  0
  8 16  1  0
  9 17  1  0
  9 19  1  0
M  RAD  1   9   2
M  END
>  <reaction>  (10) 
rmg_rxn_15408

>  <mol_properties>  (10) 
{"1": {"label": "*4", "atom_type": "N3d"}, "2": {"label": "*3", "atom_type": "Cd"}, "7": {"label": "*0", "atom_type": "Cs"}, "8": {"label": "*1", "atom_type": "Cs"}, "17": {"label": "*2", "atom_type": "H0"}}

>  <type>  (10) 
unop_6

>  <geom_source>  (10) 
Heuristics

$$$$

     RDKit          3D

 19 17  0  0  0  0  0  0  0  0999 V2000
   -2.7585   -0.1153    2.1614 O   0  0  0  0  0  0  0  0  0  0  0  0
   -1.8142    0.0661    1.1703 N   0  0  0  0  0  0  0  0  0  0  0  0
   -0.6916   -0.4115    1.4948 C   0  0  0  0  0  0  0  0  0  0  0  0
   -3.5478    0.2855    1.7921 H   0  0  0  0  0  0  0  0  0  0  0  0
   -0.5170   -0.9029    2.4496 H   0  0  0  0  0  0  0  0  0  0  0  0
    1.4136   -0.5879   -3.0826 C   0  0  0  0  0  0  0  0  0  0  0  0
    1.4136   -0.5879   -1.5599 C   0  0  0  0  0  0  0  0  0  0  0  0
    1.4136    0.8145   -0.9625 C   0  0  0  0  0  0  0  0  0  0  0  0
    1.4136    0.8145    0.5602 C   0  0  0  0  0  3  0  0  0  0  0  0
    2.2951   -0.0745   -3.4740 H   0  0  0  0  0  0  0  0  0  0  0  0
    0.5321   -0.0745   -3.4740 H   0  0  0  0  0  0  0  0  0  0  0  0
    1.4136   -1.6030   -3.4830 H   0  0  0  0  0  0  0  0  0  0  0  0
    0.5386   -1.1337   -1.1926 H   0  0  0  0  0  0  0  0  0  0  0  0
    2.2886   -1.1337   -1.1926 H   0  0  0  0  0  0  0  0  0  0  0  0
    0.5386    1.3604   -1.3299 H   0  0  0  0  0  0  0  0  0  0  0  0
    2.2887    1.3604   -1.3299 H   0  0  0  0  0  0  0  0  0  0  0  0
    2.2951    0.3012    0.9515 H   0  0  0  0  0  0  0  0  0  0  0  0
    0.3558    0.1985    1.0298 H   0  0  0  0  0  0  0  0  0  0  0  0
    1.4136    1.8296    0.9605 H   0  0  0  0  0  0  0  0  0  0  0  0
  1  2  1  0
  1  4  1  0
  2  3  2  3
  3  5  1  0
  3 18  1  0
  6  7  1  0
  6 10  1  0
  6 11  1  0
  6 12  1  0
  7  8  1  0
  7 13  1  0
  7 14  1  0
  8  9  1  0
  8 15  1  0
  8 16  1  0
  9 17  1  0
  9 19  1  0
M  RAD  1   9   2
M  END
>  <reaction>  (11) 
rmg_rxn_15408

>  <mol_properties>  (11) 
{"1": {"label": "*4", "atom_type": "N3d"}, "2": {"label": "*3", "atom_type": "Cd"}, "7": {"label": "*0", "atom_type": "Cs"}, "8": {"label": "*1", "atom_type": "Cs"}, "17": {"label": "*2", "atom_type": "H0"}}

>  <type>  (11) 
unop_7

>  <geom_source>  (11) 
Heuristics

$$$$

     RDKit          3D

 19 17  0  0  0  0  0  0  0  0999 V2000
    3.0262   -0.9234   -0.0773 O   0  0  0  0  0  0  0  0  0  0  0  0
    1.7605   -0.2979   -0.0513 N   0  0  0  0  0  0  0  0  0  0  0  0
    1.6688    0.9194    0.1400 C   0  0  0  0  0  3  0  0  0  0  0  0
    2.8295   -1.8559   -0.2420 H   0  0  0  0  0  0  0  0  0  0  0  0
    2.4423    1.6594    0.3038 H   0  0  0  0  0  0  0  0  0  0  0  0
   -2.6189   -1.5618   -0.0769 C   0  0  0  0  0  0  0  0  0  0  0  0
   -1.7090   -0.4675    0.4668 C   0  0  0  0  0  0  0  0  0  0  0  0
   -1.6823    0.7541   -0.4502 C   0  0  0  0  0  0  0  0  0  0  0  0
   -0.7887    1.8429    0.0763 C   0  0  0  0  0  0  0  0  0  0  0  0
   -2.6241   -2.4217    0.5887 H   0  0  0  0  0  0  0  0  0  0  0  0
   -2.2767   -1.8886   -1.0565 H   0  0  0  0  0  0  0  0  0  0  0  0
   -3.6403   -1.1991   -0.1756 H   0  0  0  0  0  0  0  0  0  0  0  0
   -2.0554   -0.1662    1.4581 H   0  0  0  0  0  0  0  0  0  0  0  0
   -0.6929   -0.8514    0.5674 H   0  0  0  0  0  0  0  0  0  0  0  0
   -2.7039    1.1412   -0.5591 H   0  0  0  0  0  0  0  0  0  0  0  0
   -1.3450    0.4528   -1.4450 H   0  0  0  0  0  0  0  0  0  0  0  0
   -0.7275    2.7088   -0.5740 H   0  0  0  0  0  0  0  0  0  0  0  0
    0.4336    1.3719    0.1170 H   0  0  0  0  0  0  0  0  0  0  0  0
   -1.0077    2.1263    1.1001 H   0  0  0  0  0  0  0  0  0  0  0  0
  1  2  1  0
  1  4  1  0
  2  3  2  3
  3  5  1  0
  6  7  1  0
  6 10  1  0
  6 11  1  0
  6 12  1  0
  7  8  1  0
  7 13  1  0
  7 14  1  0
  8  9  1  0
  8 15  1  0
  8 16  1  0
  9 17  1  0
  9 18  1  0
  9 19  1  0
M  RAD  1   3   2
M  END
>  <reaction>  (12) 
rmg_rxn_15408

>  <mol_properties>  (12) 
{"1": {"label": "*4", "atom_type": "N3d"}, "2": {"label": "*3", "atom_type": "Cd"}, "7": {"label": "*0", "atom_type": "Cs"}, "8": {"label": "*1", "atom_type": "Cs"}, "17": {"label": "*2", "atom_type": "H0"}}

>  <type>  (12) 
unop_8

>  <geom_source>  (12) 
Heuristics

$$$$

     RDKit          3D

 19 17  0  0  0  0  0  0  0  0999 V2000
   -2.2175   -0.8925    2.7631 O   0  0  0  0  0  0  0  0  0  0  0  0
   -1.0725   -0.2257    2.3743 N   0  0  0  0  0  0  0  0  0  0  0  0
   -0.9660   -0.1636    1.1180 C   0  0  0  0  0  0  0  0  0  0  0  0
   -2.1746   -0.8675    3.7210 H   0  0  0  0  0  0  0  0  0  0  0  0
   -1.7044   -0.5937    0.4447 H   0  0  0  0  0  0  0  0  0  0  0  0
    1.1393   -0.3400   -3.4594 C   0  0  0  0  0  0  0  0  0  0  0  0
    1.1393   -0.3400   -1.9367 C   0  0  0  0  0  0  0  0  0  0  0  0
    1.1393    1.0623   -1.3394 C   0  0  0  0  0  0  0  0  0  0  0  0
    1.1393    1.0623    0.1833 C   0  0  0  0  0  3  0  0  0  0  0  0
    2.0208    0.1733   -3.8508 H   0  0  0  0  0  0  0  0  0  0  0  0
    0.2577    0.1733   -3.8508 H   0  0  0  0  0  0  0  0  0  0  0  0
    1.1393   -1.3551   -3.8598 H   0  0  0  0  0  0  0  0  0  0  0  0
    0.2642   -0.8859   -1.5694 H   0  0  0  0  0  0  0  0  0  0  0  0
    2.0143   -0.8859   -1.5694 H   0  0  0  0  0  0  0  0  0  0  0  0
    0.2642    1.6082   -1.7067 H   0  0  0  0  0  0  0  0  0  0  0  0
    2.0143    1.6082   -1.7067 H   0  0  0  0  0  0  0  0  0  0  0  0
    2.0208    0.5490    0.5747 H   0  0  0  0  0  0  0  0  0  0  0  0
    0.0814    0.4463    0.6530 H   0  0  0  0  0  0  0  0  0  0  0  0
    1.1393    2.0774    0.5837 H   0  0  0  0  0  0  0  0  0  0  0  0
  1  2  1  0
  1  4  1  0
  2  3  2  3
  3  5  1  0
  3 18  1  0
  6  7  1  0
  6 10  1  0
  6 11  1  0
  6 12  1  0
  7  8  1  0
  7 13  1  0
  7 14  1  0
  8  9  1  0
  8 15  1  0
  8 16  1  0
  9 17  1  0
  9 19  1  0
M  RAD  1   9   2
M  END
>  <reaction>  (13) 
rmg_rxn_15408

>  <mol_properties>  (13) 
{"1": {"label": "*4", "atom_type": "N3d"}, "2": {"label": "*3", "atom_type": "Cd"}, "7": {"label": "*0", "atom_type": "Cs"}, "8": {"label": "*1", "atom_type": "Cs"}, "17": {"label": "*2", "atom_type": "H0"}}

>  <type>  (13) 
unop_9

>  <geom_source>  (13) 
Heuristics

$$$$

     RDKit          3D

 19 17  0  0  0  0  0  0  0  0999 V2000
    3.0206    0.9253    0.0797 O   0  0  0  0  0  0  0  0  0  0  0  0
    1.7571    0.2952    0.0575 N   0  0  0  0  0  0  0  0  0  0  0  0
    1.6671   -0.9185   -0.1556 C   0  0  0  0  0  3  0  0  0  0  0  0
    2.8222    1.8536    0.2646 H   0  0  0  0  0  0  0  0  0  0  0  0
    2.4407   -1.6528   -0.3432 H   0  0  0  0  0  0  0  0  0  0  0  0
   -2.6123    1.5640    0.0728 C   0  0  0  0  0  0  0  0  0  0  0  0
   -1.7101    0.4632   -0.4707 C   0  0  0  0  0  0  0  0  0  0  0  0
   -1.6766   -0.7506    0.4563 C   0  0  0  0  0  0  0  0  0  0  0  0
   -0.7887   -1.8448   -0.0686 C   0  0  0  0  0  0  0  0  0  0  0  0
   -3.6333    1.2042    0.1850 H   0  0  0  0  0  0  0  0  0  0  0  0
   -2.6227    2.4182   -0.6002 H   0  0  0  0  0  0  0  0  0  0  0  0
   -2.2594    1.8985    1.0459 H   0  0  0  0  0  0  0  0  0  0  0  0
   -2.0667    0.1543   -1.4560 H   0  0  0  0  0  0  0  0  0  0  0  0
   -0.6943    0.8444   -0.5844 H   0  0  0  0  0  0  0  0  0  0  0  0
   -2.6976   -1.1356    0.5776 H   0  0  0  0  0  0  0  0  0  0  0  0
   -1.3300   -0.4412    1.4453 H   0  0  0  0  0  0  0  0  0  0  0  0
   -0.7230   -2.7054    0.5882 H   0  0  0  0  0  0  0  0  0  0  0  0
    0.4333   -1.3746   -0.1224 H   0  0  0  0  0  0  0  0  0  0  0  0
   -1.0162   -2.1364   -1.0883 H   0  0  0  0  0  0  0  0  0  0  0  0
  1  2  1  0
  1  4  1  0
  2  3  2  3
  3  5  1  0
  6  7  1  0
  6 10  1  0
  6 11  1  0
  6 12  1  0
  7  8  1  0
  7 13  1  0
  7 14  1  0
  8  9  1  0
  8 15  1  0
  8 16  1  0
  9 17  1  0
  9 18  1  0
  9 19  1  0
M  RAD  1   3   2
M  END
>  <reaction>  (14) 
rmg_rxn_15408

>  <mol_properties>  (14) 
{"1": {"label": "*4", "atom_type": "N3d"}, "2": {"label": "*3", "atom_type": "Cd"}, "7": {"label": "*0", "atom_type": "Cs"}, "8": {"label": "*1", "atom_type": "Cs"}, "17": {"label": "*2", "atom_type": "H0"}}

>  <type>  (14) 
unop_10

>  <geom_source>  (14) 
Heuristics

$$$$

     RDKit          3D

 19 17  0  0  0  0  0  0  0  0999 V2000
   -2.4394   -0.0865    2.6795 O   0  0  0  0  0  0  0  0  0  0  0  0
   -1.7978    0.2555    1.5054 N   0  0  0  0  0  0  0  0  0  0  0  0
   -0.7738   -0.4544    1.3030 C   0  0  0  0  0  0  0  0  0  0  0  0
   -3.1839    0.5176    2.7097 H   0  0  0  0  0  0  0  0  0  0  0  0
   -0.4573   -1.2367    1.9896 H   0  0  0  0  0  0  0  0  0  0  0  0
    1.3314   -0.6308   -3.2744 C   0  0  0  0  0  0  0  0  0  0  0  0
    1.3314   -0.6308   -1.7517 C   0  0  0  0  0  0  0  0  0  0  0  0
    1.3314    0.7716   -1.1543 C   0  0  0  0  0  0  0  0  0  0  0  0
    1.3314    0.7715    0.3684 C   0  0  0  0  0  3  0  0  0  0  0  0
    2.2129   -0.1175   -3.6658 H   0  0  0  0  0  0  0  0  0  0  0  0
    0.4499   -0.1175   -3.6658 H   0  0  0  0  0  0  0  0  0  0  0  0
    1.3314   -1.6459   -3.6748 H   0  0  0  0  0  0  0  0  0  0  0  0
    0.4564   -1.1767   -1.3844 H   0  0  0  0  0  0  0  0  0  0  0  0
    2.2064   -1.1767   -1.3844 H   0  0  0  0  0  0  0  0  0  0  0  0
    0.4564    1.3174   -1.5217 H   0  0  0  0  0  0  0  0  0  0  0  0
    2.2064    1.3174   -1.5217 H   0  0  0  0  0  0  0  0  0  0  0  0
    2.2129    0.2582    0.7597 H   0  0  0  0  0  0  0  0  0  0  0  0
    0.2736    0.1555    0.8380 H   0  0  0  0  0  0  0  0  0  0  0  0
    1.3314    1.7867    0.7687 H   0  0  0  0  0  0  0  0  0  0  0  0
  1  2  1  0
  1  4  1  0
  2  3  2  3
  3  5  1  0
  3 18  1  0
  6  7  1  0
  6 10  1  0
  6 11  1  0
  6 12  1  0
  7  8  1  0
  7 13  1  0
  7 14  1  0
  8  9  1  0
  8 15  1  0
  8 16  1  0
  9 17  1  0
  9 19  1  0
M  RAD  1   9   2
M  END
>  <reaction>  (15) 
rmg_rxn_15408

>  <mol_properties>  (15) 
{"1": {"label": "*4", "atom_type": "N3d"}, "2": {"label": "*3", "atom_type": "Cd"}, "7": {"label": "*0", "atom_type": "Cs"}, "8": {"label": "*1", "atom_type": "Cs"}, "17": {"label": "*2", "atom_type": "H0"}}

>  <type>  (15) 
unop_11

>  <geom_source>  (15) 
Heuristics

$$$$

     RDKit          3D

 19 17  0  0  0  0  0  0  0  0999 V2000
    3.0199    0.9260   -0.0805 O   0  0  0  0  0  0  0  0  0  0  0  0
    1.7568    0.2952   -0.0569 N   0  0  0  0  0  0  0  0  0  0  0  0
    1.6676   -0.9183    0.1579 C   0  0  0  0  0  3  0  0  0  0  0  0
    2.8209    1.8540   -0.2665 H   0  0  0  0  0  0  0  0  0  0  0  0
    2.4417   -1.6520    0.3459 H   0  0  0  0  0  0  0  0  0  0  0  0
   -2.6110    1.5643   -0.0732 C   0  0  0  0  0  0  0  0  0  0  0  0
   -1.7144    0.4604    0.4733 C   0  0  0  0  0  0  0  0  0  0  0  0
   -1.6738   -0.7493   -0.4586 C   0  0  0  0  0  0  0  0  0  0  0  0
   -0.7879   -1.8448    0.0671 C   0  0  0  0  0  0  0  0  0  0  0  0
   -2.2487    1.9035   -1.0412 H   0  0  0  0  0  0  0  0  0  0  0  0
   -2.6276    2.4150    0.6039 H   0  0  0  0  0  0  0  0  0  0  0  0
   -3.6310    1.2053   -0.1971 H   0  0  0  0  0  0  0  0  0  0  0  0
   -0.6994    0.8405    0.5975 H   0  0  0  0  0  0  0  0  0  0  0  0
   -2.0799    0.1476    1.4542 H   0  0  0  0  0  0  0  0  0  0  0  0
   -1.3212   -0.4353   -1.4441 H   0  0  0  0  0  0  0  0  0  0  0  0
   -2.6936   -1.1348   -0.5881 H   0  0  0  0  0  0  0  0  0  0  0  0
   -1.0176   -2.1371    1.0861 H   0  0  0  0  0  0  0  0  0  0  0  0
    0.4341   -1.3751    0.1236 H   0  0  0  0  0  0  0  0  0  0  0  0
   -0.7216   -2.7048   -0.5904 H   0  0  0  0  0  0  0  0  0  0  0  0
  1  2  1  0
  1  4  1  0
  2  3  2  3
  3  5  1  0
  6  7  1  0
  6 10  1  0
  6 11  1  0
  6 12  1  0
  7  8  1  0
  7 13  1  0
  7 14  1  0
  8  9  1  0
  8 15  1  0
  8 16  1  0
  9 17  1  0
  9 18  1  0
  9 19  1  0
M  RAD  1   3   2
M  END
>  <reaction>  (16) 
rmg_rxn_15408

>  <mol_properties>  (16) 
{"1": {"label": "*4", "atom_type": "N3d"}, "2": {"label": "*3", "atom_type": "Cd"}, "7": {"label": "*0", "atom_type": "Cs"}, "8": {"label": "*1", "atom_type": "Cs"}, "17": {"label": "*2", "atom_type": "H0"}}

>  <type>  (16) 
unop_12

>  <geom_source>  (16) 
Heuristics

$$$$

     RDKit          3D

 19 17  0  0  0  0  0  0  0  0999 V2000
   -2.0854   -0.4108    2.9898 O   0  0  0  0  0  0  0  0  0  0  0  0
   -1.6607    0.2988    1.8839 N   0  0  0  0  0  0  0  0  0  0  0  0
   -0.8875   -0.3822    1.1545 C   0  0  0  0  0  0  0  0  0  0  0  0
   -2.6542    0.2112    3.4477 H   0  0  0  0  0  0  0  0  0  0  0  0
   -0.6058   -1.4056    1.3933 H   0  0  0  0  0  0  0  0  0  0  0  0
    1.2177   -0.5586   -3.4229 C   0  0  0  0  0  0  0  0  0  0  0  0
    1.2177   -0.5586   -1.9002 C   0  0  0  0  0  0  0  0  0  0  0  0
    1.2177    0.8438   -1.3028 C   0  0  0  0  0  0  0  0  0  0  0  0
    1.2177    0.8438    0.2199 C   0  0  0  0  0  3  0  0  0  0  0  0
    2.0993   -0.0453   -3.8143 H   0  0  0  0  0  0  0  0  0  0  0  0
    0.3362   -0.0453   -3.8143 H   0  0  0  0  0  0  0  0  0  0  0  0
    1.2177   -1.5737   -3.8233 H   0  0  0  0  0  0  0  0  0  0  0  0
    0.3427   -1.1045   -1.5329 H   0  0  0  0  0  0  0  0  0  0  0  0
    2.0928   -1.1045   -1.5329 H   0  0  0  0  0  0  0  0  0  0  0  0
    0.3427    1.3896   -1.6702 H   0  0  0  0  0  0  0  0  0  0  0  0
    2.0928    1.3896   -1.6702 H   0  0  0  0  0  0  0  0  0  0  0  0
    2.0993    0.3304    0.6112 H   0  0  0  0  0  0  0  0  0  0  0  0
    0.1599    0.2277    0.6895 H   0  0  0  0  0  0  0  0  0  0  0  0
    1.2177    1.8589    0.6202 H   0  0  0  0  0  0  0  0  0  0  0  0
  1  2  1  0
  1  4  1  0
  2  3  2  3
  3  5  1  0
  3 18  1  0
  6  7  1  0
  6 10  1  0
  6 11  1  0
  6 12  1  0
  7  8  1  0
  7 13  1  0
  7 14  1  0
  8  9  1  0
  8 15  1  0
  8 16  1  0
  9 17  1  0
  9 19  1  0
M  RAD  1   9   2
M  END
>  <reaction>  (17) 
rmg_rxn_15408

>  <mol_properties>  (17) 
{"1": {"label": "*4", "atom_type": "N3d"}, "2": {"label": "*3", "atom_type": "Cd"}, "7": {"label": "*0", "atom_type": "Cs"}, "8": {"label": "*1", "atom_type": "Cs"}, "17": {"label": "*2", "atom_type": "H0"}}

>  <type>  (17) 
unop_13

>  <geom_source>  (17) 
Heuristics

$$$$

     RDKit          3D

 19 17  0  0  0  0  0  0  0  0999 V2000
   -3.0219   -0.9260   -0.0804 O   0  0  0  0  0  0  0  0  0  0  0  0
   -1.7580   -0.2972   -0.0499 N   0  0  0  0  0  0  0  0  0  0  0  0
   -1.6694    0.9194    0.1467 C   0  0  0  0  0  3  0  0  0  0  0  0
   -2.8223   -1.8573   -0.2486 H   0  0  0  0  0  0  0  0  0  0  0  0
   -2.4447    1.6572    0.3125 H   0  0  0  0  0  0  0  0  0  0  0  0
    2.6171   -1.5613   -0.0755 C   0  0  0  0  0  0  0  0  0  0  0  0
    1.7113   -0.4642    0.4693 C   0  0  0  0  0  0  0  0  0  0  0  0
    1.6761    0.7517   -0.4548 C   0  0  0  0  0  0  0  0  0  0  0  0
    0.7875    1.8439    0.0731 C   0  0  0  0  0  0  0  0  0  0  0  0
    2.6284   -2.4172    0.5952 H   0  0  0  0  0  0  0  0  0  0  0  0
    3.6375   -1.1988   -0.1849 H   0  0  0  0  0  0  0  0  0  0  0  0
    2.2670   -1.8941   -1.0501 H   0  0  0  0  0  0  0  0  0  0  0  0
    0.6962   -0.8480    0.5809 H   0  0  0  0  0  0  0  0  0  0  0  0
    2.0658   -0.1567    1.4559 H   0  0  0  0  0  0  0  0  0  0  0  0
    1.3295    0.4444   -1.4446 H   0  0  0  0  0  0  0  0  0  0  0  0
    2.6967    1.1381   -0.5757 H   0  0  0  0  0  0  0  0  0  0  0  0
    1.0127    2.1305    1.0947 H   0  0  0  0  0  0  0  0  0  0  0  0
   -0.4349    1.3740    0.1216 H   0  0  0  0  0  0  0  0  0  0  0  0
    0.7238    2.7076   -0.5798 H   0  0  0  0  0  0  0  0  0  0  0  0
  1  2  1  0
  1  4  1  0
  2  3  2  3
  3  5  1  0
  6  7  1  0
  6 10  1  0
  6 11  1  0
  6 12  1  0
  7  8  1  0
  7 13  1  0
  7 14  1  0
  8  9  1  0
  8 15  1  0
  8 16  1  0
  9 17  1  0
  9 18  1  0
  9 19  1  0
M  RAD  1   3   2
M  END
>  <reaction>  (18) 
rmg_rxn_15408

>  <mol_properties>  (18) 
{"1": {"label": "*4", "atom_type": "N3d"}, "2": {"label": "*3", "atom_type": "Cd"}, "7": {"label": "*0", "atom_type": "Cs"}, "8": {"label": "*1", "atom_type": "Cs"}, "17": {"label": "*2", "atom_type": "H0"}}

>  <type>  (18) 
unop_14

>  <geom_source>  (18) 
Heuristics

$$$$

     RDKit          3D

 19 17  0  0  0  0  0  0  0  0999 V2000
   -1.6260   -1.4832    2.6795 O   0  0  0  0  0  0  0  0  0  0  0  0
   -1.0119   -1.0940    1.5054 N   0  0  0  0  0  0  0  0  0  0  0  0
   -1.1241    0.1470    1.3030 C   0  0  0  0  0  0  0  0  0  0  0  0
   -1.4680   -2.4288    2.7097 H   0  0  0  0  0  0  0  0  0  0  0  0
   -1.6483    0.8083    1.9896 H   0  0  0  0  0  0  0  0  0  0  0  0
    0.9812   -0.0294   -3.2744 C   0  0  0  0  0  0  0  0  0  0  0  0
    0.9812   -0.0294   -1.7517 C   0  0  0  0  0  0  0  0  0  0  0  0
    0.9812    1.3730   -1.1543 C   0  0  0  0  0  0  0  0  0  0  0  0
    0.9812    1.3730    0.3684 C   0  0  0  0  0  3  0  0  0  0  0  0
    1.8627    0.4839   -3.6658 H   0  0  0  0  0  0  0  0  0  0  0  0
    0.0996    0.4839   -3.6658 H   0  0  0  0  0  0  0  0  0  0  0  0
    0.9812   -1.0445   -3.6748 H   0  0  0  0  0  0  0  0  0  0  0  0
    0.1061   -0.5753   -1.3844 H   0  0  0  0  0  0  0  0  0  0  0  0
    1.8562   -0.5753   -1.3844 H   0  0  0  0  0  0  0  0  0  0  0  0
    0.1061    1.9188   -1.5217 H   0  0  0  0  0  0  0  0  0  0  0  0
    1.8562    1.9188   -1.5217 H   0  0  0  0  0  0  0  0  0  0  0  0
    1.8627    0.8596    0.7597 H   0  0  0  0  0  0  0  0  0  0  0  0
   -0.0767    0.7569    0.8380 H   0  0  0  0  0  0  0  0  0  0  0  0
    0.9812    2.3881    0.7687 H   0  0  0  0  0  0  0  0  0  0  0  0
  1  2  1  0
  1  4  1  0
  2  3  2  3
  3  5  1  0
  3 18  1  0
  6  7  1  0
  6 10  1  0
  6 11  1  0
  6 12  1  0
  7  8  1  0
  7 13  1  0
  7 14  1  0
  8  9  1  0
  8 15  1  0
  8 16  1  0
  9 17  1  0
  9 19  1  0
M  RAD  1   9   2
M  END
>  <reaction>  (19) 
rmg_rxn_15408

>  <mol_properties>  (19) 
{"1": {"label": "*4", "atom_type": "N3d"}, "2": {"label": "*3", "atom_type": "Cd"}, "7": {"label": "*0", "atom_type": "Cs"}, "8": {"label": "*1", "atom_type": "Cs"}, "17": {"label": "*2", "atom_type": "H0"}}

>  <type>  (19) 
unop_15

>  <geom_source>  (19) 
Heuristics

$$$$

     RDKit          3D

 19 17  0  0  0  0  0  0  0  0999 V2000
   -3.0251    0.9245    0.0797 O   0  0  0  0  0  0  0  0  0  0  0  0
   -1.7607    0.2961    0.0613 N   0  0  0  0  0  0  0  0  0  0  0  0
   -1.6680   -0.9157   -0.1616 C   0  0  0  0  0  3  0  0  0  0  0  0
   -2.8293    1.8514    0.2737 H   0  0  0  0  0  0  0  0  0  0  0  0
   -2.4395   -1.6489   -0.3610 H   0  0  0  0  0  0  0  0  0  0  0  0
    2.6194    1.5609    0.0711 C   0  0  0  0  0  0  0  0  0  0  0  0
    1.7147    0.4617   -0.4714 C   0  0  0  0  0  0  0  0  0  0  0  0
    1.6759   -0.7498    0.4583 C   0  0  0  0  0  0  0  0  0  0  0  0
    0.7870   -1.8433   -0.0663 C   0  0  0  0  0  0  0  0  0  0  0  0
    3.6391    1.1980    0.1857 H   0  0  0  0  0  0  0  0  0  0  0  0
    2.2661    1.8985    1.0429 H   0  0  0  0  0  0  0  0  0  0  0  0
    2.6336    2.4135   -0.6036 H   0  0  0  0  0  0  0  0  0  0  0  0
    0.7003    0.8459   -0.5878 H   0  0  0  0  0  0  0  0  0  0  0  0
    2.0721    0.1495   -1.4554 H   0  0  0  0  0  0  0  0  0  0  0  0
    1.3276   -0.4373    1.4457 H   0  0  0  0  0  0  0  0  0  0  0  0
    2.6958   -1.1368    0.5830 H   0  0  0  0  0  0  0  0  0  0  0  0
    1.0160   -2.1374   -1.0849 H   0  0  0  0  0  0  0  0  0  0  0  0
   -0.4342   -1.3714   -0.1236 H   0  0  0  0  0  0  0  0  0  0  0  0
    0.7184   -2.7024    0.5921 H   0  0  0  0  0  0  0  0  0  0  0  0
  1  2  1  0
  1  4  1  0
  2  3  2  3
  3  5  1  0
  6  7  1  0
  6 10  1  0
  6 11  1  0
  6 12  1  0
  7  8  1  0
  7 13  1  0
  7 14  1  0
  8  9  1  0
  8 15  1  0
  8 16  1  0
  9 17  1  0
  9 18  1  0
  9 19  1  0
M  RAD  1   3   2
M  END
>  <reaction>  (20) 
rmg_rxn_15408

>  <mol_properties>  (20) 
{"1": {"label": "*4", "atom_type": "N3d"}, "2": {"label": "*3", "atom_type": "Cd"}, "7": {"label": "*0", "atom_type": "Cs"}, "8": {"label": "*1", "atom_type": "Cs"}, "17": {"label": "*2", "atom_type": "H0"}}

>  <type>  (20) 
unop_16

>  <geom_source>  (20) 
Heuristics

$$$$

     RDKit          3D

 19 17  0  0  0  0  0  0  0  0999 V2000
   -2.8588   -0.5252    1.6725 O   0  0  0  0  0  0  0  0  0  0  0  0
   -1.7260   -0.2114    0.9478 N   0  0  0  0  0  0  0  0  0  0  0  0
   -0.6834   -0.2574    1.6581 C   0  0  0  0  0  0  0  0  0  0  0  0
   -3.5632   -0.4535    1.0255 H   0  0  0  0  0  0  0  0  0  0  0  0
   -0.7043   -0.5167    2.7144 H   0  0  0  0  0  0  0  0  0  0  0  0
    1.4218   -0.4338   -2.9194 C   0  0  0  0  0  0  0  0  0  0  0  0
    1.4218   -0.4338   -1.3967 C   0  0  0  0  0  0  0  0  0  0  0  0
    1.4218    0.9686   -0.7993 C   0  0  0  0  0  0  0  0  0  0  0  0
    1.4218    0.9686    0.7234 C   0  0  0  0  0  3  0  0  0  0  0  0
    2.3033    0.0796   -3.3107 H   0  0  0  0  0  0  0  0  0  0  0  0
    0.5403    0.0796   -3.3107 H   0  0  0  0  0  0  0  0  0  0  0  0
    1.4218   -1.4489   -3.3197 H   0  0  0  0  0  0  0  0  0  0  0  0
    0.5468   -0.9797   -1.0293 H   0  0  0  0  0  0  0  0  0  0  0  0
    2.2968   -0.9797   -1.0293 H   0  0  0  0  0  0  0  0  0  0  0  0
    0.5468    1.5145   -1.1666 H   0  0  0  0  0  0  0  0  0  0  0  0
    2.2968    1.5145   -1.1666 H   0  0  0  0  0  0  0  0  0  0  0  0
    2.3033    0.4552    1.1148 H   0  0  0  0  0  0  0  0  0  0  0  0
    0.3640    0.3526    1.1931 H   0  0  0  0  0  0  0  0  0  0  0  0
    1.4218    1.9837    1.1238 H   0  0  0  0  0  0  0  0  0  0  0  0
  1  2  1  0
  1  4  1  0
  2  3  2  3
  3  5  1  0
  3 18  1  0
  6  7  1  0
  6 10  1  0
  6 11  1  0
  6 12  1  0
  7  8  1  0
  7 13  1  0
  7 14  1  0
  8  9  1  0
  8 15  1  0
  8 16  1  0
  9 17  1  0
  9 19  1  0
M  RAD  1   9   2
M  END
>  <reaction>  (21) 
rmg_rxn_15408

>  <mol_properties>  (21) 
{"1": {"label": "*4", "atom_type": "N3d"}, "2": {"label": "*3", "atom_type": "Cd"}, "7": {"label": "*0", "atom_type": "Cs"}, "8": {"label": "*1", "atom_type": "Cs"}, "17": {"label": "*2", "atom_type": "H0"}}

>  <type>  (21) 
unop_17

>  <geom_source>  (21) 
Heuristics

$$$$

     RDKit          3D

 19 17  0  0  0  0  0  0  0  0999 V2000
   -1.8086   -1.7465    2.1614 O   0  0  0  0  0  0  0  0  0  0  0  0
   -1.1848   -1.0147    1.1703 N   0  0  0  0  0  0  0  0  0  0  0  0
   -1.0461    0.1973    1.4948 C   0  0  0  0  0  0  0  0  0  0  0  0
   -1.8495   -2.6308    1.7921 H   0  0  0  0  0  0  0  0  0  0  0  0
   -1.3874    0.5917    2.4496 H   0  0  0  0  0  0  0  0  0  0  0  0
    1.0591    0.0209   -3.0826 C   0  0  0  0  0  0  0  0  0  0  0  0
    1.0591    0.0209   -1.5599 C   0  0  0  0  0  0  0  0  0  0  0  0
    1.0591    1.4233   -0.9625 C   0  0  0  0  0  0  0  0  0  0  0  0
    1.0591    1.4233    0.5602 C   0  0  0  0  0  3  0  0  0  0  0  0
    1.9406    0.5342   -3.4740 H   0  0  0  0  0  0  0  0  0  0  0  0
    0.1776    0.5342   -3.4740 H   0  0  0  0  0  0  0  0  0  0  0  0
    1.0591   -0.9942   -3.4830 H   0  0  0  0  0  0  0  0  0  0  0  0
    0.1841   -0.5250   -1.1926 H   0  0  0  0  0  0  0  0  0  0  0  0
    1.9342   -0.5250   -1.1926 H   0  0  0  0  0  0  0  0  0  0  0  0
    0.1841    1.9691   -1.3299 H   0  0  0  0  0  0  0  0  0  0  0  0
    1.9342    1.9691   -1.3299 H   0  0  0  0  0  0  0  0  0  0  0  0
    1.9406    0.9099    0.9515 H   0  0  0  0  0  0  0  0  0  0  0  0
    0.0013    0.8072    1.0298 H   0  0  0  0  0  0  0  0  0  0  0  0
    1.0591    2.4384    0.9605 H   0  0  0  0  0  0  0  0  0  0  0  0
  1  2  1  0
  1  4  1  0
  2  3  2  3
  3  5  1  0
  3 18  1  0
  6  7  1  0
  6 10  1  0
  6 11  1  0
  6 12  1  0
  7  8  1  0
  7 13  1  0
  7 14  1  0
  8  9  1  0
  8 15  1  0
  8 16  1  0
  9 17  1  0
  9 19  1  0
M  RAD  1   9   2
M  END
>  <reaction>  (22) 
rmg_rxn_15408

>  <mol_properties>  (22) 
{"1": {"label": "*4", "atom_type": "N3d"}, "2": {"label": "*3", "atom_type": "Cd"}, "7": {"label": "*0", "atom_type": "Cs"}, "8": {"label": "*1", "atom_type": "Cs"}, "17": {"label": "*2", "atom_type": "H0"}}

>  <type>  (22) 
unop_18

>  <geom_source>  (22) 
Heuristics

$$$$

     RDKit          3D

 19 17  0  0  0  0  0  0  0  0999 V2000
   -1.9570   -0.8725    2.9521 O   0  0  0  0  0  0  0  0  0  0  0  0
   -1.4050    0.1574    2.2161 N   0  0  0  0  0  0  0  0  0  0  0  0
   -0.9677   -0.2410    1.1010 C   0  0  0  0  0  0  0  0  0  0  0  0
   -2.2440   -0.4399    3.7587 H   0  0  0  0  0  0  0  0  0  0  0  0
   -1.0313   -1.2795    0.7830 H   0  0  0  0  0  0  0  0  0  0  0  0
    1.1376   -0.4174   -3.4764 C   0  0  0  0  0  0  0  0  0  0  0  0
    1.1376   -0.4174   -1.9537 C   0  0  0  0  0  0  0  0  0  0  0  0
    1.1376    0.9849   -1.3563 C   0  0  0  0  0  0  0  0  0  0  0  0
    1.1376    0.9849    0.1664 C   0  0  0  0  0  3  0  0  0  0  0  0
    2.0191    0.0959   -3.8678 H   0  0  0  0  0  0  0  0  0  0  0  0
    0.2560    0.0959   -3.8678 H   0  0  0  0  0  0  0  0  0  0  0  0
    1.1376   -1.4325   -3.8768 H   0  0  0  0  0  0  0  0  0  0  0  0
    0.2625   -0.9633   -1.5864 H   0  0  0  0  0  0  0  0  0  0  0  0
    2.0126   -0.9633   -1.5864 H   0  0  0  0  0  0  0  0  0  0  0  0
    0.2625    1.5308   -1.7236 H   0  0  0  0  0  0  0  0  0  0  0  0
    2.0126    1.5308   -1.7236 H   0  0  0  0  0  0  0  0  0  0  0  0
    2.0191    0.4716    0.5577 H   0  0  0  0  0  0  0  0  0  0  0  0
    0.0797    0.3689    0.6360 H   0  0  0  0  0  0  0  0  0  0  0  0
    1.1376    2.0000    0.5667 H   0  0  0  0  0  0  0  0  0  0  0  0
  1  2  1  0
  1  4  1  0
  2  3  2  3
  3  5  1  0
  3 18  1  0
  6  7  1  0
  6 10  1  0
  6 11  1  0
  6 12  1  0
  7  8  1  0
  7 13  1  0
  7 14  1  0
  8  9  1  0
  8 15  1  0
  8 16  1  0
  9 17  1  0
  9 19  1  0
M  RAD  1   9   2
M  END
>  <reaction>  (23) 
rmg_rxn_15408

>  <mol_properties>  (23) 
{"1": {"label": "*4", "atom_type": "N3d"}, "2": {"label": "*3", "atom_type": "Cd"}, "7": {"label": "*0", "atom_type": "Cs"}, "8": {"label": "*1", "atom_type": "Cs"}, "17": {"label": "*2", "atom_type": "H0"}}

>  <type>  (23) 
unop_19

>  <geom_source>  (23) 
Heuristics

$$$$

     RDKit          3D

 19 17  0  0  0  0  0  0  0  0999 V2000
   -2.6467   -1.1424    1.4688 O   0  0  0  0  0  0  0  0  0  0  0  0
   -1.5707   -0.5158    0.8715 N   0  0  0  0  0  0  0  0  0  0  0  0
   -0.7654   -0.0468    1.7230 C   0  0  0  0  0  0  0  0  0  0  0  0
   -3.1684   -1.4462    0.7234 H   0  0  0  0  0  0  0  0  0  0  0  0
   -0.9252   -0.1399    2.7951 H   0  0  0  0  0  0  0  0  0  0  0  0
    1.3398   -0.2232   -2.8544 C   0  0  0  0  0  0  0  0  0  0  0  0
    1.3398   -0.2232   -1.3317 C   0  0  0  0  0  0  0  0  0  0  0  0
    1.3398    1.1792   -0.7344 C   0  0  0  0  0  0  0  0  0  0  0  0
    1.3398    1.1792    0.7883 C   0  0  0  0  0  3  0  0  0  0  0  0
    2.2214    0.2901   -3.2458 H   0  0  0  0  0  0  0  0  0  0  0  0
    0.4583    0.2901   -3.2458 H   0  0  0  0  0  0  0  0  0  0  0  0
    1.3398   -1.2383   -3.2548 H   0  0  0  0  0  0  0  0  0  0  0  0
    0.4648   -0.7691   -0.9644 H   0  0  0  0  0  0  0  0  0  0  0  0
    2.2149   -0.7691   -0.9644 H   0  0  0  0  0  0  0  0  0  0  0  0
    0.4648    1.7250   -1.1017 H   0  0  0  0  0  0  0  0  0  0  0  0
    2.2149    1.7250   -1.1017 H   0  0  0  0  0  0  0  0  0  0  0  0
    2.2214    0.6658    1.1797 H   0  0  0  0  0  0  0  0  0  0  0  0
    0.2820    0.5631    1.2580 H   0  0  0  0  0  0  0  0  0  0  0  0
    1.3398    2.1943    1.1887 H   0  0  0  0  0  0  0  0  0  0  0  0
  1  2  1  0
  1  4  1  0
  2  3  2  3
  3  5  1  0
  3 18  1  0
  6  7  1  0
  6 10  1  0
  6 11  1  0
  6 12  1  0
  7  8  1  0
  7 13  1  0
  7 14  1  0
  8  9  1  0
  8 15  1  0
  8 16  1  0
  9 17  1  0
  9 19  1  0
M  RAD  1   9   2
M  END
>  <reaction>  (24) 
rmg_rxn_15408

>  <mol_properties>  (24) 
{"1": {"label": "*4", "atom_type": "N3d"}, "2": {"label": "*3", "atom_type": "Cd"}, "7": {"label": "*0", "atom_type": "Cs"}, "8": {"label": "*1", "atom_type": "Cs"}, "17": {"label": "*2", "atom_type": "H0"}}

>  <type>  (24) 
unop_20

>  <geom_source>  (24) 
Heuristics

$$$$

     RDKit          3D

 19 17  0  0  0  0  0  0  0  0999 V2000
    4.7442    1.0974   -0.7070 O   0  0  0  0  0  0  0  0  0  0  0  0
    3.6539    0.7531    0.0570 N   0  0  0  0  0  0  0  0  0  0  0  0
   -2.2244   -0.8352    0.3503 C   0  0  0  0  0  0  0  0  0  0  0  0
   -1.0732   -0.3152    1.2236 C   0  0  0  0  0  0  0  0  0  0  0  0
   -2.6846    0.1884   -0.6871 C   0  0  0  0  0  0  0  0  0  0  0  0
    0.2379   -0.1879    0.4535 C   0  0  0  0  0  3  0  0  0  0  0  0
    2.6051    0.2357   -0.4920 C   0  0  0  0  0  0  0  0  0  0  0  0
   -1.9220   -1.7745   -0.1616 H   0  0  0  0  0  0  0  0  0  0  0  0
   -3.0860   -1.0743    1.0107 H   0  0  0  0  0  0  0  0  0  0  0  0
   -0.9122   -1.0282    2.0600 H   0  0  0  0  0  0  0  0  0  0  0  0
   -1.3394    0.6687    1.6664 H   0  0  0  0  0  0  0  0  0  0  0  0
   -3.5792   -0.2006   -1.2174 H   0  0  0  0  0  0  0  0  0  0  0  0
   -2.9548    1.1464   -0.1943 H   0  0  0  0  0  0  0  0  0  0  0  0
   -1.8886    0.3705   -1.4387 H   0  0  0  0  0  0  0  0  0  0  0  0
    0.5152   -1.1513   -0.0249 H   0  0  0  0  0  0  0  0  0  0  0  0
    0.1852    0.6209   -0.3045 H   0  0  0  0  0  0  0  0  0  0  0  0
    2.5691    0.0656   -1.5608 H   0  0  0  0  0  0  0  0  0  0  0  0
    1.5921   -0.0816    0.2358 H   0  0  0  0  0  0  0  0  0  0  0  0
    5.5618    1.5023   -0.2688 H   0  0  0  0  0  0  0  0  0  0  0  0
  1  2  1  0
  1 19  1  0
  2  7  2  3
  3  5  1  0
  3  4  1  0
  3  8  1  0
  3  9  1  0
  4  6  1  0
  4 10  1  0
  4 11  1  0
  5 12  1  0
  5 13  1  0
  5 14  1  0
  6 15  1  0
  6 16  1  0
  7 17  1  0
  7 18  1  0
M  RAD  1   6   2
M  END
>  <reaction>  (25) 
rmg_rxn_15408

>  <mol_properties>  (25) 
{"1": {"label": "*4", "atom_type": "N3d"}, "2": {"label": "*3", "atom_type": "Cd"}, "7": {"label": "*0", "atom_type": "Cs"}, "8": {"label": "*1", "atom_type": "Cs"}, "17": {"label": "*2", "atom_type": "H0"}}

>  <type>  (25) 
unop_21

>  <geom_source>  (25) 
AutoTST

$$$$

     RDKit          3D

 19 17  0  0  0  0  0  0  0  0999 V2000
   -2.2146   -1.6315    1.6725 O   0  0  0  0  0  0  0  0  0  0  0  0
   -1.3825   -0.8011    0.9478 N   0  0  0  0  0  0  0  0  0  0  0  0
   -0.9081    0.1283    1.6581 C   0  0  0  0  0  0  0  0  0  0  0  0
   -2.4998   -2.2795    1.0255 H   0  0  0  0  0  0  0  0  0  0  0  0
   -1.1439    0.2382    2.7144 H   0  0  0  0  0  0  0  0  0  0  0  0
    1.1971   -0.0481   -2.9194 C   0  0  0  0  0  0  0  0  0  0  0  0
    1.1971   -0.0481   -1.3966 C   0  0  0  0  0  0  0  0  0  0  0  0
    1.1971    1.3543   -0.7993 C   0  0  0  0  0  0  0  0  0  0  0  0
    1.1971    1.3543    0.7234 C   0  0  0  0  0  3  0  0  0  0  0  0
    2.0787    0.4653   -3.3107 H   0  0  0  0  0  0  0  0  0  0  0  0
    0.3156    0.4653   -3.3107 H   0  0  0  0  0  0  0  0  0  0  0  0
    1.1971   -1.0632   -3.3197 H   0  0  0  0  0  0  0  0  0  0  0  0
    0.3221   -0.5939   -1.0293 H   0  0  0  0  0  0  0  0  0  0  0  0
    2.0722   -0.5939   -1.0293 H   0  0  0  0  0  0  0  0  0  0  0  0
    0.3221    1.9002   -1.1666 H   0  0  0  0  0  0  0  0  0  0  0  0
    2.0722    1.9002   -1.1666 H   0  0  0  0  0  0  0  0  0  0  0  0
    2.0787    0.8410    1.1148 H   0  0  0  0  0  0  0  0  0  0  0  0
    0.1393    0.7383    1.1931 H   0  0  0  0  0  0  0  0  0  0  0  0
    1.1971    2.3694    1.1238 H   0  0  0  0  0  0  0  0  0  0  0  0
  1  2  1  0
  1  4  1  0
  2  3  2  3
  3  5  1  0
  3 18  1  0
  6  7  1  0
  6 10  1  0
  6 11  1  0
  6 12  1  0
  7  8  1  0
  7 13  1  0
  7 14  1  0
  8  9  1  0
  8 15  1  0
  8 16  1  0
  9 17  1  0
  9 19  1  0
M  RAD  1   9   2
M  END
>  <reaction>  (26) 
rmg_rxn_15408

>  <mol_properties>  (26) 
{"1": {"label": "*4", "atom_type": "N3d"}, "2": {"label": "*3", "atom_type": "Cd"}, "7": {"label": "*0", "atom_type": "Cs"}, "8": {"label": "*1", "atom_type": "Cs"}, "17": {"label": "*2", "atom_type": "H0"}}

>  <type>  (26) 
unop_22

>  <geom_source>  (26) 
gaussian_log

$$$$
