
     RDKit          3D

 13 12  0  0  0  0  0  0  0  0999 V2000
    1.9466    0.1090    0.9245 N   0  0  0  0  0  2  0  0  0  0  0  0
    1.4466   -0.6584   -0.0107 N   0  0  0  0  0  0  0  0  0  0  0  0
    0.1805   -0.8050   -0.2944 C   0  0  0  0  0  3  0  0  0  0  0  0
   -0.8545   -0.0639    0.4699 C   0  0  0  0  0  0  0  0  0  0  0  0
   -1.0896   -0.6293    1.8757 C   0  0  0  0  0  0  0  0  0  0  0  0
    2.9554    0.0279    0.8555 H   0  0  0  0  0  0  0  0  0  0  0  0
    2.0766   -1.2050   -0.5920 H   0  0  0  0  0  0  0  0  0  0  0  0
   -0.0468   -1.4951   -1.0924 H   0  0  0  0  0  0  0  0  0  0  0  0
   -1.7858   -0.0735   -0.0987 H   0  0  0  0  0  0  0  0  0  0  0  0
   -0.5293    0.9778    0.5630 H   0  0  0  0  0  0  0  0  0  0  0  0
   -0.1608   -0.6126    2.4456 H   0  0  0  0  0  0  0  0  0  0  0  0
   -1.4532   -1.6574    1.8281 H   0  0  0  0  0  0  0  0  0  0  0  0
   -1.8300   -0.0307    2.4087 H   0  0  0  0  0  0  0  0  0  0  0  0
  1  2  1  0
  1  6  1  0
  2  3  1  0
  2  7  1  0
  3  4  1  0
  3  8  1  0
  4  5  1  0
  4  9  1  0
  4 10  1  0
  5 11  1  0
  5 12  1  0
  5 13  1  0
M  CHG  2   1  -1   3   1
M  END
>  <reaction>  (1) 
rmg_rxn_16690

>  <mol_properties>  (1) 
{"0": {"label": "donator", "atom_type": "N1sc"}, "5": {"label": "d_hydrogen", "atom_type": "H0"}}

>  <type>  (1) 
r1h

$$$$

     RDKit          3D

  7  6  0  0  0  0  0  0  0  0999 V2000
   -0.8790   -0.0485   -0.1139 C   0  0  0  0  0  0  0  0  0  0  0  0
    0.2566    0.5075    0.6625 C   0  0  0  0  0  3  0  0  0  0  0  0
    1.4635    0.2854    0.5626 N   0  0  0  0  0  0  0  0  0  0  0  0
   -0.5287   -0.7543   -0.8725 H   0  0  0  0  0  0  0  0  0  0  0  0
   -1.5724   -0.5516    0.5613 H   0  0  0  0  0  0  0  0  0  0  0  0
   -1.4260    0.7636   -0.5947 H   0  0  0  0  0  0  0  0  0  0  0  0
    2.0849    0.7767    1.2004 H   0  0  0  0  0  0  0  0  0  0  0  0
  1  2  1  0
  1  4  1  0
  1  5  1  0
  1  6  1  0
  2  3  2  3
  3  7  1  0
M  RAD  1   2   2
M  END
>  <reaction>  (2) 
rmg_rxn_16690

>  <mol_properties>  (2) 
{"1": {"label": "acceptor", "atom_type": "Cd"}}

>  <type>  (2) 
r2

$$$$

     RDKit          3D

  8  7  0  0  0  0  0  0  0  0999 V2000
    0.9548    0.1194   -0.0790 C   0  0  0  0  0  0  0  0  0  0  0  0
   -0.4838   -0.2649    0.0193 C   0  0  0  0  0  0  0  0  0  0  0  0
   -0.8933   -1.1081    0.8664 N   0  0  0  0  0  0  0  0  0  0  0  0
    1.3360   -0.0983   -1.0800 H   0  0  0  0  0  0  0  0  0  0  0  0
    1.0698    1.1948    0.0786 H   0  0  0  0  0  0  0  0  0  0  0  0
    1.5426   -0.4219    0.6602 H   0  0  0  0  0  0  0  0  0  0  0  0
   -1.1575    0.2324   -0.6905 H   0  0  0  0  0  0  0  0  0  0  0  0
   -1.8989   -1.2455    0.7886 H   0  0  0  0  0  0  0  0  0  0  0  0
  1  2  1  0
  1  4  1  0
  1  5  1  0
  1  6  1  0
  2  3  2  3
  2  7  1  0
  3  8  1  0
M  END
>  <reaction>  (3) 
rmg_rxn_16690

>  <mol_properties>  (3) 
{"1": {"label": "acceptor", "atom_type": "Cd"}, "7": {"label": "a_hydrogen", "atom_type": "H0"}}

>  <type>  (3) 
r2h

$$$$

     RDKit          3D

 20 18  0  0  0  0  0  0  0  0999 V2000
    3.5249   -0.8626    0.2990 C   0  0  0  0  0  0  0  0  0  0  0  0
    2.3098   -0.0217    0.1188 C   0  0  0  0  0  3  0  0  0  0  0  0
    2.1781    1.2168    0.0399 N   0  0  0  0  0  0  0  0  0  0  0  0
    3.6155   -1.5554   -0.5393 H   0  0  0  0  0  0  0  0  0  0  0  0
    4.4332   -0.2566    0.3697 H   0  0  0  0  0  0  0  0  0  0  0  0
    3.4198   -1.4653    1.2026 H   0  0  0  0  0  0  0  0  0  0  0  0
    3.0350    1.7696    0.1081 H   0  0  0  0  0  0  0  0  0  0  0  0
   -0.1117   -0.7760   -0.1158 N   0  0  0  0  0  2  0  0  0  0  0  0
   -0.4844    0.4659   -0.2461 N   0  0  0  0  0  0  0  0  0  0  0  0
   -1.6880    0.9213   -0.4548 C   0  0  0  0  0  3  0  0  0  0  0  0
   -2.8434   -0.0078   -0.5654 C   0  0  0  0  0  0  0  0  0  0  0  0
   -3.2685   -0.6095    0.7792 C   0  0  0  0  0  0  0  0  0  0  0  0
    1.0704   -0.6795    0.0161 H   0  0  0  0  0  0  0  0  0  0  0  0
    0.2854    1.1606   -0.1791 H   0  0  0  0  0  0  0  0  0  0  0  0
   -1.7782    1.9947   -0.5212 H   0  0  0  0  0  0  0  0  0  0  0  0
   -2.5657   -0.8240   -1.2421 H   0  0  0  0  0  0  0  0  0  0  0  0
   -3.6822    0.5229   -1.0187 H   0  0  0  0  0  0  0  0  0  0  0  0
   -2.4340   -1.1429    1.2352 H   0  0  0  0  0  0  0  0  0  0  0  0
   -4.0902   -1.3144    0.6418 H   0  0  0  0  0  0  0  0  0  0  0  0
   -3.5988    0.1698    1.4681 H   0  0  0  0  0  0  0  0  0  0  0  0
  1  2  1  0
  1  4  1  0
  1  5  1  0
  1  6  1  0
  2  3  2  3
  3  7  1  0
  8  9  1  0
  8 13  1  0
  9 10  1  0
  9 14  1  0
 10 11  1  0
 10 15  1  0
 11 12  1  0
 11 16  1  0
 11 17  1  0
 12 18  1  0
 12 19  1  0
 12 20  1  0
M  CHG  2   8  -1  10   1
M  RAD  1   2   2
M  END
>  <reaction>  (4) 
rmg_rxn_16690

>  <mol_properties>  (4) 
{"1": {"label": "*3", "atom_type": "Cd"}, "2": {"label": "*4", "atom_type": "N3d"}, "7": {"label": "*1", "atom_type": "N1sc"}, "8": {"label": "*0", "atom_type": "N3s"}, "12": {"label": "*2", "atom_type": "H0"}}

>  <type>  (4) 
ts

$$$$

     RDKit          3D

 20 18  0  0  0  0  0  0  0  0999 V2000
    3.6830   -0.8171    0.0953 C   0  0  0  0  0  0  0  0  0  0  0  0
    2.4208   -0.0440    0.0724 C   0  0  0  0  0  3  0  0  0  0  0  0
    2.1785    1.1697    0.2105 N   0  0  0  0  0  0  0  0  0  0  0  0
    3.7984   -1.3376   -0.8542 H   0  0  0  0  0  0  0  0  0  0  0  0
    4.5531   -0.1779    0.2691 H   0  0  0  0  0  0  0  0  0  0  0  0
    3.6240   -1.5715    0.8783 H   0  0  0  0  0  0  0  0  0  0  0  0
    2.9328    1.8412    0.3758 H   0  0  0  0  0  0  0  0  0  0  0  0
    0.0689   -0.8405   -0.2689 N   0  0  0  0  0  2  0  0  0  0  0  0
   -0.4030    0.3392   -0.1690 N   0  0  0  0  0  0  0  0  0  0  0  0
   -1.6378    0.7530   -0.2737 C   0  0  0  0  0  3  0  0  0  0  0  0
   -2.7681   -0.1940   -0.5028 C   0  0  0  0  0  0  0  0  0  0  0  0
   -3.6321   -0.3691    0.7496 C   0  0  0  0  0  0  0  0  0  0  0  0
    1.2873   -0.7041   -0.1285 H   0  0  0  0  0  0  0  0  0  0  0  0
    0.3218    1.0779    0.0101 H   0  0  0  0  0  0  0  0  0  0  0  0
   -1.8248    1.8040   -0.1353 H   0  0  0  0  0  0  0  0  0  0  0  0
   -2.3434   -1.1572   -0.7914 H   0  0  0  0  0  0  0  0  0  0  0  0
   -3.3978    0.1714   -1.3196 H   0  0  0  0  0  0  0  0  0  0  0  0
   -3.0344   -0.7679    1.5657 H   0  0  0  0  0  0  0  0  0  0  0  0
   -4.4512   -1.0563    0.5517 H   0  0  0  0  0  0  0  0  0  0  0  0
   -4.0491    0.5867    1.0607 H   0  0  0  0  0  0  0  0  0  0  0  0
  1  2  1  0
  1  4  1  0
  1  5  1  0
  1  6  1  0
  2  3  2  3
  3  7  1  0
  8  9  1  0
  8 13  1  0
  9 10  1  0
  9 14  1  0
 10 11  1  0
 10 15  1  0
 11 12  1  0
 11 16  1  0
 11 17  1  0
 12 18  1  0
 12 19  1  0
 12 20  1  0
M  CHG  2   8  -1  10   1
M  RAD  1   2   2
M  END
>  <reaction>  (5) 
rmg_rxn_16690

>  <mol_properties>  (5) 
{"1": {"label": "*3", "atom_type": "Cd"}, "2": {"label": "*4", "atom_type": "N3d"}, "7": {"label": "*1", "atom_type": "N1sc"}, "8": {"label": "*0", "atom_type": "N3s"}, "12": {"label": "*2", "atom_type": "H0"}}

>  <type>  (5) 
unop_1

>  <geom_source>  (5) 
crest_best.xyz

$$$$

     RDKit          3D

 20 18  0  0  0  0  0  0  0  0999 V2000
    3.0086    1.2497    1.2431 C   0  0  0  0  0  0  0  0  0  0  0  0
    1.8175    1.5885    0.4103 C   0  0  0  0  0  3  0  0  0  0  0  0
    1.9026    2.3389   -0.6026 N   0  0  0  0  0  0  0  0  0  0  0  0
    3.8988    1.7335    0.8451 H   0  0  0  0  0  0  0  0  0  0  0  0
    2.8499    1.5690    2.2763 H   0  0  0  0  0  0  0  0  0  0  0  0
    3.1590    0.1673    1.2639 H   0  0  0  0  0  0  0  0  0  0  0  0
    0.9942    2.4588   -1.0460 H   0  0  0  0  0  0  0  0  0  0  0  0
    0.2275   -0.3284   -0.0595 N   0  0  0  0  0  2  0  0  0  0  0  0
   -0.9322    0.0192    0.4382 N   0  0  0  0  0  0  0  0  0  0  0  0
   -2.0166   -0.7078    0.4501 C   0  0  0  0  0  3  0  0  0  0  0  0
   -2.0166   -2.0721   -0.1360 C   0  0  0  0  0  0  0  0  0  0  0  0
   -2.0166   -2.0721   -1.6694 C   0  0  0  0  0  0  0  0  0  0  0  0
    0.9912    0.5923    0.1662 H   0  0  0  0  0  0  0  0  0  0  0  0
   -1.0326    0.9360    0.8662 H   0  0  0  0  0  0  0  0  0  0  0  0
   -2.8873   -0.2484    0.8923 H   0  0  0  0  0  0  0  0  0  0  0  0
   -2.8852   -2.6160    0.2390 H   0  0  0  0  0  0  0  0  0  0  0  0
   -1.1186   -2.5932    0.2126 H   0  0  0  0  0  0  0  0  0  0  0  0
   -1.1451   -1.5351   -2.0433 H   0  0  0  0  0  0  0  0  0  0  0  0
   -2.9168   -1.5947   -2.0606 H   0  0  0  0  0  0  0  0  0  0  0  0
   -1.9798   -3.0937   -2.0508 H   0  0  0  0  0  0  0  0  0  0  0  0
  1  2  1  0
  1  4  1  0
  1  5  1  0
  1  6  1  0
  2  3  2  3
  3  7  1  0
  8  9  1  0
  8 13  1  0
  9 10  1  0
  9 14  1  0
 10 11  1  0
 10 15  1  0
 11 12  1  0
 11 16  1  0
 11 17  1  0
 12 18  1  0
 12 19  1  0
 12 20  1  0
M  CHG  2   8  -1  10   1
M  RAD  1   2   2
M  END
>  <reaction>  (6) 
rmg_rxn_16690

>  <mol_properties>  (6) 
{"1": {"label": "*3", "atom_type": "Cd"}, "2": {"label": "*4", "atom_type": "N3d"}, "7": {"label": "*1", "atom_type": "N1sc"}, "8": {"label": "*0", "atom_type": "N3s"}, "12": {"label": "*2", "atom_type": "H0"}}

>  <type>  (6) 
unop_2

>  <geom_source>  (6) 
Heuristics

$$$$

     RDKit          3D

 20 18  0  0  0  0  0  0  0  0999 V2000
    1.5895    2.3215    1.5337 C   0  0  0  0  0  0  0  0  0  0  0  0
    1.8773    1.5317    0.3006 C   0  0  0  0  0  3  0  0  0  0  0  0
    3.0024    1.5750   -0.2726 N   0  0  0  0  0  0  0  0  0  0  0  0
    2.4645    2.8993    1.8260 H   0  0  0  0  0  0  0  0  0  0  0  0
    0.7467    2.9959    1.3618 H   0  0  0  0  0  0  0  0  0  0  0  0
    1.3021    1.6545    2.3505 H   0  0  0  0  0  0  0  0  0  0  0  0
    3.0170    0.9750   -1.0947 H   0  0  0  0  0  0  0  0  0  0  0  0
    0.2873   -0.3852   -0.1691 N   0  0  0  0  0  2  0  0  0  0  0  0
   -0.8724   -0.0377    0.3286 N   0  0  0  0  0  0  0  0  0  0  0  0
   -1.9568   -0.7647    0.3404 C   0  0  0  0  0  3  0  0  0  0  0  0
   -1.9568   -2.1290   -0.2457 C   0  0  0  0  0  0  0  0  0  0  0  0
   -1.9568   -2.1290   -1.7791 C   0  0  0  0  0  0  0  0  0  0  0  0
    1.0510    0.5355    0.0565 H   0  0  0  0  0  0  0  0  0  0  0  0
   -0.9728    0.8791    0.7565 H   0  0  0  0  0  0  0  0  0  0  0  0
   -2.8275   -0.3053    0.7827 H   0  0  0  0  0  0  0  0  0  0  0  0
   -2.8254   -2.6729    0.1293 H   0  0  0  0  0  0  0  0  0  0  0  0
   -1.0588   -2.6501    0.1030 H   0  0  0  0  0  0  0  0  0  0  0  0
   -1.0853   -1.5920   -2.1530 H   0  0  0  0  0  0  0  0  0  0  0  0
   -2.8570   -1.6516   -2.1703 H   0  0  0  0  0  0  0  0  0  0  0  0
   -1.9200   -3.1506   -2.1605 H   0  0  0  0  0  0  0  0  0  0  0  0
  1  2  1  0
  1  4  1  0
  1  5  1  0
  1  6  1  0
  2  3  2  3
  3  7  1  0
  8  9  1  0
  8 13  1  0
  9 10  1  0
  9 14  1  0
 10 11  1  0
 10 15  1  0
 11 12  1  0
 11 16  1  0
 11 17  1  0
 12 18  1  0
 12 19  1  0
 12 20  1  0
M  CHG  2   8  -1  10   1
M  RAD  1   2   2
M  END
>  <reaction>  (7) 
rmg_rxn_16690

>  <mol_properties>  (7) 
{"1": {"label": "*3", "atom_type": "Cd"}, "2": {"label": "*4", "atom_type": "N3d"}, "7": {"label": "*1", "atom_type": "N1sc"}, "8": {"label": "*0", "atom_type": "N3s"}, "12": {"label": "*2", "atom_type": "H0"}}

>  <type>  (7) 
unop_3

>  <geom_source>  (7) 
Heuristics

$$$$

     RDKit          3D

 20 18  0  0  0  0  0  0  0  0999 V2000
    3.2729    1.1682    0.6098 C   0  0  0  0  0  0  0  0  0  0  0  0
    1.8408    1.5471    0.4293 C   0  0  0  0  0  3  0  0  0  0  0  0
    1.5016    2.6579   -0.0681 N   0  0  0  0  0  0  0  0  0  0  0  0
    3.9231    1.9677    0.2591 H   0  0  0  0  0  0  0  0  0  0  0  0
    3.4795    0.9646    1.6636 H   0  0  0  0  0  0  0  0  0  0  0  0
    3.4927    0.2500    0.0591 H   0  0  0  0  0  0  0  0  0  0  0  0
    0.4884    2.7433   -0.1145 H   0  0  0  0  0  0  0  0  0  0  0  0
    0.2508   -0.3698   -0.0404 N   0  0  0  0  0  2  0  0  0  0  0  0
   -0.9089   -0.0223    0.4573 N   0  0  0  0  0  0  0  0  0  0  0  0
   -1.9934   -0.7493    0.4691 C   0  0  0  0  0  3  0  0  0  0  0  0
   -1.9934   -2.1135   -0.1170 C   0  0  0  0  0  0  0  0  0  0  0  0
   -1.9934   -2.1135   -1.6504 C   0  0  0  0  0  0  0  0  0  0  0  0
    1.0145    0.5509    0.1852 H   0  0  0  0  0  0  0  0  0  0  0  0
   -1.0093    0.8946    0.8853 H   0  0  0  0  0  0  0  0  0  0  0  0
   -2.8640   -0.2898    0.9114 H   0  0  0  0  0  0  0  0  0  0  0  0
   -2.8619   -2.6575    0.2580 H   0  0  0  0  0  0  0  0  0  0  0  0
   -1.0953   -2.6347    0.2317 H   0  0  0  0  0  0  0  0  0  0  0  0
   -1.1218   -1.5766   -2.0243 H   0  0  0  0  0  0  0  0  0  0  0  0
   -2.8935   -1.6362   -2.0416 H   0  0  0  0  0  0  0  0  0  0  0  0
   -1.9565   -3.1352   -2.0318 H   0  0  0  0  0  0  0  0  0  0  0  0
  1  2  1  0
  1  4  1  0
  1  5  1  0
  1  6  1  0
  2  3  2  3
  3  7  1  0
  8  9  1  0
  8 13  1  0
  9 10  1  0
  9 14  1  0
 10 11  1  0
 10 15  1  0
 11 12  1  0
 11 16  1  0
 11 17  1  0
 12 18  1  0
 12 19  1  0
 12 20  1  0
M  CHG  2   8  -1  10   1
M  RAD  1   2   2
M  END
>  <reaction>  (8) 
rmg_rxn_16690

>  <mol_properties>  (8) 
{"1": {"label": "*3", "atom_type": "Cd"}, "2": {"label": "*4", "atom_type": "N3d"}, "7": {"label": "*1", "atom_type": "N1sc"}, "8": {"label": "*0", "atom_type": "N3s"}, "12": {"label": "*2", "atom_type": "H0"}}

>  <type>  (8) 
unop_4

>  <geom_source>  (8) 
Heuristics

$$$$

     RDKit          3D

 20 18  0  0  0  0  0  0  0  0999 V2000
    1.4975    2.8266   -0.1478 C   0  0  0  0  0  0  0  0  0  0  0  0
    1.8789    1.5116    0.4458 C   0  0  0  0  0  3  0  0  0  0  0  0
    3.0865    1.1769    0.6071 N   0  0  0  0  0  0  0  0  0  0  0  0
    2.3875    3.4016   -0.3975 H   0  0  0  0  0  0  0  0  0  0  0  0
    0.8961    2.6743   -1.0477 H   0  0  0  0  0  0  0  0  0  0  0  0
    0.8813    3.3933    0.5549 H   0  0  0  0  0  0  0  0  0  0  0  0
    3.1566    0.2506    1.0233 H   0  0  0  0  0  0  0  0  0  0  0  0
    0.2889   -0.4054   -0.0240 N   0  0  0  0  0  2  0  0  0  0  0  0
   -0.8707   -0.0578    0.4737 N   0  0  0  0  0  0  0  0  0  0  0  0
   -1.9552   -0.7848    0.4856 C   0  0  0  0  0  3  0  0  0  0  0  0
   -1.9552   -2.1491   -0.1006 C   0  0  0  0  0  0  0  0  0  0  0  0
   -1.9552   -2.1491   -1.6339 C   0  0  0  0  0  0  0  0  0  0  0  0
    1.0526    0.5153    0.2016 H   0  0  0  0  0  0  0  0  0  0  0  0
   -0.9711    0.8590    0.9017 H   0  0  0  0  0  0  0  0  0  0  0  0
   -2.8259   -0.3254    0.9278 H   0  0  0  0  0  0  0  0  0  0  0  0
   -2.8238   -2.6930    0.2744 H   0  0  0  0  0  0  0  0  0  0  0  0
   -1.0572   -2.6702    0.2481 H   0  0  0  0  0  0  0  0  0  0  0  0
   -1.0837   -1.6121   -2.0078 H   0  0  0  0  0  0  0  0  0  0  0  0
   -2.8554   -1.6717   -2.0252 H   0  0  0  0  0  0  0  0  0  0  0  0
   -1.9184   -3.1707   -2.0154 H   0  0  0  0  0  0  0  0  0  0  0  0
  1  2  1  0
  1  4  1  0
  1  5  1  0
  1  6  1  0
  2  3  2  3
  3  7  1  0
  8  9  1  0
  8 13  1  0
  9 10  1  0
  9 14  1  0
 10 11  1  0
 10 15  1  0
 11 12  1  0
 11 16  1  0
 11 17  1  0
 12 18  1  0
 12 19  1  0
 12 20  1  0
M  CHG  2   8  -1  10   1
M  RAD  1   2   2
M  END
>  <reaction>  (9) 
rmg_rxn_16690

>  <mol_properties>  (9) 
{"1": {"label": "*3", "atom_type": "Cd"}, "2": {"label": "*4", "atom_type": "N3d"}, "7": {"label": "*1", "atom_type": "N1sc"}, "8": {"label": "*0", "atom_type": "N3s"}, "12": {"label": "*2", "atom_type": "H0"}}

>  <type>  (9) 
unop_5

>  <geom_source>  (9) 
Heuristics

$$$$

     RDKit          3D

 20 18  0  0  0  0  0  0  0  0999 V2000
    3.2460    1.3433   -0.1140 C   0  0  0  0  0  0  0  0  0  0  0  0
    1.8481    1.5300    0.3741 C   0  0  0  0  0  3  0  0  0  0  0  0
    1.4872    2.5776    0.9812 N   0  0  0  0  0  0  0  0  0  0  0  0
    3.8522    2.2133    0.1321 H   0  0  0  0  0  0  0  0  0  0  0  0
    3.6872    0.4508    0.3370 H   0  0  0  0  0  0  0  0  0  0  0  0
    3.2504    1.1888   -1.1960 H   0  0  0  0  0  0  0  0  0  0  0  0
    0.5035    2.5302    1.2387 H   0  0  0  0  0  0  0  0  0  0  0  0
    0.2581   -0.3869   -0.0957 N   0  0  0  0  0  2  0  0  0  0  0  0
   -0.9015   -0.0394    0.4020 N   0  0  0  0  0  0  0  0  0  0  0  0
   -1.9860   -0.7664    0.4139 C   0  0  0  0  0  3  0  0  0  0  0  0
   -1.9860   -2.1307   -0.1722 C   0  0  0  0  0  0  0  0  0  0  0  0
   -1.9860   -2.1307   -1.7056 C   0  0  0  0  0  0  0  0  0  0  0  0
    1.0218    0.5338    0.1300 H   0  0  0  0  0  0  0  0  0  0  0  0
   -1.0019    0.8774    0.8300 H   0  0  0  0  0  0  0  0  0  0  0  0
   -2.8567   -0.3070    0.8561 H   0  0  0  0  0  0  0  0  0  0  0  0
   -2.8546   -2.6746    0.2028 H   0  0  0  0  0  0  0  0  0  0  0  0
   -1.0880   -2.6518    0.1764 H   0  0  0  0  0  0  0  0  0  0  0  0
   -1.1144   -1.5937   -2.0795 H   0  0  0  0  0  0  0  0  0  0  0  0
   -2.8862   -1.6533   -2.0968 H   0  0  0  0  0  0  0  0  0  0  0  0
   -1.9492   -3.1523   -2.0870 H   0  0  0  0  0  0  0  0  0  0  0  0
  1  2  1  0
  1  4  1  0
  1  5  1  0
  1  6  1  0
  2  3  2  3
  3  7  1  0
  8  9  1  0
  8 13  1  0
  9 10  1  0
  9 14  1  0
 10 11  1  0
 10 15  1  0
 11 12  1  0
 11 16  1  0
 11 17  1  0
 12 18  1  0
 12 19  1  0
 12 20  1  0
M  CHG  2   8  -1  10   1
M  RAD  1   2   2
M  END
>  <reaction>  (10) 
rmg_rxn_16690

>  <mol_properties>  (10) 
{"1": {"label": "*3", "atom_type": "Cd"}, "2": {"label": "*4", "atom_type": "N3d"}, "7": {"label": "*1", "atom_type": "N1sc"}, "8": {"label": "*0", "atom_type": "N3s"}, "12": {"label": "*2", "atom_type": "H0"}}

>  <type>  (10) 
unop_6

>  <geom_source>  (10) 
Heuristics

$$$$

     RDKit          3D

 20 18  0  0  0  0  0  0  0  0999 V2000
    1.9127    2.6088   -0.6060 C   0  0  0  0  0  0  0  0  0  0  0  0
    1.8424    1.5554    0.4487 C   0  0  0  0  0  3  0  0  0  0  0  0
    2.8731    1.1482    1.0554 N   0  0  0  0  0  0  0  0  0  0  0  0
    2.9412    2.9370   -0.7453 H   0  0  0  0  0  0  0  0  0  0  0  0
    1.5206    2.2237   -1.5508 H   0  0  0  0  0  0  0  0  0  0  0  0
    1.2907    3.4634   -0.3279 H   0  0  0  0  0  0  0  0  0  0  0  0
    2.6361    0.4311    1.7378 H   0  0  0  0  0  0  0  0  0  0  0  0
    0.2524   -0.3615   -0.0210 N   0  0  0  0  0  2  0  0  0  0  0  0
   -0.9073   -0.0139    0.4767 N   0  0  0  0  0  0  0  0  0  0  0  0
   -1.9917   -0.7410    0.4885 C   0  0  0  0  0  3  0  0  0  0  0  0
   -1.9917   -2.1052   -0.0976 C   0  0  0  0  0  0  0  0  0  0  0  0
   -1.9917   -2.1052   -1.6310 C   0  0  0  0  0  0  0  0  0  0  0  0
    1.0161    0.5592    0.2046 H   0  0  0  0  0  0  0  0  0  0  0  0
   -1.0076    0.9029    0.9047 H   0  0  0  0  0  0  0  0  0  0  0  0
   -2.8624   -0.2815    0.9308 H   0  0  0  0  0  0  0  0  0  0  0  0
   -2.8603   -2.6491    0.2774 H   0  0  0  0  0  0  0  0  0  0  0  0
   -1.0937   -2.6264    0.2511 H   0  0  0  0  0  0  0  0  0  0  0  0
   -1.1202   -1.5683   -2.0049 H   0  0  0  0  0  0  0  0  0  0  0  0
   -2.8919   -1.6278   -2.0222 H   0  0  0  0  0  0  0  0  0  0  0  0
   -1.9549   -3.1269   -2.0124 H   0  0  0  0  0  0  0  0  0  0  0  0
  1  2  1  0
  1  4  1  0
  1  5  1  0
  1  6  1  0
  2  3  2  3
  3  7  1  0
  8  9  1  0
  8 13  1  0
  9 10  1  0
  9 14  1  0
 10 11  1  0
 10 15  1  0
 11 12  1  0
 11 16  1  0
 11 17  1  0
 12 18  1  0
 12 19  1  0
 12 20  1  0
M  CHG  2   8  -1  10   1
M  RAD  1   2   2
M  END
>  <reaction>  (11) 
rmg_rxn_16690

>  <mol_properties>  (11) 
{"1": {"label": "*3", "atom_type": "Cd"}, "2": {"label": "*4", "atom_type": "N3d"}, "7": {"label": "*1", "atom_type": "N1sc"}, "8": {"label": "*0", "atom_type": "N3s"}, "12": {"label": "*2", "atom_type": "H0"}}

>  <type>  (11) 
unop_7

>  <geom_source>  (11) 
Heuristics

$$$$

     RDKit          3D

 20 18  0  0  0  0  0  0  0  0999 V2000
    2.4294    2.2283   -0.7899 C   0  0  0  0  0  0  0  0  0  0  0  0
    1.8178    1.5880    0.4114 C   0  0  0  0  0  3  0  0  0  0  0  0
    2.4888    1.3485    1.4548 N   0  0  0  0  0  0  0  0  0  0  0  0
    3.4834    2.4354   -0.6132 H   0  0  0  0  0  0  0  0  0  0  0  0
    2.3260    1.5747   -1.6598 H   0  0  0  0  0  0  0  0  0  0  0  0
    1.9086    3.1594   -1.0276 H   0  0  0  0  0  0  0  0  0  0  0  0
    1.9102    0.9112    2.1690 H   0  0  0  0  0  0  0  0  0  0  0  0
    0.2278   -0.3289   -0.0584 N   0  0  0  0  0  2  0  0  0  0  0  0
   -0.9319    0.0187    0.4393 N   0  0  0  0  0  0  0  0  0  0  0  0
   -2.0163   -0.7084    0.4512 C   0  0  0  0  0  3  0  0  0  0  0  0
   -2.0163   -2.0726   -0.1349 C   0  0  0  0  0  0  0  0  0  0  0  0
   -2.0163   -2.0726   -1.6683 C   0  0  0  0  0  0  0  0  0  0  0  0
    0.9915    0.5918    0.1672 H   0  0  0  0  0  0  0  0  0  0  0  0
   -1.0322    0.9355    0.8673 H   0  0  0  0  0  0  0  0  0  0  0  0
   -2.8870   -0.2489    0.8934 H   0  0  0  0  0  0  0  0  0  0  0  0
   -2.8849   -2.6165    0.2401 H   0  0  0  0  0  0  0  0  0  0  0  0
   -1.1183   -2.5938    0.2137 H   0  0  0  0  0  0  0  0  0  0  0  0
   -1.1448   -1.5357   -2.0422 H   0  0  0  0  0  0  0  0  0  0  0  0
   -2.9165   -1.5952   -2.0595 H   0  0  0  0  0  0  0  0  0  0  0  0
   -1.9795   -3.0942   -2.0497 H   0  0  0  0  0  0  0  0  0  0  0  0
  1  2  1  0
  1  4  1  0
  1  5  1  0
  1  6  1  0
  2  3  2  3
  3  7  1  0
  8  9  1  0
  8 13  1  0
  9 10  1  0
  9 14  1  0
 10 11  1  0
 10 15  1  0
 11 12  1  0
 11 16  1  0
 11 17  1  0
 12 18  1  0
 12 19  1  0
 12 20  1  0
M  CHG  2   8  -1  10   1
M  RAD  1   2   2
M  END
>  <reaction>  (12) 
rmg_rxn_16690

>  <mol_properties>  (12) 
{"1": {"label": "*3", "atom_type": "Cd"}, "2": {"label": "*4", "atom_type": "N3d"}, "7": {"label": "*1", "atom_type": "N1sc"}, "8": {"label": "*0", "atom_type": "N3s"}, "12": {"label": "*2", "atom_type": "H0"}}

>  <type>  (12) 
unop_8

>  <geom_source>  (12) 
Heuristics

$$$$

     RDKit          3D

 20 18  0  0  0  0  0  0  0  0999 V2000
    2.5555    1.5228    1.6501 C   0  0  0  0  0  0  0  0  0  0  0  0
    1.8160    1.6000    0.3562 C   0  0  0  0  0  3  0  0  0  0  0  0
    2.3709    1.9967   -0.7073 N   0  0  0  0  0  0  0  0  0  0  0  0
    3.5858    1.8478    1.5173 H   0  0  0  0  0  0  0  0  0  0  0  0
    2.0682    2.1497    2.4013 H   0  0  0  0  0  0  0  0  0  0  0  0
    2.5414    0.4988    2.0323 H   0  0  0  0  0  0  0  0  0  0  0  0
    1.7172    1.9837   -1.4874 H   0  0  0  0  0  0  0  0  0  0  0  0
    0.2260   -0.3170   -0.1136 N   0  0  0  0  0  2  0  0  0  0  0  0
   -0.9336    0.0306    0.3841 N   0  0  0  0  0  0  0  0  0  0  0  0
   -2.0181   -0.6964    0.3960 C   0  0  0  0  0  3  0  0  0  0  0  0
   -2.0181   -2.0607   -0.1902 C   0  0  0  0  0  0  0  0  0  0  0  0
   -2.0181   -2.0607   -1.7236 C   0  0  0  0  0  0  0  0  0  0  0  0
    0.9897    0.6037    0.1120 H   0  0  0  0  0  0  0  0  0  0  0  0
   -1.0340    0.9474    0.8121 H   0  0  0  0  0  0  0  0  0  0  0  0
   -2.8888   -0.2370    0.8382 H   0  0  0  0  0  0  0  0  0  0  0  0
   -2.8867   -2.6046    0.1848 H   0  0  0  0  0  0  0  0  0  0  0  0
   -1.1201   -2.5818    0.1585 H   0  0  0  0  0  0  0  0  0  0  0  0
   -1.1465   -1.5237   -2.0974 H   0  0  0  0  0  0  0  0  0  0  0  0
   -2.9183   -1.5833   -2.1148 H   0  0  0  0  0  0  0  0  0  0  0  0
   -1.9813   -3.0823   -2.1050 H   0  0  0  0  0  0  0  0  0  0  0  0
  1  2  1  0
  1  4  1  0
  1  5  1  0
  1  6  1  0
  2  3  2  3
  3  7  1  0
  8  9  1  0
  8 13  1  0
  9 10  1  0
  9 14  1  0
 10 11  1  0
 10 15  1  0
 11 12  1  0
 11 16  1  0
 11 17  1  0
 12 18  1  0
 12 19  1  0
 12 20  1  0
M  CHG  2   8  -1  10   1
M  RAD  1   2   2
M  END
>  <reaction>  (13) 
rmg_rxn_16690

>  <mol_properties>  (13) 
{"1": {"label": "*3", "atom_type": "Cd"}, "2": {"label": "*4", "atom_type": "N3d"}, "7": {"label": "*1", "atom_type": "N1sc"}, "8": {"label": "*0", "atom_type": "N3s"}, "12": {"label": "*2", "atom_type": "H0"}}

>  <type>  (13) 
unop_9

>  <geom_source>  (13) 
Heuristics

$$$$

     RDKit          3D

 20 18  0  0  0  0  0  0  0  0999 V2000
    3.6830   -0.8171    0.0953 C   0  0  0  0  0  0  0  0  0  0  0  0
    2.4208   -0.0440    0.0724 C   0  0  0  0  0  3  0  0  0  0  0  0
    2.1785    1.1697    0.2105 N   0  0  0  0  0  0  0  0  0  0  0  0
    3.7984   -1.3376   -0.8542 H   0  0  0  0  0  0  0  0  0  0  0  0
    4.5531   -0.1779    0.2691 H   0  0  0  0  0  0  0  0  0  0  0  0
    3.6240   -1.5715    0.8783 H   0  0  0  0  0  0  0  0  0  0  0  0
    2.9328    1.8412    0.3758 H   0  0  0  0  0  0  0  0  0  0  0  0
    0.0689   -0.8405   -0.2689 N   0  0  0  0  0  2  0  0  0  0  0  0
   -0.4030    0.3392   -0.1690 N   0  0  0  0  0  0  0  0  0  0  0  0
   -1.6378    0.7530   -0.2737 C   0  0  0  0  0  3  0  0  0  0  0  0
   -2.7681   -0.1940   -0.5028 C   0  0  0  0  0  0  0  0  0  0  0  0
   -3.6321   -0.3691    0.7496 C   0  0  0  0  0  0  0  0  0  0  0  0
    1.2873   -0.7041   -0.1285 H   0  0  0  0  0  0  0  0  0  0  0  0
    0.3218    1.0779    0.0101 H   0  0  0  0  0  0  0  0  0  0  0  0
   -1.8248    1.8040   -0.1353 H   0  0  0  0  0  0  0  0  0  0  0  0
   -2.3434   -1.1572   -0.7914 H   0  0  0  0  0  0  0  0  0  0  0  0
   -3.3978    0.1714   -1.3196 H   0  0  0  0  0  0  0  0  0  0  0  0
   -3.0344   -0.7679    1.5657 H   0  0  0  0  0  0  0  0  0  0  0  0
   -4.4512   -1.0563    0.5517 H   0  0  0  0  0  0  0  0  0  0  0  0
   -4.0491    0.5867    1.0607 H   0  0  0  0  0  0  0  0  0  0  0  0
  1  2  1  0
  1  4  1  0
  1  5  1  0
  1  6  1  0
  2  3  2  3
  3  7  1  0
  8  9  1  0
  8 13  1  0
  9 10  1  0
  9 14  1  0
 10 11  1  0
 10 15  1  0
 11 12  1  0
 11 16  1  0
 11 17  1  0
 12 18  1  0
 12 19  1  0
 12 20  1  0
M  CHG  2   8  -1  10   1
M  RAD  1   2   2
M  END
>  <reaction>  (14) 
rmg_rxn_16690

>  <mol_properties>  (14) 
{"1": {"label": "*3", "atom_type": "Cd"}, "2": {"label": "*4", "atom_type": "N3d"}, "7": {"label": "*1", "atom_type": "N1sc"}, "8": {"label": "*0", "atom_type": "N3s"}, "12": {"label": "*2", "atom_type": "H0"}}

>  <type>  (14) 
unop_10

>  <geom_source>  (14) 
Heuristics

$$$$

     RDKit          3D

 20 18  0  0  0  0  0  0  0  0999 V2000
    1.2835    2.8384    0.4599 C   0  0  0  0  0  0  0  0  0  0  0  0
    1.9059    1.4833    0.4011 C   0  0  0  0  0  3  0  0  0  0  0  0
    3.1498    1.3260    0.2446 N   0  0  0  0  0  0  0  0  0  0  0  0
    2.0442    3.6094    0.3508 H   0  0  0  0  0  0  0  0  0  0  0  0
    0.5378    2.9458   -0.3320 H   0  0  0  0  0  0  0  0  0  0  0  0
    0.7605    2.9726    1.4102 H   0  0  0  0  0  0  0  0  0  0  0  0
    3.3940    0.3380    0.2286 H   0  0  0  0  0  0  0  0  0  0  0  0
    0.3159   -0.4336   -0.0686 N   0  0  0  0  0  2  0  0  0  0  0  0
   -0.8437   -0.0861    0.4291 N   0  0  0  0  0  0  0  0  0  0  0  0
   -1.9282   -0.8131    0.4410 C   0  0  0  0  0  3  0  0  0  0  0  0
   -1.9282   -2.1773   -0.1452 C   0  0  0  0  0  0  0  0  0  0  0  0
   -1.9282   -2.1773   -1.6786 C   0  0  0  0  0  0  0  0  0  0  0  0
    1.0796    0.4871    0.1570 H   0  0  0  0  0  0  0  0  0  0  0  0
   -0.9441    0.8308    0.8571 H   0  0  0  0  0  0  0  0  0  0  0  0
   -2.7989   -0.3536    0.8832 H   0  0  0  0  0  0  0  0  0  0  0  0
   -2.7968   -2.7213    0.2298 H   0  0  0  0  0  0  0  0  0  0  0  0
   -1.0302   -2.6985    0.2035 H   0  0  0  0  0  0  0  0  0  0  0  0
   -1.0566   -1.6404   -2.0525 H   0  0  0  0  0  0  0  0  0  0  0  0
   -2.8284   -1.7000   -2.0698 H   0  0  0  0  0  0  0  0  0  0  0  0
   -1.8914   -3.1990   -2.0600 H   0  0  0  0  0  0  0  0  0  0  0  0
  1  2  1  0
  1  4  1  0
  1  5  1  0
  1  6  1  0
  2  3  2  3
  3  7  1  0
  8  9  1  0
  8 13  1  0
  9 10  1  0
  9 14  1  0
 10 11  1  0
 10 15  1  0
 11 12  1  0
 11 16  1  0
 11 17  1  0
 12 18  1  0
 12 19  1  0
 12 20  1  0
M  CHG  2   8  -1  10   1
M  RAD  1   2   2
M  END
>  <reaction>  (15) 
rmg_rxn_16690

>  <mol_properties>  (15) 
{"1": {"label": "*3", "atom_type": "Cd"}, "2": {"label": "*4", "atom_type": "N3d"}, "7": {"label": "*1", "atom_type": "N1sc"}, "8": {"label": "*0", "atom_type": "N3s"}, "12": {"label": "*2", "atom_type": "H0"}}

>  <type>  (15) 
unop_11

>  <geom_source>  (15) 
Heuristics

$$$$

     RDKit          3D

 20 18  0  0  0  0  0  0  0  0999 V2000
    2.0383    1.9129    1.7502 C   0  0  0  0  0  0  0  0  0  0  0  0
    1.8401    1.5771    0.3097 C   0  0  0  0  0  3  0  0  0  0  0  0
    2.7585    1.7311   -0.5442 N   0  0  0  0  0  0  0  0  0  0  0  0
    3.0467    2.2878    1.9163 H   0  0  0  0  0  0  0  0  0  0  0  0
    1.3116    2.6661    2.0655 H   0  0  0  0  0  0  0  0  0  0  0  0
    1.8700    1.0289    2.3705 H   0  0  0  0  0  0  0  0  0  0  0  0
    2.4457    1.4517   -1.4717 H   0  0  0  0  0  0  0  0  0  0  0  0
    0.2501   -0.3399   -0.1600 N   0  0  0  0  0  2  0  0  0  0  0  0
   -0.9095    0.0077    0.3377 N   0  0  0  0  0  0  0  0  0  0  0  0
   -1.9940   -0.7193    0.3495 C   0  0  0  0  0  3  0  0  0  0  0  0
   -1.9940   -2.0836   -0.2366 C   0  0  0  0  0  0  0  0  0  0  0  0
   -1.9940   -2.0836   -1.7700 C   0  0  0  0  0  0  0  0  0  0  0  0
    1.0138    0.5808    0.0656 H   0  0  0  0  0  0  0  0  0  0  0  0
   -1.0099    0.9245    0.7657 H   0  0  0  0  0  0  0  0  0  0  0  0
   -2.8647   -0.2599    0.7918 H   0  0  0  0  0  0  0  0  0  0  0  0
   -2.8626   -2.6275    0.1384 H   0  0  0  0  0  0  0  0  0  0  0  0
   -1.0960   -2.6047    0.1121 H   0  0  0  0  0  0  0  0  0  0  0  0
   -1.1224   -1.5466   -2.1439 H   0  0  0  0  0  0  0  0  0  0  0  0
   -2.8942   -1.6062   -2.1612 H   0  0  0  0  0  0  0  0  0  0  0  0
   -1.9572   -3.1052   -2.1514 H   0  0  0  0  0  0  0  0  0  0  0  0
  1  2  1  0
  1  4  1  0
  1  5  1  0
  1  6  1  0
  2  3  2  3
  3  7  1  0
  8  9  1  0
  8 13  1  0
  9 10  1  0
  9 14  1  0
 10 11  1  0
 10 15  1  0
 11 12  1  0
 11 16  1  0
 11 17  1  0
 12 18  1  0
 12 19  1  0
 12 20  1  0
M  CHG  2   8  -1  10   1
M  RAD  1   2   2
M  END
>  <reaction>  (16) 
rmg_rxn_16690

>  <mol_properties>  (16) 
{"1": {"label": "*3", "atom_type": "Cd"}, "2": {"label": "*4", "atom_type": "N3d"}, "7": {"label": "*1", "atom_type": "N1sc"}, "8": {"label": "*0", "atom_type": "N3s"}, "12": {"label": "*2", "atom_type": "H0"}}

>  <type>  (16) 
unop_12

>  <geom_source>  (16) 
Heuristics

$$$$

     RDKit          3D

 20 18  0  0  0  0  0  0  0  0999 V2000
    2.9188    1.7664   -0.6329 C   0  0  0  0  0  0  0  0  0  0  0  0
    1.8213    1.5800    0.3609 C   0  0  0  0  0  3  0  0  0  0  0  0
    1.9720    1.8630    1.5830 N   0  0  0  0  0  0  0  0  0  0  0  0
    3.8079    2.1624   -0.1453 H   0  0  0  0  0  0  0  0  0  0  0  0
    3.1586    0.8144   -1.1134 H   0  0  0  0  0  0  0  0  0  0  0  0
    2.6000    2.4506   -1.4234 H   0  0  0  0  0  0  0  0  0  0  0  0
    1.1221    1.6726    2.1097 H   0  0  0  0  0  0  0  0  0  0  0  0
    0.2313   -0.3369   -0.1088 N   0  0  0  0  0  2  0  0  0  0  0  0
   -0.9284    0.0107    0.3889 N   0  0  0  0  0  0  0  0  0  0  0  0
   -2.0128   -0.7164    0.4007 C   0  0  0  0  0  3  0  0  0  0  0  0
   -2.0128   -2.0806   -0.1854 C   0  0  0  0  0  0  0  0  0  0  0  0
   -2.0128   -2.0806   -1.7188 C   0  0  0  0  0  0  0  0  0  0  0  0
    0.9950    0.5838    0.1168 H   0  0  0  0  0  0  0  0  0  0  0  0
   -1.0287    0.9275    0.8169 H   0  0  0  0  0  0  0  0  0  0  0  0
   -2.8835   -0.2569    0.8430 H   0  0  0  0  0  0  0  0  0  0  0  0
   -2.8814   -2.6245    0.1896 H   0  0  0  0  0  0  0  0  0  0  0  0
   -1.1148   -2.6018    0.1633 H   0  0  0  0  0  0  0  0  0  0  0  0
   -1.1413   -1.5437   -2.0927 H   0  0  0  0  0  0  0  0  0  0  0  0
   -2.9130   -1.6032   -2.1100 H   0  0  0  0  0  0  0  0  0  0  0  0
   -1.9760   -3.1023   -2.1002 H   0  0  0  0  0  0  0  0  0  0  0  0
  1  2  1  0
  1  4  1  0
  1  5  1  0
  1  6  1  0
  2  3  2  3
  3  7  1  0
  8  9  1  0
  8 13  1  0
  9 10  1  0
  9 14  1  0
 10 11  1  0
 10 15  1  0
 11 12  1  0
 11 16  1  0
 11 17  1  0
 12 18  1  0
 12 19  1  0
 12 20  1  0
M  CHG  2   8  -1  10   1
M  RAD  1   2   2
M  END
>  <reaction>  (17) 
rmg_rxn_16690

>  <mol_properties>  (17) 
{"1": {"label": "*3", "atom_type": "Cd"}, "2": {"label": "*4", "atom_type": "N3d"}, "7": {"label": "*1", "atom_type": "N1sc"}, "8": {"label": "*0", "atom_type": "N3s"}, "12": {"label": "*2", "atom_type": "H0"}}

>  <type>  (17) 
unop_13

>  <geom_source>  (17) 
Heuristics

$$$$

     RDKit          3D

 20 18  0  0  0  0  0  0  0  0999 V2000
    1.3174    2.6538    1.0663 C   0  0  0  0  0  0  0  0  0  0  0  0
    1.9055    1.4910    0.3390 C   0  0  0  0  0  3  0  0  0  0  0  0
    3.1177    1.4696   -0.0167 N   0  0  0  0  0  0  0  0  0  0  0  0
    2.0712    3.4235    1.2220 H   0  0  0  0  0  0  0  0  0  0  0  0
    0.4813    3.0703    0.4987 H   0  0  0  0  0  0  0  0  0  0  0  0
    0.9181    2.3324    2.0316 H   0  0  0  0  0  0  0  0  0  0  0  0
    3.3420    0.6015   -0.4985 H   0  0  0  0  0  0  0  0  0  0  0  0
    0.3155   -0.4260   -0.1308 N   0  0  0  0  0  2  0  0  0  0  0  0
   -0.8441   -0.0784    0.3669 N   0  0  0  0  0  0  0  0  0  0  0  0
   -1.9286   -0.8054    0.3788 C   0  0  0  0  0  3  0  0  0  0  0  0
   -1.9286   -2.1697   -0.2074 C   0  0  0  0  0  0  0  0  0  0  0  0
   -1.9286   -2.1697   -1.7408 C   0  0  0  0  0  0  0  0  0  0  0  0
    1.0792    0.4947    0.0948 H   0  0  0  0  0  0  0  0  0  0  0  0
   -0.9445    0.8384    0.7949 H   0  0  0  0  0  0  0  0  0  0  0  0
   -2.7993   -0.3460    0.8210 H   0  0  0  0  0  0  0  0  0  0  0  0
   -2.7972   -2.7136    0.1676 H   0  0  0  0  0  0  0  0  0  0  0  0
   -1.0306   -2.6908    0.1413 H   0  0  0  0  0  0  0  0  0  0  0  0
   -1.0570   -1.6327   -2.1146 H   0  0  0  0  0  0  0  0  0  0  0  0
   -2.8288   -1.6923   -2.1320 H   0  0  0  0  0  0  0  0  0  0  0  0
   -1.8918   -3.1913   -2.1222 H   0  0  0  0  0  0  0  0  0  0  0  0
  1  2  1  0
  1  4  1  0
  1  5  1  0
  1  6  1  0
  2  3  2  3
  3  7  1  0
  8  9  1  0
  8 13  1  0
  9 10  1  0
  9 14  1  0
 10 11  1  0
 10 15  1  0
 11 12  1  0
 11 16  1  0
 11 17  1  0
 12 18  1  0
 12 19  1  0
 12 20  1  0
M  CHG  2   8  -1  10   1
M  RAD  1   2   2
M  END
>  <reaction>  (18) 
rmg_rxn_16690

>  <mol_properties>  (18) 
{"1": {"label": "*3", "atom_type": "Cd"}, "2": {"label": "*4", "atom_type": "N3d"}, "7": {"label": "*1", "atom_type": "N1sc"}, "8": {"label": "*0", "atom_type": "N3s"}, "12": {"label": "*2", "atom_type": "H0"}}

>  <type>  (18) 
unop_14

>  <geom_source>  (18) 
Heuristics

$$$$

     RDKit          3D

 20 18  0  0  0  0  0  0  0  0999 V2000
    1.5895    2.3215    1.5337 C   0  0  0  0  0  0  0  0  0  0  0  0
    1.8773    1.5317    0.3006 C   0  0  0  0  0  3  0  0  0  0  0  0
    3.0024    1.5750   -0.2726 N   0  0  0  0  0  0  0  0  0  0  0  0
    2.4645    2.8993    1.8260 H   0  0  0  0  0  0  0  0  0  0  0  0
    0.7467    2.9958    1.3618 H   0  0  0  0  0  0  0  0  0  0  0  0
    1.3021    1.6545    2.3506 H   0  0  0  0  0  0  0  0  0  0  0  0
    3.0170    0.9750   -1.0947 H   0  0  0  0  0  0  0  0  0  0  0  0
    0.2873   -0.3852   -0.1691 N   0  0  0  0  0  2  0  0  0  0  0  0
   -0.8724   -0.0377    0.3286 N   0  0  0  0  0  0  0  0  0  0  0  0
   -1.9568   -0.7647    0.3404 C   0  0  0  0  0  3  0  0  0  0  0  0
   -1.9568   -2.1290   -0.2457 C   0  0  0  0  0  0  0  0  0  0  0  0
   -1.9568   -2.1290   -1.7791 C   0  0  0  0  0  0  0  0  0  0  0  0
    1.0510    0.5354    0.0565 H   0  0  0  0  0  0  0  0  0  0  0  0
   -0.9728    0.8791    0.7565 H   0  0  0  0  0  0  0  0  0  0  0  0
   -2.8275   -0.3053    0.7826 H   0  0  0  0  0  0  0  0  0  0  0  0
   -2.8254   -2.6729    0.1293 H   0  0  0  0  0  0  0  0  0  0  0  0
   -1.0588   -2.6501    0.1030 H   0  0  0  0  0  0  0  0  0  0  0  0
   -1.0853   -1.5920   -2.1530 H   0  0  0  0  0  0  0  0  0  0  0  0
   -2.8570   -1.6516   -2.1703 H   0  0  0  0  0  0  0  0  0  0  0  0
   -1.9200   -3.1506   -2.1605 H   0  0  0  0  0  0  0  0  0  0  0  0
  1  2  1  0
  1  4  1  0
  1  5  1  0
  1  6  1  0
  2  3  2  3
  3  7  1  0
  8  9  1  0
  8 13  1  0
  9 10  1  0
  9 14  1  0
 10 11  1  0
 10 15  1  0
 11 12  1  0
 11 16  1  0
 11 17  1  0
 12 18  1  0
 12 19  1  0
 12 20  1  0
M  CHG  2   8  -1  10   1
M  RAD  1   2   2
M  END
>  <reaction>  (19) 
rmg_rxn_16690

>  <mol_properties>  (19) 
{"1": {"label": "*3", "atom_type": "Cd"}, "2": {"label": "*4", "atom_type": "N3d"}, "7": {"label": "*1", "atom_type": "N1sc"}, "8": {"label": "*0", "atom_type": "N3s"}, "12": {"label": "*2", "atom_type": "H0"}}

>  <type>  (19) 
unop_15

>  <geom_source>  (19) 
gaussian_log

$$$$
