
     RDKit          3D

  8  7  0  0  0  0  0  0  0  0999 V2000
    0.9548    0.1194   -0.0790 C   0  0  0  0  0  0  0  0  0  0  0  0
   -0.4838   -0.2649    0.0193 C   0  0  0  0  0  0  0  0  0  0  0  0
   -0.8933   -1.1081    0.8664 N   0  0  0  0  0  0  0  0  0  0  0  0
    1.3360   -0.0983   -1.0800 H   0  0  0  0  0  0  0  0  0  0  0  0
    1.0698    1.1948    0.0786 H   0  0  0  0  0  0  0  0  0  0  0  0
    1.5426   -0.4219    0.6602 H   0  0  0  0  0  0  0  0  0  0  0  0
   -1.1575    0.2324   -0.6905 H   0  0  0  0  0  0  0  0  0  0  0  0
   -1.8989   -1.2455    0.7886 H   0  0  0  0  0  0  0  0  0  0  0  0
  1  2  1  0
  1  4  1  0
  1  5  1  0
  1  6  1  0
  2  3  2  3
  2  7  1  0
  3  8  1  0
M  END
>  <reaction>  (1) 
rmg_rxn_16731

>  <mol_properties>  (1) 
{"2": {"label": "donator", "atom_type": "N3d"}, "7": {"label": "d_hydrogen", "atom_type": "H0"}}

>  <type>  (1) 
r1h

$$$$

     RDKit          3D

 13 12  0  0  0  0  0  0  0  0999 V2000
    2.6140   -0.1760    0.1061 C   0  0  0  0  0  3  0  0  0  0  0  0
    1.7369    0.6015    0.7849 O   0  0  0  0  0  0  0  0  0  0  0  0
    0.3829    0.2955    0.5984 C   0  0  0  0  0  0  0  0  0  0  0  0
    0.0214   -0.9610    1.0915 O   0  0  0  0  0  0  0  0  0  0  0  0
   -0.0421   -1.1265    2.4384 C   0  0  0  0  0  0  0  0  0  0  0  0
    0.3542   -0.2893    3.3854 C   0  0  0  0  0  0  0  0  0  0  0  0
    3.6468    0.0574    0.3129 H   0  0  0  0  0  0  0  0  0  0  0  0
    2.2997   -1.1687   -0.1909 H   0  0  0  0  0  0  0  0  0  0  0  0
    0.1461    0.2666   -0.4670 H   0  0  0  0  0  0  0  0  0  0  0  0
   -0.1746    1.0839    1.1083 H   0  0  0  0  0  0  0  0  0  0  0  0
   -0.4863   -2.0871    2.6674 H   0  0  0  0  0  0  0  0  0  0  0  0
    0.8422    0.6530    3.1826 H   0  0  0  0  0  0  0  0  0  0  0  0
    0.2043   -0.5722    4.4170 H   0  0  0  0  0  0  0  0  0  0  0  0
  1  2  1  0
  1  7  1  0
  1  8  1  0
  2  3  1  0
  3  4  1  0
  3  9  1  0
  3 10  1  0
  4  5  1  0
  5  6  2  3
  5 11  1  0
  6 12  1  0
  6 13  1  0
M  RAD  1   1   2
M  END
>  <reaction>  (2) 
rmg_rxn_16731

>  <mol_properties>  (2) 
{"0": {"label": "acceptor", "atom_type": "Cs"}}

>  <type>  (2) 
r2

$$$$

     RDKit          3D

 14 13  0  0  0  0  0  0  0  0999 V2000
    2.5054    0.2488   -0.1285 C   0  0  0  0  0  0  0  0  0  0  0  0
    1.6536   -0.7670   -0.1134 C   0  0  0  0  0  0  0  0  0  0  0  0
    0.3356   -0.7549    0.2027 O   0  0  0  0  0  0  0  0  0  0  0  0
   -0.2915    0.4928    0.3821 C   0  0  0  0  0  0  0  0  0  0  0  0
    0.0856    1.1552    1.5361 O   0  0  0  0  0  0  0  0  0  0  0  0
   -0.2716    0.4873    2.7263 C   0  0  0  0  0  0  0  0  0  0  0  0
    2.2401    1.2518    0.1721 H   0  0  0  0  0  0  0  0  0  0  0  0
    3.5238    0.0603   -0.4356 H   0  0  0  0  0  0  0  0  0  0  0  0
    1.9585   -1.7731   -0.3755 H   0  0  0  0  0  0  0  0  0  0  0  0
   -1.3614    0.2581    0.3922 H   0  0  0  0  0  0  0  0  0  0  0  0
   -0.0461    1.1566   -0.4508 H   0  0  0  0  0  0  0  0  0  0  0  0
    0.2742   -0.4533    2.8364 H   0  0  0  0  0  0  0  0  0  0  0  0
   -0.0163    1.1503    3.5504 H   0  0  0  0  0  0  0  0  0  0  0  0
   -1.3482    0.2791    2.7513 H   0  0  0  0  0  0  0  0  0  0  0  0
  1  2  2  3
  1  7  1  0
  1  8  1  0
  2  3  1  0
  2  9  1  0
  3  4  1  0
  4  5  1  0
  4 10  1  0
  4 11  1  0
  5  6  1  0
  6 12  1  0
  6 13  1  0
  6 14  1  0
M  END
>  <reaction>  (3) 
rmg_rxn_16731

>  <mol_properties>  (3) 
{"0": {"label": "a_hydrogen", "atom_type": "H0"}, "1": {"label": "acceptor", "atom_type": "Cs"}}

>  <type>  (3) 
r2h

$$$$

     RDKit          3D

 21 19  0  0  0  0  0  0  0  0999 V2000
   -0.7646    0.9535   -2.9591 C   0  0  0  0  0  0  0  0  0  0  0  0
   -0.5928    1.0969   -1.4778 C   0  0  0  0  0  0  0  0  0  0  0  0
    0.3086    1.8063   -0.9666 N   0  0  0  0  0  0  0  0  0  0  0  0
   -0.6722   -0.0993   -3.2363 H   0  0  0  0  0  0  0  0  0  0  0  0
   -1.7646    1.2808   -3.2534 H   0  0  0  0  0  0  0  0  0  0  0  0
   -0.0186    1.5387   -3.4938 H   0  0  0  0  0  0  0  0  0  0  0  0
   -1.2958    0.5268   -0.8567 H   0  0  0  0  0  0  0  0  0  0  0  0
    0.2079    1.6887    0.2572 H   0  0  0  0  0  0  0  0  0  0  0  0
   -0.1205    1.4164    1.5594 C   0  0  0  0  0  3  0  0  0  0  0  0
   -0.4741    0.0886    1.7122 O   0  0  0  0  0  0  0  0  0  0  0  0
    0.5886   -0.7977    1.8731 C   0  0  0  0  0  0  0  0  0  0  0  0
    1.3622   -0.9710    0.7193 O   0  0  0  0  0  0  0  0  0  0  0  0
    0.8622   -1.7325   -0.2820 C   0  0  0  0  0  0  0  0  0  0  0  0
   -0.3542   -2.2488   -0.3934 C   0  0  0  0  0  0  0  0  0  0  0  0
   -0.9840    2.0478    1.7526 H   0  0  0  0  0  0  0  0  0  0  0  0
    0.7755    1.7028    2.1168 H   0  0  0  0  0  0  0  0  0  0  0  0
    0.1506   -1.7485    2.1849 H   0  0  0  0  0  0  0  0  0  0  0  0
    1.2865   -0.4228    2.6267 H   0  0  0  0  0  0  0  0  0  0  0  0
    1.6210   -1.8851   -1.0393 H   0  0  0  0  0  0  0  0  0  0  0  0
   -0.5752   -2.8647   -1.2529 H   0  0  0  0  0  0  0  0  0  0  0  0
   -1.1452   -2.0743    0.3219 H   0  0  0  0  0  0  0  0  0  0  0  0
  1  2  1  0
  1  4  1  0
  1  5  1  0
  1  6  1  0
  2  3  2  3
  2  7  1  0
  3  8  1  0
  9 10  1  0
  9 15  1  0
  9 16  1  0
 10 11  1  0
 11 12  1  0
 11 17  1  0
 11 18  1  0
 12 13  1  0
 13 14  2  3
 13 19  1  0
 14 20  1  0
 14 21  1  0
M  RAD  1   9   2
M  END
>  <reaction>  (4) 
rmg_rxn_16731

>  <mol_properties>  (4) 
{"1": {"label": "*0", "atom_type": "Cd"}, "2": {"label": "*1", "atom_type": "N3d"}, "7": {"label": "*2", "atom_type": "H0"}, "8": {"label": "*3", "atom_type": "Cs"}, "9": {"label": "*4", "atom_type": "O2s"}}

>  <type>  (4) 
ts

$$$$

     RDKit          3D

 21 19  0  0  0  0  0  0  0  0999 V2000
   -1.9769    0.2879    1.2670 C   0  0  0  0  0  0  0  0  0  0  0  0
   -1.7953    0.1648   -0.2133 C   0  0  0  0  0  0  0  0  0  0  0  0
   -2.2436    0.6819   -1.1987 N   0  0  0  0  0  2  0  0  0  0  0  0
   -2.2748   -0.6758    1.6772 H   0  0  0  0  0  0  0  0  0  0  0  0
   -1.0285    0.5783    1.7164 H   0  0  0  0  0  0  0  0  0  0  0  0
   -2.7360    1.0338    1.4871 H   0  0  0  0  0  0  0  0  0  0  0  0
   -1.0007   -0.6456   -0.3655 H   0  0  0  0  0  0  0  0  0  0  0  0
    0.2381    1.9041   -0.7397 H   0  0  0  0  0  0  0  0  0  0  0  0
    0.9793    2.0944    0.0411 C   0  0  0  0  0  0  0  0  0  0  0  0
    1.3526    0.8984    0.7049 O   0  0  0  0  0  0  0  0  0  0  0  0
    1.9362   -0.0479   -0.1287 C   0  0  0  0  0  0  0  0  0  0  0  0
    1.0330   -0.6845   -0.9907 O   0  0  0  0  0  0  0  0  0  0  0  0
    0.0866   -1.5303   -0.4402 C   0  0  0  0  0  0  0  0  0  0  0  0
    0.1605   -2.0909    0.8064 C   0  0  0  0  0  0  0  0  0  0  0  0
    0.5524    2.7445    0.8013 H   0  0  0  0  0  0  0  0  0  0  0  0
    1.8576    2.5736   -0.4034 H   0  0  0  0  0  0  0  0  0  0  0  0
    2.4299   -0.7766    0.5282 H   0  0  0  0  0  0  0  0  0  0  0  0
    2.6764    0.4107   -0.8002 H   0  0  0  0  0  0  0  0  0  0  0  0
   -0.3465   -2.1121   -1.2531 H   0  0  0  0  0  0  0  0  0  0  0  0
   -0.5133   -2.8872    1.0607 H   0  0  0  0  0  0  0  0  0  0  0  0
    0.7210   -1.6478    1.6077 H   0  0  0  0  0  0  0  0  0  0  0  0
  1  2  1  0
  1  4  1  0
  1  5  1  0
  1  6  1  0
  2  3  2  0
  2  7  1  0
  8  9  1  0
  9 10  1  0
  9 15  1  0
  9 16  1  0
 10 11  1  0
 11 12  1  0
 11 17  1  0
 11 18  1  0
 12 13  1  0
 13 14  2  3
 13 19  1  0
 14 20  1  0
 14 21  1  0
M  RAD  1   3   2
M  END
>  <reaction>  (5) 
rmg_rxn_16731

>  <mol_properties>  (5) 
{"1": {"label": "*0", "atom_type": "Cd"}, "2": {"label": "*1", "atom_type": "N3d"}, "7": {"label": "*2", "atom_type": "H0"}, "8": {"label": "*3", "atom_type": "Cs"}, "9": {"label": "*4", "atom_type": "O2s"}}

>  <type>  (5) 
unop_1

>  <geom_source>  (5) 
crest_best.xyz

$$$$

     RDKit          3D

 21 19  0  0  0  0  0  0  0  0999 V2000
   -1.3428   -0.9948   -3.2447 C   0  0  0  0  0  0  0  0  0  0  0  0
   -1.3428   -0.9948   -1.7523 C   0  0  0  0  0  0  0  0  0  0  0  0
   -1.3428    0.0778   -1.0847 N   0  0  0  0  0  0  0  0  0  0  0  0
   -0.4645   -1.5248   -3.6221 H   0  0  0  0  0  0  0  0  0  0  0  0
   -2.2211   -1.5248   -3.6221 H   0  0  0  0  0  0  0  0  0  0  0  0
   -1.3428    0.0258   -3.6233 H   0  0  0  0  0  0  0  0  0  0  0  0
   -1.3428   -1.9845   -1.2777 H   0  0  0  0  0  0  0  0  0  0  0  0
   -1.3428   -0.1523    0.1149 H   0  0  0  0  0  0  0  0  0  0  0  0
   -1.3428   -0.3995    1.4031 C   0  0  0  0  0  3  0  0  0  0  0  0
   -0.2058    0.1479    2.0339 O   0  0  0  0  0  0  0  0  0  0  0  0
    0.3261    1.2467    1.3840 C   0  0  0  0  0  0  0  0  0  0  0  0
    0.8254    0.9693    0.0972 O   0  0  0  0  0  0  0  0  0  0  0  0
    1.9669    0.2451   -0.0019 C   0  0  0  0  0  0  0  0  0  0  0  0
    2.6220   -0.3935    0.9576 C   0  0  0  0  0  0  0  0  0  0  0  0
   -1.7225   -1.1814    2.0576 H   0  0  0  0  0  0  0  0  0  0  0  0
   -2.1192    0.3628    1.2639 H   0  0  0  0  0  0  0  0  0  0  0  0
    1.1289    1.6256    2.0217 H   0  0  0  0  0  0  0  0  0  0  0  0
   -0.4362    2.0155    1.2178 H   0  0  0  0  0  0  0  0  0  0  0  0
    2.3144    0.2470   -1.0281 H   0  0  0  0  0  0  0  0  0  0  0  0
    3.5398   -0.9025    0.7015 H   0  0  0  0  0  0  0  0  0  0  0  0
    2.2743   -0.4505    1.9786 H   0  0  0  0  0  0  0  0  0  0  0  0
  1  2  1  0
  1  4  1  0
  1  5  1  0
  1  6  1  0
  2  3  2  3
  2  7  1  0
  3  8  1  0
  9 10  1  0
  9 15  1  0
  9 16  1  0
 10 11  1  0
 11 12  1  0
 11 17  1  0
 11 18  1  0
 12 13  1  0
 13 14  2  3
 13 19  1  0
 14 20  1  0
 14 21  1  0
M  RAD  1   9   2
M  END
>  <reaction>  (6) 
rmg_rxn_16731

>  <mol_properties>  (6) 
{"1": {"label": "*0", "atom_type": "Cd"}, "2": {"label": "*1", "atom_type": "N3d"}, "7": {"label": "*2", "atom_type": "H0"}, "8": {"label": "*3", "atom_type": "Cs"}, "9": {"label": "*4", "atom_type": "O2s"}}

>  <type>  (6) 
unop_2

>  <geom_source>  (6) 
Heuristics

$$$$

     RDKit          3D

 21 19  0  0  0  0  0  0  0  0999 V2000
   -0.7202    0.5842   -2.8909 C   0  0  0  0  0  0  0  0  0  0  0  0
   -0.7202    0.5842   -1.3986 C   0  0  0  0  0  0  0  0  0  0  0  0
   -0.7202    1.6568   -0.7309 N   0  0  0  0  0  0  0  0  0  0  0  0
    0.1580    0.0542   -3.2683 H   0  0  0  0  0  0  0  0  0  0  0  0
   -1.5985    0.0542   -3.2683 H   0  0  0  0  0  0  0  0  0  0  0  0
   -0.7202    1.6048   -3.2695 H   0  0  0  0  0  0  0  0  0  0  0  0
   -0.7202   -0.4055   -0.9239 H   0  0  0  0  0  0  0  0  0  0  0  0
   -0.7202    1.4266    0.4687 H   0  0  0  0  0  0  0  0  0  0  0  0
   -0.7202    1.1795    1.7569 C   0  0  0  0  0  3  0  0  0  0  0  0
   -0.0638   -0.0345    2.0497 O   0  0  0  0  0  0  0  0  0  0  0  0
    1.1688   -0.1715    1.4378 C   0  0  0  0  0  0  0  0  0  0  0  0
    1.1127   -0.2150    0.0317 O   0  0  0  0  0  0  0  0  0  0  0  0
    0.5986   -1.3249   -0.5523 C   0  0  0  0  0  0  0  0  0  0  0  0
   -0.0214   -2.3455    0.0236 C   0  0  0  0  0  0  0  0  0  0  0  0
   -1.6176    1.2106    2.3713 H   0  0  0  0  0  0  0  0  0  0  0  0
   -0.0844    2.0386    2.0035 H   0  0  0  0  0  0  0  0  0  0  0  0
    1.6048   -1.0972    1.8223 H   0  0  0  0  0  0  0  0  0  0  0  0
    1.8162    0.6849    1.6557 H   0  0  0  0  0  0  0  0  0  0  0  0
    0.7644   -1.2865   -1.6223 H   0  0  0  0  0  0  0  0  0  0  0  0
   -0.3444   -3.1673   -0.5987 H   0  0  0  0  0  0  0  0  0  0  0  0
   -0.2408   -2.3884    1.0803 H   0  0  0  0  0  0  0  0  0  0  0  0
  1  2  1  0
  1  4  1  0
  1  5  1  0
  1  6  1  0
  2  3  2  3
  2  7  1  0
  3  8  1  0
  9 10  1  0
  9 15  1  0
  9 16  1  0
 10 11  1  0
 11 12  1  0
 11 17  1  0
 11 18  1  0
 12 13  1  0
 13 14  2  3
 13 19  1  0
 14 20  1  0
 14 21  1  0
M  RAD  1   9   2
M  END
>  <reaction>  (7) 
rmg_rxn_16731

>  <mol_properties>  (7) 
{"1": {"label": "*0", "atom_type": "Cd"}, "2": {"label": "*1", "atom_type": "N3d"}, "7": {"label": "*2", "atom_type": "H0"}, "8": {"label": "*3", "atom_type": "Cs"}, "9": {"label": "*4", "atom_type": "O2s"}}

>  <type>  (7) 
unop_3

>  <geom_source>  (7) 
Heuristics

$$$$

     RDKit          3D

 21 19  0  0  0  0  0  0  0  0999 V2000
   -0.8180   -1.6992   -3.3395 C   0  0  0  0  0  0  0  0  0  0  0  0
   -0.8180   -1.6992   -1.8471 C   0  0  0  0  0  0  0  0  0  0  0  0
   -0.8180   -0.6265   -1.1794 N   0  0  0  0  0  0  0  0  0  0  0  0
    0.0602   -2.2292   -3.7169 H   0  0  0  0  0  0  0  0  0  0  0  0
   -1.6963   -2.2292   -3.7169 H   0  0  0  0  0  0  0  0  0  0  0  0
   -0.8180   -0.6785   -3.7180 H   0  0  0  0  0  0  0  0  0  0  0  0
   -0.8180   -2.6889   -1.3725 H   0  0  0  0  0  0  0  0  0  0  0  0
   -0.8180   -0.8567    0.0202 H   0  0  0  0  0  0  0  0  0  0  0  0
   -0.8180   -1.1039    1.3083 C   0  0  0  0  0  3  0  0  0  0  0  0
   -0.1616   -0.0845    2.0296 O   0  0  0  0  0  0  0  0  0  0  0  0
   -0.3786    1.1879    1.5331 C   0  0  0  0  0  0  0  0  0  0  0  0
    0.1255    1.3937    0.2348 O   0  0  0  0  0  0  0  0  0  0  0  0
    1.4698    1.4634    0.0759 C   0  0  0  0  0  0  0  0  0  0  0  0
    2.4180    1.2047    0.9657 C   0  0  0  0  0  0  0  0  0  0  0  0
   -0.6551   -2.0320    1.8521 H   0  0  0  0  0  0  0  0  0  0  0  0
   -1.8953   -0.9077    1.2445 H   0  0  0  0  0  0  0  0  0  0  0  0
    0.0987    1.8793    2.2323 H   0  0  0  0  0  0  0  0  0  0  0  0
   -1.4495    1.4004    1.4437 H   0  0  0  0  0  0  0  0  0  0  0  0
    1.7037    1.7805   -0.9333 H   0  0  0  0  0  0  0  0  0  0  0  0
    3.4486    1.3408    0.6719 H   0  0  0  0  0  0  0  0  0  0  0  0
    2.2148    0.8431    1.9630 H   0  0  0  0  0  0  0  0  0  0  0  0
  1  2  1  0
  1  4  1  0
  1  5  1  0
  1  6  1  0
  2  3  2  3
  2  7  1  0
  3  8  1  0
  9 10  1  0
  9 15  1  0
  9 16  1  0
 10 11  1  0
 11 12  1  0
 11 17  1  0
 11 18  1  0
 12 13  1  0
 13 14  2  3
 13 19  1  0
 14 20  1  0
 14 21  1  0
M  RAD  1   9   2
M  END
>  <reaction>  (8) 
rmg_rxn_16731

>  <mol_properties>  (8) 
{"1": {"label": "*0", "atom_type": "Cd"}, "2": {"label": "*1", "atom_type": "N3d"}, "7": {"label": "*2", "atom_type": "H0"}, "8": {"label": "*3", "atom_type": "Cs"}, "9": {"label": "*4", "atom_type": "O2s"}}

>  <type>  (8) 
unop_4

>  <geom_source>  (8) 
Heuristics

$$$$

     RDKit          3D

 21 19  0  0  0  0  0  0  0  0999 V2000
    0.7553    0.6841   -3.1875 C   0  0  0  0  0  0  0  0  0  0  0  0
    0.7553    0.6841   -1.6952 C   0  0  0  0  0  0  0  0  0  0  0  0
    0.7553    1.7567   -1.0275 N   0  0  0  0  0  0  0  0  0  0  0  0
    1.6335    0.1541   -3.5649 H   0  0  0  0  0  0  0  0  0  0  0  0
   -0.1230    0.1541   -3.5649 H   0  0  0  0  0  0  0  0  0  0  0  0
    0.7553    1.7047   -3.5661 H   0  0  0  0  0  0  0  0  0  0  0  0
    0.7553   -0.3056   -1.2205 H   0  0  0  0  0  0  0  0  0  0  0  0
    0.7553    1.5266    0.1721 H   0  0  0  0  0  0  0  0  0  0  0  0
    0.7553    1.2794    1.4603 C   0  0  0  0  0  3  0  0  0  0  0  0
   -0.3818    0.5374    1.8437 O   0  0  0  0  0  0  0  0  0  0  0  0
   -0.1560   -0.8221    1.9593 C   0  0  0  0  0  0  0  0  0  0  0  0
    0.1962   -1.4527    0.7508 O   0  0  0  0  0  0  0  0  0  0  0  0
   -0.7636   -1.6012   -0.1948 C   0  0  0  0  0  0  0  0  0  0  0  0
   -1.9856   -1.0873   -0.2145 C   0  0  0  0  0  0  0  0  0  0  0  0
    0.4776    2.3305    1.5053 H   0  0  0  0  0  0  0  0  0  0  0  0
    1.5917    1.0978    2.1462 H   0  0  0  0  0  0  0  0  0  0  0  0
   -1.0785   -1.2574    2.3519 H   0  0  0  0  0  0  0  0  0  0  0  0
    0.6878   -1.0277    2.6269 H   0  0  0  0  0  0  0  0  0  0  0  0
   -0.3972   -2.2362   -0.9925 H   0  0  0  0  0  0  0  0  0  0  0  0
   -2.6335   -1.3354   -1.0425 H   0  0  0  0  0  0  0  0  0  0  0  0
   -2.3601   -0.4148    0.5433 H   0  0  0  0  0  0  0  0  0  0  0  0
  1  2  1  0
  1  4  1  0
  1  5  1  0
  1  6  1  0
  2  3  2  3
  2  7  1  0
  3  8  1  0
  9 10  1  0
  9 15  1  0
  9 16  1  0
 10 11  1  0
 11 12  1  0
 11 17  1  0
 11 18  1  0
 12 13  1  0
 13 14  2  3
 13 19  1  0
 14 20  1  0
 14 21  1  0
M  RAD  1   9   2
M  END
>  <reaction>  (9) 
rmg_rxn_16731

>  <mol_properties>  (9) 
{"1": {"label": "*0", "atom_type": "Cd"}, "2": {"label": "*1", "atom_type": "N3d"}, "7": {"label": "*2", "atom_type": "H0"}, "8": {"label": "*3", "atom_type": "Cs"}, "9": {"label": "*4", "atom_type": "O2s"}}

>  <type>  (9) 
unop_5

>  <geom_source>  (9) 
Heuristics

$$$$

     RDKit          3D

 21 19  0  0  0  0  0  0  0  0999 V2000
    0.2995   -1.9300   -3.4223 C   0  0  0  0  0  0  0  0  0  0  0  0
    0.2995   -1.9300   -1.9300 C   0  0  0  0  0  0  0  0  0  0  0  0
    0.2995   -0.8574   -1.2623 N   0  0  0  0  0  0  0  0  0  0  0  0
    1.1777   -2.4600   -3.7997 H   0  0  0  0  0  0  0  0  0  0  0  0
   -0.5788   -2.4600   -3.7997 H   0  0  0  0  0  0  0  0  0  0  0  0
    0.2995   -0.9094   -3.8009 H   0  0  0  0  0  0  0  0  0  0  0  0
    0.2995   -2.9197   -1.4553 H   0  0  0  0  0  0  0  0  0  0  0  0
    0.2995   -1.0876   -0.0627 H   0  0  0  0  0  0  0  0  0  0  0  0
    0.2995   -1.3347    1.2255 C   0  0  0  0  0  3  0  0  0  0  0  0
    0.2995   -0.1426    1.9800 O   0  0  0  0  0  0  0  0  0  0  0  0
   -0.8566    0.6057    1.8532 C   0  0  0  0  0  0  0  0  0  0  0  0
   -1.0861    1.0961    0.5536 O   0  0  0  0  0  0  0  0  0  0  0  0
   -0.2855    2.0895    0.0959 C   0  0  0  0  0  0  0  0  0  0  0  0
    0.8157    2.5792    0.6484 C   0  0  0  0  0  0  0  0  0  0  0  0
    1.2061   -1.8759    1.4882 H   0  0  0  0  0  0  0  0  0  0  0  0
   -0.5731   -1.9531    1.4692 H   0  0  0  0  0  0  0  0  0  0  0  0
   -0.7657    1.4384    2.5553 H   0  0  0  0  0  0  0  0  0  0  0  0
   -1.7442    0.0033    2.0749 H   0  0  0  0  0  0  0  0  0  0  0  0
   -0.6741    2.4715   -0.8405 H   0  0  0  0  0  0  0  0  0  0  0  0
    1.3176    3.3982    0.1541 H   0  0  0  0  0  0  0  0  0  0  0  0
    1.2505    2.1871    1.5561 H   0  0  0  0  0  0  0  0  0  0  0  0
  1  2  1  0
  1  4  1  0
  1  5  1  0
  1  6  1  0
  2  3  2  3
  2  7  1  0
  3  8  1  0
  9 10  1  0
  9 15  1  0
  9 16  1  0
 10 11  1  0
 11 12  1  0
 11 17  1  0
 11 18  1  0
 12 13  1  0
 13 14  2  3
 13 19  1  0
 14 20  1  0
 14 21  1  0
M  RAD  1   9   2
M  END
>  <reaction>  (10) 
rmg_rxn_16731

>  <mol_properties>  (10) 
{"1": {"label": "*0", "atom_type": "Cd"}, "2": {"label": "*1", "atom_type": "N3d"}, "7": {"label": "*2", "atom_type": "H0"}, "8": {"label": "*3", "atom_type": "Cs"}, "9": {"label": "*4", "atom_type": "O2s"}}

>  <type>  (10) 
unop_6

>  <geom_source>  (10) 
Heuristics

$$$$

     RDKit          3D

 21 19  0  0  0  0  0  0  0  0999 V2000
    1.2367    0.2339   -3.3660 C   0  0  0  0  0  0  0  0  0  0  0  0
    1.2367    0.2339   -1.8736 C   0  0  0  0  0  0  0  0  0  0  0  0
    1.2367    1.3065   -1.2060 N   0  0  0  0  0  0  0  0  0  0  0  0
    2.1149   -0.2961   -3.7434 H   0  0  0  0  0  0  0  0  0  0  0  0
    0.3584   -0.2961   -3.7434 H   0  0  0  0  0  0  0  0  0  0  0  0
    1.2367    1.2545   -3.7446 H   0  0  0  0  0  0  0  0  0  0  0  0
    1.2367   -0.7558   -1.3990 H   0  0  0  0  0  0  0  0  0  0  0  0
    1.2367    1.0763   -0.0064 H   0  0  0  0  0  0  0  0  0  0  0  0
    1.2367    0.8292    1.2818 C   0  0  0  0  0  3  0  0  0  0  0  0
   -0.0763    0.7319    1.7889 O   0  0  0  0  0  0  0  0  0  0  0  0
   -0.4771   -0.5607    2.0736 C   0  0  0  0  0  0  0  0  0  0  0  0
   -0.5479   -1.4034    0.9479 O   0  0  0  0  0  0  0  0  0  0  0  0
   -1.5469   -1.1940    0.0560 C   0  0  0  0  0  0  0  0  0  0  0  0
   -2.4043   -0.1842    0.0030 C   0  0  0  0  0  0  0  0  0  0  0  0
    1.4660    1.8894    1.1976 H   0  0  0  0  0  0  0  0  0  0  0  0
    1.9560    0.3576    1.9625 H   0  0  0  0  0  0  0  0  0  0  0  0
   -1.4606   -0.4839    2.5443 H   0  0  0  0  0  0  0  0  0  0  0  0
    0.2364   -1.0588    2.7390 H   0  0  0  0  0  0  0  0  0  0  0  0
   -1.5729   -2.0047   -0.6623 H   0  0  0  0  0  0  0  0  0  0  0  0
   -3.1609   -0.1931   -0.7679 H   0  0  0  0  0  0  0  0  0  0  0  0
   -2.3720    0.6592    0.6771 H   0  0  0  0  0  0  0  0  0  0  0  0
  1  2  1  0
  1  4  1  0
  1  5  1  0
  1  6  1  0
  2  3  2  3
  2  7  1  0
  3  8  1  0
  9 10  1  0
  9 15  1  0
  9 16  1  0
 10 11  1  0
 11 12  1  0
 11 17  1  0
 11 18  1  0
 12 13  1  0
 13 14  2  3
 13 19  1  0
 14 20  1  0
 14 21  1  0
M  RAD  1   9   2
M  END
>  <reaction>  (11) 
rmg_rxn_16731

>  <mol_properties>  (11) 
{"1": {"label": "*0", "atom_type": "Cd"}, "2": {"label": "*1", "atom_type": "N3d"}, "7": {"label": "*2", "atom_type": "H0"}, "8": {"label": "*3", "atom_type": "Cs"}, "9": {"label": "*4", "atom_type": "O2s"}}

>  <type>  (11) 
unop_7

>  <geom_source>  (11) 
Heuristics

$$$$

     RDKit          3D

 21 19  0  0  0  0  0  0  0  0999 V2000
    1.4511   -0.4675   -3.5071 C   0  0  0  0  0  0  0  0  0  0  0  0
    1.4511   -0.4675   -2.0148 C   0  0  0  0  0  0  0  0  0  0  0  0
    1.4511    0.6052   -1.3471 N   0  0  0  0  0  0  0  0  0  0  0  0
    2.3293   -0.9975   -3.8845 H   0  0  0  0  0  0  0  0  0  0  0  0
    0.5728   -0.9975   -3.8845 H   0  0  0  0  0  0  0  0  0  0  0  0
    1.4511    0.5532   -3.8857 H   0  0  0  0  0  0  0  0  0  0  0  0
    1.4511   -1.4572   -1.5402 H   0  0  0  0  0  0  0  0  0  0  0  0
    1.4511    0.3750   -0.1475 H   0  0  0  0  0  0  0  0  0  0  0  0
    1.4511    0.1278    1.1406 C   0  0  0  0  0  3  0  0  0  0  0  0
    0.3140    0.6752    1.7714 O   0  0  0  0  0  0  0  0  0  0  0  0
   -0.6359   -0.2618    2.1348 C   0  0  0  0  0  0  0  0  0  0  0  0
   -1.2181   -0.9433    1.0491 O   0  0  0  0  0  0  0  0  0  0  0  0
   -2.0701   -0.2577    0.2483 C   0  0  0  0  0  0  0  0  0  0  0  0
   -2.3271    1.0430    0.2427 C   0  0  0  0  0  0  0  0  0  0  0  0
    2.1586    0.9425    1.0005 H   0  0  0  0  0  0  0  0  0  0  0  0
    1.9120   -0.6464    1.7661 H   0  0  0  0  0  0  0  0  0  0  0  0
   -1.4058    0.2773    2.6928 H   0  0  0  0  0  0  0  0  0  0  0  0
   -0.1944   -1.0561    2.7466 H   0  0  0  0  0  0  0  0  0  0  0  0
   -2.5581   -0.9401   -0.4373 H   0  0  0  0  0  0  0  0  0  0  0  0
   -3.0634    1.4177   -0.4533 H   0  0  0  0  0  0  0  0  0  0  0  0
   -1.8221    1.7516    0.8826 H   0  0  0  0  0  0  0  0  0  0  0  0
  1  2  1  0
  1  4  1  0
  1  5  1  0
  1  6  1  0
  2  3  2  3
  2  7  1  0
  3  8  1  0
  9 10  1  0
  9 15  1  0
  9 16  1  0
 10 11  1  0
 11 12  1  0
 11 17  1  0
 11 18  1  0
 12 13  1  0
 13 14  2  3
 13 19  1  0
 14 20  1  0
 14 21  1  0
M  RAD  1   9   2
M  END
>  <reaction>  (12) 
rmg_rxn_16731

>  <mol_properties>  (12) 
{"1": {"label": "*0", "atom_type": "Cd"}, "2": {"label": "*1", "atom_type": "N3d"}, "7": {"label": "*2", "atom_type": "H0"}, "8": {"label": "*3", "atom_type": "Cs"}, "9": {"label": "*4", "atom_type": "O2s"}}

>  <type>  (12) 
unop_8

>  <geom_source>  (12) 
Heuristics

$$$$

     RDKit          3D

 21 19  0  0  0  0  0  0  0  0999 V2000
   -1.3756   -0.2877   -3.1064 C   0  0  0  0  0  0  0  0  0  0  0  0
   -1.3756   -0.2877   -1.6141 C   0  0  0  0  0  0  0  0  0  0  0  0
   -1.3756    0.7849   -0.9464 N   0  0  0  0  0  0  0  0  0  0  0  0
   -0.4973   -0.8177   -3.4838 H   0  0  0  0  0  0  0  0  0  0  0  0
   -2.2538   -0.8177   -3.4838 H   0  0  0  0  0  0  0  0  0  0  0  0
   -1.3756    0.7329   -3.4850 H   0  0  0  0  0  0  0  0  0  0  0  0
   -1.3756   -1.2774   -1.1394 H   0  0  0  0  0  0  0  0  0  0  0  0
   -1.3756    0.5548    0.2532 H   0  0  0  0  0  0  0  0  0  0  0  0
   -1.3756    0.3076    1.5414 C   0  0  0  0  0  3  0  0  0  0  0  0
   -0.0626    0.2103    2.0484 O   0  0  0  0  0  0  0  0  0  0  0  0
    0.8744    0.9312    1.3310 C   0  0  0  0  0  0  0  0  0  0  0  0
    1.0517    0.4883    0.0064 O   0  0  0  0  0  0  0  0  0  0  0  0
    1.6793   -0.6967   -0.1915 C   0  0  0  0  0  0  0  0  0  0  0  0
    2.0259   -1.6049    0.7102 C   0  0  0  0  0  0  0  0  0  0  0  0
   -2.0254   -0.2111    2.2431 H   0  0  0  0  0  0  0  0  0  0  0  0
   -1.6901    1.3557    1.4658 H   0  0  0  0  0  0  0  0  0  0  0  0
    1.8157    0.8496    1.8805 H   0  0  0  0  0  0  0  0  0  0  0  0
    0.5727    1.9791    1.2270 H   0  0  0  0  0  0  0  0  0  0  0  0
    1.8856   -0.8306   -1.2466 H   0  0  0  0  0  0  0  0  0  0  0  0
    2.5498   -2.4879    0.3742 H   0  0  0  0  0  0  0  0  0  0  0  0
    1.7920   -1.5187    1.7611 H   0  0  0  0  0  0  0  0  0  0  0  0
  1  2  1  0
  1  4  1  0
  1  5  1  0
  1  6  1  0
  2  3  2  3
  2  7  1  0
  3  8  1  0
  9 10  1  0
  9 15  1  0
  9 16  1  0
 10 11  1  0
 11 12  1  0
 11 17  1  0
 11 18  1  0
 12 13  1  0
 13 14  2  3
 13 19  1  0
 14 20  1  0
 14 21  1  0
M  RAD  1   9   2
M  END
>  <reaction>  (13) 
rmg_rxn_16731

>  <mol_properties>  (13) 
{"1": {"label": "*0", "atom_type": "Cd"}, "2": {"label": "*1", "atom_type": "N3d"}, "7": {"label": "*2", "atom_type": "H0"}, "8": {"label": "*3", "atom_type": "Cs"}, "9": {"label": "*4", "atom_type": "O2s"}}

>  <type>  (13) 
unop_9

>  <geom_source>  (13) 
Heuristics

$$$$

     RDKit          3D

 21 19  0  0  0  0  0  0  0  0999 V2000
   -1.9769    0.2879    1.2670 C   0  0  0  0  0  0  0  0  0  0  0  0
   -1.7953    0.1648   -0.2133 C   0  0  0  0  0  0  0  0  0  0  0  0
   -2.2436    0.6819   -1.1987 N   0  0  0  0  0  2  0  0  0  0  0  0
   -2.2748   -0.6758    1.6772 H   0  0  0  0  0  0  0  0  0  0  0  0
   -1.0285    0.5783    1.7164 H   0  0  0  0  0  0  0  0  0  0  0  0
   -2.7360    1.0338    1.4871 H   0  0  0  0  0  0  0  0  0  0  0  0
   -1.0007   -0.6456   -0.3655 H   0  0  0  0  0  0  0  0  0  0  0  0
    0.2381    1.9041   -0.7397 H   0  0  0  0  0  0  0  0  0  0  0  0
    0.9793    2.0944    0.0411 C   0  0  0  0  0  0  0  0  0  0  0  0
    1.3526    0.8984    0.7049 O   0  0  0  0  0  0  0  0  0  0  0  0
    1.9362   -0.0479   -0.1287 C   0  0  0  0  0  0  0  0  0  0  0  0
    1.0330   -0.6845   -0.9907 O   0  0  0  0  0  0  0  0  0  0  0  0
    0.0866   -1.5303   -0.4402 C   0  0  0  0  0  0  0  0  0  0  0  0
    0.1605   -2.0909    0.8064 C   0  0  0  0  0  0  0  0  0  0  0  0
    0.5524    2.7445    0.8013 H   0  0  0  0  0  0  0  0  0  0  0  0
    1.8576    2.5736   -0.4034 H   0  0  0  0  0  0  0  0  0  0  0  0
    2.4299   -0.7766    0.5282 H   0  0  0  0  0  0  0  0  0  0  0  0
    2.6764    0.4107   -0.8002 H   0  0  0  0  0  0  0  0  0  0  0  0
   -0.3465   -2.1121   -1.2531 H   0  0  0  0  0  0  0  0  0  0  0  0
   -0.5133   -2.8872    1.0607 H   0  0  0  0  0  0  0  0  0  0  0  0
    0.7210   -1.6478    1.6077 H   0  0  0  0  0  0  0  0  0  0  0  0
  1  2  1  0
  1  4  1  0
  1  5  1  0
  1  6  1  0
  2  3  2  0
  2  7  1  0
  8  9  1  0
  9 10  1  0
  9 15  1  0
  9 16  1  0
 10 11  1  0
 11 12  1  0
 11 17  1  0
 11 18  1  0
 12 13  1  0
 13 14  2  3
 13 19  1  0
 14 20  1  0
 14 21  1  0
M  RAD  1   3   2
M  END
>  <reaction>  (14) 
rmg_rxn_16731

>  <mol_properties>  (14) 
{"1": {"label": "*0", "atom_type": "Cd"}, "2": {"label": "*1", "atom_type": "N3d"}, "7": {"label": "*2", "atom_type": "H0"}, "8": {"label": "*3", "atom_type": "Cs"}, "9": {"label": "*4", "atom_type": "O2s"}}

>  <type>  (14) 
unop_10

>  <geom_source>  (14) 
Heuristics

$$$$

     RDKit          3D

 21 19  0  0  0  0  0  0  0  0999 V2000
    0.1931    0.8387   -3.0176 C   0  0  0  0  0  0  0  0  0  0  0  0
    0.1931    0.8387   -1.5252 C   0  0  0  0  0  0  0  0  0  0  0  0
    0.1931    1.9113   -0.8575 N   0  0  0  0  0  0  0  0  0  0  0  0
    1.0714    0.3087   -3.3950 H   0  0  0  0  0  0  0  0  0  0  0  0
   -0.6852    0.3087   -3.3950 H   0  0  0  0  0  0  0  0  0  0  0  0
    0.1931    1.8593   -3.3961 H   0  0  0  0  0  0  0  0  0  0  0  0
    0.1931   -0.1510   -1.0506 H   0  0  0  0  0  0  0  0  0  0  0  0
    0.1931    1.6812    0.3421 H   0  0  0  0  0  0  0  0  0  0  0  0
    0.1931    1.4340    1.6302 C   0  0  0  0  0  3  0  0  0  0  0  0
   -0.4634    0.2200    1.9230 O   0  0  0  0  0  0  0  0  0  0  0  0
    0.3391   -0.8996    1.8002 C   0  0  0  0  0  0  0  0  0  0  0  0
    0.7992   -1.1381    0.4912 O   0  0  0  0  0  0  0  0  0  0  0  0
   -0.0960   -1.5676   -0.4315 C   0  0  0  0  0  0  0  0  0  0  0  0
   -1.4145   -1.6523   -0.3214 C   0  0  0  0  0  0  0  0  0  0  0  0
   -0.5054    2.2356    1.8612 H   0  0  0  0  0  0  0  0  0  0  0  0
    1.0932    1.5515    2.2459 H   0  0  0  0  0  0  0  0  0  0  0  0
   -0.2570   -1.7479    2.1462 H   0  0  0  0  0  0  0  0  0  0  0  0
    1.2542   -0.7976    2.3935 H   0  0  0  0  0  0  0  0  0  0  0  0
    0.4222   -1.8594   -1.3371 H   0  0  0  0  0  0  0  0  0  0  0  0
   -1.9750   -2.0476   -1.1561 H   0  0  0  0  0  0  0  0  0  0  0  0
   -1.9605   -1.3256    0.5514 H   0  0  0  0  0  0  0  0  0  0  0  0
  1  2  1  0
  1  4  1  0
  1  5  1  0
  1  6  1  0
  2  3  2  3
  2  7  1  0
  3  8  1  0
  9 10  1  0
  9 15  1  0
  9 16  1  0
 10 11  1  0
 11 12  1  0
 11 17  1  0
 11 18  1  0
 12 13  1  0
 13 14  2  3
 13 19  1  0
 14 20  1  0
 14 21  1  0
M  RAD  1   9   2
M  END
>  <reaction>  (15) 
rmg_rxn_16731

>  <mol_properties>  (15) 
{"1": {"label": "*0", "atom_type": "Cd"}, "2": {"label": "*1", "atom_type": "N3d"}, "7": {"label": "*2", "atom_type": "H0"}, "8": {"label": "*3", "atom_type": "Cs"}, "9": {"label": "*4", "atom_type": "O2s"}}

>  <type>  (15) 
unop_11

>  <geom_source>  (15) 
Heuristics

$$$$

     RDKit          3D

 21 19  0  0  0  0  0  0  0  0999 V2000
   -1.1098    0.2520   -2.9724 C   0  0  0  0  0  0  0  0  0  0  0  0
   -1.1098    0.2520   -1.4801 C   0  0  0  0  0  0  0  0  0  0  0  0
   -1.1098    1.3246   -0.8124 N   0  0  0  0  0  0  0  0  0  0  0  0
   -0.2315   -0.2780   -3.3498 H   0  0  0  0  0  0  0  0  0  0  0  0
   -1.9881   -0.2780   -3.3498 H   0  0  0  0  0  0  0  0  0  0  0  0
   -1.1098    1.2726   -3.3510 H   0  0  0  0  0  0  0  0  0  0  0  0
   -1.1098   -0.7377   -1.0054 H   0  0  0  0  0  0  0  0  0  0  0  0
   -1.1098    1.0944    0.3872 H   0  0  0  0  0  0  0  0  0  0  0  0
   -1.1098    0.8473    1.6754 C   0  0  0  0  0  3  0  0  0  0  0  0
    0.0272    0.1053    2.0587 O   0  0  0  0  0  0  0  0  0  0  0  0
    1.1702    0.4141    1.3440 C   0  0  0  0  0  0  0  0  0  0  0  0
    1.0897    0.1147   -0.0293 O   0  0  0  0  0  0  0  0  0  0  0  0
    1.1016   -1.1891   -0.3999 C   0  0  0  0  0  0  0  0  0  0  0  0
    1.0199   -2.2644    0.3714 C   0  0  0  0  0  0  0  0  0  0  0  0
   -1.9054    0.5900    2.3715 H   0  0  0  0  0  0  0  0  0  0  0  0
   -0.9132    1.9248    1.7346 H   0  0  0  0  0  0  0  0  0  0  0  0
    1.9850   -0.1525    1.8020 H   0  0  0  0  0  0  0  0  0  0  0  0
    1.3773    1.4894    1.3740 H   0  0  0  0  0  0  0  0  0  0  0  0
    1.1953   -1.2634   -1.4767 H   0  0  0  0  0  0  0  0  0  0  0  0
    1.0736   -3.2368   -0.0962 H   0  0  0  0  0  0  0  0  0  0  0  0
    0.8797   -2.2194    1.4414 H   0  0  0  0  0  0  0  0  0  0  0  0
  1  2  1  0
  1  4  1  0
  1  5  1  0
  1  6  1  0
  2  3  2  3
  2  7  1  0
  3  8  1  0
  9 10  1  0
  9 15  1  0
  9 16  1  0
 10 11  1  0
 11 12  1  0
 11 17  1  0
 11 18  1  0
 12 13  1  0
 13 14  2  3
 13 19  1  0
 14 20  1  0
 14 21  1  0
M  RAD  1   9   2
M  END
>  <reaction>  (16) 
rmg_rxn_16731

>  <mol_properties>  (16) 
{"1": {"label": "*0", "atom_type": "Cd"}, "2": {"label": "*1", "atom_type": "N3d"}, "7": {"label": "*2", "atom_type": "H0"}, "8": {"label": "*3", "atom_type": "Cs"}, "9": {"label": "*4", "atom_type": "O2s"}}

>  <type>  (16) 
unop_12

>  <geom_source>  (16) 
Heuristics

$$$$

     RDKit          3D

 21 19  0  0  0  0  0  0  0  0999 V2000
    1.2188   -1.3007   -3.5378 C   0  0  0  0  0  0  0  0  0  0  0  0
    1.2188   -1.3007   -2.0454 C   0  0  0  0  0  0  0  0  0  0  0  0
    1.2188   -0.2281   -1.3777 N   0  0  0  0  0  0  0  0  0  0  0  0
    2.0971   -1.8307   -3.9152 H   0  0  0  0  0  0  0  0  0  0  0  0
    0.3405   -1.8307   -3.9152 H   0  0  0  0  0  0  0  0  0  0  0  0
    1.2188   -0.2801   -3.9163 H   0  0  0  0  0  0  0  0  0  0  0  0
    1.2188   -2.2904   -1.5708 H   0  0  0  0  0  0  0  0  0  0  0  0
    1.2188   -0.4583   -0.1781 H   0  0  0  0  0  0  0  0  0  0  0  0
    1.2188   -0.7054    1.1100 C   0  0  0  0  0  3  0  0  0  0  0  0
    0.5623    0.3139    1.8313 O   0  0  0  0  0  0  0  0  0  0  0  0
   -0.7679    0.0481    2.1004 C   0  0  0  0  0  0  0  0  0  0  0  0
   -1.5791   -0.0514    0.9540 O   0  0  0  0  0  0  0  0  0  0  0  0
   -1.8519    1.0835    0.2650 C   0  0  0  0  0  0  0  0  0  0  0  0
   -1.3262    2.2900    0.4255 C   0  0  0  0  0  0  0  0  0  0  0  0
    2.2692   -0.4274    1.0535 H   0  0  0  0  0  0  0  0  0  0  0  0
    1.1284   -1.6702    1.6240 H   0  0  0  0  0  0  0  0  0  0  0  0
   -1.1234    0.8605    2.7394 H   0  0  0  0  0  0  0  0  0  0  0  0
   -0.8850   -0.9203    2.5988 H   0  0  0  0  0  0  0  0  0  0  0  0
   -2.6059    0.8836   -0.4869 H   0  0  0  0  0  0  0  0  0  0  0  0
   -1.6852    3.0938   -0.2006 H   0  0  0  0  0  0  0  0  0  0  0  0
   -0.5412    2.5069    1.1349 H   0  0  0  0  0  0  0  0  0  0  0  0
  1  2  1  0
  1  4  1  0
  1  5  1  0
  1  6  1  0
  2  3  2  3
  2  7  1  0
  3  8  1  0
  9 10  1  0
  9 15  1  0
  9 16  1  0
 10 11  1  0
 11 12  1  0
 11 17  1  0
 11 18  1  0
 12 13  1  0
 13 14  2  3
 13 19  1  0
 14 20  1  0
 14 21  1  0
M  RAD  1   9   2
M  END
>  <reaction>  (17) 
rmg_rxn_16731

>  <mol_properties>  (17) 
{"1": {"label": "*0", "atom_type": "Cd"}, "2": {"label": "*1", "atom_type": "N3d"}, "7": {"label": "*2", "atom_type": "H0"}, "8": {"label": "*3", "atom_type": "Cs"}, "9": {"label": "*4", "atom_type": "O2s"}}

>  <type>  (17) 
unop_13

>  <geom_source>  (17) 
Heuristics

$$$$

     RDKit          3D

 21 19  0  0  0  0  0  0  0  0999 V2000
   -0.2995    0.7712   -2.9040 C   0  0  0  0  0  0  0  0  0  0  0  0
   -0.2995    0.7712   -1.4117 C   0  0  0  0  0  0  0  0  0  0  0  0
   -0.2995    1.8439   -0.7440 N   0  0  0  0  0  0  0  0  0  0  0  0
    0.5788    0.2412   -3.2814 H   0  0  0  0  0  0  0  0  0  0  0  0
   -1.1777    0.2412   -3.2814 H   0  0  0  0  0  0  0  0  0  0  0  0
   -0.2995    1.7919   -3.2826 H   0  0  0  0  0  0  0  0  0  0  0  0
   -0.2995   -0.2185   -0.9370 H   0  0  0  0  0  0  0  0  0  0  0  0
   -0.2995    1.6137    0.4556 H   0  0  0  0  0  0  0  0  0  0  0  0
   -0.2995    1.3665    1.7438 C   0  0  0  0  0  3  0  0  0  0  0  0
   -0.2995   -0.0202    2.0035 O   0  0  0  0  0  0  0  0  0  0  0  0
    0.8566   -0.6684    1.6087 C   0  0  0  0  0  0  0  0  0  0  0  0
    1.0861   -0.6430    0.2199 O   0  0  0  0  0  0  0  0  0  0  0  0
    0.2855   -1.3965   -0.5730 C   0  0  0  0  0  0  0  0  0  0  0  0
   -0.8157   -2.0559   -0.2409 C   0  0  0  0  0  0  0  0  0  0  0  0
   -1.2061    1.7720    2.1882 H   0  0  0  0  0  0  0  0  0  0  0  0
    0.5731    1.8508    2.1991 H   0  0  0  0  0  0  0  0  0  0  0  0
    0.7657   -1.7019    1.9527 H   0  0  0  0  0  0  0  0  0  0  0  0
    1.7442   -0.1908    2.0376 H   0  0  0  0  0  0  0  0  0  0  0  0
    0.6741   -1.4047   -1.5843 H   0  0  0  0  0  0  0  0  0  0  0  0
   -1.3176   -2.6337   -1.0033 H   0  0  0  0  0  0  0  0  0  0  0  0
   -1.2505   -2.0276    0.7474 H   0  0  0  0  0  0  0  0  0  0  0  0
  1  2  1  0
  1  4  1  0
  1  5  1  0
  1  6  1  0
  2  3  2  3
  2  7  1  0
  3  8  1  0
  9 10  1  0
  9 15  1  0
  9 16  1  0
 10 11  1  0
 11 12  1  0
 11 17  1  0
 11 18  1  0
 12 13  1  0
 13 14  2  3
 13 19  1  0
 14 20  1  0
 14 21  1  0
M  RAD  1   9   2
M  END
>  <reaction>  (18) 
rmg_rxn_16731

>  <mol_properties>  (18) 
{"1": {"label": "*0", "atom_type": "Cd"}, "2": {"label": "*1", "atom_type": "N3d"}, "7": {"label": "*2", "atom_type": "H0"}, "8": {"label": "*3", "atom_type": "Cs"}, "9": {"label": "*4", "atom_type": "O2s"}}

>  <type>  (18) 
unop_14

>  <geom_source>  (18) 
Heuristics

$$$$

     RDKit          3D

 21 19  0  0  0  0  0  0  0  0999 V2000
   -0.7202    0.5842   -2.8909 C   0  0  0  0  0  0  0  0  0  0  0  0
   -0.7202    0.5842   -1.3985 C   0  0  0  0  0  0  0  0  0  0  0  0
   -0.7202    1.6568   -0.7309 N   0  0  0  0  0  0  0  0  0  0  0  0
    0.1580    0.0542   -3.2683 H   0  0  0  0  0  0  0  0  0  0  0  0
   -1.5985    0.0542   -3.2683 H   0  0  0  0  0  0  0  0  0  0  0  0
   -0.7202    1.6048   -3.2695 H   0  0  0  0  0  0  0  0  0  0  0  0
   -0.7202   -0.4055   -0.9239 H   0  0  0  0  0  0  0  0  0  0  0  0
   -0.7202    1.4266    0.4687 H   0  0  0  0  0  0  0  0  0  0  0  0
   -0.7202    1.1795    1.7569 C   0  0  0  0  0  3  0  0  0  0  0  0
   -0.0638   -0.0345    2.0497 O   0  0  0  0  0  0  0  0  0  0  0  0
    1.1688   -0.1715    1.4378 C   0  0  0  0  0  0  0  0  0  0  0  0
    1.1127   -0.2150    0.0317 O   0  0  0  0  0  0  0  0  0  0  0  0
    0.5986   -1.3249   -0.5523 C   0  0  0  0  0  0  0  0  0  0  0  0
   -0.0214   -2.3455    0.0236 C   0  0  0  0  0  0  0  0  0  0  0  0
   -1.6176    1.2106    2.3714 H   0  0  0  0  0  0  0  0  0  0  0  0
   -0.0844    2.0386    2.0035 H   0  0  0  0  0  0  0  0  0  0  0  0
    1.6048   -1.0972    1.8223 H   0  0  0  0  0  0  0  0  0  0  0  0
    1.8162    0.6849    1.6557 H   0  0  0  0  0  0  0  0  0  0  0  0
    0.7644   -1.2865   -1.6223 H   0  0  0  0  0  0  0  0  0  0  0  0
   -0.3444   -3.1673   -0.5987 H   0  0  0  0  0  0  0  0  0  0  0  0
   -0.2407   -2.3884    1.0803 H   0  0  0  0  0  0  0  0  0  0  0  0
  1  2  1  0
  1  4  1  0
  1  5  1  0
  1  6  1  0
  2  3  2  3
  2  7  1  0
  3  8  1  0
  9 10  1  0
  9 15  1  0
  9 16  1  0
 10 11  1  0
 11 12  1  0
 11 17  1  0
 11 18  1  0
 12 13  1  0
 13 14  2  3
 13 19  1  0
 14 20  1  0
 14 21  1  0
M  RAD  1   9   2
M  END
>  <reaction>  (19) 
rmg_rxn_16731

>  <mol_properties>  (19) 
{"1": {"label": "*0", "atom_type": "Cd"}, "2": {"label": "*1", "atom_type": "N3d"}, "7": {"label": "*2", "atom_type": "H0"}, "8": {"label": "*3", "atom_type": "Cs"}, "9": {"label": "*4", "atom_type": "O2s"}}

>  <type>  (19) 
unop_15

>  <geom_source>  (19) 
gaussian_log

$$$$
