
     RDKit          3D

 14 13  0  0  0  0  0  0  0  0999 V2000
    1.8106   -0.5953    0.5577 C   0  0  0  0  0  0  0  0  0  0  0  0
    0.5197    0.2064    0.6554 C   0  0  0  0  0  0  0  0  0  0  0  0
   -0.5206   -0.2080   -0.3788 C   0  0  0  0  0  0  0  0  0  0  0  0
   -1.8114    0.5937   -0.2812 C   0  0  0  0  0  0  0  0  0  0  0  0
    2.2725   -0.4752   -0.4251 H   0  0  0  0  0  0  0  0  0  0  0  0
    1.6214   -1.6612    0.7052 H   0  0  0  0  0  0  0  0  0  0  0  0
    2.5364   -0.2784    1.3084 H   0  0  0  0  0  0  0  0  0  0  0  0
    0.0930    0.0950    1.6574 H   0  0  0  0  0  0  0  0  0  0  0  0
    0.7393    1.2723    0.5354 H   0  0  0  0  0  0  0  0  0  0  0  0
   -0.7402   -1.2739   -0.2588 H   0  0  0  0  0  0  0  0  0  0  0  0
   -0.0938   -0.0965   -1.3808 H   0  0  0  0  0  0  0  0  0  0  0  0
   -1.6222    1.6596   -0.4287 H   0  0  0  0  0  0  0  0  0  0  0  0
   -2.2734    0.4736    0.7017 H   0  0  0  0  0  0  0  0  0  0  0  0
   -2.5373    0.2768   -1.0318 H   0  0  0  0  0  0  0  0  0  0  0  0
  1  2  1  0
  1  5  1  0
  1  6  1  0
  1  7  1  0
  2  3  1  0
  2  8  1  0
  2  9  1  0
  3  4  1  0
  3 10  1  0
  3 11  1  0
  4 12  1  0
  4 13  1  0
  4 14  1  0
M  END
>  <reaction>  (1) 
rmg_rxn_177

>  <mol_properties>  (1) 
{"2": {"label": "donator", "atom_type": "Cs"}, "10": {"label": "d_hydrogen", "atom_type": "H0"}}

>  <type>  (1) 
r1h

$$$$

     RDKit          3D

  8  7  0  0  0  0  0  0  0  0999 V2000
   -1.0336    0.3440   -0.0356 C   0  0  0  0  0  3  0  0  0  0  0  0
    0.1991   -0.4326   -0.0698 C   0  0  0  0  0  0  0  0  0  0  0  0
    0.9631   -0.0368    1.2269 N   0  0  0  0  0  0  0  0  0  0  0  0
    0.8138   -0.8074    2.1160 O   0  0  0  0  0  0  0  0  0  0  0  0
   -1.0668    1.3490   -0.4321 H   0  0  0  0  0  0  0  0  0  0  0  0
   -1.8598    0.0102    0.5774 H   0  0  0  0  0  0  0  0  0  0  0  0
    0.0447   -1.5108   -0.0264 H   0  0  0  0  0  0  0  0  0  0  0  0
    0.8639   -0.1518   -0.8851 H   0  0  0  0  0  0  0  0  0  0  0  0
  1  2  1  0
  1  5  1  0
  1  6  1  0
  2  3  1  0
  2  7  1  0
  2  8  1  0
  3  4  2  0
M  RAD  1   1   2
M  END
>  <reaction>  (2) 
rmg_rxn_177

>  <mol_properties>  (2) 
{"0": {"label": "acceptor", "atom_type": "Cs"}}

>  <type>  (2) 
r2

$$$$

     RDKit          3D

  9  8  0  0  0  0  0  0  0  0999 V2000
   -1.0314    0.2323   -0.1227 C   0  0  0  0  0  0  0  0  0  0  0  0
    0.3094   -0.4511    0.0063 C   0  0  0  0  0  0  0  0  0  0  0  0
    0.3197   -1.7698    0.6841 N   0  0  0  0  0  0  0  0  0  0  0  0
   -0.7498   -2.1455    1.0557 O   0  0  0  0  0  0  0  0  0  0  0  0
   -1.4744    0.4198    0.8552 H   0  0  0  0  0  0  0  0  0  0  0  0
   -0.9073    1.1865   -0.6350 H   0  0  0  0  0  0  0  0  0  0  0  0
   -1.7319   -0.3778   -0.6927 H   0  0  0  0  0  0  0  0  0  0  0  0
    1.0375    0.1401    0.5713 H   0  0  0  0  0  0  0  0  0  0  0  0
    0.7826   -0.6494   -0.9609 H   0  0  0  0  0  0  0  0  0  0  0  0
  1  2  1  0
  1  5  1  0
  1  6  1  0
  1  7  1  0
  2  3  1  0
  2  8  1  0
  2  9  1  0
  3  4  2  0
M  END
>  <reaction>  (3) 
rmg_rxn_177

>  <mol_properties>  (3) 
{"0": {"label": "acceptor", "atom_type": "Cs"}, "8": {"label": "a_hydrogen", "atom_type": "H0"}}

>  <type>  (3) 
r2h

$$$$

     RDKit          3D

 22 20  0  0  0  0  0  0  0  0999 V2000
    0.2265    1.1175   -0.0942 C   0  0  0  0  0  3  0  0  0  0  0  0
    1.3331    0.1306   -0.2497 C   0  0  0  0  0  0  0  0  0  0  0  0
    2.6324    0.6273   -0.8063 N   0  0  0  0  0  0  0  0  0  0  0  0
    2.6485    1.7862   -1.0791 O   0  0  0  0  0  0  0  0  0  0  0  0
    0.4111    1.9041    0.6329 H   0  0  0  0  0  0  0  0  0  0  0  0
   -0.1762    1.5099   -1.0243 H   0  0  0  0  0  0  0  0  0  0  0  0
    1.6264   -0.3338    0.6980 H   0  0  0  0  0  0  0  0  0  0  0  0
    1.0745   -0.6988   -0.9170 H   0  0  0  0  0  0  0  0  0  0  0  0
   -2.0345   -1.5367   -1.1803 C   0  0  0  0  0  0  0  0  0  0  0  0
   -1.6931   -1.6606    0.2989 C   0  0  0  0  0  0  0  0  0  0  0  0
   -1.7321   -0.3430    1.0338 C   0  0  0  0  0  0  0  0  0  0  0  0
   -1.3533   -0.3876    2.4916 C   0  0  0  0  0  0  0  0  0  0  0  0
   -1.3367   -0.8690   -1.6907 H   0  0  0  0  0  0  0  0  0  0  0  0
   -3.0378   -1.1271   -1.3155 H   0  0  0  0  0  0  0  0  0  0  0  0
   -1.9981   -2.5055   -1.6801 H   0  0  0  0  0  0  0  0  0  0  0  0
   -2.3890   -2.3613    0.7774 H   0  0  0  0  0  0  0  0  0  0  0  0
   -0.6992   -2.1070    0.4155 H   0  0  0  0  0  0  0  0  0  0  0  0
   -2.6530    0.2138    0.8475 H   0  0  0  0  0  0  0  0  0  0  0  0
   -0.8235    0.4056    0.4587 H   0  0  0  0  0  0  0  0  0  0  0  0
   -0.3643   -0.8337    2.6261 H   0  0  0  0  0  0  0  0  0  0  0  0
   -2.0622   -0.9914    3.0678 H   0  0  0  0  0  0  0  0  0  0  0  0
   -1.3352    0.6107    2.9316 H   0  0  0  0  0  0  0  0  0  0  0  0
  1  2  1  0
  1  5  1  0
  1  6  1  0
  2  3  1  0
  2  7  1  0
  2  8  1  0
  3  4  2  0
  9 10  1  0
  9 13  1  0
  9 14  1  0
  9 15  1  0
 10 11  1  0
 10 16  1  0
 10 17  1  0
 11 12  1  0
 11 18  1  0
 11 19  1  0
 12 20  1  0
 12 21  1  0
 12 22  1  0
M  RAD  1   1   2
M  END
>  <reaction>  (4) 
rmg_rxn_177

>  <mol_properties>  (4) 
{"0": {"label": "*3", "atom_type": "Cs"}, "1": {"label": "*4", "atom_type": "Cs"}, "9": {"label": "*0", "atom_type": "Cs"}, "10": {"label": "*1", "atom_type": "Cs"}, "18": {"label": "*2", "atom_type": "H0"}}

>  <type>  (4) 
ts

$$$$

     RDKit          3D

 22 20  0  0  0  0  0  0  0  0999 V2000
    0.8814    0.2368   -0.1575 C   0  0  0  0  0  0  0  0  0  0  0  0
    0.4315    1.4676   -0.9086 C   0  0  0  0  0  0  0  0  0  0  0  0
    1.2381    2.6962   -0.7129 N   0  0  0  0  0  0  0  0  0  0  0  0
    2.1649    2.5692    0.0274 O   0  0  0  0  0  0  0  0  0  0  0  0
    1.8946   -0.0490   -0.4394 H   0  0  0  0  0  0  0  0  0  0  0  0
    0.8718    0.4061    0.9190 H   0  0  0  0  0  0  0  0  0  0  0  0
    0.4262    1.3272   -1.9945 H   0  0  0  0  0  0  0  0  0  0  0  0
   -0.5862    1.7777   -0.6499 H   0  0  0  0  0  0  0  0  0  0  0  0
   -1.2142   -2.4730   -1.3979 C   0  0  0  0  0  0  0  0  0  0  0  0
   -1.2142   -2.4730    0.1248 C   0  0  0  0  0  0  0  0  0  0  0  0
   -1.2142   -1.0706    0.7221 C   0  0  0  0  0  3  0  0  0  0  0  0
   -1.2142   -1.0706    2.2448 C   0  0  0  0  0  0  0  0  0  0  0  0
   -0.3327   -1.9596   -1.7893 H   0  0  0  0  0  0  0  0  0  0  0  0
   -2.0958   -1.9596   -1.7893 H   0  0  0  0  0  0  0  0  0  0  0  0
   -1.2142   -3.4881   -1.7983 H   0  0  0  0  0  0  0  0  0  0  0  0
   -2.0893   -3.0189    0.4921 H   0  0  0  0  0  0  0  0  0  0  0  0
   -0.3392   -3.0189    0.4921 H   0  0  0  0  0  0  0  0  0  0  0  0
   -2.0893   -0.5247    0.3548 H   0  0  0  0  0  0  0  0  0  0  0  0
   -0.1642   -0.4155    0.2814 H   0  0  0  0  0  0  0  0  0  0  0  0
   -0.3327   -1.5839    2.6362 H   0  0  0  0  0  0  0  0  0  0  0  0
   -2.0958   -1.5839    2.6362 H   0  0  0  0  0  0  0  0  0  0  0  0
   -1.2142   -0.0555    2.6452 H   0  0  0  0  0  0  0  0  0  0  0  0
  1  2  1  0
  1  5  1  0
  1  6  1  0
  1 19  1  0
  2  3  1  0
  2  7  1  0
  2  8  1  0
  3  4  2  0
  9 10  1  0
  9 13  1  0
  9 14  1  0
  9 15  1  0
 10 11  1  0
 10 16  1  0
 10 17  1  0
 11 12  1  0
 11 18  1  0
 12 20  1  0
 12 21  1  0
 12 22  1  0
M  RAD  1  11   2
M  END
>  <reaction>  (5) 
rmg_rxn_177

>  <mol_properties>  (5) 
{"0": {"label": "*3", "atom_type": "Cs"}, "1": {"label": "*4", "atom_type": "Cs"}, "9": {"label": "*0", "atom_type": "Cs"}, "10": {"label": "*1", "atom_type": "Cs"}, "18": {"label": "*2", "atom_type": "H0"}}

>  <type>  (5) 
unop_1

>  <geom_source>  (5) 
Heuristics

$$$$

     RDKit          3D

 22 20  0  0  0  0  0  0  0  0999 V2000
    0.6386    0.8256    0.3694 C   0  0  0  0  0  0  0  0  0  0  0  0
    1.0047    0.3266   -1.0085 C   0  0  0  0  0  0  0  0  0  0  0  0
    1.8773    1.2065   -1.8227 N   0  0  0  0  0  0  0  0  0  0  0  0
    2.1950    2.2240   -1.2870 O   0  0  0  0  0  0  0  0  0  0  0  0
    1.5267    0.9791    0.9822 H   0  0  0  0  0  0  0  0  0  0  0  0
    0.1041    1.7738    0.3165 H   0  0  0  0  0  0  0  0  0  0  0  0
    1.5400   -0.6283   -0.9887 H   0  0  0  0  0  0  0  0  0  0  0  0
    0.1318    0.1584   -1.6477 H   0  0  0  0  0  0  0  0  0  0  0  0
   -1.4570   -1.8842   -0.8709 C   0  0  0  0  0  0  0  0  0  0  0  0
   -1.4570   -1.8842    0.6517 C   0  0  0  0  0  0  0  0  0  0  0  0
   -1.4570   -0.4818    1.2491 C   0  0  0  0  0  3  0  0  0  0  0  0
   -1.4570   -0.4818    2.7718 C   0  0  0  0  0  0  0  0  0  0  0  0
   -0.5755   -1.3708   -1.2623 H   0  0  0  0  0  0  0  0  0  0  0  0
   -2.3385   -1.3708   -1.2623 H   0  0  0  0  0  0  0  0  0  0  0  0
   -1.4570   -2.8993   -1.2713 H   0  0  0  0  0  0  0  0  0  0  0  0
   -2.3321   -2.4300    1.0191 H   0  0  0  0  0  0  0  0  0  0  0  0
   -0.5820   -2.4300    1.0191 H   0  0  0  0  0  0  0  0  0  0  0  0
   -2.3321    0.0641    0.8818 H   0  0  0  0  0  0  0  0  0  0  0  0
   -0.4070    0.1733    0.8083 H   0  0  0  0  0  0  0  0  0  0  0  0
   -0.5755   -0.9951    3.1632 H   0  0  0  0  0  0  0  0  0  0  0  0
   -2.3385   -0.9951    3.1632 H   0  0  0  0  0  0  0  0  0  0  0  0
   -1.4570    0.5333    3.1722 H   0  0  0  0  0  0  0  0  0  0  0  0
  1  2  1  0
  1  5  1  0
  1  6  1  0
  1 19  1  0
  2  3  1  0
  2  7  1  0
  2  8  1  0
  3  4  2  0
  9 10  1  0
  9 13  1  0
  9 14  1  0
  9 15  1  0
 10 11  1  0
 10 16  1  0
 10 17  1  0
 11 12  1  0
 11 18  1  0
 12 20  1  0
 12 21  1  0
 12 22  1  0
M  RAD  1  11   2
M  END
>  <reaction>  (6) 
rmg_rxn_177

>  <mol_properties>  (6) 
{"0": {"label": "*3", "atom_type": "Cs"}, "1": {"label": "*4", "atom_type": "Cs"}, "9": {"label": "*0", "atom_type": "Cs"}, "10": {"label": "*1", "atom_type": "Cs"}, "18": {"label": "*2", "atom_type": "H0"}}

>  <type>  (6) 
unop_2

>  <geom_source>  (6) 
Heuristics

$$$$

     RDKit          3D

 22 20  0  0  0  0  0  0  0  0999 V2000
    0.7261    0.2764   -0.3265 C   0  0  0  0  0  0  0  0  0  0  0  0
    0.4098    1.7518   -0.3957 C   0  0  0  0  0  0  0  0  0  0  0  0
    1.5528    2.6835   -0.2403 N   0  0  0  0  0  0  0  0  0  0  0  0
    2.6080    2.1519   -0.0759 O   0  0  0  0  0  0  0  0  0  0  0  0
    1.4282   -0.0136   -1.1079 H   0  0  0  0  0  0  0  0  0  0  0  0
    1.1701    0.0127    0.6331 H   0  0  0  0  0  0  0  0  0  0  0  0
   -0.0423    2.0476   -1.3480 H   0  0  0  0  0  0  0  0  0  0  0  0
   -0.2978    2.0736    0.3753 H   0  0  0  0  0  0  0  0  0  0  0  0
   -1.3696   -2.4333   -1.5669 C   0  0  0  0  0  0  0  0  0  0  0  0
   -1.3696   -2.4333   -0.0442 C   0  0  0  0  0  0  0  0  0  0  0  0
   -1.3696   -1.0309    0.5531 C   0  0  0  0  0  3  0  0  0  0  0  0
   -1.3696   -1.0309    2.0758 C   0  0  0  0  0  0  0  0  0  0  0  0
   -0.4881   -1.9199   -1.9583 H   0  0  0  0  0  0  0  0  0  0  0  0
   -2.2511   -1.9199   -1.9583 H   0  0  0  0  0  0  0  0  0  0  0  0
   -1.3696   -3.4484   -1.9673 H   0  0  0  0  0  0  0  0  0  0  0  0
   -2.2446   -2.9792    0.3231 H   0  0  0  0  0  0  0  0  0  0  0  0
   -0.4945   -2.9792    0.3231 H   0  0  0  0  0  0  0  0  0  0  0  0
   -2.2446   -0.4850    0.1858 H   0  0  0  0  0  0  0  0  0  0  0  0
   -0.3195   -0.3758    0.1124 H   0  0  0  0  0  0  0  0  0  0  0  0
   -0.4881   -1.5443    2.4672 H   0  0  0  0  0  0  0  0  0  0  0  0
   -2.2511   -1.5443    2.4672 H   0  0  0  0  0  0  0  0  0  0  0  0
   -1.3696   -0.0158    2.4762 H   0  0  0  0  0  0  0  0  0  0  0  0
  1  2  1  0
  1  5  1  0
  1  6  1  0
  1 19  1  0
  2  3  1  0
  2  7  1  0
  2  8  1  0
  3  4  2  0
  9 10  1  0
  9 13  1  0
  9 14  1  0
  9 15  1  0
 10 11  1  0
 10 16  1  0
 10 17  1  0
 11 12  1  0
 11 18  1  0
 12 20  1  0
 12 21  1  0
 12 22  1  0
M  RAD  1  11   2
M  END
>  <reaction>  (7) 
rmg_rxn_177

>  <mol_properties>  (7) 
{"0": {"label": "*3", "atom_type": "Cs"}, "1": {"label": "*4", "atom_type": "Cs"}, "9": {"label": "*0", "atom_type": "Cs"}, "10": {"label": "*1", "atom_type": "Cs"}, "18": {"label": "*2", "atom_type": "H0"}}

>  <type>  (7) 
unop_3

>  <geom_source>  (7) 
Heuristics

$$$$

     RDKit          3D

 22 20  0  0  0  0  0  0  0  0999 V2000
    0.2844    0.9012   -0.4936 C   0  0  0  0  0  0  0  0  0  0  0  0
    1.5433    0.1751   -0.0821 C   0  0  0  0  0  0  0  0  0  0  0  0
    2.7376    1.0139    0.1800 N   0  0  0  0  0  0  0  0  0  0  0  0
    2.5639    2.1850    0.0333 O   0  0  0  0  0  0  0  0  0  0  0  0
   -0.0343    1.6049    0.2751 H   0  0  0  0  0  0  0  0  0  0  0  0
    0.4363    1.4629   -1.4151 H   0  0  0  0  0  0  0  0  0  0  0  0
    1.4211   -0.4030    0.8397 H   0  0  0  0  0  0  0  0  0  0  0  0
    1.8870   -0.5435   -0.8334 H   0  0  0  0  0  0  0  0  0  0  0  0
   -1.8112   -1.8085   -1.7340 C   0  0  0  0  0  0  0  0  0  0  0  0
   -1.8112   -1.8085   -0.2113 C   0  0  0  0  0  0  0  0  0  0  0  0
   -1.8112   -0.4061    0.3860 C   0  0  0  0  0  3  0  0  0  0  0  0
   -1.8112   -0.4061    1.9087 C   0  0  0  0  0  0  0  0  0  0  0  0
   -0.9297   -1.2951   -2.1254 H   0  0  0  0  0  0  0  0  0  0  0  0
   -2.6928   -1.2951   -2.1254 H   0  0  0  0  0  0  0  0  0  0  0  0
   -1.8112   -2.8236   -2.1344 H   0  0  0  0  0  0  0  0  0  0  0  0
   -2.6863   -2.3544    0.1560 H   0  0  0  0  0  0  0  0  0  0  0  0
   -0.9362   -2.3544    0.1560 H   0  0  0  0  0  0  0  0  0  0  0  0
   -2.6863    0.1398    0.0187 H   0  0  0  0  0  0  0  0  0  0  0  0
   -0.7612    0.2490   -0.0547 H   0  0  0  0  0  0  0  0  0  0  0  0
   -0.9297   -0.9195    2.3001 H   0  0  0  0  0  0  0  0  0  0  0  0
   -2.6928   -0.9195    2.3001 H   0  0  0  0  0  0  0  0  0  0  0  0
   -1.8112    0.6090    2.3091 H   0  0  0  0  0  0  0  0  0  0  0  0
  1  2  1  0
  1  5  1  0
  1  6  1  0
  1 19  1  0
  2  3  1  0
  2  7  1  0
  2  8  1  0
  3  4  2  0
  9 10  1  0
  9 13  1  0
  9 14  1  0
  9 15  1  0
 10 11  1  0
 10 16  1  0
 10 17  1  0
 11 12  1  0
 11 18  1  0
 12 20  1  0
 12 21  1  0
 12 22  1  0
M  RAD  1  11   2
M  END
>  <reaction>  (8) 
rmg_rxn_177

>  <mol_properties>  (8) 
{"0": {"label": "*3", "atom_type": "Cs"}, "1": {"label": "*4", "atom_type": "Cs"}, "9": {"label": "*0", "atom_type": "Cs"}, "10": {"label": "*1", "atom_type": "Cs"}, "18": {"label": "*2", "atom_type": "H0"}}

>  <type>  (8) 
unop_4

>  <geom_source>  (8) 
Heuristics

$$$$

     RDKit          3D

 22 20  0  0  0  0  0  0  0  0999 V2000
    0.6442    0.3176   -0.3063 C   0  0  0  0  0  0  0  0  0  0  0  0
    0.6548    1.7098    0.2795 C   0  0  0  0  0  0  0  0  0  0  0  0
    1.7809    2.5885   -0.1182 N   0  0  0  0  0  0  0  0  0  0  0  0
    2.5619    2.0866   -0.8674 O   0  0  0  0  0  0  0  0  0  0  0  0
    0.6011    0.3479   -1.3948 H   0  0  0  0  0  0  0  0  0  0  0  0
    1.5401   -0.2356   -0.0250 H   0  0  0  0  0  0  0  0  0  0  0  0
   -0.2361    2.2901    0.0178 H   0  0  0  0  0  0  0  0  0  0  0  0
    0.6934    1.7125    1.3737 H   0  0  0  0  0  0  0  0  0  0  0  0
   -1.4515   -2.3921   -1.5467 C   0  0  0  0  0  0  0  0  0  0  0  0
   -1.4515   -2.3921   -0.0240 C   0  0  0  0  0  0  0  0  0  0  0  0
   -1.4515   -0.9898    0.5734 C   0  0  0  0  0  3  0  0  0  0  0  0
   -1.4515   -0.9898    2.0961 C   0  0  0  0  0  0  0  0  0  0  0  0
   -0.5699   -1.8788   -1.9381 H   0  0  0  0  0  0  0  0  0  0  0  0
   -2.3330   -1.8788   -1.9381 H   0  0  0  0  0  0  0  0  0  0  0  0
   -1.4515   -3.4073   -1.9471 H   0  0  0  0  0  0  0  0  0  0  0  0
   -2.3265   -2.9380    0.3433 H   0  0  0  0  0  0  0  0  0  0  0  0
   -0.5764   -2.9380    0.3433 H   0  0  0  0  0  0  0  0  0  0  0  0
   -2.3265   -0.4439    0.2061 H   0  0  0  0  0  0  0  0  0  0  0  0
   -0.4014   -0.3347    0.1326 H   0  0  0  0  0  0  0  0  0  0  0  0
   -0.5699   -1.5031    2.4874 H   0  0  0  0  0  0  0  0  0  0  0  0
   -2.3330   -1.5031    2.4874 H   0  0  0  0  0  0  0  0  0  0  0  0
   -1.4515    0.0253    2.4964 H   0  0  0  0  0  0  0  0  0  0  0  0
  1  2  1  0
  1  5  1  0
  1  6  1  0
  1 19  1  0
  2  3  1  0
  2  7  1  0
  2  8  1  0
  3  4  2  0
  9 10  1  0
  9 13  1  0
  9 14  1  0
  9 15  1  0
 10 11  1  0
 10 16  1  0
 10 17  1  0
 11 12  1  0
 11 18  1  0
 12 20  1  0
 12 21  1  0
 12 22  1  0
M  RAD  1  11   2
M  END
>  <reaction>  (9) 
rmg_rxn_177

>  <mol_properties>  (9) 
{"0": {"label": "*3", "atom_type": "Cs"}, "1": {"label": "*4", "atom_type": "Cs"}, "9": {"label": "*0", "atom_type": "Cs"}, "10": {"label": "*1", "atom_type": "Cs"}, "18": {"label": "*2", "atom_type": "H0"}}

>  <type>  (9) 
unop_5

>  <geom_source>  (9) 
Heuristics

$$$$

     RDKit          3D

 22 20  0  0  0  0  0  0  0  0999 V2000
    0.4246    0.6472   -0.6349 C   0  0  0  0  0  0  0  0  0  0  0  0
    1.5883    0.4278    0.3028 C   0  0  0  0  0  0  0  0  0  0  0  0
    2.4597    1.5986    0.5643 N   0  0  0  0  0  0  0  0  0  0  0  0
    2.1361    2.5956   -0.0053 O   0  0  0  0  0  0  0  0  0  0  0  0
   -0.2491    1.4147   -0.2546 H   0  0  0  0  0  0  0  0  0  0  0  0
    0.7662    0.9640   -1.6201 H   0  0  0  0  0  0  0  0  0  0  0  0
    1.2771    0.1039    1.3014 H   0  0  0  0  0  0  0  0  0  0  0  0
    2.2821   -0.3422   -0.0503 H   0  0  0  0  0  0  0  0  0  0  0  0
   -1.6710   -2.0626   -1.8753 C   0  0  0  0  0  0  0  0  0  0  0  0
   -1.6710   -2.0626   -0.3526 C   0  0  0  0  0  0  0  0  0  0  0  0
   -1.6710   -0.6602    0.2448 C   0  0  0  0  0  3  0  0  0  0  0  0
   -1.6710   -0.6602    1.7675 C   0  0  0  0  0  0  0  0  0  0  0  0
   -0.7895   -1.5492   -2.2666 H   0  0  0  0  0  0  0  0  0  0  0  0
   -2.5525   -1.5492   -2.2666 H   0  0  0  0  0  0  0  0  0  0  0  0
   -1.6710   -3.0777   -2.2756 H   0  0  0  0  0  0  0  0  0  0  0  0
   -2.5461   -2.6085    0.0147 H   0  0  0  0  0  0  0  0  0  0  0  0
   -0.7960   -2.6085    0.0147 H   0  0  0  0  0  0  0  0  0  0  0  0
   -2.5461   -0.1143   -0.1225 H   0  0  0  0  0  0  0  0  0  0  0  0
   -0.6210   -0.0051   -0.1960 H   0  0  0  0  0  0  0  0  0  0  0  0
   -0.7895   -1.1735    2.1589 H   0  0  0  0  0  0  0  0  0  0  0  0
   -2.5525   -1.1735    2.1589 H   0  0  0  0  0  0  0  0  0  0  0  0
   -1.6710    0.3549    2.1679 H   0  0  0  0  0  0  0  0  0  0  0  0
  1  2  1  0
  1  5  1  0
  1  6  1  0
  1 19  1  0
  2  3  1  0
  2  7  1  0
  2  8  1  0
  3  4  2  0
  9 10  1  0
  9 13  1  0
  9 14  1  0
  9 15  1  0
 10 11  1  0
 10 16  1  0
 10 17  1  0
 11 12  1  0
 11 18  1  0
 12 20  1  0
 12 21  1  0
 12 22  1  0
M  RAD  1  11   2
M  END
>  <reaction>  (10) 
rmg_rxn_177

>  <mol_properties>  (10) 
{"0": {"label": "*3", "atom_type": "Cs"}, "1": {"label": "*4", "atom_type": "Cs"}, "9": {"label": "*0", "atom_type": "Cs"}, "10": {"label": "*1", "atom_type": "Cs"}, "18": {"label": "*2", "atom_type": "H0"}}

>  <type>  (10) 
unop_6

>  <geom_source>  (10) 
Heuristics

$$$$

     RDKit          3D

 22 20  0  0  0  0  0  0  0  0999 V2000
    0.5943    0.4152   -0.5764 C   0  0  0  0  0  0  0  0  0  0  0  0
    1.4593    0.8289    0.5907 C   0  0  0  0  0  0  0  0  0  0  0  0
    2.0789    2.1738    0.5136 N   0  0  0  0  0  0  0  0  0  0  0  0
    1.8186    2.7844   -0.4776 O   0  0  0  0  0  0  0  0  0  0  0  0
   -0.2437    1.0993   -0.7083 H   0  0  0  0  0  0  0  0  0  0  0  0
    1.1638    0.4051   -1.5054 H   0  0  0  0  0  0  0  0  0  0  0  0
    0.9156    0.8445    1.5410 H   0  0  0  0  0  0  0  0  0  0  0  0
    2.3089    0.1573    0.7520 H   0  0  0  0  0  0  0  0  0  0  0  0
   -1.5014   -2.2946   -1.8167 C   0  0  0  0  0  0  0  0  0  0  0  0
   -1.5014   -2.2946   -0.2940 C   0  0  0  0  0  0  0  0  0  0  0  0
   -1.5014   -0.8922    0.3033 C   0  0  0  0  0  3  0  0  0  0  0  0
   -1.5014   -0.8922    1.8260 C   0  0  0  0  0  0  0  0  0  0  0  0
   -0.6198   -1.7812   -2.2081 H   0  0  0  0  0  0  0  0  0  0  0  0
   -2.3829   -1.7812   -2.2081 H   0  0  0  0  0  0  0  0  0  0  0  0
   -1.5014   -3.3097   -2.2171 H   0  0  0  0  0  0  0  0  0  0  0  0
   -2.3764   -2.8404    0.0733 H   0  0  0  0  0  0  0  0  0  0  0  0
   -0.6263   -2.8404    0.0733 H   0  0  0  0  0  0  0  0  0  0  0  0
   -2.3764   -0.3463   -0.0640 H   0  0  0  0  0  0  0  0  0  0  0  0
   -0.4513   -0.2371   -0.1374 H   0  0  0  0  0  0  0  0  0  0  0  0
   -0.6198   -1.4055    2.2174 H   0  0  0  0  0  0  0  0  0  0  0  0
   -2.3829   -1.4055    2.2174 H   0  0  0  0  0  0  0  0  0  0  0  0
   -1.5014    0.1229    2.2264 H   0  0  0  0  0  0  0  0  0  0  0  0
  1  2  1  0
  1  5  1  0
  1  6  1  0
  1 19  1  0
  2  3  1  0
  2  7  1  0
  2  8  1  0
  3  4  2  0
  9 10  1  0
  9 13  1  0
  9 14  1  0
  9 15  1  0
 10 11  1  0
 10 16  1  0
 10 17  1  0
 11 12  1  0
 11 18  1  0
 12 20  1  0
 12 21  1  0
 12 22  1  0
M  RAD  1  11   2
M  END
>  <reaction>  (11) 
rmg_rxn_177

>  <mol_properties>  (11) 
{"0": {"label": "*3", "atom_type": "Cs"}, "1": {"label": "*4", "atom_type": "Cs"}, "9": {"label": "*0", "atom_type": "Cs"}, "10": {"label": "*1", "atom_type": "Cs"}, "18": {"label": "*2", "atom_type": "H0"}}

>  <type>  (11) 
unop_7

>  <geom_source>  (11) 
Heuristics

$$$$

     RDKit          3D

 22 20  0  0  0  0  0  0  0  0999 V2000
    0.9389    0.3276    0.1154 C   0  0  0  0  0  0  0  0  0  0  0  0
    0.5843    1.0517   -1.1619 C   0  0  0  0  0  0  0  0  0  0  0  0
    1.1567    2.4083   -1.3365 N   0  0  0  0  0  0  0  0  0  0  0  0
    1.8428    2.7779   -0.4333 O   0  0  0  0  0  0  0  0  0  0  0  0
    2.0161    0.1873    0.2033 H   0  0  0  0  0  0  0  0  0  0  0  0
    0.6043    0.8843    0.9904 H   0  0  0  0  0  0  0  0  0  0  0  0
    0.9040    0.5141   -2.0606 H   0  0  0  0  0  0  0  0  0  0  0  0
   -0.4934    1.2041   -1.2814 H   0  0  0  0  0  0  0  0  0  0  0  0
   -1.1567   -2.3822   -1.1250 C   0  0  0  0  0  0  0  0  0  0  0  0
   -1.1567   -2.3822    0.3977 C   0  0  0  0  0  0  0  0  0  0  0  0
   -1.1567   -0.9798    0.9951 C   0  0  0  0  0  3  0  0  0  0  0  0
   -1.1567   -0.9798    2.5177 C   0  0  0  0  0  0  0  0  0  0  0  0
   -0.2752   -1.8688   -1.5164 H   0  0  0  0  0  0  0  0  0  0  0  0
   -2.0383   -1.8688   -1.5164 H   0  0  0  0  0  0  0  0  0  0  0  0
   -1.1567   -3.3973   -1.5254 H   0  0  0  0  0  0  0  0  0  0  0  0
   -2.0318   -2.9280    0.7650 H   0  0  0  0  0  0  0  0  0  0  0  0
   -0.2817   -2.9280    0.7650 H   0  0  0  0  0  0  0  0  0  0  0  0
   -2.0318   -0.4339    0.6277 H   0  0  0  0  0  0  0  0  0  0  0  0
   -0.1067   -0.3247    0.5543 H   0  0  0  0  0  0  0  0  0  0  0  0
   -0.2752   -1.4931    2.9091 H   0  0  0  0  0  0  0  0  0  0  0  0
   -2.0383   -1.4931    2.9091 H   0  0  0  0  0  0  0  0  0  0  0  0
   -1.1567    0.0353    2.9181 H   0  0  0  0  0  0  0  0  0  0  0  0
  1  2  1  0
  1  5  1  0
  1  6  1  0
  1 19  1  0
  2  3  1  0
  2  7  1  0
  2  8  1  0
  3  4  2  0
  9 10  1  0
  9 13  1  0
  9 14  1  0
  9 15  1  0
 10 11  1  0
 10 16  1  0
 10 17  1  0
 11 12  1  0
 11 18  1  0
 12 20  1  0
 12 21  1  0
 12 22  1  0
M  RAD  1  11   2
M  END
>  <reaction>  (12) 
rmg_rxn_177

>  <mol_properties>  (12) 
{"0": {"label": "*3", "atom_type": "Cs"}, "1": {"label": "*4", "atom_type": "Cs"}, "9": {"label": "*0", "atom_type": "Cs"}, "10": {"label": "*1", "atom_type": "Cs"}, "18": {"label": "*2", "atom_type": "H0"}}

>  <type>  (12) 
unop_8

>  <geom_source>  (12) 
Heuristics

$$$$

     RDKit          3D

 22 20  0  0  0  0  0  0  0  0999 V2000
    0.2604    1.0606   -0.1823 C   0  0  0  0  0  0  0  0  0  0  0  0
    1.3857    0.0899   -0.4527 C   0  0  0  0  0  0  0  0  0  0  0  0
    2.7488    0.6650   -0.5513 N   0  0  0  0  0  0  0  0  0  0  0  0
    2.8008    1.8475   -0.4033 O   0  0  0  0  0  0  0  0  0  0  0  0
    0.4094    1.5841    0.7619 H   0  0  0  0  0  0  0  0  0  0  0  0
    0.1886    1.8105   -0.9697 H   0  0  0  0  0  0  0  0  0  0  0  0
    1.4808   -0.6799    0.3201 H   0  0  0  0  0  0  0  0  0  0  0  0
    1.2622   -0.4557   -1.3939 H   0  0  0  0  0  0  0  0  0  0  0  0
   -1.8352   -1.6491   -1.4227 C   0  0  0  0  0  0  0  0  0  0  0  0
   -1.8352   -1.6491    0.1000 C   0  0  0  0  0  0  0  0  0  0  0  0
   -1.8352   -0.2468    0.6974 C   0  0  0  0  0  3  0  0  0  0  0  0
   -1.8352   -0.2468    2.2201 C   0  0  0  0  0  0  0  0  0  0  0  0
   -0.9537   -1.1358   -1.8140 H   0  0  0  0  0  0  0  0  0  0  0  0
   -2.7168   -1.1358   -1.8140 H   0  0  0  0  0  0  0  0  0  0  0  0
   -1.8352   -2.6642   -1.8230 H   0  0  0  0  0  0  0  0  0  0  0  0
   -2.7103   -2.1950    0.4673 H   0  0  0  0  0  0  0  0  0  0  0  0
   -0.9602   -2.1950    0.4673 H   0  0  0  0  0  0  0  0  0  0  0  0
   -2.7103    0.2991    0.3301 H   0  0  0  0  0  0  0  0  0  0  0  0
   -0.7852    0.4083    0.2566 H   0  0  0  0  0  0  0  0  0  0  0  0
   -0.9537   -0.7601    2.6115 H   0  0  0  0  0  0  0  0  0  0  0  0
   -2.7168   -0.7601    2.6115 H   0  0  0  0  0  0  0  0  0  0  0  0
   -1.8352    0.7683    2.6205 H   0  0  0  0  0  0  0  0  0  0  0  0
  1  2  1  0
  1  5  1  0
  1  6  1  0
  1 19  1  0
  2  3  1  0
  2  7  1  0
  2  8  1  0
  3  4  2  0
  9 10  1  0
  9 13  1  0
  9 14  1  0
  9 15  1  0
 10 11  1  0
 10 16  1  0
 10 17  1  0
 11 12  1  0
 11 18  1  0
 12 20  1  0
 12 21  1  0
 12 22  1  0
M  RAD  1  11   2
M  END
>  <reaction>  (13) 
rmg_rxn_177

>  <mol_properties>  (13) 
{"0": {"label": "*3", "atom_type": "Cs"}, "1": {"label": "*4", "atom_type": "Cs"}, "9": {"label": "*0", "atom_type": "Cs"}, "10": {"label": "*1", "atom_type": "Cs"}, "18": {"label": "*2", "atom_type": "H0"}}

>  <type>  (13) 
unop_9

>  <geom_source>  (13) 
Heuristics

$$$$

     RDKit          3D

 22 20  0  0  0  0  0  0  0  0999 V2000
    0.8511    0.5491    0.3330 C   0  0  0  0  0  0  0  0  0  0  0  0
    0.7951    0.6401   -1.1736 C   0  0  0  0  0  0  0  0  0  0  0  0
    1.3887    1.8521   -1.7878 N   0  0  0  0  0  0  0  0  0  0  0  0
    1.8499    2.6287   -1.0085 O   0  0  0  0  0  0  0  0  0  0  0  0
    1.8802    0.5657    0.6913 H   0  0  0  0  0  0  0  0  0  0  0  0
    0.3244    1.3820    0.7984 H   0  0  0  0  0  0  0  0  0  0  0  0
    1.3128   -0.1867   -1.6710 H   0  0  0  0  0  0  0  0  0  0  0  0
   -0.2273    0.6214   -1.5650 H   0  0  0  0  0  0  0  0  0  0  0  0
   -1.2445   -2.1606   -0.9073 C   0  0  0  0  0  0  0  0  0  0  0  0
   -1.2445   -2.1606    0.6154 C   0  0  0  0  0  0  0  0  0  0  0  0
   -1.2445   -0.7582    1.2127 C   0  0  0  0  0  3  0  0  0  0  0  0
   -1.2445   -0.7582    2.7354 C   0  0  0  0  0  0  0  0  0  0  0  0
   -0.3630   -1.6473   -1.2987 H   0  0  0  0  0  0  0  0  0  0  0  0
   -2.1261   -1.6473   -1.2987 H   0  0  0  0  0  0  0  0  0  0  0  0
   -1.2446   -3.1757   -1.3077 H   0  0  0  0  0  0  0  0  0  0  0  0
   -2.1196   -2.7065    0.9827 H   0  0  0  0  0  0  0  0  0  0  0  0
   -0.3695   -2.7065    0.9827 H   0  0  0  0  0  0  0  0  0  0  0  0
   -2.1196   -0.2124    0.8454 H   0  0  0  0  0  0  0  0  0  0  0  0
   -0.1945   -0.1032    0.7720 H   0  0  0  0  0  0  0  0  0  0  0  0
   -0.3630   -1.2716    3.1268 H   0  0  0  0  0  0  0  0  0  0  0  0
   -2.1261   -1.2716    3.1268 H   0  0  0  0  0  0  0  0  0  0  0  0
   -1.2446    0.2569    3.1358 H   0  0  0  0  0  0  0  0  0  0  0  0
  1  2  1  0
  1  5  1  0
  1  6  1  0
  1 19  1  0
  2  3  1  0
  2  7  1  0
  2  8  1  0
  3  4  2  0
  9 10  1  0
  9 13  1  0
  9 14  1  0
  9 15  1  0
 10 11  1  0
 10 16  1  0
 10 17  1  0
 11 12  1  0
 11 18  1  0
 12 20  1  0
 12 21  1  0
 12 22  1  0
M  RAD  1  11   2
M  END
>  <reaction>  (14) 
rmg_rxn_177

>  <mol_properties>  (14) 
{"0": {"label": "*3", "atom_type": "Cs"}, "1": {"label": "*4", "atom_type": "Cs"}, "9": {"label": "*0", "atom_type": "Cs"}, "10": {"label": "*1", "atom_type": "Cs"}, "18": {"label": "*2", "atom_type": "H0"}}

>  <type>  (14) 
unop_10

>  <geom_source>  (14) 
Heuristics

$$$$

     RDKit          3D

 22 20  0  0  0  0  0  0  0  0999 V2000
    0.6817    0.3040   -0.3912 C   0  0  0  0  0  0  0  0  0  0  0  0
    1.1247    1.3076    0.6470 C   0  0  0  0  0  0  0  0  0  0  0  0
    1.8176    2.5189    0.1459 N   0  0  0  0  0  0  0  0  0  0  0  0
    1.9477    2.5622   -1.0391 O   0  0  0  0  0  0  0  0  0  0  0  0
   -0.0170    0.7504   -1.0986 H   0  0  0  0  0  0  0  0  0  0  0  0
    1.5304   -0.0771   -0.9589 H   0  0  0  0  0  0  0  0  0  0  0  0
    0.2934    1.7062    1.2378 H   0  0  0  0  0  0  0  0  0  0  0  0
    1.8251    0.8872    1.3761 H   0  0  0  0  0  0  0  0  0  0  0  0
   -1.4139   -2.4057   -1.6316 C   0  0  0  0  0  0  0  0  0  0  0  0
   -1.4139   -2.4057   -0.1089 C   0  0  0  0  0  0  0  0  0  0  0  0
   -1.4139   -1.0033    0.4884 C   0  0  0  0  0  3  0  0  0  0  0  0
   -1.4139   -1.0033    2.0111 C   0  0  0  0  0  0  0  0  0  0  0  0
   -0.5324   -1.8924   -2.0230 H   0  0  0  0  0  0  0  0  0  0  0  0
   -2.2955   -1.8924   -2.0230 H   0  0  0  0  0  0  0  0  0  0  0  0
   -1.4139   -3.4208   -2.0320 H   0  0  0  0  0  0  0  0  0  0  0  0
   -2.2890   -2.9516    0.2584 H   0  0  0  0  0  0  0  0  0  0  0  0
   -0.5389   -2.9516    0.2584 H   0  0  0  0  0  0  0  0  0  0  0  0
   -2.2890   -0.4575    0.1211 H   0  0  0  0  0  0  0  0  0  0  0  0
   -0.3639   -0.3483    0.0477 H   0  0  0  0  0  0  0  0  0  0  0  0
   -0.5324   -1.5167    2.4025 H   0  0  0  0  0  0  0  0  0  0  0  0
   -2.2955   -1.5167    2.4025 H   0  0  0  0  0  0  0  0  0  0  0  0
   -1.4139    0.0118    2.4115 H   0  0  0  0  0  0  0  0  0  0  0  0
  1  2  1  0
  1  5  1  0
  1  6  1  0
  1 19  1  0
  2  3  1  0
  2  7  1  0
  2  8  1  0
  3  4  2  0
  9 10  1  0
  9 13  1  0
  9 14  1  0
  9 15  1  0
 10 11  1  0
 10 16  1  0
 10 17  1  0
 11 12  1  0
 11 18  1  0
 12 20  1  0
 12 21  1  0
 12 22  1  0
M  RAD  1  11   2
M  END
>  <reaction>  (15) 
rmg_rxn_177

>  <mol_properties>  (15) 
{"0": {"label": "*3", "atom_type": "Cs"}, "1": {"label": "*4", "atom_type": "Cs"}, "9": {"label": "*0", "atom_type": "Cs"}, "10": {"label": "*1", "atom_type": "Cs"}, "18": {"label": "*2", "atom_type": "H0"}}

>  <type>  (15) 
unop_11

>  <geom_source>  (15) 
Heuristics

$$$$

     RDKit          3D

 22 20  0  0  0  0  0  0  0  0999 V2000
    0.3968    1.0333    0.1681 C   0  0  0  0  0  0  0  0  0  0  0  0
    1.1953    0.1458   -0.7573 C   0  0  0  0  0  0  0  0  0  0  0  0
    2.4216    0.7347   -1.3471 N   0  0  0  0  0  0  0  0  0  0  0  0
    2.6402    1.8602   -1.0175 O   0  0  0  0  0  0  0  0  0  0  0  0
    0.9928    1.3479    1.0246 H   0  0  0  0  0  0  0  0  0  0  0  0
    0.0538    1.9314   -0.3452 H   0  0  0  0  0  0  0  0  0  0  0  0
    1.5508   -0.7684   -0.2709 H   0  0  0  0  0  0  0  0  0  0  0  0
    0.6213   -0.1909   -1.6268 H   0  0  0  0  0  0  0  0  0  0  0  0
   -1.6988   -1.6764   -1.0722 C   0  0  0  0  0  0  0  0  0  0  0  0
   -1.6988   -1.6764    0.4505 C   0  0  0  0  0  0  0  0  0  0  0  0
   -1.6988   -0.2740    1.0478 C   0  0  0  0  0  3  0  0  0  0  0  0
   -1.6988   -0.2740    2.5705 C   0  0  0  0  0  0  0  0  0  0  0  0
   -0.8173   -1.1630   -1.4636 H   0  0  0  0  0  0  0  0  0  0  0  0
   -2.5803   -1.1630   -1.4636 H   0  0  0  0  0  0  0  0  0  0  0  0
   -1.6988   -2.6915   -1.4726 H   0  0  0  0  0  0  0  0  0  0  0  0
   -2.5739   -2.2223    0.8178 H   0  0  0  0  0  0  0  0  0  0  0  0
   -0.8238   -2.2223    0.8178 H   0  0  0  0  0  0  0  0  0  0  0  0
   -2.5739    0.2719    0.6805 H   0  0  0  0  0  0  0  0  0  0  0  0
   -0.6488    0.3810    0.6070 H   0  0  0  0  0  0  0  0  0  0  0  0
   -0.8173   -0.7874    2.9619 H   0  0  0  0  0  0  0  0  0  0  0  0
   -2.5803   -0.7874    2.9619 H   0  0  0  0  0  0  0  0  0  0  0  0
   -1.6988    0.7411    2.9709 H   0  0  0  0  0  0  0  0  0  0  0  0
  1  2  1  0
  1  5  1  0
  1  6  1  0
  1 19  1  0
  2  3  1  0
  2  7  1  0
  2  8  1  0
  3  4  2  0
  9 10  1  0
  9 13  1  0
  9 14  1  0
  9 15  1  0
 10 11  1  0
 10 16  1  0
 10 17  1  0
 11 12  1  0
 11 18  1  0
 12 20  1  0
 12 21  1  0
 12 22  1  0
M  RAD  1  11   2
M  END
>  <reaction>  (16) 
rmg_rxn_177

>  <mol_properties>  (16) 
{"0": {"label": "*3", "atom_type": "Cs"}, "1": {"label": "*4", "atom_type": "Cs"}, "9": {"label": "*0", "atom_type": "Cs"}, "10": {"label": "*1", "atom_type": "Cs"}, "18": {"label": "*2", "atom_type": "H0"}}

>  <type>  (16) 
unop_12

>  <geom_source>  (16) 
Heuristics

$$$$

     RDKit          3D

 22 20  0  0  0  0  0  0  0  0999 V2000
    4.4882    1.3017   -0.0829 O   0  0  0  0  0  0  0  0  0  0  0  0
    4.1239    0.1935    0.1716 N   0  0  0  0  0  0  0  0  0  0  0  0
   -1.4256    0.7130    0.5652 C   0  0  0  0  0  0  0  0  0  0  0  0
    2.9056   -0.3303   -0.3953 C   0  0  0  0  0  0  0  0  0  0  0  0
   -2.9111    0.9069    0.2662 C   0  0  0  0  0  0  0  0  0  0  0  0
    1.6920    0.3900    0.1793 C   0  0  0  0  0  0  0  0  0  0  0  0
   -1.1536   -1.7047   -0.2165 C   0  0  0  0  0  0  0  0  0  0  0  0
   -0.7506   -0.2473   -0.4199 C   0  0  0  0  0  3  0  0  0  0  0  0
   -1.2972    0.3452    1.6060 H   0  0  0  0  0  0  0  0  0  0  0  0
   -0.9176    1.6979    0.4904 H   0  0  0  0  0  0  0  0  0  0  0  0
    2.9240   -0.2159   -1.5006 H   0  0  0  0  0  0  0  0  0  0  0  0
    2.8319   -1.4115   -0.1545 H   0  0  0  0  0  0  0  0  0  0  0  0
    1.6693    0.2799    1.2845 H   0  0  0  0  0  0  0  0  0  0  0  0
    1.7247    1.4691   -0.0817 H   0  0  0  0  0  0  0  0  0  0  0  0
    0.6079   -0.1278   -0.3172 H   0  0  0  0  0  0  0  0  0  0  0  0
   -3.3272    1.6783    0.9478 H   0  0  0  0  0  0  0  0  0  0  0  0
   -3.0549    1.2461   -0.7817 H   0  0  0  0  0  0  0  0  0  0  0  0
   -3.4700   -0.0382    0.4286 H   0  0  0  0  0  0  0  0  0  0  0  0
   -2.2201   -1.8569   -0.4829 H   0  0  0  0  0  0  0  0  0  0  0  0
   -0.9852   -2.0082    0.8381 H   0  0  0  0  0  0  0  0  0  0  0  0
   -0.5313   -2.3480   -0.8723 H   0  0  0  0  0  0  0  0  0  0  0  0
   -0.9229    0.0671   -1.4722 H   0  0  0  0  0  0  0  0  0  0  0  0
  1  2  2  0
  2  4  1  0
  3  5  1  0
  3  8  1  0
  3  9  1  0
  3 10  1  0
  4  6  1  0
  4 11  1  0
  4 12  1  0
  5 16  1  0
  5 17  1  0
  5 18  1  0
  6 13  1  0
  6 14  1  0
  6 15  1  0
  7  8  1  0
  7 19  1  0
  7 20  1  0
  7 21  1  0
  8 22  1  0
M  RAD  1   8   2
M  END
>  <reaction>  (17) 
rmg_rxn_177

>  <mol_properties>  (17) 
{"0": {"label": "*3", "atom_type": "Cs"}, "1": {"label": "*4", "atom_type": "Cs"}, "9": {"label": "*0", "atom_type": "Cs"}, "10": {"label": "*1", "atom_type": "Cs"}, "18": {"label": "*2", "atom_type": "H0"}}

>  <type>  (17) 
unop_13

>  <geom_source>  (17) 
AutoTST

$$$$

     RDKit          3D

 22 20  0  0  0  0  0  0  0  0999 V2000
    0.6386    0.8256    0.3694 C   0  0  0  0  0  0  0  0  0  0  0  0
    1.0047    0.3266   -1.0085 C   0  0  0  0  0  0  0  0  0  0  0  0
    1.8773    1.2065   -1.8227 N   0  0  0  0  0  0  0  0  0  0  0  0
    2.1950    2.2240   -1.2870 O   0  0  0  0  0  0  0  0  0  0  0  0
    1.5267    0.9791    0.9822 H   0  0  0  0  0  0  0  0  0  0  0  0
    0.1041    1.7738    0.3165 H   0  0  0  0  0  0  0  0  0  0  0  0
    1.5400   -0.6283   -0.9887 H   0  0  0  0  0  0  0  0  0  0  0  0
    0.1318    0.1584   -1.6477 H   0  0  0  0  0  0  0  0  0  0  0  0
   -1.4570   -1.8842   -0.8710 C   0  0  0  0  0  0  0  0  0  0  0  0
   -1.4570   -1.8842    0.6518 C   0  0  0  0  0  0  0  0  0  0  0  0
   -1.4570   -0.4818    1.2491 C   0  0  0  0  0  3  0  0  0  0  0  0
   -1.4570   -0.4818    2.7718 C   0  0  0  0  0  0  0  0  0  0  0  0
   -0.5755   -1.3708   -1.2623 H   0  0  0  0  0  0  0  0  0  0  0  0
   -2.3386   -1.3708   -1.2623 H   0  0  0  0  0  0  0  0  0  0  0  0
   -1.4570   -2.8993   -1.2713 H   0  0  0  0  0  0  0  0  0  0  0  0
   -2.3321   -2.4300    1.0191 H   0  0  0  0  0  0  0  0  0  0  0  0
   -0.5820   -2.4300    1.0191 H   0  0  0  0  0  0  0  0  0  0  0  0
   -2.3321    0.0641    0.8818 H   0  0  0  0  0  0  0  0  0  0  0  0
   -0.4070    0.1733    0.8083 H   0  0  0  0  0  0  0  0  0  0  0  0
   -0.5755   -0.9951    3.1632 H   0  0  0  0  0  0  0  0  0  0  0  0
   -2.3386   -0.9951    3.1632 H   0  0  0  0  0  0  0  0  0  0  0  0
   -1.4570    0.5333    3.1722 H   0  0  0  0  0  0  0  0  0  0  0  0
  1  2  1  0
  1  5  1  0
  1  6  1  0
  1 19  1  0
  2  3  1  0
  2  7  1  0
  2  8  1  0
  3  4  2  0
  9 10  1  0
  9 13  1  0
  9 14  1  0
  9 15  1  0
 10 11  1  0
 10 16  1  0
 10 17  1  0
 11 12  1  0
 11 18  1  0
 12 20  1  0
 12 21  1  0
 12 22  1  0
M  RAD  1  11   2
M  END
>  <reaction>  (18) 
rmg_rxn_177

>  <mol_properties>  (18) 
{"0": {"label": "*3", "atom_type": "Cs"}, "1": {"label": "*4", "atom_type": "Cs"}, "9": {"label": "*0", "atom_type": "Cs"}, "10": {"label": "*1", "atom_type": "Cs"}, "18": {"label": "*2", "atom_type": "H0"}}

>  <type>  (18) 
unop_14

>  <geom_source>  (18) 
gaussian_log

$$$$
