
     RDKit          3D

 14 14  0  0  0  0  0  0  0  0999 V2000
   -1.1778    0.2241    0.1818 C   0  0  0  0  0  0  0  0  0  0  0  0
   -0.5633   -1.1636    0.0678 C   0  0  0  0  0  0  0  0  0  0  0  0
    0.6943   -1.1996    0.7146 O   0  0  0  0  0  0  0  0  0  0  0  0
    1.5547   -0.2288    0.2011 C   0  0  0  0  0  0  0  0  0  0  0  0
    1.0729    1.0696    0.3698 O   0  0  0  0  0  0  0  0  0  0  0  0
   -0.1607    1.2493   -0.2989 C   0  0  0  0  0  0  0  0  0  0  0  0
   -2.0927    0.2866   -0.4117 H   0  0  0  0  0  0  0  0  0  0  0  0
   -1.4303    0.4248    1.2248 H   0  0  0  0  0  0  0  0  0  0  0  0
   -1.1822   -1.9235    0.5431 H   0  0  0  0  0  0  0  0  0  0  0  0
   -0.4389   -1.4347   -0.9919 H   0  0  0  0  0  0  0  0  0  0  0  0
    1.7250   -0.4207   -0.8742 H   0  0  0  0  0  0  0  0  0  0  0  0
    2.4896   -0.3010    0.7524 H   0  0  0  0  0  0  0  0  0  0  0  0
   -0.0080    1.1481   -1.3844 H   0  0  0  0  0  0  0  0  0  0  0  0
   -0.4826    2.2695   -0.0942 H   0  0  0  0  0  0  0  0  0  0  0  0
  1  2  1  0
  1  6  1  0
  1  7  1  0
  1  8  1  0
  2  3  1  0
  2  9  1  0
  2 10  1  0
  3  4  1  0
  4  5  1  0
  4 11  1  0
  4 12  1  0
  5  6  1  0
  6 13  1  0
  6 14  1  0
M  END
>  <reaction>  (1) 
rmg_rxn_267

>  <mol_properties>  (1) 
{"1": {"label": "donator", "atom_type": "Cs"}, "8": {"label": "d_hydrogen", "atom_type": "H0"}}

>  <type>  (1) 
r1h

$$$$

     RDKit          3D

 13 13  0  0  0  0  0  0  0  0999 V2000
   -1.1371    0.3608    0.3110 C   0  0  0  0  0  3  0  0  0  0  0  0
   -0.0045    1.3224    0.2943 C   0  0  0  0  0  0  0  0  0  0  0  0
    1.2245    0.6965    0.6137 O   0  0  0  0  0  0  0  0  0  0  0  0
    1.3926   -0.4921   -0.0955 C   0  0  0  0  0  0  0  0  0  0  0  0
    0.4387   -1.4537    0.2351 O   0  0  0  0  0  0  0  0  0  0  0  0
   -0.8659   -1.0349   -0.1206 C   0  0  0  0  0  0  0  0  0  0  0  0
   -2.1544    0.7285    0.3341 H   0  0  0  0  0  0  0  0  0  0  0  0
   -0.1488    2.1272    1.0165 H   0  0  0  0  0  0  0  0  0  0  0  0
    0.0825    1.7949   -0.7036 H   0  0  0  0  0  0  0  0  0  0  0  0
    1.3549   -0.2872   -1.1815 H   0  0  0  0  0  0  0  0  0  0  0  0
    2.3646   -0.8956    0.1787 H   0  0  0  0  0  0  0  0  0  0  0  0
   -1.5620   -1.7401    0.3358 H   0  0  0  0  0  0  0  0  0  0  0  0
   -0.9852   -1.1268   -1.2179 H   0  0  0  0  0  0  0  0  0  0  0  0
  1  2  1  0
  1  6  1  0
  1  7  1  0
  2  3  1  0
  2  8  1  0
  2  9  1  0
  3  4  1  0
  4  5  1  0
  4 10  1  0
  4 11  1  0
  5  6  1  0
  6 12  1  0
  6 13  1  0
M  RAD  1   1   2
M  END
>  <reaction>  (2) 
rmg_rxn_267

>  <mol_properties>  (2) 
{"0": {"label": "acceptor", "atom_type": "Cs"}}

>  <type>  (2) 
r2

$$$$

     RDKit          3D

 14 14  0  0  0  0  0  0  0  0999 V2000
   -1.1778    0.2241    0.1818 C   0  0  0  0  0  0  0  0  0  0  0  0
   -0.5633   -1.1636    0.0678 C   0  0  0  0  0  0  0  0  0  0  0  0
    0.6943   -1.1996    0.7146 O   0  0  0  0  0  0  0  0  0  0  0  0
    1.5547   -0.2288    0.2011 C   0  0  0  0  0  0  0  0  0  0  0  0
    1.0729    1.0696    0.3698 O   0  0  0  0  0  0  0  0  0  0  0  0
   -0.1607    1.2493   -0.2989 C   0  0  0  0  0  0  0  0  0  0  0  0
   -2.0927    0.2866   -0.4117 H   0  0  0  0  0  0  0  0  0  0  0  0
   -1.4303    0.4248    1.2248 H   0  0  0  0  0  0  0  0  0  0  0  0
   -1.1822   -1.9235    0.5431 H   0  0  0  0  0  0  0  0  0  0  0  0
   -0.4389   -1.4347   -0.9919 H   0  0  0  0  0  0  0  0  0  0  0  0
    1.7250   -0.4207   -0.8742 H   0  0  0  0  0  0  0  0  0  0  0  0
    2.4896   -0.3010    0.7524 H   0  0  0  0  0  0  0  0  0  0  0  0
   -0.0080    1.1481   -1.3844 H   0  0  0  0  0  0  0  0  0  0  0  0
   -0.4826    2.2695   -0.0942 H   0  0  0  0  0  0  0  0  0  0  0  0
  1  2  1  0
  1  6  1  0
  1  7  1  0
  1  8  1  0
  2  3  1  0
  2  9  1  0
  2 10  1  0
  3  4  1  0
  4  5  1  0
  4 11  1  0
  4 12  1  0
  5  6  1  0
  6 13  1  0
  6 14  1  0
M  END
>  <reaction>  (3) 
rmg_rxn_267

>  <mol_properties>  (3) 
{"0": {"label": "acceptor", "atom_type": "Cs"}, "13": {"label": "a_hydrogen", "atom_type": "H0"}}

>  <type>  (3) 
r2h

$$$$

     RDKit          3D

 27 27  0  0  0  0  0  0  0  0999 V2000
    0.8766   -1.4943    0.1809 C   0  0  0  0  0  3  0  0  0  0  0  0
    1.1342   -0.7840    1.4853 C   0  0  0  0  0  0  0  0  0  0  0  0
    1.0010   -1.6968    2.5694 O   0  0  0  0  0  0  0  0  0  0  0  0
   -0.2469   -2.3170    2.5509 C   0  0  0  0  0  0  0  0  0  0  0  0
   -0.4680   -3.0708    1.3956 O   0  0  0  0  0  0  0  0  0  0  0  0
   -0.4267   -2.2496    0.2361 C   0  0  0  0  0  0  0  0  0  0  0  0
    1.7166   -2.0950   -0.1631 H   0  0  0  0  0  0  0  0  0  0  0  0
    2.1386   -0.3705    1.5387 H   0  0  0  0  0  0  0  0  0  0  0  0
    0.4184    0.0414    1.6162 H   0  0  0  0  0  0  0  0  0  0  0  0
   -1.0399   -1.5522    2.6453 H   0  0  0  0  0  0  0  0  0  0  0  0
   -0.2802   -3.0041    3.3937 H   0  0  0  0  0  0  0  0  0  0  0  0
   -1.2727   -1.5450    0.2656 H   0  0  0  0  0  0  0  0  0  0  0  0
   -0.5609   -2.9105   -0.6188 H   0  0  0  0  0  0  0  0  0  0  0  0
   -0.8444    1.0350   -1.3796 C   0  0  0  0  0  0  0  0  0  0  0  0
    0.5904    0.5820   -1.4792 C   0  0  0  0  0  0  0  0  0  0  0  0
    1.4692    1.4806   -0.8734 O   0  0  0  0  0  0  0  0  0  0  0  0
    1.3099    2.7853   -1.3702 C   0  0  0  0  0  0  0  0  0  0  0  0
    0.0216    3.2750   -1.1829 O   0  0  0  0  0  0  0  0  0  0  0  0
   -0.9358    2.4827   -1.8580 C   0  0  0  0  0  0  0  0  0  0  0  0
   -1.4944    0.3901   -1.9740 H   0  0  0  0  0  0  0  0  0  0  0  0
   -1.1712    0.9872   -0.3375 H   0  0  0  0  0  0  0  0  0  0  0  0
    0.7378   -0.5178   -0.7511 H   0  0  0  0  0  0  0  0  0  0  0  0
    0.9123    0.3110   -2.4924 H   0  0  0  0  0  0  0  0  0  0  0  0
    1.5618    2.7951   -2.4447 H   0  0  0  0  0  0  0  0  0  0  0  0
    1.9888    3.4246   -0.8109 H   0  0  0  0  0  0  0  0  0  0  0  0
   -0.7608    2.5347   -2.9425 H   0  0  0  0  0  0  0  0  0  0  0  0
   -1.9108    2.9189   -1.6450 H   0  0  0  0  0  0  0  0  0  0  0  0
  1  2  1  0
  1  6  1  0
  1  7  1  0
  2  3  1  0
  2  8  1  0
  2  9  1  0
  3  4  1  0
  4  5  1  0
  4 10  1  0
  4 11  1  0
  5  6  1  0
  6 12  1  0
  6 13  1  0
 14 15  1  0
 14 19  1  0
 14 20  1  0
 14 21  1  0
 15 16  1  0
 15 22  1  0
 15 23  1  0
 16 17  1  0
 17 18  1  0
 17 24  1  0
 17 25  1  0
 18 19  1  0
 19 26  1  0
 19 27  1  0
M  RAD  1   1   2
M  END
>  <reaction>  (4) 
rmg_rxn_267

>  <mol_properties>  (4) 
{"0": {"label": "*3", "atom_type": "Cs"}, "1": {"label": "*4", "atom_type": "Cs"}, "14": {"label": "*1", "atom_type": "Cs"}, "15": {"label": "*0", "atom_type": "O2s"}, "21": {"label": "*2", "atom_type": "H0"}}

>  <type>  (4) 
ts

$$$$

     RDKit          3D

 27 27  0  0  0  0  0  0  0  0999 V2000
    0.0973   -1.7264    0.1230 C   0  0  0  0  0  3  0  0  0  0  0  0
    1.2812   -2.1448    0.9832 C   0  0  0  0  0  0  0  0  0  0  0  0
    0.8305   -2.7089    2.1998 O   0  0  0  0  0  0  0  0  0  0  0  0
   -0.0004   -1.8255    2.8894 C   0  0  0  0  0  0  0  0  0  0  0  0
   -1.1493   -1.4878    2.1736 O   0  0  0  0  0  0  0  0  0  0  0  0
   -0.8241   -0.8462    0.9554 C   0  0  0  0  0  0  0  0  0  0  0  0
   -0.4466   -2.6152   -0.2030 H   0  0  0  0  0  0  0  0  0  0  0  0
    1.8928   -2.9017    0.4942 H   0  0  0  0  0  0  0  0  0  0  0  0
    1.9184   -1.2729    1.1968 H   0  0  0  0  0  0  0  0  0  0  0  0
    0.5632   -0.9065    3.1343 H   0  0  0  0  0  0  0  0  0  0  0  0
   -0.3221   -2.3275    3.7992 H   0  0  0  0  0  0  0  0  0  0  0  0
   -0.3350    0.1170    1.1670 H   0  0  0  0  0  0  0  0  0  0  0  0
   -1.7654   -0.6453    0.4457 H   0  0  0  0  0  0  0  0  0  0  0  0
    0.4793    0.6711   -2.3781 C   0  0  0  0  0  0  0  0  0  0  0  0
    0.4793    0.6711   -0.8561 C   0  0  0  0  0  0  0  0  0  0  0  0
   -0.5690    1.4837   -0.3640 O   0  0  0  0  0  0  0  0  0  0  0  0
   -0.4781    2.7833   -0.8633 C   0  0  0  0  0  0  0  0  0  0  0  0
   -0.5690    2.8395   -2.2543 O   0  0  0  0  0  0  0  0  0  0  0  0
    0.4793    2.1128   -2.8662 C   0  0  0  0  0  0  0  0  0  0  0  0
    1.3533    0.1387   -2.7600 H   0  0  0  0  0  0  0  0  0  0  0  0
   -0.4173    0.1650   -2.7411 H   0  0  0  0  0  0  0  0  0  0  0  0
    0.2886   -0.5259   -0.3673 H   0  0  0  0  0  0  0  0  0  0  0  0
    1.4429    1.0471   -0.4794 H   0  0  0  0  0  0  0  0  0  0  0  0
    0.4773    3.2353   -0.5391 H   0  0  0  0  0  0  0  0  0  0  0  0
   -1.3191    3.3438   -0.4613 H   0  0  0  0  0  0  0  0  0  0  0  0
    1.4429    2.5902   -2.6309 H   0  0  0  0  0  0  0  0  0  0  0  0
    0.3204    2.1787   -3.9417 H   0  0  0  0  0  0  0  0  0  0  0  0
  1  2  1  0
  1  6  1  0
  1  7  1  0
  2  3  1  0
  2  8  1  0
  2  9  1  0
  3  4  1  0
  4  5  1  0
  4 10  1  0
  4 11  1  0
  5  6  1  0
  6 12  1  0
  6 13  1  0
 14 15  1  0
 14 19  1  0
 14 20  1  0
 14 21  1  0
 15 16  1  0
 15 22  1  0
 15 23  1  0
 16 17  1  0
 17 18  1  0
 17 24  1  0
 17 25  1  0
 18 19  1  0
 19 26  1  0
 19 27  1  0
M  RAD  1   1   2
M  END
>  <reaction>  (5) 
rmg_rxn_267

>  <mol_properties>  (5) 
{"0": {"label": "*3", "atom_type": "Cs"}, "1": {"label": "*4", "atom_type": "Cs"}, "14": {"label": "*1", "atom_type": "Cs"}, "15": {"label": "*0", "atom_type": "O2s"}, "21": {"label": "*2", "atom_type": "H0"}}

>  <type>  (5) 
unop_1

>  <geom_source>  (5) 
Heuristics

$$$$

     RDKit          3D

 27 27  0  0  0  0  0  0  0  0999 V2000
   -0.3954   -1.2295    0.6406 C   0  0  0  0  0  3  0  0  0  0  0  0
    0.1584   -2.2851   -0.3058 C   0  0  0  0  0  0  0  0  0  0  0  0
    0.4725   -3.4671    0.4052 O   0  0  0  0  0  0  0  0  0  0  0  0
    1.3672   -3.2093    1.4442 C   0  0  0  0  0  0  0  0  0  0  0  0
    0.8615   -2.3157    2.3888 O   0  0  0  0  0  0  0  0  0  0  0  0
    0.5719   -1.0607    1.8035 C   0  0  0  0  0  0  0  0  0  0  0  0
   -1.3659   -1.5553    1.0200 H   0  0  0  0  0  0  0  0  0  0  0  0
   -0.5630   -2.5631   -1.0730 H   0  0  0  0  0  0  0  0  0  0  0  0
    1.0630   -1.9058   -0.8053 H   0  0  0  0  0  0  0  0  0  0  0  0
    2.3092   -2.8085    1.0269 H   0  0  0  0  0  0  0  0  0  0  0  0
    1.5493   -4.1519    1.9557 H   0  0  0  0  0  0  0  0  0  0  0  0
    1.5057   -0.5953    1.4523 H   0  0  0  0  0  0  0  0  0  0  0  0
    0.1556   -0.4356    2.5922 H   0  0  0  0  0  0  0  0  0  0  0  0
   -0.0134    1.1681   -1.8605 C   0  0  0  0  0  0  0  0  0  0  0  0
   -0.0134    1.1681   -0.3385 C   0  0  0  0  0  0  0  0  0  0  0  0
   -1.0617    1.9807    0.1536 O   0  0  0  0  0  0  0  0  0  0  0  0
   -0.9708    3.2803   -0.3457 C   0  0  0  0  0  0  0  0  0  0  0  0
   -1.0617    3.3365   -1.7367 O   0  0  0  0  0  0  0  0  0  0  0  0
   -0.0134    2.6097   -2.3486 C   0  0  0  0  0  0  0  0  0  0  0  0
    0.8606    0.6356   -2.2424 H   0  0  0  0  0  0  0  0  0  0  0  0
   -0.9100    0.6619   -2.2235 H   0  0  0  0  0  0  0  0  0  0  0  0
   -0.2041   -0.0289    0.1503 H   0  0  0  0  0  0  0  0  0  0  0  0
    0.9502    1.5441    0.0383 H   0  0  0  0  0  0  0  0  0  0  0  0
   -0.0155    3.7323   -0.0215 H   0  0  0  0  0  0  0  0  0  0  0  0
   -1.8118    3.8408    0.0563 H   0  0  0  0  0  0  0  0  0  0  0  0
    0.9502    3.0871   -2.1133 H   0  0  0  0  0  0  0  0  0  0  0  0
   -0.1724    2.6757   -3.4241 H   0  0  0  0  0  0  0  0  0  0  0  0
  1  2  1  0
  1  6  1  0
  1  7  1  0
  2  3  1  0
  2  8  1  0
  2  9  1  0
  3  4  1  0
  4  5  1  0
  4 10  1  0
  4 11  1  0
  5  6  1  0
  6 12  1  0
  6 13  1  0
 14 15  1  0
 14 19  1  0
 14 20  1  0
 14 21  1  0
 15 16  1  0
 15 22  1  0
 15 23  1  0
 16 17  1  0
 17 18  1  0
 17 24  1  0
 17 25  1  0
 18 19  1  0
 19 26  1  0
 19 27  1  0
M  RAD  1   1   2
M  END
>  <reaction>  (6) 
rmg_rxn_267

>  <mol_properties>  (6) 
{"0": {"label": "*3", "atom_type": "Cs"}, "1": {"label": "*4", "atom_type": "Cs"}, "14": {"label": "*1", "atom_type": "Cs"}, "15": {"label": "*0", "atom_type": "O2s"}, "21": {"label": "*2", "atom_type": "H0"}}

>  <type>  (6) 
unop_2

>  <geom_source>  (6) 
Heuristics

$$$$

     RDKit          3D

 27 27  0  0  0  0  0  0  0  0999 V2000
    0.4277   -1.6226    0.2312 C   0  0  0  0  0  3  0  0  0  0  0  0
    1.1268   -1.7660    1.5755 C   0  0  0  0  0  0  0  0  0  0  0  0
    0.3712   -2.5956    2.4371 O   0  0  0  0  0  0  0  0  0  0  0  0
   -0.9261   -2.1083    2.5984 C   0  0  0  0  0  0  0  0  0  0  0  0
   -1.6381   -2.0491    1.4002 O   0  0  0  0  0  0  0  0  0  0  0  0
   -1.0099   -1.1849    0.4728 C   0  0  0  0  0  0  0  0  0  0  0  0
    0.4323   -2.5847   -0.2849 H   0  0  0  0  0  0  0  0  0  0  0  0
    2.1083   -2.2277    1.4770 H   0  0  0  0  0  0  0  0  0  0  0  0
    1.2571   -0.7764    2.0398 H   0  0  0  0  0  0  0  0  0  0  0  0
   -0.8863   -1.1011    3.0523 H   0  0  0  0  0  0  0  0  0  0  0  0
   -1.4520   -2.7994    3.2534 H   0  0  0  0  0  0  0  0  0  0  0  0
   -1.0299   -0.1544    0.8596 H   0  0  0  0  0  0  0  0  0  0  0  0
   -1.6045   -1.2179   -0.4390 H   0  0  0  0  0  0  0  0  0  0  0  0
    0.8097    0.7749   -2.2699 C   0  0  0  0  0  0  0  0  0  0  0  0
    0.8097    0.7749   -0.7479 C   0  0  0  0  0  0  0  0  0  0  0  0
   -0.2386    1.5876   -0.2558 O   0  0  0  0  0  0  0  0  0  0  0  0
   -0.1477    2.8871   -0.7551 C   0  0  0  0  0  0  0  0  0  0  0  0
   -0.2386    2.9433   -2.1462 O   0  0  0  0  0  0  0  0  0  0  0  0
    0.8097    2.2166   -2.7580 C   0  0  0  0  0  0  0  0  0  0  0  0
    1.6837    0.2425   -2.6518 H   0  0  0  0  0  0  0  0  0  0  0  0
   -0.0869    0.2688   -2.6329 H   0  0  0  0  0  0  0  0  0  0  0  0
    0.6190   -0.4221   -0.2591 H   0  0  0  0  0  0  0  0  0  0  0  0
    1.7733    1.1509   -0.3712 H   0  0  0  0  0  0  0  0  0  0  0  0
    0.8077    3.3392   -0.4309 H   0  0  0  0  0  0  0  0  0  0  0  0
   -0.9887    3.4476   -0.3531 H   0  0  0  0  0  0  0  0  0  0  0  0
    1.7733    2.6940   -2.5227 H   0  0  0  0  0  0  0  0  0  0  0  0
    0.6508    2.2825   -3.8335 H   0  0  0  0  0  0  0  0  0  0  0  0
  1  2  1  0
  1  6  1  0
  1  7  1  0
  2  3  1  0
  2  8  1  0
  2  9  1  0
  3  4  1  0
  4  5  1  0
  4 10  1  0
  4 11  1  0
  5  6  1  0
  6 12  1  0
  6 13  1  0
 14 15  1  0
 14 19  1  0
 14 20  1  0
 14 21  1  0
 15 16  1  0
 15 22  1  0
 15 23  1  0
 16 17  1  0
 17 18  1  0
 17 24  1  0
 17 25  1  0
 18 19  1  0
 19 26  1  0
 19 27  1  0
M  RAD  1   1   2
M  END
>  <reaction>  (7) 
rmg_rxn_267

>  <mol_properties>  (7) 
{"0": {"label": "*3", "atom_type": "Cs"}, "1": {"label": "*4", "atom_type": "Cs"}, "14": {"label": "*1", "atom_type": "Cs"}, "15": {"label": "*0", "atom_type": "O2s"}, "21": {"label": "*2", "atom_type": "H0"}}

>  <type>  (7) 
unop_3

>  <geom_source>  (7) 
Heuristics

$$$$

     RDKit          3D

 27 27  0  0  0  0  0  0  0  0999 V2000
    0.3044   -1.0869    0.6786 C   0  0  0  0  0  3  0  0  0  0  0  0
   -1.0348   -1.6432    0.2164 C   0  0  0  0  0  0  0  0  0  0  0  0
   -1.5114   -2.6066    1.1362 O   0  0  0  0  0  0  0  0  0  0  0  0
   -0.5825   -3.6309    1.3221 C   0  0  0  0  0  0  0  0  0  0  0  0
    0.6326   -3.1771    1.8360 O   0  0  0  0  0  0  0  0  0  0  0  0
    1.2450   -2.2498    0.9604 C   0  0  0  0  0  0  0  0  0  0  0  0
    0.1606   -0.5067    1.5922 H   0  0  0  0  0  0  0  0  0  0  0  0
   -1.7972   -0.8681    0.1510 H   0  0  0  0  0  0  0  0  0  0  0  0
   -0.9280   -2.1055   -0.7770 H   0  0  0  0  0  0  0  0  0  0  0  0
   -0.4052   -4.1450    0.3596 H   0  0  0  0  0  0  0  0  0  0  0  0
   -1.0036   -4.3213    2.0495 H   0  0  0  0  0  0  0  0  0  0  0  0
    1.5122   -2.7548    0.0195 H   0  0  0  0  0  0  0  0  0  0  0  0
    2.1643   -1.9222    1.4439 H   0  0  0  0  0  0  0  0  0  0  0  0
    0.6864    1.3107   -1.8225 C   0  0  0  0  0  0  0  0  0  0  0  0
    0.6864    1.3107   -0.3004 C   0  0  0  0  0  0  0  0  0  0  0  0
   -0.3619    2.1233    0.1917 O   0  0  0  0  0  0  0  0  0  0  0  0
   -0.2710    3.4228   -0.3076 C   0  0  0  0  0  0  0  0  0  0  0  0
   -0.3619    3.4790   -1.6987 O   0  0  0  0  0  0  0  0  0  0  0  0
    0.6864    2.7523   -2.3106 C   0  0  0  0  0  0  0  0  0  0  0  0
    1.5604    0.7782   -2.2043 H   0  0  0  0  0  0  0  0  0  0  0  0
   -0.2102    0.8045   -2.1855 H   0  0  0  0  0  0  0  0  0  0  0  0
    0.4957    0.1137    0.1884 H   0  0  0  0  0  0  0  0  0  0  0  0
    1.6500    1.6866    0.0763 H   0  0  0  0  0  0  0  0  0  0  0  0
    0.6844    3.8749    0.0166 H   0  0  0  0  0  0  0  0  0  0  0  0
   -1.1120    3.9834    0.0943 H   0  0  0  0  0  0  0  0  0  0  0  0
    1.6500    3.2297   -2.0753 H   0  0  0  0  0  0  0  0  0  0  0  0
    0.5275    2.8183   -3.3860 H   0  0  0  0  0  0  0  0  0  0  0  0
  1  2  1  0
  1  6  1  0
  1  7  1  0
  2  3  1  0
  2  8  1  0
  2  9  1  0
  3  4  1  0
  4  5  1  0
  4 10  1  0
  4 11  1  0
  5  6  1  0
  6 12  1  0
  6 13  1  0
 14 15  1  0
 14 19  1  0
 14 20  1  0
 14 21  1  0
 15 16  1  0
 15 22  1  0
 15 23  1  0
 16 17  1  0
 17 18  1  0
 17 24  1  0
 17 25  1  0
 18 19  1  0
 19 26  1  0
 19 27  1  0
M  RAD  1   1   2
M  END
>  <reaction>  (8) 
rmg_rxn_267

>  <mol_properties>  (8) 
{"0": {"label": "*3", "atom_type": "Cs"}, "1": {"label": "*4", "atom_type": "Cs"}, "14": {"label": "*1", "atom_type": "Cs"}, "15": {"label": "*0", "atom_type": "O2s"}, "21": {"label": "*2", "atom_type": "H0"}}

>  <type>  (8) 
unop_4

>  <geom_source>  (8) 
Heuristics

$$$$

     RDKit          3D

 27 27  0  0  0  0  0  0  0  0999 V2000
    0.4822   -1.3154    0.4439 C   0  0  0  0  0  3  0  0  0  0  0  0
    0.4885   -1.2760    1.9655 C   0  0  0  0  0  0  0  0  0  0  0  0
    0.1365   -2.5411    2.4919 O   0  0  0  0  0  0  0  0  0  0  0  0
   -1.1024   -2.9627    2.0084 C   0  0  0  0  0  0  0  0  0  0  0  0
   -1.1256   -3.1041    0.6206 O   0  0  0  0  0  0  0  0  0  0  0  0
   -0.8536   -1.8747   -0.0244 C   0  0  0  0  0  0  0  0  0  0  0  0
    1.2893   -1.9621    0.0942 H   0  0  0  0  0  0  0  0  0  0  0  0
    1.4734   -1.0342    2.3626 H   0  0  0  0  0  0  0  0  0  0  0  0
   -0.2234   -0.5176    2.3256 H   0  0  0  0  0  0  0  0  0  0  0  0
   -1.8818   -2.2422    2.3173 H   0  0  0  0  0  0  0  0  0  0  0  0
   -1.3002   -3.9428    2.4367 H   0  0  0  0  0  0  0  0  0  0  0  0
   -1.6600   -1.1584    0.1958 H   0  0  0  0  0  0  0  0  0  0  0  0
   -0.8587   -2.0745   -1.0950 H   0  0  0  0  0  0  0  0  0  0  0  0
    0.8643    1.0822   -2.0571 C   0  0  0  0  0  0  0  0  0  0  0  0
    0.8643    1.0822   -0.5351 C   0  0  0  0  0  0  0  0  0  0  0  0
   -0.1840    1.8948   -0.0430 O   0  0  0  0  0  0  0  0  0  0  0  0
   -0.0931    3.1944   -0.5423 C   0  0  0  0  0  0  0  0  0  0  0  0
   -0.1840    3.2505   -1.9334 O   0  0  0  0  0  0  0  0  0  0  0  0
    0.8643    2.5238   -2.5452 C   0  0  0  0  0  0  0  0  0  0  0  0
    1.7383    0.5497   -2.4390 H   0  0  0  0  0  0  0  0  0  0  0  0
   -0.0323    0.5760   -2.4201 H   0  0  0  0  0  0  0  0  0  0  0  0
    0.6735   -0.1148   -0.0463 H   0  0  0  0  0  0  0  0  0  0  0  0
    1.8279    1.4582   -0.1584 H   0  0  0  0  0  0  0  0  0  0  0  0
    0.8622    3.6464   -0.2181 H   0  0  0  0  0  0  0  0  0  0  0  0
   -0.9342    3.7549   -0.1403 H   0  0  0  0  0  0  0  0  0  0  0  0
    1.8279    3.0012   -2.3099 H   0  0  0  0  0  0  0  0  0  0  0  0
    0.7053    2.5898   -3.6207 H   0  0  0  0  0  0  0  0  0  0  0  0
  1  2  1  0
  1  6  1  0
  1  7  1  0
  2  3  1  0
  2  8  1  0
  2  9  1  0
  3  4  1  0
  4  5  1  0
  4 10  1  0
  4 11  1  0
  5  6  1  0
  6 12  1  0
  6 13  1  0
 14 15  1  0
 14 19  1  0
 14 20  1  0
 14 21  1  0
 15 16  1  0
 15 22  1  0
 15 23  1  0
 16 17  1  0
 17 18  1  0
 17 24  1  0
 17 25  1  0
 18 19  1  0
 19 26  1  0
 19 27  1  0
M  RAD  1   1   2
M  END
>  <reaction>  (9) 
rmg_rxn_267

>  <mol_properties>  (9) 
{"0": {"label": "*3", "atom_type": "Cs"}, "1": {"label": "*4", "atom_type": "Cs"}, "14": {"label": "*1", "atom_type": "Cs"}, "15": {"label": "*0", "atom_type": "O2s"}, "21": {"label": "*2", "atom_type": "H0"}}

>  <type>  (9) 
unop_5

>  <geom_source>  (9) 
Heuristics

$$$$

     RDKit          3D

 27 27  0  0  0  0  0  0  0  0999 V2000
    0.3261   -1.1526    0.5332 C   0  0  0  0  0  3  0  0  0  0  0  0
   -1.1598   -1.4155    0.7322 C   0  0  0  0  0  0  0  0  0  0  0  0
   -1.3653   -2.2546    1.8526 O   0  0  0  0  0  0  0  0  0  0  0  0
   -0.6593   -3.4510    1.7242 C   0  0  0  0  0  0  0  0  0  0  0  0
    0.7200   -3.2621    1.6336 O   0  0  0  0  0  0  0  0  0  0  0  0
    1.0577   -2.4868    0.4994 C   0  0  0  0  0  0  0  0  0  0  0  0
    0.7031   -0.5528    1.3639 H   0  0  0  0  0  0  0  0  0  0  0  0
   -1.7140   -0.4974    0.9223 H   0  0  0  0  0  0  0  0  0  0  0  0
   -1.5815   -1.8924   -0.1658 H   0  0  0  0  0  0  0  0  0  0  0  0
   -1.0153   -3.9934    0.8291 H   0  0  0  0  0  0  0  0  0  0  0  0
   -0.8474   -4.0355    2.6221 H   0  0  0  0  0  0  0  0  0  0  0  0
    0.7919   -3.0391   -0.4150 H   0  0  0  0  0  0  0  0  0  0  0  0
    2.1391   -2.3590    0.5177 H   0  0  0  0  0  0  0  0  0  0  0  0
    0.7081    1.2450   -1.9678 C   0  0  0  0  0  0  0  0  0  0  0  0
    0.7081    1.2450   -0.4458 C   0  0  0  0  0  0  0  0  0  0  0  0
   -0.3402    2.0576    0.0463 O   0  0  0  0  0  0  0  0  0  0  0  0
   -0.2493    3.3572   -0.4530 C   0  0  0  0  0  0  0  0  0  0  0  0
   -0.3402    3.4133   -1.8441 O   0  0  0  0  0  0  0  0  0  0  0  0
    0.7081    2.6866   -2.4559 C   0  0  0  0  0  0  0  0  0  0  0  0
    1.5821    0.7125   -2.3497 H   0  0  0  0  0  0  0  0  0  0  0  0
   -0.1884    0.7388   -2.3309 H   0  0  0  0  0  0  0  0  0  0  0  0
    0.5174    0.0480    0.0430 H   0  0  0  0  0  0  0  0  0  0  0  0
    1.6718    1.6210   -0.0691 H   0  0  0  0  0  0  0  0  0  0  0  0
    0.7061    3.8092   -0.1288 H   0  0  0  0  0  0  0  0  0  0  0  0
   -1.0903    3.9177   -0.0510 H   0  0  0  0  0  0  0  0  0  0  0  0
    1.6718    3.1640   -2.2207 H   0  0  0  0  0  0  0  0  0  0  0  0
    0.5492    2.7526   -3.5314 H   0  0  0  0  0  0  0  0  0  0  0  0
  1  2  1  0
  1  6  1  0
  1  7  1  0
  2  3  1  0
  2  8  1  0
  2  9  1  0
  3  4  1  0
  4  5  1  0
  4 10  1  0
  4 11  1  0
  5  6  1  0
  6 12  1  0
  6 13  1  0
 14 15  1  0
 14 19  1  0
 14 20  1  0
 14 21  1  0
 15 16  1  0
 15 22  1  0
 15 23  1  0
 16 17  1  0
 17 18  1  0
 17 24  1  0
 17 25  1  0
 18 19  1  0
 19 26  1  0
 19 27  1  0
M  RAD  1   1   2
M  END
>  <reaction>  (10) 
rmg_rxn_267

>  <mol_properties>  (10) 
{"0": {"label": "*3", "atom_type": "Cs"}, "1": {"label": "*4", "atom_type": "Cs"}, "14": {"label": "*1", "atom_type": "Cs"}, "15": {"label": "*0", "atom_type": "O2s"}, "21": {"label": "*2", "atom_type": "H0"}}

>  <type>  (10) 
unop_6

>  <geom_source>  (10) 
Heuristics

$$$$

     RDKit          3D

 27 27  0  0  0  0  0  0  0  0999 V2000
    0.2686   -1.1720    0.4641 C   0  0  0  0  0  3  0  0  0  0  0  0
   -0.9867   -1.2016    1.3243 C   0  0  0  0  0  0  0  0  0  0  0  0
   -0.8300   -2.1164    2.3921 O   0  0  0  0  0  0  0  0  0  0  0  0
   -0.5161   -3.3921    1.9227 C   0  0  0  0  0  0  0  0  0  0  0  0
    0.6804   -3.4293    1.2062 O   0  0  0  0  0  0  0  0  0  0  0  0
    0.6195   -2.5977    0.0633 C   0  0  0  0  0  0  0  0  0  0  0  0
    1.0922   -0.7432    1.0383 H   0  0  0  0  0  0  0  0  0  0  0  0
   -1.1971   -0.2310    1.7714 H   0  0  0  0  0  0  0  0  0  0  0  0
   -1.8547   -1.4949    0.7141 H   0  0  0  0  0  0  0  0  0  0  0  0
   -1.3389   -3.7609    1.2830 H   0  0  0  0  0  0  0  0  0  0  0  0
   -0.3930   -4.0352    2.7913 H   0  0  0  0  0  0  0  0  0  0  0  0
   -0.1356   -2.9892   -0.6356 H   0  0  0  0  0  0  0  0  0  0  0  0
    1.5938   -2.6570   -0.4199 H   0  0  0  0  0  0  0  0  0  0  0  0
    0.6506    1.2256   -2.0370 C   0  0  0  0  0  0  0  0  0  0  0  0
    0.6506    1.2256   -0.5150 C   0  0  0  0  0  0  0  0  0  0  0  0
   -0.3977    2.0382   -0.0229 O   0  0  0  0  0  0  0  0  0  0  0  0
   -0.3068    3.3378   -0.5222 C   0  0  0  0  0  0  0  0  0  0  0  0
   -0.3977    3.3940   -1.9132 O   0  0  0  0  0  0  0  0  0  0  0  0
    0.6506    2.6672   -2.5251 C   0  0  0  0  0  0  0  0  0  0  0  0
    1.5246    0.6931   -2.4189 H   0  0  0  0  0  0  0  0  0  0  0  0
   -0.2460    0.7194   -2.4000 H   0  0  0  0  0  0  0  0  0  0  0  0
    0.4599    0.0286   -0.0262 H   0  0  0  0  0  0  0  0  0  0  0  0
    1.6142    1.6016   -0.1383 H   0  0  0  0  0  0  0  0  0  0  0  0
    0.6486    3.7898   -0.1980 H   0  0  0  0  0  0  0  0  0  0  0  0
   -1.1478    3.8983   -0.1202 H   0  0  0  0  0  0  0  0  0  0  0  0
    1.6142    3.1446   -2.2898 H   0  0  0  0  0  0  0  0  0  0  0  0
    0.4917    2.7332   -3.6006 H   0  0  0  0  0  0  0  0  0  0  0  0
  1  2  1  0
  1  6  1  0
  1  7  1  0
  2  3  1  0
  2  8  1  0
  2  9  1  0
  3  4  1  0
  4  5  1  0
  4 10  1  0
  4 11  1  0
  5  6  1  0
  6 12  1  0
  6 13  1  0
 14 15  1  0
 14 19  1  0
 14 20  1  0
 14 21  1  0
 15 16  1  0
 15 22  1  0
 15 23  1  0
 16 17  1  0
 17 18  1  0
 17 24  1  0
 17 25  1  0
 18 19  1  0
 19 26  1  0
 19 27  1  0
M  RAD  1   1   2
M  END
>  <reaction>  (11) 
rmg_rxn_267

>  <mol_properties>  (11) 
{"0": {"label": "*3", "atom_type": "Cs"}, "1": {"label": "*4", "atom_type": "Cs"}, "14": {"label": "*1", "atom_type": "Cs"}, "15": {"label": "*0", "atom_type": "O2s"}, "21": {"label": "*2", "atom_type": "H0"}}

>  <type>  (11) 
unop_7

>  <geom_source>  (11) 
Heuristics

$$$$

     RDKit          3D

 27 27  0  0  0  0  0  0  0  0999 V2000
   -0.2297   -1.6424    0.1941 C   0  0  0  0  0  3  0  0  0  0  0  0
    1.1009   -2.3541    0.3931 C   0  0  0  0  0  0  0  0  0  0  0  0
    1.1394   -2.9798    1.6614 O   0  0  0  0  0  0  0  0  0  0  0  0
    0.9064   -2.0613    2.6853 C   0  0  0  0  0  0  0  0  0  0  0  0
   -0.3454   -1.4519    2.5954 O   0  0  0  0  0  0  0  0  0  0  0  0
   -0.4780   -0.7294    1.3863 C   0  0  0  0  0  0  0  0  0  0  0  0
   -1.0307   -2.3815    0.1298 H   0  0  0  0  0  0  0  0  0  0  0  0
    1.2589   -3.1369   -0.3475 H   0  0  0  0  0  0  0  0  0  0  0  0
    1.9291   -1.6334    0.3140 H   0  0  0  0  0  0  0  0  0  0  0  0
    1.6943   -1.2860    2.6696 H   0  0  0  0  0  0  0  0  0  0  0  0
    0.9323   -2.6100    3.6241 H   0  0  0  0  0  0  0  0  0  0  0  0
    0.2392    0.1056    1.3772 H   0  0  0  0  0  0  0  0  0  0  0  0
   -1.4847   -0.3137    1.3783 H   0  0  0  0  0  0  0  0  0  0  0  0
    0.1523    0.7551   -2.3070 C   0  0  0  0  0  0  0  0  0  0  0  0
    0.1523    0.7551   -0.7849 C   0  0  0  0  0  0  0  0  0  0  0  0
   -0.8960    1.5678   -0.2928 O   0  0  0  0  0  0  0  0  0  0  0  0
   -0.8051    2.8673   -0.7922 C   0  0  0  0  0  0  0  0  0  0  0  0
   -0.8960    2.9235   -2.1832 O   0  0  0  0  0  0  0  0  0  0  0  0
    0.1523    2.1968   -2.7951 C   0  0  0  0  0  0  0  0  0  0  0  0
    1.0263    0.2227   -2.6888 H   0  0  0  0  0  0  0  0  0  0  0  0
   -0.7443    0.2490   -2.6700 H   0  0  0  0  0  0  0  0  0  0  0  0
   -0.0384   -0.4419   -0.2961 H   0  0  0  0  0  0  0  0  0  0  0  0
    1.1159    1.1311   -0.4082 H   0  0  0  0  0  0  0  0  0  0  0  0
    0.1503    3.3194   -0.4679 H   0  0  0  0  0  0  0  0  0  0  0  0
   -1.6461    3.4278   -0.3902 H   0  0  0  0  0  0  0  0  0  0  0  0
    1.1159    2.6742   -2.5598 H   0  0  0  0  0  0  0  0  0  0  0  0
   -0.0066    2.2627   -3.8705 H   0  0  0  0  0  0  0  0  0  0  0  0
  1  2  1  0
  1  6  1  0
  1  7  1  0
  2  3  1  0
  2  8  1  0
  2  9  1  0
  3  4  1  0
  4  5  1  0
  4 10  1  0
  4 11  1  0
  5  6  1  0
  6 12  1  0
  6 13  1  0
 14 15  1  0
 14 19  1  0
 14 20  1  0
 14 21  1  0
 15 16  1  0
 15 22  1  0
 15 23  1  0
 16 17  1  0
 17 18  1  0
 17 24  1  0
 17 25  1  0
 18 19  1  0
 19 26  1  0
 19 27  1  0
M  RAD  1   1   2
M  END
>  <reaction>  (12) 
rmg_rxn_267

>  <mol_properties>  (12) 
{"0": {"label": "*3", "atom_type": "Cs"}, "1": {"label": "*4", "atom_type": "Cs"}, "14": {"label": "*1", "atom_type": "Cs"}, "15": {"label": "*0", "atom_type": "O2s"}, "21": {"label": "*2", "atom_type": "H0"}}

>  <type>  (12) 
unop_8

>  <geom_source>  (12) 
Heuristics

$$$$

     RDKit          3D

 27 27  0  0  0  0  0  0  0  0999 V2000
    0.1245   -1.0279    0.8073 C   0  0  0  0  0  3  0  0  0  0  0  0
   -0.7299   -1.8591   -0.1390 C   0  0  0  0  0  0  0  0  0  0  0  0
   -1.1577   -3.0470    0.4992 O   0  0  0  0  0  0  0  0  0  0  0  0
   -0.0727   -3.7859    0.9716 C   0  0  0  0  0  0  0  0  0  0  0  0
    0.6868   -3.0945    1.9159 O   0  0  0  0  0  0  0  0  0  0  0  0
    1.2315   -1.9096    1.3674 C   0  0  0  0  0  0  0  0  0  0  0  0
   -0.4953   -0.6590    1.6268 H   0  0  0  0  0  0  0  0  0  0  0  0
   -1.6291   -1.3283   -0.4486 H   0  0  0  0  0  0  0  0  0  0  0  0
   -0.1533   -2.1145   -1.0413 H   0  0  0  0  0  0  0  0  0  0  0  0
    0.5725   -4.0753    0.1218 H   0  0  0  0  0  0  0  0  0  0  0  0
   -0.4728   -4.6700    1.4629 H   0  0  0  0  0  0  0  0  0  0  0  0
    1.9462   -2.1685    0.5711 H   0  0  0  0  0  0  0  0  0  0  0  0
    1.7792   -1.4160    2.1690 H   0  0  0  0  0  0  0  0  0  0  0  0
    0.5065    1.3697   -1.6937 C   0  0  0  0  0  0  0  0  0  0  0  0
    0.5065    1.3697   -0.1717 C   0  0  0  0  0  0  0  0  0  0  0  0
   -0.5418    2.1823    0.3204 O   0  0  0  0  0  0  0  0  0  0  0  0
   -0.4508    3.4818   -0.1789 C   0  0  0  0  0  0  0  0  0  0  0  0
   -0.5418    3.5380   -1.5700 O   0  0  0  0  0  0  0  0  0  0  0  0
    0.5065    2.8113   -2.1819 C   0  0  0  0  0  0  0  0  0  0  0  0
    1.3805    0.8372   -2.0756 H   0  0  0  0  0  0  0  0  0  0  0  0
   -0.3900    0.8635   -2.0568 H   0  0  0  0  0  0  0  0  0  0  0  0
    0.3158    0.1726    0.3171 H   0  0  0  0  0  0  0  0  0  0  0  0
    1.4702    1.7456    0.2050 H   0  0  0  0  0  0  0  0  0  0  0  0
    0.5045    3.9339    0.1453 H   0  0  0  0  0  0  0  0  0  0  0  0
   -1.2919    4.0423    0.2231 H   0  0  0  0  0  0  0  0  0  0  0  0
    1.4702    3.2887   -1.9466 H   0  0  0  0  0  0  0  0  0  0  0  0
    0.3476    2.8772   -3.2573 H   0  0  0  0  0  0  0  0  0  0  0  0
  1  2  1  0
  1  6  1  0
  1  7  1  0
  2  3  1  0
  2  8  1  0
  2  9  1  0
  3  4  1  0
  4  5  1  0
  4 10  1  0
  4 11  1  0
  5  6  1  0
  6 12  1  0
  6 13  1  0
 14 15  1  0
 14 19  1  0
 14 20  1  0
 14 21  1  0
 15 16  1  0
 15 22  1  0
 15 23  1  0
 16 17  1  0
 17 18  1  0
 17 24  1  0
 17 25  1  0
 18 19  1  0
 19 26  1  0
 19 27  1  0
M  RAD  1   1   2
M  END
>  <reaction>  (13) 
rmg_rxn_267

>  <mol_properties>  (13) 
{"0": {"label": "*3", "atom_type": "Cs"}, "1": {"label": "*4", "atom_type": "Cs"}, "14": {"label": "*1", "atom_type": "Cs"}, "15": {"label": "*0", "atom_type": "O2s"}, "21": {"label": "*2", "atom_type": "H0"}}

>  <type>  (13) 
unop_9

>  <geom_source>  (13) 
Heuristics

$$$$

     RDKit          3D

 27 27  0  0  0  0  0  0  0  0999 V2000
   -0.4182   -1.4529    0.3965 C   0  0  0  0  0  3  0  0  0  0  0  0
    0.6817   -2.3979   -0.0658 C   0  0  0  0  0  0  0  0  0  0  0  0
    1.0394   -3.2843    0.9772 O   0  0  0  0  0  0  0  0  0  0  0  0
    1.4281   -2.5875    2.1217 C   0  0  0  0  0  0  0  0  0  0  0  0
    0.4152   -1.7777    2.6361 O   0  0  0  0  0  0  0  0  0  0  0  0
    0.0179   -0.7959    1.6983 C   0  0  0  0  0  0  0  0  0  0  0  0
   -1.3361   -2.0193    0.5655 H   0  0  0  0  0  0  0  0  0  0  0  0
    0.3631   -3.0141   -0.9054 H   0  0  0  0  0  0  0  0  0  0  0  0
    1.5666   -1.8221   -0.3778 H   0  0  0  0  0  0  0  0  0  0  0  0
    2.3132   -1.9666    1.8908 H   0  0  0  0  0  0  0  0  0  0  0  0
    1.6702   -3.3256    2.8831 H   0  0  0  0  0  0  0  0  0  0  0  0
    0.8561   -0.1074    1.5104 H   0  0  0  0  0  0  0  0  0  0  0  0
   -0.7903   -0.2303    2.1599 H   0  0  0  0  0  0  0  0  0  0  0  0
   -0.0362    0.9446   -2.1046 C   0  0  0  0  0  0  0  0  0  0  0  0
   -0.0362    0.9446   -0.5826 C   0  0  0  0  0  0  0  0  0  0  0  0
   -1.0845    1.7572   -0.0904 O   0  0  0  0  0  0  0  0  0  0  0  0
   -0.9936    3.0568   -0.5898 C   0  0  0  0  0  0  0  0  0  0  0  0
   -1.0845    3.1130   -1.9808 O   0  0  0  0  0  0  0  0  0  0  0  0
   -0.0362    2.3863   -2.5927 C   0  0  0  0  0  0  0  0  0  0  0  0
    0.8378    0.4122   -2.4865 H   0  0  0  0  0  0  0  0  0  0  0  0
   -0.9328    0.4385   -2.4676 H   0  0  0  0  0  0  0  0  0  0  0  0
   -0.2269   -0.2524   -0.0937 H   0  0  0  0  0  0  0  0  0  0  0  0
    0.9274    1.3206   -0.2058 H   0  0  0  0  0  0  0  0  0  0  0  0
   -0.0383    3.5089   -0.2656 H   0  0  0  0  0  0  0  0  0  0  0  0
   -1.8346    3.6173   -0.1878 H   0  0  0  0  0  0  0  0  0  0  0  0
    0.9274    2.8637   -2.3574 H   0  0  0  0  0  0  0  0  0  0  0  0
   -0.1952    2.4522   -3.6682 H   0  0  0  0  0  0  0  0  0  0  0  0
  1  2  1  0
  1  6  1  0
  1  7  1  0
  2  3  1  0
  2  8  1  0
  2  9  1  0
  3  4  1  0
  4  5  1  0
  4 10  1  0
  4 11  1  0
  5  6  1  0
  6 12  1  0
  6 13  1  0
 14 15  1  0
 14 19  1  0
 14 20  1  0
 14 21  1  0
 15 16  1  0
 15 22  1  0
 15 23  1  0
 16 17  1  0
 17 18  1  0
 17 24  1  0
 17 25  1  0
 18 19  1  0
 19 26  1  0
 19 27  1  0
M  RAD  1   1   2
M  END
>  <reaction>  (14) 
rmg_rxn_267

>  <mol_properties>  (14) 
{"0": {"label": "*3", "atom_type": "Cs"}, "1": {"label": "*4", "atom_type": "Cs"}, "14": {"label": "*1", "atom_type": "Cs"}, "15": {"label": "*0", "atom_type": "O2s"}, "21": {"label": "*2", "atom_type": "H0"}}

>  <type>  (14) 
unop_10

>  <geom_source>  (14) 
Heuristics

$$$$

     RDKit          3D

 27 27  0  0  0  0  0  0  0  0999 V2000
    0.2903   -1.1652    0.4865 C   0  0  0  0  0  3  0  0  0  0  0  0
   -0.4188   -1.0843    1.8308 C   0  0  0  0  0  0  0  0  0  0  0  0
   -0.1872   -2.2611    2.5810 O   0  0  0  0  0  0  0  0  0  0  0  0
   -0.5840   -3.3970    1.8748 C   0  0  0  0  0  0  0  0  0  0  0  0
    0.1102   -3.5627    0.6760 O   0  0  0  0  0  0  0  0  0  0  0  0
   -0.1026   -2.4683   -0.1949 C   0  0  0  0  0  0  0  0  0  0  0  0
    1.3704   -1.1494    0.6443 H   0  0  0  0  0  0  0  0  0  0  0  0
   -0.0565   -0.2522    2.4330 H   0  0  0  0  0  0  0  0  0  0  0  0
   -1.5012   -0.9531    1.6785 H   0  0  0  0  0  0  0  0  0  0  0  0
   -1.6682   -3.3399    1.6666 H   0  0  0  0  0  0  0  0  0  0  0  0
   -0.3622   -4.2598    2.4989 H   0  0  0  0  0  0  0  0  0  0  0  0
   -1.1627   -2.4346   -0.4897 H   0  0  0  0  0  0  0  0  0  0  0  0
    0.4929   -2.6572   -1.0870 H   0  0  0  0  0  0  0  0  0  0  0  0
    0.6723    1.2323   -2.0146 C   0  0  0  0  0  0  0  0  0  0  0  0
    0.6723    1.2323   -0.4926 C   0  0  0  0  0  0  0  0  0  0  0  0
   -0.3760    2.0449   -0.0005 O   0  0  0  0  0  0  0  0  0  0  0  0
   -0.2851    3.3445   -0.4998 C   0  0  0  0  0  0  0  0  0  0  0  0
   -0.3760    3.4007   -1.8908 O   0  0  0  0  0  0  0  0  0  0  0  0
    0.6723    2.6740   -2.5027 C   0  0  0  0  0  0  0  0  0  0  0  0
    1.5463    0.6999   -2.3965 H   0  0  0  0  0  0  0  0  0  0  0  0
   -0.2243    0.7262   -2.3776 H   0  0  0  0  0  0  0  0  0  0  0  0
    0.4815    0.0353   -0.0038 H   0  0  0  0  0  0  0  0  0  0  0  0
    1.6359    1.6083   -0.1158 H   0  0  0  0  0  0  0  0  0  0  0  0
    0.6702    3.7965   -0.1756 H   0  0  0  0  0  0  0  0  0  0  0  0
   -1.1262    3.9050   -0.0978 H   0  0  0  0  0  0  0  0  0  0  0  0
    1.6359    3.1514   -2.2674 H   0  0  0  0  0  0  0  0  0  0  0  0
    0.5133    2.7399   -3.5782 H   0  0  0  0  0  0  0  0  0  0  0  0
  1  2  1  0
  1  6  1  0
  1  7  1  0
  2  3  1  0
  2  8  1  0
  2  9  1  0
  3  4  1  0
  4  5  1  0
  4 10  1  0
  4 11  1  0
  5  6  1  0
  6 12  1  0
  6 13  1  0
 14 15  1  0
 14 19  1  0
 14 20  1  0
 14 21  1  0
 15 16  1  0
 15 22  1  0
 15 23  1  0
 16 17  1  0
 17 18  1  0
 17 24  1  0
 17 25  1  0
 18 19  1  0
 19 26  1  0
 19 27  1  0
M  RAD  1   1   2
M  END
>  <reaction>  (15) 
rmg_rxn_267

>  <mol_properties>  (15) 
{"0": {"label": "*3", "atom_type": "Cs"}, "1": {"label": "*4", "atom_type": "Cs"}, "14": {"label": "*1", "atom_type": "Cs"}, "15": {"label": "*0", "atom_type": "O2s"}, "21": {"label": "*2", "atom_type": "H0"}}

>  <type>  (15) 
unop_11

>  <geom_source>  (15) 
Heuristics

$$$$

     RDKit          3D

 27 27  0  0  0  0  0  0  0  0999 V2000
   -0.1674   -1.0638    0.8064 C   0  0  0  0  0  3  0  0  0  0  0  0
   -0.3289   -2.0778   -0.3171 C   0  0  0  0  0  0  0  0  0  0  0  0
   -0.3876   -3.3899    0.2088 O   0  0  0  0  0  0  0  0  0  0  0  0
    0.7386   -3.6756    0.9811 C   0  0  0  0  0  0  0  0  0  0  0  0
    0.8746   -2.8268    2.0801 O   0  0  0  0  0  0  0  0  0  0  0  0
    1.0131   -1.4792    1.6727 C   0  0  0  0  0  0  0  0  0  0  0  0
   -1.0747   -1.0468    1.4133 H   0  0  0  0  0  0  0  0  0  0  0  0
   -1.2506   -1.9228   -0.8763 H   0  0  0  0  0  0  0  0  0  0  0  0
    0.5161   -2.0009   -1.0184 H   0  0  0  0  0  0  0  0  0  0  0  0
    1.6438   -3.6072    0.3501 H   0  0  0  0  0  0  0  0  0  0  0  0
    0.6192   -4.6860    1.3657 H   0  0  0  0  0  0  0  0  0  0  0  0
    1.9526   -1.3601    1.1114 H   0  0  0  0  0  0  0  0  0  0  0  0
    1.0815   -0.8825    2.5813 H   0  0  0  0  0  0  0  0  0  0  0  0
    0.2147    1.3337   -1.6947 C   0  0  0  0  0  0  0  0  0  0  0  0
    0.2147    1.3337   -0.1726 C   0  0  0  0  0  0  0  0  0  0  0  0
   -0.8336    2.1463    0.3195 O   0  0  0  0  0  0  0  0  0  0  0  0
   -0.7427    3.4459   -0.1798 C   0  0  0  0  0  0  0  0  0  0  0  0
   -0.8336    3.5021   -1.5709 O   0  0  0  0  0  0  0  0  0  0  0  0
    0.2147    2.7754   -2.1828 C   0  0  0  0  0  0  0  0  0  0  0  0
    1.0886    0.8013   -2.0765 H   0  0  0  0  0  0  0  0  0  0  0  0
   -0.6819    0.8276   -2.0577 H   0  0  0  0  0  0  0  0  0  0  0  0
    0.0239    0.1367    0.3162 H   0  0  0  0  0  0  0  0  0  0  0  0
    1.1783    1.7097    0.2041 H   0  0  0  0  0  0  0  0  0  0  0  0
    0.2126    3.8979    0.1444 H   0  0  0  0  0  0  0  0  0  0  0  0
   -1.5838    4.0064    0.2221 H   0  0  0  0  0  0  0  0  0  0  0  0
    1.1783    3.2528   -1.9475 H   0  0  0  0  0  0  0  0  0  0  0  0
    0.0557    2.8413   -3.2582 H   0  0  0  0  0  0  0  0  0  0  0  0
  1  2  1  0
  1  6  1  0
  1  7  1  0
  2  3  1  0
  2  8  1  0
  2  9  1  0
  3  4  1  0
  4  5  1  0
  4 10  1  0
  4 11  1  0
  5  6  1  0
  6 12  1  0
  6 13  1  0
 14 15  1  0
 14 19  1  0
 14 20  1  0
 14 21  1  0
 15 16  1  0
 15 22  1  0
 15 23  1  0
 16 17  1  0
 17 18  1  0
 17 24  1  0
 17 25  1  0
 18 19  1  0
 19 26  1  0
 19 27  1  0
M  RAD  1   1   2
M  END
>  <reaction>  (16) 
rmg_rxn_267

>  <mol_properties>  (16) 
{"0": {"label": "*3", "atom_type": "Cs"}, "1": {"label": "*4", "atom_type": "Cs"}, "14": {"label": "*1", "atom_type": "Cs"}, "15": {"label": "*0", "atom_type": "O2s"}, "21": {"label": "*2", "atom_type": "H0"}}

>  <type>  (16) 
unop_12

>  <geom_source>  (16) 
Heuristics

$$$$

     RDKit          3D

 27 27  0  0  0  0  0  0  0  0999 V2000
    2.2522    0.2440    1.2023 O   0  0  0  0  0  0  0  0  0  0  0  0
    3.3294    0.1526   -0.9386 O   0  0  0  0  0  0  0  0  0  0  0  0
   -3.0798    1.2877    0.6903 O   0  0  0  0  0  0  0  0  0  0  0  0
   -1.7854    0.7124   -1.2457 O   0  0  0  0  0  0  0  0  0  0  0  0
    1.3128   -1.1045   -0.5551 C   0  0  0  0  0  0  0  0  0  0  0  0
   -1.8706   -0.7919    0.6330 C   0  0  0  0  0  0  0  0  0  0  0  0
    1.8805   -1.0739    0.8637 C   0  0  0  0  0  0  0  0  0  0  0  0
    2.0049   -0.0271   -1.3898 C   0  0  0  0  0  0  0  0  0  0  0  0
   -3.2340   -0.1125    0.7685 C   0  0  0  0  0  0  0  0  0  0  0  0
    3.3355    0.6792    0.3854 C   0  0  0  0  0  0  0  0  0  0  0  0
   -2.6277    1.6673   -0.6069 C   0  0  0  0  0  0  0  0  0  0  0  0
   -0.9903    0.0472   -0.2896 C   0  0  0  0  0  3  0  0  0  0  0  0
    1.4828   -2.1086   -1.0011 H   0  0  0  0  0  0  0  0  0  0  0  0
    0.0207   -0.8673   -0.5281 H   0  0  0  0  0  0  0  0  0  0  0  0
   -1.9989   -1.8081    0.2037 H   0  0  0  0  0  0  0  0  0  0  0  0
   -1.3830   -0.8829    1.6277 H   0  0  0  0  0  0  0  0  0  0  0  0
    2.7521   -1.7628    0.9539 H   0  0  0  0  0  0  0  0  0  0  0  0
    1.1032   -1.4253    1.5738 H   0  0  0  0  0  0  0  0  0  0  0  0
    1.4377    0.9304   -1.3342 H   0  0  0  0  0  0  0  0  0  0  0  0
    2.0231   -0.3403   -2.4549 H   0  0  0  0  0  0  0  0  0  0  0  0
   -3.6804   -0.3741    1.7511 H   0  0  0  0  0  0  0  0  0  0  0  0
   -3.9330   -0.4740   -0.0209 H   0  0  0  0  0  0  0  0  0  0  0  0
    4.2910    0.3949    0.8751 H   0  0  0  0  0  0  0  0  0  0  0  0
    3.3145    1.7882    0.3306 H   0  0  0  0  0  0  0  0  0  0  0  0
   -2.0807    2.6304   -0.5237 H   0  0  0  0  0  0  0  0  0  0  0  0
   -3.5111    1.8492   -1.2549 H   0  0  0  0  0  0  0  0  0  0  0  0
   -0.3654    0.7697    0.2842 H   0  0  0  0  0  0  0  0  0  0  0  0
  1  7  1  0
  1 10  1  0
  2  8  1  0
  2 10  1  0
  3  9  1  0
  3 11  1  0
  4 12  1  0
  4 11  1  0
  5  7  1  0
  5  8  1  0
  5 13  1  0
  5 14  1  0
  6 12  1  0
  6  9  1  0
  6 15  1  0
  6 16  1  0
  7 17  1  0
  7 18  1  0
  8 19  1  0
  8 20  1  0
  9 21  1  0
  9 22  1  0
 10 23  1  0
 10 24  1  0
 11 25  1  0
 11 26  1  0
 12 27  1  0
M  RAD  1  12   2
M  END
>  <reaction>  (17) 
rmg_rxn_267

>  <mol_properties>  (17) 
{"0": {"label": "*3", "atom_type": "Cs"}, "1": {"label": "*4", "atom_type": "Cs"}, "14": {"label": "*1", "atom_type": "Cs"}, "15": {"label": "*0", "atom_type": "O2s"}, "21": {"label": "*2", "atom_type": "H0"}}

>  <type>  (17) 
unop_13

>  <geom_source>  (17) 
AutoTST

$$$$

     RDKit          3D

 27 27  0  0  0  0  0  0  0  0999 V2000
   -0.3954   -1.2295    0.6406 C   0  0  0  0  0  3  0  0  0  0  0  0
    0.1583   -2.2851   -0.3058 C   0  0  0  0  0  0  0  0  0  0  0  0
    0.4726   -3.4671    0.4052 O   0  0  0  0  0  0  0  0  0  0  0  0
    1.3672   -3.2093    1.4442 C   0  0  0  0  0  0  0  0  0  0  0  0
    0.8615   -2.3157    2.3888 O   0  0  0  0  0  0  0  0  0  0  0  0
    0.5719   -1.0608    1.8035 C   0  0  0  0  0  0  0  0  0  0  0  0
   -1.3659   -1.5553    1.0200 H   0  0  0  0  0  0  0  0  0  0  0  0
   -0.5630   -2.5631   -1.0730 H   0  0  0  0  0  0  0  0  0  0  0  0
    1.0630   -1.9058   -0.8053 H   0  0  0  0  0  0  0  0  0  0  0  0
    2.3092   -2.8085    1.0269 H   0  0  0  0  0  0  0  0  0  0  0  0
    1.5493   -4.1519    1.9557 H   0  0  0  0  0  0  0  0  0  0  0  0
    1.5056   -0.5953    1.4523 H   0  0  0  0  0  0  0  0  0  0  0  0
    0.1556   -0.4356    2.5922 H   0  0  0  0  0  0  0  0  0  0  0  0
   -0.0134    1.1681   -1.8605 C   0  0  0  0  0  0  0  0  0  0  0  0
   -0.0134    1.1681   -0.3385 C   0  0  0  0  0  0  0  0  0  0  0  0
   -1.0617    1.9807    0.1536 O   0  0  0  0  0  0  0  0  0  0  0  0
   -0.9708    3.2803   -0.3457 C   0  0  0  0  0  0  0  0  0  0  0  0
   -1.0617    3.3365   -1.7367 O   0  0  0  0  0  0  0  0  0  0  0  0
   -0.0134    2.6097   -2.3486 C   0  0  0  0  0  0  0  0  0  0  0  0
    0.8606    0.6356   -2.2424 H   0  0  0  0  0  0  0  0  0  0  0  0
   -0.9100    0.6619   -2.2235 H   0  0  0  0  0  0  0  0  0  0  0  0
   -0.2041   -0.0289    0.1503 H   0  0  0  0  0  0  0  0  0  0  0  0
    0.9502    1.5441    0.0383 H   0  0  0  0  0  0  0  0  0  0  0  0
   -0.0155    3.7323   -0.0215 H   0  0  0  0  0  0  0  0  0  0  0  0
   -1.8118    3.8408    0.0563 H   0  0  0  0  0  0  0  0  0  0  0  0
    0.9502    3.0871   -2.1133 H   0  0  0  0  0  0  0  0  0  0  0  0
   -0.1724    2.6757   -3.4241 H   0  0  0  0  0  0  0  0  0  0  0  0
  1  2  1  0
  1  6  1  0
  1  7  1  0
  2  3  1  0
  2  8  1  0
  2  9  1  0
  3  4  1  0
  4  5  1  0
  4 10  1  0
  4 11  1  0
  5  6  1  0
  6 12  1  0
  6 13  1  0
 14 15  1  0
 14 19  1  0
 14 20  1  0
 14 21  1  0
 15 16  1  0
 15 22  1  0
 15 23  1  0
 16 17  1  0
 17 18  1  0
 17 24  1  0
 17 25  1  0
 18 19  1  0
 19 26  1  0
 19 27  1  0
M  RAD  1   1   2
M  END
>  <reaction>  (18) 
rmg_rxn_267

>  <mol_properties>  (18) 
{"0": {"label": "*3", "atom_type": "Cs"}, "1": {"label": "*4", "atom_type": "Cs"}, "14": {"label": "*1", "atom_type": "Cs"}, "15": {"label": "*0", "atom_type": "O2s"}, "21": {"label": "*2", "atom_type": "H0"}}

>  <type>  (18) 
unop_14

>  <geom_source>  (18) 
gaussian_log

$$$$
