
     RDKit          3D

  4  3  0  0  0  0  0  0  0  0999 V2000
    0.0000    0.0000    0.8837 N   0  0  0  0  0  1  0  0  0  0  0  0
    0.0000    0.0000   -0.5697 N   0  0  0  0  0  0  0  0  0  0  0  0
    0.0000    0.8720   -1.0992 H   0  0  0  0  0  0  0  0  0  0  0  0
    0.0000   -0.8720   -1.0992 H   0  0  0  0  0  0  0  0  0  0  0  0
  1  2  1  0
  2  3  1  0
  2  4  1  0
M  RAD  1   1   3
M  END
>  <reaction>  (1) 
rmg_rxn_1066

>  <mol_properties>  (1) 
{"1": {"label": "donator", "atom_type": "N3s"}, "2": {"label": "d_hydrogen", "atom_type": "H0"}}

>  <type>  (1) 
r1h

$$$$

     RDKit          3D

  5  4  0  0  0  0  0  0  0  0999 V2000
    1.0414   -0.2152    0.0000 C   0  0  0  0  0  0  0  0  0  0  0  0
    0.0000    0.5432    0.0000 N   0  0  0  0  0  0  0  0  0  0  0  0
   -1.1618   -0.1793    0.0000 O   0  0  0  0  0  1  0  0  0  0  0  0
    2.0423    0.2423    0.0000 H   0  0  0  0  0  0  0  0  0  0  0  0
    1.0038   -1.3196    0.0000 H   0  0  0  0  0  0  0  0  0  0  0  0
  1  2  2  3
  1  4  1  0
  1  5  1  0
  2  3  1  0
M  RAD  1   3   2
M  END
>  <reaction>  (2) 
rmg_rxn_1066

>  <mol_properties>  (2) 
{"0": {"label": "acceptor", "atom_type": "Cs"}}

>  <type>  (2) 
r2

$$$$

     RDKit          3D

  6  5  0  0  0  0  0  0  0  0999 V2000
   -1.0966    0.1399   -0.0008 C   0  0  0  0  0  0  0  0  0  0  0  0
    0.2172   -0.5441   -0.0038 N   0  0  0  0  0  0  0  0  0  0  0  0
    1.1593    0.2558   -0.0001 O   0  0  0  0  0  0  0  0  0  0  0  0
   -1.6805   -0.1384   -0.8813 H   0  0  0  0  0  0  0  0  0  0  0  0
   -0.9115    1.2159    0.0041 H   0  0  0  0  0  0  0  0  0  0  0  0
   -1.6230   -0.1547    0.9092 H   0  0  0  0  0  0  0  0  0  0  0  0
  1  2  1  0
  1  4  1  0
  1  5  1  0
  1  6  1  0
  2  3  2  0
M  END
>  <reaction>  (3) 
rmg_rxn_1066

>  <mol_properties>  (3) 
{"0": {"label": "a_hydrogen", "atom_type": "H0"}, "1": {"label": "acceptor", "atom_type": "Cs"}}

>  <type>  (3) 
r2h

$$$$

     RDKit          3D

  9  7  0  0  0  0  0  0  0  0999 V2000
    1.2892   -0.8095    0.2938 N   0  0  0  0  0  1  0  0  0  0  0  0
    1.6534    0.1896   -0.2233 N   0  0  0  0  0  0  0  0  0  0  0  0
    0.7223    1.0329   -0.3177 H   0  0  0  0  0  0  0  0  0  0  0  0
    2.6158    0.3205   -0.5715 H   0  0  0  0  0  0  0  0  0  0  0  0
   -0.6679    1.2085    0.0365 C   0  0  0  0  0  0  0  0  0  0  0  0
   -0.8853   -0.0748    0.3479 N   0  0  0  0  0  0  0  0  0  0  0  0
   -1.5009   -0.8994   -0.2882 O   0  0  0  0  0  1  0  0  0  0  0  0
   -0.5516    1.8621    0.8930 H   0  0  0  0  0  0  0  0  0  0  0  0
   -1.1729    1.5917   -0.8457 H   0  0  0  0  0  0  0  0  0  0  0  0
  1  2  1  0
  2  3  1  0
  2  4  1  0
  5  6  2  3
  5  8  1  0
  5  9  1  0
  6  7  1  0
M  RAD  2   1   3   7   2
M  END
>  <reaction>  (4) 
rmg_rxn_1066

>  <mol_properties>  (4) 
{"0": {"label": "*0", "atom_type": "N3s"}, "1": {"label": "*1", "atom_type": "N3s"}, "2": {"label": "*2", "atom_type": "H0"}, "4": {"label": "*3", "atom_type": "Cd"}, "5": {"label": "*4", "atom_type": "N3d"}}

>  <type>  (4) 
ts

$$$$

     RDKit          3D

  9  7  0  0  0  0  0  0  0  0999 V2000
    0.5509   -1.5524   -2.3889 N   0  0  0  0  0  1  0  0  0  0  0  0
    0.5509   -1.5524   -0.9355 N   0  0  0  0  0  0  0  0  0  0  0  0
    0.5509   -0.5060   -0.3001 H   0  0  0  0  0  0  0  0  0  0  0  0
    0.5509   -2.4244   -0.4060 H   0  0  0  0  0  0  0  0  0  0  0  0
    0.5509    0.6139    0.3798 C   0  0  0  0  0  0  0  0  0  0  0  0
   -0.6709    0.6336    1.2171 N   0  0  0  0  0  0  0  0  0  0  0  0
   -0.9996    1.7818    1.5350 O   0  0  0  0  0  1  0  0  0  0  0  0
    1.3405    0.0311    0.8602 H   0  0  0  0  0  0  0  0  0  0  0  0
    0.8760    1.6468    0.2413 H   0  0  0  0  0  0  0  0  0  0  0  0
  1  2  1  0
  2  3  1  0
  2  4  1  0
  5  6  2  3
  5  8  1  0
  5  9  1  0
  6  7  1  0
M  RAD  2   1   3   7   2
M  END
>  <reaction>  (5) 
rmg_rxn_1066

>  <mol_properties>  (5) 
{"0": {"label": "*0", "atom_type": "N3s"}, "1": {"label": "*1", "atom_type": "N3s"}, "2": {"label": "*2", "atom_type": "H0"}, "4": {"label": "*3", "atom_type": "Cd"}, "5": {"label": "*4", "atom_type": "N3d"}}

>  <type>  (5) 
unop_1

>  <geom_source>  (5) 
Heuristics

$$$$

     RDKit          3D

  9  7  0  0  0  0  0  0  0  0999 V2000
    0.1571   -1.9404   -1.6681 N   0  0  0  0  0  1  0  0  0  0  0  0
    0.1571   -1.9404   -0.2147 N   0  0  0  0  0  0  0  0  0  0  0  0
    0.1571   -0.8940    0.4207 H   0  0  0  0  0  0  0  0  0  0  0  0
    0.1571   -2.8124    0.3148 H   0  0  0  0  0  0  0  0  0  0  0  0
    0.1571    0.2259    1.1006 C   0  0  0  0  0  0  0  0  0  0  0  0
   -0.5483    1.2458    0.2906 N   0  0  0  0  0  0  0  0  0  0  0  0
    0.0324    2.3367    0.3061 O   0  0  0  0  0  1  0  0  0  0  0  0
   -0.4896   -0.1526    1.8959 H   0  0  0  0  0  0  0  0  0  0  0  0
    1.0447    0.6962    1.5283 H   0  0  0  0  0  0  0  0  0  0  0  0
  1  2  1  0
  2  3  1  0
  2  4  1  0
  5  6  2  3
  5  8  1  0
  5  9  1  0
  6  7  1  0
M  RAD  2   1   3   7   2
M  END
>  <reaction>  (6) 
rmg_rxn_1066

>  <mol_properties>  (6) 
{"0": {"label": "*0", "atom_type": "N3s"}, "1": {"label": "*1", "atom_type": "N3s"}, "2": {"label": "*2", "atom_type": "H0"}, "4": {"label": "*3", "atom_type": "Cd"}, "5": {"label": "*4", "atom_type": "N3d"}}

>  <type>  (6) 
unop_2

>  <geom_source>  (6) 
Heuristics

$$$$

     RDKit          3D

  9  7  0  0  0  0  0  0  0  0999 V2000
    0.4115   -1.4153   -2.5742 N   0  0  0  0  0  1  0  0  0  0  0  0
    0.4115   -1.4153   -1.1207 N   0  0  0  0  0  0  0  0  0  0  0  0
    0.4115   -0.3689   -0.4854 H   0  0  0  0  0  0  0  0  0  0  0  0
    0.4115   -2.2873   -0.5913 H   0  0  0  0  0  0  0  0  0  0  0  0
    0.4115    0.7509    0.1946 C   0  0  0  0  0  0  0  0  0  0  0  0
   -0.2938    0.5027    1.4732 N   0  0  0  0  0  0  0  0  0  0  0  0
   -0.9300    1.4914    1.8543 O   0  0  0  0  0  1  0  0  0  0  0  0
    1.4890    0.6135    0.3133 H   0  0  0  0  0  0  0  0  0  0  0  0
    0.1938    1.7759   -0.1120 H   0  0  0  0  0  0  0  0  0  0  0  0
  1  2  1  0
  2  3  1  0
  2  4  1  0
  5  6  2  3
  5  8  1  0
  5  9  1  0
  6  7  1  0
M  RAD  2   1   3   7   2
M  END
>  <reaction>  (7) 
rmg_rxn_1066

>  <mol_properties>  (7) 
{"0": {"label": "*0", "atom_type": "N3s"}, "1": {"label": "*1", "atom_type": "N3s"}, "2": {"label": "*2", "atom_type": "H0"}, "4": {"label": "*3", "atom_type": "Cd"}, "5": {"label": "*4", "atom_type": "N3d"}}

>  <type>  (7) 
unop_3

>  <geom_source>  (7) 
Heuristics

$$$$

     RDKit          3D

  9  7  0  0  0  0  0  0  0  0999 V2000
   -0.6976   -1.5257   -1.9921 N   0  0  0  0  0  1  0  0  0  0  0  0
   -0.6976   -1.5257   -0.5387 N   0  0  0  0  0  0  0  0  0  0  0  0
   -0.6976   -0.4793    0.0967 H   0  0  0  0  0  0  0  0  0  0  0  0
   -0.6976   -2.3977   -0.0092 H   0  0  0  0  0  0  0  0  0  0  0  0
   -0.6976    0.6405    0.7766 C   0  0  0  0  0  0  0  0  0  0  0  0
    0.5241    1.3924    0.4079 N   0  0  0  0  0  0  0  0  0  0  0  0
    1.4957    1.0720    1.1013 O   0  0  0  0  0  1  0  0  0  0  0  0
   -1.4932    1.3221    1.0872 H   0  0  0  0  0  0  0  0  0  0  0  0
   -0.4387   -0.0345    1.5947 H   0  0  0  0  0  0  0  0  0  0  0  0
  1  2  1  0
  2  3  1  0
  2  4  1  0
  5  6  2  3
  5  8  1  0
  5  9  1  0
  6  7  1  0
M  RAD  2   1   3   7   2
M  END
>  <reaction>  (8) 
rmg_rxn_1066

>  <mol_properties>  (8) 
{"0": {"label": "*0", "atom_type": "N3s"}, "1": {"label": "*1", "atom_type": "N3s"}, "2": {"label": "*2", "atom_type": "H0"}, "4": {"label": "*3", "atom_type": "Cd"}, "5": {"label": "*4", "atom_type": "N3d"}}

>  <type>  (8) 
unop_4

>  <geom_source>  (8) 
Heuristics

$$$$

     RDKit          3D

  9  7  0  0  0  0  0  0  0  0999 V2000
    0.2172   -1.2579   -2.6793 N   0  0  0  0  0  1  0  0  0  0  0  0
    0.2172   -1.2579   -1.2259 N   0  0  0  0  0  0  0  0  0  0  0  0
    0.2172   -0.2115   -0.5906 H   0  0  0  0  0  0  0  0  0  0  0  0
    0.2172   -2.1299   -0.6964 H   0  0  0  0  0  0  0  0  0  0  0  0
    0.2172    0.9084    0.0894 C   0  0  0  0  0  0  0  0  0  0  0  0
    0.2172    0.5620    1.5295 N   0  0  0  0  0  0  0  0  0  0  0  0
   -0.7860    0.9889    2.1117 O   0  0  0  0  0  1  0  0  0  0  0  0
    1.0964    1.5047   -0.1658 H   0  0  0  0  0  0  0  0  0  0  0  0
   -0.6942    1.4730   -0.1170 H   0  0  0  0  0  0  0  0  0  0  0  0
  1  2  1  0
  2  3  1  0
  2  4  1  0
  5  6  2  3
  5  8  1  0
  5  9  1  0
  6  7  1  0
M  RAD  2   1   3   7   2
M  END
>  <reaction>  (9) 
rmg_rxn_1066

>  <mol_properties>  (9) 
{"0": {"label": "*0", "atom_type": "N3s"}, "1": {"label": "*1", "atom_type": "N3s"}, "2": {"label": "*2", "atom_type": "H0"}, "4": {"label": "*3", "atom_type": "Cd"}, "5": {"label": "*4", "atom_type": "N3d"}}

>  <type>  (9) 
unop_5

>  <geom_source>  (9) 
Heuristics

$$$$

     RDKit          3D

  9  7  0  0  0  0  0  0  0  0999 V2000
   -0.6680   -1.3130   -2.2857 N   0  0  0  0  0  1  0  0  0  0  0  0
   -0.6680   -1.3130   -0.8323 N   0  0  0  0  0  0  0  0  0  0  0  0
   -0.6680   -0.2666   -0.1969 H   0  0  0  0  0  0  0  0  0  0  0  0
   -0.6680   -2.1850   -0.3028 H   0  0  0  0  0  0  0  0  0  0  0  0
   -0.6680    0.8532    0.4830 C   0  0  0  0  0  0  0  0  0  0  0  0
    0.7428    1.2391    0.7173 N   0  0  0  0  0  0  0  0  0  0  0  0
    1.2469    0.6147    1.6573 O   0  0  0  0  0  1  0  0  0  0  0  0
   -1.3283    1.7177    0.5857 H   0  0  0  0  0  0  0  0  0  0  0  0
   -0.9302    0.0891    1.2173 H   0  0  0  0  0  0  0  0  0  0  0  0
  1  2  1  0
  2  3  1  0
  2  4  1  0
  5  6  2  3
  5  8  1  0
  5  9  1  0
  6  7  1  0
M  RAD  2   1   3   7   2
M  END
>  <reaction>  (10) 
rmg_rxn_1066

>  <mol_properties>  (10) 
{"0": {"label": "*0", "atom_type": "N3s"}, "1": {"label": "*1", "atom_type": "N3s"}, "2": {"label": "*2", "atom_type": "H0"}, "4": {"label": "*3", "atom_type": "Cd"}, "5": {"label": "*4", "atom_type": "N3d"}}

>  <type>  (10) 
unop_6

>  <geom_source>  (10) 
Heuristics

$$$$

     RDKit          3D

  9  7  0  0  0  0  0  0  0  0999 V2000
   -0.4516   -1.1586   -2.5430 N   0  0  0  0  0  1  0  0  0  0  0  0
   -0.4516   -1.1586   -1.0896 N   0  0  0  0  0  0  0  0  0  0  0  0
   -0.4516   -0.1122   -0.4543 H   0  0  0  0  0  0  0  0  0  0  0  0
   -0.4516   -2.0306   -0.5601 H   0  0  0  0  0  0  0  0  0  0  0  0
   -0.4516    1.0076    0.2257 C   0  0  0  0  0  0  0  0  0  0  0  0
    0.7701    1.0273    1.0629 N   0  0  0  0  0  0  0  0  0  0  0  0
    0.6403    0.3567    2.0929 O   0  0  0  0  0  1  0  0  0  0  0  0
   -0.8393    2.0190    0.0819 H   0  0  0  0  0  0  0  0  0  0  0  0
   -1.1933    0.3883    0.7340 H   0  0  0  0  0  0  0  0  0  0  0  0
  1  2  1  0
  2  3  1  0
  2  4  1  0
  5  6  2  3
  5  8  1  0
  5  9  1  0
  6  7  1  0
M  RAD  2   1   3   7   2
M  END
>  <reaction>  (11) 
rmg_rxn_1066

>  <mol_properties>  (11) 
{"0": {"label": "*0", "atom_type": "N3s"}, "1": {"label": "*1", "atom_type": "N3s"}, "2": {"label": "*2", "atom_type": "H0"}, "4": {"label": "*3", "atom_type": "Cd"}, "5": {"label": "*4", "atom_type": "N3d"}}

>  <type>  (11) 
unop_7

>  <geom_source>  (11) 
Heuristics

$$$$

     RDKit          3D

  9  7  0  0  0  0  0  0  0  0999 V2000
    0.5852   -1.7100   -2.1303 N   0  0  0  0  0  1  0  0  0  0  0  0
    0.5852   -1.7100   -0.6768 N   0  0  0  0  0  0  0  0  0  0  0  0
    0.5852   -0.6636   -0.0415 H   0  0  0  0  0  0  0  0  0  0  0  0
    0.5852   -2.5820   -0.1474 H   0  0  0  0  0  0  0  0  0  0  0  0
    0.5852    0.4562    0.6384 C   0  0  0  0  0  0  0  0  0  0  0  0
   -0.8256    0.8420    0.8727 N   0  0  0  0  0  0  0  0  0  0  0  0
   -0.9473    2.0517    1.0947 O   0  0  0  0  0  1  0  0  0  0  0  0
    0.9104   -0.2869    1.3705 H   0  0  0  0  0  0  0  0  0  0  0  0
    1.1948    1.3582    0.7205 H   0  0  0  0  0  0  0  0  0  0  0  0
  1  2  1  0
  2  3  1  0
  2  4  1  0
  5  6  2  3
  5  8  1  0
  5  9  1  0
  6  7  1  0
M  RAD  2   1   3   7   2
M  END
>  <reaction>  (12) 
rmg_rxn_1066

>  <mol_properties>  (12) 
{"0": {"label": "*0", "atom_type": "N3s"}, "1": {"label": "*1", "atom_type": "N3s"}, "2": {"label": "*2", "atom_type": "H0"}, "4": {"label": "*3", "atom_type": "Cd"}, "5": {"label": "*4", "atom_type": "N3d"}}

>  <type>  (12) 
unop_8

>  <geom_source>  (12) 
Heuristics

$$$$

     RDKit          3D

  9  7  0  0  0  0  0  0  0  0999 V2000
   -0.5350   -1.7410   -1.7461 N   0  0  0  0  0  1  0  0  0  0  0  0
   -0.5350   -1.7410   -0.2927 N   0  0  0  0  0  0  0  0  0  0  0  0
   -0.5350   -0.6946    0.3426 H   0  0  0  0  0  0  0  0  0  0  0  0
   -0.5350   -2.6130    0.2367 H   0  0  0  0  0  0  0  0  0  0  0  0
   -0.5350    0.4252    1.0226 C   0  0  0  0  0  0  0  0  0  0  0  0
    0.1704    1.4451    0.2125 N   0  0  0  0  0  0  0  0  0  0  0  0
    1.3354    1.6151    0.5886 O   0  0  0  0  0  1  0  0  0  0  0  0
   -1.4183    0.8540    1.5018 H   0  0  0  0  0  0  0  0  0  0  0  0
    0.1632    0.0589    1.7777 H   0  0  0  0  0  0  0  0  0  0  0  0
  1  2  1  0
  2  3  1  0
  2  4  1  0
  5  6  2  3
  5  8  1  0
  5  9  1  0
  6  7  1  0
M  RAD  2   1   3   7   2
M  END
>  <reaction>  (13) 
rmg_rxn_1066

>  <mol_properties>  (13) 
{"0": {"label": "*0", "atom_type": "N3s"}, "1": {"label": "*1", "atom_type": "N3s"}, "2": {"label": "*2", "atom_type": "H0"}, "4": {"label": "*3", "atom_type": "Cd"}, "5": {"label": "*4", "atom_type": "N3d"}}

>  <type>  (13) 
unop_9

>  <geom_source>  (13) 
Heuristics

$$$$

     RDKit          3D

  9  7  0  0  0  0  0  0  0  0999 V2000
    0.4527   -1.8597   -1.8614 N   0  0  0  0  0  1  0  0  0  0  0  0
    0.4527   -1.8597   -0.4079 N   0  0  0  0  0  0  0  0  0  0  0  0
    0.4527   -0.8133    0.2274 H   0  0  0  0  0  0  0  0  0  0  0  0
    0.4527   -2.7317    0.1215 H   0  0  0  0  0  0  0  0  0  0  0  0
    0.4527    0.3066    0.9074 C   0  0  0  0  0  0  0  0  0  0  0  0
   -0.7691    1.0585    0.5387 N   0  0  0  0  0  0  0  0  0  0  0  0
   -0.6090    2.2807    0.6281 O   0  0  0  0  0  1  0  0  0  0  0  0
    0.2563   -0.3641    1.7473 H   0  0  0  0  0  0  0  0  0  0  0  0
    1.2218    1.0330    1.1768 H   0  0  0  0  0  0  0  0  0  0  0  0
  1  2  1  0
  2  3  1  0
  2  4  1  0
  5  6  2  3
  5  8  1  0
  5  9  1  0
  6  7  1  0
M  RAD  2   1   3   7   2
M  END
>  <reaction>  (14) 
rmg_rxn_1066

>  <mol_properties>  (14) 
{"0": {"label": "*0", "atom_type": "N3s"}, "1": {"label": "*1", "atom_type": "N3s"}, "2": {"label": "*2", "atom_type": "H0"}, "4": {"label": "*3", "atom_type": "Cd"}, "5": {"label": "*4", "atom_type": "N3d"}}

>  <type>  (14) 
unop_10

>  <geom_source>  (14) 
Heuristics

$$$$

     RDKit          3D

  9  7  0  0  0  0  0  0  0  0999 V2000
   -0.1062   -1.1277   -2.6868 N   0  0  0  0  0  1  0  0  0  0  0  0
   -0.1062   -1.1277   -1.2333 N   0  0  0  0  0  0  0  0  0  0  0  0
   -0.1062   -0.0813   -0.5980 H   0  0  0  0  0  0  0  0  0  0  0  0
   -0.1062   -1.9996   -0.7039 H   0  0  0  0  0  0  0  0  0  0  0  0
   -0.1062    1.0386    0.0820 C   0  0  0  0  0  0  0  0  0  0  0  0
    0.5992    0.7903    1.3606 N   0  0  0  0  0  0  0  0  0  0  0  0
   -0.1752    0.4504    2.2618 O   0  0  0  0  0  1  0  0  0  0  0  0
    0.0527    2.0657   -0.2552 H   0  0  0  0  0  0  0  0  0  0  0  0
   -1.1698    0.8565    0.2480 H   0  0  0  0  0  0  0  0  0  0  0  0
  1  2  1  0
  2  3  1  0
  2  4  1  0
  5  6  2  3
  5  8  1  0
  5  9  1  0
  6  7  1  0
M  RAD  2   1   3   7   2
M  END
>  <reaction>  (15) 
rmg_rxn_1066

>  <mol_properties>  (15) 
{"0": {"label": "*0", "atom_type": "N3s"}, "1": {"label": "*1", "atom_type": "N3s"}, "2": {"label": "*2", "atom_type": "H0"}, "4": {"label": "*3", "atom_type": "Cd"}, "5": {"label": "*4", "atom_type": "N3d"}}

>  <type>  (15) 
unop_11

>  <geom_source>  (15) 
Heuristics

$$$$

     RDKit          3D

  9  7  0  0  0  0  0  0  0  0999 V2000
   -0.2172   -1.8990   -1.6234 N   0  0  0  0  0  1  0  0  0  0  0  0
   -0.2172   -1.8990   -0.1699 N   0  0  0  0  0  0  0  0  0  0  0  0
   -0.2172   -0.8526    0.4654 H   0  0  0  0  0  0  0  0  0  0  0  0
   -0.2172   -2.7710    0.3595 H   0  0  0  0  0  0  0  0  0  0  0  0
   -0.2172    0.2672    1.1454 C   0  0  0  0  0  0  0  0  0  0  0  0
   -0.2172    1.3852    0.1737 N   0  0  0  0  0  0  0  0  0  0  0  0
    0.7860    2.0986    0.2840 O   0  0  0  0  0  1  0  0  0  0  0  0
   -1.0964    0.3159    1.7921 H   0  0  0  0  0  0  0  0  0  0  0  0
    0.6942    0.3445    1.7415 H   0  0  0  0  0  0  0  0  0  0  0  0
  1  2  1  0
  2  3  1  0
  2  4  1  0
  5  6  2  3
  5  8  1  0
  5  9  1  0
  6  7  1  0
M  RAD  2   1   3   7   2
M  END
>  <reaction>  (16) 
rmg_rxn_1066

>  <mol_properties>  (16) 
{"0": {"label": "*0", "atom_type": "N3s"}, "1": {"label": "*1", "atom_type": "N3s"}, "2": {"label": "*2", "atom_type": "H0"}, "4": {"label": "*3", "atom_type": "Cd"}, "5": {"label": "*4", "atom_type": "N3d"}}

>  <type>  (16) 
unop_12

>  <geom_source>  (16) 
Heuristics

$$$$

     RDKit          3D

  9  7  0  0  0  0  0  0  0  0999 V2000
    0.1571   -1.9404   -1.6681 N   0  0  0  0  0  1  0  0  0  0  0  0
    0.1571   -1.9404   -0.2147 N   0  0  0  0  0  0  0  0  0  0  0  0
    0.1571   -0.8940    0.4207 H   0  0  0  0  0  0  0  0  0  0  0  0
    0.1571   -2.8124    0.3148 H   0  0  0  0  0  0  0  0  0  0  0  0
    0.1571    0.2258    1.1006 C   0  0  0  0  0  0  0  0  0  0  0  0
   -0.5483    1.2458    0.2906 N   0  0  0  0  0  0  0  0  0  0  0  0
    0.0324    2.3367    0.3061 O   0  0  0  0  0  1  0  0  0  0  0  0
   -0.4896   -0.1526    1.8959 H   0  0  0  0  0  0  0  0  0  0  0  0
    1.0447    0.6962    1.5283 H   0  0  0  0  0  0  0  0  0  0  0  0
  1  2  1  0
  2  3  1  0
  2  4  1  0
  5  6  2  3
  5  8  1  0
  5  9  1  0
  6  7  1  0
M  RAD  2   1   3   7   2
M  END
>  <reaction>  (17) 
rmg_rxn_1066

>  <mol_properties>  (17) 
{"0": {"label": "*0", "atom_type": "N3s"}, "1": {"label": "*1", "atom_type": "N3s"}, "2": {"label": "*2", "atom_type": "H0"}, "4": {"label": "*3", "atom_type": "Cd"}, "5": {"label": "*4", "atom_type": "N3d"}}

>  <type>  (17) 
unop_13

>  <geom_source>  (17) 
gaussian_log

$$$$
