
     RDKit          3D

  8  7  0  0  0  0  0  0  0  0999 V2000
    0.9548    0.1194   -0.0790 C   0  0  0  0  0  0  0  0  0  0  0  0
   -0.4838   -0.2649    0.0193 C   0  0  0  0  0  0  0  0  0  0  0  0
   -0.8933   -1.1081    0.8664 N   0  0  0  0  0  0  0  0  0  0  0  0
    1.3360   -0.0983   -1.0800 H   0  0  0  0  0  0  0  0  0  0  0  0
    1.0698    1.1948    0.0786 H   0  0  0  0  0  0  0  0  0  0  0  0
    1.5426   -0.4219    0.6602 H   0  0  0  0  0  0  0  0  0  0  0  0
   -1.1575    0.2324   -0.6905 H   0  0  0  0  0  0  0  0  0  0  0  0
   -1.8989   -1.2455    0.7886 H   0  0  0  0  0  0  0  0  0  0  0  0
  1  2  1  0
  1  4  1  0
  1  5  1  0
  1  6  1  0
  2  3  2  3
  2  7  1  0
  3  8  1  0
M  END
>  <reaction>  (1) 
rmg_rxn_16466

>  <mol_properties>  (1) 
{"2": {"label": "donator", "atom_type": "N3d"}, "7": {"label": "d_hydrogen", "atom_type": "H0"}}

>  <type>  (1) 
r1h

$$$$

     RDKit          3D

 17 16  0  0  0  0  0  0  0  0999 V2000
    3.3619    0.3511   -1.0290 C   0  0  0  0  0  3  0  0  0  0  0  0
    2.1806    1.0643   -0.5073 C   0  0  0  0  0  0  0  0  0  0  0  0
    1.4028    0.1998    0.2757 O   0  0  0  0  0  0  0  0  0  0  0  0
    0.2433    0.8081    0.7885 C   0  0  0  0  0  0  0  0  0  0  0  0
   -0.5040   -0.1878    1.6510 C   0  0  0  0  0  0  0  0  0  0  0  0
    0.2852   -0.6298    2.8762 C   0  0  0  0  0  0  0  0  0  0  0  0
    4.1174    0.8902   -1.5820 H   0  0  0  0  0  0  0  0  0  0  0  0
    3.4399   -0.7198   -0.9141 H   0  0  0  0  0  0  0  0  0  0  0  0
    1.5724    1.4684   -1.3398 H   0  0  0  0  0  0  0  0  0  0  0  0
    2.4896    1.9442    0.0856 H   0  0  0  0  0  0  0  0  0  0  0  0
    0.5169    1.6937    1.3835 H   0  0  0  0  0  0  0  0  0  0  0  0
   -0.3954    1.1528   -0.0379 H   0  0  0  0  0  0  0  0  0  0  0  0
   -0.7611   -1.0545    1.0367 H   0  0  0  0  0  0  0  0  0  0  0  0
   -1.4466    0.2743    1.9571 H   0  0  0  0  0  0  0  0  0  0  0  0
    0.5263    0.2245    3.5136 H   0  0  0  0  0  0  0  0  0  0  0  0
    1.2220   -1.1033    2.5825 H   0  0  0  0  0  0  0  0  0  0  0  0
   -0.2849   -1.3427    3.4737 H   0  0  0  0  0  0  0  0  0  0  0  0
  1  2  1  0
  1  7  1  0
  1  8  1  0
  2  3  1  0
  2  9  1  0
  2 10  1  0
  3  4  1  0
  4  5  1  0
  4 11  1  0
  4 12  1  0
  5  6  1  0
  5 13  1  0
  5 14  1  0
  6 15  1  0
  6 16  1  0
  6 17  1  0
M  RAD  1   1   2
M  END
>  <reaction>  (2) 
rmg_rxn_16466

>  <mol_properties>  (2) 
{"0": {"label": "acceptor", "atom_type": "Cs"}}

>  <type>  (2) 
r2

$$$$

     RDKit          3D

 18 17  0  0  0  0  0  0  0  0999 V2000
    2.2026   -0.7213   -0.2612 C   0  0  0  0  0  0  0  0  0  0  0  0
    1.5384    0.2638    0.6915 C   0  0  0  0  0  0  0  0  0  0  0  0
    2.2584    1.5946    0.7694 C   0  0  0  0  0  0  0  0  0  0  0  0
    2.2212    2.2185   -0.4893 O   0  0  0  0  0  0  0  0  0  0  0  0
    2.8988    3.4488   -0.5204 C   0  0  0  0  0  0  0  0  0  0  0  0
    2.7981    4.0296   -1.9118 C   0  0  0  0  0  0  0  0  0  0  0  0
    3.2294   -0.9309    0.0486 H   0  0  0  0  0  0  0  0  0  0  0  0
    2.2338   -0.3181   -1.2734 H   0  0  0  0  0  0  0  0  0  0  0  0
    1.6610   -1.6680   -0.2875 H   0  0  0  0  0  0  0  0  0  0  0  0
    1.4990   -0.1566    1.7002 H   0  0  0  0  0  0  0  0  0  0  0  0
    0.5055    0.4455    0.3835 H   0  0  0  0  0  0  0  0  0  0  0  0
    3.3038    1.4410    1.0808 H   0  0  0  0  0  0  0  0  0  0  0  0
    1.7844    2.2410    1.5226 H   0  0  0  0  0  0  0  0  0  0  0  0
    2.4596    4.1376    0.2164 H   0  0  0  0  0  0  0  0  0  0  0  0
    3.9524    3.3035   -0.2397 H   0  0  0  0  0  0  0  0  0  0  0  0
    1.7543    4.1869   -2.1856 H   0  0  0  0  0  0  0  0  0  0  0  0
    3.2472    3.3545   -2.6411 H   0  0  0  0  0  0  0  0  0  0  0  0
    3.3178    4.9878   -1.9600 H   0  0  0  0  0  0  0  0  0  0  0  0
  1  2  1  0
  1  7  1  0
  1  8  1  0
  1  9  1  0
  2  3  1  0
  2 10  1  0
  2 11  1  0
  3  4  1  0
  3 12  1  0
  3 13  1  0
  4  5  1  0
  5  6  1  0
  5 14  1  0
  5 15  1  0
  6 16  1  0
  6 17  1  0
  6 18  1  0
M  END
>  <reaction>  (3) 
rmg_rxn_16466

>  <mol_properties>  (3) 
{"0": {"label": "a_hydrogen", "atom_type": "H0"}, "1": {"label": "acceptor", "atom_type": "Cs"}}

>  <type>  (3) 
r2h

$$$$

     RDKit          3D

 25 23  0  0  0  0  0  0  0  0999 V2000
    2.9657    1.4869    0.3121 C   0  0  0  0  0  0  0  0  0  0  0  0
    2.1062    0.2615    0.2633 C   0  0  0  0  0  0  0  0  0  0  0  0
    2.2080   -0.5854   -0.6617 N   0  0  0  0  0  0  0  0  0  0  0  0
    2.3343    2.3787    0.2919 H   0  0  0  0  0  0  0  0  0  0  0  0
    3.5295    1.5108    1.2477 H   0  0  0  0  0  0  0  0  0  0  0  0
    3.6556    1.5107   -0.5295 H   0  0  0  0  0  0  0  0  0  0  0  0
    1.3684    0.1484    1.0649 H   0  0  0  0  0  0  0  0  0  0  0  0
    1.3989   -1.4570   -0.4727 H   0  0  0  0  0  0  0  0  0  0  0  0
    0.3601   -2.3408   -0.1669 C   0  0  0  0  0  3  0  0  0  0  0  0
   -0.9134   -1.5733   -0.3054 C   0  0  0  0  0  0  0  0  0  0  0  0
   -0.9912   -0.6257    0.7333 O   0  0  0  0  0  0  0  0  0  0  0  0
   -2.1792    0.1320    0.7515 C   0  0  0  0  0  0  0  0  0  0  0  0
   -2.3146    1.1167   -0.4045 C   0  0  0  0  0  0  0  0  0  0  0  0
   -1.1034    2.0267   -0.5553 C   0  0  0  0  0  0  0  0  0  0  0  0
    0.5783   -2.6824    0.8422 H   0  0  0  0  0  0  0  0  0  0  0  0
    0.5105   -3.1038   -0.9269 H   0  0  0  0  0  0  0  0  0  0  0  0
   -1.7850   -2.2488   -0.2538 H   0  0  0  0  0  0  0  0  0  0  0  0
   -0.9465   -1.0849   -1.2890 H   0  0  0  0  0  0  0  0  0  0  0  0
   -3.0500   -0.5386    0.7761 H   0  0  0  0  0  0  0  0  0  0  0  0
   -2.1540    0.6794    1.6965 H   0  0  0  0  0  0  0  0  0  0  0  0
   -3.2148    1.7099   -0.2200 H   0  0  0  0  0  0  0  0  0  0  0  0
   -2.4946    0.5793   -1.3393 H   0  0  0  0  0  0  0  0  0  0  0  0
   -1.2606    2.7627   -1.3447 H   0  0  0  0  0  0  0  0  0  0  0  0
   -0.2118    1.4497   -0.8048 H   0  0  0  0  0  0  0  0  0  0  0  0
   -0.9017    2.5658    0.3738 H   0  0  0  0  0  0  0  0  0  0  0  0
  1  2  1  0
  1  4  1  0
  1  5  1  0
  1  6  1  0
  2  3  2  3
  2  7  1  0
  3  8  1  0
  9 10  1  0
  9 15  1  0
  9 16  1  0
 10 11  1  0
 10 17  1  0
 10 18  1  0
 11 12  1  0
 12 13  1  0
 12 19  1  0
 12 20  1  0
 13 14  1  0
 13 21  1  0
 13 22  1  0
 14 23  1  0
 14 24  1  0
 14 25  1  0
M  RAD  1   9   2
M  END
>  <reaction>  (4) 
rmg_rxn_16466

>  <mol_properties>  (4) 
{"1": {"label": "*0", "atom_type": "Cd"}, "2": {"label": "*1", "atom_type": "N3d"}, "7": {"label": "*2", "atom_type": "H0"}, "8": {"label": "*3", "atom_type": "Cs"}, "9": {"label": "*4", "atom_type": "Cs"}}

>  <type>  (4) 
ts

$$$$

     RDKit          3D

 25 23  0  0  0  0  0  0  0  0999 V2000
    3.0459    1.4840    0.3054 C   0  0  0  0  0  0  0  0  0  0  0  0
    2.1286    0.2974    0.3014 C   0  0  0  0  0  0  0  0  0  0  0  0
    2.1788   -0.5814   -0.5717 N   0  0  0  0  0  0  0  0  0  0  0  0
    2.4534    2.3964    0.2585 H   0  0  0  0  0  0  0  0  0  0  0  0
    3.6156    1.4941    1.2332 H   0  0  0  0  0  0  0  0  0  0  0  0
    3.7250    1.4426   -0.5417 H   0  0  0  0  0  0  0  0  0  0  0  0
    1.4119    0.2846    1.1319 H   0  0  0  0  0  0  0  0  0  0  0  0
    1.3235   -1.4905   -0.4319 H   0  0  0  0  0  0  0  0  0  0  0  0
    0.3871   -2.3509   -0.2111 C   0  0  0  0  0  3  0  0  0  0  0  0
   -0.9212   -1.6174   -0.3196 C   0  0  0  0  0  0  0  0  0  0  0  0
   -0.9593   -0.6099    0.6712 O   0  0  0  0  0  0  0  0  0  0  0  0
   -2.1564    0.1271    0.7279 C   0  0  0  0  0  0  0  0  0  0  0  0
   -2.3474    1.1190   -0.4257 C   0  0  0  0  0  0  0  0  0  0  0  0
   -1.1741    2.0850   -0.5331 C   0  0  0  0  0  0  0  0  0  0  0  0
    0.5740   -2.7267    0.7876 H   0  0  0  0  0  0  0  0  0  0  0  0
    0.5033   -3.1142   -0.9698 H   0  0  0  0  0  0  0  0  0  0  0  0
   -1.7737   -2.3085   -0.1684 H   0  0  0  0  0  0  0  0  0  0  0  0
   -1.0226   -1.1822   -1.3243 H   0  0  0  0  0  0  0  0  0  0  0  0
   -3.0189   -0.5573    0.7716 H   0  0  0  0  0  0  0  0  0  0  0  0
   -2.0993    0.6760    1.6726 H   0  0  0  0  0  0  0  0  0  0  0  0
   -3.2736    1.6679   -0.2451 H   0  0  0  0  0  0  0  0  0  0  0  0
   -2.4618    0.5754   -1.3655 H   0  0  0  0  0  0  0  0  0  0  0  0
   -1.3190    2.7723   -1.3633 H   0  0  0  0  0  0  0  0  0  0  0  0
   -0.2510    1.5331   -0.6950 H   0  0  0  0  0  0  0  0  0  0  0  0
   -1.0741    2.6625    0.3836 H   0  0  0  0  0  0  0  0  0  0  0  0
  1  2  1  0
  1  4  1  0
  1  5  1  0
  1  6  1  0
  2  3  2  3
  2  7  1  0
  3  8  1  0
  9 10  1  0
  9 15  1  0
  9 16  1  0
 10 11  1  0
 10 17  1  0
 10 18  1  0
 11 12  1  0
 12 13  1  0
 12 19  1  0
 12 20  1  0
 13 14  1  0
 13 21  1  0
 13 22  1  0
 14 23  1  0
 14 24  1  0
 14 25  1  0
M  RAD  1   9   2
M  END
>  <reaction>  (5) 
rmg_rxn_16466

>  <mol_properties>  (5) 
{"1": {"label": "*0", "atom_type": "Cd"}, "2": {"label": "*1", "atom_type": "N3d"}, "7": {"label": "*2", "atom_type": "H0"}, "8": {"label": "*3", "atom_type": "Cs"}, "9": {"label": "*4", "atom_type": "Cs"}}

>  <type>  (5) 
unop_1

>  <geom_source>  (5) 
crest_best.xyz

$$$$

     RDKit          3D

 25 23  0  0  0  0  0  0  0  0999 V2000
   -0.7253   -1.2788   -5.0768 C   0  0  0  0  0  0  0  0  0  0  0  0
   -0.7253   -1.2788   -3.5845 C   0  0  0  0  0  0  0  0  0  0  0  0
   -0.7253   -0.2062   -2.9168 N   0  0  0  0  0  0  0  0  0  0  0  0
    0.1529   -1.8088   -5.4542 H   0  0  0  0  0  0  0  0  0  0  0  0
   -1.6036   -1.8088   -5.4542 H   0  0  0  0  0  0  0  0  0  0  0  0
   -0.7253   -0.2582   -5.4554 H   0  0  0  0  0  0  0  0  0  0  0  0
   -0.7253   -2.2685   -3.1098 H   0  0  0  0  0  0  0  0  0  0  0  0
   -0.7253   -0.4364   -1.7172 H   0  0  0  0  0  0  0  0  0  0  0  0
   -0.7253   -0.6831   -0.4313 C   0  0  0  0  0  3  0  0  0  0  0  0
    0.5023   -0.0857    0.2165 C   0  0  0  0  0  0  0  0  0  0  0  0
    0.1432    0.4561    1.4619 O   0  0  0  0  0  0  0  0  0  0  0  0
    1.2230    1.0383    2.1475 C   0  0  0  0  0  0  0  0  0  0  0  0
    0.7455    1.5564    3.4887 C   0  0  0  0  0  0  0  0  0  0  0  0
    0.2365    0.4551    4.4091 C   0  0  0  0  0  0  0  0  0  0  0  0
   -1.1429   -1.4716    0.1958 H   0  0  0  0  0  0  0  0  0  0  0  0
   -1.4898    0.0806   -0.5783 H   0  0  0  0  0  0  0  0  0  0  0  0
    0.9318    0.6987   -0.4241 H   0  0  0  0  0  0  0  0  0  0  0  0
    1.2780   -0.8538    0.3517 H   0  0  0  0  0  0  0  0  0  0  0  0
    2.0207    0.2926    2.2927 H   0  0  0  0  0  0  0  0  0  0  0  0
    1.6475    1.8591    1.5509 H   0  0  0  0  0  0  0  0  0  0  0  0
   -0.0420    2.2944    3.3154 H   0  0  0  0  0  0  0  0  0  0  0  0
    1.5779    2.0861    3.9602 H   0  0  0  0  0  0  0  0  0  0  0  0
    1.0215   -0.2781    4.6106 H   0  0  0  0  0  0  0  0  0  0  0  0
   -0.6037   -0.0701    3.9549 H   0  0  0  0  0  0  0  0  0  0  0  0
   -0.0932    0.8637    5.3654 H   0  0  0  0  0  0  0  0  0  0  0  0
  1  2  1  0
  1  4  1  0
  1  5  1  0
  1  6  1  0
  2  3  2  3
  2  7  1  0
  3  8  1  0
  9 10  1  0
  9 15  1  0
  9 16  1  0
 10 11  1  0
 10 17  1  0
 10 18  1  0
 11 12  1  0
 12 13  1  0
 12 19  1  0
 12 20  1  0
 13 14  1  0
 13 21  1  0
 13 22  1  0
 14 23  1  0
 14 24  1  0
 14 25  1  0
M  RAD  1   9   2
M  END
>  <reaction>  (6) 
rmg_rxn_16466

>  <mol_properties>  (6) 
{"1": {"label": "*0", "atom_type": "Cd"}, "2": {"label": "*1", "atom_type": "N3d"}, "7": {"label": "*2", "atom_type": "H0"}, "8": {"label": "*3", "atom_type": "Cs"}, "9": {"label": "*4", "atom_type": "Cs"}}

>  <type>  (6) 
unop_2

>  <geom_source>  (6) 
Heuristics

$$$$

     RDKit          3D

 25 23  0  0  0  0  0  0  0  0999 V2000
   -0.7067    0.6260   -4.8409 C   0  0  0  0  0  0  0  0  0  0  0  0
   -0.7067    0.6260   -3.3486 C   0  0  0  0  0  0  0  0  0  0  0  0
   -0.7067    1.6986   -2.6809 N   0  0  0  0  0  0  0  0  0  0  0  0
    0.1715    0.0960   -5.2183 H   0  0  0  0  0  0  0  0  0  0  0  0
   -1.5850    0.0960   -5.2183 H   0  0  0  0  0  0  0  0  0  0  0  0
   -0.7067    1.6466   -5.2195 H   0  0  0  0  0  0  0  0  0  0  0  0
   -0.7067   -0.3637   -2.8739 H   0  0  0  0  0  0  0  0  0  0  0  0
   -0.7067    1.4685   -1.4813 H   0  0  0  0  0  0  0  0  0  0  0  0
   -0.7067    1.2217   -0.1954 C   0  0  0  0  0  3  0  0  0  0  0  0
    0.0020   -0.0826    0.0875 C   0  0  0  0  0  0  0  0  0  0  0  0
    0.3557   -0.1243    1.4464 O   0  0  0  0  0  0  0  0  0  0  0  0
    1.0234   -1.3058    1.8115 C   0  0  0  0  0  0  0  0  0  0  0  0
    1.3262   -1.2733    3.2956 C   0  0  0  0  0  0  0  0  0  0  0  0
    0.0739   -1.2396    4.1615 C   0  0  0  0  0  0  0  0  0  0  0  0
   -1.6082    1.3064    0.4125 H   0  0  0  0  0  0  0  0  0  0  0  0
   -0.0569    2.0672    0.0332 H   0  0  0  0  0  0  0  0  0  0  0  0
    0.9027   -0.1741   -0.5376 H   0  0  0  0  0  0  0  0  0  0  0  0
   -0.6492   -0.9349   -0.1565 H   0  0  0  0  0  0  0  0  0  0  0  0
    0.3965   -2.1796    1.5727 H   0  0  0  0  0  0  0  0  0  0  0  0
    1.9546   -1.4041    1.2344 H   0  0  0  0  0  0  0  0  0  0  0  0
    1.9499   -0.4001    3.5035 H   0  0  0  0  0  0  0  0  0  0  0  0
    1.9261   -2.1556    3.5357 H   0  0  0  0  0  0  0  0  0  0  0  0
   -0.5482   -2.1199    3.9813 H   0  0  0  0  0  0  0  0  0  0  0  0
   -0.5244   -0.3557    3.9407 H   0  0  0  0  0  0  0  0  0  0  0  0
    0.3301   -1.2223    5.2218 H   0  0  0  0  0  0  0  0  0  0  0  0
  1  2  1  0
  1  4  1  0
  1  5  1  0
  1  6  1  0
  2  3  2  3
  2  7  1  0
  3  8  1  0
  9 10  1  0
  9 15  1  0
  9 16  1  0
 10 11  1  0
 10 17  1  0
 10 18  1  0
 11 12  1  0
 12 13  1  0
 12 19  1  0
 12 20  1  0
 13 14  1  0
 13 21  1  0
 13 22  1  0
 14 23  1  0
 14 24  1  0
 14 25  1  0
M  RAD  1   9   2
M  END
>  <reaction>  (7) 
rmg_rxn_16466

>  <mol_properties>  (7) 
{"1": {"label": "*0", "atom_type": "Cd"}, "2": {"label": "*1", "atom_type": "N3d"}, "7": {"label": "*2", "atom_type": "H0"}, "8": {"label": "*3", "atom_type": "Cs"}, "9": {"label": "*4", "atom_type": "Cs"}}

>  <type>  (7) 
unop_3

>  <geom_source>  (7) 
Heuristics

$$$$

     RDKit          3D

 25 23  0  0  0  0  0  0  0  0999 V2000
   -0.2489   -1.3653   -5.1771 C   0  0  0  0  0  0  0  0  0  0  0  0
   -0.2489   -1.3653   -3.6848 C   0  0  0  0  0  0  0  0  0  0  0  0
   -0.2489   -0.2927   -3.0171 N   0  0  0  0  0  0  0  0  0  0  0  0
    0.6293   -1.8953   -5.5545 H   0  0  0  0  0  0  0  0  0  0  0  0
   -1.1272   -1.8953   -5.5545 H   0  0  0  0  0  0  0  0  0  0  0  0
   -0.2489   -0.3447   -5.5557 H   0  0  0  0  0  0  0  0  0  0  0  0
   -0.2489   -2.3550   -3.2101 H   0  0  0  0  0  0  0  0  0  0  0  0
   -0.2489   -0.5229   -1.8175 H   0  0  0  0  0  0  0  0  0  0  0  0
   -0.2489   -0.7696   -0.5316 C   0  0  0  0  0  3  0  0  0  0  0  0
    0.4598    0.3374    0.2139 C   0  0  0  0  0  0  0  0  0  0  0  0
   -0.0750    0.4301    1.5097 O   0  0  0  0  0  0  0  0  0  0  0  0
    0.5226    1.4365    2.2875 C   0  0  0  0  0  0  0  0  0  0  0  0
   -0.0913    1.4316    3.6725 C   0  0  0  0  0  0  0  0  0  0  0  0
    0.1604    0.1371    4.4343 C   0  0  0  0  0  0  0  0  0  0  0  0
   -0.1142   -1.7227   -0.0191 H   0  0  0  0  0  0  0  0  0  0  0  0
   -1.3176   -0.5625   -0.5977 H   0  0  0  0  0  0  0  0  0  0  0  0
    0.3365    1.2956   -0.3123 H   0  0  0  0  0  0  0  0  0  0  0  0
    1.5396    0.1345    0.2680 H   0  0  0  0  0  0  0  0  0  0  0  0
    1.6083    1.2632    2.3547 H   0  0  0  0  0  0  0  0  0  0  0  0
    0.3770    2.4163    1.8094 H   0  0  0  0  0  0  0  0  0  0  0  0
   -1.1658    1.6078    3.5766 H   0  0  0  0  0  0  0  0  0  0  0  0
    0.3207    2.2800    4.2259 H   0  0  0  0  0  0  0  0  0  0  0  0
    1.2317   -0.0397    4.5587 H   0  0  0  0  0  0  0  0  0  0  0  0
   -0.2596   -0.7140    3.8985 H   0  0  0  0  0  0  0  0  0  0  0  0
   -0.2906    0.1718    5.4271 H   0  0  0  0  0  0  0  0  0  0  0  0
  1  2  1  0
  1  4  1  0
  1  5  1  0
  1  6  1  0
  2  3  2  3
  2  7  1  0
  3  8  1  0
  9 10  1  0
  9 15  1  0
  9 16  1  0
 10 11  1  0
 10 17  1  0
 10 18  1  0
 11 12  1  0
 12 13  1  0
 12 19  1  0
 12 20  1  0
 13 14  1  0
 13 21  1  0
 13 22  1  0
 14 23  1  0
 14 24  1  0
 14 25  1  0
M  RAD  1   9   2
M  END
>  <reaction>  (8) 
rmg_rxn_16466

>  <mol_properties>  (8) 
{"1": {"label": "*0", "atom_type": "Cd"}, "2": {"label": "*1", "atom_type": "N3d"}, "7": {"label": "*2", "atom_type": "H0"}, "8": {"label": "*3", "atom_type": "Cs"}, "9": {"label": "*4", "atom_type": "Cs"}}

>  <type>  (8) 
unop_4

>  <geom_source>  (8) 
Heuristics

$$$$

     RDKit          3D

 25 23  0  0  0  0  0  0  0  0999 V2000
    1.3682   -0.2654   -4.7883 C   0  0  0  0  0  0  0  0  0  0  0  0
    1.3682   -0.2654   -3.2960 C   0  0  0  0  0  0  0  0  0  0  0  0
    1.3682    0.8072   -2.6283 N   0  0  0  0  0  0  0  0  0  0  0  0
    2.2464   -0.7954   -5.1658 H   0  0  0  0  0  0  0  0  0  0  0  0
    0.4899   -0.7954   -5.1658 H   0  0  0  0  0  0  0  0  0  0  0  0
    1.3682    0.7552   -5.1669 H   0  0  0  0  0  0  0  0  0  0  0  0
    1.3682   -1.2551   -2.8214 H   0  0  0  0  0  0  0  0  0  0  0  0
    1.3682    0.5770   -1.4287 H   0  0  0  0  0  0  0  0  0  0  0  0
    1.3682    0.3303   -0.1428 C   0  0  0  0  0  3  0  0  0  0  0  0
    0.1406   -0.4644    0.2379 C   0  0  0  0  0  0  0  0  0  0  0  0
   -0.2398   -0.1185    1.5452 O   0  0  0  0  0  0  0  0  0  0  0  0
   -1.3794   -0.8076    1.9938 C   0  0  0  0  0  0  0  0  0  0  0  0
   -1.7314   -0.3396    3.3911 C   0  0  0  0  0  0  0  0  0  0  0  0
   -2.1079    1.1348    3.4516 C   0  0  0  0  0  0  0  0  0  0  0  0
    1.1590    1.3998   -0.1015 H   0  0  0  0  0  0  0  0  0  0  0  0
    2.1904    0.1139    0.5401 H   0  0  0  0  0  0  0  0  0  0  0  0
    0.3480   -1.5433    0.1806 H   0  0  0  0  0  0  0  0  0  0  0  0
   -0.6840   -0.2560   -0.4598 H   0  0  0  0  0  0  0  0  0  0  0  0
   -2.2227   -0.6226    1.3097 H   0  0  0  0  0  0  0  0  0  0  0  0
   -1.1880   -1.8907    1.9914 H   0  0  0  0  0  0  0  0  0  0  0  0
   -0.8802   -0.5369    4.0480 H   0  0  0  0  0  0  0  0  0  0  0  0
   -2.5600   -0.9547    3.7529 H   0  0  0  0  0  0  0  0  0  0  0  0
   -2.9734    1.3422    2.8174 H   0  0  0  0  0  0  0  0  0  0  0  0
   -1.2830    1.7583    3.1070 H   0  0  0  0  0  0  0  0  0  0  0  0
   -2.3598    1.4343    4.4700 H   0  0  0  0  0  0  0  0  0  0  0  0
  1  2  1  0
  1  4  1  0
  1  5  1  0
  1  6  1  0
  2  3  2  3
  2  7  1  0
  3  8  1  0
  9 10  1  0
  9 15  1  0
  9 16  1  0
 10 11  1  0
 10 17  1  0
 10 18  1  0
 11 12  1  0
 12 13  1  0
 12 19  1  0
 12 20  1  0
 13 14  1  0
 13 21  1  0
 13 22  1  0
 14 23  1  0
 14 24  1  0
 14 25  1  0
M  RAD  1   9   2
M  END
>  <reaction>  (9) 
rmg_rxn_16466

>  <mol_properties>  (9) 
{"1": {"label": "*0", "atom_type": "Cd"}, "2": {"label": "*1", "atom_type": "N3d"}, "7": {"label": "*2", "atom_type": "H0"}, "8": {"label": "*3", "atom_type": "Cs"}, "9": {"label": "*4", "atom_type": "Cs"}}

>  <type>  (9) 
unop_5

>  <geom_source>  (9) 
Heuristics

$$$$

     RDKit          3D

 25 23  0  0  0  0  0  0  0  0999 V2000
   -0.1550   -1.3093   -5.2158 C   0  0  0  0  0  0  0  0  0  0  0  0
   -0.1550   -1.3093   -3.7234 C   0  0  0  0  0  0  0  0  0  0  0  0
   -0.1550   -0.2367   -3.0558 N   0  0  0  0  0  0  0  0  0  0  0  0
    0.7232   -1.8393   -5.5932 H   0  0  0  0  0  0  0  0  0  0  0  0
   -1.0333   -1.8393   -5.5932 H   0  0  0  0  0  0  0  0  0  0  0  0
   -0.1550   -0.2887   -5.5944 H   0  0  0  0  0  0  0  0  0  0  0  0
   -0.1550   -2.2990   -3.2488 H   0  0  0  0  0  0  0  0  0  0  0  0
   -0.1550   -0.4669   -1.8562 H   0  0  0  0  0  0  0  0  0  0  0  0
   -0.1550   -0.7136   -0.5703 C   0  0  0  0  0  3  0  0  0  0  0  0
   -0.1550    0.5798    0.2111 C   0  0  0  0  0  0  0  0  0  0  0  0
   -0.1558    0.2835    1.5843 O   0  0  0  0  0  0  0  0  0  0  0  0
   -0.1549    1.4276    2.4004 C   0  0  0  0  0  0  0  0  0  0  0  0
   -0.1162    1.0066    3.8552 C   0  0  0  0  0  0  0  0  0  0  0  0
    1.1533    0.2516    4.2263 C   0  0  0  0  0  0  0  0  0  0  0  0
    0.7295   -1.3048   -0.3306 H   0  0  0  0  0  0  0  0  0  0  0  0
   -1.0394   -1.3049   -0.3305 H   0  0  0  0  0  0  0  0  0  0  0  0
   -1.0396    1.1826   -0.0432 H   0  0  0  0  0  0  0  0  0  0  0  0
    0.7302    1.1818   -0.0418 H   0  0  0  0  0  0  0  0  0  0  0  0
    0.7194    2.0551    2.1651 H   0  0  0  0  0  0  0  0  0  0  0  0
   -1.0530    2.0307    2.2018 H   0  0  0  0  0  0  0  0  0  0  0  0
   -0.9940    0.3888    4.0613 H   0  0  0  0  0  0  0  0  0  0  0  0
   -0.2113    1.9070    4.4684 H   0  0  0  0  0  0  0  0  0  0  0  0
    2.0388    0.8668    4.0477 H   0  0  0  0  0  0  0  0  0  0  0  0
    1.2506   -0.6562    3.6309 H   0  0  0  0  0  0  0  0  0  0  0  0
    1.1486   -0.0303    5.2802 H   0  0  0  0  0  0  0  0  0  0  0  0
  1  2  1  0
  1  4  1  0
  1  5  1  0
  1  6  1  0
  2  3  2  3
  2  7  1  0
  3  8  1  0
  9 10  1  0
  9 15  1  0
  9 16  1  0
 10 11  1  0
 10 17  1  0
 10 18  1  0
 11 12  1  0
 12 13  1  0
 12 19  1  0
 12 20  1  0
 13 14  1  0
 13 21  1  0
 13 22  1  0
 14 23  1  0
 14 24  1  0
 14 25  1  0
M  RAD  1   9   2
M  END
>  <reaction>  (10) 
rmg_rxn_16466

>  <mol_properties>  (10) 
{"1": {"label": "*0", "atom_type": "Cd"}, "2": {"label": "*1", "atom_type": "N3d"}, "7": {"label": "*2", "atom_type": "H0"}, "8": {"label": "*3", "atom_type": "Cs"}, "9": {"label": "*4", "atom_type": "Cs"}}

>  <type>  (10) 
unop_6

>  <geom_source>  (10) 
Heuristics

$$$$

     RDKit          3D

 25 23  0  0  0  0  0  0  0  0999 V2000
    1.2189   -1.0516   -4.8483 C   0  0  0  0  0  0  0  0  0  0  0  0
    1.2189   -1.0516   -3.3560 C   0  0  0  0  0  0  0  0  0  0  0  0
    1.2189    0.0210   -2.6883 N   0  0  0  0  0  0  0  0  0  0  0  0
    2.0972   -1.5816   -5.2257 H   0  0  0  0  0  0  0  0  0  0  0  0
    0.3407   -1.5816   -5.2257 H   0  0  0  0  0  0  0  0  0  0  0  0
    1.2189   -0.0310   -5.2269 H   0  0  0  0  0  0  0  0  0  0  0  0
    1.2189   -2.0413   -2.8813 H   0  0  0  0  0  0  0  0  0  0  0  0
    1.2189   -0.2091   -1.4887 H   0  0  0  0  0  0  0  0  0  0  0  0
    1.2189   -0.4559   -0.2028 C   0  0  0  0  0  3  0  0  0  0  0  0
   -0.1986   -0.5545    0.3114 C   0  0  0  0  0  0  0  0  0  0  0  0
   -0.2695    0.0567    1.5743 O   0  0  0  0  0  0  0  0  0  0  0  0
   -1.5554    0.0176    2.1399 C   0  0  0  0  0  0  0  0  0  0  0  0
   -1.5383    0.7325    3.4755 C   0  0  0  0  0  0  0  0  0  0  0  0
   -1.1996    2.2126    3.3581 C   0  0  0  0  0  0  0  0  0  0  0  0
    1.5211    0.5882   -0.2923 H   0  0  0  0  0  0  0  0  0  0  0  0
    1.9082   -0.9564    0.4782 H   0  0  0  0  0  0  0  0  0  0  0  0
   -0.5079   -1.6076    0.3864 H   0  0  0  0  0  0  0  0  0  0  0  0
   -0.8948   -0.0615   -0.3831 H   0  0  0  0  0  0  0  0  0  0  0  0
   -2.2777    0.4999    1.4623 H   0  0  0  0  0  0  0  0  0  0  0  0
   -1.8763   -1.0263    2.2703 H   0  0  0  0  0  0  0  0  0  0  0  0
   -0.8170    0.2330    4.1274 H   0  0  0  0  0  0  0  0  0  0  0  0
   -2.5220    0.6070    3.9366 H   0  0  0  0  0  0  0  0  0  0  0  0
   -1.9273    2.7299    2.7278 H   0  0  0  0  0  0  0  0  0  0  0  0
   -0.2141    2.3489    2.9130 H   0  0  0  0  0  0  0  0  0  0  0  0
   -1.2019    2.6948    4.3367 H   0  0  0  0  0  0  0  0  0  0  0  0
  1  2  1  0
  1  4  1  0
  1  5  1  0
  1  6  1  0
  2  3  2  3
  2  7  1  0
  3  8  1  0
  9 10  1  0
  9 15  1  0
  9 16  1  0
 10 11  1  0
 10 17  1  0
 10 18  1  0
 11 12  1  0
 12 13  1  0
 12 19  1  0
 12 20  1  0
 13 14  1  0
 13 21  1  0
 13 22  1  0
 14 23  1  0
 14 24  1  0
 14 25  1  0
M  RAD  1   9   2
M  END
>  <reaction>  (11) 
rmg_rxn_16466

>  <mol_properties>  (11) 
{"1": {"label": "*0", "atom_type": "Cd"}, "2": {"label": "*1", "atom_type": "N3d"}, "7": {"label": "*2", "atom_type": "H0"}, "8": {"label": "*3", "atom_type": "Cs"}, "9": {"label": "*4", "atom_type": "Cs"}}

>  <type>  (11) 
unop_7

>  <geom_source>  (11) 
Heuristics

$$$$

     RDKit          3D

 25 23  0  0  0  0  0  0  0  0999 V2000
    0.6645   -1.5509   -4.9411 C   0  0  0  0  0  0  0  0  0  0  0  0
    0.6645   -1.5509   -3.4488 C   0  0  0  0  0  0  0  0  0  0  0  0
    0.6645   -0.4783   -2.7811 N   0  0  0  0  0  0  0  0  0  0  0  0
    1.5428   -2.0809   -5.3185 H   0  0  0  0  0  0  0  0  0  0  0  0
   -0.2137   -2.0809   -5.3185 H   0  0  0  0  0  0  0  0  0  0  0  0
    0.6645   -0.5303   -5.3197 H   0  0  0  0  0  0  0  0  0  0  0  0
    0.6645   -2.5406   -2.9741 H   0  0  0  0  0  0  0  0  0  0  0  0
    0.6645   -0.7084   -1.5815 H   0  0  0  0  0  0  0  0  0  0  0  0
    0.6645   -0.9552   -0.2956 C   0  0  0  0  0  3  0  0  0  0  0  0
   -0.5631   -0.3578    0.3522 C   0  0  0  0  0  0  0  0  0  0  0  0
   -0.2043    0.1827    1.5983 O   0  0  0  0  0  0  0  0  0  0  0  0
   -1.2837    0.7665    2.2831 C   0  0  0  0  0  0  0  0  0  0  0  0
   -0.7910    1.3526    3.5904 C   0  0  0  0  0  0  0  0  0  0  0  0
    0.2158    2.4791    3.3996 C   0  0  0  0  0  0  0  0  0  0  0  0
    1.4289   -0.1914   -0.4428 H   0  0  0  0  0  0  0  0  0  0  0  0
    1.0822   -1.7436    0.3315 H   0  0  0  0  0  0  0  0  0  0  0  0
   -1.3395   -1.1257    0.4858 H   0  0  0  0  0  0  0  0  0  0  0  0
   -0.9917    0.4278   -0.2875 H   0  0  0  0  0  0  0  0  0  0  0  0
   -1.7386    1.5551    1.6629 H   0  0  0  0  0  0  0  0  0  0  0  0
   -2.0604    0.0110    2.4727 H   0  0  0  0  0  0  0  0  0  0  0  0
   -0.3478    0.5499    4.1855 H   0  0  0  0  0  0  0  0  0  0  0  0
   -1.6608    1.7152    4.1452 H   0  0  0  0  0  0  0  0  0  0  0  0
   -0.2220    3.2999    2.8260 H   0  0  0  0  0  0  0  0  0  0  0  0
    1.0941    2.1247    2.8602 H   0  0  0  0  0  0  0  0  0  0  0  0
    0.5436    2.8796    4.3600 H   0  0  0  0  0  0  0  0  0  0  0  0
  1  2  1  0
  1  4  1  0
  1  5  1  0
  1  6  1  0
  2  3  2  3
  2  7  1  0
  3  8  1  0
  9 10  1  0
  9 15  1  0
  9 16  1  0
 10 11  1  0
 10 17  1  0
 10 18  1  0
 11 12  1  0
 12 13  1  0
 12 19  1  0
 12 20  1  0
 13 14  1  0
 13 21  1  0
 13 22  1  0
 14 23  1  0
 14 24  1  0
 14 25  1  0
M  RAD  1   9   2
M  END
>  <reaction>  (12) 
rmg_rxn_16466

>  <mol_properties>  (12) 
{"1": {"label": "*0", "atom_type": "Cd"}, "2": {"label": "*1", "atom_type": "N3d"}, "7": {"label": "*2", "atom_type": "H0"}, "8": {"label": "*3", "atom_type": "Cs"}, "9": {"label": "*4", "atom_type": "Cs"}}

>  <type>  (12) 
unop_8

>  <geom_source>  (12) 
Heuristics

$$$$

     RDKit          3D

 25 23  0  0  0  0  0  0  0  0999 V2000
   -1.1511   -0.7809   -4.9834 C   0  0  0  0  0  0  0  0  0  0  0  0
   -1.1511   -0.7809   -3.4910 C   0  0  0  0  0  0  0  0  0  0  0  0
   -1.1511    0.2917   -2.8233 N   0  0  0  0  0  0  0  0  0  0  0  0
   -0.2728   -1.3109   -5.3608 H   0  0  0  0  0  0  0  0  0  0  0  0
   -2.0294   -1.3109   -5.3608 H   0  0  0  0  0  0  0  0  0  0  0  0
   -1.1511    0.2397   -5.3619 H   0  0  0  0  0  0  0  0  0  0  0  0
   -1.1511   -1.7706   -3.0164 H   0  0  0  0  0  0  0  0  0  0  0  0
   -1.1511    0.0616   -1.6237 H   0  0  0  0  0  0  0  0  0  0  0  0
   -1.1511   -0.1852   -0.3378 C   0  0  0  0  0  3  0  0  0  0  0  0
    0.2664   -0.2838    0.1764 C   0  0  0  0  0  0  0  0  0  0  0  0
    0.3377    0.3288    1.4386 O   0  0  0  0  0  0  0  0  0  0  0  0
    1.6232    0.2881    2.0050 C   0  0  0  0  0  0  0  0  0  0  0  0
    1.5892    0.9353    3.3744 C   0  0  0  0  0  0  0  0  0  0  0  0
    0.6950    0.1985    4.3627 C   0  0  0  0  0  0  0  0  0  0  0  0
   -1.8403   -0.6858    0.3431 H   0  0  0  0  0  0  0  0  0  0  0  0
   -1.4534    0.8588   -0.4272 H   0  0  0  0  0  0  0  0  0  0  0  0
    0.9628    0.2078   -0.5191 H   0  0  0  0  0  0  0  0  0  0  0  0
    0.5752   -1.3368    0.2530 H   0  0  0  0  0  0  0  0  0  0  0  0
    1.9629   -0.7564    2.0889 H   0  0  0  0  0  0  0  0  0  0  0  0
    2.3371    0.8127    1.3530 H   0  0  0  0  0  0  0  0  0  0  0  0
    1.2519    1.9689    3.2616 H   0  0  0  0  0  0  0  0  0  0  0  0
    2.6144    0.9760    3.7525 H   0  0  0  0  0  0  0  0  0  0  0  0
    1.0352   -0.8305    4.5036 H   0  0  0  0  0  0  0  0  0  0  0  0
   -0.3332    0.1649    4.0024 H   0  0  0  0  0  0  0  0  0  0  0  0
    0.6993    0.6888    5.3372 H   0  0  0  0  0  0  0  0  0  0  0  0
  1  2  1  0
  1  4  1  0
  1  5  1  0
  1  6  1  0
  2  3  2  3
  2  7  1  0
  3  8  1  0
  9 10  1  0
  9 15  1  0
  9 16  1  0
 10 11  1  0
 10 17  1  0
 10 18  1  0
 11 12  1  0
 12 13  1  0
 12 19  1  0
 12 20  1  0
 13 14  1  0
 13 21  1  0
 13 22  1  0
 14 23  1  0
 14 24  1  0
 14 25  1  0
M  RAD  1   9   2
M  END
>  <reaction>  (13) 
rmg_rxn_16466

>  <mol_properties>  (13) 
{"1": {"label": "*0", "atom_type": "Cd"}, "2": {"label": "*1", "atom_type": "N3d"}, "7": {"label": "*2", "atom_type": "H0"}, "8": {"label": "*3", "atom_type": "Cs"}, "9": {"label": "*4", "atom_type": "Cs"}}

>  <type>  (13) 
unop_9

>  <geom_source>  (13) 
Heuristics

$$$$

     RDKit          3D

 25 23  0  0  0  0  0  0  0  0999 V2000
    3.0459    1.4840    0.3054 C   0  0  0  0  0  0  0  0  0  0  0  0
    2.1286    0.2974    0.3014 C   0  0  0  0  0  0  0  0  0  0  0  0
    2.1788   -0.5814   -0.5717 N   0  0  0  0  0  0  0  0  0  0  0  0
    2.4534    2.3964    0.2585 H   0  0  0  0  0  0  0  0  0  0  0  0
    3.6156    1.4941    1.2332 H   0  0  0  0  0  0  0  0  0  0  0  0
    3.7250    1.4426   -0.5417 H   0  0  0  0  0  0  0  0  0  0  0  0
    1.4119    0.2846    1.1319 H   0  0  0  0  0  0  0  0  0  0  0  0
    1.3235   -1.4905   -0.4319 H   0  0  0  0  0  0  0  0  0  0  0  0
    0.3871   -2.3509   -0.2111 C   0  0  0  0  0  3  0  0  0  0  0  0
   -0.9212   -1.6174   -0.3196 C   0  0  0  0  0  0  0  0  0  0  0  0
   -0.9593   -0.6099    0.6712 O   0  0  0  0  0  0  0  0  0  0  0  0
   -2.1564    0.1271    0.7279 C   0  0  0  0  0  0  0  0  0  0  0  0
   -2.3474    1.1190   -0.4257 C   0  0  0  0  0  0  0  0  0  0  0  0
   -1.1741    2.0850   -0.5331 C   0  0  0  0  0  0  0  0  0  0  0  0
    0.5740   -2.7267    0.7876 H   0  0  0  0  0  0  0  0  0  0  0  0
    0.5033   -3.1142   -0.9698 H   0  0  0  0  0  0  0  0  0  0  0  0
   -1.7737   -2.3085   -0.1684 H   0  0  0  0  0  0  0  0  0  0  0  0
   -1.0226   -1.1822   -1.3243 H   0  0  0  0  0  0  0  0  0  0  0  0
   -3.0189   -0.5573    0.7716 H   0  0  0  0  0  0  0  0  0  0  0  0
   -2.0993    0.6760    1.6726 H   0  0  0  0  0  0  0  0  0  0  0  0
   -3.2736    1.6679   -0.2451 H   0  0  0  0  0  0  0  0  0  0  0  0
   -2.4618    0.5754   -1.3655 H   0  0  0  0  0  0  0  0  0  0  0  0
   -1.3190    2.7723   -1.3633 H   0  0  0  0  0  0  0  0  0  0  0  0
   -0.2510    1.5331   -0.6950 H   0  0  0  0  0  0  0  0  0  0  0  0
   -1.0741    2.6625    0.3836 H   0  0  0  0  0  0  0  0  0  0  0  0
  1  2  1  0
  1  4  1  0
  1  5  1  0
  1  6  1  0
  2  3  2  3
  2  7  1  0
  3  8  1  0
  9 10  1  0
  9 15  1  0
  9 16  1  0
 10 11  1  0
 10 17  1  0
 10 18  1  0
 11 12  1  0
 12 13  1  0
 12 19  1  0
 12 20  1  0
 13 14  1  0
 13 21  1  0
 13 22  1  0
 14 23  1  0
 14 24  1  0
 14 25  1  0
M  RAD  1   9   2
M  END
>  <reaction>  (14) 
rmg_rxn_16466

>  <mol_properties>  (14) 
{"1": {"label": "*0", "atom_type": "Cd"}, "2": {"label": "*1", "atom_type": "N3d"}, "7": {"label": "*2", "atom_type": "H0"}, "8": {"label": "*3", "atom_type": "Cs"}, "9": {"label": "*4", "atom_type": "Cs"}}

>  <type>  (14) 
unop_10

>  <geom_source>  (14) 
Heuristics

$$$$

     RDKit          3D

 25 23  0  0  0  0  0  0  0  0999 V2000
    0.9786    0.4927   -4.7744 C   0  0  0  0  0  0  0  0  0  0  0  0
    0.9786    0.4927   -3.2821 C   0  0  0  0  0  0  0  0  0  0  0  0
    0.9786    1.5653   -2.6144 N   0  0  0  0  0  0  0  0  0  0  0  0
    1.8569   -0.0373   -5.1518 H   0  0  0  0  0  0  0  0  0  0  0  0
    0.1004   -0.0373   -5.1518 H   0  0  0  0  0  0  0  0  0  0  0  0
    0.9786    1.5133   -5.1530 H   0  0  0  0  0  0  0  0  0  0  0  0
    0.9786   -0.4970   -2.8074 H   0  0  0  0  0  0  0  0  0  0  0  0
    0.9786    1.3351   -1.4148 H   0  0  0  0  0  0  0  0  0  0  0  0
    0.9786    1.0884   -0.1289 C   0  0  0  0  0  3  0  0  0  0  0  0
    0.2699   -0.2159    0.1540 C   0  0  0  0  0  0  0  0  0  0  0  0
   -0.0825   -0.2583    1.5133 O   0  0  0  0  0  0  0  0  0  0  0  0
   -0.7517   -1.4391    1.8779 C   0  0  0  0  0  0  0  0  0  0  0  0
   -1.1225   -1.3732    3.3454 C   0  0  0  0  0  0  0  0  0  0  0  0
   -2.0967   -0.2477    3.6667 C   0  0  0  0  0  0  0  0  0  0  0  0
    0.3287    1.9339    0.0996 H   0  0  0  0  0  0  0  0  0  0  0  0
    1.8800    1.1732    0.4791 H   0  0  0  0  0  0  0  0  0  0  0  0
    0.9206   -1.0682   -0.0916 H   0  0  0  0  0  0  0  0  0  0  0  0
   -0.6316   -0.3068   -0.4698 H   0  0  0  0  0  0  0  0  0  0  0  0
   -1.6582   -1.5609    1.2641 H   0  0  0  0  0  0  0  0  0  0  0  0
   -0.1076   -2.3098    1.6861 H   0  0  0  0  0  0  0  0  0  0  0  0
   -0.2065   -1.2550    3.9299 H   0  0  0  0  0  0  0  0  0  0  0  0
   -1.5554   -2.3373    3.6263 H   0  0  0  0  0  0  0  0  0  0  0  0
   -3.0277   -0.3665    3.1067 H   0  0  0  0  0  0  0  0  0  0  0  0
   -1.6690    0.7198    3.4042 H   0  0  0  0  0  0  0  0  0  0  0  0
   -2.3447   -0.2344    4.7291 H   0  0  0  0  0  0  0  0  0  0  0  0
  1  2  1  0
  1  4  1  0
  1  5  1  0
  1  6  1  0
  2  3  2  3
  2  7  1  0
  3  8  1  0
  9 10  1  0
  9 15  1  0
  9 16  1  0
 10 11  1  0
 10 17  1  0
 10 18  1  0
 11 12  1  0
 12 13  1  0
 12 19  1  0
 12 20  1  0
 13 14  1  0
 13 21  1  0
 13 22  1  0
 14 23  1  0
 14 24  1  0
 14 25  1  0
M  RAD  1   9   2
M  END
>  <reaction>  (15) 
rmg_rxn_16466

>  <mol_properties>  (15) 
{"1": {"label": "*0", "atom_type": "Cd"}, "2": {"label": "*1", "atom_type": "N3d"}, "7": {"label": "*2", "atom_type": "H0"}, "8": {"label": "*3", "atom_type": "Cs"}, "9": {"label": "*4", "atom_type": "Cs"}}

>  <type>  (15) 
unop_11

>  <geom_source>  (15) 
Heuristics

$$$$

     RDKit          3D

 25 23  0  0  0  0  0  0  0  0999 V2000
   -1.1874   -0.0400   -4.9008 C   0  0  0  0  0  0  0  0  0  0  0  0
   -1.1874   -0.0400   -3.4084 C   0  0  0  0  0  0  0  0  0  0  0  0
   -1.1874    1.0326   -2.7407 N   0  0  0  0  0  0  0  0  0  0  0  0
   -0.3091   -0.5700   -5.2782 H   0  0  0  0  0  0  0  0  0  0  0  0
   -2.0657   -0.5700   -5.2782 H   0  0  0  0  0  0  0  0  0  0  0  0
   -1.1874    0.9806   -5.2794 H   0  0  0  0  0  0  0  0  0  0  0  0
   -1.1874   -1.0297   -2.9338 H   0  0  0  0  0  0  0  0  0  0  0  0
   -1.1874    0.8024   -1.5412 H   0  0  0  0  0  0  0  0  0  0  0  0
   -1.1874    0.5557   -0.2553 C   0  0  0  0  0  3  0  0  0  0  0  0
    0.0402   -0.2390    0.1254 C   0  0  0  0  0  0  0  0  0  0  0  0
    0.4214    0.1081    1.4322 O   0  0  0  0  0  0  0  0  0  0  0  0
    1.5601   -0.5823    1.8815 C   0  0  0  0  0  0  0  0  0  0  0  0
    1.8669   -0.1707    3.3069 C   0  0  0  0  0  0  0  0  0  0  0  0
    0.7629   -0.5421    4.2880 C   0  0  0  0  0  0  0  0  0  0  0  0
   -2.0097    0.3391    0.4276 H   0  0  0  0  0  0  0  0  0  0  0  0
   -0.9783    1.6252   -0.2138 H   0  0  0  0  0  0  0  0  0  0  0  0
    0.8643   -0.0318   -0.5733 H   0  0  0  0  0  0  0  0  0  0  0  0
   -0.1676   -1.3178    0.0698 H   0  0  0  0  0  0  0  0  0  0  0  0
    1.3838   -1.6685    1.8314 H   0  0  0  0  0  0  0  0  0  0  0  0
    2.4161   -0.3596    1.2277 H   0  0  0  0  0  0  0  0  0  0  0  0
    2.0395    0.9084    3.3271 H   0  0  0  0  0  0  0  0  0  0  0  0
    2.8065   -0.6474    3.5996 H   0  0  0  0  0  0  0  0  0  0  0  0
    0.5958   -1.6221    4.2960 H   0  0  0  0  0  0  0  0  0  0  0  0
   -0.1755   -0.0600    4.0139 H   0  0  0  0  0  0  0  0  0  0  0  0
    1.0202   -0.2359    5.3030 H   0  0  0  0  0  0  0  0  0  0  0  0
  1  2  1  0
  1  4  1  0
  1  5  1  0
  1  6  1  0
  2  3  2  3
  2  7  1  0
  3  8  1  0
  9 10  1  0
  9 15  1  0
  9 16  1  0
 10 11  1  0
 10 17  1  0
 10 18  1  0
 11 12  1  0
 12 13  1  0
 12 19  1  0
 12 20  1  0
 13 14  1  0
 13 21  1  0
 13 22  1  0
 14 23  1  0
 14 24  1  0
 14 25  1  0
M  RAD  1   9   2
M  END
>  <reaction>  (16) 
rmg_rxn_16466

>  <mol_properties>  (16) 
{"1": {"label": "*0", "atom_type": "Cd"}, "2": {"label": "*1", "atom_type": "N3d"}, "7": {"label": "*2", "atom_type": "H0"}, "8": {"label": "*3", "atom_type": "Cs"}, "9": {"label": "*4", "atom_type": "Cs"}}

>  <type>  (16) 
unop_12

>  <geom_source>  (16) 
Heuristics

$$$$

     RDKit          3D

 25 23  0  0  0  0  0  0  0  0999 V2000
    0.0380   -1.5687   -5.0757 C   0  0  0  0  0  0  0  0  0  0  0  0
    0.0380   -1.5687   -3.5834 C   0  0  0  0  0  0  0  0  0  0  0  0
    0.0380   -0.4960   -2.9157 N   0  0  0  0  0  0  0  0  0  0  0  0
    0.9163   -2.0987   -5.4531 H   0  0  0  0  0  0  0  0  0  0  0  0
   -0.8402   -2.0987   -5.4531 H   0  0  0  0  0  0  0  0  0  0  0  0
    0.0380   -0.5481   -5.4543 H   0  0  0  0  0  0  0  0  0  0  0  0
    0.0380   -2.5584   -3.1087 H   0  0  0  0  0  0  0  0  0  0  0  0
    0.0380   -0.7262   -1.7161 H   0  0  0  0  0  0  0  0  0  0  0  0
    0.0380   -0.9729   -0.4302 C   0  0  0  0  0  3  0  0  0  0  0  0
   -0.6707    0.1340    0.3154 C   0  0  0  0  0  0  0  0  0  0  0  0
   -0.1369    0.2257    1.6116 O   0  0  0  0  0  0  0  0  0  0  0  0
   -0.7333    1.2333    2.3888 C   0  0  0  0  0  0  0  0  0  0  0  0
   -0.0667    1.2792    3.7486 C   0  0  0  0  0  0  0  0  0  0  0  0
    1.4087    1.6501    3.6797 C   0  0  0  0  0  0  0  0  0  0  0  0
    1.1067   -0.7658   -0.4964 H   0  0  0  0  0  0  0  0  0  0  0  0
   -0.0966   -1.9260    0.0824 H   0  0  0  0  0  0  0  0  0  0  0  0
   -1.7509   -0.0681    0.3679 H   0  0  0  0  0  0  0  0  0  0  0  0
   -0.5461    1.0925   -0.2098 H   0  0  0  0  0  0  0  0  0  0  0  0
   -0.6296    2.2069    1.8840 H   0  0  0  0  0  0  0  0  0  0  0  0
   -1.8096    1.0349    2.4984 H   0  0  0  0  0  0  0  0  0  0  0  0
   -0.1866    0.3038    4.2270 H   0  0  0  0  0  0  0  0  0  0  0  0
   -0.6083    2.0028    4.3642 H   0  0  0  0  0  0  0  0  0  0  0  0
    1.5421    2.6348    3.2247 H   0  0  0  0  0  0  0  0  0  0  0  0
    1.9611    0.9265    3.0802 H   0  0  0  0  0  0  0  0  0  0  0  0
    1.8533    1.6786    4.6756 H   0  0  0  0  0  0  0  0  0  0  0  0
  1  2  1  0
  1  4  1  0
  1  5  1  0
  1  6  1  0
  2  3  2  3
  2  7  1  0
  3  8  1  0
  9 10  1  0
  9 15  1  0
  9 16  1  0
 10 11  1  0
 10 17  1  0
 10 18  1  0
 11 12  1  0
 12 13  1  0
 12 19  1  0
 12 20  1  0
 13 14  1  0
 13 21  1  0
 13 22  1  0
 14 23  1  0
 14 24  1  0
 14 25  1  0
M  RAD  1   9   2
M  END
>  <reaction>  (17) 
rmg_rxn_16466

>  <mol_properties>  (17) 
{"1": {"label": "*0", "atom_type": "Cd"}, "2": {"label": "*1", "atom_type": "N3d"}, "7": {"label": "*2", "atom_type": "H0"}, "8": {"label": "*3", "atom_type": "Cs"}, "9": {"label": "*4", "atom_type": "Cs"}}

>  <type>  (17) 
unop_13

>  <geom_source>  (17) 
Heuristics

$$$$

     RDKit          3D

 25 23  0  0  0  0  0  0  0  0999 V2000
    0.1550    0.8583   -4.7999 C   0  0  0  0  0  0  0  0  0  0  0  0
    0.1550    0.8583   -3.3075 C   0  0  0  0  0  0  0  0  0  0  0  0
    0.1550    1.9309   -2.6399 N   0  0  0  0  0  0  0  0  0  0  0  0
    1.0333    0.3283   -5.1773 H   0  0  0  0  0  0  0  0  0  0  0  0
   -0.7232    0.3283   -5.1773 H   0  0  0  0  0  0  0  0  0  0  0  0
    0.1550    1.8789   -5.1785 H   0  0  0  0  0  0  0  0  0  0  0  0
    0.1550   -0.1314   -2.8329 H   0  0  0  0  0  0  0  0  0  0  0  0
    0.1550    1.7007   -1.4403 H   0  0  0  0  0  0  0  0  0  0  0  0
    0.1550    1.4540   -0.1544 C   0  0  0  0  0  3  0  0  0  0  0  0
    0.1550   -0.0368    0.0928 C   0  0  0  0  0  0  0  0  0  0  0  0
    0.1558   -0.2697    1.4782 O   0  0  0  0  0  0  0  0  0  0  0  0
    0.1549   -1.6347    1.8128 C   0  0  0  0  0  0  0  0  0  0  0  0
    0.1162   -1.7820    3.3201 C   0  0  0  0  0  0  0  0  0  0  0  0
   -1.1533   -1.2180    3.9443 C   0  0  0  0  0  0  0  0  0  0  0  0
   -0.7295    1.9145    0.2871 H   0  0  0  0  0  0  0  0  0  0  0  0
    1.0394    1.9145    0.2872 H   0  0  0  0  0  0  0  0  0  0  0  0
    1.0396   -0.5026   -0.3665 H   0  0  0  0  0  0  0  0  0  0  0  0
   -0.7302   -0.5024   -0.3650 H   0  0  0  0  0  0  0  0  0  0  0  0
   -0.7194   -2.1305    1.3620 H   0  0  0  0  0  0  0  0  0  0  0  0
    1.0530   -2.1214    1.4051 H   0  0  0  0  0  0  0  0  0  0  0  0
    0.9940   -1.2843    3.7402 H   0  0  0  0  0  0  0  0  0  0  0  0
    0.2113   -2.8454    3.5565 H   0  0  0  0  0  0  0  0  0  0  0  0
   -2.0388   -1.7234    3.5507 H   0  0  0  0  0  0  0  0  0  0  0  0
   -1.2506   -0.1543    3.7272 H   0  0  0  0  0  0  0  0  0  0  0  0
   -1.1487   -1.3462    5.0277 H   0  0  0  0  0  0  0  0  0  0  0  0
  1  2  1  0
  1  4  1  0
  1  5  1  0
  1  6  1  0
  2  3  2  3
  2  7  1  0
  3  8  1  0
  9 10  1  0
  9 15  1  0
  9 16  1  0
 10 11  1  0
 10 17  1  0
 10 18  1  0
 11 12  1  0
 12 13  1  0
 12 19  1  0
 12 20  1  0
 13 14  1  0
 13 21  1  0
 13 22  1  0
 14 23  1  0
 14 24  1  0
 14 25  1  0
M  RAD  1   9   2
M  END
>  <reaction>  (18) 
rmg_rxn_16466

>  <mol_properties>  (18) 
{"1": {"label": "*0", "atom_type": "Cd"}, "2": {"label": "*1", "atom_type": "N3d"}, "7": {"label": "*2", "atom_type": "H0"}, "8": {"label": "*3", "atom_type": "Cs"}, "9": {"label": "*4", "atom_type": "Cs"}}

>  <type>  (18) 
unop_14

>  <geom_source>  (18) 
Heuristics

$$$$

     RDKit          3D

 25 23  0  0  0  0  0  0  0  0999 V2000
   -0.7067    0.6260   -4.8409 C   0  0  0  0  0  0  0  0  0  0  0  0
   -0.7067    0.6260   -3.3486 C   0  0  0  0  0  0  0  0  0  0  0  0
   -0.7067    1.6986   -2.6809 N   0  0  0  0  0  0  0  0  0  0  0  0
    0.1715    0.0960   -5.2183 H   0  0  0  0  0  0  0  0  0  0  0  0
   -1.5850    0.0960   -5.2183 H   0  0  0  0  0  0  0  0  0  0  0  0
   -0.7067    1.6466   -5.2195 H   0  0  0  0  0  0  0  0  0  0  0  0
   -0.7067   -0.3637   -2.8739 H   0  0  0  0  0  0  0  0  0  0  0  0
   -0.7067    1.4685   -1.4813 H   0  0  0  0  0  0  0  0  0  0  0  0
   -0.7067    1.2217   -0.1954 C   0  0  0  0  0  3  0  0  0  0  0  0
    0.0020   -0.0826    0.0875 C   0  0  0  0  0  0  0  0  0  0  0  0
    0.3557   -0.1243    1.4464 O   0  0  0  0  0  0  0  0  0  0  0  0
    1.0234   -1.3058    1.8115 C   0  0  0  0  0  0  0  0  0  0  0  0
    1.3262   -1.2733    3.2955 C   0  0  0  0  0  0  0  0  0  0  0  0
    0.0739   -1.2396    4.1615 C   0  0  0  0  0  0  0  0  0  0  0  0
   -1.6082    1.3064    0.4125 H   0  0  0  0  0  0  0  0  0  0  0  0
   -0.0569    2.0672    0.0332 H   0  0  0  0  0  0  0  0  0  0  0  0
    0.9027   -0.1741   -0.5376 H   0  0  0  0  0  0  0  0  0  0  0  0
   -0.6492   -0.9349   -0.1565 H   0  0  0  0  0  0  0  0  0  0  0  0
    0.3965   -2.1796    1.5727 H   0  0  0  0  0  0  0  0  0  0  0  0
    1.9546   -1.4041    1.2344 H   0  0  0  0  0  0  0  0  0  0  0  0
    1.9499   -0.4001    3.5035 H   0  0  0  0  0  0  0  0  0  0  0  0
    1.9261   -2.1556    3.5356 H   0  0  0  0  0  0  0  0  0  0  0  0
   -0.5482   -2.1199    3.9813 H   0  0  0  0  0  0  0  0  0  0  0  0
   -0.5244   -0.3557    3.9407 H   0  0  0  0  0  0  0  0  0  0  0  0
    0.3301   -1.2223    5.2218 H   0  0  0  0  0  0  0  0  0  0  0  0
  1  2  1  0
  1  4  1  0
  1  5  1  0
  1  6  1  0
  2  3  2  3
  2  7  1  0
  3  8  1  0
  9 10  1  0
  9 15  1  0
  9 16  1  0
 10 11  1  0
 10 17  1  0
 10 18  1  0
 11 12  1  0
 12 13  1  0
 12 19  1  0
 12 20  1  0
 13 14  1  0
 13 21  1  0
 13 22  1  0
 14 23  1  0
 14 24  1  0
 14 25  1  0
M  RAD  1   9   2
M  END
>  <reaction>  (19) 
rmg_rxn_16466

>  <mol_properties>  (19) 
{"1": {"label": "*0", "atom_type": "Cd"}, "2": {"label": "*1", "atom_type": "N3d"}, "7": {"label": "*2", "atom_type": "H0"}, "8": {"label": "*3", "atom_type": "Cs"}, "9": {"label": "*4", "atom_type": "Cs"}}

>  <type>  (19) 
unop_15

>  <geom_source>  (19) 
gaussian_log

$$$$
