
     RDKit          3D

 17 16  0  0  0  0  0  0  0  0999 V2000
    3.1099   -1.8290   -0.4133 C   0  0  0  0  0  0  0  0  0  0  0  0
    3.2191   -0.3608   -0.6746 C   0  0  0  0  0  0  0  0  0  0  0  0
    2.3786    0.5666   -0.2369 C   0  0  0  0  0  0  0  0  0  0  0  0
    1.2672    0.2611    0.4868 O   0  0  0  0  0  0  0  0  0  0  0  0
    0.8726    1.3903    1.3069 N   0  0  0  0  0  0  0  0  0  0  0  0
    1.4437    1.2702    2.5675 N   0  0  0  0  0  0  0  0  0  0  0  0
   -0.5688    1.2617    1.4132 C   0  0  0  0  0  0  0  0  0  0  0  0
    2.8525   -2.3739   -1.3257 H   0  0  0  0  0  0  0  0  0  0  0  0
    2.3430   -2.0431    0.3302 H   0  0  0  0  0  0  0  0  0  0  0  0
    4.0609   -2.2324   -0.0579 H   0  0  0  0  0  0  0  0  0  0  0  0
    4.0336   -0.0133   -1.2988 H   0  0  0  0  0  0  0  0  0  0  0  0
    2.4961    1.6238   -0.4474 H   0  0  0  0  0  0  0  0  0  0  0  0
    1.3456    0.3206    2.9243 H   0  0  0  0  0  0  0  0  0  0  0  0
    2.4253    1.5018    2.5027 H   0  0  0  0  0  0  0  0  0  0  0  0
   -0.8613    0.3089    1.8737 H   0  0  0  0  0  0  0  0  0  0  0  0
   -0.9985    1.3247    0.4163 H   0  0  0  0  0  0  0  0  0  0  0  0
   -0.9281    2.0857    2.0250 H   0  0  0  0  0  0  0  0  0  0  0  0
  1  2  1  0
  1  8  1  0
  1  9  1  0
  1 10  1  0
  2  3  2  3
  2 11  1  0
  3  4  1  0
  3 12  1  0
  4  5  1  0
  5  7  1  0
  5  6  1  0
  6 13  1  0
  6 14  1  0
  7 15  1  0
  7 16  1  0
  7 17  1  0
M  END
>  <reaction>  (1) 
rmg_rxn_15711

>  <mol_properties>  (1) 
{"5": {"label": "donator", "atom_type": "N3s"}, "12": {"label": "d_hydrogen", "atom_type": "H0"}}

>  <type>  (1) 
r1h

$$$$

     RDKit          3D

  8  7  0  0  0  0  0  0  0  0999 V2000
    1.7077   -0.1964   -0.0607 C   0  0  0  0  0  3  0  0  0  0  0  0
    0.4209   -0.4565    0.2808 O   0  0  0  0  0  0  0  0  0  0  0  0
   -0.4607    0.4385   -0.2968 N   0  0  0  0  0  0  0  0  0  0  0  0
   -1.6584    0.1416   -0.0244 C   0  0  0  0  0  0  0  0  0  0  0  0
    2.4163   -0.7685    0.5170 H   0  0  0  0  0  0  0  0  0  0  0  0
    1.9214    0.7645   -0.5045 H   0  0  0  0  0  0  0  0  0  0  0  0
   -2.4185    0.7953   -0.4307 H   0  0  0  0  0  0  0  0  0  0  0  0
   -1.9286   -0.7185    0.5831 H   0  0  0  0  0  0  0  0  0  0  0  0
  1  2  1  0
  1  5  1  0
  1  6  1  0
  2  3  1  0
  3  4  2  3
  4  7  1  0
  4  8  1  0
M  RAD  1   1   2
M  END
>  <reaction>  (2) 
rmg_rxn_15711

>  <mol_properties>  (2) 
{"0": {"label": "acceptor", "atom_type": "Cs"}}

>  <type>  (2) 
r2

$$$$

     RDKit          3D

  9  8  0  0  0  0  0  0  0  0999 V2000
   -1.5470   -0.0755   -0.1976 C   0  0  0  0  0  0  0  0  0  0  0  0
   -0.2885    0.4507    0.1749 O   0  0  0  0  0  0  0  0  0  0  0  0
   -0.1502    1.7216   -0.3294 N   0  0  0  0  0  0  0  0  0  0  0  0
    0.9626    2.2353   -0.0219 C   0  0  0  0  0  0  0  0  0  0  0  0
   -1.6392   -0.1356   -1.2844 H   0  0  0  0  0  0  0  0  0  0  0  0
   -2.3597    0.5337    0.2044 H   0  0  0  0  0  0  0  0  0  0  0  0
   -1.5879   -1.0750    0.2318 H   0  0  0  0  0  0  0  0  0  0  0  0
    1.1497    3.2381   -0.3820 H   0  0  0  0  0  0  0  0  0  0  0  0
    1.7060    1.7101    0.5739 H   0  0  0  0  0  0  0  0  0  0  0  0
  1  2  1  0
  1  5  1  0
  1  6  1  0
  1  7  1  0
  2  3  1  0
  3  4  2  3
  4  8  1  0
  4  9  1  0
M  END
>  <reaction>  (3) 
rmg_rxn_15711

>  <mol_properties>  (3) 
{"0": {"label": "acceptor", "atom_type": "Cs"}, "8": {"label": "a_hydrogen", "atom_type": "H0"}}

>  <type>  (3) 
r2h

$$$$

     RDKit          3D

 25 23  0  0  0  0  0  0  0  0999 V2000
   -2.0768   -0.1409    0.9539 C   0  0  0  0  0  3  0  0  0  0  0  0
   -1.4841   -1.3229    0.5544 O   0  0  0  0  0  0  0  0  0  0  0  0
   -1.6098   -1.5042   -0.8071 N   0  0  0  0  0  0  0  0  0  0  0  0
   -0.9463   -2.5015   -1.2071 C   0  0  0  0  0  0  0  0  0  0  0  0
   -2.9980    0.0824    0.4165 H   0  0  0  0  0  0  0  0  0  0  0  0
   -2.1711   -0.1516    2.0369 H   0  0  0  0  0  0  0  0  0  0  0  0
   -0.9982   -2.7217   -2.2648 H   0  0  0  0  0  0  0  0  0  0  0  0
   -0.3472   -3.1154   -0.5394 H   0  0  0  0  0  0  0  0  0  0  0  0
    2.1848   -1.5412    0.9703 C   0  0  0  0  0  0  0  0  0  0  0  0
    2.7869   -0.2127    0.6407 C   0  0  0  0  0  0  0  0  0  0  0  0
    2.1928    0.7401   -0.0650 C   0  0  0  0  0  0  0  0  0  0  0  0
    0.9660    0.5607   -0.6264 O   0  0  0  0  0  0  0  0  0  0  0  0
    0.2216    1.8111   -0.6075 N   0  0  0  0  0  0  0  0  0  0  0  0
   -0.5200    1.9392    0.5241 N   0  0  0  0  0  0  0  0  0  0  0  0
   -0.6126    1.7769   -1.7940 C   0  0  0  0  0  0  0  0  0  0  0  0
    2.6001   -2.3327    0.3393 H   0  0  0  0  0  0  0  0  0  0  0  0
    1.1042   -1.5247    0.8282 H   0  0  0  0  0  0  0  0  0  0  0  0
    2.3949   -1.8150    2.0062 H   0  0  0  0  0  0  0  0  0  0  0  0
    3.7980   -0.0093    0.9726 H   0  0  0  0  0  0  0  0  0  0  0  0
    2.6482    1.7032   -0.2697 H   0  0  0  0  0  0  0  0  0  0  0  0
   -1.2678    0.9655    0.6872 H   0  0  0  0  0  0  0  0  0  0  0  0
    0.1203    1.8903    1.3143 H   0  0  0  0  0  0  0  0  0  0  0  0
    0.0312    1.7230   -2.6688 H   0  0  0  0  0  0  0  0  0  0  0  0
   -1.1877    2.6996   -1.8143 H   0  0  0  0  0  0  0  0  0  0  0  0
   -1.2877    0.9140   -1.7819 H   0  0  0  0  0  0  0  0  0  0  0  0
  1  2  1  0
  1  5  1  0
  1  6  1  0
  2  3  1  0
  3  4  2  3
  4  7  1  0
  4  8  1  0
  9 10  1  0
  9 16  1  0
  9 17  1  0
  9 18  1  0
 10 11  2  3
 10 19  1  0
 11 12  1  0
 11 20  1  0
 12 13  1  0
 13 15  1  0
 13 14  1  0
 14 21  1  0
 14 22  1  0
 15 23  1  0
 15 24  1  0
 15 25  1  0
M  RAD  1   1   2
M  END
>  <reaction>  (4) 
rmg_rxn_15711

>  <mol_properties>  (4) 
{"0": {"label": "*3", "atom_type": "Cs"}, "1": {"label": "*4", "atom_type": "O2s"}, "12": {"label": "*0", "atom_type": "N3s"}, "13": {"label": "*1", "atom_type": "N3s"}, "20": {"label": "*2", "atom_type": "H0"}}

>  <type>  (4) 
ts

$$$$

     RDKit          3D

 25 23  0  0  0  0  0  0  0  0999 V2000
   -2.7417    0.1871    0.6460 C   0  0  0  0  0  3  0  0  0  0  0  0
   -2.0993   -1.0546    0.6092 O   0  0  0  0  0  0  0  0  0  0  0  0
   -1.5374   -1.3121   -0.6213 N   0  0  0  0  0  0  0  0  0  0  0  0
   -0.8930   -2.3919   -0.7242 C   0  0  0  0  0  0  0  0  0  0  0  0
   -3.3769    0.3579   -0.2220 H   0  0  0  0  0  0  0  0  0  0  0  0
   -3.2895    0.2283    1.5815 H   0  0  0  0  0  0  0  0  0  0  0  0
   -0.4492   -2.5984   -1.6818 H   0  0  0  0  0  0  0  0  0  0  0  0
   -0.7696   -3.1088    0.0818 H   0  0  0  0  0  0  0  0  0  0  0  0
    2.6949   -1.6913    0.5011 C   0  0  0  0  0  0  0  0  0  0  0  0
    3.0772   -0.3047    0.0990 C   0  0  0  0  0  0  0  0  0  0  0  0
    2.2249    0.7068    0.0195 C   0  0  0  0  0  0  0  0  0  0  0  0
    0.9027    0.5666    0.3204 O   0  0  0  0  0  0  0  0  0  0  0  0
    0.0971    1.7083   -0.1299 N   0  0  0  0  0  0  0  0  0  0  0  0
   -0.9127    1.9903    0.6749 N   0  0  0  0  0  0  0  0  0  0  0  0
   -0.2770    1.5302   -1.5151 C   0  0  0  0  0  0  0  0  0  0  0  0
    3.1641   -1.9568    1.4483 H   0  0  0  0  0  0  0  0  0  0  0  0
    3.0276   -2.4089   -0.2484 H   0  0  0  0  0  0  0  0  0  0  0  0
    1.6163   -1.7612    0.6113 H   0  0  0  0  0  0  0  0  0  0  0  0
    4.1173   -0.1198   -0.1195 H   0  0  0  0  0  0  0  0  0  0  0  0
    2.5250    1.7061   -0.2731 H   0  0  0  0  0  0  0  0  0  0  0  0
   -1.8653    1.1328    0.6601 H   0  0  0  0  0  0  0  0  0  0  0  0
   -0.5907    2.0290    1.6384 H   0  0  0  0  0  0  0  0  0  0  0  0
   -0.8527    0.6072   -1.6515 H   0  0  0  0  0  0  0  0  0  0  0  0
    0.6293    1.4876   -2.1167 H   0  0  0  0  0  0  0  0  0  0  0  0
   -0.8750    2.3914   -1.8017 H   0  0  0  0  0  0  0  0  0  0  0  0
  1  2  1  0
  1  5  1  0
  1  6  1  0
  2  3  1  0
  3  4  2  3
  4  7  1  0
  4  8  1  0
  9 10  1  0
  9 16  1  0
  9 17  1  0
  9 18  1  0
 10 11  2  3
 10 19  1  0
 11 12  1  0
 11 20  1  0
 12 13  1  0
 13 15  1  0
 13 14  1  0
 14 21  1  0
 14 22  1  0
 15 23  1  0
 15 24  1  0
 15 25  1  0
M  RAD  1   1   2
M  END
>  <reaction>  (5) 
rmg_rxn_15711

>  <mol_properties>  (5) 
{"0": {"label": "*3", "atom_type": "Cs"}, "1": {"label": "*4", "atom_type": "O2s"}, "12": {"label": "*0", "atom_type": "N3s"}, "13": {"label": "*1", "atom_type": "N3s"}, "20": {"label": "*2", "atom_type": "H0"}}

>  <type>  (5) 
unop_1

>  <geom_source>  (5) 
crest_best.xyz

$$$$

     RDKit          3D

 25 23  0  0  0  0  0  0  0  0999 V2000
   -0.7487    1.3143   -0.9225 C   0  0  0  0  0  3  0  0  0  0  0  0
   -1.5965    0.2558   -1.3231 O   0  0  0  0  0  0  0  0  0  0  0  0
   -2.4805    0.7053   -2.2747 N   0  0  0  0  0  0  0  0  0  0  0  0
   -3.2617   -0.2079   -2.6652 C   0  0  0  0  0  0  0  0  0  0  0  0
   -0.1674    1.6904   -1.7674 H   0  0  0  0  0  0  0  0  0  0  0  0
   -1.3251    2.1317   -0.4834 H   0  0  0  0  0  0  0  0  0  0  0  0
   -3.9905    0.0659   -3.4163 H   0  0  0  0  0  0  0  0  0  0  0  0
   -3.2175   -1.2230   -2.2764 H   0  0  0  0  0  0  0  0  0  0  0  0
    1.4859   -2.4468   -0.8364 C   0  0  0  0  0  0  0  0  0  0  0  0
    1.4859   -2.4468    0.6589 C   0  0  0  0  0  0  0  0  0  0  0  0
    1.4859   -1.3693    1.4317 C   0  0  0  0  0  0  0  0  0  0  0  0
    1.5292   -0.1073    0.9241 O   0  0  0  0  0  0  0  0  0  0  0  0
    0.9458    0.8339    1.8606 N   0  0  0  0  0  0  0  0  0  0  0  0
   -0.3998    1.0097    1.5641 N   0  0  0  0  0  0  0  0  0  0  0  0
    1.6632    2.0701    1.6105 C   0  0  0  0  0  0  0  0  0  0  0  0
    2.4416   -2.8028   -1.2307 H   0  0  0  0  0  0  0  0  0  0  0  0
    1.3138   -1.4468   -1.2325 H   0  0  0  0  0  0  0  0  0  0  0  0
    0.7120   -3.1127   -1.2251 H   0  0  0  0  0  0  0  0  0  0  0  0
    1.5188   -3.4022    1.1686 H   0  0  0  0  0  0  0  0  0  0  0  0
    1.4831   -1.4135    2.5150 H   0  0  0  0  0  0  0  0  0  0  0  0
   -0.5685    1.1570    0.3618 H   0  0  0  0  0  0  0  0  0  0  0  0
   -0.9101    0.1944    1.8745 H   0  0  0  0  0  0  0  0  0  0  0  0
    1.5437    2.4093    0.5731 H   0  0  0  0  0  0  0  0  0  0  0  0
    2.7187    1.9078    1.8152 H   0  0  0  0  0  0  0  0  0  0  0  0
    1.2656    2.8234    2.2864 H   0  0  0  0  0  0  0  0  0  0  0  0
  1  2  1  0
  1  5  1  0
  1  6  1  0
  2  3  1  0
  3  4  2  3
  4  7  1  0
  4  8  1  0
  9 10  1  0
  9 16  1  0
  9 17  1  0
  9 18  1  0
 10 11  2  3
 10 19  1  0
 11 12  1  0
 11 20  1  0
 12 13  1  0
 13 15  1  0
 13 14  1  0
 14 21  1  0
 14 22  1  0
 15 23  1  0
 15 24  1  0
 15 25  1  0
M  RAD  1   1   2
M  END
>  <reaction>  (6) 
rmg_rxn_15711

>  <mol_properties>  (6) 
{"0": {"label": "*3", "atom_type": "Cs"}, "1": {"label": "*4", "atom_type": "O2s"}, "12": {"label": "*0", "atom_type": "N3s"}, "13": {"label": "*1", "atom_type": "N3s"}, "20": {"label": "*2", "atom_type": "H0"}}

>  <type>  (6) 
unop_2

>  <geom_source>  (6) 
Heuristics

$$$$

     RDKit          3D

 25 23  0  0  0  0  0  0  0  0999 V2000
   -2.3881    0.1711    1.1937 C   0  0  0  0  0  0  0  0  0  0  0  0
   -1.9149   -1.0696    0.7313 O   0  0  0  0  0  0  0  0  0  0  0  0
   -1.8302   -1.1041   -0.6441 N   0  0  0  0  0  0  0  0  0  0  0  0
   -1.3617   -2.1611   -1.1471 C   0  0  0  0  0  0  0  0  0  0  0  0
   -3.2707    0.5048    0.6504 H   0  0  0  0  0  0  0  0  0  0  0  0
   -2.5784    0.0502    2.2555 H   0  0  0  0  0  0  0  0  0  0  0  0
   -1.2923   -2.1929   -2.2198 H   0  0  0  0  0  0  0  0  0  0  0  0
   -1.0344   -3.0202   -0.5698 H   0  0  0  0  0  0  0  0  0  0  0  0
    3.6672   -0.8137   -0.1713 C   0  0  0  0  0  0  0  0  0  0  0  0
    2.5253   -0.8768    0.7863 C   0  0  0  0  0  0  0  0  0  0  0  0
    1.3782   -0.2201    0.6306 C   0  0  0  0  0  0  0  0  0  0  0  0
    1.1234    0.5444   -0.4487 O   0  0  0  0  0  0  0  0  0  0  0  0
    0.1949    1.7089   -0.2792 N   0  0  0  0  0  0  0  0  0  0  0  0
   -0.4731    1.8515    0.8291 N   0  0  0  0  0  2  0  0  0  0  0  0
   -0.5809    1.7852   -1.4903 C   0  0  0  0  0  0  0  0  0  0  0  0
    4.5946   -0.6038    0.3606 H   0  0  0  0  0  0  0  0  0  0  0  0
    3.4915   -0.0390   -0.9124 H   0  0  0  0  0  0  0  0  0  0  0  0
    3.7878   -1.7680   -0.6849 H   0  0  0  0  0  0  0  0  0  0  0  0
    2.6258   -1.5328    1.6370 H   0  0  0  0  0  0  0  0  0  0  0  0
    0.5737   -0.3202    1.3544 H   0  0  0  0  0  0  0  0  0  0  0  0
   -1.4781    1.0560    1.0366 H   0  0  0  0  0  0  0  0  0  0  0  0
    0.1340    1.8436    1.6444 H   0  0  0  0  0  0  0  0  0  0  0  0
   -1.2847    0.9476   -1.5640 H   0  0  0  0  0  0  0  0  0  0  0  0
    0.1085    1.7585   -2.3304 H   0  0  0  0  0  0  0  0  0  0  0  0
   -1.1223    2.7276   -1.4736 H   0  0  0  0  0  0  0  0  0  0  0  0
  1  2  1  0
  1  5  1  0
  1  6  1  0
  1 21  1  0
  2  3  1  0
  3  4  2  3
  4  7  1  0
  4  8  1  0
  9 10  1  0
  9 16  1  0
  9 17  1  0
  9 18  1  0
 10 11  2  3
 10 19  1  0
 11 12  1  0
 11 20  1  0
 12 13  1  0
 13 15  1  0
 13 14  1  0
 14 22  1  0
 15 23  1  0
 15 24  1  0
 15 25  1  0
M  RAD  1  14   2
M  END
>  <reaction>  (7) 
rmg_rxn_15711

>  <mol_properties>  (7) 
{"0": {"label": "*3", "atom_type": "Cs"}, "1": {"label": "*4", "atom_type": "O2s"}, "12": {"label": "*0", "atom_type": "N3s"}, "13": {"label": "*1", "atom_type": "N3s"}, "20": {"label": "*2", "atom_type": "H0"}}

>  <type>  (7) 
unop_3

>  <geom_source>  (7) 
Heuristics

$$$$

     RDKit          3D

 25 23  0  0  0  0  0  0  0  0999 V2000
   -2.7415    0.1975    0.6470 C   0  0  0  0  0  3  0  0  0  0  0  0
   -2.1051   -1.0473    0.6116 O   0  0  0  0  0  0  0  0  0  0  0  0
   -1.5464   -1.3099   -0.6192 N   0  0  0  0  0  0  0  0  0  0  0  0
   -0.9084   -2.3935   -0.7214 C   0  0  0  0  0  0  0  0  0  0  0  0
   -3.3761    0.3703   -0.2211 H   0  0  0  0  0  0  0  0  0  0  0  0
   -3.2888    0.2426    1.5825 H   0  0  0  0  0  0  0  0  0  0  0  0
   -0.4672   -2.6039   -1.6794 H   0  0  0  0  0  0  0  0  0  0  0  0
   -0.7875   -3.1097    0.0856 H   0  0  0  0  0  0  0  0  0  0  0  0
    2.6952   -1.6975    0.4963 C   0  0  0  0  0  0  0  0  0  0  0  0
    3.0803   -0.3096    0.1016 C   0  0  0  0  0  0  0  0  0  0  0  0
    2.2293    0.7030    0.0228 C   0  0  0  0  0  0  0  0  0  0  0  0
    0.9058    0.5629    0.3182 O   0  0  0  0  0  0  0  0  0  0  0  0
    0.1033    1.7065   -0.1323 N   0  0  0  0  0  0  0  0  0  0  0  0
   -0.9048    1.9931    0.6729 N   0  0  0  0  0  0  0  0  0  0  0  0
   -0.2721    1.5281   -1.5170 C   0  0  0  0  0  0  0  0  0  0  0  0
    3.1599   -1.9671    1.4446 H   0  0  0  0  0  0  0  0  0  0  0  0
    3.0309   -2.4122   -0.2546 H   0  0  0  0  0  0  0  0  0  0  0  0
    1.6161   -1.7670    0.6013 H   0  0  0  0  0  0  0  0  0  0  0  0
    4.1214   -0.1247   -0.1120 H   0  0  0  0  0  0  0  0  0  0  0  0
    2.5313    1.7031   -0.2649 H   0  0  0  0  0  0  0  0  0  0  0  0
   -1.8608    1.1391    0.6596 H   0  0  0  0  0  0  0  0  0  0  0  0
   -0.5821    2.0315    1.6361 H   0  0  0  0  0  0  0  0  0  0  0  0
   -0.8692    2.3897   -1.8038 H   0  0  0  0  0  0  0  0  0  0  0  0
   -0.8492    0.6058   -1.6524 H   0  0  0  0  0  0  0  0  0  0  0  0
    0.6337    1.4839   -2.1192 H   0  0  0  0  0  0  0  0  0  0  0  0
  1  2  1  0
  1  5  1  0
  1  6  1  0
  2  3  1  0
  3  4  2  3
  4  7  1  0
  4  8  1  0
  9 10  1  0
  9 16  1  0
  9 17  1  0
  9 18  1  0
 10 11  2  3
 10 19  1  0
 11 12  1  0
 11 20  1  0
 12 13  1  0
 13 15  1  0
 13 14  1  0
 14 21  1  0
 14 22  1  0
 15 23  1  0
 15 24  1  0
 15 25  1  0
M  RAD  1   1   2
M  END
>  <reaction>  (8) 
rmg_rxn_15711

>  <mol_properties>  (8) 
{"0": {"label": "*3", "atom_type": "Cs"}, "1": {"label": "*4", "atom_type": "O2s"}, "12": {"label": "*0", "atom_type": "N3s"}, "13": {"label": "*1", "atom_type": "N3s"}, "20": {"label": "*2", "atom_type": "H0"}}

>  <type>  (8) 
unop_4

>  <geom_source>  (8) 
Heuristics

$$$$

     RDKit          3D

 25 23  0  0  0  0  0  0  0  0999 V2000
   -2.7407    0.1987    0.6498 C   0  0  0  0  0  3  0  0  0  0  0  0
   -2.1044   -1.0461    0.6129 O   0  0  0  0  0  0  0  0  0  0  0  0
   -1.5498   -1.3093   -0.6196 N   0  0  0  0  0  0  0  0  0  0  0  0
   -0.9115   -2.3926   -0.7234 C   0  0  0  0  0  0  0  0  0  0  0  0
   -3.3771    0.3716   -0.2168 H   0  0  0  0  0  0  0  0  0  0  0  0
   -3.2860    0.2438    1.5866 H   0  0  0  0  0  0  0  0  0  0  0  0
   -0.4736   -2.6032   -1.6829 H   0  0  0  0  0  0  0  0  0  0  0  0
   -0.7873   -3.1084    0.0834 H   0  0  0  0  0  0  0  0  0  0  0  0
    2.6958   -1.6980    0.4978 C   0  0  0  0  0  0  0  0  0  0  0  0
    3.0809   -0.3105    0.1015 C   0  0  0  0  0  0  0  0  0  0  0  0
    2.2299    0.7020    0.0218 C   0  0  0  0  0  0  0  0  0  0  0  0
    0.9065    0.5623    0.3177 O   0  0  0  0  0  0  0  0  0  0  0  0
    0.1041    1.7061   -0.1332 N   0  0  0  0  0  0  0  0  0  0  0  0
   -0.9035    1.9936    0.6724 N   0  0  0  0  0  0  0  0  0  0  0  0
   -0.2721    1.5268   -1.5176 C   0  0  0  0  0  0  0  0  0  0  0  0
    3.1653   -1.9689    1.4434 H   0  0  0  0  0  0  0  0  0  0  0  0
    3.0262   -2.4129   -0.2553 H   0  0  0  0  0  0  0  0  0  0  0  0
    1.6172   -1.7659    0.6086 H   0  0  0  0  0  0  0  0  0  0  0  0
    4.1220   -0.1261   -0.1128 H   0  0  0  0  0  0  0  0  0  0  0  0
    2.5319    1.7018   -0.2671 H   0  0  0  0  0  0  0  0  0  0  0  0
   -1.8598    1.1402    0.6607 H   0  0  0  0  0  0  0  0  0  0  0  0
   -0.5802    2.0330    1.6353 H   0  0  0  0  0  0  0  0  0  0  0  0
   -0.8504    0.6051   -1.6519 H   0  0  0  0  0  0  0  0  0  0  0  0
    0.6335    1.4808   -2.1201 H   0  0  0  0  0  0  0  0  0  0  0  0
   -0.8682    2.3890   -1.8050 H   0  0  0  0  0  0  0  0  0  0  0  0
  1  2  1  0
  1  5  1  0
  1  6  1  0
  2  3  1  0
  3  4  2  3
  4  7  1  0
  4  8  1  0
  9 10  1  0
  9 16  1  0
  9 17  1  0
  9 18  1  0
 10 11  2  3
 10 19  1  0
 11 12  1  0
 11 20  1  0
 12 13  1  0
 13 15  1  0
 13 14  1  0
 14 21  1  0
 14 22  1  0
 15 23  1  0
 15 24  1  0
 15 25  1  0
M  RAD  1   1   2
M  END
>  <reaction>  (9) 
rmg_rxn_15711

>  <mol_properties>  (9) 
{"0": {"label": "*3", "atom_type": "Cs"}, "1": {"label": "*4", "atom_type": "O2s"}, "12": {"label": "*0", "atom_type": "N3s"}, "13": {"label": "*1", "atom_type": "N3s"}, "20": {"label": "*2", "atom_type": "H0"}}

>  <type>  (9) 
unop_5

>  <geom_source>  (9) 
Heuristics

$$$$

     RDKit          3D

 25 23  0  0  0  0  0  0  0  0999 V2000
   -1.5126    1.3264   -0.7774 C   0  0  0  0  0  3  0  0  0  0  0  0
   -0.4767    0.5944   -1.4024 O   0  0  0  0  0  0  0  0  0  0  0  0
   -0.8065    0.3534   -2.7146 N   0  0  0  0  0  0  0  0  0  0  0  0
    0.0916   -0.3003   -3.3169 C   0  0  0  0  0  0  0  0  0  0  0  0
   -1.6596    2.2915   -1.2675 H   0  0  0  0  0  0  0  0  0  0  0  0
   -2.4495    0.7649   -0.7886 H   0  0  0  0  0  0  0  0  0  0  0  0
   -0.0924   -0.5315   -4.3575 H   0  0  0  0  0  0  0  0  0  0  0  0
    1.0093   -0.6221   -2.8290 H   0  0  0  0  0  0  0  0  0  0  0  0
    0.7220   -2.4347   -0.6912 C   0  0  0  0  0  0  0  0  0  0  0  0
    0.7220   -2.4347    0.8041 C   0  0  0  0  0  0  0  0  0  0  0  0
    0.7220   -1.3572    1.5768 C   0  0  0  0  0  0  0  0  0  0  0  0
    0.7653   -0.0951    1.0692 O   0  0  0  0  0  0  0  0  0  0  0  0
    0.1819    0.8460    2.0057 N   0  0  0  0  0  0  0  0  0  0  0  0
   -1.1637    1.0219    1.7092 N   0  0  0  0  0  0  0  0  0  0  0  0
    0.8993    2.0823    1.7556 C   0  0  0  0  0  0  0  0  0  0  0  0
    1.6777   -2.7907   -1.0856 H   0  0  0  0  0  0  0  0  0  0  0  0
    0.5499   -1.4346   -1.0874 H   0  0  0  0  0  0  0  0  0  0  0  0
   -0.0519   -3.1005   -1.0800 H   0  0  0  0  0  0  0  0  0  0  0  0
    0.7549   -3.3901    1.3138 H   0  0  0  0  0  0  0  0  0  0  0  0
    0.7192   -1.4014    2.6602 H   0  0  0  0  0  0  0  0  0  0  0  0
   -1.3324    1.1692    0.5069 H   0  0  0  0  0  0  0  0  0  0  0  0
   -1.6740    0.2066    2.0196 H   0  0  0  0  0  0  0  0  0  0  0  0
    0.7799    2.4214    0.7182 H   0  0  0  0  0  0  0  0  0  0  0  0
    1.9548    1.9199    1.9603 H   0  0  0  0  0  0  0  0  0  0  0  0
    0.5017    2.8356    2.4315 H   0  0  0  0  0  0  0  0  0  0  0  0
  1  2  1  0
  1  5  1  0
  1  6  1  0
  2  3  1  0
  3  4  2  3
  4  7  1  0
  4  8  1  0
  9 10  1  0
  9 16  1  0
  9 17  1  0
  9 18  1  0
 10 11  2  3
 10 19  1  0
 11 12  1  0
 11 20  1  0
 12 13  1  0
 13 15  1  0
 13 14  1  0
 14 21  1  0
 14 22  1  0
 15 23  1  0
 15 24  1  0
 15 25  1  0
M  RAD  1   1   2
M  END
>  <reaction>  (10) 
rmg_rxn_15711

>  <mol_properties>  (10) 
{"0": {"label": "*3", "atom_type": "Cs"}, "1": {"label": "*4", "atom_type": "O2s"}, "12": {"label": "*0", "atom_type": "N3s"}, "13": {"label": "*1", "atom_type": "N3s"}, "20": {"label": "*2", "atom_type": "H0"}}

>  <type>  (10) 
unop_6

>  <geom_source>  (10) 
Heuristics

$$$$

     RDKit          3D

 25 23  0  0  0  0  0  0  0  0999 V2000
   -2.7415   -0.1957   -0.6457 C   0  0  0  0  0  3  0  0  0  0  0  0
   -2.1035    1.0483   -0.6111 O   0  0  0  0  0  0  0  0  0  0  0  0
   -1.5446    1.3109    0.6196 N   0  0  0  0  0  0  0  0  0  0  0  0
   -0.9047    2.3935    0.7212 C   0  0  0  0  0  0  0  0  0  0  0  0
   -3.3758   -0.3674    0.2227 H   0  0  0  0  0  0  0  0  0  0  0  0
   -3.2893   -0.2406   -1.5810 H   0  0  0  0  0  0  0  0  0  0  0  0
   -0.4639    2.6041    1.6793 H   0  0  0  0  0  0  0  0  0  0  0  0
   -0.7831    3.1095   -0.0859 H   0  0  0  0  0  0  0  0  0  0  0  0
    2.6936    1.6962   -0.4992 C   0  0  0  0  0  0  0  0  0  0  0  0
    3.0785    0.3098   -0.0991 C   0  0  0  0  0  0  0  0  0  0  0  0
    2.2283   -0.7036   -0.0210 C   0  0  0  0  0  0  0  0  0  0  0  0
    0.9060   -0.5662   -0.3223 O   0  0  0  0  0  0  0  0  0  0  0  0
    0.1023   -1.7074    0.1321 N   0  0  0  0  0  0  0  0  0  0  0  0
   -0.9074   -1.9940   -0.6713 N   0  0  0  0  0  0  0  0  0  0  0  0
   -0.2715   -1.5252    1.5168 C   0  0  0  0  0  0  0  0  0  0  0  0
    3.0199    2.4125    0.2543 H   0  0  0  0  0  0  0  0  0  0  0  0
    1.6155    1.7627   -0.6150 H   0  0  0  0  0  0  0  0  0  0  0  0
    3.1671    1.9661   -1.4430 H   0  0  0  0  0  0  0  0  0  0  0  0
    4.1188    0.1266    0.1198 H   0  0  0  0  0  0  0  0  0  0  0  0
    2.5305   -1.7025    0.2709 H   0  0  0  0  0  0  0  0  0  0  0  0
   -1.8619   -1.1385   -0.6582 H   0  0  0  0  0  0  0  0  0  0  0  0
   -0.5859   -2.0349   -1.6348 H   0  0  0  0  0  0  0  0  0  0  0  0
   -0.8491   -0.6029    1.6503 H   0  0  0  0  0  0  0  0  0  0  0  0
    0.6350   -1.4786    2.1178 H   0  0  0  0  0  0  0  0  0  0  0  0
   -0.8677   -2.3864    1.8067 H   0  0  0  0  0  0  0  0  0  0  0  0
  1  2  1  0
  1  5  1  0
  1  6  1  0
  2  3  1  0
  3  4  2  3
  4  7  1  0
  4  8  1  0
  9 10  1  0
  9 16  1  0
  9 17  1  0
  9 18  1  0
 10 11  2  3
 10 19  1  0
 11 12  1  0
 11 20  1  0
 12 13  1  0
 13 15  1  0
 13 14  1  0
 14 21  1  0
 14 22  1  0
 15 23  1  0
 15 24  1  0
 15 25  1  0
M  RAD  1   1   2
M  END
>  <reaction>  (11) 
rmg_rxn_15711

>  <mol_properties>  (11) 
{"0": {"label": "*3", "atom_type": "Cs"}, "1": {"label": "*4", "atom_type": "O2s"}, "12": {"label": "*0", "atom_type": "N3s"}, "13": {"label": "*1", "atom_type": "N3s"}, "20": {"label": "*2", "atom_type": "H0"}}

>  <type>  (11) 
unop_7

>  <geom_source>  (11) 
Heuristics

$$$$

     RDKit          3D

 25 23  0  0  0  0  0  0  0  0999 V2000
   -0.6621    1.0965   -0.9365 C   0  0  0  0  0  3  0  0  0  0  0  0
   -1.9478    0.5751   -1.2099 O   0  0  0  0  0  0  0  0  0  0  0  0
   -2.4656    1.1825   -2.3287 N   0  0  0  0  0  0  0  0  0  0  0  0
   -3.6174    0.7481   -2.6140 C   0  0  0  0  0  0  0  0  0  0  0  0
    0.0215    0.9056   -1.7667 H   0  0  0  0  0  0  0  0  0  0  0  0
   -0.7092    2.1703   -0.7420 H   0  0  0  0  0  0  0  0  0  0  0  0
   -4.0955    1.1772   -3.4844 H   0  0  0  0  0  0  0  0  0  0  0  0
   -4.1174   -0.0179   -2.0252 H   0  0  0  0  0  0  0  0  0  0  0  0
    1.5725   -2.6646   -0.8503 C   0  0  0  0  0  0  0  0  0  0  0  0
    1.5725   -2.6646    0.6450 C   0  0  0  0  0  0  0  0  0  0  0  0
    1.5725   -1.5871    1.4177 C   0  0  0  0  0  0  0  0  0  0  0  0
    1.6158   -0.3251    0.9101 O   0  0  0  0  0  0  0  0  0  0  0  0
    1.0324    0.6161    1.8466 N   0  0  0  0  0  0  0  0  0  0  0  0
   -0.3132    0.7919    1.5501 N   0  0  0  0  0  0  0  0  0  0  0  0
    1.7498    1.8523    1.5965 C   0  0  0  0  0  0  0  0  0  0  0  0
    2.5282   -3.0206   -1.2447 H   0  0  0  0  0  0  0  0  0  0  0  0
    1.4004   -1.6645   -1.2465 H   0  0  0  0  0  0  0  0  0  0  0  0
    0.7986   -3.3305   -1.2391 H   0  0  0  0  0  0  0  0  0  0  0  0
    1.6054   -3.6200    1.1547 H   0  0  0  0  0  0  0  0  0  0  0  0
    1.5697   -1.6313    2.5011 H   0  0  0  0  0  0  0  0  0  0  0  0
   -0.4819    0.9392    0.3478 H   0  0  0  0  0  0  0  0  0  0  0  0
   -0.8235   -0.0234    1.8606 H   0  0  0  0  0  0  0  0  0  0  0  0
    1.6303    2.1915    0.5591 H   0  0  0  0  0  0  0  0  0  0  0  0
    2.8053    1.6900    1.8012 H   0  0  0  0  0  0  0  0  0  0  0  0
    1.3522    2.6056    2.2725 H   0  0  0  0  0  0  0  0  0  0  0  0
  1  2  1  0
  1  5  1  0
  1  6  1  0
  2  3  1  0
  3  4  2  3
  4  7  1  0
  4  8  1  0
  9 10  1  0
  9 16  1  0
  9 17  1  0
  9 18  1  0
 10 11  2  3
 10 19  1  0
 11 12  1  0
 11 20  1  0
 12 13  1  0
 13 15  1  0
 13 14  1  0
 14 21  1  0
 14 22  1  0
 15 23  1  0
 15 24  1  0
 15 25  1  0
M  RAD  1   1   2
M  END
>  <reaction>  (12) 
rmg_rxn_15711

>  <mol_properties>  (12) 
{"0": {"label": "*3", "atom_type": "Cs"}, "1": {"label": "*4", "atom_type": "O2s"}, "12": {"label": "*0", "atom_type": "N3s"}, "13": {"label": "*1", "atom_type": "N3s"}, "20": {"label": "*2", "atom_type": "H0"}}

>  <type>  (12) 
unop_8

>  <geom_source>  (12) 
Heuristics

$$$$

     RDKit          3D

 25 23  0  0  0  0  0  0  0  0999 V2000
   -1.3554    0.5004   -0.9236 C   0  0  0  0  0  3  0  0  0  0  0  0
   -0.6134    1.6512   -1.2768 O   0  0  0  0  0  0  0  0  0  0  0  0
   -1.2367    2.3042   -2.3130 N   0  0  0  0  0  0  0  0  0  0  0  0
   -0.6088    3.3427   -2.6651 C   0  0  0  0  0  0  0  0  0  0  0  0
   -2.3605    0.7703   -0.5919 H   0  0  0  0  0  0  0  0  0  0  0  0
   -1.4226   -0.1942   -1.7640 H   0  0  0  0  0  0  0  0  0  0  0  0
   -1.0357    3.9152   -3.4777 H   0  0  0  0  0  0  0  0  0  0  0  0
    0.3153    3.6596   -2.1864 H   0  0  0  0  0  0  0  0  0  0  0  0
    0.8793   -3.2607   -0.8375 C   0  0  0  0  0  0  0  0  0  0  0  0
    0.8793   -3.2607    0.6578 C   0  0  0  0  0  0  0  0  0  0  0  0
    0.8793   -2.1832    1.4305 C   0  0  0  0  0  0  0  0  0  0  0  0
    0.9225   -0.9211    0.9229 O   0  0  0  0  0  0  0  0  0  0  0  0
    0.3391    0.0200    1.8595 N   0  0  0  0  0  0  0  0  0  0  0  0
   -1.0065    0.1959    1.5630 N   0  0  0  0  0  0  0  0  0  0  0  0
    1.0565    1.2562    1.6094 C   0  0  0  0  0  0  0  0  0  0  0  0
    1.8349   -3.6167   -1.2318 H   0  0  0  0  0  0  0  0  0  0  0  0
    0.7071   -2.2606   -1.2336 H   0  0  0  0  0  0  0  0  0  0  0  0
    0.1053   -3.9265   -1.2263 H   0  0  0  0  0  0  0  0  0  0  0  0
    0.9121   -4.2161    1.1675 H   0  0  0  0  0  0  0  0  0  0  0  0
    0.8764   -2.2274    2.5139 H   0  0  0  0  0  0  0  0  0  0  0  0
   -1.1752    0.3431    0.3606 H   0  0  0  0  0  0  0  0  0  0  0  0
   -1.5167   -0.6194    1.8734 H   0  0  0  0  0  0  0  0  0  0  0  0
    0.9371    1.5954    0.5720 H   0  0  0  0  0  0  0  0  0  0  0  0
    2.1120    1.0939    1.8141 H   0  0  0  0  0  0  0  0  0  0  0  0
    0.6590    2.0095    2.2853 H   0  0  0  0  0  0  0  0  0  0  0  0
  1  2  1  0
  1  5  1  0
  1  6  1  0
  2  3  1  0
  3  4  2  3
  4  7  1  0
  4  8  1  0
  9 10  1  0
  9 16  1  0
  9 17  1  0
  9 18  1  0
 10 11  2  3
 10 19  1  0
 11 12  1  0
 11 20  1  0
 12 13  1  0
 13 15  1  0
 13 14  1  0
 14 21  1  0
 14 22  1  0
 15 23  1  0
 15 24  1  0
 15 25  1  0
M  RAD  1   1   2
M  END
>  <reaction>  (13) 
rmg_rxn_15711

>  <mol_properties>  (13) 
{"0": {"label": "*3", "atom_type": "Cs"}, "1": {"label": "*4", "atom_type": "O2s"}, "12": {"label": "*0", "atom_type": "N3s"}, "13": {"label": "*1", "atom_type": "N3s"}, "20": {"label": "*2", "atom_type": "H0"}}

>  <type>  (13) 
unop_9

>  <geom_source>  (13) 
Heuristics

$$$$

     RDKit          3D

 25 23  0  0  0  0  0  0  0  0999 V2000
   -2.7362    0.1940    0.6608 C   0  0  0  0  0  3  0  0  0  0  0  0
   -2.0978   -1.0494    0.6146 O   0  0  0  0  0  0  0  0  0  0  0  0
   -1.5528   -1.3075   -0.6233 N   0  0  0  0  0  0  0  0  0  0  0  0
   -0.9126   -2.3888   -0.7356 C   0  0  0  0  0  0  0  0  0  0  0  0
   -3.3784    0.3692   -0.2010 H   0  0  0  0  0  0  0  0  0  0  0  0
   -3.2755    0.2343    1.6013 H   0  0  0  0  0  0  0  0  0  0  0  0
   -0.4822   -2.5954   -1.6993 H   0  0  0  0  0  0  0  0  0  0  0  0
   -0.7798   -3.1066    0.0680 H   0  0  0  0  0  0  0  0  0  0  0  0
    2.6996   -1.6936    0.5119 C   0  0  0  0  0  0  0  0  0  0  0  0
    3.0809   -0.3104    0.0971 C   0  0  0  0  0  0  0  0  0  0  0  0
    2.2282    0.7000    0.0096 C   0  0  0  0  0  0  0  0  0  0  0  0
    0.9062    0.5618    0.3124 O   0  0  0  0  0  0  0  0  0  0  0  0
    0.1021    1.7060   -0.1329 N   0  0  0  0  0  0  0  0  0  0  0  0
   -0.9017    1.9918    0.6784 N   0  0  0  0  0  0  0  0  0  0  0  0
   -0.2816    1.5294   -1.5156 C   0  0  0  0  0  0  0  0  0  0  0  0
    1.6219   -1.7613    0.6301 H   0  0  0  0  0  0  0  0  0  0  0  0
    3.1753   -1.9527    1.4577 H   0  0  0  0  0  0  0  0  0  0  0  0
    3.0262   -2.4170   -0.2347 H   0  0  0  0  0  0  0  0  0  0  0  0
    4.1205   -0.1272   -0.1251 H   0  0  0  0  0  0  0  0  0  0  0  0
    2.5275    1.6968   -0.2921 H   0  0  0  0  0  0  0  0  0  0  0  0
   -1.8570    1.1372    0.6696 H   0  0  0  0  0  0  0  0  0  0  0  0
   -0.5734    2.0292    1.6398 H   0  0  0  0  0  0  0  0  0  0  0  0
   -0.8777    2.3930   -1.7985 H   0  0  0  0  0  0  0  0  0  0  0  0
   -0.8623    0.6089   -1.6483 H   0  0  0  0  0  0  0  0  0  0  0  0
    0.6206    1.4828   -2.1230 H   0  0  0  0  0  0  0  0  0  0  0  0
  1  2  1  0
  1  5  1  0
  1  6  1  0
  2  3  1  0
  3  4  2  3
  4  7  1  0
  4  8  1  0
  9 10  1  0
  9 16  1  0
  9 17  1  0
  9 18  1  0
 10 11  2  3
 10 19  1  0
 11 12  1  0
 11 20  1  0
 12 13  1  0
 13 15  1  0
 13 14  1  0
 14 21  1  0
 14 22  1  0
 15 23  1  0
 15 24  1  0
 15 25  1  0
M  RAD  1   1   2
M  END
>  <reaction>  (14) 
rmg_rxn_15711

>  <mol_properties>  (14) 
{"0": {"label": "*3", "atom_type": "Cs"}, "1": {"label": "*4", "atom_type": "O2s"}, "12": {"label": "*0", "atom_type": "N3s"}, "13": {"label": "*1", "atom_type": "N3s"}, "20": {"label": "*2", "atom_type": "H0"}}

>  <type>  (14) 
unop_10

>  <geom_source>  (14) 
Heuristics

$$$$

     RDKit          3D

 25 23  0  0  0  0  0  0  0  0999 V2000
   -0.6675    0.9340   -0.9320 C   0  0  0  0  0  3  0  0  0  0  0  0
   -2.0608    1.1018   -1.1059 O   0  0  0  0  0  0  0  0  0  0  0  0
   -2.3435    1.2753   -2.4396 N   0  0  0  0  0  0  0  0  0  0  0  0
   -3.5805    1.4299   -2.6459 C   0  0  0  0  0  0  0  0  0  0  0  0
   -0.3106    0.0509   -1.4667 H   0  0  0  0  0  0  0  0  0  0  0  0
   -0.1218    1.8150   -1.2771 H   0  0  0  0  0  0  0  0  0  0  0  0
   -3.8864    1.5731   -3.6736 H   0  0  0  0  0  0  0  0  0  0  0  0
   -4.3142    1.4222   -1.8427 H   0  0  0  0  0  0  0  0  0  0  0  0
    1.5671   -2.8271   -0.8458 C   0  0  0  0  0  0  0  0  0  0  0  0
    1.5671   -2.8271    0.6495 C   0  0  0  0  0  0  0  0  0  0  0  0
    1.5671   -1.7496    1.4222 C   0  0  0  0  0  0  0  0  0  0  0  0
    1.6104   -0.4875    0.9146 O   0  0  0  0  0  0  0  0  0  0  0  0
    1.0270    0.4536    1.8512 N   0  0  0  0  0  0  0  0  0  0  0  0
   -0.3186    0.6295    1.5547 N   0  0  0  0  0  0  0  0  0  0  0  0
    1.7444    1.6898    1.6011 C   0  0  0  0  0  0  0  0  0  0  0  0
    2.5228   -3.1831   -1.2402 H   0  0  0  0  0  0  0  0  0  0  0  0
    1.3950   -1.8270   -1.2419 H   0  0  0  0  0  0  0  0  0  0  0  0
    0.7932   -3.4929   -1.2346 H   0  0  0  0  0  0  0  0  0  0  0  0
    1.6000   -3.7825    1.1592 H   0  0  0  0  0  0  0  0  0  0  0  0
    1.5643   -1.7938    2.5056 H   0  0  0  0  0  0  0  0  0  0  0  0
   -0.4873    0.7767    0.3523 H   0  0  0  0  0  0  0  0  0  0  0  0
   -0.8289   -0.1858    1.8651 H   0  0  0  0  0  0  0  0  0  0  0  0
    1.6249    2.0290    0.5637 H   0  0  0  0  0  0  0  0  0  0  0  0
    2.7999    1.5275    1.8057 H   0  0  0  0  0  0  0  0  0  0  0  0
    1.3468    2.4431    2.2770 H   0  0  0  0  0  0  0  0  0  0  0  0
  1  2  1  0
  1  5  1  0
  1  6  1  0
  2  3  1  0
  3  4  2  3
  4  7  1  0
  4  8  1  0
  9 10  1  0
  9 16  1  0
  9 17  1  0
  9 18  1  0
 10 11  2  3
 10 19  1  0
 11 12  1  0
 11 20  1  0
 12 13  1  0
 13 15  1  0
 13 14  1  0
 14 21  1  0
 14 22  1  0
 15 23  1  0
 15 24  1  0
 15 25  1  0
M  RAD  1   1   2
M  END
>  <reaction>  (15) 
rmg_rxn_15711

>  <mol_properties>  (15) 
{"0": {"label": "*3", "atom_type": "Cs"}, "1": {"label": "*4", "atom_type": "O2s"}, "12": {"label": "*0", "atom_type": "N3s"}, "13": {"label": "*1", "atom_type": "N3s"}, "20": {"label": "*2", "atom_type": "H0"}}

>  <type>  (15) 
unop_11

>  <geom_source>  (15) 
Heuristics

$$$$

     RDKit          3D

 25 23  0  0  0  0  0  0  0  0999 V2000
   -2.7421    0.1908    0.6454 C   0  0  0  0  0  3  0  0  0  0  0  0
   -2.1016   -1.0519    0.6101 O   0  0  0  0  0  0  0  0  0  0  0  0
   -1.5398   -1.3116   -0.6199 N   0  0  0  0  0  0  0  0  0  0  0  0
   -0.8976   -2.3927   -0.7219 C   0  0  0  0  0  0  0  0  0  0  0  0
   -3.3767    0.3617   -0.2229 H   0  0  0  0  0  0  0  0  0  0  0  0
   -3.2901    0.2339    1.5807 H   0  0  0  0  0  0  0  0  0  0  0  0
   -0.4536   -2.6004   -1.6792 H   0  0  0  0  0  0  0  0  0  0  0  0
   -0.7758   -3.1095    0.0845 H   0  0  0  0  0  0  0  0  0  0  0  0
    2.6946   -1.6939    0.4964 C   0  0  0  0  0  0  0  0  0  0  0  0
    3.0784   -0.3057    0.1016 C   0  0  0  0  0  0  0  0  0  0  0  0
    2.2264    0.7062    0.0232 C   0  0  0  0  0  0  0  0  0  0  0  0
    0.9032    0.5650    0.3194 O   0  0  0  0  0  0  0  0  0  0  0  0
    0.0993    1.7073   -0.1311 N   0  0  0  0  0  0  0  0  0  0  0  0
   -0.9103    1.9913    0.6734 N   0  0  0  0  0  0  0  0  0  0  0  0
   -0.2747    1.5295   -1.5163 C   0  0  0  0  0  0  0  0  0  0  0  0
    3.0282   -2.4080   -0.2560 H   0  0  0  0  0  0  0  0  0  0  0  0
    1.6158   -1.7637    0.6044 H   0  0  0  0  0  0  0  0  0  0  0  0
    3.1620   -1.9642    1.4431 H   0  0  0  0  0  0  0  0  0  0  0  0
    4.1192   -0.1199   -0.1125 H   0  0  0  0  0  0  0  0  0  0  0  0
    2.5274    1.7066   -0.2645 H   0  0  0  0  0  0  0  0  0  0  0  0
   -1.8642    1.1351    0.6587 H   0  0  0  0  0  0  0  0  0  0  0  0
   -0.5885    2.0296    1.6369 H   0  0  0  0  0  0  0  0  0  0  0  0
   -0.8726    2.3907   -1.8029 H   0  0  0  0  0  0  0  0  0  0  0  0
   -0.8505    0.6066   -1.6528 H   0  0  0  0  0  0  0  0  0  0  0  0
    0.6317    1.4868   -2.1178 H   0  0  0  0  0  0  0  0  0  0  0  0
  1  2  1  0
  1  5  1  0
  1  6  1  0
  2  3  1  0
  3  4  2  3
  4  7  1  0
  4  8  1  0
  9 10  1  0
  9 16  1  0
  9 17  1  0
  9 18  1  0
 10 11  2  3
 10 19  1  0
 11 12  1  0
 11 20  1  0
 12 13  1  0
 13 15  1  0
 13 14  1  0
 14 21  1  0
 14 22  1  0
 15 23  1  0
 15 24  1  0
 15 25  1  0
M  RAD  1   1   2
M  END
>  <reaction>  (16) 
rmg_rxn_15711

>  <mol_properties>  (16) 
{"0": {"label": "*3", "atom_type": "Cs"}, "1": {"label": "*4", "atom_type": "O2s"}, "12": {"label": "*0", "atom_type": "N3s"}, "13": {"label": "*1", "atom_type": "N3s"}, "20": {"label": "*2", "atom_type": "H0"}}

>  <type>  (16) 
unop_12

>  <geom_source>  (16) 
Heuristics

$$$$

     RDKit          3D

 25 23  0  0  0  0  0  0  0  0999 V2000
   -1.0709    0.4670   -0.9832 C   0  0  0  0  0  3  0  0  0  0  0  0
   -0.9797    1.8589   -1.2155 O   0  0  0  0  0  0  0  0  0  0  0  0
   -1.9065    2.2326   -2.1589 N   0  0  0  0  0  0  0  0  0  0  0  0
   -1.8634    3.4721   -2.4010 C   0  0  0  0  0  0  0  0  0  0  0  0
   -2.0597    0.1979   -0.6049 H   0  0  0  0  0  0  0  0  0  0  0  0
   -0.8637   -0.0959   -1.8961 H   0  0  0  0  0  0  0  0  0  0  0  0
   -2.5638    3.8473   -3.1351 H   0  0  0  0  0  0  0  0  0  0  0  0
   -1.1639    4.1421   -1.9056 H   0  0  0  0  0  0  0  0  0  0  0  0
    1.1638   -3.2941   -0.8970 C   0  0  0  0  0  0  0  0  0  0  0  0
    1.1638   -3.2941    0.5983 C   0  0  0  0  0  0  0  0  0  0  0  0
    1.1638   -2.2166    1.3710 C   0  0  0  0  0  0  0  0  0  0  0  0
    1.2071   -0.9545    0.8634 O   0  0  0  0  0  0  0  0  0  0  0  0
    0.6237   -0.0134    1.8000 N   0  0  0  0  0  0  0  0  0  0  0  0
   -0.7220    0.1625    1.5035 N   0  0  0  0  0  0  0  0  0  0  0  0
    1.3410    1.2228    1.5499 C   0  0  0  0  0  0  0  0  0  0  0  0
    2.1195   -3.6501   -1.2914 H   0  0  0  0  0  0  0  0  0  0  0  0
    0.9916   -2.2940   -1.2931 H   0  0  0  0  0  0  0  0  0  0  0  0
    0.3899   -3.9599   -1.2858 H   0  0  0  0  0  0  0  0  0  0  0  0
    1.1966   -4.2495    1.1080 H   0  0  0  0  0  0  0  0  0  0  0  0
    1.1610   -2.2608    2.4544 H   0  0  0  0  0  0  0  0  0  0  0  0
   -0.8907    0.3097    0.3011 H   0  0  0  0  0  0  0  0  0  0  0  0
   -1.2322   -0.6528    1.8139 H   0  0  0  0  0  0  0  0  0  0  0  0
    1.2216    1.5620    0.5125 H   0  0  0  0  0  0  0  0  0  0  0  0
    2.3965    1.0605    1.7545 H   0  0  0  0  0  0  0  0  0  0  0  0
    0.9435    1.9761    2.2258 H   0  0  0  0  0  0  0  0  0  0  0  0
  1  2  1  0
  1  5  1  0
  1  6  1  0
  2  3  1  0
  3  4  2  3
  4  7  1  0
  4  8  1  0
  9 10  1  0
  9 16  1  0
  9 17  1  0
  9 18  1  0
 10 11  2  3
 10 19  1  0
 11 12  1  0
 11 20  1  0
 12 13  1  0
 13 15  1  0
 13 14  1  0
 14 21  1  0
 14 22  1  0
 15 23  1  0
 15 24  1  0
 15 25  1  0
M  RAD  1   1   2
M  END
>  <reaction>  (17) 
rmg_rxn_15711

>  <mol_properties>  (17) 
{"0": {"label": "*3", "atom_type": "Cs"}, "1": {"label": "*4", "atom_type": "O2s"}, "12": {"label": "*0", "atom_type": "N3s"}, "13": {"label": "*1", "atom_type": "N3s"}, "20": {"label": "*2", "atom_type": "H0"}}

>  <type>  (17) 
unop_13

>  <geom_source>  (17) 
Heuristics

$$$$

     RDKit          3D

 25 23  0  0  0  0  0  0  0  0999 V2000
   -2.7389    0.1902    0.6543 C   0  0  0  0  0  3  0  0  0  0  0  0
   -2.0984   -1.0524    0.6120 O   0  0  0  0  0  0  0  0  0  0  0  0
   -1.5455   -1.3095   -0.6226 N   0  0  0  0  0  0  0  0  0  0  0  0
   -0.9030   -2.3899   -0.7311 C   0  0  0  0  0  0  0  0  0  0  0  0
   -3.3778    0.3636   -0.2104 H   0  0  0  0  0  0  0  0  0  0  0  0
   -3.2822    0.2304    1.5924 H   0  0  0  0  0  0  0  0  0  0  0  0
   -0.4660   -2.5956   -1.6920 H   0  0  0  0  0  0  0  0  0  0  0  0
   -0.7738   -3.1074    0.0734 H   0  0  0  0  0  0  0  0  0  0  0  0
    2.6981   -1.6922    0.5067 C   0  0  0  0  0  0  0  0  0  0  0  0
    3.0795   -0.3071    0.0986 C   0  0  0  0  0  0  0  0  0  0  0  0
    2.2265    0.7033    0.0141 C   0  0  0  0  0  0  0  0  0  0  0  0
    0.9041    0.5631    0.3144 O   0  0  0  0  0  0  0  0  0  0  0  0
    0.0995    1.7067   -0.1310 N   0  0  0  0  0  0  0  0  0  0  0  0
   -0.9066    1.9901    0.6782 N   0  0  0  0  0  0  0  0  0  0  0  0
   -0.2804    1.5318   -1.5150 C   0  0  0  0  0  0  0  0  0  0  0  0
    1.6198   -1.7619    0.6190 H   0  0  0  0  0  0  0  0  0  0  0  0
    3.1691   -1.9538    1.4542 H   0  0  0  0  0  0  0  0  0  0  0  0
    3.0298   -2.4127   -0.2404 H   0  0  0  0  0  0  0  0  0  0  0  0
    4.1194   -0.1225   -0.1209 H   0  0  0  0  0  0  0  0  0  0  0  0
    2.5256    1.7015   -0.2831 H   0  0  0  0  0  0  0  0  0  0  0  0
   -1.8610    1.1345    0.6660 H   0  0  0  0  0  0  0  0  0  0  0  0
   -0.5806    2.0263    1.6404 H   0  0  0  0  0  0  0  0  0  0  0  0
   -0.8581    0.6100   -1.6509 H   0  0  0  0  0  0  0  0  0  0  0  0
    0.6234    1.4891   -2.1204 H   0  0  0  0  0  0  0  0  0  0  0  0
   -0.8784    2.3944   -1.7975 H   0  0  0  0  0  0  0  0  0  0  0  0
  1  2  1  0
  1  5  1  0
  1  6  1  0
  2  3  1  0
  3  4  2  3
  4  7  1  0
  4  8  1  0
  9 10  1  0
  9 16  1  0
  9 17  1  0
  9 18  1  0
 10 11  2  3
 10 19  1  0
 11 12  1  0
 11 20  1  0
 12 13  1  0
 13 15  1  0
 13 14  1  0
 14 21  1  0
 14 22  1  0
 15 23  1  0
 15 24  1  0
 15 25  1  0
M  RAD  1   1   2
M  END
>  <reaction>  (18) 
rmg_rxn_15711

>  <mol_properties>  (18) 
{"0": {"label": "*3", "atom_type": "Cs"}, "1": {"label": "*4", "atom_type": "O2s"}, "12": {"label": "*0", "atom_type": "N3s"}, "13": {"label": "*1", "atom_type": "N3s"}, "20": {"label": "*2", "atom_type": "H0"}}

>  <type>  (18) 
unop_14

>  <geom_source>  (18) 
Heuristics

$$$$

     RDKit          3D

 25 23  0  0  0  0  0  0  0  0999 V2000
   -0.8267    0.5858   -1.0008 C   0  0  0  0  0  3  0  0  0  0  0  0
   -1.4250    1.8582   -1.1510 O   0  0  0  0  0  0  0  0  0  0  0  0
   -2.3619    1.8138   -2.1555 N   0  0  0  0  0  0  0  0  0  0  0  0
   -2.9257    2.9315   -2.3278 C   0  0  0  0  0  0  0  0  0  0  0  0
   -1.5710   -0.1665   -0.7303 H   0  0  0  0  0  0  0  0  0  0  0  0
   -0.3181    0.2825   -1.9187 H   0  0  0  0  0  0  0  0  0  0  0  0
   -3.6786    2.9803   -3.1031 H   0  0  0  0  0  0  0  0  0  0  0  0
   -2.6788    3.8100   -1.7356 H   0  0  0  0  0  0  0  0  0  0  0  0
    1.4080   -3.1753   -0.9146 C   0  0  0  0  0  0  0  0  0  0  0  0
    1.4080   -3.1753    0.5806 C   0  0  0  0  0  0  0  0  0  0  0  0
    1.4080   -2.0978    1.3534 C   0  0  0  0  0  0  0  0  0  0  0  0
    1.4512   -0.8357    0.8458 O   0  0  0  0  0  0  0  0  0  0  0  0
    0.8678    0.1054    1.7823 N   0  0  0  0  0  0  0  0  0  0  0  0
   -0.4778    0.2813    1.4858 N   0  0  0  0  0  0  0  0  0  0  0  0
    1.5852    1.3416    1.5322 C   0  0  0  0  0  0  0  0  0  0  0  0
    2.3636   -3.5313   -1.3090 H   0  0  0  0  0  0  0  0  0  0  0  0
    1.2358   -2.1752   -1.3108 H   0  0  0  0  0  0  0  0  0  0  0  0
    0.6340   -3.8411   -1.3034 H   0  0  0  0  0  0  0  0  0  0  0  0
    1.4408   -4.1307    1.0904 H   0  0  0  0  0  0  0  0  0  0  0  0
    1.4051   -2.1420    2.4367 H   0  0  0  0  0  0  0  0  0  0  0  0
   -0.6465    0.4285    0.2835 H   0  0  0  0  0  0  0  0  0  0  0  0
   -0.9880   -0.5340    1.7962 H   0  0  0  0  0  0  0  0  0  0  0  0
    1.4658    1.6808    0.4948 H   0  0  0  0  0  0  0  0  0  0  0  0
    2.6407    1.1793    1.7369 H   0  0  0  0  0  0  0  0  0  0  0  0
    1.1877    2.0949    2.2081 H   0  0  0  0  0  0  0  0  0  0  0  0
  1  2  1  0
  1  5  1  0
  1  6  1  0
  2  3  1  0
  3  4  2  3
  4  7  1  0
  4  8  1  0
  9 10  1  0
  9 16  1  0
  9 17  1  0
  9 18  1  0
 10 11  2  3
 10 19  1  0
 11 12  1  0
 11 20  1  0
 12 13  1  0
 13 15  1  0
 13 14  1  0
 14 21  1  0
 14 22  1  0
 15 23  1  0
 15 24  1  0
 15 25  1  0
M  RAD  1   1   2
M  END
>  <reaction>  (19) 
rmg_rxn_15711

>  <mol_properties>  (19) 
{"0": {"label": "*3", "atom_type": "Cs"}, "1": {"label": "*4", "atom_type": "O2s"}, "12": {"label": "*0", "atom_type": "N3s"}, "13": {"label": "*1", "atom_type": "N3s"}, "20": {"label": "*2", "atom_type": "H0"}}

>  <type>  (19) 
unop_15

>  <geom_source>  (19) 
Heuristics

$$$$

     RDKit          3D

 25 23  0  0  0  0  0  0  0  0999 V2000
   -2.7392    0.1987    0.6528 C   0  0  0  0  0  3  0  0  0  0  0  0
   -2.1036   -1.0465    0.6128 O   0  0  0  0  0  0  0  0  0  0  0  0
   -1.5511   -1.3080   -0.6209 N   0  0  0  0  0  0  0  0  0  0  0  0
   -0.9143   -2.3919   -0.7275 C   0  0  0  0  0  0  0  0  0  0  0  0
   -3.3771    0.3732   -0.2123 H   0  0  0  0  0  0  0  0  0  0  0  0
   -3.2827    0.2426    1.5907 H   0  0  0  0  0  0  0  0  0  0  0  0
   -0.4778   -2.6014   -1.6879 H   0  0  0  0  0  0  0  0  0  0  0  0
   -0.7900   -3.1092    0.0779 H   0  0  0  0  0  0  0  0  0  0  0  0
    2.6957   -1.6975    0.5044 C   0  0  0  0  0  0  0  0  0  0  0  0
    3.0805   -0.3128    0.0985 C   0  0  0  0  0  0  0  0  0  0  0  0
    2.2300    0.7000    0.0160 C   0  0  0  0  0  0  0  0  0  0  0  0
    0.9075    0.5628    0.3170 O   0  0  0  0  0  0  0  0  0  0  0  0
    0.1048    1.7065   -0.1326 N   0  0  0  0  0  0  0  0  0  0  0  0
   -0.9017    1.9935    0.6747 N   0  0  0  0  0  0  0  0  0  0  0  0
   -0.2738    1.5280   -1.5164 C   0  0  0  0  0  0  0  0  0  0  0  0
    3.0265   -2.4177   -0.2433 H   0  0  0  0  0  0  0  0  0  0  0  0
    1.6171   -1.7650    0.6157 H   0  0  0  0  0  0  0  0  0  0  0  0
    3.1651   -1.9614    1.4521 H   0  0  0  0  0  0  0  0  0  0  0  0
    4.1209   -0.1304   -0.1208 H   0  0  0  0  0  0  0  0  0  0  0  0
    2.5317    1.6979   -0.2797 H   0  0  0  0  0  0  0  0  0  0  0  0
   -1.8579    1.1399    0.6634 H   0  0  0  0  0  0  0  0  0  0  0  0
   -0.5769    2.0317    1.6373 H   0  0  0  0  0  0  0  0  0  0  0  0
    0.6307    1.4808   -2.1205 H   0  0  0  0  0  0  0  0  0  0  0  0
   -0.8690    2.3912   -1.8026 H   0  0  0  0  0  0  0  0  0  0  0  0
   -0.8538    0.6073   -1.6500 H   0  0  0  0  0  0  0  0  0  0  0  0
  1  2  1  0
  1  5  1  0
  1  6  1  0
  2  3  1  0
  3  4  2  3
  4  7  1  0
  4  8  1  0
  9 10  1  0
  9 16  1  0
  9 17  1  0
  9 18  1  0
 10 11  2  3
 10 19  1  0
 11 12  1  0
 11 20  1  0
 12 13  1  0
 13 15  1  0
 13 14  1  0
 14 21  1  0
 14 22  1  0
 15 23  1  0
 15 24  1  0
 15 25  1  0
M  RAD  1   1   2
M  END
>  <reaction>  (20) 
rmg_rxn_15711

>  <mol_properties>  (20) 
{"0": {"label": "*3", "atom_type": "Cs"}, "1": {"label": "*4", "atom_type": "O2s"}, "12": {"label": "*0", "atom_type": "N3s"}, "13": {"label": "*1", "atom_type": "N3s"}, "20": {"label": "*2", "atom_type": "H0"}}

>  <type>  (20) 
unop_16

>  <geom_source>  (20) 
Heuristics

$$$$

     RDKit          3D

 25 23  0  0  0  0  0  0  0  0999 V2000
   -0.9630    1.4751   -0.8748 C   0  0  0  0  0  3  0  0  0  0  0  0
   -1.1599    0.1756   -1.3963 O   0  0  0  0  0  0  0  0  0  0  0  0
   -2.1229    0.2108   -2.3762 N   0  0  0  0  0  0  0  0  0  0  0  0
   -2.3347   -0.9311   -2.8741 C   0  0  0  0  0  0  0  0  0  0  0  0
   -0.6222    2.1611   -1.6536 H   0  0  0  0  0  0  0  0  0  0  0  0
   -1.8818    1.8595   -0.4264 H   0  0  0  0  0  0  0  0  0  0  0  0
   -3.0814   -0.9887   -3.6548 H   0  0  0  0  0  0  0  0  0  0  0  0
   -1.8022   -1.8214   -2.5464 H   0  0  0  0  0  0  0  0  0  0  0  0
    1.2717   -2.2860   -0.7887 C   0  0  0  0  0  0  0  0  0  0  0  0
    1.2717   -2.2860    0.7066 C   0  0  0  0  0  0  0  0  0  0  0  0
    1.2717   -1.2085    1.4793 C   0  0  0  0  0  0  0  0  0  0  0  0
    1.3150    0.0536    0.9717 O   0  0  0  0  0  0  0  0  0  0  0  0
    0.7316    0.9947    1.9083 N   0  0  0  0  0  0  0  0  0  0  0  0
   -0.6141    1.1706    1.6118 N   0  0  0  0  0  0  0  0  0  0  0  0
    1.4489    2.2310    1.6582 C   0  0  0  0  0  0  0  0  0  0  0  0
    2.2274   -2.6420   -1.1830 H   0  0  0  0  0  0  0  0  0  0  0  0
    1.0995   -1.2859   -1.1848 H   0  0  0  0  0  0  0  0  0  0  0  0
    0.4978   -2.9518   -1.1775 H   0  0  0  0  0  0  0  0  0  0  0  0
    1.3045   -3.2414    1.2163 H   0  0  0  0  0  0  0  0  0  0  0  0
    1.2688   -1.2527    2.5627 H   0  0  0  0  0  0  0  0  0  0  0  0
   -0.7828    1.3179    0.4094 H   0  0  0  0  0  0  0  0  0  0  0  0
   -1.1243    0.3553    1.9222 H   0  0  0  0  0  0  0  0  0  0  0  0
    1.3295    2.5701    0.6208 H   0  0  0  0  0  0  0  0  0  0  0  0
    2.5044    2.0686    1.8629 H   0  0  0  0  0  0  0  0  0  0  0  0
    1.0514    2.9843    2.3341 H   0  0  0  0  0  0  0  0  0  0  0  0
  1  2  1  0
  1  5  1  0
  1  6  1  0
  2  3  1  0
  3  4  2  3
  4  7  1  0
  4  8  1  0
  9 10  1  0
  9 16  1  0
  9 17  1  0
  9 18  1  0
 10 11  2  3
 10 19  1  0
 11 12  1  0
 11 20  1  0
 12 13  1  0
 13 15  1  0
 13 14  1  0
 14 21  1  0
 14 22  1  0
 15 23  1  0
 15 24  1  0
 15 25  1  0
M  RAD  1   1   2
M  END
>  <reaction>  (21) 
rmg_rxn_15711

>  <mol_properties>  (21) 
{"0": {"label": "*3", "atom_type": "Cs"}, "1": {"label": "*4", "atom_type": "O2s"}, "12": {"label": "*0", "atom_type": "N3s"}, "13": {"label": "*1", "atom_type": "N3s"}, "20": {"label": "*2", "atom_type": "H0"}}

>  <type>  (21) 
unop_17

>  <geom_source>  (21) 
Heuristics

$$$$

     RDKit          3D

 25 23  0  0  0  0  0  0  0  0999 V2000
   -2.7417    0.1871    0.6460 C   0  0  0  0  0  3  0  0  0  0  0  0
   -2.0993   -1.0546    0.6092 O   0  0  0  0  0  0  0  0  0  0  0  0
   -1.5374   -1.3121   -0.6213 N   0  0  0  0  0  0  0  0  0  0  0  0
   -0.8930   -2.3919   -0.7242 C   0  0  0  0  0  0  0  0  0  0  0  0
   -3.3769    0.3579   -0.2220 H   0  0  0  0  0  0  0  0  0  0  0  0
   -3.2895    0.2283    1.5815 H   0  0  0  0  0  0  0  0  0  0  0  0
   -0.4492   -2.5984   -1.6818 H   0  0  0  0  0  0  0  0  0  0  0  0
   -0.7696   -3.1088    0.0818 H   0  0  0  0  0  0  0  0  0  0  0  0
    2.6949   -1.6913    0.5011 C   0  0  0  0  0  0  0  0  0  0  0  0
    3.0772   -0.3047    0.0990 C   0  0  0  0  0  0  0  0  0  0  0  0
    2.2249    0.7068    0.0195 C   0  0  0  0  0  0  0  0  0  0  0  0
    0.9027    0.5666    0.3204 O   0  0  0  0  0  0  0  0  0  0  0  0
    0.0971    1.7083   -0.1299 N   0  0  0  0  0  0  0  0  0  0  0  0
   -0.9127    1.9903    0.6749 N   0  0  0  0  0  0  0  0  0  0  0  0
   -0.2770    1.5302   -1.5151 C   0  0  0  0  0  0  0  0  0  0  0  0
    3.1641   -1.9568    1.4483 H   0  0  0  0  0  0  0  0  0  0  0  0
    3.0276   -2.4089   -0.2484 H   0  0  0  0  0  0  0  0  0  0  0  0
    1.6163   -1.7612    0.6113 H   0  0  0  0  0  0  0  0  0  0  0  0
    4.1173   -0.1198   -0.1195 H   0  0  0  0  0  0  0  0  0  0  0  0
    2.5250    1.7061   -0.2731 H   0  0  0  0  0  0  0  0  0  0  0  0
   -1.8653    1.1328    0.6601 H   0  0  0  0  0  0  0  0  0  0  0  0
   -0.5907    2.0290    1.6384 H   0  0  0  0  0  0  0  0  0  0  0  0
   -0.8527    0.6072   -1.6515 H   0  0  0  0  0  0  0  0  0  0  0  0
    0.6293    1.4876   -2.1167 H   0  0  0  0  0  0  0  0  0  0  0  0
   -0.8750    2.3914   -1.8017 H   0  0  0  0  0  0  0  0  0  0  0  0
  1  2  1  0
  1  5  1  0
  1  6  1  0
  2  3  1  0
  3  4  2  3
  4  7  1  0
  4  8  1  0
  9 10  1  0
  9 16  1  0
  9 17  1  0
  9 18  1  0
 10 11  2  3
 10 19  1  0
 11 12  1  0
 11 20  1  0
 12 13  1  0
 13 15  1  0
 13 14  1  0
 14 21  1  0
 14 22  1  0
 15 23  1  0
 15 24  1  0
 15 25  1  0
M  RAD  1   1   2
M  END
>  <reaction>  (22) 
rmg_rxn_15711

>  <mol_properties>  (22) 
{"0": {"label": "*3", "atom_type": "Cs"}, "1": {"label": "*4", "atom_type": "O2s"}, "12": {"label": "*0", "atom_type": "N3s"}, "13": {"label": "*1", "atom_type": "N3s"}, "20": {"label": "*2", "atom_type": "H0"}}

>  <type>  (22) 
unop_18

>  <geom_source>  (22) 
Heuristics

$$$$

     RDKit          3D

 25 23  0  0  0  0  0  0  0  0999 V2000
   -1.5793    0.7035   -0.8443 C   0  0  0  0  0  3  0  0  0  0  0  0
   -0.3994    1.3172   -1.3247 O   0  0  0  0  0  0  0  0  0  0  0  0
   -0.6418    1.8921   -2.5492 N   0  0  0  0  0  0  0  0  0  0  0  0
    0.3865    2.4549   -3.0208 C   0  0  0  0  0  0  0  0  0  0  0  0
   -2.3775    1.4382   -0.7163 H   0  0  0  0  0  0  0  0  0  0  0  0
   -1.9139   -0.0844   -1.5228 H   0  0  0  0  0  0  0  0  0  0  0  0
    0.2784    2.9329   -3.9852 H   0  0  0  0  0  0  0  0  0  0  0  0
    1.3400    2.4677   -2.4971 H   0  0  0  0  0  0  0  0  0  0  0  0
    0.6554   -3.0576   -0.7582 C   0  0  0  0  0  0  0  0  0  0  0  0
    0.6554   -3.0576    0.7371 C   0  0  0  0  0  0  0  0  0  0  0  0
    0.6554   -1.9801    1.5099 C   0  0  0  0  0  0  0  0  0  0  0  0
    0.6986   -0.7180    1.0023 O   0  0  0  0  0  0  0  0  0  0  0  0
    0.1152    0.2231    1.9388 N   0  0  0  0  0  0  0  0  0  0  0  0
   -1.2304    0.3990    1.6423 N   0  0  0  0  0  0  0  0  0  0  0  0
    0.8326    1.4594    1.6887 C   0  0  0  0  0  0  0  0  0  0  0  0
    1.6110   -3.4136   -1.1525 H   0  0  0  0  0  0  0  0  0  0  0  0
    0.4832   -2.0575   -1.1543 H   0  0  0  0  0  0  0  0  0  0  0  0
   -0.1186   -3.7234   -1.1469 H   0  0  0  0  0  0  0  0  0  0  0  0
    0.6882   -4.0130    1.2468 H   0  0  0  0  0  0  0  0  0  0  0  0
    0.6525   -2.0243    2.5932 H   0  0  0  0  0  0  0  0  0  0  0  0
   -1.3991    0.5463    0.4400 H   0  0  0  0  0  0  0  0  0  0  0  0
   -1.7406   -0.4163    1.9527 H   0  0  0  0  0  0  0  0  0  0  0  0
    0.7132    1.7985    0.6513 H   0  0  0  0  0  0  0  0  0  0  0  0
    1.8881    1.2970    1.8934 H   0  0  0  0  0  0  0  0  0  0  0  0
    0.4351    2.2127    2.3646 H   0  0  0  0  0  0  0  0  0  0  0  0
  1  2  1  0
  1  5  1  0
  1  6  1  0
  2  3  1  0
  3  4  2  3
  4  7  1  0
  4  8  1  0
  9 10  1  0
  9 16  1  0
  9 17  1  0
  9 18  1  0
 10 11  2  3
 10 19  1  0
 11 12  1  0
 11 20  1  0
 12 13  1  0
 13 15  1  0
 13 14  1  0
 14 21  1  0
 14 22  1  0
 15 23  1  0
 15 24  1  0
 15 25  1  0
M  RAD  1   1   2
M  END
>  <reaction>  (23) 
rmg_rxn_15711

>  <mol_properties>  (23) 
{"0": {"label": "*3", "atom_type": "Cs"}, "1": {"label": "*4", "atom_type": "O2s"}, "12": {"label": "*0", "atom_type": "N3s"}, "13": {"label": "*1", "atom_type": "N3s"}, "20": {"label": "*2", "atom_type": "H0"}}

>  <type>  (23) 
unop_19

>  <geom_source>  (23) 
Heuristics

$$$$

     RDKit          3D

 25 23  0  0  0  0  0  0  0  0999 V2000
   -1.2495    1.4903   -0.8173 C   0  0  0  0  0  3  0  0  0  0  0  0
   -0.7569    0.3102   -1.4209 O   0  0  0  0  0  0  0  0  0  0  0  0
   -1.4796    0.0346   -2.5569 N   0  0  0  0  0  0  0  0  0  0  0  0
   -1.0752   -1.0146   -3.1333 C   0  0  0  0  0  0  0  0  0  0  0  0
   -1.1509    2.3442   -1.4912 H   0  0  0  0  0  0  0  0  0  0  0  0
   -2.2960    1.3732   -0.5271 H   0  0  0  0  0  0  0  0  0  0  0  0
   -1.5940   -1.3013   -4.0383 H   0  0  0  0  0  0  0  0  0  0  0  0
   -0.2489   -1.6112   -2.7527 H   0  0  0  0  0  0  0  0  0  0  0  0
    0.9852   -2.2708   -0.7311 C   0  0  0  0  0  0  0  0  0  0  0  0
    0.9852   -2.2708    0.7642 C   0  0  0  0  0  0  0  0  0  0  0  0
    0.9852   -1.1933    1.5369 C   0  0  0  0  0  0  0  0  0  0  0  0
    1.0285    0.0687    1.0293 O   0  0  0  0  0  0  0  0  0  0  0  0
    0.4451    1.0099    1.9658 N   0  0  0  0  0  0  0  0  0  0  0  0
   -0.9005    1.1857    1.6693 N   0  0  0  0  0  0  0  0  0  0  0  0
    1.1625    2.2461    1.7157 C   0  0  0  0  0  0  0  0  0  0  0  0
    1.9409   -2.6269   -1.1255 H   0  0  0  0  0  0  0  0  0  0  0  0
    0.8130   -1.2708   -1.1273 H   0  0  0  0  0  0  0  0  0  0  0  0
    0.2113   -2.9367   -1.1199 H   0  0  0  0  0  0  0  0  0  0  0  0
    1.0180   -3.2262    1.2739 H   0  0  0  0  0  0  0  0  0  0  0  0
    0.9824   -1.2375    2.6203 H   0  0  0  0  0  0  0  0  0  0  0  0
   -1.0692    1.3330    0.4670 H   0  0  0  0  0  0  0  0  0  0  0  0
   -1.4108    0.3704    1.9798 H   0  0  0  0  0  0  0  0  0  0  0  0
    1.0430    2.5852    0.6784 H   0  0  0  0  0  0  0  0  0  0  0  0
    2.2180    2.0838    1.9204 H   0  0  0  0  0  0  0  0  0  0  0  0
    0.7649    2.9994    2.3917 H   0  0  0  0  0  0  0  0  0  0  0  0
  1  2  1  0
  1  5  1  0
  1  6  1  0
  2  3  1  0
  3  4  2  3
  4  7  1  0
  4  8  1  0
  9 10  1  0
  9 16  1  0
  9 17  1  0
  9 18  1  0
 10 11  2  3
 10 19  1  0
 11 12  1  0
 11 20  1  0
 12 13  1  0
 13 15  1  0
 13 14  1  0
 14 21  1  0
 14 22  1  0
 15 23  1  0
 15 24  1  0
 15 25  1  0
M  RAD  1   1   2
M  END
>  <reaction>  (24) 
rmg_rxn_15711

>  <mol_properties>  (24) 
{"0": {"label": "*3", "atom_type": "Cs"}, "1": {"label": "*4", "atom_type": "O2s"}, "12": {"label": "*0", "atom_type": "N3s"}, "13": {"label": "*1", "atom_type": "N3s"}, "20": {"label": "*2", "atom_type": "H0"}}

>  <type>  (24) 
unop_20

>  <geom_source>  (24) 
Heuristics

$$$$

     RDKit          3D

 25 23  0  0  0  0  0  0  0  0999 V2000
   -0.6961    0.7786   -0.9706 C   0  0  0  0  0  3  0  0  0  0  0  0
   -1.8378    1.6030   -1.0994 O   0  0  0  0  0  0  0  0  0  0  0  0
   -2.4459    1.3663   -2.3090 N   0  0  0  0  0  0  0  0  0  0  0  0
   -3.4746    2.0821   -2.4707 C   0  0  0  0  0  0  0  0  0  0  0  0
   -0.9713   -0.2779   -1.0051 H   0  0  0  0  0  0  0  0  0  0  0  0
    0.0308    0.9923   -1.7574 H   0  0  0  0  0  0  0  0  0  0  0  0
   -4.0122    1.9552   -3.4008 H   0  0  0  0  0  0  0  0  0  0  0  0
   -3.8164    2.7946   -1.7230 H   0  0  0  0  0  0  0  0  0  0  0  0
    1.5385   -2.9825   -0.8845 C   0  0  0  0  0  0  0  0  0  0  0  0
    1.5385   -2.9825    0.6108 C   0  0  0  0  0  0  0  0  0  0  0  0
    1.5385   -1.9050    1.3835 C   0  0  0  0  0  0  0  0  0  0  0  0
    1.5818   -0.6429    0.8759 O   0  0  0  0  0  0  0  0  0  0  0  0
    0.9984    0.2982    1.8125 N   0  0  0  0  0  0  0  0  0  0  0  0
   -0.3472    0.4741    1.5160 N   0  0  0  0  0  0  0  0  0  0  0  0
    1.7158    1.5344    1.5624 C   0  0  0  0  0  0  0  0  0  0  0  0
    2.4942   -3.3385   -1.2788 H   0  0  0  0  0  0  0  0  0  0  0  0
    1.3664   -1.9824   -1.2806 H   0  0  0  0  0  0  0  0  0  0  0  0
    0.7646   -3.6483   -1.2733 H   0  0  0  0  0  0  0  0  0  0  0  0
    1.5714   -3.9379    1.1205 H   0  0  0  0  0  0  0  0  0  0  0  0
    1.5357   -1.9492    2.4669 H   0  0  0  0  0  0  0  0  0  0  0  0
   -0.5159    0.6214    0.3136 H   0  0  0  0  0  0  0  0  0  0  0  0
   -0.8575   -0.3412    1.8264 H   0  0  0  0  0  0  0  0  0  0  0  0
    1.5963    1.8736    0.5250 H   0  0  0  0  0  0  0  0  0  0  0  0
    2.7713    1.3721    1.7671 H   0  0  0  0  0  0  0  0  0  0  0  0
    1.3182    2.2877    2.2383 H   0  0  0  0  0  0  0  0  0  0  0  0
  1  2  1  0
  1  5  1  0
  1  6  1  0
  2  3  1  0
  3  4  2  3
  4  7  1  0
  4  8  1  0
  9 10  1  0
  9 16  1  0
  9 17  1  0
  9 18  1  0
 10 11  2  3
 10 19  1  0
 11 12  1  0
 11 20  1  0
 12 13  1  0
 13 15  1  0
 13 14  1  0
 14 21  1  0
 14 22  1  0
 15 23  1  0
 15 24  1  0
 15 25  1  0
M  RAD  1   1   2
M  END
>  <reaction>  (25) 
rmg_rxn_15711

>  <mol_properties>  (25) 
{"0": {"label": "*3", "atom_type": "Cs"}, "1": {"label": "*4", "atom_type": "O2s"}, "12": {"label": "*0", "atom_type": "N3s"}, "13": {"label": "*1", "atom_type": "N3s"}, "20": {"label": "*2", "atom_type": "H0"}}

>  <type>  (25) 
unop_21

>  <geom_source>  (25) 
Heuristics

$$$$

     RDKit          3D

 25 23  0  0  0  0  0  0  0  0999 V2000
   -1.6441    1.0226   -0.7841 C   0  0  0  0  0  3  0  0  0  0  0  0
   -0.3566    0.9471   -1.3639 O   0  0  0  0  0  0  0  0  0  0  0  0
   -0.4522    1.1037   -2.7260 N   0  0  0  0  0  0  0  0  0  0  0  0
    0.6767    1.0436   -3.2906 C   0  0  0  0  0  0  0  0  0  0  0  0
   -2.1031    1.9948   -0.9771 H   0  0  0  0  0  0  0  0  0  0  0  0
   -2.2919    0.2307   -1.1667 H   0  0  0  0  0  0  0  0  0  0  0  0
    0.6875    1.1580   -4.3662 H   0  0  0  0  0  0  0  0  0  0  0  0
    1.6006    0.8853   -2.7384 H   0  0  0  0  0  0  0  0  0  0  0  0
    0.5906   -2.7385   -0.6979 C   0  0  0  0  0  0  0  0  0  0  0  0
    0.5906   -2.7385    0.7974 C   0  0  0  0  0  0  0  0  0  0  0  0
    0.5906   -1.6610    1.5701 C   0  0  0  0  0  0  0  0  0  0  0  0
    0.6338   -0.3989    1.0625 O   0  0  0  0  0  0  0  0  0  0  0  0
    0.0504    0.5422    1.9990 N   0  0  0  0  0  0  0  0  0  0  0  0
   -1.2952    0.7181    1.7025 N   0  0  0  0  0  0  0  0  0  0  0  0
    0.7678    1.7784    1.7489 C   0  0  0  0  0  0  0  0  0  0  0  0
    1.5462   -3.0945   -1.0923 H   0  0  0  0  0  0  0  0  0  0  0  0
    0.4184   -1.7384   -1.0941 H   0  0  0  0  0  0  0  0  0  0  0  0
   -0.1834   -3.4043   -1.0867 H   0  0  0  0  0  0  0  0  0  0  0  0
    0.6234   -3.6939    1.3071 H   0  0  0  0  0  0  0  0  0  0  0  0
    0.5877   -1.7052    2.6535 H   0  0  0  0  0  0  0  0  0  0  0  0
   -1.4639    0.8653    0.5002 H   0  0  0  0  0  0  0  0  0  0  0  0
   -1.8054   -0.0972    2.0129 H   0  0  0  0  0  0  0  0  0  0  0  0
    0.6484    2.1176    0.7115 H   0  0  0  0  0  0  0  0  0  0  0  0
    1.8233    1.6161    1.9536 H   0  0  0  0  0  0  0  0  0  0  0  0
    0.3703    2.5317    2.4248 H   0  0  0  0  0  0  0  0  0  0  0  0
  1  2  1  0
  1  5  1  0
  1  6  1  0
  2  3  1  0
  3  4  2  3
  4  7  1  0
  4  8  1  0
  9 10  1  0
  9 16  1  0
  9 17  1  0
  9 18  1  0
 10 11  2  3
 10 19  1  0
 11 12  1  0
 11 20  1  0
 12 13  1  0
 13 15  1  0
 13 14  1  0
 14 21  1  0
 14 22  1  0
 15 23  1  0
 15 24  1  0
 15 25  1  0
M  RAD  1   1   2
M  END
>  <reaction>  (26) 
rmg_rxn_15711

>  <mol_properties>  (26) 
{"0": {"label": "*3", "atom_type": "Cs"}, "1": {"label": "*4", "atom_type": "O2s"}, "12": {"label": "*0", "atom_type": "N3s"}, "13": {"label": "*1", "atom_type": "N3s"}, "20": {"label": "*2", "atom_type": "H0"}}

>  <type>  (26) 
unop_22

>  <geom_source>  (26) 
Heuristics

$$$$

     RDKit          3D

 25 23  0  0  0  0  0  0  0  0999 V2000
   -2.7386    0.1924    0.6518 C   0  0  0  0  0  3  0  0  0  0  0  0
   -2.0985   -1.0504    0.6123 O   0  0  0  0  0  0  0  0  0  0  0  0
   -1.5445   -1.3102   -0.6212 N   0  0  0  0  0  0  0  0  0  0  0  0
   -0.9038   -2.3919   -0.7274 C   0  0  0  0  0  0  0  0  0  0  0  0
   -3.3770    0.3644   -0.2135 H   0  0  0  0  0  0  0  0  0  0  0  0
   -3.2823    0.2347    1.5895 H   0  0  0  0  0  0  0  0  0  0  0  0
   -0.4660   -2.5998   -1.6875 H   0  0  0  0  0  0  0  0  0  0  0  0
   -0.7775   -3.1087    0.0781 H   0  0  0  0  0  0  0  0  0  0  0  0
    2.6929   -1.6945    0.5039 C   0  0  0  0  0  0  0  0  0  0  0  0
    3.0776   -0.3095    0.0988 C   0  0  0  0  0  0  0  0  0  0  0  0
    2.2272    0.7034    0.0176 C   0  0  0  0  0  0  0  0  0  0  0  0
    0.9050    0.5661    0.3197 O   0  0  0  0  0  0  0  0  0  0  0  0
    0.1008    1.7079   -0.1326 N   0  0  0  0  0  0  0  0  0  0  0  0
   -0.9074    1.9937    0.6729 N   0  0  0  0  0  0  0  0  0  0  0  0
   -0.2757    1.5265   -1.5167 C   0  0  0  0  0  0  0  0  0  0  0  0
    3.0193   -2.4137   -0.2469 H   0  0  0  0  0  0  0  0  0  0  0  0
    1.6147   -1.7607    0.6198 H   0  0  0  0  0  0  0  0  0  0  0  0
    3.1663   -1.9609    1.4488 H   0  0  0  0  0  0  0  0  0  0  0  0
    4.1179   -0.1271   -0.1209 H   0  0  0  0  0  0  0  0  0  0  0  0
    2.5287    1.7015   -0.2775 H   0  0  0  0  0  0  0  0  0  0  0  0
   -1.8607    1.1369    0.6621 H   0  0  0  0  0  0  0  0  0  0  0  0
   -0.5839    2.0349    1.6357 H   0  0  0  0  0  0  0  0  0  0  0  0
    0.6296    1.4805   -2.1195 H   0  0  0  0  0  0  0  0  0  0  0  0
   -0.8726    2.3879   -1.8049 H   0  0  0  0  0  0  0  0  0  0  0  0
   -0.8534    0.6042   -1.6496 H   0  0  0  0  0  0  0  0  0  0  0  0
  1  2  1  0
  1  5  1  0
  1  6  1  0
  2  3  1  0
  3  4  2  3
  4  7  1  0
  4  8  1  0
  9 10  1  0
  9 16  1  0
  9 17  1  0
  9 18  1  0
 10 11  2  3
 10 19  1  0
 11 12  1  0
 11 20  1  0
 12 13  1  0
 13 15  1  0
 13 14  1  0
 14 21  1  0
 14 22  1  0
 15 23  1  0
 15 24  1  0
 15 25  1  0
M  RAD  1   1   2
M  END
>  <reaction>  (27) 
rmg_rxn_15711

>  <mol_properties>  (27) 
{"0": {"label": "*3", "atom_type": "Cs"}, "1": {"label": "*4", "atom_type": "O2s"}, "12": {"label": "*0", "atom_type": "N3s"}, "13": {"label": "*1", "atom_type": "N3s"}, "20": {"label": "*2", "atom_type": "H0"}}

>  <type>  (27) 
unop_23

>  <geom_source>  (27) 
Heuristics

$$$$

     RDKit          3D

 25 23  0  0  0  0  0  0  0  0999 V2000
   -1.5126    1.3264   -0.7774 C   0  0  0  0  0  3  0  0  0  0  0  0
   -0.4767    0.5944   -1.4023 O   0  0  0  0  0  0  0  0  0  0  0  0
   -0.8065    0.3534   -2.7146 N   0  0  0  0  0  0  0  0  0  0  0  0
    0.0916   -0.3003   -3.3169 C   0  0  0  0  0  0  0  0  0  0  0  0
   -1.6597    2.2915   -1.2675 H   0  0  0  0  0  0  0  0  0  0  0  0
   -2.4495    0.7649   -0.7886 H   0  0  0  0  0  0  0  0  0  0  0  0
   -0.0924   -0.5315   -4.3575 H   0  0  0  0  0  0  0  0  0  0  0  0
    1.0092   -0.6221   -2.8290 H   0  0  0  0  0  0  0  0  0  0  0  0
    0.7220   -2.4347   -0.6912 C   0  0  0  0  0  0  0  0  0  0  0  0
    0.7220   -2.4347    0.8041 C   0  0  0  0  0  0  0  0  0  0  0  0
    0.7220   -1.3572    1.5768 C   0  0  0  0  0  0  0  0  0  0  0  0
    0.7653   -0.0951    1.0692 O   0  0  0  0  0  0  0  0  0  0  0  0
    0.1819    0.8460    2.0057 N   0  0  0  0  0  0  0  0  0  0  0  0
   -1.1637    1.0219    1.7092 N   0  0  0  0  0  0  0  0  0  0  0  0
    0.8993    2.0823    1.7556 C   0  0  0  0  0  0  0  0  0  0  0  0
    1.6777   -2.7907   -1.0856 H   0  0  0  0  0  0  0  0  0  0  0  0
    0.5499   -1.4346   -1.0874 H   0  0  0  0  0  0  0  0  0  0  0  0
   -0.0519   -3.1005   -1.0800 H   0  0  0  0  0  0  0  0  0  0  0  0
    0.7549   -3.3901    1.3138 H   0  0  0  0  0  0  0  0  0  0  0  0
    0.7192   -1.4014    2.6602 H   0  0  0  0  0  0  0  0  0  0  0  0
   -1.3324    1.1692    0.5069 H   0  0  0  0  0  0  0  0  0  0  0  0
   -1.6740    0.2066    2.0196 H   0  0  0  0  0  0  0  0  0  0  0  0
    0.7799    2.4214    0.7183 H   0  0  0  0  0  0  0  0  0  0  0  0
    1.9548    1.9200    1.9603 H   0  0  0  0  0  0  0  0  0  0  0  0
    0.5017    2.8356    2.4316 H   0  0  0  0  0  0  0  0  0  0  0  0
  1  2  1  0
  1  5  1  0
  1  6  1  0
  2  3  1  0
  3  4  2  3
  4  7  1  0
  4  8  1  0
  9 10  1  0
  9 16  1  0
  9 17  1  0
  9 18  1  0
 10 11  2  3
 10 19  1  0
 11 12  1  0
 11 20  1  0
 12 13  1  0
 13 15  1  0
 13 14  1  0
 14 21  1  0
 14 22  1  0
 15 23  1  0
 15 24  1  0
 15 25  1  0
M  RAD  1   1   2
M  END
>  <reaction>  (28) 
rmg_rxn_15711

>  <mol_properties>  (28) 
{"0": {"label": "*3", "atom_type": "Cs"}, "1": {"label": "*4", "atom_type": "O2s"}, "12": {"label": "*0", "atom_type": "N3s"}, "13": {"label": "*1", "atom_type": "N3s"}, "20": {"label": "*2", "atom_type": "H0"}}

>  <type>  (28) 
unop_24

>  <geom_source>  (28) 
gaussian_log

$$$$
