
     RDKit          3D

 15 14  0  0  0  0  0  0  0  0999 V2000
   -1.2811   -0.4129    1.0228 C   0  0  0  0  0  0  0  0  0  0  0  0
   -1.0023   -0.5809   -0.4650 C   0  0  0  0  0  0  0  0  0  0  0  0
   -2.0576    0.0568   -1.3449 C   0  0  0  0  0  0  0  0  0  0  0  0
   -2.0663    1.4464   -1.1307 O   0  0  0  0  0  0  0  0  0  0  0  0
   -3.0424    2.1072   -1.8849 C   0  0  0  0  0  0  0  0  0  0  0  0
   -2.2382   -0.8657    1.2935 H   0  0  0  0  0  0  0  0  0  0  0  0
   -1.3219    0.6426    1.2914 H   0  0  0  0  0  0  0  0  0  0  0  0
   -0.5042   -0.8881    1.6236 H   0  0  0  0  0  0  0  0  0  0  0  0
   -0.0316   -0.1460   -0.7167 H   0  0  0  0  0  0  0  0  0  0  0  0
   -0.9494   -1.6429   -0.7203 H   0  0  0  0  0  0  0  0  0  0  0  0
   -1.8518   -0.1570   -2.4041 H   0  0  0  0  0  0  0  0  0  0  0  0
   -3.0491   -0.3636   -1.1124 H   0  0  0  0  0  0  0  0  0  0  0  0
   -4.0521    1.7545   -1.6343 H   0  0  0  0  0  0  0  0  0  0  0  0
   -2.8850    1.9634   -2.9626 H   0  0  0  0  0  0  0  0  0  0  0  0
   -2.9730    3.1700   -1.6570 H   0  0  0  0  0  0  0  0  0  0  0  0
  1  2  1  0
  1  6  1  0
  1  7  1  0
  1  8  1  0
  2  3  1  0
  2  9  1  0
  2 10  1  0
  3  4  1  0
  3 11  1  0
  3 12  1  0
  4  5  1  0
  5 13  1  0
  5 14  1  0
  5 15  1  0
M  END
>  <reaction>  (1) 
rmg_rxn_15531

>  <mol_properties>  (1) 
{"1": {"label": "donator", "atom_type": "Cs"}, "8": {"label": "d_hydrogen", "atom_type": "H0"}}

>  <type>  (1) 
r1h

$$$$

     RDKit          3D

  5  4  0  0  0  0  0  0  0  0999 V2000
    0.8934    0.3742    0.4948 O   0  0  0  0  0  0  0  0  0  0  0  0
    0.1582   -0.1610   -0.5904 N   0  0  0  0  0  0  0  0  0  0  0  0
   -1.0297   -0.3739   -0.4689 C   0  0  0  0  0  3  0  0  0  0  0  0
    1.7804    0.4382    0.1306 H   0  0  0  0  0  0  0  0  0  0  0  0
   -1.8023   -0.2775    0.2859 H   0  0  0  0  0  0  0  0  0  0  0  0
  1  2  1  0
  1  4  1  0
  2  3  2  3
  3  5  1  0
M  RAD  1   3   2
M  END
>  <reaction>  (2) 
rmg_rxn_15531

>  <mol_properties>  (2) 
{"2": {"label": "acceptor", "atom_type": "Cd"}}

>  <type>  (2) 
r2

$$$$

     RDKit          3D

  6  5  0  0  0  0  0  0  0  0999 V2000
    1.2314    0.0428    0.5088 O   0  0  0  0  0  0  0  0  0  0  0  0
    0.2987    0.2341   -0.4915 N   0  0  0  0  0  0  0  0  0  0  0  0
   -0.8599   -0.1122   -0.1290 C   0  0  0  0  0  0  0  0  0  0  0  0
    2.0507    0.3401    0.1082 H   0  0  0  0  0  0  0  0  0  0  0  0
   -1.0700   -0.5112    0.8610 H   0  0  0  0  0  0  0  0  0  0  0  0
   -1.6509    0.0064   -0.8574 H   0  0  0  0  0  0  0  0  0  0  0  0
  1  2  1  0
  1  4  1  0
  2  3  2  3
  3  5  1  0
  3  6  1  0
M  END
>  <reaction>  (3) 
rmg_rxn_15531

>  <mol_properties>  (3) 
{"2": {"label": "acceptor", "atom_type": "Cd"}, "5": {"label": "a_hydrogen", "atom_type": "H0"}}

>  <type>  (3) 
r2h

$$$$

     RDKit          3D

 20 18  0  0  0  0  0  0  0  0999 V2000
   -2.3219   -2.8838    0.7893 O   0  0  0  0  0  0  0  0  0  0  0  0
   -1.0562   -2.3682    0.4666 N   0  0  0  0  0  0  0  0  0  0  0  0
   -1.0675   -1.1672    0.1454 C   0  0  0  0  0  3  0  0  0  0  0  0
   -2.1274   -3.7989    1.0040 H   0  0  0  0  0  0  0  0  0  0  0  0
   -1.9178   -0.4888    0.0902 H   0  0  0  0  0  0  0  0  0  0  0  0
    1.4127    0.0541   -1.9238 C   0  0  0  0  0  0  0  0  0  0  0  0
    1.3485   -0.1488   -0.4307 C   0  0  0  0  0  0  0  0  0  0  0  0
    1.4339    1.0928    0.4125 C   0  0  0  0  0  0  0  0  0  0  0  0
    0.3918    1.9692    0.0614 O   0  0  0  0  0  0  0  0  0  0  0  0
    0.4132    3.1622    0.7949 C   0  0  0  0  0  0  0  0  0  0  0  0
    2.3854    0.4617   -2.2182 H   0  0  0  0  0  0  0  0  0  0  0  0
    0.6456    0.7542   -2.2548 H   0  0  0  0  0  0  0  0  0  0  0  0
    1.2724   -0.8895   -2.4521 H   0  0  0  0  0  0  0  0  0  0  0  0
    0.2133   -0.6398   -0.1703 H   0  0  0  0  0  0  0  0  0  0  0  0
    2.0318   -0.9174   -0.0677 H   0  0  0  0  0  0  0  0  0  0  0  0
    1.3664    0.8320    1.4786 H   0  0  0  0  0  0  0  0  0  0  0  0
    2.4079    1.5889    0.2590 H   0  0  0  0  0  0  0  0  0  0  0  0
    1.3462    3.7176    0.6311 H   0  0  0  0  0  0  0  0  0  0  0  0
    0.3071    2.9741    1.8716 H   0  0  0  0  0  0  0  0  0  0  0  0
   -0.4244    3.7710    0.4579 H   0  0  0  0  0  0  0  0  0  0  0  0
  1  2  1  0
  1  4  1  0
  2  3  2  3
  3  5  1  0
  6  7  1  0
  6 11  1  0
  6 12  1  0
  6 13  1  0
  7  8  1  0
  7 14  1  0
  7 15  1  0
  8  9  1  0
  8 16  1  0
  8 17  1  0
  9 10  1  0
 10 18  1  0
 10 19  1  0
 10 20  1  0
M  RAD  1   3   2
M  END
>  <reaction>  (4) 
rmg_rxn_15531

>  <mol_properties>  (4) 
{"1": {"label": "*4", "atom_type": "N3d"}, "2": {"label": "*3", "atom_type": "Cd"}, "6": {"label": "*1", "atom_type": "Cs"}, "7": {"label": "*0", "atom_type": "Cs"}, "13": {"label": "*2", "atom_type": "H0"}}

>  <type>  (4) 
ts

$$$$

     RDKit          3D

 20 18  0  0  0  0  0  0  0  0999 V2000
   -3.4220   -0.1155    0.0521 O   0  0  0  0  0  0  0  0  0  0  0  0
   -2.0309   -0.0548   -0.1746 N   0  0  0  0  0  0  0  0  0  0  0  0
   -1.3761    0.9172    0.2202 C   0  0  0  0  0  0  0  0  0  0  0  0
   -3.6953   -0.9534   -0.3460 H   0  0  0  0  0  0  0  0  0  0  0  0
   -1.7044    1.8047    0.7470 H   0  0  0  0  0  0  0  0  0  0  0  0
    1.6086    2.3104   -0.0357 C   0  0  0  0  0  0  0  0  0  0  0  0
    1.1855    0.9034   -0.3729 C   0  0  0  0  0  3  0  0  0  0  0  0
    1.9102   -0.1670    0.4209 C   0  0  0  0  0  0  0  0  0  0  0  0
    1.8481   -1.4509   -0.1485 O   0  0  0  0  0  0  0  0  0  0  0  0
    0.6090   -2.1016    0.0085 C   0  0  0  0  0  0  0  0  0  0  0  0
    2.6480    2.4830   -0.3223 H   0  0  0  0  0  0  0  0  0  0  0  0
    1.5226    2.4927    1.0342 H   0  0  0  0  0  0  0  0  0  0  0  0
    0.9916    3.0338   -0.5642 H   0  0  0  0  0  0  0  0  0  0  0  0
   -0.1033    0.8597   -0.0763 H   0  0  0  0  0  0  0  0  0  0  0  0
    1.2208    0.6940   -1.4403 H   0  0  0  0  0  0  0  0  0  0  0  0
    2.9828    0.0698    0.4489 H   0  0  0  0  0  0  0  0  0  0  0  0
    1.5438   -0.1894    1.4610 H   0  0  0  0  0  0  0  0  0  0  0  0
    0.3384   -2.1767    1.0692 H   0  0  0  0  0  0  0  0  0  0  0  0
    0.7388   -3.1010   -0.4025 H   0  0  0  0  0  0  0  0  0  0  0  0
   -0.1963   -1.5847   -0.5224 H   0  0  0  0  0  0  0  0  0  0  0  0
  1  2  1  0
  1  4  1  0
  2  3  2  3
  3  5  1  0
  3 14  1  0
  6  7  1  0
  6 11  1  0
  6 12  1  0
  6 13  1  0
  7  8  1  0
  7 15  1  0
  8  9  1  0
  8 16  1  0
  8 17  1  0
  9 10  1  0
 10 18  1  0
 10 19  1  0
 10 20  1  0
M  RAD  1   7   2
M  END
>  <reaction>  (5) 
rmg_rxn_15531

>  <mol_properties>  (5) 
{"1": {"label": "*4", "atom_type": "N3d"}, "2": {"label": "*3", "atom_type": "Cd"}, "6": {"label": "*1", "atom_type": "Cs"}, "7": {"label": "*0", "atom_type": "Cs"}, "13": {"label": "*2", "atom_type": "H0"}}

>  <type>  (5) 
unop_1

>  <geom_source>  (5) 
crest_best.xyz

$$$$

     RDKit          3D

 20 18  0  0  0  0  0  0  0  0999 V2000
   -1.5450   -2.4667    2.0215 O   0  0  0  0  0  0  0  0  0  0  0  0
   -0.7044   -2.4182    0.9269 N   0  0  0  0  0  0  0  0  0  0  0  0
   -0.9302   -1.4092    0.2027 C   0  0  0  0  0  0  0  0  0  0  0  0
   -1.2712   -3.2654    2.4765 H   0  0  0  0  0  0  0  0  0  0  0  0
   -1.7025   -0.6798    0.4372 H   0  0  0  0  0  0  0  0  0  0  0  0
    1.1569   -0.1243   -2.2171 C   0  0  0  0  0  0  0  0  0  0  0  0
    1.1569   -0.1243   -0.6942 C   0  0  0  0  0  3  0  0  0  0  0  0
    1.1569    1.2683   -0.0981 C   0  0  0  0  0  0  0  0  0  0  0  0
   -0.0281    1.9317   -0.4622 O   0  0  0  0  0  0  0  0  0  0  0  0
   -0.0889    3.2428    0.0229 C   0  0  0  0  0  0  0  0  0  0  0  0
    2.0393    0.3894   -2.6068 H   0  0  0  0  0  0  0  0  0  0  0  0
    0.2745    0.3856   -2.6035 H   0  0  0  0  0  0  0  0  0  0  0  0
    1.1618   -1.1423   -2.6094 H   0  0  0  0  0  0  0  0  0  0  0  0
    0.1080   -0.7701   -0.2434 H   0  0  0  0  0  0  0  0  0  0  0  0
    2.0386   -0.6504   -0.3179 H   0  0  0  0  0  0  0  0  0  0  0  0
    1.2337    1.2146    0.9980 H   0  0  0  0  0  0  0  0  0  0  0  0
    2.0293    1.8353   -0.4603 H   0  0  0  0  0  0  0  0  0  0  0  0
    0.7350    3.8554   -0.3677 H   0  0  0  0  0  0  0  0  0  0  0  0
   -0.0469    3.2690    1.1204 H   0  0  0  0  0  0  0  0  0  0  0  0
   -1.0346    3.6730   -0.3042 H   0  0  0  0  0  0  0  0  0  0  0  0
  1  2  1  0
  1  4  1  0
  2  3  2  3
  3  5  1  0
  3 14  1  0
  6  7  1  0
  6 11  1  0
  6 12  1  0
  6 13  1  0
  7  8  1  0
  7 15  1  0
  8  9  1  0
  8 16  1  0
  8 17  1  0
  9 10  1  0
 10 18  1  0
 10 19  1  0
 10 20  1  0
M  RAD  1   7   2
M  END
>  <reaction>  (6) 
rmg_rxn_15531

>  <mol_properties>  (6) 
{"1": {"label": "*4", "atom_type": "N3d"}, "2": {"label": "*3", "atom_type": "Cd"}, "6": {"label": "*1", "atom_type": "Cs"}, "7": {"label": "*0", "atom_type": "Cs"}, "13": {"label": "*2", "atom_type": "H0"}}

>  <type>  (6) 
unop_2

>  <geom_source>  (6) 
Heuristics

$$$$

     RDKit          3D

 20 18  0  0  0  0  0  0  0  0999 V2000
   -2.0205   -3.0995    0.6244 O   0  0  0  0  0  0  0  0  0  0  0  0
   -1.1996   -2.2431   -0.0826 N   0  0  0  0  0  0  0  0  0  0  0  0
   -0.7576   -1.3082    0.6412 C   0  0  0  0  0  0  0  0  0  0  0  0
   -2.2812   -3.7491   -0.0315 H   0  0  0  0  0  0  0  0  0  0  0  0
   -1.0100   -1.2127    1.6951 H   0  0  0  0  0  0  0  0  0  0  0  0
    1.3295   -0.0233   -1.7785 C   0  0  0  0  0  0  0  0  0  0  0  0
    1.3295   -0.0233   -0.2556 C   0  0  0  0  0  3  0  0  0  0  0  0
    1.3295    1.3693    0.3404 C   0  0  0  0  0  0  0  0  0  0  0  0
    0.1445    2.0328   -0.0237 O   0  0  0  0  0  0  0  0  0  0  0  0
    0.0837    3.3439    0.4614 C   0  0  0  0  0  0  0  0  0  0  0  0
    2.2119    0.4904   -2.1683 H   0  0  0  0  0  0  0  0  0  0  0  0
    0.4471    0.4866   -2.1650 H   0  0  0  0  0  0  0  0  0  0  0  0
    1.3345   -1.0413   -2.1708 H   0  0  0  0  0  0  0  0  0  0  0  0
    0.2806   -0.6690    0.1951 H   0  0  0  0  0  0  0  0  0  0  0  0
    2.2113   -0.5494    0.1206 H   0  0  0  0  0  0  0  0  0  0  0  0
    1.4064    1.3156    1.4365 H   0  0  0  0  0  0  0  0  0  0  0  0
    2.2019    1.9364   -0.0218 H   0  0  0  0  0  0  0  0  0  0  0  0
    0.9076    3.9564    0.0708 H   0  0  0  0  0  0  0  0  0  0  0  0
    0.1257    3.3700    1.5589 H   0  0  0  0  0  0  0  0  0  0  0  0
   -0.8620    3.7740    0.1343 H   0  0  0  0  0  0  0  0  0  0  0  0
  1  2  1  0
  1  4  1  0
  2  3  2  3
  3  5  1  0
  3 14  1  0
  6  7  1  0
  6 11  1  0
  6 12  1  0
  6 13  1  0
  7  8  1  0
  7 15  1  0
  8  9  1  0
  8 16  1  0
  8 17  1  0
  9 10  1  0
 10 18  1  0
 10 19  1  0
 10 20  1  0
M  RAD  1   7   2
M  END
>  <reaction>  (7) 
rmg_rxn_15531

>  <mol_properties>  (7) 
{"1": {"label": "*4", "atom_type": "N3d"}, "2": {"label": "*3", "atom_type": "Cd"}, "6": {"label": "*1", "atom_type": "Cs"}, "7": {"label": "*0", "atom_type": "Cs"}, "13": {"label": "*2", "atom_type": "H0"}}

>  <type>  (7) 
unop_3

>  <geom_source>  (7) 
Heuristics

$$$$

     RDKit          3D

 20 18  0  0  0  0  0  0  0  0999 V2000
   -3.4221   -0.1159    0.0533 O   0  0  0  0  0  0  0  0  0  0  0  0
   -2.0308   -0.0565   -0.1724 N   0  0  0  0  0  0  0  0  0  0  0  0
   -1.3769    0.9189    0.2155 C   0  0  0  0  0  0  0  0  0  0  0  0
   -3.6947   -0.9571   -0.3384 H   0  0  0  0  0  0  0  0  0  0  0  0
   -1.7063    1.8098    0.7359 H   0  0  0  0  0  0  0  0  0  0  0  0
    1.6085    2.3107   -0.0357 C   0  0  0  0  0  0  0  0  0  0  0  0
    1.1858    0.9035   -0.3727 C   0  0  0  0  0  3  0  0  0  0  0  0
    1.9083   -0.1667    0.4234 C   0  0  0  0  0  0  0  0  0  0  0  0
    1.8493   -1.4503   -0.1471 O   0  0  0  0  0  0  0  0  0  0  0  0
    0.6103   -2.1022    0.0053 C   0  0  0  0  0  0  0  0  0  0  0  0
    1.5211    2.4935    1.0340 H   0  0  0  0  0  0  0  0  0  0  0  0
    0.9921    3.0337   -0.5654 H   0  0  0  0  0  0  0  0  0  0  0  0
    2.6482    2.4831   -0.3212 H   0  0  0  0  0  0  0  0  0  0  0  0
   -0.1039    0.8606   -0.0798 H   0  0  0  0  0  0  0  0  0  0  0  0
    1.2236    0.6933   -1.4398 H   0  0  0  0  0  0  0  0  0  0  0  0
    2.9807    0.0709    0.4557 H   0  0  0  0  0  0  0  0  0  0  0  0
    1.5379   -0.1900    1.4620 H   0  0  0  0  0  0  0  0  0  0  0  0
   -0.1941   -1.5845   -0.5262 H   0  0  0  0  0  0  0  0  0  0  0  0
    0.3372   -2.1800    1.0651 H   0  0  0  0  0  0  0  0  0  0  0  0
    0.7418   -3.1005   -0.4079 H   0  0  0  0  0  0  0  0  0  0  0  0
  1  2  1  0
  1  4  1  0
  2  3  2  3
  3  5  1  0
  3 14  1  0
  6  7  1  0
  6 11  1  0
  6 12  1  0
  6 13  1  0
  7  8  1  0
  7 15  1  0
  8  9  1  0
  8 16  1  0
  8 17  1  0
  9 10  1  0
 10 18  1  0
 10 19  1  0
 10 20  1  0
M  RAD  1   7   2
M  END
>  <reaction>  (8) 
rmg_rxn_15531

>  <mol_properties>  (8) 
{"1": {"label": "*4", "atom_type": "N3d"}, "2": {"label": "*3", "atom_type": "Cd"}, "6": {"label": "*1", "atom_type": "Cs"}, "7": {"label": "*0", "atom_type": "Cs"}, "13": {"label": "*2", "atom_type": "H0"}}

>  <type>  (8) 
unop_4

>  <geom_source>  (8) 
Heuristics

$$$$

     RDKit          3D

 20 18  0  0  0  0  0  0  0  0999 V2000
   -1.9027   -2.1167    1.9892 O   0  0  0  0  0  0  0  0  0  0  0  0
   -0.7246   -2.1103    1.2687 N   0  0  0  0  0  0  0  0  0  0  0  0
   -0.8547   -1.5276    0.1565 C   0  0  0  0  0  0  0  0  0  0  0  0
   -1.6675   -2.5804    2.7952 H   0  0  0  0  0  0  0  0  0  0  0  0
   -1.7960   -1.0909   -0.1704 H   0  0  0  0  0  0  0  0  0  0  0  0
    1.2324   -0.2426   -2.2633 C   0  0  0  0  0  0  0  0  0  0  0  0
    1.2324   -0.2426   -0.7404 C   0  0  0  0  0  3  0  0  0  0  0  0
    1.2324    1.1500   -0.1443 C   0  0  0  0  0  0  0  0  0  0  0  0
    0.0474    1.8134   -0.5085 O   0  0  0  0  0  0  0  0  0  0  0  0
   -0.0134    3.1245   -0.0233 C   0  0  0  0  0  0  0  0  0  0  0  0
    2.1148    0.2710   -2.6530 H   0  0  0  0  0  0  0  0  0  0  0  0
    0.3500    0.2673   -2.6497 H   0  0  0  0  0  0  0  0  0  0  0  0
    1.2373   -1.2606   -2.6556 H   0  0  0  0  0  0  0  0  0  0  0  0
    0.1835   -0.8884   -0.2896 H   0  0  0  0  0  0  0  0  0  0  0  0
    2.1141   -0.7688   -0.3641 H   0  0  0  0  0  0  0  0  0  0  0  0
    1.3092    1.0963    0.9517 H   0  0  0  0  0  0  0  0  0  0  0  0
    2.1048    1.7170   -0.5065 H   0  0  0  0  0  0  0  0  0  0  0  0
    0.8105    3.7371   -0.4139 H   0  0  0  0  0  0  0  0  0  0  0  0
    0.0286    3.1506    1.0742 H   0  0  0  0  0  0  0  0  0  0  0  0
   -0.9591    3.5546   -0.3504 H   0  0  0  0  0  0  0  0  0  0  0  0
  1  2  1  0
  1  4  1  0
  2  3  2  3
  3  5  1  0
  3 14  1  0
  6  7  1  0
  6 11  1  0
  6 12  1  0
  6 13  1  0
  7  8  1  0
  7 15  1  0
  8  9  1  0
  8 16  1  0
  8 17  1  0
  9 10  1  0
 10 18  1  0
 10 19  1  0
 10 20  1  0
M  RAD  1   7   2
M  END
>  <reaction>  (9) 
rmg_rxn_15531

>  <mol_properties>  (9) 
{"1": {"label": "*4", "atom_type": "N3d"}, "2": {"label": "*3", "atom_type": "Cd"}, "6": {"label": "*1", "atom_type": "Cs"}, "7": {"label": "*0", "atom_type": "Cs"}, "13": {"label": "*2", "atom_type": "H0"}}

>  <type>  (9) 
unop_5

>  <geom_source>  (9) 
Heuristics

$$$$

     RDKit          3D

 20 18  0  0  0  0  0  0  0  0999 V2000
   -2.6394   -1.5290    1.1400 O   0  0  0  0  0  0  0  0  0  0  0  0
   -1.6867   -1.3164    0.1631 N   0  0  0  0  0  0  0  0  0  0  0  0
   -0.5572   -1.7690    0.4990 C   0  0  0  0  0  0  0  0  0  0  0  0
   -3.4333   -1.1445    0.7633 H   0  0  0  0  0  0  0  0  0  0  0  0
   -0.3832   -2.2638    1.4521 H   0  0  0  0  0  0  0  0  0  0  0  0
    1.5299   -0.4841   -1.9208 C   0  0  0  0  0  0  0  0  0  0  0  0
    1.5299   -0.4841   -0.3979 C   0  0  0  0  0  3  0  0  0  0  0  0
    1.5299    0.9085    0.1981 C   0  0  0  0  0  0  0  0  0  0  0  0
    0.3449    1.5720   -0.1660 O   0  0  0  0  0  0  0  0  0  0  0  0
    0.2841    2.8831    0.3192 C   0  0  0  0  0  0  0  0  0  0  0  0
    2.4123    0.0296   -2.3105 H   0  0  0  0  0  0  0  0  0  0  0  0
    0.6475    0.0258   -2.3072 H   0  0  0  0  0  0  0  0  0  0  0  0
    1.5348   -1.5021   -2.3131 H   0  0  0  0  0  0  0  0  0  0  0  0
    0.4810   -1.1298    0.0528 H   0  0  0  0  0  0  0  0  0  0  0  0
    2.4117   -1.0102   -0.0217 H   0  0  0  0  0  0  0  0  0  0  0  0
    1.6068    0.8548    1.2942 H   0  0  0  0  0  0  0  0  0  0  0  0
    2.4023    1.4755   -0.1640 H   0  0  0  0  0  0  0  0  0  0  0  0
    1.1080    3.4956   -0.0715 H   0  0  0  0  0  0  0  0  0  0  0  0
    0.3261    2.9092    1.4166 H   0  0  0  0  0  0  0  0  0  0  0  0
   -0.6616    3.3132   -0.0080 H   0  0  0  0  0  0  0  0  0  0  0  0
  1  2  1  0
  1  4  1  0
  2  3  2  3
  3  5  1  0
  3 14  1  0
  6  7  1  0
  6 11  1  0
  6 12  1  0
  6 13  1  0
  7  8  1  0
  7 15  1  0
  8  9  1  0
  8 16  1  0
  8 17  1  0
  9 10  1  0
 10 18  1  0
 10 19  1  0
 10 20  1  0
M  RAD  1   7   2
M  END
>  <reaction>  (10) 
rmg_rxn_15531

>  <mol_properties>  (10) 
{"1": {"label": "*4", "atom_type": "N3d"}, "2": {"label": "*3", "atom_type": "Cd"}, "6": {"label": "*1", "atom_type": "Cs"}, "7": {"label": "*0", "atom_type": "Cs"}, "13": {"label": "*2", "atom_type": "H0"}}

>  <type>  (10) 
unop_6

>  <geom_source>  (10) 
Heuristics

$$$$

     RDKit          3D

 20 18  0  0  0  0  0  0  0  0999 V2000
   -3.4238   -0.1185    0.0499 O   0  0  0  0  0  0  0  0  0  0  0  0
   -2.0325   -0.0565   -0.1754 N   0  0  0  0  0  0  0  0  0  0  0  0
   -1.3778    0.9127    0.2266 C   0  0  0  0  0  0  0  0  0  0  0  0
   -3.6969   -0.9534   -0.3545 H   0  0  0  0  0  0  0  0  0  0  0  0
   -1.7061    1.7966    0.7594 H   0  0  0  0  0  0  0  0  0  0  0  0
    1.6037    2.3125   -0.0387 C   0  0  0  0  0  0  0  0  0  0  0  0
    1.1825    0.9040   -0.3723 C   0  0  0  0  0  3  0  0  0  0  0  0
    1.9118   -0.1637    0.4208 C   0  0  0  0  0  0  0  0  0  0  0  0
    1.8529   -1.4479   -0.1484 O   0  0  0  0  0  0  0  0  0  0  0  0
    0.6152   -2.1014    0.0085 C   0  0  0  0  0  0  0  0  0  0  0  0
    2.6415    2.4870   -0.3297 H   0  0  0  0  0  0  0  0  0  0  0  0
    1.5214    2.4962    1.0313 H   0  0  0  0  0  0  0  0  0  0  0  0
    0.9829    3.0336   -0.5659 H   0  0  0  0  0  0  0  0  0  0  0  0
   -0.1053    0.8579   -0.0720 H   0  0  0  0  0  0  0  0  0  0  0  0
    1.2149    0.6931   -1.4394 H   0  0  0  0  0  0  0  0  0  0  0  0
    2.9837    0.0764    0.4472 H   0  0  0  0  0  0  0  0  0  0  0  0
    1.5470   -0.1872    1.4614 H   0  0  0  0  0  0  0  0  0  0  0  0
    0.7469   -3.1001   -0.4036 H   0  0  0  0  0  0  0  0  0  0  0  0
   -0.1914   -1.5857   -0.5216 H   0  0  0  0  0  0  0  0  0  0  0  0
    0.3452   -2.1781    1.0692 H   0  0  0  0  0  0  0  0  0  0  0  0
  1  2  1  0
  1  4  1  0
  2  3  2  3
  3  5  1  0
  3 14  1  0
  6  7  1  0
  6 11  1  0
  6 12  1  0
  6 13  1  0
  7  8  1  0
  7 15  1  0
  8  9  1  0
  8 16  1  0
  8 17  1  0
  9 10  1  0
 10 18  1  0
 10 19  1  0
 10 20  1  0
M  RAD  1   7   2
M  END
>  <reaction>  (11) 
rmg_rxn_15531

>  <mol_properties>  (11) 
{"1": {"label": "*4", "atom_type": "N3d"}, "2": {"label": "*3", "atom_type": "Cd"}, "6": {"label": "*1", "atom_type": "Cs"}, "7": {"label": "*0", "atom_type": "Cs"}, "13": {"label": "*2", "atom_type": "H0"}}

>  <type>  (11) 
unop_7

>  <geom_source>  (11) 
Heuristics

$$$$

     RDKit          3D

 20 18  0  0  0  0  0  0  0  0999 V2000
   -2.0502   -2.3306    1.7941 O   0  0  0  0  0  0  0  0  0  0  0  0
   -0.9168   -1.6328    1.4259 N   0  0  0  0  0  0  0  0  0  0  0  0
   -0.7952   -1.5580    0.1717 C   0  0  0  0  0  0  0  0  0  0  0  0
   -2.0205   -2.3123    2.7527 H   0  0  0  0  0  0  0  0  0  0  0  0
   -1.5139   -2.0004   -0.5148 H   0  0  0  0  0  0  0  0  0  0  0  0
    1.2919   -0.2730   -2.2481 C   0  0  0  0  0  0  0  0  0  0  0  0
    1.2919   -0.2730   -0.7252 C   0  0  0  0  0  3  0  0  0  0  0  0
    1.2919    1.1195   -0.1291 C   0  0  0  0  0  0  0  0  0  0  0  0
    0.1068    1.7830   -0.4933 O   0  0  0  0  0  0  0  0  0  0  0  0
    0.0461    3.0941   -0.0081 C   0  0  0  0  0  0  0  0  0  0  0  0
    2.1743    0.2406   -2.6378 H   0  0  0  0  0  0  0  0  0  0  0  0
    0.4094    0.2369   -2.6345 H   0  0  0  0  0  0  0  0  0  0  0  0
    1.2968   -1.2910   -2.6404 H   0  0  0  0  0  0  0  0  0  0  0  0
    0.2429   -0.9188   -0.2744 H   0  0  0  0  0  0  0  0  0  0  0  0
    2.1736   -0.7992   -0.3489 H   0  0  0  0  0  0  0  0  0  0  0  0
    1.3687    1.0658    0.9669 H   0  0  0  0  0  0  0  0  0  0  0  0
    2.1643    1.6866   -0.4913 H   0  0  0  0  0  0  0  0  0  0  0  0
    0.8699    3.7067   -0.3987 H   0  0  0  0  0  0  0  0  0  0  0  0
    0.0880    3.1202    1.0894 H   0  0  0  0  0  0  0  0  0  0  0  0
   -0.8996    3.5242   -0.3352 H   0  0  0  0  0  0  0  0  0  0  0  0
  1  2  1  0
  1  4  1  0
  2  3  2  3
  3  5  1  0
  3 14  1  0
  6  7  1  0
  6 11  1  0
  6 12  1  0
  6 13  1  0
  7  8  1  0
  7 15  1  0
  8  9  1  0
  8 16  1  0
  8 17  1  0
  9 10  1  0
 10 18  1  0
 10 19  1  0
 10 20  1  0
M  RAD  1   7   2
M  END
>  <reaction>  (12) 
rmg_rxn_15531

>  <mol_properties>  (12) 
{"1": {"label": "*4", "atom_type": "N3d"}, "2": {"label": "*3", "atom_type": "Cd"}, "6": {"label": "*1", "atom_type": "Cs"}, "7": {"label": "*0", "atom_type": "Cs"}, "13": {"label": "*2", "atom_type": "H0"}}

>  <type>  (12) 
unop_8

>  <geom_source>  (12) 
Heuristics

$$$$

     RDKit          3D

 20 18  0  0  0  0  0  0  0  0999 V2000
    3.4227    0.1161    0.0508 O   0  0  0  0  0  0  0  0  0  0  0  0
    2.0320    0.0537   -0.1778 N   0  0  0  0  0  0  0  0  0  0  0  0
    1.3757   -0.9130    0.2275 C   0  0  0  0  0  0  0  0  0  0  0  0
    3.6974    0.9486   -0.3574 H   0  0  0  0  0  0  0  0  0  0  0  0
    1.7024   -1.7946    0.7653 H   0  0  0  0  0  0  0  0  0  0  0  0
   -1.6068   -2.3109   -0.0380 C   0  0  0  0  0  0  0  0  0  0  0  0
   -1.1842   -0.9032   -0.3728 C   0  0  0  0  0  3  0  0  0  0  0  0
   -1.9122    0.1659    0.4198 C   0  0  0  0  0  0  0  0  0  0  0  0
   -1.8495    1.4504   -0.1482 O   0  0  0  0  0  0  0  0  0  0  0  0
   -0.6101    2.1002    0.0094 C   0  0  0  0  0  0  0  0  0  0  0  0
   -0.9874   -3.0331   -0.5653 H   0  0  0  0  0  0  0  0  0  0  0  0
   -2.6452   -2.4843   -0.3279 H   0  0  0  0  0  0  0  0  0  0  0  0
   -1.5239   -2.4941    1.0320 H   0  0  0  0  0  0  0  0  0  0  0  0
    0.1037   -0.8581   -0.0728 H   0  0  0  0  0  0  0  0  0  0  0  0
   -1.2166   -0.6930   -1.4401 H   0  0  0  0  0  0  0  0  0  0  0  0
   -2.9847   -0.0717    0.4445 H   0  0  0  0  0  0  0  0  0  0  0  0
   -1.5487    0.1877    1.4609 H   0  0  0  0  0  0  0  0  0  0  0  0
   -0.3380    2.1716    1.0699 H   0  0  0  0  0  0  0  0  0  0  0  0
   -0.7401    3.1011   -0.3981 H   0  0  0  0  0  0  0  0  0  0  0  0
    0.1944    1.5850   -0.5244 H   0  0  0  0  0  0  0  0  0  0  0  0
  1  2  1  0
  1  4  1  0
  2  3  2  3
  3  5  1  0
  3 14  1  0
  6  7  1  0
  6 11  1  0
  6 12  1  0
  6 13  1  0
  7  8  1  0
  7 15  1  0
  8  9  1  0
  8 16  1  0
  8 17  1  0
  9 10  1  0
 10 18  1  0
 10 19  1  0
 10 20  1  0
M  RAD  1   7   2
M  END
>  <reaction>  (13) 
rmg_rxn_15531

>  <mol_properties>  (13) 
{"1": {"label": "*4", "atom_type": "N3d"}, "2": {"label": "*3", "atom_type": "Cd"}, "6": {"label": "*1", "atom_type": "Cs"}, "7": {"label": "*0", "atom_type": "Cs"}, "13": {"label": "*2", "atom_type": "H0"}}

>  <type>  (13) 
unop_9

>  <geom_source>  (13) 
Heuristics

$$$$

     RDKit          3D

 20 18  0  0  0  0  0  0  0  0999 V2000
   -2.3173   -1.4906    1.6887 O   0  0  0  0  0  0  0  0  0  0  0  0
   -1.6688   -1.1235    0.5261 N   0  0  0  0  0  0  0  0  0  0  0  0
   -0.6251   -1.8065    0.3319 C   0  0  0  0  0  0  0  0  0  0  0  0
   -3.0767   -0.9053    1.7137 H   0  0  0  0  0  0  0  0  0  0  0  0
   -0.2986   -2.5864    1.0165 H   0  0  0  0  0  0  0  0  0  0  0  0
    1.4620   -0.5216   -2.0879 C   0  0  0  0  0  0  0  0  0  0  0  0
    1.4620   -0.5216   -0.5650 C   0  0  0  0  0  3  0  0  0  0  0  0
    1.4620    0.8710    0.0311 C   0  0  0  0  0  0  0  0  0  0  0  0
    0.2770    1.5344   -0.3330 O   0  0  0  0  0  0  0  0  0  0  0  0
    0.2162    2.8455    0.1521 C   0  0  0  0  0  0  0  0  0  0  0  0
    2.3444   -0.0079   -2.4776 H   0  0  0  0  0  0  0  0  0  0  0  0
    0.5796   -0.0117   -2.4743 H   0  0  0  0  0  0  0  0  0  0  0  0
    1.4669   -1.5396   -2.4802 H   0  0  0  0  0  0  0  0  0  0  0  0
    0.4131   -1.1674   -0.1142 H   0  0  0  0  0  0  0  0  0  0  0  0
    2.3437   -1.0477   -0.1887 H   0  0  0  0  0  0  0  0  0  0  0  0
    1.5388    0.8173    1.1272 H   0  0  0  0  0  0  0  0  0  0  0  0
    2.3344    1.4380   -0.3311 H   0  0  0  0  0  0  0  0  0  0  0  0
    1.0401    3.4581   -0.2385 H   0  0  0  0  0  0  0  0  0  0  0  0
    0.2582    2.8716    1.2496 H   0  0  0  0  0  0  0  0  0  0  0  0
   -0.7295    3.2757   -0.1750 H   0  0  0  0  0  0  0  0  0  0  0  0
  1  2  1  0
  1  4  1  0
  2  3  2  3
  3  5  1  0
  3 14  1  0
  6  7  1  0
  6 11  1  0
  6 12  1  0
  6 13  1  0
  7  8  1  0
  7 15  1  0
  8  9  1  0
  8 16  1  0
  8 17  1  0
  9 10  1  0
 10 18  1  0
 10 19  1  0
 10 20  1  0
M  RAD  1   7   2
M  END
>  <reaction>  (14) 
rmg_rxn_15531

>  <mol_properties>  (14) 
{"1": {"label": "*4", "atom_type": "N3d"}, "2": {"label": "*3", "atom_type": "Cd"}, "6": {"label": "*1", "atom_type": "Cs"}, "7": {"label": "*0", "atom_type": "Cs"}, "13": {"label": "*2", "atom_type": "H0"}}

>  <type>  (14) 
unop_10

>  <geom_source>  (14) 
Heuristics

$$$$

     RDKit          3D

 20 18  0  0  0  0  0  0  0  0999 V2000
   -3.4222   -0.1164    0.0533 O   0  0  0  0  0  0  0  0  0  0  0  0
   -2.0306   -0.0576   -0.1709 N   0  0  0  0  0  0  0  0  0  0  0  0
   -1.3776    0.9198    0.2136 C   0  0  0  0  0  0  0  0  0  0  0  0
   -3.6939   -0.9594   -0.3350 H   0  0  0  0  0  0  0  0  0  0  0  0
   -1.7083    1.8133    0.7288 H   0  0  0  0  0  0  0  0  0  0  0  0
    1.6081    2.3108   -0.0352 C   0  0  0  0  0  0  0  0  0  0  0  0
    1.1856    0.9036   -0.3725 C   0  0  0  0  0  3  0  0  0  0  0  0
    1.9081   -0.1664    0.4237 C   0  0  0  0  0  0  0  0  0  0  0  0
    1.8498   -1.4499   -0.1472 O   0  0  0  0  0  0  0  0  0  0  0  0
    0.6111   -2.1024    0.0050 C   0  0  0  0  0  0  0  0  0  0  0  0
    0.9925    3.0339   -0.5659 H   0  0  0  0  0  0  0  0  0  0  0  0
    2.6482    2.4829   -0.3194 H   0  0  0  0  0  0  0  0  0  0  0  0
    1.5194    2.4940    1.0342 H   0  0  0  0  0  0  0  0  0  0  0  0
   -0.1042    0.8608   -0.0794 H   0  0  0  0  0  0  0  0  0  0  0  0
    1.2234    0.6935   -1.4397 H   0  0  0  0  0  0  0  0  0  0  0  0
    2.9804    0.0716    0.4563 H   0  0  0  0  0  0  0  0  0  0  0  0
    1.5374   -0.1902    1.4621 H   0  0  0  0  0  0  0  0  0  0  0  0
   -0.1938   -1.5845   -0.5256 H   0  0  0  0  0  0  0  0  0  0  0  0
    0.3384   -2.1814    1.0649 H   0  0  0  0  0  0  0  0  0  0  0  0
    0.7428   -3.1003   -0.4092 H   0  0  0  0  0  0  0  0  0  0  0  0
  1  2  1  0
  1  4  1  0
  2  3  2  3
  3  5  1  0
  3 14  1  0
  6  7  1  0
  6 11  1  0
  6 12  1  0
  6 13  1  0
  7  8  1  0
  7 15  1  0
  8  9  1  0
  8 16  1  0
  8 17  1  0
  9 10  1  0
 10 18  1  0
 10 19  1  0
 10 20  1  0
M  RAD  1   7   2
M  END
>  <reaction>  (15) 
rmg_rxn_15531

>  <mol_properties>  (15) 
{"1": {"label": "*4", "atom_type": "N3d"}, "2": {"label": "*3", "atom_type": "Cd"}, "6": {"label": "*1", "atom_type": "Cs"}, "7": {"label": "*0", "atom_type": "Cs"}, "13": {"label": "*2", "atom_type": "H0"}}

>  <type>  (15) 
unop_11

>  <geom_source>  (15) 
Heuristics

$$$$

     RDKit          3D

 20 18  0  0  0  0  0  0  0  0999 V2000
   -1.9442   -1.8183    2.0215 O   0  0  0  0  0  0  0  0  0  0  0  0
   -1.5224   -1.0895    0.9269 N   0  0  0  0  0  0  0  0  0  0  0  0
   -0.7232   -1.7455    0.2027 C   0  0  0  0  0  0  0  0  0  0  0  0
   -2.5341   -1.2141    2.4765 H   0  0  0  0  0  0  0  0  0  0  0  0
   -0.4196   -2.7635    0.4372 H   0  0  0  0  0  0  0  0  0  0  0  0
    1.3639   -0.4605   -2.2171 C   0  0  0  0  0  0  0  0  0  0  0  0
    1.3639   -0.4605   -0.6942 C   0  0  0  0  0  3  0  0  0  0  0  0
    1.3639    0.9320   -0.0981 C   0  0  0  0  0  0  0  0  0  0  0  0
    0.1789    1.5955   -0.4622 O   0  0  0  0  0  0  0  0  0  0  0  0
    0.1181    2.9066    0.0229 C   0  0  0  0  0  0  0  0  0  0  0  0
    2.2463    0.0531   -2.6068 H   0  0  0  0  0  0  0  0  0  0  0  0
    0.4815    0.0494   -2.6035 H   0  0  0  0  0  0  0  0  0  0  0  0
    1.3688   -1.4785   -2.6094 H   0  0  0  0  0  0  0  0  0  0  0  0
    0.3150   -1.1063   -0.2434 H   0  0  0  0  0  0  0  0  0  0  0  0
    2.2456   -0.9867   -0.3179 H   0  0  0  0  0  0  0  0  0  0  0  0
    1.4407    0.8783    0.9980 H   0  0  0  0  0  0  0  0  0  0  0  0
    2.2363    1.4991   -0.4603 H   0  0  0  0  0  0  0  0  0  0  0  0
    0.9420    3.5191   -0.3677 H   0  0  0  0  0  0  0  0  0  0  0  0
    0.1601    2.9327    1.1204 H   0  0  0  0  0  0  0  0  0  0  0  0
   -0.8276    3.3367   -0.3042 H   0  0  0  0  0  0  0  0  0  0  0  0
  1  2  1  0
  1  4  1  0
  2  3  2  3
  3  5  1  0
  3 14  1  0
  6  7  1  0
  6 11  1  0
  6 12  1  0
  6 13  1  0
  7  8  1  0
  7 15  1  0
  8  9  1  0
  8 16  1  0
  8 17  1  0
  9 10  1  0
 10 18  1  0
 10 19  1  0
 10 20  1  0
M  RAD  1   7   2
M  END
>  <reaction>  (16) 
rmg_rxn_15531

>  <mol_properties>  (16) 
{"1": {"label": "*4", "atom_type": "N3d"}, "2": {"label": "*3", "atom_type": "Cd"}, "6": {"label": "*1", "atom_type": "Cs"}, "7": {"label": "*0", "atom_type": "Cs"}, "13": {"label": "*2", "atom_type": "H0"}}

>  <type>  (16) 
unop_12

>  <geom_source>  (16) 
Heuristics

$$$$

     RDKit          3D

 20 18  0  0  0  0  0  0  0  0999 V2000
   -1.4205   -2.9473    1.6887 O   0  0  0  0  0  0  0  0  0  0  0  0
   -0.8006   -2.5336    0.5261 N   0  0  0  0  0  0  0  0  0  0  0  0
   -0.9406   -1.2942    0.3319 C   0  0  0  0  0  0  0  0  0  0  0  0
   -1.2398   -3.8890    1.7137 H   0  0  0  0  0  0  0  0  0  0  0  0
   -1.4899   -0.6514    1.0165 H   0  0  0  0  0  0  0  0  0  0  0  0
    1.1465   -0.0092   -2.0879 C   0  0  0  0  0  0  0  0  0  0  0  0
    1.1465   -0.0092   -0.5650 C   0  0  0  0  0  3  0  0  0  0  0  0
    1.1465    1.3834    0.0311 C   0  0  0  0  0  0  0  0  0  0  0  0
   -0.0385    2.0468   -0.3330 O   0  0  0  0  0  0  0  0  0  0  0  0
   -0.0993    3.3579    0.1521 C   0  0  0  0  0  0  0  0  0  0  0  0
    2.0289    0.5044   -2.4776 H   0  0  0  0  0  0  0  0  0  0  0  0
    0.2641    0.5007   -2.4743 H   0  0  0  0  0  0  0  0  0  0  0  0
    1.1515   -1.0272   -2.4802 H   0  0  0  0  0  0  0  0  0  0  0  0
    0.0976   -0.6550   -0.1142 H   0  0  0  0  0  0  0  0  0  0  0  0
    2.0283   -0.5354   -0.1887 H   0  0  0  0  0  0  0  0  0  0  0  0
    1.2234    1.3297    1.1272 H   0  0  0  0  0  0  0  0  0  0  0  0
    2.0189    1.9504   -0.3311 H   0  0  0  0  0  0  0  0  0  0  0  0
    0.7246    3.9705   -0.2385 H   0  0  0  0  0  0  0  0  0  0  0  0
   -0.0573    3.3840    1.2496 H   0  0  0  0  0  0  0  0  0  0  0  0
   -1.0450    3.7880   -0.1750 H   0  0  0  0  0  0  0  0  0  0  0  0
  1  2  1  0
  1  4  1  0
  2  3  2  3
  3  5  1  0
  3 14  1  0
  6  7  1  0
  6 11  1  0
  6 12  1  0
  6 13  1  0
  7  8  1  0
  7 15  1  0
  8  9  1  0
  8 16  1  0
  8 17  1  0
  9 10  1  0
 10 18  1  0
 10 19  1  0
 10 20  1  0
M  RAD  1   7   2
M  END
>  <reaction>  (17) 
rmg_rxn_15531

>  <mol_properties>  (17) 
{"1": {"label": "*4", "atom_type": "N3d"}, "2": {"label": "*3", "atom_type": "Cd"}, "6": {"label": "*1", "atom_type": "Cs"}, "7": {"label": "*0", "atom_type": "Cs"}, "13": {"label": "*2", "atom_type": "H0"}}

>  <type>  (17) 
unop_13

>  <geom_source>  (17) 
Heuristics

$$$$

     RDKit          3D

 20 18  0  0  0  0  0  0  0  0999 V2000
   -3.4220   -0.1155    0.0521 O   0  0  0  0  0  0  0  0  0  0  0  0
   -2.0309   -0.0548   -0.1746 N   0  0  0  0  0  0  0  0  0  0  0  0
   -1.3761    0.9172    0.2202 C   0  0  0  0  0  0  0  0  0  0  0  0
   -3.6953   -0.9534   -0.3460 H   0  0  0  0  0  0  0  0  0  0  0  0
   -1.7044    1.8047    0.7470 H   0  0  0  0  0  0  0  0  0  0  0  0
    1.6086    2.3104   -0.0357 C   0  0  0  0  0  0  0  0  0  0  0  0
    1.1855    0.9034   -0.3729 C   0  0  0  0  0  3  0  0  0  0  0  0
    1.9102   -0.1670    0.4209 C   0  0  0  0  0  0  0  0  0  0  0  0
    1.8481   -1.4509   -0.1485 O   0  0  0  0  0  0  0  0  0  0  0  0
    0.6090   -2.1016    0.0085 C   0  0  0  0  0  0  0  0  0  0  0  0
    2.6480    2.4830   -0.3223 H   0  0  0  0  0  0  0  0  0  0  0  0
    1.5226    2.4927    1.0342 H   0  0  0  0  0  0  0  0  0  0  0  0
    0.9916    3.0338   -0.5642 H   0  0  0  0  0  0  0  0  0  0  0  0
   -0.1033    0.8597   -0.0763 H   0  0  0  0  0  0  0  0  0  0  0  0
    1.2208    0.6940   -1.4403 H   0  0  0  0  0  0  0  0  0  0  0  0
    2.9828    0.0698    0.4489 H   0  0  0  0  0  0  0  0  0  0  0  0
    1.5438   -0.1894    1.4610 H   0  0  0  0  0  0  0  0  0  0  0  0
    0.3384   -2.1767    1.0692 H   0  0  0  0  0  0  0  0  0  0  0  0
    0.7388   -3.1010   -0.4025 H   0  0  0  0  0  0  0  0  0  0  0  0
   -0.1963   -1.5847   -0.5224 H   0  0  0  0  0  0  0  0  0  0  0  0
  1  2  1  0
  1  4  1  0
  2  3  2  3
  3  5  1  0
  3 14  1  0
  6  7  1  0
  6 11  1  0
  6 12  1  0
  6 13  1  0
  7  8  1  0
  7 15  1  0
  8  9  1  0
  8 16  1  0
  8 17  1  0
  9 10  1  0
 10 18  1  0
 10 19  1  0
 10 20  1  0
M  RAD  1   7   2
M  END
>  <reaction>  (18) 
rmg_rxn_15531

>  <mol_properties>  (18) 
{"1": {"label": "*4", "atom_type": "N3d"}, "2": {"label": "*3", "atom_type": "Cd"}, "6": {"label": "*1", "atom_type": "Cs"}, "7": {"label": "*0", "atom_type": "Cs"}, "13": {"label": "*2", "atom_type": "H0"}}

>  <type>  (18) 
unop_14

>  <geom_source>  (18) 
Heuristics

$$$$

     RDKit          3D

 20 18  0  0  0  0  0  0  0  0999 V2000
   -2.7234   -1.9579    0.6244 O   0  0  0  0  0  0  0  0  0  0  0  0
   -1.5891   -1.6105   -0.0826 N   0  0  0  0  0  0  0  0  0  0  0  0
   -0.5552   -1.6368    0.6412 C   0  0  0  0  0  0  0  0  0  0  0  0
   -3.4207   -1.8981   -0.0315 H   0  0  0  0  0  0  0  0  0  0  0  0
   -0.5837   -1.9052    1.6951 H   0  0  0  0  0  0  0  0  0  0  0  0
    1.5319   -0.3519   -1.7785 C   0  0  0  0  0  0  0  0  0  0  0  0
    1.5319   -0.3519   -0.2556 C   0  0  0  0  0  3  0  0  0  0  0  0
    1.5319    1.0407    0.3404 C   0  0  0  0  0  0  0  0  0  0  0  0
    0.3468    1.7041   -0.0237 O   0  0  0  0  0  0  0  0  0  0  0  0
    0.2860    3.0152    0.4614 C   0  0  0  0  0  0  0  0  0  0  0  0
    2.4142    0.1618   -2.1683 H   0  0  0  0  0  0  0  0  0  0  0  0
    0.6494    0.1580   -2.1650 H   0  0  0  0  0  0  0  0  0  0  0  0
    1.5368   -1.3699   -2.1708 H   0  0  0  0  0  0  0  0  0  0  0  0
    0.4829   -0.9977    0.1951 H   0  0  0  0  0  0  0  0  0  0  0  0
    2.4136   -0.8780    0.1206 H   0  0  0  0  0  0  0  0  0  0  0  0
    1.6087    0.9870    1.4365 H   0  0  0  0  0  0  0  0  0  0  0  0
    2.4042    1.6077   -0.0218 H   0  0  0  0  0  0  0  0  0  0  0  0
    1.1099    3.6278    0.0708 H   0  0  0  0  0  0  0  0  0  0  0  0
    0.3280    3.0414    1.5589 H   0  0  0  0  0  0  0  0  0  0  0  0
   -0.6597    3.4454    0.1343 H   0  0  0  0  0  0  0  0  0  0  0  0
  1  2  1  0
  1  4  1  0
  2  3  2  3
  3  5  1  0
  3 14  1  0
  6  7  1  0
  6 11  1  0
  6 12  1  0
  6 13  1  0
  7  8  1  0
  7 15  1  0
  8  9  1  0
  8 16  1  0
  8 17  1  0
  9 10  1  0
 10 18  1  0
 10 19  1  0
 10 20  1  0
M  RAD  1   7   2
M  END
>  <reaction>  (19) 
rmg_rxn_15531

>  <mol_properties>  (19) 
{"1": {"label": "*4", "atom_type": "N3d"}, "2": {"label": "*3", "atom_type": "Cd"}, "6": {"label": "*1", "atom_type": "Cs"}, "7": {"label": "*0", "atom_type": "Cs"}, "13": {"label": "*2", "atom_type": "H0"}}

>  <type>  (19) 
unop_15

>  <geom_source>  (19) 
Heuristics

$$$$

     RDKit          3D

 20 18  0  0  0  0  0  0  0  0999 V2000
   -1.5997   -3.2176    1.1400 O   0  0  0  0  0  0  0  0  0  0  0  0
   -0.9810   -2.4627    0.1631 N   0  0  0  0  0  0  0  0  0  0  0  0
   -0.8765   -1.2504    0.4990 C   0  0  0  0  0  0  0  0  0  0  0  0
   -1.6140   -4.0996    0.7633 H   0  0  0  0  0  0  0  0  0  0  0  0
   -1.2399   -0.8723    1.4521 H   0  0  0  0  0  0  0  0  0  0  0  0
    1.2106    0.0345   -1.9208 C   0  0  0  0  0  0  0  0  0  0  0  0
    1.2106    0.0345   -0.3979 C   0  0  0  0  0  3  0  0  0  0  0  0
    1.2106    1.4271    0.1981 C   0  0  0  0  0  0  0  0  0  0  0  0
    0.0256    2.0906   -0.1660 O   0  0  0  0  0  0  0  0  0  0  0  0
   -0.0352    3.4017    0.3192 C   0  0  0  0  0  0  0  0  0  0  0  0
    2.0930    0.5482   -2.3105 H   0  0  0  0  0  0  0  0  0  0  0  0
    0.3282    0.5444   -2.3072 H   0  0  0  0  0  0  0  0  0  0  0  0
    1.2156   -0.9835   -2.3131 H   0  0  0  0  0  0  0  0  0  0  0  0
    0.1617   -0.6112    0.0528 H   0  0  0  0  0  0  0  0  0  0  0  0
    2.0924   -0.4916   -0.0217 H   0  0  0  0  0  0  0  0  0  0  0  0
    1.2875    1.3734    1.2942 H   0  0  0  0  0  0  0  0  0  0  0  0
    2.0830    1.9941   -0.1640 H   0  0  0  0  0  0  0  0  0  0  0  0
    0.7887    4.0142   -0.0715 H   0  0  0  0  0  0  0  0  0  0  0  0
    0.0068    3.4278    1.4166 H   0  0  0  0  0  0  0  0  0  0  0  0
   -0.9809    3.8318   -0.0080 H   0  0  0  0  0  0  0  0  0  0  0  0
  1  2  1  0
  1  4  1  0
  2  3  2  3
  3  5  1  0
  3 14  1  0
  6  7  1  0
  6 11  1  0
  6 12  1  0
  6 13  1  0
  7  8  1  0
  7 15  1  0
  8  9  1  0
  8 16  1  0
  8 17  1  0
  9 10  1  0
 10 18  1  0
 10 19  1  0
 10 20  1  0
M  RAD  1   7   2
M  END
>  <reaction>  (20) 
rmg_rxn_15531

>  <mol_properties>  (20) 
{"1": {"label": "*4", "atom_type": "N3d"}, "2": {"label": "*3", "atom_type": "Cd"}, "6": {"label": "*1", "atom_type": "Cs"}, "7": {"label": "*0", "atom_type": "Cs"}, "13": {"label": "*2", "atom_type": "H0"}}

>  <type>  (20) 
unop_16

>  <geom_source>  (20) 
Heuristics

$$$$

     RDKit          3D

 20 18  0  0  0  0  0  0  0  0999 V2000
   -1.7928   -2.2953    1.9892 O   0  0  0  0  0  0  0  0  0  0  0  0
   -1.2566   -1.2462    1.2687 N   0  0  0  0  0  0  0  0  0  0  0  0
   -0.7949   -1.6248    0.1565 C   0  0  0  0  0  0  0  0  0  0  0  0
   -2.1009   -1.8765    2.7952 H   0  0  0  0  0  0  0  0  0  0  0  0
   -0.8288   -2.6619   -0.1704 H   0  0  0  0  0  0  0  0  0  0  0  0
    1.2922   -0.3398   -2.2633 C   0  0  0  0  0  0  0  0  0  0  0  0
    1.2922   -0.3398   -0.7404 C   0  0  0  0  0  3  0  0  0  0  0  0
    1.2922    1.0527   -0.1443 C   0  0  0  0  0  0  0  0  0  0  0  0
    0.1072    1.7162   -0.5085 O   0  0  0  0  0  0  0  0  0  0  0  0
    0.0464    3.0273   -0.0233 C   0  0  0  0  0  0  0  0  0  0  0  0
    2.1746    0.1738   -2.6530 H   0  0  0  0  0  0  0  0  0  0  0  0
    0.4098    0.1701   -2.6497 H   0  0  0  0  0  0  0  0  0  0  0  0
    1.2972   -1.3578   -2.6556 H   0  0  0  0  0  0  0  0  0  0  0  0
    0.2433   -0.9856   -0.2896 H   0  0  0  0  0  0  0  0  0  0  0  0
    2.1740   -0.8660   -0.3641 H   0  0  0  0  0  0  0  0  0  0  0  0
    1.3691    0.9990    0.9517 H   0  0  0  0  0  0  0  0  0  0  0  0
    2.1646    1.6198   -0.5065 H   0  0  0  0  0  0  0  0  0  0  0  0
    0.8703    3.6398   -0.4139 H   0  0  0  0  0  0  0  0  0  0  0  0
    0.0884    3.0534    1.0742 H   0  0  0  0  0  0  0  0  0  0  0  0
   -0.8993    3.4574   -0.3504 H   0  0  0  0  0  0  0  0  0  0  0  0
  1  2  1  0
  1  4  1  0
  2  3  2  3
  3  5  1  0
  3 14  1  0
  6  7  1  0
  6 11  1  0
  6 12  1  0
  6 13  1  0
  7  8  1  0
  7 15  1  0
  8  9  1  0
  8 16  1  0
  8 17  1  0
  9 10  1  0
 10 18  1  0
 10 19  1  0
 10 20  1  0
M  RAD  1   7   2
M  END
>  <reaction>  (21) 
rmg_rxn_15531

>  <mol_properties>  (21) 
{"1": {"label": "*4", "atom_type": "N3d"}, "2": {"label": "*3", "atom_type": "Cd"}, "6": {"label": "*1", "atom_type": "Cs"}, "7": {"label": "*0", "atom_type": "Cs"}, "13": {"label": "*2", "atom_type": "H0"}}

>  <type>  (21) 
unop_17

>  <geom_source>  (21) 
Heuristics

$$$$

     RDKit          3D

 20 18  0  0  0  0  0  0  0  0999 V2000
   -2.4816   -2.5962    0.4098 O   0  0  0  0  0  0  0  0  0  0  0  0
   -1.4135   -1.9386   -0.1680 N   0  0  0  0  0  0  0  0  0  0  0  0
   -0.6313   -1.4570    0.6978 C   0  0  0  0  0  0  0  0  0  0  0  0
   -2.9857   -2.9066   -0.3449 H   0  0  0  0  0  0  0  0  0  0  0  0
   -0.8029   -1.5627    1.7669 H   0  0  0  0  0  0  0  0  0  0  0  0
    1.4558   -0.1721   -1.7219 C   0  0  0  0  0  0  0  0  0  0  0  0
    1.4558   -0.1721   -0.1990 C   0  0  0  0  0  3  0  0  0  0  0  0
    1.4558    1.2205    0.3970 C   0  0  0  0  0  0  0  0  0  0  0  0
    0.2708    1.8839    0.0329 O   0  0  0  0  0  0  0  0  0  0  0  0
    0.2100    3.1950    0.5180 C   0  0  0  0  0  0  0  0  0  0  0  0
    2.3382    0.3416   -2.1117 H   0  0  0  0  0  0  0  0  0  0  0  0
    0.5734    0.3378   -2.1084 H   0  0  0  0  0  0  0  0  0  0  0  0
    1.4607   -1.1901   -2.1142 H   0  0  0  0  0  0  0  0  0  0  0  0
    0.4069   -0.8179    0.2517 H   0  0  0  0  0  0  0  0  0  0  0  0
    2.3376   -0.6982    0.1772 H   0  0  0  0  0  0  0  0  0  0  0  0
    1.5326    1.1668    1.4931 H   0  0  0  0  0  0  0  0  0  0  0  0
    2.3282    1.7875    0.0348 H   0  0  0  0  0  0  0  0  0  0  0  0
    1.0339    3.8076    0.1274 H   0  0  0  0  0  0  0  0  0  0  0  0
    0.2520    3.2211    1.6155 H   0  0  0  0  0  0  0  0  0  0  0  0
   -0.7357    3.6252    0.1909 H   0  0  0  0  0  0  0  0  0  0  0  0
  1  2  1  0
  1  4  1  0
  2  3  2  3
  3  5  1  0
  3 14  1  0
  6  7  1  0
  6 11  1  0
  6 12  1  0
  6 13  1  0
  7  8  1  0
  7 15  1  0
  8  9  1  0
  8 16  1  0
  8 17  1  0
  9 10  1  0
 10 18  1  0
 10 19  1  0
 10 20  1  0
M  RAD  1   7   2
M  END
>  <reaction>  (22) 
rmg_rxn_15531

>  <mol_properties>  (22) 
{"1": {"label": "*4", "atom_type": "N3d"}, "2": {"label": "*3", "atom_type": "Cd"}, "6": {"label": "*1", "atom_type": "Cs"}, "7": {"label": "*0", "atom_type": "Cs"}, "13": {"label": "*2", "atom_type": "H0"}}

>  <type>  (22) 
unop_18

>  <geom_source>  (22) 
Heuristics

$$$$

     RDKit          3D

 20 18  0  0  0  0  0  0  0  0999 V2000
   -1.7528   -1.1369   -0.7133 O   0  0  0  0  0  0  0  0  0  0  0  0
    3.3776    0.2799    0.1413 O   0  0  0  0  0  0  0  0  0  0  0  0
    2.8332   -0.9586    0.3857 N   0  0  0  0  0  0  0  0  0  0  0  0
   -1.5960    0.2637   -0.5986 C   0  0  0  0  0  0  0  0  0  0  0  0
    0.0907    2.1235   -0.3024 C   0  0  0  0  0  0  0  0  0  0  0  0
   -1.8407   -1.7234    0.5673 C   0  0  0  0  0  0  0  0  0  0  0  0
   -0.1174    0.6197   -0.4323 C   0  0  0  0  0  3  0  0  0  0  0  0
    1.5544   -1.0985    0.4987 C   0  0  0  0  0  0  0  0  0  0  0  0
   -1.9679    0.7262   -1.5378 H   0  0  0  0  0  0  0  0  0  0  0  0
   -2.2013    0.6981    0.2321 H   0  0  0  0  0  0  0  0  0  0  0  0
    1.1722    2.3338   -0.1683 H   0  0  0  0  0  0  0  0  0  0  0  0
   -0.4579    2.5101    0.5822 H   0  0  0  0  0  0  0  0  0  0  0  0
   -0.2662    2.6436   -1.2167 H   0  0  0  0  0  0  0  0  0  0  0  0
   -0.9526   -1.4783    1.1917 H   0  0  0  0  0  0  0  0  0  0  0  0
   -1.8742   -2.8259    0.4499 H   0  0  0  0  0  0  0  0  0  0  0  0
   -2.7756   -1.4110    1.0827 H   0  0  0  0  0  0  0  0  0  0  0  0
    0.4678    0.2306   -1.2935 H   0  0  0  0  0  0  0  0  0  0  0  0
    1.1345   -2.0763    0.6910 H   0  0  0  0  0  0  0  0  0  0  0  0
    0.7916   -0.1040    0.3866 H   0  0  0  0  0  0  0  0  0  0  0  0
    4.3806    0.3836    0.0537 H   0  0  0  0  0  0  0  0  0  0  0  0
  1  6  1  0
  1  4  1  0
  2  3  1  0
  2 20  1  0
  3  8  2  3
  4  7  1  0
  4  9  1  0
  4 10  1  0
  5  7  1  0
  5 11  1  0
  5 12  1  0
  5 13  1  0
  6 14  1  0
  6 15  1  0
  6 16  1  0
  7 17  1  0
  8 18  1  0
  8 19  1  0
M  RAD  1   7   2
M  END
>  <reaction>  (23) 
rmg_rxn_15531

>  <mol_properties>  (23) 
{"1": {"label": "*4", "atom_type": "N3d"}, "2": {"label": "*3", "atom_type": "Cd"}, "6": {"label": "*1", "atom_type": "Cs"}, "7": {"label": "*0", "atom_type": "Cs"}, "13": {"label": "*2", "atom_type": "H0"}}

>  <type>  (23) 
unop_19

>  <geom_source>  (23) 
AutoTST

$$$$

     RDKit          3D

 20 18  0  0  0  0  0  0  0  0999 V2000
   -2.0205   -3.0995    0.6243 O   0  0  0  0  0  0  0  0  0  0  0  0
   -1.1996   -2.2431   -0.0826 N   0  0  0  0  0  0  0  0  0  0  0  0
   -0.7576   -1.3082    0.6412 C   0  0  0  0  0  0  0  0  0  0  0  0
   -2.2812   -3.7491   -0.0315 H   0  0  0  0  0  0  0  0  0  0  0  0
   -1.0100   -1.2127    1.6951 H   0  0  0  0  0  0  0  0  0  0  0  0
    1.3295   -0.0233   -1.7786 C   0  0  0  0  0  0  0  0  0  0  0  0
    1.3295   -0.0233   -0.2556 C   0  0  0  0  0  3  0  0  0  0  0  0
    1.3295    1.3693    0.3404 C   0  0  0  0  0  0  0  0  0  0  0  0
    0.1445    2.0328   -0.0237 O   0  0  0  0  0  0  0  0  0  0  0  0
    0.0837    3.3439    0.4614 C   0  0  0  0  0  0  0  0  0  0  0  0
    2.2119    0.4904   -2.1683 H   0  0  0  0  0  0  0  0  0  0  0  0
    0.4471    0.4866   -2.1650 H   0  0  0  0  0  0  0  0  0  0  0  0
    1.3344   -1.0413   -2.1709 H   0  0  0  0  0  0  0  0  0  0  0  0
    0.2806   -0.6690    0.1951 H   0  0  0  0  0  0  0  0  0  0  0  0
    2.2113   -0.5494    0.1206 H   0  0  0  0  0  0  0  0  0  0  0  0
    1.4064    1.3156    1.4365 H   0  0  0  0  0  0  0  0  0  0  0  0
    2.2019    1.9364   -0.0218 H   0  0  0  0  0  0  0  0  0  0  0  0
    0.9076    3.9564    0.0708 H   0  0  0  0  0  0  0  0  0  0  0  0
    0.1257    3.3700    1.5589 H   0  0  0  0  0  0  0  0  0  0  0  0
   -0.8620    3.7740    0.1343 H   0  0  0  0  0  0  0  0  0  0  0  0
  1  2  1  0
  1  4  1  0
  2  3  2  3
  3  5  1  0
  3 14  1  0
  6  7  1  0
  6 11  1  0
  6 12  1  0
  6 13  1  0
  7  8  1  0
  7 15  1  0
  8  9  1  0
  8 16  1  0
  8 17  1  0
  9 10  1  0
 10 18  1  0
 10 19  1  0
 10 20  1  0
M  RAD  1   7   2
M  END
>  <reaction>  (24) 
rmg_rxn_15531

>  <mol_properties>  (24) 
{"1": {"label": "*4", "atom_type": "N3d"}, "2": {"label": "*3", "atom_type": "Cd"}, "6": {"label": "*1", "atom_type": "Cs"}, "7": {"label": "*0", "atom_type": "Cs"}, "13": {"label": "*2", "atom_type": "H0"}}

>  <type>  (24) 
unop_20

>  <geom_source>  (24) 
gaussian_log

$$$$
