
     RDKit          3D

  8  7  0  0  0  0  0  0  0  0999 V2000
    0.9548    0.1194   -0.0790 C   0  0  0  0  0  0  0  0  0  0  0  0
   -0.4838   -0.2649    0.0193 C   0  0  0  0  0  0  0  0  0  0  0  0
   -0.8933   -1.1081    0.8664 N   0  0  0  0  0  0  0  0  0  0  0  0
    1.3360   -0.0983   -1.0800 H   0  0  0  0  0  0  0  0  0  0  0  0
    1.0698    1.1948    0.0786 H   0  0  0  0  0  0  0  0  0  0  0  0
    1.5426   -0.4219    0.6602 H   0  0  0  0  0  0  0  0  0  0  0  0
   -1.1575    0.2324   -0.6905 H   0  0  0  0  0  0  0  0  0  0  0  0
   -1.8989   -1.2455    0.7886 H   0  0  0  0  0  0  0  0  0  0  0  0
  1  2  1  0
  1  4  1  0
  1  5  1  0
  1  6  1  0
  2  3  2  3
  2  7  1  0
  3  8  1  0
M  END
>  <reaction>  (1) 
rmg_rxn_16534

>  <mol_properties>  (1) 
{"2": {"label": "donator", "atom_type": "N3d"}, "7": {"label": "d_hydrogen", "atom_type": "H0"}}

>  <type>  (1) 
r1h

$$$$

     RDKit          3D

 14 13  0  0  0  0  0  0  0  0999 V2000
    2.7687   -0.0362   -0.0732 C   0  0  0  0  0  3  0  0  0  0  0  0
    1.6543    0.2105    0.6386 O   0  0  0  0  0  0  0  0  0  0  0  0
    1.8652    0.6968    1.9544 C   0  0  0  0  0  0  0  0  0  0  0  0
    0.5252    0.9355    2.6156 C   0  0  0  0  0  0  0  0  0  0  0  0
   -0.2992    2.0181    1.9317 C   0  0  0  0  0  0  0  0  0  0  0  0
    2.5851   -0.4757   -1.0422 H   0  0  0  0  0  0  0  0  0  0  0  0
    3.6974   -0.2083    0.4611 H   0  0  0  0  0  0  0  0  0  0  0  0
    2.4441    1.6271    1.9039 H   0  0  0  0  0  0  0  0  0  0  0  0
    2.4506   -0.0397    2.5179 H   0  0  0  0  0  0  0  0  0  0  0  0
    0.7150    1.2089    3.6572 H   0  0  0  0  0  0  0  0  0  0  0  0
   -0.0287   -0.0066    2.6327 H   0  0  0  0  0  0  0  0  0  0  0  0
   -0.5056    1.7522    0.8949 H   0  0  0  0  0  0  0  0  0  0  0  0
   -1.2524    2.1635    2.4416 H   0  0  0  0  0  0  0  0  0  0  0  0
    0.2319    2.9729    1.9340 H   0  0  0  0  0  0  0  0  0  0  0  0
  1  2  1  0
  1  6  1  0
  1  7  1  0
  2  3  1  0
  3  4  1  0
  3  8  1  0
  3  9  1  0
  4  5  1  0
  4 10  1  0
  4 11  1  0
  5 12  1  0
  5 13  1  0
  5 14  1  0
M  RAD  1   1   2
M  END
>  <reaction>  (2) 
rmg_rxn_16534

>  <mol_properties>  (2) 
{"0": {"label": "acceptor", "atom_type": "Cs"}}

>  <type>  (2) 
r2

$$$$

     RDKit          3D

 15 14  0  0  0  0  0  0  0  0999 V2000
   -1.2811   -0.4129    1.0228 C   0  0  0  0  0  0  0  0  0  0  0  0
   -1.0023   -0.5809   -0.4650 C   0  0  0  0  0  0  0  0  0  0  0  0
   -2.0576    0.0568   -1.3449 C   0  0  0  0  0  0  0  0  0  0  0  0
   -2.0663    1.4464   -1.1307 O   0  0  0  0  0  0  0  0  0  0  0  0
   -3.0424    2.1072   -1.8849 C   0  0  0  0  0  0  0  0  0  0  0  0
   -2.2382   -0.8657    1.2935 H   0  0  0  0  0  0  0  0  0  0  0  0
   -1.3219    0.6426    1.2914 H   0  0  0  0  0  0  0  0  0  0  0  0
   -0.5042   -0.8881    1.6236 H   0  0  0  0  0  0  0  0  0  0  0  0
   -0.0316   -0.1460   -0.7167 H   0  0  0  0  0  0  0  0  0  0  0  0
   -0.9494   -1.6429   -0.7203 H   0  0  0  0  0  0  0  0  0  0  0  0
   -1.8518   -0.1570   -2.4041 H   0  0  0  0  0  0  0  0  0  0  0  0
   -3.0491   -0.3636   -1.1124 H   0  0  0  0  0  0  0  0  0  0  0  0
   -4.0521    1.7545   -1.6343 H   0  0  0  0  0  0  0  0  0  0  0  0
   -2.8850    1.9634   -2.9626 H   0  0  0  0  0  0  0  0  0  0  0  0
   -2.9730    3.1700   -1.6570 H   0  0  0  0  0  0  0  0  0  0  0  0
  1  2  1  0
  1  6  1  0
  1  7  1  0
  1  8  1  0
  2  3  1  0
  2  9  1  0
  2 10  1  0
  3  4  1  0
  3 11  1  0
  3 12  1  0
  4  5  1  0
  5 13  1  0
  5 14  1  0
  5 15  1  0
M  END
>  <reaction>  (3) 
rmg_rxn_16534

>  <mol_properties>  (3) 
{"0": {"label": "a_hydrogen", "atom_type": "H0"}, "1": {"label": "acceptor", "atom_type": "Cs"}}

>  <type>  (3) 
r2h

$$$$

     RDKit          3D

 22 20  0  0  0  0  0  0  0  0999 V2000
   -0.8767    0.4928   -3.3511 C   0  0  0  0  0  0  0  0  0  0  0  0
   -0.3539    0.8421   -1.9894 C   0  0  0  0  0  0  0  0  0  0  0  0
   -0.7067    1.8764   -1.3713 N   0  0  0  0  0  0  0  0  0  0  0  0
   -0.0480    0.4152   -4.0588 H   0  0  0  0  0  0  0  0  0  0  0  0
   -1.3700   -0.4818   -3.3225 H   0  0  0  0  0  0  0  0  0  0  0  0
   -1.5811    1.2464   -3.6985 H   0  0  0  0  0  0  0  0  0  0  0  0
    0.3654    0.1336   -1.5508 H   0  0  0  0  0  0  0  0  0  0  0  0
   -0.0887    1.8678   -0.2755 H   0  0  0  0  0  0  0  0  0  0  0  0
    0.6771    1.5983    0.8115 C   0  0  0  0  0  3  0  0  0  0  0  0
    0.8590    0.2421    0.9071 O   0  0  0  0  0  0  0  0  0  0  0  0
   -0.2810   -0.4636    1.3655 C   0  0  0  0  0  0  0  0  0  0  0  0
    0.0203   -1.9464    1.3682 C   0  0  0  0  0  0  0  0  0  0  0  0
    1.1458   -2.3317    2.3189 C   0  0  0  0  0  0  0  0  0  0  0  0
    0.1146    2.0362    1.6423 H   0  0  0  0  0  0  0  0  0  0  0  0
    1.6277    2.0901    0.6188 H   0  0  0  0  0  0  0  0  0  0  0  0
   -1.1328   -0.2407    0.7126 H   0  0  0  0  0  0  0  0  0  0  0  0
   -0.5340   -0.1181    2.3775 H   0  0  0  0  0  0  0  0  0  0  0  0
    0.2669   -2.2540    0.3483 H   0  0  0  0  0  0  0  0  0  0  0  0
   -0.8994   -2.4708    1.6411 H   0  0  0  0  0  0  0  0  0  0  0  0
    1.3257   -3.4073    2.2966 H   0  0  0  0  0  0  0  0  0  0  0  0
    2.0732   -1.8266    2.0484 H   0  0  0  0  0  0  0  0  0  0  0  0
    0.8997   -2.0542    3.3466 H   0  0  0  0  0  0  0  0  0  0  0  0
  1  2  1  0
  1  4  1  0
  1  5  1  0
  1  6  1  0
  2  3  2  3
  2  7  1  0
  3  8  1  0
  9 10  1  0
  9 14  1  0
  9 15  1  0
 10 11  1  0
 11 12  1  0
 11 16  1  0
 11 17  1  0
 12 13  1  0
 12 18  1  0
 12 19  1  0
 13 20  1  0
 13 21  1  0
 13 22  1  0
M  RAD  1   9   2
M  END
>  <reaction>  (4) 
rmg_rxn_16534

>  <mol_properties>  (4) 
{"1": {"label": "*0", "atom_type": "Cd"}, "2": {"label": "*1", "atom_type": "N3d"}, "7": {"label": "*2", "atom_type": "H0"}, "8": {"label": "*3", "atom_type": "Cs"}, "9": {"label": "*4", "atom_type": "O2s"}}

>  <type>  (4) 
ts

$$$$

     RDKit          3D

 22 20  0  0  0  0  0  0  0  0999 V2000
   -3.3856    0.4981    0.1146 C   0  0  0  0  0  0  0  0  0  0  0  0
   -2.1076   -0.2681    0.2721 C   0  0  0  0  0  0  0  0  0  0  0  0
   -1.4340   -0.6521   -0.6969 N   0  0  0  0  0  0  0  0  0  0  0  0
   -4.1970   -0.0484    0.5925 H   0  0  0  0  0  0  0  0  0  0  0  0
   -3.2891    1.4646    0.6073 H   0  0  0  0  0  0  0  0  0  0  0  0
   -3.6113    0.6439   -0.9380 H   0  0  0  0  0  0  0  0  0  0  0  0
   -1.8291   -0.4520    1.3214 H   0  0  0  0  0  0  0  0  0  0  0  0
   -0.3823   -1.2393   -0.3953 H   0  0  0  0  0  0  0  0  0  0  0  0
    0.7360   -1.8093   -0.0121 C   0  0  0  0  0  3  0  0  0  0  0  0
    1.5485   -0.9086    0.6505 O   0  0  0  0  0  0  0  0  0  0  0  0
    2.2497    0.0031   -0.1648 C   0  0  0  0  0  0  0  0  0  0  0  0
    1.3771    1.1454   -0.6953 C   0  0  0  0  0  0  0  0  0  0  0  0
    0.8470    2.0148    0.4372 C   0  0  0  0  0  0  0  0  0  0  0  0
    1.1729   -2.2027   -0.9319 H   0  0  0  0  0  0  0  0  0  0  0  0
    0.4436   -2.5883    0.6859 H   0  0  0  0  0  0  0  0  0  0  0  0
    2.7116   -0.5310   -1.0081 H   0  0  0  0  0  0  0  0  0  0  0  0
    3.0399    0.4070    0.4749 H   0  0  0  0  0  0  0  0  0  0  0  0
    0.5398    0.7273   -1.2568 H   0  0  0  0  0  0  0  0  0  0  0  0
    1.9818    1.7449   -1.3779 H   0  0  0  0  0  0  0  0  0  0  0  0
    1.6660    2.4954    0.9685 H   0  0  0  0  0  0  0  0  0  0  0  0
    0.1851    2.7843    0.0478 H   0  0  0  0  0  0  0  0  0  0  0  0
    0.2910    1.4044    1.1444 H   0  0  0  0  0  0  0  0  0  0  0  0
  1  2  1  0
  1  4  1  0
  1  5  1  0
  1  6  1  0
  2  3  2  3
  2  7  1  0
  3  8  1  0
  9 10  1  0
  9 14  1  0
  9 15  1  0
 10 11  1  0
 11 12  1  0
 11 16  1  0
 11 17  1  0
 12 13  1  0
 12 18  1  0
 12 19  1  0
 13 20  1  0
 13 21  1  0
 13 22  1  0
M  RAD  1   9   2
M  END
>  <reaction>  (5) 
rmg_rxn_16534

>  <mol_properties>  (5) 
{"1": {"label": "*0", "atom_type": "Cd"}, "2": {"label": "*1", "atom_type": "N3d"}, "7": {"label": "*2", "atom_type": "H0"}, "8": {"label": "*3", "atom_type": "Cs"}, "9": {"label": "*4", "atom_type": "O2s"}}

>  <type>  (5) 
unop_1

>  <geom_source>  (5) 
crest_best.xyz

$$$$

     RDKit          3D

 22 20  0  0  0  0  0  0  0  0999 V2000
   -0.8785   -1.3171   -4.1423 C   0  0  0  0  0  0  0  0  0  0  0  0
   -0.8785   -1.3171   -2.6499 C   0  0  0  0  0  0  0  0  0  0  0  0
   -0.8785   -0.2445   -1.9822 N   0  0  0  0  0  0  0  0  0  0  0  0
   -0.0002   -1.8471   -4.5197 H   0  0  0  0  0  0  0  0  0  0  0  0
   -1.7568   -1.8471   -4.5197 H   0  0  0  0  0  0  0  0  0  0  0  0
   -0.8785   -0.2965   -4.5209 H   0  0  0  0  0  0  0  0  0  0  0  0
   -0.8785   -2.3068   -2.1753 H   0  0  0  0  0  0  0  0  0  0  0  0
   -0.8785   -0.4747   -0.7827 H   0  0  0  0  0  0  0  0  0  0  0  0
   -0.8785   -0.7209    0.5010 C   0  0  0  0  0  3  0  0  0  0  0  0
    0.2761   -0.1463    1.0438 O   0  0  0  0  0  0  0  0  0  0  0  0
    0.0589    0.4261    2.3096 C   0  0  0  0  0  0  0  0  0  0  0  0
    1.3448    1.0559    2.8039 C   0  0  0  0  0  0  0  0  0  0  0  0
    1.8242    2.2058    1.9280 C   0  0  0  0  0  0  0  0  0  0  0  0
   -1.2668   -1.5260    1.1398 H   0  0  0  0  0  0  0  0  0  0  0  0
   -1.6737    0.0246    0.3652 H   0  0  0  0  0  0  0  0  0  0  0  0
   -0.2844   -0.3451    3.0149 H   0  0  0  0  0  0  0  0  0  0  0  0
   -0.7350    1.1872    2.2444 H   0  0  0  0  0  0  0  0  0  0  0  0
    2.1126    0.2799    2.8585 H   0  0  0  0  0  0  0  0  0  0  0  0
    1.1756    1.4066    3.8258 H   0  0  0  0  0  0  0  0  0  0  0  0
    2.7480    2.6366    2.3171 H   0  0  0  0  0  0  0  0  0  0  0  0
    2.0098    1.8645    0.9097 H   0  0  0  0  0  0  0  0  0  0  0  0
    1.0758    3.0010    1.8847 H   0  0  0  0  0  0  0  0  0  0  0  0
  1  2  1  0
  1  4  1  0
  1  5  1  0
  1  6  1  0
  2  3  2  3
  2  7  1  0
  3  8  1  0
  9 10  1  0
  9 14  1  0
  9 15  1  0
 10 11  1  0
 11 12  1  0
 11 16  1  0
 11 17  1  0
 12 13  1  0
 12 18  1  0
 12 19  1  0
 13 20  1  0
 13 21  1  0
 13 22  1  0
M  RAD  1   9   2
M  END
>  <reaction>  (6) 
rmg_rxn_16534

>  <mol_properties>  (6) 
{"1": {"label": "*0", "atom_type": "Cd"}, "2": {"label": "*1", "atom_type": "N3d"}, "7": {"label": "*2", "atom_type": "H0"}, "8": {"label": "*3", "atom_type": "Cs"}, "9": {"label": "*4", "atom_type": "O2s"}}

>  <type>  (6) 
unop_2

>  <geom_source>  (6) 
Heuristics

$$$$

     RDKit          3D

 22 20  0  0  0  0  0  0  0  0999 V2000
   -0.8477    0.5088   -3.9061 C   0  0  0  0  0  0  0  0  0  0  0  0
   -0.8477    0.5088   -2.4138 C   0  0  0  0  0  0  0  0  0  0  0  0
   -0.8477    1.5814   -1.7461 N   0  0  0  0  0  0  0  0  0  0  0  0
    0.0305   -0.0212   -4.2835 H   0  0  0  0  0  0  0  0  0  0  0  0
   -1.7260   -0.0212   -4.2835 H   0  0  0  0  0  0  0  0  0  0  0  0
   -0.8477    1.5294   -4.2847 H   0  0  0  0  0  0  0  0  0  0  0  0
   -0.8477   -0.4809   -1.9391 H   0  0  0  0  0  0  0  0  0  0  0  0
   -0.8477    1.3513   -0.5465 H   0  0  0  0  0  0  0  0  0  0  0  0
   -0.8477    1.1050    0.7371 C   0  0  0  0  0  3  0  0  0  0  0  0
   -0.1811   -0.1091    0.9368 O   0  0  0  0  0  0  0  0  0  0  0  0
    0.2434   -0.2878    2.2653 C   0  0  0  0  0  0  0  0  0  0  0  0
    0.9856   -1.6030    2.3832 C   0  0  0  0  0  0  0  0  0  0  0  0
    2.2610   -1.6479    1.5522 C   0  0  0  0  0  0  0  0  0  0  0  0
   -1.7497    1.1769    1.3602 H   0  0  0  0  0  0  0  0  0  0  0  0
   -0.2008    1.9623    0.9677 H   0  0  0  0  0  0  0  0  0  0  0  0
   -0.6254   -0.2777    2.9400 H   0  0  0  0  0  0  0  0  0  0  0  0
    0.8995    0.5455    2.5635 H   0  0  0  0  0  0  0  0  0  0  0  0
    0.3123   -2.4096    2.0818 H   0  0  0  0  0  0  0  0  0  0  0  0
    1.2189   -1.7632    3.4395 H   0  0  0  0  0  0  0  0  0  0  0  0
    2.7698   -2.6063    1.6660 H   0  0  0  0  0  0  0  0  0  0  0  0
    2.0387   -1.5035    0.4950 H   0  0  0  0  0  0  0  0  0  0  0  0
    2.9547   -0.8616    1.8602 H   0  0  0  0  0  0  0  0  0  0  0  0
  1  2  1  0
  1  4  1  0
  1  5  1  0
  1  6  1  0
  2  3  2  3
  2  7  1  0
  3  8  1  0
  9 10  1  0
  9 14  1  0
  9 15  1  0
 10 11  1  0
 11 12  1  0
 11 16  1  0
 11 17  1  0
 12 13  1  0
 12 18  1  0
 12 19  1  0
 13 20  1  0
 13 21  1  0
 13 22  1  0
M  RAD  1   9   2
M  END
>  <reaction>  (7) 
rmg_rxn_16534

>  <mol_properties>  (7) 
{"1": {"label": "*0", "atom_type": "Cd"}, "2": {"label": "*1", "atom_type": "N3d"}, "7": {"label": "*2", "atom_type": "H0"}, "8": {"label": "*3", "atom_type": "Cs"}, "9": {"label": "*4", "atom_type": "O2s"}}

>  <type>  (7) 
unop_3

>  <geom_source>  (7) 
Heuristics

$$$$

     RDKit          3D

 22 20  0  0  0  0  0  0  0  0999 V2000
   -0.3183   -1.5701   -4.2597 C   0  0  0  0  0  0  0  0  0  0  0  0
   -0.3183   -1.5701   -2.7673 C   0  0  0  0  0  0  0  0  0  0  0  0
   -0.3183   -0.4975   -2.0996 N   0  0  0  0  0  0  0  0  0  0  0  0
    0.5599   -2.1001   -4.6371 H   0  0  0  0  0  0  0  0  0  0  0  0
   -1.1966   -2.1001   -4.6371 H   0  0  0  0  0  0  0  0  0  0  0  0
   -0.3183   -0.5495   -4.6382 H   0  0  0  0  0  0  0  0  0  0  0  0
   -0.3183   -2.5598   -2.2927 H   0  0  0  0  0  0  0  0  0  0  0  0
   -0.3183   -0.7277   -0.9000 H   0  0  0  0  0  0  0  0  0  0  0  0
   -0.3183   -0.9740    0.3836 C   0  0  0  0  0  3  0  0  0  0  0  0
    0.3483    0.0799    1.0184 O   0  0  0  0  0  0  0  0  0  0  0  0
   -0.0733    0.2732    2.3458 C   0  0  0  0  0  0  0  0  0  0  0  0
    0.6680    1.4519    2.9422 C   0  0  0  0  0  0  0  0  0  0  0  0
    0.3671    2.7679    2.2372 C   0  0  0  0  0  0  0  0  0  0  0  0
   -0.1497   -1.9280    0.9016 H   0  0  0  0  0  0  0  0  0  0  0  0
   -1.4011   -0.7950    0.3358 H   0  0  0  0  0  0  0  0  0  0  0  0
    0.1177   -0.6359    2.9349 H   0  0  0  0  0  0  0  0  0  0  0  0
   -1.1593    0.4571    2.3701 H   0  0  0  0  0  0  0  0  0  0  0  0
    1.7401    1.2423    2.9049 H   0  0  0  0  0  0  0  0  0  0  0  0
    0.3951    1.5202    3.9989 H   0  0  0  0  0  0  0  0  0  0  0  0
    0.9139    3.5928    2.6964 H   0  0  0  0  0  0  0  0  0  0  0  0
    0.6486    2.7160    1.1855 H   0  0  0  0  0  0  0  0  0  0  0  0
   -0.6990    3.0026    2.2885 H   0  0  0  0  0  0  0  0  0  0  0  0
  1  2  1  0
  1  4  1  0
  1  5  1  0
  1  6  1  0
  2  3  2  3
  2  7  1  0
  3  8  1  0
  9 10  1  0
  9 14  1  0
  9 15  1  0
 10 11  1  0
 11 12  1  0
 11 16  1  0
 11 17  1  0
 12 13  1  0
 12 18  1  0
 12 19  1  0
 13 20  1  0
 13 21  1  0
 13 22  1  0
M  RAD  1   9   2
M  END
>  <reaction>  (8) 
rmg_rxn_16534

>  <mol_properties>  (8) 
{"1": {"label": "*0", "atom_type": "Cd"}, "2": {"label": "*1", "atom_type": "N3d"}, "7": {"label": "*2", "atom_type": "H0"}, "8": {"label": "*3", "atom_type": "Cs"}, "9": {"label": "*4", "atom_type": "O2s"}}

>  <type>  (8) 
unop_4

>  <geom_source>  (8) 
Heuristics

$$$$

     RDKit          3D

 22 20  0  0  0  0  0  0  0  0999 V2000
    1.0382    0.1728   -4.0744 C   0  0  0  0  0  0  0  0  0  0  0  0
    1.0382    0.1728   -2.5820 C   0  0  0  0  0  0  0  0  0  0  0  0
    1.0382    1.2454   -1.9144 N   0  0  0  0  0  0  0  0  0  0  0  0
    1.9165   -0.3572   -4.4518 H   0  0  0  0  0  0  0  0  0  0  0  0
    0.1600   -0.3572   -4.4518 H   0  0  0  0  0  0  0  0  0  0  0  0
    1.0382    1.1934   -4.4530 H   0  0  0  0  0  0  0  0  0  0  0  0
    1.0382   -0.8169   -2.1074 H   0  0  0  0  0  0  0  0  0  0  0  0
    1.0382    1.0152   -0.7148 H   0  0  0  0  0  0  0  0  0  0  0  0
    1.0382    0.7689    0.5689 C   0  0  0  0  0  3  0  0  0  0  0  0
   -0.1164    0.0342    0.8605 O   0  0  0  0  0  0  0  0  0  0  0  0
   -0.6209    0.2960    2.1465 C   0  0  0  0  0  0  0  0  0  0  0  0
   -1.8424   -0.5655    2.3924 C   0  0  0  0  0  0  0  0  0  0  0  0
   -1.5349   -2.0570    2.3854 C   0  0  0  0  0  0  0  0  0  0  0  0
    0.8492    1.8503    0.6106 H   0  0  0  0  0  0  0  0  0  0  0  0
    1.8521    0.5346    1.2684 H   0  0  0  0  0  0  0  0  0  0  0  0
   -0.8804    1.3612    2.2367 H   0  0  0  0  0  0  0  0  0  0  0  0
    0.1518    0.0819    2.9020 H   0  0  0  0  0  0  0  0  0  0  0  0
   -2.5903   -0.3326    1.6301 H   0  0  0  0  0  0  0  0  0  0  0  0
   -2.2703   -0.2740    3.3556 H   0  0  0  0  0  0  0  0  0  0  0  0
   -2.4357   -2.6441    2.5701 H   0  0  0  0  0  0  0  0  0  0  0  0
   -1.1207   -2.3617    1.4244 H   0  0  0  0  0  0  0  0  0  0  0  0
   -0.8063   -2.3084    3.1601 H   0  0  0  0  0  0  0  0  0  0  0  0
  1  2  1  0
  1  4  1  0
  1  5  1  0
  1  6  1  0
  2  3  2  3
  2  7  1  0
  3  8  1  0
  9 10  1  0
  9 14  1  0
  9 15  1  0
 10 11  1  0
 11 12  1  0
 11 16  1  0
 11 17  1  0
 12 13  1  0
 12 18  1  0
 12 19  1  0
 13 20  1  0
 13 21  1  0
 13 22  1  0
M  RAD  1   9   2
M  END
>  <reaction>  (9) 
rmg_rxn_16534

>  <mol_properties>  (9) 
{"1": {"label": "*0", "atom_type": "Cd"}, "2": {"label": "*1", "atom_type": "N3d"}, "7": {"label": "*2", "atom_type": "H0"}, "8": {"label": "*3", "atom_type": "Cs"}, "9": {"label": "*4", "atom_type": "O2s"}}

>  <type>  (9) 
unop_5

>  <geom_source>  (9) 
Heuristics

$$$$

     RDKit          3D

 22 20  0  0  0  0  0  0  0  0999 V2000
    0.1733   -1.5087   -4.3654 C   0  0  0  0  0  0  0  0  0  0  0  0
    0.1733   -1.5087   -2.8731 C   0  0  0  0  0  0  0  0  0  0  0  0
    0.1733   -0.4361   -2.2054 N   0  0  0  0  0  0  0  0  0  0  0  0
    1.0515   -2.0387   -4.7428 H   0  0  0  0  0  0  0  0  0  0  0  0
   -0.7050   -2.0387   -4.7428 H   0  0  0  0  0  0  0  0  0  0  0  0
    0.1733   -0.4881   -4.7440 H   0  0  0  0  0  0  0  0  0  0  0  0
    0.1733   -2.4984   -2.3984 H   0  0  0  0  0  0  0  0  0  0  0  0
    0.1733   -0.6662   -1.0058 H   0  0  0  0  0  0  0  0  0  0  0  0
    0.1733   -0.9125    0.2778 C   0  0  0  0  0  3  0  0  0  0  0  0
    0.1733    0.3168    0.9463 O   0  0  0  0  0  0  0  0  0  0  0  0
    0.1760    0.1784    2.3455 C   0  0  0  0  0  0  0  0  0  0  0  0
    0.1369    1.5504    2.9865 C   0  0  0  0  0  0  0  0  0  0  0  0
   -1.1359    2.3239    2.6692 C   0  0  0  0  0  0  0  0  0  0  0  0
    1.0635   -1.5065    0.5261 H   0  0  0  0  0  0  0  0  0  0  0  0
   -0.7169   -1.5061    0.5265 H   0  0  0  0  0  0  0  0  0  0  0  0
    1.0760   -0.3671    2.6656 H   0  0  0  0  0  0  0  0  0  0  0  0
   -0.6967   -0.4136    2.6644 H   0  0  0  0  0  0  0  0  0  0  0  0
    1.0120    2.1141    2.6532 H   0  0  0  0  0  0  0  0  0  0  0  0
    0.2377    1.4188    4.0674 H   0  0  0  0  0  0  0  0  0  0  0  0
   -1.1304    3.3029    3.1507 H   0  0  0  0  0  0  0  0  0  0  0  0
   -1.2395    2.4734    1.5945 H   0  0  0  0  0  0  0  0  0  0  0  0
   -2.0184    1.7829    3.0197 H   0  0  0  0  0  0  0  0  0  0  0  0
  1  2  1  0
  1  4  1  0
  1  5  1  0
  1  6  1  0
  2  3  2  3
  2  7  1  0
  3  8  1  0
  9 10  1  0
  9 14  1  0
  9 15  1  0
 10 11  1  0
 11 12  1  0
 11 16  1  0
 11 17  1  0
 12 13  1  0
 12 18  1  0
 12 19  1  0
 13 20  1  0
 13 21  1  0
 13 22  1  0
M  RAD  1   9   2
M  END
>  <reaction>  (10) 
rmg_rxn_16534

>  <mol_properties>  (10) 
{"1": {"label": "*0", "atom_type": "Cd"}, "2": {"label": "*1", "atom_type": "N3d"}, "7": {"label": "*2", "atom_type": "H0"}, "8": {"label": "*3", "atom_type": "Cs"}, "9": {"label": "*4", "atom_type": "O2s"}}

>  <type>  (10) 
unop_6

>  <geom_source>  (10) 
Heuristics

$$$$

     RDKit          3D

 22 20  0  0  0  0  0  0  0  0999 V2000
    1.1680   -0.4589   -4.1856 C   0  0  0  0  0  0  0  0  0  0  0  0
    1.1680   -0.4589   -2.6933 C   0  0  0  0  0  0  0  0  0  0  0  0
    1.1680    0.6137   -2.0256 N   0  0  0  0  0  0  0  0  0  0  0  0
    2.0462   -0.9889   -4.5630 H   0  0  0  0  0  0  0  0  0  0  0  0
    0.2897   -0.9889   -4.5630 H   0  0  0  0  0  0  0  0  0  0  0  0
    1.1680    0.5617   -4.5642 H   0  0  0  0  0  0  0  0  0  0  0  0
    1.1680   -1.4486   -2.2186 H   0  0  0  0  0  0  0  0  0  0  0  0
    1.1680    0.3835   -0.8260 H   0  0  0  0  0  0  0  0  0  0  0  0
    1.1680    0.1373    0.4576 C   0  0  0  0  0  3  0  0  0  0  0  0
   -0.1653    0.0572    0.8749 O   0  0  0  0  0  0  0  0  0  0  0  0
   -0.3802    0.6435    2.1347 C   0  0  0  0  0  0  0  0  0  0  0  0
   -1.8347    0.4788    2.5243 C   0  0  0  0  0  0  0  0  0  0  0  0
   -2.2493   -0.9770    2.6909 C   0  0  0  0  0  0  0  0  0  0  0  0
    1.5017    1.1804    0.3721 H   0  0  0  0  0  0  0  0  0  0  0  0
    1.8397   -0.3830    1.1538 H   0  0  0  0  0  0  0  0  0  0  0  0
   -0.1120    1.7099    2.1015 H   0  0  0  0  0  0  0  0  0  0  0  0
    0.2694    0.1655    2.8852 H   0  0  0  0  0  0  0  0  0  0  0  0
   -2.4543    0.9612    1.7638 H   0  0  0  0  0  0  0  0  0  0  0  0
   -1.9961    1.0252    3.4577 H   0  0  0  0  0  0  0  0  0  0  0  0
   -3.2996   -1.0557    2.9757 H   0  0  0  0  0  0  0  0  0  0  0  0
   -2.1060   -1.5284    1.7617 H   0  0  0  0  0  0  0  0  0  0  0  0
   -1.6542   -1.4654    3.4665 H   0  0  0  0  0  0  0  0  0  0  0  0
  1  2  1  0
  1  4  1  0
  1  5  1  0
  1  6  1  0
  2  3  2  3
  2  7  1  0
  3  8  1  0
  9 10  1  0
  9 14  1  0
  9 15  1  0
 10 11  1  0
 11 12  1  0
 11 16  1  0
 11 17  1  0
 12 13  1  0
 12 18  1  0
 12 19  1  0
 13 20  1  0
 13 21  1  0
 13 22  1  0
M  RAD  1   9   2
M  END
>  <reaction>  (11) 
rmg_rxn_16534

>  <mol_properties>  (11) 
{"1": {"label": "*0", "atom_type": "Cd"}, "2": {"label": "*1", "atom_type": "N3d"}, "7": {"label": "*2", "atom_type": "H0"}, "8": {"label": "*3", "atom_type": "Cs"}, "9": {"label": "*4", "atom_type": "O2s"}}

>  <type>  (11) 
unop_7

>  <geom_source>  (11) 
Heuristics

$$$$

     RDKit          3D

 22 20  0  0  0  0  0  0  0  0999 V2000
    0.9578   -1.0154   -4.2931 C   0  0  0  0  0  0  0  0  0  0  0  0
    0.9578   -1.0154   -2.8008 C   0  0  0  0  0  0  0  0  0  0  0  0
    0.9578    0.0573   -2.1331 N   0  0  0  0  0  0  0  0  0  0  0  0
    1.8360   -1.5454   -4.6705 H   0  0  0  0  0  0  0  0  0  0  0  0
    0.0795   -1.5454   -4.6705 H   0  0  0  0  0  0  0  0  0  0  0  0
    0.9578    0.0053   -4.6717 H   0  0  0  0  0  0  0  0  0  0  0  0
    0.9578   -2.0051   -2.3261 H   0  0  0  0  0  0  0  0  0  0  0  0
    0.9578   -0.1729   -0.9335 H   0  0  0  0  0  0  0  0  0  0  0  0
    0.9578   -0.4192    0.3502 C   0  0  0  0  0  3  0  0  0  0  0  0
   -0.1969    0.1554    0.8930 O   0  0  0  0  0  0  0  0  0  0  0  0
    0.0216    0.7327    2.1564 C   0  0  0  0  0  0  0  0  0  0  0  0
   -1.2822    1.2943    2.6847 C   0  0  0  0  0  0  0  0  0  0  0  0
   -2.3439    0.2275    2.9169 C   0  0  0  0  0  0  0  0  0  0  0  0
    1.7533    0.3261    0.2140 H   0  0  0  0  0  0  0  0  0  0  0  0
    1.3458   -1.2240    0.9893 H   0  0  0  0  0  0  0  0  0  0  0  0
    0.7767    1.5289    2.0782 H   0  0  0  0  0  0  0  0  0  0  0  0
    0.4163   -0.0260    2.8509 H   0  0  0  0  0  0  0  0  0  0  0  0
   -1.6496    2.0424    1.9775 H   0  0  0  0  0  0  0  0  0  0  0  0
   -1.0669    1.8204    3.6189 H   0  0  0  0  0  0  0  0  0  0  0  0
   -3.2651    0.6679    3.3011 H   0  0  0  0  0  0  0  0  0  0  0  0
   -2.5768   -0.2942    1.9887 H   0  0  0  0  0  0  0  0  0  0  0  0
   -1.9992   -0.5142    3.6417 H   0  0  0  0  0  0  0  0  0  0  0  0
  1  2  1  0
  1  4  1  0
  1  5  1  0
  1  6  1  0
  2  3  2  3
  2  7  1  0
  3  8  1  0
  9 10  1  0
  9 14  1  0
  9 15  1  0
 10 11  1  0
 11 12  1  0
 11 16  1  0
 11 17  1  0
 12 13  1  0
 12 18  1  0
 12 19  1  0
 13 20  1  0
 13 21  1  0
 13 22  1  0
M  RAD  1   9   2
M  END
>  <reaction>  (12) 
rmg_rxn_16534

>  <mol_properties>  (12) 
{"1": {"label": "*0", "atom_type": "Cd"}, "2": {"label": "*1", "atom_type": "N3d"}, "7": {"label": "*2", "atom_type": "H0"}, "8": {"label": "*3", "atom_type": "Cs"}, "9": {"label": "*4", "atom_type": "O2s"}}

>  <type>  (12) 
unop_8

>  <geom_source>  (12) 
Heuristics

$$$$

     RDKit          3D

 22 20  0  0  0  0  0  0  0  0999 V2000
   -1.2339   -0.7632   -4.0335 C   0  0  0  0  0  0  0  0  0  0  0  0
   -1.2339   -0.7632   -2.5412 C   0  0  0  0  0  0  0  0  0  0  0  0
   -1.2339    0.3094   -1.8735 N   0  0  0  0  0  0  0  0  0  0  0  0
   -0.3556   -1.2932   -4.4109 H   0  0  0  0  0  0  0  0  0  0  0  0
   -2.1121   -1.2932   -4.4109 H   0  0  0  0  0  0  0  0  0  0  0  0
   -1.2339    0.2574   -4.4121 H   0  0  0  0  0  0  0  0  0  0  0  0
   -1.2339   -1.7529   -2.0665 H   0  0  0  0  0  0  0  0  0  0  0  0
   -1.2339    0.0792   -0.6739 H   0  0  0  0  0  0  0  0  0  0  0  0
   -1.2339   -0.1671    0.6097 C   0  0  0  0  0  3  0  0  0  0  0  0
    0.0994   -0.2471    1.0270 O   0  0  0  0  0  0  0  0  0  0  0  0
    0.3133    0.3344    2.2892 C   0  0  0  0  0  0  0  0  0  0  0  0
    1.7827    0.2384    2.6444 C   0  0  0  0  0  0  0  0  0  0  0  0
    2.6812    1.0181    1.6937 C   0  0  0  0  0  0  0  0  0  0  0  0
   -1.9060   -0.6874    1.3057 H   0  0  0  0  0  0  0  0  0  0  0  0
   -1.5672    0.8761    0.5245 H   0  0  0  0  0  0  0  0  0  0  0  0
   -0.2971   -0.1801    3.0461 H   0  0  0  0  0  0  0  0  0  0  0  0
   -0.0046    1.3891    2.2736 H   0  0  0  0  0  0  0  0  0  0  0  0
    2.0695   -0.8163    2.6523 H   0  0  0  0  0  0  0  0  0  0  0  0
    1.9057    0.6078    3.6663 H   0  0  0  0  0  0  0  0  0  0  0  0
    3.7293    0.9297    1.9833 H   0  0  0  0  0  0  0  0  0  0  0  0
    2.5772    0.6487    0.6735 H   0  0  0  0  0  0  0  0  0  0  0  0
    2.4216    2.0797    1.6946 H   0  0  0  0  0  0  0  0  0  0  0  0
  1  2  1  0
  1  4  1  0
  1  5  1  0
  1  6  1  0
  2  3  2  3
  2  7  1  0
  3  8  1  0
  9 10  1  0
  9 14  1  0
  9 15  1  0
 10 11  1  0
 11 12  1  0
 11 16  1  0
 11 17  1  0
 12 13  1  0
 12 18  1  0
 12 19  1  0
 13 20  1  0
 13 21  1  0
 13 22  1  0
M  RAD  1   9   2
M  END
>  <reaction>  (13) 
rmg_rxn_16534

>  <mol_properties>  (13) 
{"1": {"label": "*0", "atom_type": "Cd"}, "2": {"label": "*1", "atom_type": "N3d"}, "7": {"label": "*2", "atom_type": "H0"}, "8": {"label": "*3", "atom_type": "Cs"}, "9": {"label": "*4", "atom_type": "O2s"}}

>  <type>  (13) 
unop_9

>  <geom_source>  (13) 
Heuristics

$$$$

     RDKit          3D

 22 20  0  0  0  0  0  0  0  0999 V2000
   -3.3856    0.4981    0.1146 C   0  0  0  0  0  0  0  0  0  0  0  0
   -2.1076   -0.2681    0.2721 C   0  0  0  0  0  0  0  0  0  0  0  0
   -1.4340   -0.6521   -0.6969 N   0  0  0  0  0  0  0  0  0  0  0  0
   -4.1970   -0.0484    0.5925 H   0  0  0  0  0  0  0  0  0  0  0  0
   -3.2891    1.4646    0.6073 H   0  0  0  0  0  0  0  0  0  0  0  0
   -3.6113    0.6439   -0.9380 H   0  0  0  0  0  0  0  0  0  0  0  0
   -1.8291   -0.4520    1.3214 H   0  0  0  0  0  0  0  0  0  0  0  0
   -0.3823   -1.2393   -0.3953 H   0  0  0  0  0  0  0  0  0  0  0  0
    0.7360   -1.8093   -0.0121 C   0  0  0  0  0  3  0  0  0  0  0  0
    1.5485   -0.9086    0.6505 O   0  0  0  0  0  0  0  0  0  0  0  0
    2.2497    0.0031   -0.1648 C   0  0  0  0  0  0  0  0  0  0  0  0
    1.3771    1.1454   -0.6953 C   0  0  0  0  0  0  0  0  0  0  0  0
    0.8470    2.0148    0.4372 C   0  0  0  0  0  0  0  0  0  0  0  0
    1.1729   -2.2027   -0.9319 H   0  0  0  0  0  0  0  0  0  0  0  0
    0.4436   -2.5883    0.6859 H   0  0  0  0  0  0  0  0  0  0  0  0
    2.7116   -0.5310   -1.0081 H   0  0  0  0  0  0  0  0  0  0  0  0
    3.0399    0.4070    0.4749 H   0  0  0  0  0  0  0  0  0  0  0  0
    0.5398    0.7273   -1.2568 H   0  0  0  0  0  0  0  0  0  0  0  0
    1.9818    1.7449   -1.3779 H   0  0  0  0  0  0  0  0  0  0  0  0
    1.6660    2.4954    0.9685 H   0  0  0  0  0  0  0  0  0  0  0  0
    0.1851    2.7843    0.0478 H   0  0  0  0  0  0  0  0  0  0  0  0
    0.2910    1.4044    1.1444 H   0  0  0  0  0  0  0  0  0  0  0  0
  1  2  1  0
  1  4  1  0
  1  5  1  0
  1  6  1  0
  2  3  2  3
  2  7  1  0
  3  8  1  0
  9 10  1  0
  9 14  1  0
  9 15  1  0
 10 11  1  0
 11 12  1  0
 11 16  1  0
 11 17  1  0
 12 13  1  0
 12 18  1  0
 12 19  1  0
 13 20  1  0
 13 21  1  0
 13 22  1  0
M  RAD  1   9   2
M  END
>  <reaction>  (14) 
rmg_rxn_16534

>  <mol_properties>  (14) 
{"1": {"label": "*0", "atom_type": "Cd"}, "2": {"label": "*1", "atom_type": "N3d"}, "7": {"label": "*2", "atom_type": "H0"}, "8": {"label": "*3", "atom_type": "Cs"}, "9": {"label": "*4", "atom_type": "O2s"}}

>  <type>  (14) 
unop_10

>  <geom_source>  (14) 
Heuristics

$$$$

     RDKit          3D

 22 20  0  0  0  0  0  0  0  0999 V2000
    0.5463    0.6617   -3.9826 C   0  0  0  0  0  0  0  0  0  0  0  0
    0.5463    0.6617   -2.4902 C   0  0  0  0  0  0  0  0  0  0  0  0
    0.5463    1.7344   -1.8226 N   0  0  0  0  0  0  0  0  0  0  0  0
    1.4246    0.1317   -4.3600 H   0  0  0  0  0  0  0  0  0  0  0  0
   -0.3319    0.1317   -4.3600 H   0  0  0  0  0  0  0  0  0  0  0  0
    0.5463    1.6823   -4.3612 H   0  0  0  0  0  0  0  0  0  0  0  0
    0.5463   -0.3280   -2.0156 H   0  0  0  0  0  0  0  0  0  0  0  0
    0.5463    1.5042   -0.6230 H   0  0  0  0  0  0  0  0  0  0  0  0
    0.5463    1.2579    0.6607 C   0  0  0  0  0  3  0  0  0  0  0  0
   -0.1203    0.0439    0.8603 O   0  0  0  0  0  0  0  0  0  0  0  0
   -0.5496   -0.1324    2.1876 C   0  0  0  0  0  0  0  0  0  0  0  0
   -1.2237   -1.4822    2.3228 C   0  0  0  0  0  0  0  0  0  0  0  0
   -0.2849   -2.6506    2.0534 C   0  0  0  0  0  0  0  0  0  0  0  0
   -0.1004    2.1156    0.8910 H   0  0  0  0  0  0  0  0  0  0  0  0
    1.4480    1.3295    1.2840 H   0  0  0  0  0  0  0  0  0  0  0  0
   -1.2465    0.6721    2.4652 H   0  0  0  0  0  0  0  0  0  0  0  0
    0.3124   -0.0695    2.8708 H   0  0  0  0  0  0  0  0  0  0  0  0
   -2.0728   -1.5163    1.6353 H   0  0  0  0  0  0  0  0  0  0  0  0
   -1.6324   -1.5534    3.3347 H   0  0  0  0  0  0  0  0  0  0  0  0
   -0.8033   -3.6041    2.1647 H   0  0  0  0  0  0  0  0  0  0  0  0
    0.1176   -2.5976    1.0419 H   0  0  0  0  0  0  0  0  0  0  0  0
    0.5566   -2.6432    2.7507 H   0  0  0  0  0  0  0  0  0  0  0  0
  1  2  1  0
  1  4  1  0
  1  5  1  0
  1  6  1  0
  2  3  2  3
  2  7  1  0
  3  8  1  0
  9 10  1  0
  9 14  1  0
  9 15  1  0
 10 11  1  0
 11 12  1  0
 11 16  1  0
 11 17  1  0
 12 13  1  0
 12 18  1  0
 12 19  1  0
 13 20  1  0
 13 21  1  0
 13 22  1  0
M  RAD  1   9   2
M  END
>  <reaction>  (15) 
rmg_rxn_16534

>  <mol_properties>  (15) 
{"1": {"label": "*0", "atom_type": "Cd"}, "2": {"label": "*1", "atom_type": "N3d"}, "7": {"label": "*2", "atom_type": "H0"}, "8": {"label": "*3", "atom_type": "Cs"}, "9": {"label": "*4", "atom_type": "O2s"}}

>  <type>  (15) 
unop_11

>  <geom_source>  (15) 
Heuristics

$$$$

     RDKit          3D

 22 20  0  0  0  0  0  0  0  0999 V2000
   -1.2335   -0.0833   -3.9464 C   0  0  0  0  0  0  0  0  0  0  0  0
   -1.2335   -0.0833   -2.4541 C   0  0  0  0  0  0  0  0  0  0  0  0
   -1.2335    0.9893   -1.7864 N   0  0  0  0  0  0  0  0  0  0  0  0
   -0.3553   -0.6133   -4.3238 H   0  0  0  0  0  0  0  0  0  0  0  0
   -2.1118   -0.6133   -4.3238 H   0  0  0  0  0  0  0  0  0  0  0  0
   -1.2335    0.9373   -4.3250 H   0  0  0  0  0  0  0  0  0  0  0  0
   -1.2335   -1.0730   -1.9794 H   0  0  0  0  0  0  0  0  0  0  0  0
   -1.2335    0.7592   -0.5868 H   0  0  0  0  0  0  0  0  0  0  0  0
   -1.2335    0.5129    0.6969 C   0  0  0  0  0  3  0  0  0  0  0  0
   -0.0789   -0.2219    0.9885 O   0  0  0  0  0  0  0  0  0  0  0  0
    0.4226    0.0359    2.2766 C   0  0  0  0  0  0  0  0  0  0  0  0
    1.6881   -0.7678    2.4935 C   0  0  0  0  0  0  0  0  0  0  0  0
    2.8151   -0.3782    1.5463 C   0  0  0  0  0  0  0  0  0  0  0  0
   -2.0478    0.2786    1.3961 H   0  0  0  0  0  0  0  0  0  0  0  0
   -1.0441    1.5941    0.7388 H   0  0  0  0  0  0  0  0  0  0  0  0
   -0.3323   -0.2291    3.0316 H   0  0  0  0  0  0  0  0  0  0  0  0
    0.6333    1.1116    2.3874 H   0  0  0  0  0  0  0  0  0  0  0  0
    1.4497   -1.8283    2.3777 H   0  0  0  0  0  0  0  0  0  0  0  0
    2.0025   -0.6253    3.5311 H   0  0  0  0  0  0  0  0  0  0  0  0
    3.7097   -0.9735    1.7351 H   0  0  0  0  0  0  0  0  0  0  0  0
    2.5176   -0.5298    0.5087 H   0  0  0  0  0  0  0  0  0  0  0  0
    3.0810    0.6746    1.6691 H   0  0  0  0  0  0  0  0  0  0  0  0
  1  2  1  0
  1  4  1  0
  1  5  1  0
  1  6  1  0
  2  3  2  3
  2  7  1  0
  3  8  1  0
  9 10  1  0
  9 14  1  0
  9 15  1  0
 10 11  1  0
 11 12  1  0
 11 16  1  0
 11 17  1  0
 12 13  1  0
 12 18  1  0
 12 19  1  0
 13 20  1  0
 13 21  1  0
 13 22  1  0
M  RAD  1   9   2
M  END
>  <reaction>  (16) 
rmg_rxn_16534

>  <mol_properties>  (16) 
{"1": {"label": "*0", "atom_type": "Cd"}, "2": {"label": "*1", "atom_type": "N3d"}, "7": {"label": "*2", "atom_type": "H0"}, "8": {"label": "*3", "atom_type": "Cs"}, "9": {"label": "*4", "atom_type": "O2s"}}

>  <type>  (16) 
unop_12

>  <geom_source>  (16) 
Heuristics

$$$$

     RDKit          3D

 22 20  0  0  0  0  0  0  0  0999 V2000
    0.5619   -1.3497   -4.3698 C   0  0  0  0  0  0  0  0  0  0  0  0
    0.5619   -1.3497   -2.8775 C   0  0  0  0  0  0  0  0  0  0  0  0
    0.5619   -0.2771   -2.2098 N   0  0  0  0  0  0  0  0  0  0  0  0
    1.4402   -1.8797   -4.7473 H   0  0  0  0  0  0  0  0  0  0  0  0
   -0.3163   -1.8797   -4.7472 H   0  0  0  0  0  0  0  0  0  0  0  0
    0.5619   -0.3291   -4.7484 H   0  0  0  0  0  0  0  0  0  0  0  0
    0.5619   -2.3394   -2.4029 H   0  0  0  0  0  0  0  0  0  0  0  0
    0.5619   -0.5072   -1.0102 H   0  0  0  0  0  0  0  0  0  0  0  0
    0.5619   -0.7535    0.2734 C   0  0  0  0  0  3  0  0  0  0  0  0
   -0.1047    0.3004    0.9082 O   0  0  0  0  0  0  0  0  0  0  0  0
    0.3208    0.4971    2.2338 C   0  0  0  0  0  0  0  0  0  0  0  0
   -0.4755    1.6261    2.8551 C   0  0  0  0  0  0  0  0  0  0  0  0
   -1.9642    1.3225    2.9596 C   0  0  0  0  0  0  0  0  0  0  0  0
    1.6448   -0.5748    0.2252 H   0  0  0  0  0  0  0  0  0  0  0  0
    0.3931   -1.7072    0.7917 H   0  0  0  0  0  0  0  0  0  0  0  0
    1.3951    0.7332    2.2506 H   0  0  0  0  0  0  0  0  0  0  0  0
    0.1799   -0.4293    2.8131 H   0  0  0  0  0  0  0  0  0  0  0  0
   -0.3173    2.5300    2.2613 H   0  0  0  0  0  0  0  0  0  0  0  0
   -0.0610    1.8226    3.8478 H   0  0  0  0  0  0  0  0  0  0  0  0
   -2.5031    2.1545    3.4153 H   0  0  0  0  0  0  0  0  0  0  0  0
   -2.3913    1.1388    1.9738 H   0  0  0  0  0  0  0  0  0  0  0  0
   -2.1388    0.4345    3.5722 H   0  0  0  0  0  0  0  0  0  0  0  0
  1  2  1  0
  1  4  1  0
  1  5  1  0
  1  6  1  0
  2  3  2  3
  2  7  1  0
  3  8  1  0
  9 10  1  0
  9 14  1  0
  9 15  1  0
 10 11  1  0
 11 12  1  0
 11 16  1  0
 11 17  1  0
 12 13  1  0
 12 18  1  0
 12 19  1  0
 13 20  1  0
 13 21  1  0
 13 22  1  0
M  RAD  1   9   2
M  END
>  <reaction>  (17) 
rmg_rxn_16534

>  <mol_properties>  (17) 
{"1": {"label": "*0", "atom_type": "Cd"}, "2": {"label": "*1", "atom_type": "N3d"}, "7": {"label": "*2", "atom_type": "H0"}, "8": {"label": "*3", "atom_type": "Cs"}, "9": {"label": "*4", "atom_type": "O2s"}}

>  <type>  (17) 
unop_13

>  <geom_source>  (17) 
Heuristics

$$$$

     RDKit          3D

 22 20  0  0  0  0  0  0  0  0999 V2000
   -0.1733    0.7987   -3.9227 C   0  0  0  0  0  0  0  0  0  0  0  0
   -0.1733    0.7987   -2.4303 C   0  0  0  0  0  0  0  0  0  0  0  0
   -0.1733    1.8714   -1.7627 N   0  0  0  0  0  0  0  0  0  0  0  0
    0.7050    0.2687   -4.3001 H   0  0  0  0  0  0  0  0  0  0  0  0
   -1.0515    0.2687   -4.3001 H   0  0  0  0  0  0  0  0  0  0  0  0
   -0.1733    1.8193   -4.3013 H   0  0  0  0  0  0  0  0  0  0  0  0
   -0.1733   -0.1910   -1.9557 H   0  0  0  0  0  0  0  0  0  0  0  0
   -0.1733    1.6412   -0.5631 H   0  0  0  0  0  0  0  0  0  0  0  0
   -0.1733    1.3949    0.7206 C   0  0  0  0  0  3  0  0  0  0  0  0
   -0.1733    0.0055    0.8866 O   0  0  0  0  0  0  0  0  0  0  0  0
   -0.1760   -0.3839    2.2377 C   0  0  0  0  0  0  0  0  0  0  0  0
   -0.1369   -1.8956    2.3253 C   0  0  0  0  0  0  0  0  0  0  0  0
    1.1359   -2.4968    1.7442 C   0  0  0  0  0  0  0  0  0  0  0  0
   -1.0635    1.8547    1.1711 H   0  0  0  0  0  0  0  0  0  0  0  0
    0.7169    1.8543    1.1713 H   0  0  0  0  0  0  0  0  0  0  0  0
   -1.0760    0.0045    2.7369 H   0  0  0  0  0  0  0  0  0  0  0  0
    0.6967    0.0481    2.7530 H   0  0  0  0  0  0  0  0  0  0  0  0
   -1.0120   -2.2959    1.8070 H   0  0  0  0  0  0  0  0  0  0  0  0
   -0.2377   -2.1735    3.3781 H   0  0  0  0  0  0  0  0  0  0  0  0
    1.1304   -3.5845    1.8292 H   0  0  0  0  0  0  0  0  0  0  0  0
    1.2395   -2.2379    0.6905 H   0  0  0  0  0  0  0  0  0  0  0  0
    2.0184   -2.1240    2.2701 H   0  0  0  0  0  0  0  0  0  0  0  0
  1  2  1  0
  1  4  1  0
  1  5  1  0
  1  6  1  0
  2  3  2  3
  2  7  1  0
  3  8  1  0
  9 10  1  0
  9 14  1  0
  9 15  1  0
 10 11  1  0
 11 12  1  0
 11 16  1  0
 11 17  1  0
 12 13  1  0
 12 18  1  0
 12 19  1  0
 13 20  1  0
 13 21  1  0
 13 22  1  0
M  RAD  1   9   2
M  END
>  <reaction>  (18) 
rmg_rxn_16534

>  <mol_properties>  (18) 
{"1": {"label": "*0", "atom_type": "Cd"}, "2": {"label": "*1", "atom_type": "N3d"}, "7": {"label": "*2", "atom_type": "H0"}, "8": {"label": "*3", "atom_type": "Cs"}, "9": {"label": "*4", "atom_type": "O2s"}}

>  <type>  (18) 
unop_14

>  <geom_source>  (18) 
Heuristics

$$$$

     RDKit          3D

 22 20  0  0  0  0  0  0  0  0999 V2000
   -0.8477    0.5088   -3.9061 C   0  0  0  0  0  0  0  0  0  0  0  0
   -0.8477    0.5088   -2.4138 C   0  0  0  0  0  0  0  0  0  0  0  0
   -0.8477    1.5814   -1.7461 N   0  0  0  0  0  0  0  0  0  0  0  0
    0.0305   -0.0212   -4.2835 H   0  0  0  0  0  0  0  0  0  0  0  0
   -1.7260   -0.0212   -4.2835 H   0  0  0  0  0  0  0  0  0  0  0  0
   -0.8477    1.5294   -4.2847 H   0  0  0  0  0  0  0  0  0  0  0  0
   -0.8477   -0.4809   -1.9391 H   0  0  0  0  0  0  0  0  0  0  0  0
   -0.8477    1.3513   -0.5465 H   0  0  0  0  0  0  0  0  0  0  0  0
   -0.8477    1.1050    0.7371 C   0  0  0  0  0  3  0  0  0  0  0  0
   -0.1811   -0.1090    0.9368 O   0  0  0  0  0  0  0  0  0  0  0  0
    0.2434   -0.2878    2.2653 C   0  0  0  0  0  0  0  0  0  0  0  0
    0.9856   -1.6030    2.3832 C   0  0  0  0  0  0  0  0  0  0  0  0
    2.2610   -1.6479    1.5522 C   0  0  0  0  0  0  0  0  0  0  0  0
   -1.7497    1.1769    1.3602 H   0  0  0  0  0  0  0  0  0  0  0  0
   -0.2008    1.9623    0.9677 H   0  0  0  0  0  0  0  0  0  0  0  0
   -0.6254   -0.2777    2.9400 H   0  0  0  0  0  0  0  0  0  0  0  0
    0.8995    0.5455    2.5635 H   0  0  0  0  0  0  0  0  0  0  0  0
    0.3123   -2.4096    2.0818 H   0  0  0  0  0  0  0  0  0  0  0  0
    1.2189   -1.7632    3.4395 H   0  0  0  0  0  0  0  0  0  0  0  0
    2.7698   -2.6063    1.6660 H   0  0  0  0  0  0  0  0  0  0  0  0
    2.0387   -1.5034    0.4950 H   0  0  0  0  0  0  0  0  0  0  0  0
    2.9547   -0.8616    1.8601 H   0  0  0  0  0  0  0  0  0  0  0  0
  1  2  1  0
  1  4  1  0
  1  5  1  0
  1  6  1  0
  2  3  2  3
  2  7  1  0
  3  8  1  0
  9 10  1  0
  9 14  1  0
  9 15  1  0
 10 11  1  0
 11 12  1  0
 11 16  1  0
 11 17  1  0
 12 13  1  0
 12 18  1  0
 12 19  1  0
 13 20  1  0
 13 21  1  0
 13 22  1  0
M  RAD  1   9   2
M  END
>  <reaction>  (19) 
rmg_rxn_16534

>  <mol_properties>  (19) 
{"1": {"label": "*0", "atom_type": "Cd"}, "2": {"label": "*1", "atom_type": "N3d"}, "7": {"label": "*2", "atom_type": "H0"}, "8": {"label": "*3", "atom_type": "Cs"}, "9": {"label": "*4", "atom_type": "O2s"}}

>  <type>  (19) 
unop_15

>  <geom_source>  (19) 
gaussian_log

$$$$
