
     RDKit          3D

 14 13  0  0  0  0  0  0  0  0999 V2000
    1.8106   -0.5953    0.5577 C   0  0  0  0  0  0  0  0  0  0  0  0
    0.5197    0.2064    0.6554 C   0  0  0  0  0  0  0  0  0  0  0  0
   -0.5206   -0.2080   -0.3788 C   0  0  0  0  0  0  0  0  0  0  0  0
   -1.8114    0.5937   -0.2812 C   0  0  0  0  0  0  0  0  0  0  0  0
    2.2725   -0.4752   -0.4251 H   0  0  0  0  0  0  0  0  0  0  0  0
    1.6214   -1.6612    0.7052 H   0  0  0  0  0  0  0  0  0  0  0  0
    2.5364   -0.2784    1.3084 H   0  0  0  0  0  0  0  0  0  0  0  0
    0.0930    0.0950    1.6574 H   0  0  0  0  0  0  0  0  0  0  0  0
    0.7393    1.2723    0.5354 H   0  0  0  0  0  0  0  0  0  0  0  0
   -0.7402   -1.2739   -0.2588 H   0  0  0  0  0  0  0  0  0  0  0  0
   -0.0938   -0.0965   -1.3808 H   0  0  0  0  0  0  0  0  0  0  0  0
   -1.6222    1.6596   -0.4287 H   0  0  0  0  0  0  0  0  0  0  0  0
   -2.2734    0.4736    0.7017 H   0  0  0  0  0  0  0  0  0  0  0  0
   -2.5373    0.2768   -1.0318 H   0  0  0  0  0  0  0  0  0  0  0  0
  1  2  1  0
  1  5  1  0
  1  6  1  0
  1  7  1  0
  2  3  1  0
  2  8  1  0
  2  9  1  0
  3  4  1  0
  3 10  1  0
  3 11  1  0
  4 12  1  0
  4 13  1  0
  4 14  1  0
M  END
>  <reaction>  (1) 
rmg_rxn_15406

>  <mol_properties>  (1) 
{"2": {"label": "donator", "atom_type": "Cs"}, "10": {"label": "d_hydrogen", "atom_type": "H0"}}

>  <type>  (1) 
r1h

$$$$

     RDKit          3D

  5  4  0  0  0  0  0  0  0  0999 V2000
    0.8934    0.3742    0.4948 O   0  0  0  0  0  0  0  0  0  0  0  0
    0.1582   -0.1610   -0.5904 N   0  0  0  0  0  0  0  0  0  0  0  0
   -1.0297   -0.3739   -0.4689 C   0  0  0  0  0  3  0  0  0  0  0  0
    1.7804    0.4382    0.1306 H   0  0  0  0  0  0  0  0  0  0  0  0
   -1.8023   -0.2775    0.2859 H   0  0  0  0  0  0  0  0  0  0  0  0
  1  2  1  0
  1  4  1  0
  2  3  2  3
  3  5  1  0
M  RAD  1   3   2
M  END
>  <reaction>  (2) 
rmg_rxn_15406

>  <mol_properties>  (2) 
{"2": {"label": "acceptor", "atom_type": "Cd"}}

>  <type>  (2) 
r2

$$$$

     RDKit          3D

  6  5  0  0  0  0  0  0  0  0999 V2000
    1.2314    0.0428    0.5088 O   0  0  0  0  0  0  0  0  0  0  0  0
    0.2987    0.2341   -0.4915 N   0  0  0  0  0  0  0  0  0  0  0  0
   -0.8599   -0.1122   -0.1290 C   0  0  0  0  0  0  0  0  0  0  0  0
    2.0507    0.3401    0.1082 H   0  0  0  0  0  0  0  0  0  0  0  0
   -1.0700   -0.5112    0.8610 H   0  0  0  0  0  0  0  0  0  0  0  0
   -1.6509    0.0064   -0.8574 H   0  0  0  0  0  0  0  0  0  0  0  0
  1  2  1  0
  1  4  1  0
  2  3  2  3
  3  5  1  0
  3  6  1  0
M  END
>  <reaction>  (3) 
rmg_rxn_15406

>  <mol_properties>  (3) 
{"2": {"label": "acceptor", "atom_type": "Cd"}, "5": {"label": "a_hydrogen", "atom_type": "H0"}}

>  <type>  (3) 
r2h

$$$$

     RDKit          3D

 19 17  0  0  0  0  0  0  0  0999 V2000
   -3.0272    0.3997   -0.5694 O   0  0  0  0  0  0  0  0  0  0  0  0
   -1.6297    0.2867   -0.5030 N   0  0  0  0  0  0  0  0  0  0  0  0
   -1.1388    0.6709    0.5731 C   0  0  0  0  0  3  0  0  0  0  0  0
   -3.2247    0.0649   -1.4471 H   0  0  0  0  0  0  0  0  0  0  0  0
   -1.6654    1.0723    1.4392 H   0  0  0  0  0  0  0  0  0  0  0  0
    1.2424   -2.0970    0.4675 C   0  0  0  0  0  0  0  0  0  0  0  0
    1.6782   -0.8891   -0.3504 C   0  0  0  0  0  0  0  0  0  0  0  0
    1.5316    0.4195    0.3897 C   0  0  0  0  0  0  0  0  0  0  0  0
    1.9535    1.6526   -0.3704 C   0  0  0  0  0  0  0  0  0  0  0  0
    0.1893   -2.0167    0.7439 H   0  0  0  0  0  0  0  0  0  0  0  0
    1.8264   -2.1798    1.3872 H   0  0  0  0  0  0  0  0  0  0  0  0
    1.3707   -3.0229   -0.0948 H   0  0  0  0  0  0  0  0  0  0  0  0
    2.7255   -1.0064   -0.6559 H   0  0  0  0  0  0  0  0  0  0  0  0
    1.0937   -0.8373   -1.2741 H   0  0  0  0  0  0  0  0  0  0  0  0
    1.9484    0.3783    1.3995 H   0  0  0  0  0  0  0  0  0  0  0  0
    0.2987    0.5472    0.5920 H   0  0  0  0  0  0  0  0  0  0  0  0
    1.7600    2.5625    0.1997 H   0  0  0  0  0  0  0  0  0  0  0  0
    1.4145    1.7251   -1.3176 H   0  0  0  0  0  0  0  0  0  0  0  0
    3.0236    1.6227   -0.5981 H   0  0  0  0  0  0  0  0  0  0  0  0
  1  2  1  0
  1  4  1  0
  2  3  2  3
  3  5  1  0
  6  7  1  0
  6 10  1  0
  6 11  1  0
  6 12  1  0
  7  8  1  0
  7 13  1  0
  7 14  1  0
  8  9  1  0
  8 15  1  0
  8 16  1  0
  9 17  1  0
  9 18  1  0
  9 19  1  0
M  RAD  1   3   2
M  END
>  <reaction>  (4) 
rmg_rxn_15406

>  <mol_properties>  (4) 
{"1": {"label": "*4", "atom_type": "N3d"}, "2": {"label": "*3", "atom_type": "Cd"}, "6": {"label": "*0", "atom_type": "Cs"}, "7": {"label": "*1", "atom_type": "Cs"}, "15": {"label": "*2", "atom_type": "H0"}}

>  <type>  (4) 
ts

$$$$

     RDKit          3D

 19 17  0  0  0  0  0  0  0  0999 V2000
   -3.1893    0.0448   -0.1388 O   0  0  0  0  0  0  0  0  0  0  0  0
   -1.7905   -0.1109    0.0014 N   0  0  0  0  0  0  0  0  0  0  0  0
   -1.0798    0.8845    0.1910 C   0  0  0  0  0  0  0  0  0  0  0  0
   -3.5179   -0.8543   -0.2742 H   0  0  0  0  0  0  0  0  0  0  0  0
   -1.3683    1.9259    0.2722 H   0  0  0  0  0  0  0  0  0  0  0  0
    1.0607   -2.0379    0.1752 C   0  0  0  0  0  0  0  0  0  0  0  0
    1.7891   -0.8286   -0.3997 C   0  0  0  0  0  0  0  0  0  0  0  0
    1.5038    0.4301    0.3808 C   0  0  0  0  0  3  0  0  0  0  0  0
    2.1453    1.6811   -0.1610 C   0  0  0  0  0  0  0  0  0  0  0  0
   -0.0123   -1.8677    0.1563 H   0  0  0  0  0  0  0  0  0  0  0  0
    1.3659   -2.2123    1.2048 H   0  0  0  0  0  0  0  0  0  0  0  0
    1.2858   -2.9297   -0.4047 H   0  0  0  0  0  0  0  0  0  0  0  0
    2.8701   -1.0202   -0.3938 H   0  0  0  0  0  0  0  0  0  0  0  0
    1.4938   -0.6851   -1.4421 H   0  0  0  0  0  0  0  0  0  0  0  0
    1.6709    0.3031    1.4493 H   0  0  0  0  0  0  0  0  0  0  0  0
    0.1968    0.6300    0.2949 H   0  0  0  0  0  0  0  0  0  0  0  0
    1.8283    2.5567    0.4020 H   0  0  0  0  0  0  0  0  0  0  0  0
    1.8841    1.8262   -1.2078 H   0  0  0  0  0  0  0  0  0  0  0  0
    3.2342    1.6176   -0.0949 H   0  0  0  0  0  0  0  0  0  0  0  0
  1  2  1  0
  1  4  1  0
  2  3  2  3
  3  5  1  0
  3 16  1  0
  6  7  1  0
  6 10  1  0
  6 11  1  0
  6 12  1  0
  7  8  1  0
  7 13  1  0
  7 14  1  0
  8  9  1  0
  8 15  1  0
  9 17  1  0
  9 18  1  0
  9 19  1  0
M  RAD  1   8   2
M  END
>  <reaction>  (5) 
rmg_rxn_15406

>  <mol_properties>  (5) 
{"1": {"label": "*4", "atom_type": "N3d"}, "2": {"label": "*3", "atom_type": "Cd"}, "6": {"label": "*0", "atom_type": "Cs"}, "7": {"label": "*1", "atom_type": "Cs"}, "15": {"label": "*2", "atom_type": "H0"}}

>  <type>  (5) 
unop_1

>  <geom_source>  (5) 
crest_best.xyz

$$$$

     RDKit          3D

 19 17  0  0  0  0  0  0  0  0999 V2000
    1.7370    2.7202   -0.4815 O   0  0  0  0  0  0  0  0  0  0  0  0
    0.8809    1.6987   -0.8431 N   0  0  0  0  0  0  0  0  0  0  0  0
    1.1070    0.6408   -0.1924 C   0  0  0  0  0  0  0  0  0  0  0  0
    1.4612    3.4492   -1.0404 H   0  0  0  0  0  0  0  0  0  0  0  0
    1.8906    0.5704    0.5590 H   0  0  0  0  0  0  0  0  0  0  0  0
   -0.9807   -2.0639   -1.4361 C   0  0  0  0  0  0  0  0  0  0  0  0
   -0.9807   -2.0639    0.0866 C   0  0  0  0  0  0  0  0  0  0  0  0
   -0.9807   -0.6616    0.6839 C   0  0  0  0  0  3  0  0  0  0  0  0
   -0.9807   -0.6616    2.2066 C   0  0  0  0  0  0  0  0  0  0  0  0
   -0.0992   -1.5506   -1.8275 H   0  0  0  0  0  0  0  0  0  0  0  0
   -1.8622   -1.5506   -1.8275 H   0  0  0  0  0  0  0  0  0  0  0  0
   -0.9807   -3.0790   -1.8365 H   0  0  0  0  0  0  0  0  0  0  0  0
   -1.8557   -2.6098    0.4539 H   0  0  0  0  0  0  0  0  0  0  0  0
   -0.1056   -2.6098    0.4539 H   0  0  0  0  0  0  0  0  0  0  0  0
   -1.8557   -0.1157    0.3166 H   0  0  0  0  0  0  0  0  0  0  0  0
    0.0694   -0.0065    0.2432 H   0  0  0  0  0  0  0  0  0  0  0  0
   -0.0992   -1.1749    2.5980 H   0  0  0  0  0  0  0  0  0  0  0  0
   -1.8622   -1.1749    2.5980 H   0  0  0  0  0  0  0  0  0  0  0  0
   -0.9807    0.3535    2.6070 H   0  0  0  0  0  0  0  0  0  0  0  0
  1  2  1  0
  1  4  1  0
  2  3  2  3
  3  5  1  0
  3 16  1  0
  6  7  1  0
  6 10  1  0
  6 11  1  0
  6 12  1  0
  7  8  1  0
  7 13  1  0
  7 14  1  0
  8  9  1  0
  8 15  1  0
  9 17  1  0
  9 18  1  0
  9 19  1  0
M  RAD  1   8   2
M  END
>  <reaction>  (6) 
rmg_rxn_15406

>  <mol_properties>  (6) 
{"1": {"label": "*4", "atom_type": "N3d"}, "2": {"label": "*3", "atom_type": "Cd"}, "6": {"label": "*0", "atom_type": "Cs"}, "7": {"label": "*1", "atom_type": "Cs"}, "15": {"label": "*2", "atom_type": "H0"}}

>  <type>  (6) 
unop_2

>  <geom_source>  (6) 
Heuristics

$$$$

     RDKit          3D

 19 17  0  0  0  0  0  0  0  0999 V2000
   -3.1874    0.0439   -0.1416 O   0  0  0  0  0  0  0  0  0  0  0  0
   -1.7880   -0.1105   -0.0055 N   0  0  0  0  0  0  0  0  0  0  0  0
   -1.0805    0.8828    0.2063 C   0  0  0  0  0  0  0  0  0  0  0  0
   -3.5130   -0.8528   -0.2982 H   0  0  0  0  0  0  0  0  0  0  0  0
   -1.3724    1.9212    0.3104 H   0  0  0  0  0  0  0  0  0  0  0  0
    1.0628   -2.0378    0.1798 C   0  0  0  0  0  0  0  0  0  0  0  0
    1.7850   -0.8280   -0.4020 C   0  0  0  0  0  0  0  0  0  0  0  0
    1.5046    0.4309    0.3800 C   0  0  0  0  0  3  0  0  0  0  0  0
    2.1422    1.6818   -0.1665 C   0  0  0  0  0  0  0  0  0  0  0  0
    1.2845   -2.9297   -0.4013 H   0  0  0  0  0  0  0  0  0  0  0  0
   -0.0105   -1.8690    0.1690 H   0  0  0  0  0  0  0  0  0  0  0  0
    1.3765   -2.2110    1.2069 H   0  0  0  0  0  0  0  0  0  0  0  0
    2.8663   -1.0183   -0.4050 H   0  0  0  0  0  0  0  0  0  0  0  0
    1.4808   -0.6855   -1.4420 H   0  0  0  0  0  0  0  0  0  0  0  0
    1.6791    0.3044    1.4474 H   0  0  0  0  0  0  0  0  0  0  0  0
    0.1970    0.6301    0.3030 H   0  0  0  0  0  0  0  0  0  0  0  0
    1.8286    2.5577    0.3979 H   0  0  0  0  0  0  0  0  0  0  0  0
    1.8742    1.8263   -1.2117 H   0  0  0  0  0  0  0  0  0  0  0  0
    3.2315    1.6186   -0.1074 H   0  0  0  0  0  0  0  0  0  0  0  0
  1  2  1  0
  1  4  1  0
  2  3  2  3
  3  5  1  0
  3 16  1  0
  6  7  1  0
  6 10  1  0
  6 11  1  0
  6 12  1  0
  7  8  1  0
  7 13  1  0
  7 14  1  0
  8  9  1  0
  8 15  1  0
  9 17  1  0
  9 18  1  0
  9 19  1  0
M  RAD  1   8   2
M  END
>  <reaction>  (7) 
rmg_rxn_15406

>  <mol_properties>  (7) 
{"1": {"label": "*4", "atom_type": "N3d"}, "2": {"label": "*3", "atom_type": "Cd"}, "6": {"label": "*0", "atom_type": "Cs"}, "7": {"label": "*1", "atom_type": "Cs"}, "15": {"label": "*2", "atom_type": "H0"}}

>  <type>  (7) 
unop_3

>  <geom_source>  (7) 
Heuristics

$$$$

     RDKit          3D

 19 17  0  0  0  0  0  0  0  0999 V2000
   -3.1885    0.0437   -0.1403 O   0  0  0  0  0  0  0  0  0  0  0  0
   -1.7892   -0.1110   -0.0043 N   0  0  0  0  0  0  0  0  0  0  0  0
   -1.0807    0.8827    0.2020 C   0  0  0  0  0  0  0  0  0  0  0  0
   -3.5150   -0.8536   -0.2918 H   0  0  0  0  0  0  0  0  0  0  0  0
   -1.3717    1.9216    0.3019 H   0  0  0  0  0  0  0  0  0  0  0  0
    1.0637   -2.0379    0.1784 C   0  0  0  0  0  0  0  0  0  0  0  0
    1.7873   -0.8277   -0.4009 C   0  0  0  0  0  0  0  0  0  0  0  0
    1.5041    0.4311    0.3802 C   0  0  0  0  0  3  0  0  0  0  0  0
    2.1422    1.6824   -0.1650 C   0  0  0  0  0  0  0  0  0  0  0  0
    1.3742   -2.2110    1.2065 H   0  0  0  0  0  0  0  0  0  0  0  0
    1.2876   -2.9297   -0.4020 H   0  0  0  0  0  0  0  0  0  0  0  0
   -0.0096   -1.8694    0.1642 H   0  0  0  0  0  0  0  0  0  0  0  0
    2.8686   -1.0177   -0.4005 H   0  0  0  0  0  0  0  0  0  0  0  0
    1.4864   -0.6853   -1.4419 H   0  0  0  0  0  0  0  0  0  0  0  0
    1.6761    0.3048    1.4480 H   0  0  0  0  0  0  0  0  0  0  0  0
    0.1966    0.6294    0.3000 H   0  0  0  0  0  0  0  0  0  0  0  0
    1.8784    1.8253   -1.2115 H   0  0  0  0  0  0  0  0  0  0  0  0
    3.2314    1.6210   -0.1012 H   0  0  0  0  0  0  0  0  0  0  0  0
    1.8249    2.5584    0.3972 H   0  0  0  0  0  0  0  0  0  0  0  0
  1  2  1  0
  1  4  1  0
  2  3  2  3
  3  5  1  0
  3 16  1  0
  6  7  1  0
  6 10  1  0
  6 11  1  0
  6 12  1  0
  7  8  1  0
  7 13  1  0
  7 14  1  0
  8  9  1  0
  8 15  1  0
  9 17  1  0
  9 18  1  0
  9 19  1  0
M  RAD  1   8   2
M  END
>  <reaction>  (8) 
rmg_rxn_15406

>  <mol_properties>  (8) 
{"1": {"label": "*4", "atom_type": "N3d"}, "2": {"label": "*3", "atom_type": "Cd"}, "6": {"label": "*0", "atom_type": "Cs"}, "7": {"label": "*1", "atom_type": "Cs"}, "15": {"label": "*2", "atom_type": "H0"}}

>  <type>  (8) 
unop_4

>  <geom_source>  (8) 
Heuristics

$$$$

     RDKit          3D

 19 17  0  0  0  0  0  0  0  0999 V2000
    2.1591    1.7257   -1.5675 O   0  0  0  0  0  0  0  0  0  0  0  0
    1.3372    0.7522   -1.0347 N   0  0  0  0  0  0  0  0  0  0  0  0
    0.9161    1.0663    0.1131 C   0  0  0  0  0  0  0  0  0  0  0  0
    2.4030    1.3666   -2.4228 H   0  0  0  0  0  0  0  0  0  0  0  0
    1.1850    2.0006    0.6012 H   0  0  0  0  0  0  0  0  0  0  0  0
   -1.1716   -1.6384   -1.1307 C   0  0  0  0  0  0  0  0  0  0  0  0
   -1.1716   -1.6384    0.3920 C   0  0  0  0  0  0  0  0  0  0  0  0
   -1.1716   -0.2361    0.9894 C   0  0  0  0  0  3  0  0  0  0  0  0
   -1.1716   -0.2361    2.5121 C   0  0  0  0  0  0  0  0  0  0  0  0
   -0.2901   -1.1251   -1.5221 H   0  0  0  0  0  0  0  0  0  0  0  0
   -2.0531   -1.1251   -1.5221 H   0  0  0  0  0  0  0  0  0  0  0  0
   -1.1716   -2.6535   -1.5311 H   0  0  0  0  0  0  0  0  0  0  0  0
   -2.0466   -2.1843    0.7593 H   0  0  0  0  0  0  0  0  0  0  0  0
   -0.2966   -2.1843    0.7593 H   0  0  0  0  0  0  0  0  0  0  0  0
   -2.0466    0.3098    0.6221 H   0  0  0  0  0  0  0  0  0  0  0  0
   -0.1215    0.4190    0.5486 H   0  0  0  0  0  0  0  0  0  0  0  0
   -0.2901   -0.7494    2.9035 H   0  0  0  0  0  0  0  0  0  0  0  0
   -2.0531   -0.7494    2.9035 H   0  0  0  0  0  0  0  0  0  0  0  0
   -1.1716    0.7790    2.9125 H   0  0  0  0  0  0  0  0  0  0  0  0
  1  2  1  0
  1  4  1  0
  2  3  2  3
  3  5  1  0
  3 16  1  0
  6  7  1  0
  6 10  1  0
  6 11  1  0
  6 12  1  0
  7  8  1  0
  7 13  1  0
  7 14  1  0
  8  9  1  0
  8 15  1  0
  9 17  1  0
  9 18  1  0
  9 19  1  0
M  RAD  1   8   2
M  END
>  <reaction>  (9) 
rmg_rxn_15406

>  <mol_properties>  (9) 
{"1": {"label": "*4", "atom_type": "N3d"}, "2": {"label": "*3", "atom_type": "Cd"}, "6": {"label": "*0", "atom_type": "Cs"}, "7": {"label": "*1", "atom_type": "Cs"}, "15": {"label": "*2", "atom_type": "H0"}}

>  <type>  (9) 
unop_5

>  <geom_source>  (9) 
Heuristics

$$$$

     RDKit          3D

 19 17  0  0  0  0  0  0  0  0999 V2000
   -3.1882    0.0449   -0.1394 O   0  0  0  0  0  0  0  0  0  0  0  0
   -1.7886   -0.1099   -0.0060 N   0  0  0  0  0  0  0  0  0  0  0  0
   -1.0800    0.8835    0.2017 C   0  0  0  0  0  0  0  0  0  0  0  0
   -3.5147   -0.8522   -0.2923 H   0  0  0  0  0  0  0  0  0  0  0  0
   -1.3710    1.9222    0.3043 H   0  0  0  0  0  0  0  0  0  0  0  0
    1.0592   -2.0375    0.1778 C   0  0  0  0  0  0  0  0  0  0  0  0
    1.7878   -0.8292   -0.3991 C   0  0  0  0  0  0  0  0  0  0  0  0
    1.5046    0.4306    0.3803 C   0  0  0  0  0  3  0  0  0  0  0  0
    2.1443    1.6808   -0.1655 C   0  0  0  0  0  0  0  0  0  0  0  0
   -0.0138   -1.8670    0.1584 H   0  0  0  0  0  0  0  0  0  0  0  0
    1.3643   -2.2102    1.2076 H   0  0  0  0  0  0  0  0  0  0  0  0
    1.2841   -2.9303   -0.4006 H   0  0  0  0  0  0  0  0  0  0  0  0
    2.8687   -1.0218   -0.3944 H   0  0  0  0  0  0  0  0  0  0  0  0
    1.4913   -0.6866   -1.4413 H   0  0  0  0  0  0  0  0  0  0  0  0
    1.6755    0.3053    1.4484 H   0  0  0  0  0  0  0  0  0  0  0  0
    0.1974    0.6300    0.2988 H   0  0  0  0  0  0  0  0  0  0  0  0
    1.8798    1.8241   -1.2118 H   0  0  0  0  0  0  0  0  0  0  0  0
    3.2334    1.6173   -0.1028 H   0  0  0  0  0  0  0  0  0  0  0  0
    1.8291    2.5573    0.3968 H   0  0  0  0  0  0  0  0  0  0  0  0
  1  2  1  0
  1  4  1  0
  2  3  2  3
  3  5  1  0
  3 16  1  0
  6  7  1  0
  6 10  1  0
  6 11  1  0
  6 12  1  0
  7  8  1  0
  7 13  1  0
  7 14  1  0
  8  9  1  0
  8 15  1  0
  9 17  1  0
  9 18  1  0
  9 19  1  0
M  RAD  1   8   2
M  END
>  <reaction>  (10) 
rmg_rxn_15406

>  <mol_properties>  (10) 
{"1": {"label": "*4", "atom_type": "N3d"}, "2": {"label": "*3", "atom_type": "Cd"}, "6": {"label": "*0", "atom_type": "Cs"}, "7": {"label": "*1", "atom_type": "Cs"}, "15": {"label": "*2", "atom_type": "H0"}}

>  <type>  (10) 
unop_6

>  <geom_source>  (10) 
Heuristics

$$$$

     RDKit          3D

 19 17  0  0  0  0  0  0  0  0999 V2000
    2.0858    2.5533   -0.1960 O   0  0  0  0  0  0  0  0  0  0  0  0
    0.8974    1.8966   -0.4477 N   0  0  0  0  0  0  0  0  0  0  0  0
    1.0174    0.6448   -0.3379 C   0  0  0  0  0  0  0  0  0  0  0  0
    1.8575    3.4777   -0.3116 H   0  0  0  0  0  0  0  0  0  0  0  0
    1.9584    0.1665   -0.0747 H   0  0  0  0  0  0  0  0  0  0  0  0
   -1.0703   -2.0600   -1.5817 C   0  0  0  0  0  0  0  0  0  0  0  0
   -1.0703   -2.0600   -0.0590 C   0  0  0  0  0  0  0  0  0  0  0  0
   -1.0703   -0.6576    0.5384 C   0  0  0  0  0  3  0  0  0  0  0  0
   -1.0703   -0.6576    2.0611 C   0  0  0  0  0  0  0  0  0  0  0  0
   -0.1887   -1.5466   -1.9730 H   0  0  0  0  0  0  0  0  0  0  0  0
   -1.9518   -1.5466   -1.9730 H   0  0  0  0  0  0  0  0  0  0  0  0
   -1.0703   -3.0751   -1.9820 H   0  0  0  0  0  0  0  0  0  0  0  0
   -1.9453   -2.6059    0.3083 H   0  0  0  0  0  0  0  0  0  0  0  0
   -0.1952   -2.6059    0.3083 H   0  0  0  0  0  0  0  0  0  0  0  0
   -1.9453   -0.1117    0.1711 H   0  0  0  0  0  0  0  0  0  0  0  0
   -0.0202   -0.0026    0.0976 H   0  0  0  0  0  0  0  0  0  0  0  0
   -0.1887   -1.1710    2.4525 H   0  0  0  0  0  0  0  0  0  0  0  0
   -1.9518   -1.1710    2.4525 H   0  0  0  0  0  0  0  0  0  0  0  0
   -1.0703    0.3575    2.4615 H   0  0  0  0  0  0  0  0  0  0  0  0
  1  2  1  0
  1  4  1  0
  2  3  2  3
  3  5  1  0
  3 16  1  0
  6  7  1  0
  6 10  1  0
  6 11  1  0
  6 12  1  0
  7  8  1  0
  7 13  1  0
  7 14  1  0
  8  9  1  0
  8 15  1  0
  9 17  1  0
  9 18  1  0
  9 19  1  0
M  RAD  1   8   2
M  END
>  <reaction>  (11) 
rmg_rxn_15406

>  <mol_properties>  (11) 
{"1": {"label": "*4", "atom_type": "N3d"}, "2": {"label": "*3", "atom_type": "Cd"}, "6": {"label": "*0", "atom_type": "Cs"}, "7": {"label": "*1", "atom_type": "Cs"}, "15": {"label": "*2", "atom_type": "H0"}}

>  <type>  (11) 
unop_7

>  <geom_source>  (11) 
Heuristics

$$$$

     RDKit          3D

 19 17  0  0  0  0  0  0  0  0999 V2000
    2.7700    1.6013   -0.0039 O   0  0  0  0  0  0  0  0  0  0  0  0
    1.8054    0.6266   -0.1671 N   0  0  0  0  0  0  0  0  0  0  0  0
    0.6761    1.1209   -0.4386 C   0  0  0  0  0  0  0  0  0  0  0  0
    3.5624    1.0984    0.1943 H   0  0  0  0  0  0  0  0  0  0  0  0
    0.5108    2.1925   -0.5274 H   0  0  0  0  0  0  0  0  0  0  0  0
   -1.4116   -1.5838   -1.6823 C   0  0  0  0  0  0  0  0  0  0  0  0
   -1.4116   -1.5838   -0.1596 C   0  0  0  0  0  0  0  0  0  0  0  0
   -1.4116   -0.1815    0.4377 C   0  0  0  0  0  3  0  0  0  0  0  0
   -1.4116   -0.1815    1.9604 C   0  0  0  0  0  0  0  0  0  0  0  0
   -0.5300   -1.0705   -2.0737 H   0  0  0  0  0  0  0  0  0  0  0  0
   -2.2931   -1.0705   -2.0737 H   0  0  0  0  0  0  0  0  0  0  0  0
   -1.4116   -2.5989   -2.0827 H   0  0  0  0  0  0  0  0  0  0  0  0
   -2.2866   -2.1297    0.2077 H   0  0  0  0  0  0  0  0  0  0  0  0
   -0.5365   -2.1297    0.2077 H   0  0  0  0  0  0  0  0  0  0  0  0
   -2.2866    0.3644    0.0704 H   0  0  0  0  0  0  0  0  0  0  0  0
   -0.3615    0.4736   -0.0030 H   0  0  0  0  0  0  0  0  0  0  0  0
   -0.5300   -0.6948    2.3518 H   0  0  0  0  0  0  0  0  0  0  0  0
   -2.2931   -0.6948    2.3518 H   0  0  0  0  0  0  0  0  0  0  0  0
   -1.4116    0.8336    2.3608 H   0  0  0  0  0  0  0  0  0  0  0  0
  1  2  1  0
  1  4  1  0
  2  3  2  3
  3  5  1  0
  3 16  1  0
  6  7  1  0
  6 10  1  0
  6 11  1  0
  6 12  1  0
  7  8  1  0
  7 13  1  0
  7 14  1  0
  8  9  1  0
  8 15  1  0
  9 17  1  0
  9 18  1  0
  9 19  1  0
M  RAD  1   8   2
M  END
>  <reaction>  (12) 
rmg_rxn_15406

>  <mol_properties>  (12) 
{"1": {"label": "*4", "atom_type": "N3d"}, "2": {"label": "*3", "atom_type": "Cd"}, "6": {"label": "*0", "atom_type": "Cs"}, "7": {"label": "*1", "atom_type": "Cs"}, "15": {"label": "*2", "atom_type": "H0"}}

>  <type>  (12) 
unop_8

>  <geom_source>  (12) 
Heuristics

$$$$

     RDKit          3D

 19 17  0  0  0  0  0  0  0  0999 V2000
   -3.1870    0.0445   -0.1414 O   0  0  0  0  0  0  0  0  0  0  0  0
   -1.7877   -0.1092   -0.0040 N   0  0  0  0  0  0  0  0  0  0  0  0
   -1.0798    0.8846    0.2038 C   0  0  0  0  0  0  0  0  0  0  0  0
   -3.5124   -0.8530   -0.2941 H   0  0  0  0  0  0  0  0  0  0  0  0
   -1.3706    1.9236    0.3042 H   0  0  0  0  0  0  0  0  0  0  0  0
    1.0595   -2.0379    0.1791 C   0  0  0  0  0  0  0  0  0  0  0  0
    1.7844   -0.8291   -0.4014 C   0  0  0  0  0  0  0  0  0  0  0  0
    1.5048    0.4302    0.3801 C   0  0  0  0  0  3  0  0  0  0  0  0
    2.1447    1.6802   -0.1658 C   0  0  0  0  0  0  0  0  0  0  0  0
    1.3718   -2.2119    1.2065 H   0  0  0  0  0  0  0  0  0  0  0  0
    1.2803   -2.9301   -0.4020 H   0  0  0  0  0  0  0  0  0  0  0  0
   -0.0135   -1.8672    0.1674 H   0  0  0  0  0  0  0  0  0  0  0  0
    2.8653   -1.0211   -0.4030 H   0  0  0  0  0  0  0  0  0  0  0  0
    1.4818   -0.6861   -1.4419 H   0  0  0  0  0  0  0  0  0  0  0  0
    1.6780    0.3035    1.4477 H   0  0  0  0  0  0  0  0  0  0  0  0
    0.1976    0.6309    0.3014 H   0  0  0  0  0  0  0  0  0  0  0  0
    3.2338    1.6159   -0.1044 H   0  0  0  0  0  0  0  0  0  0  0  0
    1.8308    2.5567    0.3975 H   0  0  0  0  0  0  0  0  0  0  0  0
    1.8790    1.8243   -1.2116 H   0  0  0  0  0  0  0  0  0  0  0  0
  1  2  1  0
  1  4  1  0
  2  3  2  3
  3  5  1  0
  3 16  1  0
  6  7  1  0
  6 10  1  0
  6 11  1  0
  6 12  1  0
  7  8  1  0
  7 13  1  0
  7 14  1  0
  8  9  1  0
  8 15  1  0
  9 17  1  0
  9 18  1  0
  9 19  1  0
M  RAD  1   8   2
M  END
>  <reaction>  (13) 
rmg_rxn_15406

>  <mol_properties>  (13) 
{"1": {"label": "*4", "atom_type": "N3d"}, "2": {"label": "*3", "atom_type": "Cd"}, "6": {"label": "*0", "atom_type": "Cs"}, "7": {"label": "*1", "atom_type": "Cs"}, "15": {"label": "*2", "atom_type": "H0"}}

>  <type>  (13) 
unop_9

>  <geom_source>  (13) 
Heuristics

$$$$

     RDKit          3D

 19 17  0  0  0  0  0  0  0  0999 V2000
    2.2187    2.4579   -0.4739 O   0  0  0  0  0  0  0  0  0  0  0  0
    1.0877    1.8610    0.0471 N   0  0  0  0  0  0  0  0  0  0  0  0
    0.9485    0.6751   -0.3626 C   0  0  0  0  0  0  0  0  0  0  0  0
    2.2034    3.3364   -0.0892 H   0  0  0  0  0  0  0  0  0  0  0  0
    1.6521    0.2040   -1.0456 H   0  0  0  0  0  0  0  0  0  0  0  0
   -1.1392   -2.0296   -1.6063 C   0  0  0  0  0  0  0  0  0  0  0  0
   -1.1392   -2.0296   -0.0836 C   0  0  0  0  0  0  0  0  0  0  0  0
   -1.1392   -0.6272    0.5137 C   0  0  0  0  0  3  0  0  0  0  0  0
   -1.1392   -0.6272    2.0364 C   0  0  0  0  0  0  0  0  0  0  0  0
   -0.2577   -1.5163   -1.9977 H   0  0  0  0  0  0  0  0  0  0  0  0
   -2.0207   -1.5163   -1.9977 H   0  0  0  0  0  0  0  0  0  0  0  0
   -1.1392   -3.0447   -2.0067 H   0  0  0  0  0  0  0  0  0  0  0  0
   -2.0142   -2.5755    0.2837 H   0  0  0  0  0  0  0  0  0  0  0  0
   -0.2641   -2.5755    0.2837 H   0  0  0  0  0  0  0  0  0  0  0  0
   -2.0142   -0.0814    0.1464 H   0  0  0  0  0  0  0  0  0  0  0  0
   -0.0891    0.0278    0.0730 H   0  0  0  0  0  0  0  0  0  0  0  0
   -0.2577   -1.1406    2.4278 H   0  0  0  0  0  0  0  0  0  0  0  0
   -2.0207   -1.1406    2.4278 H   0  0  0  0  0  0  0  0  0  0  0  0
   -1.1392    0.3879    2.4368 H   0  0  0  0  0  0  0  0  0  0  0  0
  1  2  1  0
  1  4  1  0
  2  3  2  3
  3  5  1  0
  3 16  1  0
  6  7  1  0
  6 10  1  0
  6 11  1  0
  6 12  1  0
  7  8  1  0
  7 13  1  0
  7 14  1  0
  8  9  1  0
  8 15  1  0
  9 17  1  0
  9 18  1  0
  9 19  1  0
M  RAD  1   8   2
M  END
>  <reaction>  (14) 
rmg_rxn_15406

>  <mol_properties>  (14) 
{"1": {"label": "*4", "atom_type": "N3d"}, "2": {"label": "*3", "atom_type": "Cd"}, "6": {"label": "*0", "atom_type": "Cs"}, "7": {"label": "*1", "atom_type": "Cs"}, "15": {"label": "*2", "atom_type": "H0"}}

>  <type>  (14) 
unop_10

>  <geom_source>  (14) 
Heuristics

$$$$

     RDKit          3D

 19 17  0  0  0  0  0  0  0  0999 V2000
   -3.1857    0.0442   -0.1430 O   0  0  0  0  0  0  0  0  0  0  0  0
   -1.7858   -0.1086   -0.0108 N   0  0  0  0  0  0  0  0  0  0  0  0
   -1.0803    0.8828    0.2159 C   0  0  0  0  0  0  0  0  0  0  0  0
   -3.5090   -0.8508   -0.3133 H   0  0  0  0  0  0  0  0  0  0  0  0
   -1.3742    1.9187    0.3375 H   0  0  0  0  0  0  0  0  0  0  0  0
    1.0601   -2.0375    0.1824 C   0  0  0  0  0  0  0  0  0  0  0  0
    1.7822   -0.8290   -0.4022 C   0  0  0  0  0  0  0  0  0  0  0  0
    1.5055    0.4309    0.3794 C   0  0  0  0  0  3  0  0  0  0  0  0
    2.1427    1.6806   -0.1705 C   0  0  0  0  0  0  0  0  0  0  0  0
   -0.0131   -1.8674    0.1740 H   0  0  0  0  0  0  0  0  0  0  0  0
    1.3761   -2.2102    1.2089 H   0  0  0  0  0  0  0  0  0  0  0  0
    1.2790   -2.9302   -0.3986 H   0  0  0  0  0  0  0  0  0  0  0  0
    2.8632   -1.0207   -0.4079 H   0  0  0  0  0  0  0  0  0  0  0  0
    1.4753   -0.6870   -1.4415 H   0  0  0  0  0  0  0  0  0  0  0  0
    1.6834    0.3053    1.4464 H   0  0  0  0  0  0  0  0  0  0  0  0
    0.1978    0.6308    0.3065 H   0  0  0  0  0  0  0  0  0  0  0  0
    1.8722    1.8237   -1.2152 H   0  0  0  0  0  0  0  0  0  0  0  0
    3.2321    1.6164   -0.1139 H   0  0  0  0  0  0  0  0  0  0  0  0
    1.8313    2.5576    0.3934 H   0  0  0  0  0  0  0  0  0  0  0  0
  1  2  1  0
  1  4  1  0
  2  3  2  3
  3  5  1  0
  3 16  1  0
  6  7  1  0
  6 10  1  0
  6 11  1  0
  6 12  1  0
  7  8  1  0
  7 13  1  0
  7 14  1  0
  8  9  1  0
  8 15  1  0
  9 17  1  0
  9 18  1  0
  9 19  1  0
M  RAD  1   8   2
M  END
>  <reaction>  (15) 
rmg_rxn_15406

>  <mol_properties>  (15) 
{"1": {"label": "*4", "atom_type": "N3d"}, "2": {"label": "*3", "atom_type": "Cd"}, "6": {"label": "*0", "atom_type": "Cs"}, "7": {"label": "*1", "atom_type": "Cs"}, "15": {"label": "*2", "atom_type": "H0"}}

>  <type>  (15) 
unop_11

>  <geom_source>  (15) 
Heuristics

$$$$

     RDKit          3D

 19 17  0  0  0  0  0  0  0  0999 V2000
    2.4666    2.0743    0.2312 O   0  0  0  0  0  0  0  0  0  0  0  0
    1.8051    0.8659    0.1348 N   0  0  0  0  0  0  0  0  0  0  0  0
    0.7513    0.9584   -0.5540 C   0  0  0  0  0  0  0  0  0  0  0  0
    3.2327    1.8657    0.7695 H   0  0  0  0  0  0  0  0  0  0  0  0
    0.4265    1.8928   -1.0067 H   0  0  0  0  0  0  0  0  0  0  0  0
   -1.3363   -1.7464   -1.7977 C   0  0  0  0  0  0  0  0  0  0  0  0
   -1.3363   -1.7464   -0.2750 C   0  0  0  0  0  0  0  0  0  0  0  0
   -1.3363   -0.3440    0.3223 C   0  0  0  0  0  3  0  0  0  0  0  0
   -1.3363   -0.3440    1.8450 C   0  0  0  0  0  0  0  0  0  0  0  0
   -0.4548   -1.2330   -2.1891 H   0  0  0  0  0  0  0  0  0  0  0  0
   -2.2178   -1.2330   -2.1891 H   0  0  0  0  0  0  0  0  0  0  0  0
   -1.3363   -2.7615   -2.1981 H   0  0  0  0  0  0  0  0  0  0  0  0
   -2.2114   -2.2923    0.0923 H   0  0  0  0  0  0  0  0  0  0  0  0
   -0.4613   -2.2923    0.0923 H   0  0  0  0  0  0  0  0  0  0  0  0
   -2.2114    0.2019   -0.0450 H   0  0  0  0  0  0  0  0  0  0  0  0
   -0.2863    0.3111   -0.1184 H   0  0  0  0  0  0  0  0  0  0  0  0
   -0.4548   -0.8574    2.2364 H   0  0  0  0  0  0  0  0  0  0  0  0
   -2.2178   -0.8574    2.2364 H   0  0  0  0  0  0  0  0  0  0  0  0
   -1.3363    0.6711    2.2454 H   0  0  0  0  0  0  0  0  0  0  0  0
  1  2  1  0
  1  4  1  0
  2  3  2  3
  3  5  1  0
  3 16  1  0
  6  7  1  0
  6 10  1  0
  6 11  1  0
  6 12  1  0
  7  8  1  0
  7 13  1  0
  7 14  1  0
  8  9  1  0
  8 15  1  0
  9 17  1  0
  9 18  1  0
  9 19  1  0
M  RAD  1   8   2
M  END
>  <reaction>  (16) 
rmg_rxn_15406

>  <mol_properties>  (16) 
{"1": {"label": "*4", "atom_type": "N3d"}, "2": {"label": "*3", "atom_type": "Cd"}, "6": {"label": "*0", "atom_type": "Cs"}, "7": {"label": "*1", "atom_type": "Cs"}, "15": {"label": "*2", "atom_type": "H0"}}

>  <type>  (16) 
unop_12

>  <geom_source>  (16) 
Heuristics

$$$$

     RDKit          3D

 19 17  0  0  0  0  0  0  0  0999 V2000
   -3.1893    0.0455   -0.1377 O   0  0  0  0  0  0  0  0  0  0  0  0
   -1.7905   -0.1100    0.0034 N   0  0  0  0  0  0  0  0  0  0  0  0
   -1.0793    0.8863    0.1861 C   0  0  0  0  0  0  0  0  0  0  0  0
   -3.5183   -0.8544   -0.2673 H   0  0  0  0  0  0  0  0  0  0  0  0
   -1.3673    1.9284    0.2596 H   0  0  0  0  0  0  0  0  0  0  0  0
    1.0586   -2.0382    0.1748 C   0  0  0  0  0  0  0  0  0  0  0  0
    1.7876   -0.8293   -0.4002 C   0  0  0  0  0  0  0  0  0  0  0  0
    1.5035    0.4294    0.3808 C   0  0  0  0  0  3  0  0  0  0  0  0
    2.1486    1.6795   -0.1587 C   0  0  0  0  0  0  0  0  0  0  0  0
   -0.0142   -1.8669    0.1569 H   0  0  0  0  0  0  0  0  0  0  0  0
    1.3646   -2.2133    1.2040 H   0  0  0  0  0  0  0  0  0  0  0  0
    1.2825   -2.9299   -0.4057 H   0  0  0  0  0  0  0  0  0  0  0  0
    2.8685   -1.0217   -0.3951 H   0  0  0  0  0  0  0  0  0  0  0  0
    1.4919   -0.6852   -1.4424 H   0  0  0  0  0  0  0  0  0  0  0  0
    1.6685    0.3012    1.4495 H   0  0  0  0  0  0  0  0  0  0  0  0
    0.1970    0.6314    0.2925 H   0  0  0  0  0  0  0  0  0  0  0  0
    1.8911    1.8251   -1.2064 H   0  0  0  0  0  0  0  0  0  0  0  0
    3.2371    1.6143   -0.0890 H   0  0  0  0  0  0  0  0  0  0  0  0
    1.8310    2.5555    0.4032 H   0  0  0  0  0  0  0  0  0  0  0  0
  1  2  1  0
  1  4  1  0
  2  3  2  3
  3  5  1  0
  3 16  1  0
  6  7  1  0
  6 10  1  0
  6 11  1  0
  6 12  1  0
  7  8  1  0
  7 13  1  0
  7 14  1  0
  8  9  1  0
  8 15  1  0
  9 17  1  0
  9 18  1  0
  9 19  1  0
M  RAD  1   8   2
M  END
>  <reaction>  (17) 
rmg_rxn_15406

>  <mol_properties>  (17) 
{"1": {"label": "*4", "atom_type": "N3d"}, "2": {"label": "*3", "atom_type": "Cd"}, "6": {"label": "*0", "atom_type": "Cs"}, "7": {"label": "*1", "atom_type": "Cs"}, "15": {"label": "*2", "atom_type": "H0"}}

>  <type>  (17) 
unop_13

>  <geom_source>  (17) 
Heuristics

$$$$

     RDKit          3D

 19 17  0  0  0  0  0  0  0  0999 V2000
    2.1101    2.4883    0.0629 O   0  0  0  0  0  0  0  0  0  0  0  0
    1.6802    1.2020    0.3230 N   0  0  0  0  0  0  0  0  0  0  0  0
    0.8633    0.7922   -0.5478 C   0  0  0  0  0  0  0  0  0  0  0  0
    2.7132    2.6713    0.7860 H   0  0  0  0  0  0  0  0  0  0  0  0
    0.5522    1.4020   -1.3933 H   0  0  0  0  0  0  0  0  0  0  0  0
   -1.2243   -1.9125   -1.7916 C   0  0  0  0  0  0  0  0  0  0  0  0
   -1.2243   -1.9125   -0.2689 C   0  0  0  0  0  0  0  0  0  0  0  0
   -1.2243   -0.5102    0.3285 C   0  0  0  0  0  3  0  0  0  0  0  0
   -1.2243   -0.5102    1.8512 C   0  0  0  0  0  0  0  0  0  0  0  0
   -0.3428   -1.3992   -2.1829 H   0  0  0  0  0  0  0  0  0  0  0  0
   -2.1059   -1.3992   -2.1829 H   0  0  0  0  0  0  0  0  0  0  0  0
   -1.2243   -2.9276   -2.1919 H   0  0  0  0  0  0  0  0  0  0  0  0
   -2.0994   -2.4584    0.0984 H   0  0  0  0  0  0  0  0  0  0  0  0
   -0.3493   -2.4584    0.0984 H   0  0  0  0  0  0  0  0  0  0  0  0
   -2.0994    0.0357   -0.0388 H   0  0  0  0  0  0  0  0  0  0  0  0
   -0.1743    0.1449   -0.1123 H   0  0  0  0  0  0  0  0  0  0  0  0
   -0.3428   -1.0235    2.2426 H   0  0  0  0  0  0  0  0  0  0  0  0
   -2.1059   -1.0235    2.2426 H   0  0  0  0  0  0  0  0  0  0  0  0
   -1.2243    0.5049    2.2516 H   0  0  0  0  0  0  0  0  0  0  0  0
  1  2  1  0
  1  4  1  0
  2  3  2  3
  3  5  1  0
  3 16  1  0
  6  7  1  0
  6 10  1  0
  6 11  1  0
  6 12  1  0
  7  8  1  0
  7 13  1  0
  7 14  1  0
  8  9  1  0
  8 15  1  0
  9 17  1  0
  9 18  1  0
  9 19  1  0
M  RAD  1   8   2
M  END
>  <reaction>  (18) 
rmg_rxn_15406

>  <mol_properties>  (18) 
{"1": {"label": "*4", "atom_type": "N3d"}, "2": {"label": "*3", "atom_type": "Cd"}, "6": {"label": "*0", "atom_type": "Cs"}, "7": {"label": "*1", "atom_type": "Cs"}, "15": {"label": "*2", "atom_type": "H0"}}

>  <type>  (18) 
unop_14

>  <geom_source>  (18) 
Heuristics

$$$$

     RDKit          3D

 19 17  0  0  0  0  0  0  0  0999 V2000
   -3.1859    0.0437   -0.1435 O   0  0  0  0  0  0  0  0  0  0  0  0
   -1.7860   -0.1094   -0.0112 N   0  0  0  0  0  0  0  0  0  0  0  0
   -1.0806    0.8815    0.2178 C   0  0  0  0  0  0  0  0  0  0  0  0
   -3.5092   -0.8511   -0.3157 H   0  0  0  0  0  0  0  0  0  0  0  0
   -1.3744    1.9173    0.3412 H   0  0  0  0  0  0  0  0  0  0  0  0
    1.0618   -2.0374    0.1822 C   0  0  0  0  0  0  0  0  0  0  0  0
    1.7836   -0.8284   -0.4018 C   0  0  0  0  0  0  0  0  0  0  0  0
    1.5056    0.4314    0.3795 C   0  0  0  0  0  3  0  0  0  0  0  0
    2.1404    1.6818   -0.1714 C   0  0  0  0  0  0  0  0  0  0  0  0
    1.2834   -2.9303   -0.3974 H   0  0  0  0  0  0  0  0  0  0  0  0
   -0.0116   -1.8688    0.1714 H   0  0  0  0  0  0  0  0  0  0  0  0
    1.3759   -2.2087    1.2096 H   0  0  0  0  0  0  0  0  0  0  0  0
    2.8647   -1.0194   -0.4068 H   0  0  0  0  0  0  0  0  0  0  0  0
    1.4773   -0.6866   -1.4413 H   0  0  0  0  0  0  0  0  0  0  0  0
    1.6847    0.3064    1.4464 H   0  0  0  0  0  0  0  0  0  0  0  0
    0.1977    0.6297    0.3074 H   0  0  0  0  0  0  0  0  0  0  0  0
    3.2299    1.6190   -0.1170 H   0  0  0  0  0  0  0  0  0  0  0  0
    1.8290    2.5583    0.3933 H   0  0  0  0  0  0  0  0  0  0  0  0
    1.8677    1.8248   -1.2155 H   0  0  0  0  0  0  0  0  0  0  0  0
  1  2  1  0
  1  4  1  0
  2  3  2  3
  3  5  1  0
  3 16  1  0
  6  7  1  0
  6 10  1  0
  6 11  1  0
  6 12  1  0
  7  8  1  0
  7 13  1  0
  7 14  1  0
  8  9  1  0
  8 15  1  0
  9 17  1  0
  9 18  1  0
  9 19  1  0
M  RAD  1   8   2
M  END
>  <reaction>  (19) 
rmg_rxn_15406

>  <mol_properties>  (19) 
{"1": {"label": "*4", "atom_type": "N3d"}, "2": {"label": "*3", "atom_type": "Cd"}, "6": {"label": "*0", "atom_type": "Cs"}, "7": {"label": "*1", "atom_type": "Cs"}, "15": {"label": "*2", "atom_type": "H0"}}

>  <type>  (19) 
unop_15

>  <geom_source>  (19) 
Heuristics

$$$$

     RDKit          3D

 19 17  0  0  0  0  0  0  0  0999 V2000
    1.6044    2.6101   -1.0265 O   0  0  0  0  0  0  0  0  0  0  0  0
    0.9721    1.3836   -1.0804 N   0  0  0  0  0  0  0  0  0  0  0  0
    1.1226    0.7277   -0.0124 C   0  0  0  0  0  0  0  0  0  0  0  0
    1.4139    2.9959   -1.8838 H   0  0  0  0  0  0  0  0  0  0  0  0
    1.6889    1.1083    0.8349 H   0  0  0  0  0  0  0  0  0  0  0  0
   -0.9651   -1.9771   -1.2561 C   0  0  0  0  0  0  0  0  0  0  0  0
   -0.9651   -1.9771    0.2666 C   0  0  0  0  0  0  0  0  0  0  0  0
   -0.9651   -0.5747    0.8639 C   0  0  0  0  0  3  0  0  0  0  0  0
   -0.9651   -0.5747    2.3866 C   0  0  0  0  0  0  0  0  0  0  0  0
   -0.0835   -1.4637   -1.6475 H   0  0  0  0  0  0  0  0  0  0  0  0
   -1.8466   -1.4637   -1.6475 H   0  0  0  0  0  0  0  0  0  0  0  0
   -0.9651   -2.9922   -1.6565 H   0  0  0  0  0  0  0  0  0  0  0  0
   -1.8401   -2.5230    0.6339 H   0  0  0  0  0  0  0  0  0  0  0  0
   -0.0900   -2.5230    0.6339 H   0  0  0  0  0  0  0  0  0  0  0  0
   -1.8401   -0.0288    0.4966 H   0  0  0  0  0  0  0  0  0  0  0  0
    0.0850    0.0804    0.4231 H   0  0  0  0  0  0  0  0  0  0  0  0
   -0.0835   -1.0881    2.7780 H   0  0  0  0  0  0  0  0  0  0  0  0
   -1.8466   -1.0881    2.7780 H   0  0  0  0  0  0  0  0  0  0  0  0
   -0.9651    0.4404    2.7870 H   0  0  0  0  0  0  0  0  0  0  0  0
  1  2  1  0
  1  4  1  0
  2  3  2  3
  3  5  1  0
  3 16  1  0
  6  7  1  0
  6 10  1  0
  6 11  1  0
  6 12  1  0
  7  8  1  0
  7 13  1  0
  7 14  1  0
  8  9  1  0
  8 15  1  0
  9 17  1  0
  9 18  1  0
  9 19  1  0
M  RAD  1   8   2
M  END
>  <reaction>  (20) 
rmg_rxn_15406

>  <mol_properties>  (20) 
{"1": {"label": "*4", "atom_type": "N3d"}, "2": {"label": "*3", "atom_type": "Cd"}, "6": {"label": "*0", "atom_type": "Cs"}, "7": {"label": "*1", "atom_type": "Cs"}, "15": {"label": "*2", "atom_type": "H0"}}

>  <type>  (20) 
unop_16

>  <geom_source>  (20) 
Heuristics

$$$$

     RDKit          3D

 19 17  0  0  0  0  0  0  0  0999 V2000
   -3.1893    0.0448   -0.1388 O   0  0  0  0  0  0  0  0  0  0  0  0
   -1.7905   -0.1109    0.0014 N   0  0  0  0  0  0  0  0  0  0  0  0
   -1.0798    0.8845    0.1910 C   0  0  0  0  0  0  0  0  0  0  0  0
   -3.5179   -0.8543   -0.2742 H   0  0  0  0  0  0  0  0  0  0  0  0
   -1.3683    1.9259    0.2722 H   0  0  0  0  0  0  0  0  0  0  0  0
    1.0607   -2.0379    0.1752 C   0  0  0  0  0  0  0  0  0  0  0  0
    1.7891   -0.8286   -0.3997 C   0  0  0  0  0  0  0  0  0  0  0  0
    1.5038    0.4301    0.3808 C   0  0  0  0  0  3  0  0  0  0  0  0
    2.1453    1.6811   -0.1610 C   0  0  0  0  0  0  0  0  0  0  0  0
   -0.0123   -1.8677    0.1563 H   0  0  0  0  0  0  0  0  0  0  0  0
    1.3659   -2.2123    1.2048 H   0  0  0  0  0  0  0  0  0  0  0  0
    1.2858   -2.9297   -0.4047 H   0  0  0  0  0  0  0  0  0  0  0  0
    2.8701   -1.0202   -0.3938 H   0  0  0  0  0  0  0  0  0  0  0  0
    1.4938   -0.6851   -1.4421 H   0  0  0  0  0  0  0  0  0  0  0  0
    1.6709    0.3031    1.4493 H   0  0  0  0  0  0  0  0  0  0  0  0
    0.1968    0.6300    0.2949 H   0  0  0  0  0  0  0  0  0  0  0  0
    1.8283    2.5567    0.4020 H   0  0  0  0  0  0  0  0  0  0  0  0
    1.8841    1.8262   -1.2078 H   0  0  0  0  0  0  0  0  0  0  0  0
    3.2342    1.6176   -0.0949 H   0  0  0  0  0  0  0  0  0  0  0  0
  1  2  1  0
  1  4  1  0
  2  3  2  3
  3  5  1  0
  3 16  1  0
  6  7  1  0
  6 10  1  0
  6 11  1  0
  6 12  1  0
  7  8  1  0
  7 13  1  0
  7 14  1  0
  8  9  1  0
  8 15  1  0
  9 17  1  0
  9 18  1  0
  9 19  1  0
M  RAD  1   8   2
M  END
>  <reaction>  (21) 
rmg_rxn_15406

>  <mol_properties>  (21) 
{"1": {"label": "*4", "atom_type": "N3d"}, "2": {"label": "*3", "atom_type": "Cd"}, "6": {"label": "*0", "atom_type": "Cs"}, "7": {"label": "*1", "atom_type": "Cs"}, "15": {"label": "*2", "atom_type": "H0"}}

>  <type>  (21) 
unop_17

>  <geom_source>  (21) 
Heuristics

$$$$

     RDKit          3D

 19 17  0  0  0  0  0  0  0  0999 V2000
    2.8420    1.3014   -0.5713 O   0  0  0  0  0  0  0  0  0  0  0  0
    1.7012    0.5260   -0.5037 N   0  0  0  0  0  0  0  0  0  0  0  0
    0.6779    1.2143   -0.2343 C   0  0  0  0  0  0  0  0  0  0  0  0
    3.5302    0.6662   -0.7785 H   0  0  0  0  0  0  0  0  0  0  0  0
    0.7190    2.2902   -0.0786 H   0  0  0  0  0  0  0  0  0  0  0  0
   -1.4097   -1.4905   -1.4780 C   0  0  0  0  0  0  0  0  0  0  0  0
   -1.4097   -1.4905    0.0447 C   0  0  0  0  0  0  0  0  0  0  0  0
   -1.4097   -0.0881    0.6420 C   0  0  0  0  0  3  0  0  0  0  0  0
   -1.4097   -0.0881    2.1647 C   0  0  0  0  0  0  0  0  0  0  0  0
   -0.5282   -0.9771   -1.8694 H   0  0  0  0  0  0  0  0  0  0  0  0
   -2.2912   -0.9771   -1.8694 H   0  0  0  0  0  0  0  0  0  0  0  0
   -1.4097   -2.5056   -1.8784 H   0  0  0  0  0  0  0  0  0  0  0  0
   -2.2848   -2.0364    0.4120 H   0  0  0  0  0  0  0  0  0  0  0  0
   -0.5347   -2.0364    0.4120 H   0  0  0  0  0  0  0  0  0  0  0  0
   -2.2848    0.4578    0.2747 H   0  0  0  0  0  0  0  0  0  0  0  0
   -0.3597    0.5670    0.2012 H   0  0  0  0  0  0  0  0  0  0  0  0
   -0.5282   -0.6015    2.5561 H   0  0  0  0  0  0  0  0  0  0  0  0
   -2.2912   -0.6015    2.5561 H   0  0  0  0  0  0  0  0  0  0  0  0
   -1.4097    0.9270    2.5651 H   0  0  0  0  0  0  0  0  0  0  0  0
  1  2  1  0
  1  4  1  0
  2  3  2  3
  3  5  1  0
  3 16  1  0
  6  7  1  0
  6 10  1  0
  6 11  1  0
  6 12  1  0
  7  8  1  0
  7 13  1  0
  7 14  1  0
  8  9  1  0
  8 15  1  0
  9 17  1  0
  9 18  1  0
  9 19  1  0
M  RAD  1   8   2
M  END
>  <reaction>  (22) 
rmg_rxn_15406

>  <mol_properties>  (22) 
{"1": {"label": "*4", "atom_type": "N3d"}, "2": {"label": "*3", "atom_type": "Cd"}, "6": {"label": "*0", "atom_type": "Cs"}, "7": {"label": "*1", "atom_type": "Cs"}, "15": {"label": "*2", "atom_type": "H0"}}

>  <type>  (22) 
unop_18

>  <geom_source>  (22) 
Heuristics

$$$$

     RDKit          3D

 19 17  0  0  0  0  0  0  0  0999 V2000
    1.7630    2.2270   -1.4728 O   0  0  0  0  0  0  0  0  0  0  0  0
    1.1382    1.0411   -1.1404 N   0  0  0  0  0  0  0  0  0  0  0  0
    1.0519    0.8874    0.1096 C   0  0  0  0  0  0  0  0  0  0  0  0
    1.7621    2.2171   -2.4319 H   0  0  0  0  0  0  0  0  0  0  0  0
    1.4334    1.6192    0.8184 H   0  0  0  0  0  0  0  0  0  0  0  0
   -1.0358   -1.8173   -1.1342 C   0  0  0  0  0  0  0  0  0  0  0  0
   -1.0358   -1.8173    0.3885 C   0  0  0  0  0  0  0  0  0  0  0  0
   -1.0358   -0.4150    0.9859 C   0  0  0  0  0  3  0  0  0  0  0  0
   -1.0358   -0.4150    2.5086 C   0  0  0  0  0  0  0  0  0  0  0  0
   -0.1543   -1.3040   -1.5255 H   0  0  0  0  0  0  0  0  0  0  0  0
   -1.9173   -1.3040   -1.5255 H   0  0  0  0  0  0  0  0  0  0  0  0
   -1.0358   -2.8325   -1.5345 H   0  0  0  0  0  0  0  0  0  0  0  0
   -1.9108   -2.3632    0.7558 H   0  0  0  0  0  0  0  0  0  0  0  0
   -0.1608   -2.3632    0.7558 H   0  0  0  0  0  0  0  0  0  0  0  0
   -1.9108    0.1309    0.6186 H   0  0  0  0  0  0  0  0  0  0  0  0
    0.0142    0.2401    0.5451 H   0  0  0  0  0  0  0  0  0  0  0  0
   -0.1543   -0.9283    2.9000 H   0  0  0  0  0  0  0  0  0  0  0  0
   -1.9173   -0.9283    2.9000 H   0  0  0  0  0  0  0  0  0  0  0  0
   -1.0358    0.6001    2.9090 H   0  0  0  0  0  0  0  0  0  0  0  0
  1  2  1  0
  1  4  1  0
  2  3  2  3
  3  5  1  0
  3 16  1  0
  6  7  1  0
  6 10  1  0
  6 11  1  0
  6 12  1  0
  7  8  1  0
  7 13  1  0
  7 14  1  0
  8  9  1  0
  8 15  1  0
  9 17  1  0
  9 18  1  0
  9 19  1  0
M  RAD  1   8   2
M  END
>  <reaction>  (23) 
rmg_rxn_15406

>  <mol_properties>  (23) 
{"1": {"label": "*4", "atom_type": "N3d"}, "2": {"label": "*3", "atom_type": "Cd"}, "6": {"label": "*0", "atom_type": "Cs"}, "7": {"label": "*1", "atom_type": "Cs"}, "15": {"label": "*2", "atom_type": "H0"}}

>  <type>  (23) 
unop_19

>  <geom_source>  (23) 
Heuristics

$$$$

     RDKit          3D

 19 17  0  0  0  0  0  0  0  0999 V2000
    1.9644    2.6287   -0.3731 O   0  0  0  0  0  0  0  0  0  0  0  0
    1.4291    1.5662    0.3279 N   0  0  0  0  0  0  0  0  0  0  0  0
    0.9469    0.6885   -0.4407 C   0  0  0  0  0  0  0  0  0  0  0  0
    2.2889    3.2096    0.3178 H   0  0  0  0  0  0  0  0  0  0  0  0
    0.9648    0.7840   -1.5243 H   0  0  0  0  0  0  0  0  0  0  0  0
   -1.1407   -2.0162   -1.6844 C   0  0  0  0  0  0  0  0  0  0  0  0
   -1.1407   -2.0162   -0.1617 C   0  0  0  0  0  0  0  0  0  0  0  0
   -1.1407   -0.6138    0.4356 C   0  0  0  0  0  3  0  0  0  0  0  0
   -1.1407   -0.6138    1.9583 C   0  0  0  0  0  0  0  0  0  0  0  0
   -0.2592   -1.5029   -2.0758 H   0  0  0  0  0  0  0  0  0  0  0  0
   -2.0222   -1.5029   -2.0758 H   0  0  0  0  0  0  0  0  0  0  0  0
   -1.1407   -3.0313   -2.0848 H   0  0  0  0  0  0  0  0  0  0  0  0
   -2.0158   -2.5621    0.2056 H   0  0  0  0  0  0  0  0  0  0  0  0
   -0.2657   -2.5621    0.2056 H   0  0  0  0  0  0  0  0  0  0  0  0
   -2.0158   -0.0680    0.0683 H   0  0  0  0  0  0  0  0  0  0  0  0
   -0.0907    0.0412   -0.0051 H   0  0  0  0  0  0  0  0  0  0  0  0
   -0.2592   -1.1272    2.3497 H   0  0  0  0  0  0  0  0  0  0  0  0
   -2.0222   -1.1272    2.3497 H   0  0  0  0  0  0  0  0  0  0  0  0
   -1.1407    0.4013    2.3587 H   0  0  0  0  0  0  0  0  0  0  0  0
  1  2  1  0
  1  4  1  0
  2  3  2  3
  3  5  1  0
  3 16  1  0
  6  7  1  0
  6 10  1  0
  6 11  1  0
  6 12  1  0
  7  8  1  0
  7 13  1  0
  7 14  1  0
  8  9  1  0
  8 15  1  0
  9 17  1  0
  9 18  1  0
  9 19  1  0
M  RAD  1   8   2
M  END
>  <reaction>  (24) 
rmg_rxn_15406

>  <mol_properties>  (24) 
{"1": {"label": "*4", "atom_type": "N3d"}, "2": {"label": "*3", "atom_type": "Cd"}, "6": {"label": "*0", "atom_type": "Cs"}, "7": {"label": "*1", "atom_type": "Cs"}, "15": {"label": "*2", "atom_type": "H0"}}

>  <type>  (24) 
unop_20

>  <geom_source>  (24) 
Heuristics

$$$$

     RDKit          3D

 19 17  0  0  0  0  0  0  0  0999 V2000
    2.6024    1.3475   -1.2100 O   0  0  0  0  0  0  0  0  0  0  0  0
    1.5332    0.5718   -0.8074 N   0  0  0  0  0  0  0  0  0  0  0  0
    0.7691    1.1942   -0.0185 C   0  0  0  0  0  0  0  0  0  0  0  0
    3.0920    0.7649   -1.7938 H   0  0  0  0  0  0  0  0  0  0  0  0
    0.9553    2.2204    0.2909 H   0  0  0  0  0  0  0  0  0  0  0  0
   -1.3186   -1.5106   -1.2623 C   0  0  0  0  0  0  0  0  0  0  0  0
   -1.3186   -1.5106    0.2604 C   0  0  0  0  0  0  0  0  0  0  0  0
   -1.3186   -0.1082    0.8578 C   0  0  0  0  0  3  0  0  0  0  0  0
   -1.3186   -0.1082    2.3805 C   0  0  0  0  0  0  0  0  0  0  0  0
   -0.4370   -0.9972   -1.6537 H   0  0  0  0  0  0  0  0  0  0  0  0
   -2.2001   -0.9972   -1.6537 H   0  0  0  0  0  0  0  0  0  0  0  0
   -1.3186   -2.5257   -1.6627 H   0  0  0  0  0  0  0  0  0  0  0  0
   -2.1936   -2.0565    0.6277 H   0  0  0  0  0  0  0  0  0  0  0  0
   -0.4435   -2.0565    0.6277 H   0  0  0  0  0  0  0  0  0  0  0  0
   -2.1936    0.4377    0.4905 H   0  0  0  0  0  0  0  0  0  0  0  0
   -0.2685    0.5468    0.4170 H   0  0  0  0  0  0  0  0  0  0  0  0
   -0.4370   -0.6216    2.7718 H   0  0  0  0  0  0  0  0  0  0  0  0
   -2.2001   -0.6216    2.7718 H   0  0  0  0  0  0  0  0  0  0  0  0
   -1.3186    0.9069    2.7808 H   0  0  0  0  0  0  0  0  0  0  0  0
  1  2  1  0
  1  4  1  0
  2  3  2  3
  3  5  1  0
  3 16  1  0
  6  7  1  0
  6 10  1  0
  6 11  1  0
  6 12  1  0
  7  8  1  0
  7 13  1  0
  7 14  1  0
  8  9  1  0
  8 15  1  0
  9 17  1  0
  9 18  1  0
  9 19  1  0
M  RAD  1   8   2
M  END
>  <reaction>  (25) 
rmg_rxn_15406

>  <mol_properties>  (25) 
{"1": {"label": "*4", "atom_type": "N3d"}, "2": {"label": "*3", "atom_type": "Cd"}, "6": {"label": "*0", "atom_type": "Cs"}, "7": {"label": "*1", "atom_type": "Cs"}, "15": {"label": "*2", "atom_type": "H0"}}

>  <type>  (25) 
unop_21

>  <geom_source>  (25) 
Heuristics

$$$$

     RDKit          3D

 19 17  0  0  0  0  0  0  0  0999 V2000
   -3.1871    0.0443   -0.1409 O   0  0  0  0  0  0  0  0  0  0  0  0
   -1.7873   -0.1092   -0.0076 N   0  0  0  0  0  0  0  0  0  0  0  0
   -1.0804    0.8838    0.2073 C   0  0  0  0  0  0  0  0  0  0  0  0
   -3.5120   -0.8522   -0.3006 H   0  0  0  0  0  0  0  0  0  0  0  0
   -1.3730    1.9215    0.3165 H   0  0  0  0  0  0  0  0  0  0  0  0
    1.0606   -2.0378    0.1805 C   0  0  0  0  0  0  0  0  0  0  0  0
    1.7839   -0.8289   -0.4017 C   0  0  0  0  0  0  0  0  0  0  0  0
    1.5047    0.4306    0.3796 C   0  0  0  0  0  3  0  0  0  0  0  0
    2.1445    1.6805   -0.1669 C   0  0  0  0  0  0  0  0  0  0  0  0
    1.3743   -2.2110    1.2077 H   0  0  0  0  0  0  0  0  0  0  0  0
    1.2813   -2.9302   -0.4003 H   0  0  0  0  0  0  0  0  0  0  0  0
   -0.0126   -1.8679    0.1698 H   0  0  0  0  0  0  0  0  0  0  0  0
    2.8650   -1.0202   -0.4048 H   0  0  0  0  0  0  0  0  0  0  0  0
    1.4797   -0.6866   -1.4418 H   0  0  0  0  0  0  0  0  0  0  0  0
    1.6783    0.3043    1.4471 H   0  0  0  0  0  0  0  0  0  0  0  0
    0.1973    0.6311    0.3018 H   0  0  0  0  0  0  0  0  0  0  0  0
    1.8805    1.8230   -1.2133 H   0  0  0  0  0  0  0  0  0  0  0  0
    3.2335    1.6172   -0.1034 H   0  0  0  0  0  0  0  0  0  0  0  0
    1.8289    2.5575    0.3947 H   0  0  0  0  0  0  0  0  0  0  0  0
  1  2  1  0
  1  4  1  0
  2  3  2  3
  3  5  1  0
  3 16  1  0
  6  7  1  0
  6 10  1  0
  6 11  1  0
  6 12  1  0
  7  8  1  0
  7 13  1  0
  7 14  1  0
  8  9  1  0
  8 15  1  0
  9 17  1  0
  9 18  1  0
  9 19  1  0
M  RAD  1   8   2
M  END
>  <reaction>  (26) 
rmg_rxn_15406

>  <mol_properties>  (26) 
{"1": {"label": "*4", "atom_type": "N3d"}, "2": {"label": "*3", "atom_type": "Cd"}, "6": {"label": "*0", "atom_type": "Cs"}, "7": {"label": "*1", "atom_type": "Cs"}, "15": {"label": "*2", "atom_type": "H0"}}

>  <type>  (26) 
unop_22

>  <geom_source>  (26) 
Heuristics

$$$$

     RDKit          3D

 19 17  0  0  0  0  0  0  0  0999 V2000
    4.2758    0.6362    0.5374 O   0  0  0  0  0  0  0  0  0  0  0  0
    3.0350    0.0851    0.3192 N   0  0  0  0  0  0  0  0  0  0  0  0
   -1.9116    0.4807   -0.1113 C   0  0  0  0  0  0  0  0  0  0  0  0
   -2.2125   -0.0945   -1.4924 C   0  0  0  0  0  0  0  0  0  0  0  0
   -0.2933   -1.2821    0.7643 C   0  0  0  0  0  0  0  0  0  0  0  0
   -0.4787    0.1706    0.3334 C   0  0  0  0  0  3  0  0  0  0  0  0
    2.0045    0.8419    0.1336 C   0  0  0  0  0  0  0  0  0  0  0  0
   -2.0315    1.5844   -0.1614 H   0  0  0  0  0  0  0  0  0  0  0  0
   -2.6435    0.0923    0.6299 H   0  0  0  0  0  0  0  0  0  0  0  0
   -2.2220   -1.2038   -1.4625 H   0  0  0  0  0  0  0  0  0  0  0  0
   -1.4538    0.2492   -2.2275 H   0  0  0  0  0  0  0  0  0  0  0  0
   -3.2130    0.2519   -1.8270 H   0  0  0  0  0  0  0  0  0  0  0  0
   -0.9974   -1.5372    1.5846 H   0  0  0  0  0  0  0  0  0  0  0  0
    0.7452   -1.4245    1.1292 H   0  0  0  0  0  0  0  0  0  0  0  0
   -0.4558   -1.9670   -0.0927 H   0  0  0  0  0  0  0  0  0  0  0  0
   -0.2027    0.8368    1.1792 H   0  0  0  0  0  0  0  0  0  0  0  0
    2.1025    1.9202    0.1470 H   0  0  0  0  0  0  0  0  0  0  0  0
    0.8750    0.3238   -0.0650 H   0  0  0  0  0  0  0  0  0  0  0  0
    5.0779    0.0360    0.6820 H   0  0  0  0  0  0  0  0  0  0  0  0
  1  2  1  0
  1 19  1  0
  2  7  2  3
  3  4  1  0
  3  6  1  0
  3  8  1  0
  3  9  1  0
  4 10  1  0
  4 11  1  0
  4 12  1  0
  5  6  1  0
  5 13  1  0
  5 14  1  0
  5 15  1  0
  6 16  1  0
  7 17  1  0
  7 18  1  0
M  RAD  1   6   2
M  END
>  <reaction>  (27) 
rmg_rxn_15406

>  <mol_properties>  (27) 
{"1": {"label": "*4", "atom_type": "N3d"}, "2": {"label": "*3", "atom_type": "Cd"}, "6": {"label": "*0", "atom_type": "Cs"}, "7": {"label": "*1", "atom_type": "Cs"}, "15": {"label": "*2", "atom_type": "H0"}}

>  <type>  (27) 
unop_23

>  <geom_source>  (27) 
AutoTST

$$$$

     RDKit          3D

 19 17  0  0  0  0  0  0  0  0999 V2000
    2.1591    1.7257   -1.5675 O   0  0  0  0  0  0  0  0  0  0  0  0
    1.3372    0.7522   -1.0347 N   0  0  0  0  0  0  0  0  0  0  0  0
    0.9161    1.0663    0.1131 C   0  0  0  0  0  0  0  0  0  0  0  0
    2.4030    1.3666   -2.4228 H   0  0  0  0  0  0  0  0  0  0  0  0
    1.1850    2.0006    0.6012 H   0  0  0  0  0  0  0  0  0  0  0  0
   -1.1716   -1.6384   -1.1307 C   0  0  0  0  0  0  0  0  0  0  0  0
   -1.1716   -1.6384    0.3920 C   0  0  0  0  0  0  0  0  0  0  0  0
   -1.1716   -0.2361    0.9894 C   0  0  0  0  0  3  0  0  0  0  0  0
   -1.1716   -0.2361    2.5121 C   0  0  0  0  0  0  0  0  0  0  0  0
   -0.2901   -1.1251   -1.5220 H   0  0  0  0  0  0  0  0  0  0  0  0
   -2.0531   -1.1251   -1.5220 H   0  0  0  0  0  0  0  0  0  0  0  0
   -1.1716   -2.6536   -1.5311 H   0  0  0  0  0  0  0  0  0  0  0  0
   -2.0466   -2.1843    0.7593 H   0  0  0  0  0  0  0  0  0  0  0  0
   -0.2966   -2.1843    0.7593 H   0  0  0  0  0  0  0  0  0  0  0  0
   -2.0466    0.3098    0.6221 H   0  0  0  0  0  0  0  0  0  0  0  0
   -0.1216    0.4190    0.5486 H   0  0  0  0  0  0  0  0  0  0  0  0
   -0.2901   -0.7494    2.9034 H   0  0  0  0  0  0  0  0  0  0  0  0
   -2.0531   -0.7494    2.9034 H   0  0  0  0  0  0  0  0  0  0  0  0
   -1.1716    0.7790    2.9125 H   0  0  0  0  0  0  0  0  0  0  0  0
  1  2  1  0
  1  4  1  0
  2  3  2  3
  3  5  1  0
  3 16  1  0
  6  7  1  0
  6 10  1  0
  6 11  1  0
  6 12  1  0
  7  8  1  0
  7 13  1  0
  7 14  1  0
  8  9  1  0
  8 15  1  0
  9 17  1  0
  9 18  1  0
  9 19  1  0
M  RAD  1   8   2
M  END
>  <reaction>  (28) 
rmg_rxn_15406

>  <mol_properties>  (28) 
{"1": {"label": "*4", "atom_type": "N3d"}, "2": {"label": "*3", "atom_type": "Cd"}, "6": {"label": "*0", "atom_type": "Cs"}, "7": {"label": "*1", "atom_type": "Cs"}, "15": {"label": "*2", "atom_type": "H0"}}

>  <type>  (28) 
unop_24

>  <geom_source>  (28) 
gaussian_log

$$$$
