
     RDKit          3D

  9  8  0  0  0  0  0  0  0  0999 V2000
   -0.8818   -0.3578    0.1297 C   0  0  0  0  0  0  0  0  0  0  0  0
    0.6153   -0.3021   -0.1188 C   0  0  0  0  0  0  0  0  0  0  0  0
    1.5354   -1.7170    0.5545 S   0  0  0  0  0  0  0  0  0  0  0  0
   -1.1018   -0.3317    1.1984 H   0  0  0  0  0  0  0  0  0  0  0  0
   -1.3114   -1.2723   -0.2799 H   0  0  0  0  0  0  0  0  0  0  0  0
   -1.3767    0.4976   -0.3363 H   0  0  0  0  0  0  0  0  0  0  0  0
    1.0467    0.6194    0.2718 H   0  0  0  0  0  0  0  0  0  0  0  0
    0.8295   -0.3275   -1.1882 H   0  0  0  0  0  0  0  0  0  0  0  0
    1.2306   -1.5077    1.8423 H   0  0  0  0  0  0  0  0  0  0  0  0
  1  2  1  0
  1  4  1  0
  1  5  1  0
  1  6  1  0
  2  3  1  0
  2  7  1  0
  2  8  1  0
  3  9  1  0
M  END
>  <reaction>  (1) 
rmg_rxn_192

>  <mol_properties>  (1) 
{"2": {"label": "donator", "atom_type": "S2s"}, "8": {"label": "d_hydrogen", "atom_type": "H0"}}

>  <type>  (1) 
r1h

$$$$

     RDKit          3D

 13 13  0  0  0  0  0  0  0  0999 V2000
   -1.1371    0.3608    0.3110 C   0  0  0  0  0  3  0  0  0  0  0  0
   -0.0045    1.3224    0.2943 C   0  0  0  0  0  0  0  0  0  0  0  0
    1.2245    0.6965    0.6137 O   0  0  0  0  0  0  0  0  0  0  0  0
    1.3926   -0.4921   -0.0955 C   0  0  0  0  0  0  0  0  0  0  0  0
    0.4387   -1.4537    0.2351 O   0  0  0  0  0  0  0  0  0  0  0  0
   -0.8659   -1.0349   -0.1206 C   0  0  0  0  0  0  0  0  0  0  0  0
   -2.1544    0.7285    0.3341 H   0  0  0  0  0  0  0  0  0  0  0  0
   -0.1488    2.1272    1.0165 H   0  0  0  0  0  0  0  0  0  0  0  0
    0.0825    1.7949   -0.7036 H   0  0  0  0  0  0  0  0  0  0  0  0
    1.3549   -0.2872   -1.1815 H   0  0  0  0  0  0  0  0  0  0  0  0
    2.3646   -0.8956    0.1787 H   0  0  0  0  0  0  0  0  0  0  0  0
   -1.5620   -1.7401    0.3358 H   0  0  0  0  0  0  0  0  0  0  0  0
   -0.9852   -1.1268   -1.2179 H   0  0  0  0  0  0  0  0  0  0  0  0
  1  2  1  0
  1  6  1  0
  1  7  1  0
  2  3  1  0
  2  8  1  0
  2  9  1  0
  3  4  1  0
  4  5  1  0
  4 10  1  0
  4 11  1  0
  5  6  1  0
  6 12  1  0
  6 13  1  0
M  RAD  1   1   2
M  END
>  <reaction>  (2) 
rmg_rxn_192

>  <mol_properties>  (2) 
{"0": {"label": "acceptor", "atom_type": "Cs"}}

>  <type>  (2) 
r2

$$$$

     RDKit          3D

 14 14  0  0  0  0  0  0  0  0999 V2000
   -1.1778    0.2241    0.1818 C   0  0  0  0  0  0  0  0  0  0  0  0
   -0.5633   -1.1636    0.0678 C   0  0  0  0  0  0  0  0  0  0  0  0
    0.6943   -1.1996    0.7146 O   0  0  0  0  0  0  0  0  0  0  0  0
    1.5547   -0.2288    0.2011 C   0  0  0  0  0  0  0  0  0  0  0  0
    1.0729    1.0696    0.3698 O   0  0  0  0  0  0  0  0  0  0  0  0
   -0.1607    1.2493   -0.2989 C   0  0  0  0  0  0  0  0  0  0  0  0
   -2.0927    0.2866   -0.4117 H   0  0  0  0  0  0  0  0  0  0  0  0
   -1.4303    0.4248    1.2248 H   0  0  0  0  0  0  0  0  0  0  0  0
   -1.1822   -1.9235    0.5431 H   0  0  0  0  0  0  0  0  0  0  0  0
   -0.4389   -1.4347   -0.9919 H   0  0  0  0  0  0  0  0  0  0  0  0
    1.7250   -0.4207   -0.8742 H   0  0  0  0  0  0  0  0  0  0  0  0
    2.4896   -0.3010    0.7524 H   0  0  0  0  0  0  0  0  0  0  0  0
   -0.0080    1.1481   -1.3844 H   0  0  0  0  0  0  0  0  0  0  0  0
   -0.4826    2.2695   -0.0942 H   0  0  0  0  0  0  0  0  0  0  0  0
  1  2  1  0
  1  6  1  0
  1  7  1  0
  1  8  1  0
  2  3  1  0
  2  9  1  0
  2 10  1  0
  3  4  1  0
  4  5  1  0
  4 11  1  0
  4 12  1  0
  5  6  1  0
  6 13  1  0
  6 14  1  0
M  END
>  <reaction>  (3) 
rmg_rxn_192

>  <mol_properties>  (3) 
{"0": {"label": "a_hydrogen", "atom_type": "H0"}, "1": {"label": "acceptor", "atom_type": "Cs"}}

>  <type>  (3) 
r2h

$$$$

     RDKit          3D

 22 21  0  0  0  0  0  0  0  0999 V2000
   -2.1886   -1.6866   -0.7598 C   0  0  0  0  0  0  0  0  0  0  0  0
   -1.8181   -1.9987    0.6801 C   0  0  0  0  0  0  0  0  0  0  0  0
   -1.8052   -0.5585    1.7850 S   0  0  0  0  0  0  0  0  0  0  0  0
   -1.4586   -1.0172   -1.2184 H   0  0  0  0  0  0  0  0  0  0  0  0
   -3.1635   -1.2015   -0.8135 H   0  0  0  0  0  0  0  0  0  0  0  0
   -2.2232   -2.6032   -1.3539 H   0  0  0  0  0  0  0  0  0  0  0  0
   -0.8506   -2.4988    0.7410 H   0  0  0  0  0  0  0  0  0  0  0  0
   -2.5474   -2.6796    1.1222 H   0  0  0  0  0  0  0  0  0  0  0  0
   -0.5931    0.0421    1.2559 H   0  0  0  0  0  0  0  0  0  0  0  0
    0.7285    0.6365    0.6477 C   0  0  0  0  0  3  0  0  0  0  0  0
    1.4776   -0.5183    0.0497 C   0  0  0  0  0  0  0  0  0  0  0  0
    2.5051   -0.0140   -0.7969 O   0  0  0  0  0  0  0  0  0  0  0  0
    1.9801    0.8467   -1.7639 C   0  0  0  0  0  0  0  0  0  0  0  0
    1.3683    1.9744   -1.2143 O   0  0  0  0  0  0  0  0  0  0  0  0
    0.2618    1.6096   -0.3958 C   0  0  0  0  0  0  0  0  0  0  0  0
    1.1464    1.0616    1.5553 H   0  0  0  0  0  0  0  0  0  0  0  0
    1.9609   -1.1370    0.8028 H   0  0  0  0  0  0  0  0  0  0  0  0
    0.8016   -1.1505   -0.5442 H   0  0  0  0  0  0  0  0  0  0  0  0
    1.2504    0.2982   -2.3869 H   0  0  0  0  0  0  0  0  0  0  0  0
    2.8133    1.1952   -2.3698 H   0  0  0  0  0  0  0  0  0  0  0  0
   -0.5209    1.1561   -1.0205 H   0  0  0  0  0  0  0  0  0  0  0  0
   -0.1309    2.5275    0.0359 H   0  0  0  0  0  0  0  0  0  0  0  0
  1  2  1  0
  1  4  1  0
  1  5  1  0
  1  6  1  0
  2  3  1  0
  2  7  1  0
  2  8  1  0
  3  9  1  0
 10 11  1  0
 10 15  1  0
 10 16  1  0
 11 12  1  0
 11 17  1  0
 11 18  1  0
 12 13  1  0
 13 14  1  0
 13 19  1  0
 13 20  1  0
 14 15  1  0
 15 21  1  0
 15 22  1  0
M  RAD  1  10   2
M  END
>  <reaction>  (4) 
rmg_rxn_192

>  <mol_properties>  (4) 
{"1": {"label": "*0", "atom_type": "Cs"}, "2": {"label": "*1", "atom_type": "S2s"}, "8": {"label": "*2", "atom_type": "H0"}, "9": {"label": "*3", "atom_type": "Cs"}, "10": {"label": "*4", "atom_type": "Cs"}}

>  <type>  (4) 
ts

$$$$

     RDKit          3D

 22 21  0  0  0  0  0  0  0  0999 V2000
   -1.7550   -2.6326   -1.5640 C   0  0  0  0  0  0  0  0  0  0  0  0
   -1.7550   -2.6326   -0.0453 C   0  0  0  0  0  0  0  0  0  0  0  0
   -1.7550   -0.9753    0.6996 S   0  0  0  0  0  1  0  0  0  0  0  0
   -0.8483   -2.1672   -1.9548 H   0  0  0  0  0  0  0  0  0  0  0  0
   -2.6109   -2.0814   -1.9541 H   0  0  0  0  0  0  0  0  0  0  0  0
   -1.7980   -3.6560   -1.9443 H   0  0  0  0  0  0  0  0  0  0  0  0
   -0.9117   -3.1988    0.3498 H   0  0  0  0  0  0  0  0  0  0  0  0
   -2.6626   -3.0997    0.3398 H   0  0  0  0  0  0  0  0  0  0  0  0
   -0.3452   -0.4933    0.0954 H   0  0  0  0  0  0  0  0  0  0  0  0
    0.8042   -0.1003   -0.3972 C   0  0  0  0  0  0  0  0  0  0  0  0
    0.6163    1.1357   -1.2654 C   0  0  0  0  0  0  0  0  0  0  0  0
    1.5990    2.1063   -0.9590 O   0  0  0  0  0  0  0  0  0  0  0  0
    1.5754    2.4392    0.3956 C   0  0  0  0  0  0  0  0  0  0  0  0
    1.8375    1.3509    1.2283 O   0  0  0  0  0  0  0  0  0  0  0  0
    0.8700    0.3325    1.0605 C   0  0  0  0  0  0  0  0  0  0  0  0
    1.7368   -0.5976   -0.6707 H   0  0  0  0  0  0  0  0  0  0  0  0
    0.7199    0.9085   -2.3255 H   0  0  0  0  0  0  0  0  0  0  0  0
   -0.3850    1.5627   -1.1012 H   0  0  0  0  0  0  0  0  0  0  0  0
    0.5891    2.8682    0.6513 H   0  0  0  0  0  0  0  0  0  0  0  0
    2.3626    3.1711    0.5625 H   0  0  0  0  0  0  0  0  0  0  0  0
   -0.1134    0.7030    1.3882 H   0  0  0  0  0  0  0  0  0  0  0  0
    1.1607   -0.4872    1.7160 H   0  0  0  0  0  0  0  0  0  0  0  0
  1  2  1  0
  1  4  1  0
  1  5  1  0
  1  6  1  0
  2  3  1  0
  2  7  1  0
  2  8  1  0
  9 10  1  0
 10 11  1  0
 10 15  1  0
 10 16  1  0
 11 12  1  0
 11 17  1  0
 11 18  1  0
 12 13  1  0
 13 14  1  0
 13 19  1  0
 13 20  1  0
 14 15  1  0
 15 21  1  0
 15 22  1  0
M  RAD  1   3   2
M  END
>  <reaction>  (5) 
rmg_rxn_192

>  <mol_properties>  (5) 
{"1": {"label": "*0", "atom_type": "Cs"}, "2": {"label": "*1", "atom_type": "S2s"}, "8": {"label": "*2", "atom_type": "H0"}, "9": {"label": "*3", "atom_type": "Cs"}, "10": {"label": "*4", "atom_type": "Cs"}}

>  <type>  (5) 
unop_1

>  <geom_source>  (5) 
Heuristics

$$$$

     RDKit          3D

 22 21  0  0  0  0  0  0  0  0999 V2000
   -1.7177   -2.2817   -0.6043 C   0  0  0  0  0  0  0  0  0  0  0  0
   -1.7177   -2.2817    0.9143 C   0  0  0  0  0  0  0  0  0  0  0  0
   -1.7177   -0.6244    1.6593 S   0  0  0  0  0  1  0  0  0  0  0  0
   -0.8111   -1.8163   -0.9951 H   0  0  0  0  0  0  0  0  0  0  0  0
   -2.5737   -1.7305   -0.9945 H   0  0  0  0  0  0  0  0  0  0  0  0
   -1.7608   -3.3051   -0.9846 H   0  0  0  0  0  0  0  0  0  0  0  0
   -0.8745   -2.8478    1.3094 H   0  0  0  0  0  0  0  0  0  0  0  0
   -2.6253   -2.7488    1.2994 H   0  0  0  0  0  0  0  0  0  0  0  0
   -0.3079   -0.1423    1.0551 H   0  0  0  0  0  0  0  0  0  0  0  0
    0.8414    0.2507    0.5624 C   0  0  0  0  0  0  0  0  0  0  0  0
    1.1038   -0.4216   -0.7777 C   0  0  0  0  0  0  0  0  0  0  0  0
    1.9878    0.3616   -1.5565 O   0  0  0  0  0  0  0  0  0  0  0  0
    1.4944    1.6544   -1.7345 C   0  0  0  0  0  0  0  0  0  0  0  0
    1.3275    2.3435   -0.5329 O   0  0  0  0  0  0  0  0  0  0  0  0
    0.4016    1.6859    0.3107 C   0  0  0  0  0  0  0  0  0  0  0  0
    1.7588    0.2506    1.1543 H   0  0  0  0  0  0  0  0  0  0  0  0
    1.5716   -1.3980   -0.6589 H   0  0  0  0  0  0  0  0  0  0  0  0
    0.1570   -0.5578   -1.3225 H   0  0  0  0  0  0  0  0  0  0  0  0
    0.5277    1.6082   -2.2688 H   0  0  0  0  0  0  0  0  0  0  0  0
    2.2274    2.2022   -2.3224 H   0  0  0  0  0  0  0  0  0  0  0  0
   -0.5946    1.6980   -0.1576 H   0  0  0  0  0  0  0  0  0  0  0  0
    0.3516    2.2641    1.2323 H   0  0  0  0  0  0  0  0  0  0  0  0
  1  2  1  0
  1  4  1  0
  1  5  1  0
  1  6  1  0
  2  3  1  0
  2  7  1  0
  2  8  1  0
  9 10  1  0
 10 11  1  0
 10 15  1  0
 10 16  1  0
 11 12  1  0
 11 17  1  0
 11 18  1  0
 12 13  1  0
 13 14  1  0
 13 19  1  0
 13 20  1  0
 14 15  1  0
 15 21  1  0
 15 22  1  0
M  RAD  1   3   2
M  END
>  <reaction>  (6) 
rmg_rxn_192

>  <mol_properties>  (6) 
{"1": {"label": "*0", "atom_type": "Cs"}, "2": {"label": "*1", "atom_type": "S2s"}, "8": {"label": "*2", "atom_type": "H0"}, "9": {"label": "*3", "atom_type": "Cs"}, "10": {"label": "*4", "atom_type": "Cs"}}

>  <type>  (6) 
unop_2

>  <geom_source>  (6) 
Heuristics

$$$$

     RDKit          3D

 22 21  0  0  0  0  0  0  0  0999 V2000
   -2.0512   -2.3731   -1.7268 C   0  0  0  0  0  0  0  0  0  0  0  0
   -2.0512   -2.3731   -0.2081 C   0  0  0  0  0  0  0  0  0  0  0  0
   -2.0512   -0.7157    0.5369 S   0  0  0  0  0  1  0  0  0  0  0  0
   -1.1446   -1.9077   -2.1175 H   0  0  0  0  0  0  0  0  0  0  0  0
   -2.9072   -1.8219   -2.1169 H   0  0  0  0  0  0  0  0  0  0  0  0
   -2.0943   -3.3965   -2.1071 H   0  0  0  0  0  0  0  0  0  0  0  0
   -1.2080   -2.9392    0.1870 H   0  0  0  0  0  0  0  0  0  0  0  0
   -2.9588   -2.8401    0.1770 H   0  0  0  0  0  0  0  0  0  0  0  0
   -0.6415   -0.2337   -0.0674 H   0  0  0  0  0  0  0  0  0  0  0  0
    0.5079    0.1593   -0.5600 C   0  0  0  0  0  0  0  0  0  0  0  0
    0.5099    1.6670   -0.7685 C   0  0  0  0  0  0  0  0  0  0  0  0
    1.7968    2.1971   -0.5154 O   0  0  0  0  0  0  0  0  0  0  0  0
    2.2346    1.8701    0.7683 C   0  0  0  0  0  0  0  0  0  0  0  0
    2.3387    0.4940    0.9737 O   0  0  0  0  0  0  0  0  0  0  0  0
    1.0861   -0.1440    0.8149 C   0  0  0  0  0  0  0  0  0  0  0  0
    1.1254   -0.3139   -1.3259 H   0  0  0  0  0  0  0  0  0  0  0  0
    0.2555    1.9369   -1.7926 H   0  0  0  0  0  0  0  0  0  0  0  0
   -0.2213    2.1412   -0.0960 H   0  0  0  0  0  0  0  0  0  0  0  0
    1.5415    2.3014    1.5138 H   0  0  0  0  0  0  0  0  0  0  0  0
    3.2304    2.2911    0.8874 H   0  0  0  0  0  0  0  0  0  0  0  0
    0.3954    0.2028    1.5989 H   0  0  0  0  0  0  0  0  0  0  0  0
    1.2567   -1.2100    0.9589 H   0  0  0  0  0  0  0  0  0  0  0  0
  1  2  1  0
  1  4  1  0
  1  5  1  0
  1  6  1  0
  2  3  1  0
  2  7  1  0
  2  8  1  0
  9 10  1  0
 10 11  1  0
 10 15  1  0
 10 16  1  0
 11 12  1  0
 11 17  1  0
 11 18  1  0
 12 13  1  0
 13 14  1  0
 13 19  1  0
 13 20  1  0
 14 15  1  0
 15 21  1  0
 15 22  1  0
M  RAD  1   3   2
M  END
>  <reaction>  (7) 
rmg_rxn_192

>  <mol_properties>  (7) 
{"1": {"label": "*0", "atom_type": "Cs"}, "2": {"label": "*1", "atom_type": "S2s"}, "8": {"label": "*2", "atom_type": "H0"}, "9": {"label": "*3", "atom_type": "Cs"}, "10": {"label": "*4", "atom_type": "Cs"}}

>  <type>  (7) 
unop_3

>  <geom_source>  (7) 
Heuristics

$$$$

     RDKit          3D

 22 21  0  0  0  0  0  0  0  0999 V2000
   -2.3272   -1.9404   -1.0711 C   0  0  0  0  0  0  0  0  0  0  0  0
   -2.3272   -1.9404    0.4476 C   0  0  0  0  0  0  0  0  0  0  0  0
   -2.3272   -0.2830    1.1925 S   0  0  0  0  0  1  0  0  0  0  0  0
   -1.4205   -1.4750   -1.4619 H   0  0  0  0  0  0  0  0  0  0  0  0
   -3.1831   -1.3892   -1.4612 H   0  0  0  0  0  0  0  0  0  0  0  0
   -2.3702   -2.9637   -1.4514 H   0  0  0  0  0  0  0  0  0  0  0  0
   -1.4839   -2.5065    0.8427 H   0  0  0  0  0  0  0  0  0  0  0  0
   -3.2348   -2.4074    0.8327 H   0  0  0  0  0  0  0  0  0  0  0  0
   -0.9174    0.1990    0.5883 H   0  0  0  0  0  0  0  0  0  0  0  0
    0.2320    0.5920    0.0957 C   0  0  0  0  0  0  0  0  0  0  0  0
    1.3530   -0.3249    0.5638 C   0  0  0  0  0  0  0  0  0  0  0  0
    2.5895    0.3622    0.5488 O   0  0  0  0  0  0  0  0  0  0  0  0
    2.8642    0.8807   -0.7170 C   0  0  0  0  0  0  0  0  0  0  0  0
    1.9080    1.8008   -1.1476 O   0  0  0  0  0  0  0  0  0  0  0  0
    0.6283    1.2048   -1.2400 C   0  0  0  0  0  0  0  0  0  0  0  0
    0.0824    1.3864    0.8294 H   0  0  0  0  0  0  0  0  0  0  0  0
    1.1979   -0.6690    1.5855 H   0  0  0  0  0  0  0  0  0  0  0  0
    1.4157   -1.2078   -0.0907 H   0  0  0  0  0  0  0  0  0  0  0  0
    2.9317    0.0526   -1.4463 H   0  0  0  0  0  0  0  0  0  0  0  0
    3.8136    1.4074   -0.6517 H   0  0  0  0  0  0  0  0  0  0  0  0
    0.6401    0.4296   -2.0215 H   0  0  0  0  0  0  0  0  0  0  0  0
   -0.0613    1.9892   -1.5489 H   0  0  0  0  0  0  0  0  0  0  0  0
  1  2  1  0
  1  4  1  0
  1  5  1  0
  1  6  1  0
  2  3  1  0
  2  7  1  0
  2  8  1  0
  9 10  1  0
 10 11  1  0
 10 15  1  0
 10 16  1  0
 11 12  1  0
 11 17  1  0
 11 18  1  0
 12 13  1  0
 13 14  1  0
 13 19  1  0
 13 20  1  0
 14 15  1  0
 15 21  1  0
 15 22  1  0
M  RAD  1   3   2
M  END
>  <reaction>  (8) 
rmg_rxn_192

>  <mol_properties>  (8) 
{"1": {"label": "*0", "atom_type": "Cs"}, "2": {"label": "*1", "atom_type": "S2s"}, "8": {"label": "*2", "atom_type": "H0"}, "9": {"label": "*3", "atom_type": "Cs"}, "10": {"label": "*4", "atom_type": "Cs"}}

>  <type>  (8) 
unop_4

>  <geom_source>  (8) 
Heuristics

$$$$

     RDKit          3D

 22 21  0  0  0  0  0  0  0  0999 V2000
   -2.3092   -2.1190   -1.4704 C   0  0  0  0  0  0  0  0  0  0  0  0
   -2.3092   -2.1190    0.0483 C   0  0  0  0  0  0  0  0  0  0  0  0
   -2.3092   -0.4617    0.7932 S   0  0  0  0  0  1  0  0  0  0  0  0
   -1.4026   -1.6536   -1.8612 H   0  0  0  0  0  0  0  0  0  0  0  0
   -3.1652   -1.5678   -1.8605 H   0  0  0  0  0  0  0  0  0  0  0  0
   -2.3523   -3.1424   -1.8507 H   0  0  0  0  0  0  0  0  0  0  0  0
   -1.4660   -2.6851    0.4434 H   0  0  0  0  0  0  0  0  0  0  0  0
   -3.2168   -2.5861    0.4334 H   0  0  0  0  0  0  0  0  0  0  0  0
   -0.8995    0.0203    0.1890 H   0  0  0  0  0  0  0  0  0  0  0  0
    0.2499    0.4133   -0.3036 C   0  0  0  0  0  0  0  0  0  0  0  0
    0.5661    1.8315    0.1497 C   0  0  0  0  0  0  0  0  0  0  0  0
    1.8694    2.1997   -0.2593 O   0  0  0  0  0  0  0  0  0  0  0  0
    2.8222    1.2990    0.2175 C   0  0  0  0  0  0  0  0  0  0  0  0
    2.6252   -0.0003   -0.2510 O   0  0  0  0  0  0  0  0  0  0  0  0
    1.3698   -0.5080    0.1585 C   0  0  0  0  0  0  0  0  0  0  0  0
    0.1841    0.3866   -1.3930 H   0  0  0  0  0  0  0  0  0  0  0  0
   -0.1166    2.5600   -0.2855 H   0  0  0  0  0  0  0  0  0  0  0  0
    0.4917    1.9020    1.2457 H   0  0  0  0  0  0  0  0  0  0  0  0
    2.8053    1.2974    1.3229 H   0  0  0  0  0  0  0  0  0  0  0  0
    3.7918    1.6307   -0.1470 H   0  0  0  0  0  0  0  0  0  0  0  0
    1.3519   -0.6020    1.2552 H   0  0  0  0  0  0  0  0  0  0  0  0
    1.2799   -1.5052   -0.2702 H   0  0  0  0  0  0  0  0  0  0  0  0
  1  2  1  0
  1  4  1  0
  1  5  1  0
  1  6  1  0
  2  3  1  0
  2  7  1  0
  2  8  1  0
  9 10  1  0
 10 11  1  0
 10 15  1  0
 10 16  1  0
 11 12  1  0
 11 17  1  0
 11 18  1  0
 12 13  1  0
 13 14  1  0
 13 19  1  0
 13 20  1  0
 14 15  1  0
 15 21  1  0
 15 22  1  0
M  RAD  1   3   2
M  END
>  <reaction>  (9) 
rmg_rxn_192

>  <mol_properties>  (9) 
{"1": {"label": "*0", "atom_type": "Cs"}, "2": {"label": "*1", "atom_type": "S2s"}, "8": {"label": "*2", "atom_type": "H0"}, "9": {"label": "*3", "atom_type": "Cs"}, "10": {"label": "*4", "atom_type": "Cs"}}

>  <type>  (9) 
unop_5

>  <geom_source>  (9) 
Heuristics

$$$$

     RDKit          3D

 22 21  0  0  0  0  0  0  0  0999 V2000
   -2.3224   -2.0896   -1.1873 C   0  0  0  0  0  0  0  0  0  0  0  0
   -2.3224   -2.0896    0.3314 C   0  0  0  0  0  0  0  0  0  0  0  0
   -2.3224   -0.4322    1.0764 S   0  0  0  0  0  1  0  0  0  0  0  0
   -1.4158   -1.6241   -1.5780 H   0  0  0  0  0  0  0  0  0  0  0  0
   -3.1784   -1.5384   -1.5774 H   0  0  0  0  0  0  0  0  0  0  0  0
   -2.3655   -3.1129   -1.5676 H   0  0  0  0  0  0  0  0  0  0  0  0
   -1.4792   -2.6557    0.7265 H   0  0  0  0  0  0  0  0  0  0  0  0
   -3.2300   -2.5566    0.7165 H   0  0  0  0  0  0  0  0  0  0  0  0
   -0.9127    0.0498    0.4721 H   0  0  0  0  0  0  0  0  0  0  0  0
    0.2367    0.4428   -0.0205 C   0  0  0  0  0  0  0  0  0  0  0  0
    1.3722    0.0860    0.9282 C   0  0  0  0  0  0  0  0  0  0  0  0
    2.3974    1.0582    0.8563 O   0  0  0  0  0  0  0  0  0  0  0  0
    2.8652    1.2036   -0.4500 C   0  0  0  0  0  0  0  0  0  0  0  0
    1.8752    1.6228   -1.3392 O   0  0  0  0  0  0  0  0  0  0  0  0
    0.8169    0.6864   -1.4064 C   0  0  0  0  0  0  0  0  0  0  0  0
   -0.2580    1.3505    0.3306 H   0  0  0  0  0  0  0  0  0  0  0  0
    1.0417    0.0550    1.9655 H   0  0  0  0  0  0  0  0  0  0  0  0
    1.7838   -0.9014    0.6686 H   0  0  0  0  0  0  0  0  0  0  0  0
    3.2885    0.2434   -0.7976 H   0  0  0  0  0  0  0  0  0  0  0  0
    3.6332    1.9737   -0.4346 H   0  0  0  0  0  0  0  0  0  0  0  0
    1.1895   -0.2588   -1.8302 H   0  0  0  0  0  0  0  0  0  0  0  0
    0.0769    1.0983   -2.0912 H   0  0  0  0  0  0  0  0  0  0  0  0
  1  2  1  0
  1  4  1  0
  1  5  1  0
  1  6  1  0
  2  3  1  0
  2  7  1  0
  2  8  1  0
  9 10  1  0
 10 11  1  0
 10 15  1  0
 10 16  1  0
 11 12  1  0
 11 17  1  0
 11 18  1  0
 12 13  1  0
 13 14  1  0
 13 19  1  0
 13 20  1  0
 14 15  1  0
 15 21  1  0
 15 22  1  0
M  RAD  1   3   2
M  END
>  <reaction>  (10) 
rmg_rxn_192

>  <mol_properties>  (10) 
{"1": {"label": "*0", "atom_type": "Cs"}, "2": {"label": "*1", "atom_type": "S2s"}, "8": {"label": "*2", "atom_type": "H0"}, "9": {"label": "*3", "atom_type": "Cs"}, "10": {"label": "*4", "atom_type": "Cs"}}

>  <type>  (10) 
unop_6

>  <geom_source>  (10) 
Heuristics

$$$$

     RDKit          3D

 22 21  0  0  0  0  0  0  0  0999 V2000
   -2.2833   -2.1898   -1.1767 C   0  0  0  0  0  0  0  0  0  0  0  0
   -2.2833   -2.1898    0.3419 C   0  0  0  0  0  0  0  0  0  0  0  0
   -2.2833   -0.5324    1.0869 S   0  0  0  0  0  1  0  0  0  0  0  0
   -1.3766   -1.7243   -1.5675 H   0  0  0  0  0  0  0  0  0  0  0  0
   -3.1393   -1.6386   -1.5668 H   0  0  0  0  0  0  0  0  0  0  0  0
   -2.3264   -3.2131   -1.5570 H   0  0  0  0  0  0  0  0  0  0  0  0
   -1.4400   -2.7559    0.7370 H   0  0  0  0  0  0  0  0  0  0  0  0
   -3.1909   -2.6568    0.7271 H   0  0  0  0  0  0  0  0  0  0  0  0
   -0.8735   -0.0504    0.4827 H   0  0  0  0  0  0  0  0  0  0  0  0
    0.2759    0.3426   -0.0100 C   0  0  0  0  0  0  0  0  0  0  0  0
    1.2465    0.6843    1.1115 C   0  0  0  0  0  0  0  0  0  0  0  0
    2.1014    1.7404    0.7176 O   0  0  0  0  0  0  0  0  0  0  0  0
    2.7859    1.4255   -0.4565 C   0  0  0  0  0  0  0  0  0  0  0  0
    1.9348    1.1965   -1.5380 O   0  0  0  0  0  0  0  0  0  0  0  0
    1.0693    0.1059   -1.2871 C   0  0  0  0  0  0  0  0  0  0  0  0
   -0.4134    1.1759   -0.1600 H   0  0  0  0  0  0  0  0  0  0  0  0
    0.7295    1.0179    2.0102 H   0  0  0  0  0  0  0  0  0  0  0  0
    1.8499   -0.1995    1.3698 H   0  0  0  0  0  0  0  0  0  0  0  0
    3.4135    0.5313   -0.2873 H   0  0  0  0  0  0  0  0  0  0  0  0
    3.4063    2.2825   -0.7090 H   0  0  0  0  0  0  0  0  0  0  0  0
    1.6602   -0.8186   -1.1976 H   0  0  0  0  0  0  0  0  0  0  0  0
    0.4216    0.0129   -2.1577 H   0  0  0  0  0  0  0  0  0  0  0  0
  1  2  1  0
  1  4  1  0
  1  5  1  0
  1  6  1  0
  2  3  1  0
  2  7  1  0
  2  8  1  0
  9 10  1  0
 10 11  1  0
 10 15  1  0
 10 16  1  0
 11 12  1  0
 11 17  1  0
 11 18  1  0
 12 13  1  0
 13 14  1  0
 13 19  1  0
 13 20  1  0
 14 15  1  0
 15 21  1  0
 15 22  1  0
M  RAD  1   3   2
M  END
>  <reaction>  (11) 
rmg_rxn_192

>  <mol_properties>  (11) 
{"1": {"label": "*0", "atom_type": "Cs"}, "2": {"label": "*1", "atom_type": "S2s"}, "8": {"label": "*2", "atom_type": "H0"}, "9": {"label": "*3", "atom_type": "Cs"}, "10": {"label": "*4", "atom_type": "Cs"}}

>  <type>  (11) 
unop_7

>  <geom_source>  (11) 
Heuristics

$$$$

     RDKit          3D

 22 21  0  0  0  0  0  0  0  0999 V2000
   -1.5821   -2.6959   -1.2029 C   0  0  0  0  0  0  0  0  0  0  0  0
   -1.5821   -2.6959    0.3158 C   0  0  0  0  0  0  0  0  0  0  0  0
   -1.5821   -1.0386    1.0607 S   0  0  0  0  0  1  0  0  0  0  0  0
   -0.6754   -2.2305   -1.5937 H   0  0  0  0  0  0  0  0  0  0  0  0
   -2.4380   -2.1447   -1.5930 H   0  0  0  0  0  0  0  0  0  0  0  0
   -1.6251   -3.7193   -1.5832 H   0  0  0  0  0  0  0  0  0  0  0  0
   -0.7388   -3.2620    0.7109 H   0  0  0  0  0  0  0  0  0  0  0  0
   -2.4897   -3.1630    0.7009 H   0  0  0  0  0  0  0  0  0  0  0  0
   -0.1723   -0.5565    0.4565 H   0  0  0  0  0  0  0  0  0  0  0  0
    0.9771   -0.1635   -0.0361 C   0  0  0  0  0  0  0  0  0  0  0  0
    0.7748    0.5123   -1.3848 C   0  0  0  0  0  0  0  0  0  0  0  0
    1.5243    1.7103   -1.4522 O   0  0  0  0  0  0  0  0  0  0  0  0
    1.1935    2.5729   -0.4068 C   0  0  0  0  0  0  0  0  0  0  0  0
    1.4525    2.0280    0.8511 O   0  0  0  0  0  0  0  0  0  0  0  0
    0.6985    0.8501    1.0645 C   0  0  0  0  0  0  0  0  0  0  0  0
    2.0085   -0.5122    0.0441 H   0  0  0  0  0  0  0  0  0  0  0  0
    1.1112   -0.1148   -2.2092 H   0  0  0  0  0  0  0  0  0  0  0  0
   -0.2919    0.7377   -1.5370 H   0  0  0  0  0  0  0  0  0  0  0  0
    0.1236    2.8422   -0.4773 H   0  0  0  0  0  0  0  0  0  0  0  0
    1.8157    3.4592   -0.5097 H   0  0  0  0  0  0  0  0  0  0  0  0
   -0.3736    1.0993    1.0846 H   0  0  0  0  0  0  0  0  0  0  0  0
    0.9786    0.4722    2.0468 H   0  0  0  0  0  0  0  0  0  0  0  0
  1  2  1  0
  1  4  1  0
  1  5  1  0
  1  6  1  0
  2  3  1  0
  2  7  1  0
  2  8  1  0
  9 10  1  0
 10 11  1  0
 10 15  1  0
 10 16  1  0
 11 12  1  0
 11 17  1  0
 11 18  1  0
 12 13  1  0
 13 14  1  0
 13 19  1  0
 13 20  1  0
 14 15  1  0
 15 21  1  0
 15 22  1  0
M  RAD  1   3   2
M  END
>  <reaction>  (12) 
rmg_rxn_192

>  <mol_properties>  (12) 
{"1": {"label": "*0", "atom_type": "Cs"}, "2": {"label": "*1", "atom_type": "S2s"}, "8": {"label": "*2", "atom_type": "H0"}, "9": {"label": "*3", "atom_type": "Cs"}, "10": {"label": "*4", "atom_type": "Cs"}}

>  <type>  (12) 
unop_8

>  <geom_source>  (12) 
Heuristics

$$$$

     RDKit          3D

 22 21  0  0  0  0  0  0  0  0999 V2000
   -2.2194   -1.8773   -0.8330 C   0  0  0  0  0  0  0  0  0  0  0  0
   -2.2194   -1.8773    0.6857 C   0  0  0  0  0  0  0  0  0  0  0  0
   -2.2194   -0.2200    1.4307 S   0  0  0  0  0  1  0  0  0  0  0  0
   -1.3127   -1.4119   -1.2237 H   0  0  0  0  0  0  0  0  0  0  0  0
   -3.0753   -1.3261   -1.2231 H   0  0  0  0  0  0  0  0  0  0  0  0
   -2.2624   -2.9007   -1.2133 H   0  0  0  0  0  0  0  0  0  0  0  0
   -1.3761   -2.4435    1.0808 H   0  0  0  0  0  0  0  0  0  0  0  0
   -3.1270   -2.3444    1.0708 H   0  0  0  0  0  0  0  0  0  0  0  0
   -0.8096    0.2620    0.8264 H   0  0  0  0  0  0  0  0  0  0  0  0
    0.3398    0.6550    0.3338 C   0  0  0  0  0  0  0  0  0  0  0  0
    1.2710   -0.5336    0.1424 C   0  0  0  0  0  0  0  0  0  0  0  0
    2.5860   -0.0895   -0.1313 O   0  0  0  0  0  0  0  0  0  0  0  0
    2.6141    0.7512   -1.2443 C   0  0  0  0  0  0  0  0  0  0  0  0
    1.8466    1.9039   -1.0753 O   0  0  0  0  0  0  0  0  0  0  0  0
    0.4848    1.5861   -0.8615 C   0  0  0  0  0  0  0  0  0  0  0  0
    0.6153    1.1889    1.2453 H   0  0  0  0  0  0  0  0  0  0  0  0
    1.3291   -1.1536    1.0360 H   0  0  0  0  0  0  0  0  0  0  0  0
    0.9150   -1.1610   -0.6891 H   0  0  0  0  0  0  0  0  0  0  0  0
    2.2554    0.1979   -2.1317 H   0  0  0  0  0  0  0  0  0  0  0  0
    3.6454    1.0671   -1.3851 H   0  0  0  0  0  0  0  0  0  0  0  0
    0.0734    1.1078   -1.7636 H   0  0  0  0  0  0  0  0  0  0  0  0
   -0.0371    2.5297   -0.7084 H   0  0  0  0  0  0  0  0  0  0  0  0
  1  2  1  0
  1  4  1  0
  1  5  1  0
  1  6  1  0
  2  3  1  0
  2  7  1  0
  2  8  1  0
  9 10  1  0
 10 11  1  0
 10 15  1  0
 10 16  1  0
 11 12  1  0
 11 17  1  0
 11 18  1  0
 12 13  1  0
 13 14  1  0
 13 19  1  0
 13 20  1  0
 14 15  1  0
 15 21  1  0
 15 22  1  0
M  RAD  1   3   2
M  END
>  <reaction>  (13) 
rmg_rxn_192

>  <mol_properties>  (13) 
{"1": {"label": "*0", "atom_type": "Cs"}, "2": {"label": "*1", "atom_type": "S2s"}, "8": {"label": "*2", "atom_type": "H0"}, "9": {"label": "*3", "atom_type": "Cs"}, "10": {"label": "*4", "atom_type": "Cs"}}

>  <type>  (13) 
unop_9

>  <geom_source>  (13) 
Heuristics

$$$$

     RDKit          3D

 22 21  0  0  0  0  0  0  0  0999 V2000
   -1.5661   -2.5569   -0.8348 C   0  0  0  0  0  0  0  0  0  0  0  0
   -1.5661   -2.5569    0.6839 C   0  0  0  0  0  0  0  0  0  0  0  0
   -1.5661   -0.8995    1.4289 S   0  0  0  0  0  1  0  0  0  0  0  0
   -0.6594   -2.0915   -1.2255 H   0  0  0  0  0  0  0  0  0  0  0  0
   -2.4220   -2.0057   -1.2249 H   0  0  0  0  0  0  0  0  0  0  0  0
   -1.6091   -3.5803   -1.2151 H   0  0  0  0  0  0  0  0  0  0  0  0
   -0.7228   -3.1230    1.0790 H   0  0  0  0  0  0  0  0  0  0  0  0
   -2.4737   -3.0239    1.0690 H   0  0  0  0  0  0  0  0  0  0  0  0
   -0.1563   -0.4175    0.8246 H   0  0  0  0  0  0  0  0  0  0  0  0
    0.9931   -0.0245    0.3320 C   0  0  0  0  0  0  0  0  0  0  0  0
    0.9556   -0.0471   -1.1894 C   0  0  0  0  0  0  0  0  0  0  0  0
    1.6629    1.0593   -1.7156 O   0  0  0  0  0  0  0  0  0  0  0  0
    1.1588    2.2627   -1.2216 C   0  0  0  0  0  0  0  0  0  0  0  0
    1.2602    2.3665    0.1660 O   0  0  0  0  0  0  0  0  0  0  0  0
    0.5274    1.3429    0.8115 C   0  0  0  0  0  0  0  0  0  0  0  0
    2.0154   -0.1998    0.6725 H   0  0  0  0  0  0  0  0  0  0  0  0
    1.4260   -0.9417   -1.5952 H   0  0  0  0  0  0  0  0  0  0  0  0
   -0.0872   -0.0171   -1.5410 H   0  0  0  0  0  0  0  0  0  0  0  0
    0.0999    2.3681   -1.5213 H   0  0  0  0  0  0  0  0  0  0  0  0
    1.7564    3.0641   -1.6504 H   0  0  0  0  0  0  0  0  0  0  0  0
   -0.5455    1.4708    0.6006 H   0  0  0  0  0  0  0  0  0  0  0  0
    0.6820    1.4737    1.8816 H   0  0  0  0  0  0  0  0  0  0  0  0
  1  2  1  0
  1  4  1  0
  1  5  1  0
  1  6  1  0
  2  3  1  0
  2  7  1  0
  2  8  1  0
  9 10  1  0
 10 11  1  0
 10 15  1  0
 10 16  1  0
 11 12  1  0
 11 17  1  0
 11 18  1  0
 12 13  1  0
 13 14  1  0
 13 19  1  0
 13 20  1  0
 14 15  1  0
 15 21  1  0
 15 22  1  0
M  RAD  1   3   2
M  END
>  <reaction>  (14) 
rmg_rxn_192

>  <mol_properties>  (14) 
{"1": {"label": "*0", "atom_type": "Cs"}, "2": {"label": "*1", "atom_type": "S2s"}, "8": {"label": "*2", "atom_type": "H0"}, "9": {"label": "*3", "atom_type": "Cs"}, "10": {"label": "*4", "atom_type": "Cs"}}

>  <type>  (14) 
unop_10

>  <geom_source>  (14) 
Heuristics

$$$$

     RDKit          3D

 22 21  0  0  0  0  0  0  0  0999 V2000
   -2.2985   -2.1560   -1.1824 C   0  0  0  0  0  0  0  0  0  0  0  0
   -2.2985   -2.1560    0.3363 C   0  0  0  0  0  0  0  0  0  0  0  0
   -2.2985   -0.4986    1.0813 S   0  0  0  0  0  1  0  0  0  0  0  0
   -1.3918   -1.6906   -1.5731 H   0  0  0  0  0  0  0  0  0  0  0  0
   -3.1544   -1.6048   -1.5725 H   0  0  0  0  0  0  0  0  0  0  0  0
   -2.3416   -3.1794   -1.5626 H   0  0  0  0  0  0  0  0  0  0  0  0
   -1.4552   -2.7221    0.7314 H   0  0  0  0  0  0  0  0  0  0  0  0
   -3.2061   -2.6230    0.7214 H   0  0  0  0  0  0  0  0  0  0  0  0
   -0.8887   -0.0166    0.4771 H   0  0  0  0  0  0  0  0  0  0  0  0
    0.2607    0.3764   -0.0156 C   0  0  0  0  0  0  0  0  0  0  0  0
    0.9315    1.3677    0.9245 C   0  0  0  0  0  0  0  0  0  0  0  0
    1.8698    2.1572    0.2192 O   0  0  0  0  0  0  0  0  0  0  0  0
    2.8169    1.3612   -0.4256 C   0  0  0  0  0  0  0  0  0  0  0  0
    2.2536    0.5003   -1.3679 O   0  0  0  0  0  0  0  0  0  0  0  0
    1.3396   -0.3942   -0.7631 C   0  0  0  0  0  0  0  0  0  0  0  0
   -0.3604    0.9182   -0.7315 H   0  0  0  0  0  0  0  0  0  0  0  0
    0.2144    2.0560    1.3698 H   0  0  0  0  0  0  0  0  0  0  0  0
    1.4423    0.8294    1.7376 H   0  0  0  0  0  0  0  0  0  0  0  0
    3.3728    0.7705    0.3255 H   0  0  0  0  0  0  0  0  0  0  0  0
    3.4909    2.0280   -0.9588 H   0  0  0  0  0  0  0  0  0  0  0  0
    1.8791   -1.0565   -0.0687 H   0  0  0  0  0  0  0  0  0  0  0  0
    0.9236   -1.0056   -1.5627 H   0  0  0  0  0  0  0  0  0  0  0  0
  1  2  1  0
  1  4  1  0
  1  5  1  0
  1  6  1  0
  2  3  1  0
  2  7  1  0
  2  8  1  0
  9 10  1  0
 10 11  1  0
 10 15  1  0
 10 16  1  0
 11 12  1  0
 11 17  1  0
 11 18  1  0
 12 13  1  0
 13 14  1  0
 13 19  1  0
 13 20  1  0
 14 15  1  0
 15 21  1  0
 15 22  1  0
M  RAD  1   3   2
M  END
>  <reaction>  (15) 
rmg_rxn_192

>  <mol_properties>  (15) 
{"1": {"label": "*0", "atom_type": "Cs"}, "2": {"label": "*1", "atom_type": "S2s"}, "8": {"label": "*2", "atom_type": "H0"}, "9": {"label": "*3", "atom_type": "Cs"}, "10": {"label": "*4", "atom_type": "Cs"}}

>  <type>  (15) 
unop_11

>  <geom_source>  (15) 
Heuristics

$$$$

     RDKit          3D

 22 21  0  0  0  0  0  0  0  0999 V2000
   -1.9824   -2.0035   -0.6156 C   0  0  0  0  0  0  0  0  0  0  0  0
   -1.9824   -2.0035    0.9030 C   0  0  0  0  0  0  0  0  0  0  0  0
   -1.9824   -0.3462    1.6480 S   0  0  0  0  0  1  0  0  0  0  0  0
   -1.0757   -1.5381   -1.0064 H   0  0  0  0  0  0  0  0  0  0  0  0
   -2.8383   -1.4523   -1.0057 H   0  0  0  0  0  0  0  0  0  0  0  0
   -2.0254   -3.0269   -0.9959 H   0  0  0  0  0  0  0  0  0  0  0  0
   -1.1391   -2.5696    1.2982 H   0  0  0  0  0  0  0  0  0  0  0  0
   -2.8900   -2.4706    1.2882 H   0  0  0  0  0  0  0  0  0  0  0  0
   -0.5726    0.1359    1.0438 H   0  0  0  0  0  0  0  0  0  0  0  0
    0.5768    0.5289    0.5512 C   0  0  0  0  0  0  0  0  0  0  0  0
    1.1937   -0.5702   -0.3021 C   0  0  0  0  0  0  0  0  0  0  0  0
    2.3577   -0.0949   -0.9507 O   0  0  0  0  0  0  0  0  0  0  0  0
    2.0821    1.0374   -1.7177 C   0  0  0  0  0  0  0  0  0  0  0  0
    1.6019    2.1052   -0.9589 O   0  0  0  0  0  0  0  0  0  0  0  0
    0.3900    1.7692   -0.3109 C   0  0  0  0  0  0  0  0  0  0  0  0
    1.2454    0.7617    1.3822 H   0  0  0  0  0  0  0  0  0  0  0  0
    1.4964   -1.4287    0.2959 H   0  0  0  0  0  0  0  0  0  0  0  0
    0.4684   -0.9142   -1.0554 H   0  0  0  0  0  0  0  0  0  0  0  0
    1.3437    0.7808   -2.4994 H   0  0  0  0  0  0  0  0  0  0  0  0
    3.0182    1.3573   -2.1700 H   0  0  0  0  0  0  0  0  0  0  0  0
   -0.3919    1.5898   -1.0648 H   0  0  0  0  0  0  0  0  0  0  0  0
    0.0999    2.6365    0.2806 H   0  0  0  0  0  0  0  0  0  0  0  0
  1  2  1  0
  1  4  1  0
  1  5  1  0
  1  6  1  0
  2  3  1  0
  2  7  1  0
  2  8  1  0
  9 10  1  0
 10 11  1  0
 10 15  1  0
 10 16  1  0
 11 12  1  0
 11 17  1  0
 11 18  1  0
 12 13  1  0
 13 14  1  0
 13 19  1  0
 13 20  1  0
 14 15  1  0
 15 21  1  0
 15 22  1  0
M  RAD  1   3   2
M  END
>  <reaction>  (16) 
rmg_rxn_192

>  <mol_properties>  (16) 
{"1": {"label": "*0", "atom_type": "Cs"}, "2": {"label": "*1", "atom_type": "S2s"}, "8": {"label": "*2", "atom_type": "H0"}, "9": {"label": "*3", "atom_type": "Cs"}, "10": {"label": "*4", "atom_type": "Cs"}}

>  <type>  (16) 
unop_12

>  <geom_source>  (16) 
Heuristics

$$$$

     RDKit          3D

 22 21  0  0  0  0  0  0  0  0999 V2000
   -1.7177   -2.2817   -0.6044 C   0  0  0  0  0  0  0  0  0  0  0  0
   -1.7177   -2.2817    0.9143 C   0  0  0  0  0  0  0  0  0  0  0  0
   -1.7177   -0.6244    1.6593 S   0  0  0  0  0  1  0  0  0  0  0  0
   -0.8111   -1.8163   -0.9951 H   0  0  0  0  0  0  0  0  0  0  0  0
   -2.5737   -1.7305   -0.9944 H   0  0  0  0  0  0  0  0  0  0  0  0
   -1.7608   -3.3051   -0.9846 H   0  0  0  0  0  0  0  0  0  0  0  0
   -0.8744   -2.8478    1.3094 H   0  0  0  0  0  0  0  0  0  0  0  0
   -2.6253   -2.7488    1.2994 H   0  0  0  0  0  0  0  0  0  0  0  0
   -0.3080   -0.1423    1.0551 H   0  0  0  0  0  0  0  0  0  0  0  0
    0.8414    0.2507    0.5624 C   0  0  0  0  0  0  0  0  0  0  0  0
    1.1038   -0.4216   -0.7777 C   0  0  0  0  0  0  0  0  0  0  0  0
    1.9878    0.3616   -1.5565 O   0  0  0  0  0  0  0  0  0  0  0  0
    1.4944    1.6544   -1.7345 C   0  0  0  0  0  0  0  0  0  0  0  0
    1.3275    2.3435   -0.5330 O   0  0  0  0  0  0  0  0  0  0  0  0
    0.4016    1.6859    0.3107 C   0  0  0  0  0  0  0  0  0  0  0  0
    1.7588    0.2506    1.1543 H   0  0  0  0  0  0  0  0  0  0  0  0
    1.5716   -1.3980   -0.6589 H   0  0  0  0  0  0  0  0  0  0  0  0
    0.1570   -0.5578   -1.3225 H   0  0  0  0  0  0  0  0  0  0  0  0
    0.5277    1.6082   -2.2688 H   0  0  0  0  0  0  0  0  0  0  0  0
    2.2274    2.2022   -2.3224 H   0  0  0  0  0  0  0  0  0  0  0  0
   -0.5946    1.6980   -0.1576 H   0  0  0  0  0  0  0  0  0  0  0  0
    0.3516    2.2641    1.2323 H   0  0  0  0  0  0  0  0  0  0  0  0
  1  2  1  0
  1  4  1  0
  1  5  1  0
  1  6  1  0
  2  3  1  0
  2  7  1  0
  2  8  1  0
  9 10  1  0
 10 11  1  0
 10 15  1  0
 10 16  1  0
 11 12  1  0
 11 17  1  0
 11 18  1  0
 12 13  1  0
 13 14  1  0
 13 19  1  0
 13 20  1  0
 14 15  1  0
 15 21  1  0
 15 22  1  0
M  RAD  1   3   2
M  END
>  <reaction>  (17) 
rmg_rxn_192

>  <mol_properties>  (17) 
{"1": {"label": "*0", "atom_type": "Cs"}, "2": {"label": "*1", "atom_type": "S2s"}, "8": {"label": "*2", "atom_type": "H0"}, "9": {"label": "*3", "atom_type": "Cs"}, "10": {"label": "*4", "atom_type": "Cs"}}

>  <type>  (17) 
unop_13

>  <geom_source>  (17) 
gaussian_log

$$$$
