
     RDKit          3D

  9  8  0  0  0  0  0  0  0  0999 V2000
   -0.8818   -0.3578    0.1297 C   0  0  0  0  0  0  0  0  0  0  0  0
    0.6153   -0.3021   -0.1188 C   0  0  0  0  0  0  0  0  0  0  0  0
    1.5354   -1.7170    0.5545 S   0  0  0  0  0  0  0  0  0  0  0  0
   -1.1018   -0.3317    1.1984 H   0  0  0  0  0  0  0  0  0  0  0  0
   -1.3114   -1.2723   -0.2799 H   0  0  0  0  0  0  0  0  0  0  0  0
   -1.3767    0.4976   -0.3363 H   0  0  0  0  0  0  0  0  0  0  0  0
    1.0467    0.6194    0.2718 H   0  0  0  0  0  0  0  0  0  0  0  0
    0.8295   -0.3275   -1.1882 H   0  0  0  0  0  0  0  0  0  0  0  0
    1.2306   -1.5077    1.8423 H   0  0  0  0  0  0  0  0  0  0  0  0
  1  2  1  0
  1  4  1  0
  1  5  1  0
  1  6  1  0
  2  3  1  0
  2  7  1  0
  2  8  1  0
  3  9  1  0
M  END
>  <reaction>  (1) 
rmg_rxn_15466

>  <mol_properties>  (1) 
{"0": {"label": "donator", "atom_type": "Cs"}, "3": {"label": "d_hydrogen", "atom_type": "H0"}}

>  <type>  (1) 
r1h

$$$$

     RDKit          3D

  5  4  0  0  0  0  0  0  0  0999 V2000
    0.8934    0.3742    0.4948 O   0  0  0  0  0  0  0  0  0  0  0  0
    0.1582   -0.1610   -0.5904 N   0  0  0  0  0  0  0  0  0  0  0  0
   -1.0297   -0.3739   -0.4689 C   0  0  0  0  0  3  0  0  0  0  0  0
    1.7804    0.4382    0.1306 H   0  0  0  0  0  0  0  0  0  0  0  0
   -1.8023   -0.2775    0.2859 H   0  0  0  0  0  0  0  0  0  0  0  0
  1  2  1  0
  1  4  1  0
  2  3  2  3
  3  5  1  0
M  RAD  1   3   2
M  END
>  <reaction>  (2) 
rmg_rxn_15466

>  <mol_properties>  (2) 
{"2": {"label": "acceptor", "atom_type": "Cd"}}

>  <type>  (2) 
r2

$$$$

     RDKit          3D

  6  5  0  0  0  0  0  0  0  0999 V2000
    1.2314    0.0428    0.5088 O   0  0  0  0  0  0  0  0  0  0  0  0
    0.2987    0.2341   -0.4915 N   0  0  0  0  0  0  0  0  0  0  0  0
   -0.8599   -0.1122   -0.1290 C   0  0  0  0  0  0  0  0  0  0  0  0
    2.0507    0.3401    0.1082 H   0  0  0  0  0  0  0  0  0  0  0  0
   -1.0700   -0.5112    0.8610 H   0  0  0  0  0  0  0  0  0  0  0  0
   -1.6509    0.0064   -0.8574 H   0  0  0  0  0  0  0  0  0  0  0  0
  1  2  1  0
  1  4  1  0
  2  3  2  3
  3  5  1  0
  3  6  1  0
M  END
>  <reaction>  (3) 
rmg_rxn_15466

>  <mol_properties>  (3) 
{"2": {"label": "acceptor", "atom_type": "Cd"}, "5": {"label": "a_hydrogen", "atom_type": "H0"}}

>  <type>  (3) 
r2h

$$$$

     RDKit          3D

 14 12  0  0  0  0  0  0  0  0999 V2000
   -2.7641    1.4454   -0.3029 O   0  0  0  0  0  0  0  0  0  0  0  0
   -1.5308    0.8408   -0.0467 N   0  0  0  0  0  0  0  0  0  0  0  0
   -0.8249    1.4498    0.7783 C   0  0  0  0  0  3  0  0  0  0  0  0
   -3.1651    0.8545   -0.9448 H   0  0  0  0  0  0  0  0  0  0  0  0
   -1.0664    2.3729    1.3046 H   0  0  0  0  0  0  0  0  0  0  0  0
    1.4341    0.1212    1.3334 C   0  0  0  0  0  0  0  0  0  0  0  0
    1.2514   -1.2430    0.7260 C   0  0  0  0  0  0  0  0  0  0  0  0
    1.2425   -1.2599   -1.0907 S   0  0  0  0  0  0  0  0  0  0  0  0
    0.3874    0.8125    1.0619 H   0  0  0  0  0  0  0  0  0  0  0  0
    2.2550    0.6959    0.9085 H   0  0  0  0  0  0  0  0  0  0  0  0
    1.4546    0.1155    2.4239 H   0  0  0  0  0  0  0  0  0  0  0  0
    0.3399   -1.7148    1.0936 H   0  0  0  0  0  0  0  0  0  0  0  0
    2.0829   -1.8958    1.0052 H   0  0  0  0  0  0  0  0  0  0  0  0
    0.1043   -0.5647   -1.2315 H   0  0  0  0  0  0  0  0  0  0  0  0
  1  2  1  0
  1  4  1  0
  2  3  2  3
  3  5  1  0
  6  7  1  0
  6  9  1  0
  6 10  1  0
  6 11  1  0
  7  8  1  0
  7 12  1  0
  7 13  1  0
  8 14  1  0
M  RAD  1   3   2
M  END
>  <reaction>  (4) 
rmg_rxn_15466

>  <mol_properties>  (4) 
{"1": {"label": "*4", "atom_type": "N3d"}, "2": {"label": "*3", "atom_type": "Cd"}, "5": {"label": "*1", "atom_type": "Cs"}, "6": {"label": "*0", "atom_type": "Cs"}, "8": {"label": "*2", "atom_type": "H0"}}

>  <type>  (4) 
ts

$$$$

     RDKit          3D

 14 12  0  0  0  0  0  0  0  0999 V2000
   -3.7706   -0.5747    0.0063 O   0  0  0  0  0  0  0  0  0  0  0  0
   -2.3987   -0.2796    0.0257 N   0  0  0  0  0  0  0  0  0  0  0  0
   -1.9973    0.8864   -0.0472 C   0  0  0  0  0  0  0  0  0  0  0  0
   -3.8136   -1.5393    0.0712 H   0  0  0  0  0  0  0  0  0  0  0  0
   -2.5456    1.8159   -0.1314 H   0  0  0  0  0  0  0  0  0  0  0  0
    0.6211    1.0661    0.0179 C   0  0  0  0  0  3  0  0  0  0  0  0
    1.1631   -0.3147    0.0008 C   0  0  0  0  0  0  0  0  0  0  0  0
    3.0224   -0.3013   -0.0382 S   0  0  0  0  0  0  0  0  0  0  0  0
   -0.6949    0.9781   -0.0182 H   0  0  0  0  0  0  0  0  0  0  0  0
    0.8825    1.6466   -0.8600 H   0  0  0  0  0  0  0  0  0  0  0  0
    0.8308    1.6099    0.9337 H   0  0  0  0  0  0  0  0  0  0  0  0
    0.8887   -0.8516   -0.9053 H   0  0  0  0  0  0  0  0  0  0  0  0
    0.8674   -0.8940    0.8733 H   0  0  0  0  0  0  0  0  0  0  0  0
    3.1754    0.3115    1.1341 H   0  0  0  0  0  0  0  0  0  0  0  0
  1  2  1  0
  1  4  1  0
  2  3  2  3
  3  5  1  0
  3  9  1  0
  6  7  1  0
  6 10  1  0
  6 11  1  0
  7  8  1  0
  7 12  1  0
  7 13  1  0
  8 14  1  0
M  RAD  1   6   2
M  END
>  <reaction>  (5) 
rmg_rxn_15466

>  <mol_properties>  (5) 
{"1": {"label": "*4", "atom_type": "N3d"}, "2": {"label": "*3", "atom_type": "Cd"}, "5": {"label": "*1", "atom_type": "Cs"}, "6": {"label": "*0", "atom_type": "Cs"}, "8": {"label": "*2", "atom_type": "H0"}}

>  <type>  (5) 
unop_1

>  <geom_source>  (5) 
crest_best.xyz

$$$$

     RDKit          3D

 14 12  0  0  0  0  0  0  0  0999 V2000
   -2.1606    2.7095    0.9960 O   0  0  0  0  0  0  0  0  0  0  0  0
   -1.6986    1.4196    1.1685 N   0  0  0  0  0  0  0  0  0  0  0  0
   -0.9625    1.0500    0.2118 C   0  0  0  0  0  0  0  0  0  0  0  0
   -2.6956    2.8601    1.7777 H   0  0  0  0  0  0  0  0  0  0  0  0
   -0.7355    1.6929   -0.6360 H   0  0  0  0  0  0  0  0  0  0  0  0
    1.2038   -0.2575    0.8434 C   0  0  0  0  0  3  0  0  0  0  0  0
    1.2038   -1.6427    0.2207 C   0  0  0  0  0  0  0  0  0  0  0  0
    1.2038   -1.6427   -1.5964 S   0  0  0  0  0  0  0  0  0  0  0  0
    0.1159    0.3992    0.5262 H   0  0  0  0  0  0  0  0  0  0  0  0
    2.0598    0.3243    0.5006 H   0  0  0  0  0  0  0  0  0  0  0  0
    1.2469   -0.3302    1.9327 H   0  0  0  0  0  0  0  0  0  0  0  0
    0.3606   -2.2351    0.5751 H   0  0  0  0  0  0  0  0  0  0  0  0
    2.1114   -2.1854    0.4888 H   0  0  0  0  0  0  0  0  0  0  0  0
    0.0290   -1.0187   -1.7563 H   0  0  0  0  0  0  0  0  0  0  0  0
  1  2  1  0
  1  4  1  0
  2  3  2  3
  3  5  1  0
  3  9  1  0
  6  7  1  0
  6 10  1  0
  6 11  1  0
  7  8  1  0
  7 12  1  0
  7 13  1  0
  8 14  1  0
M  RAD  1   6   2
M  END
>  <reaction>  (6) 
rmg_rxn_15466

>  <mol_properties>  (6) 
{"1": {"label": "*4", "atom_type": "N3d"}, "2": {"label": "*3", "atom_type": "Cd"}, "5": {"label": "*1", "atom_type": "Cs"}, "6": {"label": "*0", "atom_type": "Cs"}, "8": {"label": "*2", "atom_type": "H0"}}

>  <type>  (6) 
unop_2

>  <geom_source>  (6) 
Heuristics

$$$$

     RDKit          3D

 14 12  0  0  0  0  0  0  0  0999 V2000
   -3.7721   -0.5735   -0.0058 O   0  0  0  0  0  0  0  0  0  0  0  0
   -2.4001   -0.2795   -0.0310 N   0  0  0  0  0  0  0  0  0  0  0  0
   -1.9971    0.8853    0.0534 C   0  0  0  0  0  0  0  0  0  0  0  0
   -3.8166   -1.5372   -0.0821 H   0  0  0  0  0  0  0  0  0  0  0  0
   -2.5442    1.8140    0.1526 H   0  0  0  0  0  0  0  0  0  0  0  0
    0.6210    1.0647   -0.0249 C   0  0  0  0  0  3  0  0  0  0  0  0
    1.1640   -0.3154    0.0059 C   0  0  0  0  0  0  0  0  0  0  0  0
    3.0235   -0.3003    0.0380 S   0  0  0  0  0  0  0  0  0  0  0  0
   -0.6949    0.9766    0.0172 H   0  0  0  0  0  0  0  0  0  0  0  0
    0.8267    1.5982   -0.9477 H   0  0  0  0  0  0  0  0  0  0  0  0
    0.8853    1.6555    0.8453 H   0  0  0  0  0  0  0  0  0  0  0  0
    0.8652   -0.9048   -0.8588 H   0  0  0  0  0  0  0  0  0  0  0  0
    0.8937   -0.8421    0.9191 H   0  0  0  0  0  0  0  0  0  0  0  0
    3.1713    0.3010   -1.1410 H   0  0  0  0  0  0  0  0  0  0  0  0
  1  2  1  0
  1  4  1  0
  2  3  2  3
  3  5  1  0
  3  9  1  0
  6  7  1  0
  6 10  1  0
  6 11  1  0
  7  8  1  0
  7 12  1  0
  7 13  1  0
  8 14  1  0
M  RAD  1   6   2
M  END
>  <reaction>  (7) 
rmg_rxn_15466

>  <mol_properties>  (7) 
{"1": {"label": "*4", "atom_type": "N3d"}, "2": {"label": "*3", "atom_type": "Cd"}, "5": {"label": "*1", "atom_type": "Cs"}, "6": {"label": "*0", "atom_type": "Cs"}, "8": {"label": "*2", "atom_type": "H0"}}

>  <type>  (7) 
unop_3

>  <geom_source>  (7) 
Heuristics

$$$$

     RDKit          3D

 14 12  0  0  0  0  0  0  0  0999 V2000
   -3.7733   -0.5724   -0.0073 O   0  0  0  0  0  0  0  0  0  0  0  0
   -2.4013   -0.2786   -0.0417 N   0  0  0  0  0  0  0  0  0  0  0  0
   -1.9964    0.8834    0.0673 C   0  0  0  0  0  0  0  0  0  0  0  0
   -3.8193   -1.5338   -0.1076 H   0  0  0  0  0  0  0  0  0  0  0  0
   -2.5414    1.8096    0.1972 H   0  0  0  0  0  0  0  0  0  0  0  0
    0.6206    1.0628   -0.0410 C   0  0  0  0  0  3  0  0  0  0  0  0
    1.1650   -0.3154    0.0302 C   0  0  0  0  0  0  0  0  0  0  0  0
    3.0246   -0.2983    0.0347 S   0  0  0  0  0  0  0  0  0  0  0  0
   -0.6947    0.9745    0.0180 H   0  0  0  0  0  0  0  0  0  0  0  0
    0.8154    1.5646   -0.9836 H   0  0  0  0  0  0  0  0  0  0  0  0
    0.8940    1.6828    0.8057 H   0  0  0  0  0  0  0  0  0  0  0  0
    0.8543   -0.9344   -0.8094 H   0  0  0  0  0  0  0  0  0  0  0  0
    0.9080   -0.8103    0.9648 H   0  0  0  0  0  0  0  0  0  0  0  0
    3.1557    0.2609   -1.1667 H   0  0  0  0  0  0  0  0  0  0  0  0
  1  2  1  0
  1  4  1  0
  2  3  2  3
  3  5  1  0
  3  9  1  0
  6  7  1  0
  6 10  1  0
  6 11  1  0
  7  8  1  0
  7 12  1  0
  7 13  1  0
  8 14  1  0
M  RAD  1   6   2
M  END
>  <reaction>  (8) 
rmg_rxn_15466

>  <mol_properties>  (8) 
{"1": {"label": "*4", "atom_type": "N3d"}, "2": {"label": "*3", "atom_type": "Cd"}, "5": {"label": "*1", "atom_type": "Cs"}, "6": {"label": "*0", "atom_type": "Cs"}, "8": {"label": "*2", "atom_type": "H0"}}

>  <type>  (8) 
unop_4

>  <geom_source>  (8) 
Heuristics

$$$$

     RDKit          3D

 14 12  0  0  0  0  0  0  0  0999 V2000
   -2.9465    1.5225    0.3776 O   0  0  0  0  0  0  0  0  0  0  0  0
   -1.7985    0.7578    0.3117 N   0  0  0  0  0  0  0  0  0  0  0  0
   -0.7600    1.4474    0.5106 C   0  0  0  0  0  0  0  0  0  0  0  0
   -3.6460    0.8875    0.2118 H   0  0  0  0  0  0  0  0  0  0  0  0
   -0.7948    2.5166    0.7083 H   0  0  0  0  0  0  0  0  0  0  0  0
    1.4063    0.1398    1.1421 C   0  0  0  0  0  3  0  0  0  0  0  0
    1.4063   -1.2453    0.5194 C   0  0  0  0  0  0  0  0  0  0  0  0
    1.4063   -1.2453   -1.2976 S   0  0  0  0  0  0  0  0  0  0  0  0
    0.3184    0.7965    0.8249 H   0  0  0  0  0  0  0  0  0  0  0  0
    2.2623    0.7216    0.7993 H   0  0  0  0  0  0  0  0  0  0  0  0
    1.4494    0.0671    2.2314 H   0  0  0  0  0  0  0  0  0  0  0  0
    0.5631   -1.8378    0.8738 H   0  0  0  0  0  0  0  0  0  0  0  0
    2.3139   -1.7881    0.7875 H   0  0  0  0  0  0  0  0  0  0  0  0
    0.2315   -0.6214   -1.4576 H   0  0  0  0  0  0  0  0  0  0  0  0
  1  2  1  0
  1  4  1  0
  2  3  2  3
  3  5  1  0
  3  9  1  0
  6  7  1  0
  6 10  1  0
  6 11  1  0
  7  8  1  0
  7 12  1  0
  7 13  1  0
  8 14  1  0
M  RAD  1   6   2
M  END
>  <reaction>  (9) 
rmg_rxn_15466

>  <mol_properties>  (9) 
{"1": {"label": "*4", "atom_type": "N3d"}, "2": {"label": "*3", "atom_type": "Cd"}, "5": {"label": "*1", "atom_type": "Cs"}, "6": {"label": "*0", "atom_type": "Cs"}, "8": {"label": "*2", "atom_type": "H0"}}

>  <type>  (9) 
unop_5

>  <geom_source>  (9) 
Heuristics

$$$$

     RDKit          3D

 14 12  0  0  0  0  0  0  0  0999 V2000
   -3.7741   -0.5718    0.0072 O   0  0  0  0  0  0  0  0  0  0  0  0
   -2.4019   -0.2790    0.0398 N   0  0  0  0  0  0  0  0  0  0  0  0
   -1.9967    0.8833   -0.0650 C   0  0  0  0  0  0  0  0  0  0  0  0
   -3.8207   -1.5335    0.1037 H   0  0  0  0  0  0  0  0  0  0  0  0
   -2.5417    1.8102   -0.1890 H   0  0  0  0  0  0  0  0  0  0  0  0
    0.6206    1.0622    0.0383 C   0  0  0  0  0  3  0  0  0  0  0  0
    1.1654   -0.3160   -0.0267 C   0  0  0  0  0  0  0  0  0  0  0  0
    3.0251   -0.2981   -0.0351 S   0  0  0  0  0  0  0  0  0  0  0  0
   -0.6949    0.9743   -0.0176 H   0  0  0  0  0  0  0  0  0  0  0  0
    0.8923    1.6779   -0.8120 H   0  0  0  0  0  0  0  0  0  0  0  0
    0.8169    1.5691    0.9779 H   0  0  0  0  0  0  0  0  0  0  0  0
    0.9070   -0.8159   -0.9583 H   0  0  0  0  0  0  0  0  0  0  0  0
    0.8569   -0.9308    0.8167 H   0  0  0  0  0  0  0  0  0  0  0  0
    3.1578    0.2663    1.1637 H   0  0  0  0  0  0  0  0  0  0  0  0
  1  2  1  0
  1  4  1  0
  2  3  2  3
  3  5  1  0
  3  9  1  0
  6  7  1  0
  6 10  1  0
  6 11  1  0
  7  8  1  0
  7 12  1  0
  7 13  1  0
  8 14  1  0
M  RAD  1   6   2
M  END
>  <reaction>  (10) 
rmg_rxn_15466

>  <mol_properties>  (10) 
{"1": {"label": "*4", "atom_type": "N3d"}, "2": {"label": "*3", "atom_type": "Cd"}, "5": {"label": "*1", "atom_type": "Cs"}, "6": {"label": "*0", "atom_type": "Cs"}, "8": {"label": "*2", "atom_type": "H0"}}

>  <type>  (10) 
unop_6

>  <geom_source>  (10) 
Heuristics

$$$$

     RDKit          3D

 14 12  0  0  0  0  0  0  0  0999 V2000
   -2.0541    2.8710    0.5497 O   0  0  0  0  0  0  0  0  0  0  0  0
   -1.4481    1.7902    1.1594 N   0  0  0  0  0  0  0  0  0  0  0  0
   -1.0324    0.9457    0.3183 C   0  0  0  0  0  0  0  0  0  0  0  0
   -2.3179    3.4234    1.2882 H   0  0  0  0  0  0  0  0  0  0  0  0
   -1.1510    1.0793   -0.7549 H   0  0  0  0  0  0  0  0  0  0  0  0
    1.1340   -0.3618    0.9498 C   0  0  0  0  0  3  0  0  0  0  0  0
    1.1340   -1.7470    0.3272 C   0  0  0  0  0  0  0  0  0  0  0  0
    1.1340   -1.7470   -1.4899 S   0  0  0  0  0  0  0  0  0  0  0  0
    0.0460    0.2949    0.6326 H   0  0  0  0  0  0  0  0  0  0  0  0
    1.9899    0.2200    0.6070 H   0  0  0  0  0  0  0  0  0  0  0  0
    1.1770   -0.4345    2.0391 H   0  0  0  0  0  0  0  0  0  0  0  0
    0.2907   -2.3394    0.6815 H   0  0  0  0  0  0  0  0  0  0  0  0
    2.0416   -2.2897    0.5952 H   0  0  0  0  0  0  0  0  0  0  0  0
   -0.0408   -1.1230   -1.6499 H   0  0  0  0  0  0  0  0  0  0  0  0
  1  2  1  0
  1  4  1  0
  2  3  2  3
  3  5  1  0
  3  9  1  0
  6  7  1  0
  6 10  1  0
  6 11  1  0
  7  8  1  0
  7 12  1  0
  7 13  1  0
  8 14  1  0
M  RAD  1   6   2
M  END
>  <reaction>  (11) 
rmg_rxn_15466

>  <mol_properties>  (11) 
{"1": {"label": "*4", "atom_type": "N3d"}, "2": {"label": "*3", "atom_type": "Cd"}, "5": {"label": "*1", "atom_type": "Cs"}, "6": {"label": "*0", "atom_type": "Cs"}, "8": {"label": "*2", "atom_type": "H0"}}

>  <type>  (11) 
unop_7

>  <geom_source>  (11) 
Heuristics

$$$$

     RDKit          3D

 14 12  0  0  0  0  0  0  0  0999 V2000
   -1.9501    2.5041   -0.5987 O   0  0  0  0  0  0  0  0  0  0  0  0
   -1.2882    1.3142   -0.3685 N   0  0  0  0  0  0  0  0  0  0  0  0
   -1.0855    1.1172    0.8617 C   0  0  0  0  0  0  0  0  0  0  0  0
   -2.0378    2.5283   -1.5536 H   0  0  0  0  0  0  0  0  0  0  0  0
   -1.4055    1.8191    1.6288 H   0  0  0  0  0  0  0  0  0  0  0  0
    1.0809   -0.1904    1.4933 C   0  0  0  0  0  3  0  0  0  0  0  0
    1.0809   -1.5755    0.8706 C   0  0  0  0  0  0  0  0  0  0  0  0
    1.0809   -1.5755   -0.9465 S   0  0  0  0  0  0  0  0  0  0  0  0
   -0.0071    0.4663    1.1761 H   0  0  0  0  0  0  0  0  0  0  0  0
    1.9368    0.3914    1.1504 H   0  0  0  0  0  0  0  0  0  0  0  0
    1.1239   -0.2631    2.5826 H   0  0  0  0  0  0  0  0  0  0  0  0
    0.2376   -2.1680    1.2250 H   0  0  0  0  0  0  0  0  0  0  0  0
    1.9885   -2.1183    1.1387 H   0  0  0  0  0  0  0  0  0  0  0  0
   -0.0939   -0.9516   -1.1064 H   0  0  0  0  0  0  0  0  0  0  0  0
  1  2  1  0
  1  4  1  0
  2  3  2  3
  3  5  1  0
  3  9  1  0
  6  7  1  0
  6 10  1  0
  6 11  1  0
  7  8  1  0
  7 12  1  0
  7 13  1  0
  8 14  1  0
M  RAD  1   6   2
M  END
>  <reaction>  (12) 
rmg_rxn_15466

>  <mol_properties>  (12) 
{"1": {"label": "*4", "atom_type": "N3d"}, "2": {"label": "*3", "atom_type": "Cd"}, "5": {"label": "*1", "atom_type": "Cs"}, "6": {"label": "*0", "atom_type": "Cs"}, "8": {"label": "*2", "atom_type": "H0"}}

>  <type>  (12) 
unop_8

>  <geom_source>  (12) 
Heuristics

$$$$

     RDKit          3D

 14 12  0  0  0  0  0  0  0  0999 V2000
   -3.7756   -0.5707    0.0061 O   0  0  0  0  0  0  0  0  0  0  0  0
   -2.4032   -0.2791    0.0406 N   0  0  0  0  0  0  0  0  0  0  0  0
   -1.9966    0.8826   -0.0654 C   0  0  0  0  0  0  0  0  0  0  0  0
   -3.8233   -1.5322    0.1041 H   0  0  0  0  0  0  0  0  0  0  0  0
   -2.5403    1.8100   -0.1921 H   0  0  0  0  0  0  0  0  0  0  0  0
    0.6206    1.0611    0.0386 C   0  0  0  0  0  3  0  0  0  0  0  0
    1.1664   -0.3170   -0.0232 C   0  0  0  0  0  0  0  0  0  0  0  0
    3.0260   -0.2976   -0.0362 S   0  0  0  0  0  0  0  0  0  0  0  0
   -0.6947    0.9724   -0.0171 H   0  0  0  0  0  0  0  0  0  0  0  0
    0.8916    1.6748   -0.8135 H   0  0  0  0  0  0  0  0  0  0  0  0
    0.8173    1.5705    0.9768 H   0  0  0  0  0  0  0  0  0  0  0  0
    0.9062   -0.8200   -0.9526 H   0  0  0  0  0  0  0  0  0  0  0  0
    0.8602   -0.9293    0.8228 H   0  0  0  0  0  0  0  0  0  0  0  0
    3.1612    0.2735    1.1591 H   0  0  0  0  0  0  0  0  0  0  0  0
  1  2  1  0
  1  4  1  0
  2  3  2  3
  3  5  1  0
  3  9  1  0
  6  7  1  0
  6 10  1  0
  6 11  1  0
  7  8  1  0
  7 12  1  0
  7 13  1  0
  8 14  1  0
M  RAD  1   6   2
M  END
>  <reaction>  (13) 
rmg_rxn_15466

>  <mol_properties>  (13) 
{"1": {"label": "*4", "atom_type": "N3d"}, "2": {"label": "*3", "atom_type": "Cd"}, "5": {"label": "*1", "atom_type": "Cs"}, "6": {"label": "*0", "atom_type": "Cs"}, "8": {"label": "*2", "atom_type": "H0"}}

>  <type>  (13) 
unop_9

>  <geom_source>  (13) 
Heuristics

$$$$

     RDKit          3D

 14 12  0  0  0  0  0  0  0  0999 V2000
   -2.3155    2.7016    0.4637 O   0  0  0  0  0  0  0  0  0  0  0  0
   -1.1366    2.0991    0.8564 N   0  0  0  0  0  0  0  0  0  0  0  0
   -1.0268    0.9301    0.3928 C   0  0  0  0  0  0  0  0  0  0  0  0
   -2.2715    3.5661    0.8771 H   0  0  0  0  0  0  0  0  0  0  0  0
   -1.7869    0.4759   -0.2393 H   0  0  0  0  0  0  0  0  0  0  0  0
    1.1396   -0.3774    1.0243 C   0  0  0  0  0  3  0  0  0  0  0  0
    1.1396   -1.7625    0.4016 C   0  0  0  0  0  0  0  0  0  0  0  0
    1.1396   -1.7625   -1.4154 S   0  0  0  0  0  0  0  0  0  0  0  0
    0.0516    0.2793    0.7071 H   0  0  0  0  0  0  0  0  0  0  0  0
    1.9955    0.2044    0.6815 H   0  0  0  0  0  0  0  0  0  0  0  0
    1.1826   -0.4501    2.1136 H   0  0  0  0  0  0  0  0  0  0  0  0
    0.2963   -2.3550    0.7560 H   0  0  0  0  0  0  0  0  0  0  0  0
    2.0472   -2.3053    0.6697 H   0  0  0  0  0  0  0  0  0  0  0  0
   -0.0352   -1.1386   -1.5754 H   0  0  0  0  0  0  0  0  0  0  0  0
  1  2  1  0
  1  4  1  0
  2  3  2  3
  3  5  1  0
  3  9  1  0
  6  7  1  0
  6 10  1  0
  6 11  1  0
  7  8  1  0
  7 12  1  0
  7 13  1  0
  8 14  1  0
M  RAD  1   6   2
M  END
>  <reaction>  (14) 
rmg_rxn_15466

>  <mol_properties>  (14) 
{"1": {"label": "*4", "atom_type": "N3d"}, "2": {"label": "*3", "atom_type": "Cd"}, "5": {"label": "*1", "atom_type": "Cs"}, "6": {"label": "*0", "atom_type": "Cs"}, "8": {"label": "*2", "atom_type": "H0"}}

>  <type>  (14) 
unop_10

>  <geom_source>  (14) 
Heuristics

$$$$

     RDKit          3D

 14 12  0  0  0  0  0  0  0  0999 V2000
   -3.7722    0.5734   -0.0066 O   0  0  0  0  0  0  0  0  0  0  0  0
   -2.4004    0.2787   -0.0409 N   0  0  0  0  0  0  0  0  0  0  0  0
   -1.9966   -0.8841    0.0636 C   0  0  0  0  0  0  0  0  0  0  0  0
   -3.8174    1.5354   -0.1019 H   0  0  0  0  0  0  0  0  0  0  0  0
   -2.5424   -1.8105    0.1886 H   0  0  0  0  0  0  0  0  0  0  0  0
    0.6207   -1.0640   -0.0371 C   0  0  0  0  0  3  0  0  0  0  0  0
    1.1644    0.3148    0.0285 C   0  0  0  0  0  0  0  0  0  0  0  0
    3.0239    0.2990    0.0345 S   0  0  0  0  0  0  0  0  0  0  0  0
   -0.6948   -0.9761    0.0169 H   0  0  0  0  0  0  0  0  0  0  0  0
    0.8917   -1.6794    0.8137 H   0  0  0  0  0  0  0  0  0  0  0  0
    0.8188   -1.5708   -0.9763 H   0  0  0  0  0  0  0  0  0  0  0  0
    0.9064    0.8136    0.9607 H   0  0  0  0  0  0  0  0  0  0  0  0
    0.8539    0.9299   -0.8139 H   0  0  0  0  0  0  0  0  0  0  0  0
    3.1556   -0.2622   -1.1661 H   0  0  0  0  0  0  0  0  0  0  0  0
  1  2  1  0
  1  4  1  0
  2  3  2  3
  3  5  1  0
  3  9  1  0
  6  7  1  0
  6 10  1  0
  6 11  1  0
  7  8  1  0
  7 12  1  0
  7 13  1  0
  8 14  1  0
M  RAD  1   6   2
M  END
>  <reaction>  (15) 
rmg_rxn_15466

>  <mol_properties>  (15) 
{"1": {"label": "*4", "atom_type": "N3d"}, "2": {"label": "*3", "atom_type": "Cd"}, "5": {"label": "*1", "atom_type": "Cs"}, "6": {"label": "*0", "atom_type": "Cs"}, "8": {"label": "*2", "atom_type": "H0"}}

>  <type>  (15) 
unop_11

>  <geom_source>  (15) 
Heuristics

$$$$

     RDKit          3D

 14 12  0  0  0  0  0  0  0  0999 V2000
   -1.7509    2.8787   -0.1508 O   0  0  0  0  0  0  0  0  0  0  0  0
   -1.1168    1.6619   -0.3072 N   0  0  0  0  0  0  0  0  0  0  0  0
   -1.1629    0.9669    0.7456 C   0  0  0  0  0  0  0  0  0  0  0  0
   -1.6433    3.2968   -1.0074 H   0  0  0  0  0  0  0  0  0  0  0  0
   -1.6515    1.3109    1.6547 H   0  0  0  0  0  0  0  0  0  0  0  0
    1.0034   -0.3406    1.3771 C   0  0  0  0  0  3  0  0  0  0  0  0
    1.0034   -1.7258    0.7544 C   0  0  0  0  0  0  0  0  0  0  0  0
    1.0034   -1.7258   -1.0626 S   0  0  0  0  0  0  0  0  0  0  0  0
   -0.0846    0.3160    1.0599 H   0  0  0  0  0  0  0  0  0  0  0  0
    1.8594    0.2412    1.0343 H   0  0  0  0  0  0  0  0  0  0  0  0
    1.0465   -0.4133    2.4664 H   0  0  0  0  0  0  0  0  0  0  0  0
    0.1601   -2.3183    1.1088 H   0  0  0  0  0  0  0  0  0  0  0  0
    1.9110   -2.2686    1.0225 H   0  0  0  0  0  0  0  0  0  0  0  0
   -0.1714   -1.1018   -1.2226 H   0  0  0  0  0  0  0  0  0  0  0  0
  1  2  1  0
  1  4  1  0
  2  3  2  3
  3  5  1  0
  3  9  1  0
  6  7  1  0
  6 10  1  0
  6 11  1  0
  7  8  1  0
  7 12  1  0
  7 13  1  0
  8 14  1  0
M  RAD  1   6   2
M  END
>  <reaction>  (16) 
rmg_rxn_15466

>  <mol_properties>  (16) 
{"1": {"label": "*4", "atom_type": "N3d"}, "2": {"label": "*3", "atom_type": "Cd"}, "5": {"label": "*1", "atom_type": "Cs"}, "6": {"label": "*0", "atom_type": "Cs"}, "8": {"label": "*2", "atom_type": "H0"}}

>  <type>  (16) 
unop_12

>  <geom_source>  (16) 
Heuristics

$$$$

     RDKit          3D

 14 12  0  0  0  0  0  0  0  0999 V2000
   -3.7729   -0.5727    0.0054 O   0  0  0  0  0  0  0  0  0  0  0  0
   -2.4008   -0.2793    0.0350 N   0  0  0  0  0  0  0  0  0  0  0  0
   -1.9968    0.8844   -0.0582 C   0  0  0  0  0  0  0  0  0  0  0  0
   -3.8185   -1.5355    0.0911 H   0  0  0  0  0  0  0  0  0  0  0  0
   -2.5430    1.8124   -0.1687 H   0  0  0  0  0  0  0  0  0  0  0  0
    0.6210    1.0638    0.0303 C   0  0  0  0  0  3  0  0  0  0  0  0
    1.1646   -0.3159   -0.0110 C   0  0  0  0  0  0  0  0  0  0  0  0
    3.0239   -0.2996   -0.0378 S   0  0  0  0  0  0  0  0  0  0  0  0
   -0.6947    0.9755   -0.0171 H   0  0  0  0  0  0  0  0  0  0  0  0
    0.8878    1.6623   -0.8338 H   0  0  0  0  0  0  0  0  0  0  0  0
    0.8235    1.5892    0.9584 H   0  0  0  0  0  0  0  0  0  0  0  0
    0.8968   -0.8349   -0.9294 H   0  0  0  0  0  0  0  0  0  0  0  0
    0.8637   -0.9126    0.8480 H   0  0  0  0  0  0  0  0  0  0  0  0
    3.1689    0.2927    1.1461 H   0  0  0  0  0  0  0  0  0  0  0  0
  1  2  1  0
  1  4  1  0
  2  3  2  3
  3  5  1  0
  3  9  1  0
  6  7  1  0
  6 10  1  0
  6 11  1  0
  7  8  1  0
  7 12  1  0
  7 13  1  0
  8 14  1  0
M  RAD  1   6   2
M  END
>  <reaction>  (17) 
rmg_rxn_15466

>  <mol_properties>  (17) 
{"1": {"label": "*4", "atom_type": "N3d"}, "2": {"label": "*3", "atom_type": "Cd"}, "5": {"label": "*1", "atom_type": "Cs"}, "6": {"label": "*0", "atom_type": "Cs"}, "8": {"label": "*2", "atom_type": "H0"}}

>  <type>  (17) 
unop_13

>  <geom_source>  (17) 
Heuristics

$$$$

     RDKit          3D

 14 12  0  0  0  0  0  0  0  0999 V2000
   -1.8334    2.9709    0.4146 O   0  0  0  0  0  0  0  0  0  0  0  0
   -1.0065    1.9723   -0.0612 N   0  0  0  0  0  0  0  0  0  0  0  0
   -1.1633    0.8896    0.5687 C   0  0  0  0  0  0  0  0  0  0  0  0
   -1.6161    3.7223   -0.1405 H   0  0  0  0  0  0  0  0  0  0  0  0
   -1.8736    0.7840    1.3860 H   0  0  0  0  0  0  0  0  0  0  0  0
    1.0030   -0.4179    1.2002 C   0  0  0  0  0  3  0  0  0  0  0  0
    1.0030   -1.8031    0.5776 C   0  0  0  0  0  0  0  0  0  0  0  0
    1.0030   -1.8031   -1.2395 S   0  0  0  0  0  0  0  0  0  0  0  0
   -0.0850    0.2388    0.8830 H   0  0  0  0  0  0  0  0  0  0  0  0
    1.8590    0.1639    0.8574 H   0  0  0  0  0  0  0  0  0  0  0  0
    1.0461   -0.4906    2.2895 H   0  0  0  0  0  0  0  0  0  0  0  0
    0.1597   -2.3955    0.9319 H   0  0  0  0  0  0  0  0  0  0  0  0
    1.9106   -2.3458    0.8457 H   0  0  0  0  0  0  0  0  0  0  0  0
   -0.1718   -1.1791   -1.3995 H   0  0  0  0  0  0  0  0  0  0  0  0
  1  2  1  0
  1  4  1  0
  2  3  2  3
  3  5  1  0
  3  9  1  0
  6  7  1  0
  6 10  1  0
  6 11  1  0
  7  8  1  0
  7 12  1  0
  7 13  1  0
  8 14  1  0
M  RAD  1   6   2
M  END
>  <reaction>  (18) 
rmg_rxn_15466

>  <mol_properties>  (18) 
{"1": {"label": "*4", "atom_type": "N3d"}, "2": {"label": "*3", "atom_type": "Cd"}, "5": {"label": "*1", "atom_type": "Cs"}, "6": {"label": "*0", "atom_type": "Cs"}, "8": {"label": "*2", "atom_type": "H0"}}

>  <type>  (18) 
unop_14

>  <geom_source>  (18) 
Heuristics

$$$$

     RDKit          3D

 14 12  0  0  0  0  0  0  0  0999 V2000
   -3.7701   -0.5753   -0.0023 O   0  0  0  0  0  0  0  0  0  0  0  0
   -2.3987   -0.2786   -0.0341 N   0  0  0  0  0  0  0  0  0  0  0  0
   -1.9969    0.8861    0.0546 C   0  0  0  0  0  0  0  0  0  0  0  0
   -3.8132   -1.5386   -0.0841 H   0  0  0  0  0  0  0  0  0  0  0  0
   -2.5441    1.8139    0.1629 H   0  0  0  0  0  0  0  0  0  0  0  0
    0.6211    1.0664   -0.0263 C   0  0  0  0  0  3  0  0  0  0  0  0
    1.1627   -0.3145   -0.0027 C   0  0  0  0  0  0  0  0  0  0  0  0
    3.0220   -0.3015    0.0411 S   0  0  0  0  0  0  0  0  0  0  0  0
   -0.6948    0.9786    0.0148 H   0  0  0  0  0  0  0  0  0  0  0  0
    0.8286    1.6051   -0.9455 H   0  0  0  0  0  0  0  0  0  0  0  0
    0.8844    1.6517    0.8479 H   0  0  0  0  0  0  0  0  0  0  0  0
    0.8687   -0.8971   -0.8736 H   0  0  0  0  0  0  0  0  0  0  0  0
    0.8863   -0.8477    0.9049 H   0  0  0  0  0  0  0  0  0  0  0  0
    3.1785    0.3095   -1.1317 H   0  0  0  0  0  0  0  0  0  0  0  0
  1  2  1  0
  1  4  1  0
  2  3  2  3
  3  5  1  0
  3  9  1  0
  6  7  1  0
  6 10  1  0
  6 11  1  0
  7  8  1  0
  7 12  1  0
  7 13  1  0
  8 14  1  0
M  RAD  1   6   2
M  END
>  <reaction>  (19) 
rmg_rxn_15466

>  <mol_properties>  (19) 
{"1": {"label": "*4", "atom_type": "N3d"}, "2": {"label": "*3", "atom_type": "Cd"}, "5": {"label": "*1", "atom_type": "Cs"}, "6": {"label": "*0", "atom_type": "Cs"}, "8": {"label": "*2", "atom_type": "H0"}}

>  <type>  (19) 
unop_15

>  <geom_source>  (19) 
Heuristics

$$$$

     RDKit          3D

 14 12  0  0  0  0  0  0  0  0999 V2000
   -2.5008    2.2797    1.1817 O   0  0  0  0  0  0  0  0  0  0  0  0
   -1.8418    1.0829    0.9809 N   0  0  0  0  0  0  0  0  0  0  0  0
   -0.8569    1.2113    0.2018 C   0  0  0  0  0  0  0  0  0  0  0  0
   -3.2123    2.0438    1.7802 H   0  0  0  0  0  0  0  0  0  0  0  0
   -0.5825    2.1647   -0.2446 H   0  0  0  0  0  0  0  0  0  0  0  0
    1.3094   -0.0962    0.8333 C   0  0  0  0  0  3  0  0  0  0  0  0
    1.3094   -1.4814    0.2107 C   0  0  0  0  0  0  0  0  0  0  0  0
    1.3094   -1.4814   -1.6064 S   0  0  0  0  0  0  0  0  0  0  0  0
    0.2214    0.5604    0.5162 H   0  0  0  0  0  0  0  0  0  0  0  0
    2.1654    0.4856    0.4905 H   0  0  0  0  0  0  0  0  0  0  0  0
    1.3525   -0.1689    1.9227 H   0  0  0  0  0  0  0  0  0  0  0  0
    0.4662   -2.0739    0.5651 H   0  0  0  0  0  0  0  0  0  0  0  0
    2.2170   -2.0242    0.4788 H   0  0  0  0  0  0  0  0  0  0  0  0
    0.1346   -0.8574   -1.7663 H   0  0  0  0  0  0  0  0  0  0  0  0
  1  2  1  0
  1  4  1  0
  2  3  2  3
  3  5  1  0
  3  9  1  0
  6  7  1  0
  6 10  1  0
  6 11  1  0
  7  8  1  0
  7 12  1  0
  7 13  1  0
  8 14  1  0
M  RAD  1   6   2
M  END
>  <reaction>  (20) 
rmg_rxn_15466

>  <mol_properties>  (20) 
{"1": {"label": "*4", "atom_type": "N3d"}, "2": {"label": "*3", "atom_type": "Cd"}, "5": {"label": "*1", "atom_type": "Cs"}, "6": {"label": "*0", "atom_type": "Cs"}, "8": {"label": "*2", "atom_type": "H0"}}

>  <type>  (20) 
unop_16

>  <geom_source>  (20) 
Heuristics

$$$$

     RDKit          3D

 14 12  0  0  0  0  0  0  0  0999 V2000
   -3.7706   -0.5747    0.0063 O   0  0  0  0  0  0  0  0  0  0  0  0
   -2.3987   -0.2796    0.0257 N   0  0  0  0  0  0  0  0  0  0  0  0
   -1.9973    0.8864   -0.0472 C   0  0  0  0  0  0  0  0  0  0  0  0
   -3.8136   -1.5393    0.0712 H   0  0  0  0  0  0  0  0  0  0  0  0
   -2.5456    1.8159   -0.1314 H   0  0  0  0  0  0  0  0  0  0  0  0
    0.6211    1.0661    0.0179 C   0  0  0  0  0  3  0  0  0  0  0  0
    1.1631   -0.3147    0.0008 C   0  0  0  0  0  0  0  0  0  0  0  0
    3.0224   -0.3013   -0.0382 S   0  0  0  0  0  0  0  0  0  0  0  0
   -0.6949    0.9781   -0.0182 H   0  0  0  0  0  0  0  0  0  0  0  0
    0.8825    1.6466   -0.8600 H   0  0  0  0  0  0  0  0  0  0  0  0
    0.8308    1.6099    0.9337 H   0  0  0  0  0  0  0  0  0  0  0  0
    0.8887   -0.8516   -0.9053 H   0  0  0  0  0  0  0  0  0  0  0  0
    0.8674   -0.8940    0.8733 H   0  0  0  0  0  0  0  0  0  0  0  0
    3.1754    0.3115    1.1341 H   0  0  0  0  0  0  0  0  0  0  0  0
  1  2  1  0
  1  4  1  0
  2  3  2  3
  3  5  1  0
  3  9  1  0
  6  7  1  0
  6 10  1  0
  6 11  1  0
  7  8  1  0
  7 12  1  0
  7 13  1  0
  8 14  1  0
M  RAD  1   6   2
M  END
>  <reaction>  (21) 
rmg_rxn_15466

>  <mol_properties>  (21) 
{"1": {"label": "*4", "atom_type": "N3d"}, "2": {"label": "*3", "atom_type": "Cd"}, "5": {"label": "*1", "atom_type": "Cs"}, "6": {"label": "*0", "atom_type": "Cs"}, "8": {"label": "*2", "atom_type": "H0"}}

>  <type>  (21) 
unop_17

>  <geom_source>  (21) 
Heuristics

$$$$

     RDKit          3D

 14 12  0  0  0  0  0  0  0  0999 V2000
   -2.3543    1.9955   -0.6746 O   0  0  0  0  0  0  0  0  0  0  0  0
   -1.4793    1.0128   -0.2555 N   0  0  0  0  0  0  0  0  0  0  0  0
   -0.9563    1.2906    0.8593 C   0  0  0  0  0  0  0  0  0  0  0  0
   -2.6734    1.6643   -1.5163 H   0  0  0  0  0  0  0  0  0  0  0  0
   -1.1862    2.2040    1.4038 H   0  0  0  0  0  0  0  0  0  0  0  0
    1.2101   -0.0169    1.4908 C   0  0  0  0  0  3  0  0  0  0  0  0
    1.2101   -1.4021    0.8682 C   0  0  0  0  0  0  0  0  0  0  0  0
    1.2101   -1.4021   -0.9489 S   0  0  0  0  0  0  0  0  0  0  0  0
    0.1221    0.6398    1.1737 H   0  0  0  0  0  0  0  0  0  0  0  0
    2.0660    0.5649    1.1480 H   0  0  0  0  0  0  0  0  0  0  0  0
    1.2531   -0.0896    2.5801 H   0  0  0  0  0  0  0  0  0  0  0  0
    0.3668   -1.9946    1.2226 H   0  0  0  0  0  0  0  0  0  0  0  0
    2.1177   -1.9448    1.1363 H   0  0  0  0  0  0  0  0  0  0  0  0
    0.0352   -0.7781   -1.1088 H   0  0  0  0  0  0  0  0  0  0  0  0
  1  2  1  0
  1  4  1  0
  2  3  2  3
  3  5  1  0
  3  9  1  0
  6  7  1  0
  6 10  1  0
  6 11  1  0
  7  8  1  0
  7 12  1  0
  7 13  1  0
  8 14  1  0
M  RAD  1   6   2
M  END
>  <reaction>  (22) 
rmg_rxn_15466

>  <mol_properties>  (22) 
{"1": {"label": "*4", "atom_type": "N3d"}, "2": {"label": "*3", "atom_type": "Cd"}, "5": {"label": "*1", "atom_type": "Cs"}, "6": {"label": "*0", "atom_type": "Cs"}, "8": {"label": "*2", "atom_type": "H0"}}

>  <type>  (22) 
unop_18

>  <geom_source>  (22) 
Heuristics

$$$$

     RDKit          3D

 14 12  0  0  0  0  0  0  0  0999 V2000
   -2.8241    1.8061    0.9542 O   0  0  0  0  0  0  0  0  0  0  0  0
   -1.8713    0.8485    0.6676 N   0  0  0  0  0  0  0  0  0  0  0  0
   -0.7757    1.3645    0.3114 C   0  0  0  0  0  0  0  0  0  0  0  0
   -3.5910    1.2878    1.2061 H   0  0  0  0  0  0  0  0  0  0  0  0
   -0.6276    2.4404    0.2467 H   0  0  0  0  0  0  0  0  0  0  0  0
    1.3906    0.0570    0.9429 C   0  0  0  0  0  3  0  0  0  0  0  0
    1.3906   -1.3281    0.3203 C   0  0  0  0  0  0  0  0  0  0  0  0
    1.3906   -1.3281   -1.4968 S   0  0  0  0  0  0  0  0  0  0  0  0
    0.3027    0.7137    0.6258 H   0  0  0  0  0  0  0  0  0  0  0  0
    2.2466    0.6388    0.6001 H   0  0  0  0  0  0  0  0  0  0  0  0
    1.4337   -0.0157    2.0322 H   0  0  0  0  0  0  0  0  0  0  0  0
    0.5474   -1.9206    0.6746 H   0  0  0  0  0  0  0  0  0  0  0  0
    2.2982   -1.8709    0.5884 H   0  0  0  0  0  0  0  0  0  0  0  0
    0.2158   -0.7042   -1.6567 H   0  0  0  0  0  0  0  0  0  0  0  0
  1  2  1  0
  1  4  1  0
  2  3  2  3
  3  5  1  0
  3  9  1  0
  6  7  1  0
  6 10  1  0
  6 11  1  0
  7  8  1  0
  7 12  1  0
  7 13  1  0
  8 14  1  0
M  RAD  1   6   2
M  END
>  <reaction>  (23) 
rmg_rxn_15466

>  <mol_properties>  (23) 
{"1": {"label": "*4", "atom_type": "N3d"}, "2": {"label": "*3", "atom_type": "Cd"}, "5": {"label": "*1", "atom_type": "Cs"}, "6": {"label": "*0", "atom_type": "Cs"}, "8": {"label": "*2", "atom_type": "H0"}}

>  <type>  (23) 
unop_19

>  <geom_source>  (23) 
Heuristics

$$$$

     RDKit          3D

 14 12  0  0  0  0  0  0  0  0999 V2000
   -2.1558    2.7897    0.7304 O   0  0  0  0  0  0  0  0  0  0  0  0
   -0.9907    2.1555    0.3467 N   0  0  0  0  0  0  0  0  0  0  0  0
   -1.0904    0.8994    0.4214 C   0  0  0  0  0  0  0  0  0  0  0  0
   -1.9463    3.7201    0.6280 H   0  0  0  0  0  0  0  0  0  0  0  0
   -1.9994    0.4017    0.7526 H   0  0  0  0  0  0  0  0  0  0  0  0
    1.0759   -0.4082    1.0530 C   0  0  0  0  0  3  0  0  0  0  0  0
    1.0759   -1.7933    0.4303 C   0  0  0  0  0  0  0  0  0  0  0  0
    1.0759   -1.7933   -1.3868 S   0  0  0  0  0  0  0  0  0  0  0  0
   -0.0121    0.2485    0.7358 H   0  0  0  0  0  0  0  0  0  0  0  0
    1.9319    0.1736    0.7102 H   0  0  0  0  0  0  0  0  0  0  0  0
    1.1190   -0.4809    2.1423 H   0  0  0  0  0  0  0  0  0  0  0  0
    0.2326   -2.3858    0.7847 H   0  0  0  0  0  0  0  0  0  0  0  0
    1.9835   -2.3361    0.6984 H   0  0  0  0  0  0  0  0  0  0  0  0
   -0.0989   -1.1694   -1.5467 H   0  0  0  0  0  0  0  0  0  0  0  0
  1  2  1  0
  1  4  1  0
  2  3  2  3
  3  5  1  0
  3  9  1  0
  6  7  1  0
  6 10  1  0
  6 11  1  0
  7  8  1  0
  7 12  1  0
  7 13  1  0
  8 14  1  0
M  RAD  1   6   2
M  END
>  <reaction>  (24) 
rmg_rxn_15466

>  <mol_properties>  (24) 
{"1": {"label": "*4", "atom_type": "N3d"}, "2": {"label": "*3", "atom_type": "Cd"}, "5": {"label": "*1", "atom_type": "Cs"}, "6": {"label": "*0", "atom_type": "Cs"}, "8": {"label": "*2", "atom_type": "H0"}}

>  <type>  (24) 
unop_20

>  <geom_source>  (24) 
Heuristics

$$$$

     RDKit          3D

 14 12  0  0  0  0  0  0  0  0999 V2000
   -2.7648    1.5950   -0.2866 O   0  0  0  0  0  0  0  0  0  0  0  0
   -1.6570    0.8173   -0.0126 N   0  0  0  0  0  0  0  0  0  0  0  0
   -0.8281    1.4197    0.7247 C   0  0  0  0  0  0  0  0  0  0  0  0
   -3.3017    1.0281   -0.8436 H   0  0  0  0  0  0  0  0  0  0  0  0
   -0.9928    2.4322    1.0871 H   0  0  0  0  0  0  0  0  0  0  0  0
    1.3383    0.1122    1.3562 C   0  0  0  0  0  3  0  0  0  0  0  0
    1.3383   -1.2730    0.7335 C   0  0  0  0  0  0  0  0  0  0  0  0
    1.3383   -1.2730   -1.0835 S   0  0  0  0  0  0  0  0  0  0  0  0
    0.2503    0.7688    1.0390 H   0  0  0  0  0  0  0  0  0  0  0  0
    2.1942    0.6940    1.0134 H   0  0  0  0  0  0  0  0  0  0  0  0
    1.3814    0.0394    2.4455 H   0  0  0  0  0  0  0  0  0  0  0  0
    0.4950   -1.8655    1.0879 H   0  0  0  0  0  0  0  0  0  0  0  0
    2.2459   -1.8158    1.0016 H   0  0  0  0  0  0  0  0  0  0  0  0
    0.1635   -0.6490   -1.2435 H   0  0  0  0  0  0  0  0  0  0  0  0
  1  2  1  0
  1  4  1  0
  2  3  2  3
  3  5  1  0
  3  9  1  0
  6  7  1  0
  6 10  1  0
  6 11  1  0
  7  8  1  0
  7 12  1  0
  7 13  1  0
  8 14  1  0
M  RAD  1   6   2
M  END
>  <reaction>  (25) 
rmg_rxn_15466

>  <mol_properties>  (25) 
{"1": {"label": "*4", "atom_type": "N3d"}, "2": {"label": "*3", "atom_type": "Cd"}, "5": {"label": "*1", "atom_type": "Cs"}, "6": {"label": "*0", "atom_type": "Cs"}, "8": {"label": "*2", "atom_type": "H0"}}

>  <type>  (25) 
unop_21

>  <geom_source>  (25) 
Heuristics

$$$$

     RDKit          3D

 14 12  0  0  0  0  0  0  0  0999 V2000
   -1.9981    0.3277   -1.2344 S   0  0  0  0  0  0  0  0  0  0  0  0
    3.1145    0.7369    0.1018 O   0  0  0  0  0  0  0  0  0  0  0  0
    2.5375    0.1976   -1.0234 N   0  0  0  0  0  0  0  0  0  0  0  0
   -1.8332    0.1140    0.5619 C   0  0  0  0  0  0  0  0  0  0  0  0
   -0.4294   -0.3592    0.8946 C   0  0  0  0  0  3  0  0  0  0  0  0
    1.3811   -0.3728   -0.9536 C   0  0  0  0  0  0  0  0  0  0  0  0
   -2.5758   -0.6318    0.9168 H   0  0  0  0  0  0  0  0  0  0  0  0
   -2.0232    1.0862    1.0631 H   0  0  0  0  0  0  0  0  0  0  0  0
   -0.2392   -1.3531    0.4367 H   0  0  0  0  0  0  0  0  0  0  0  0
   -0.3063   -0.4353    1.9955 H   0  0  0  0  0  0  0  0  0  0  0  0
    0.9339   -0.7946   -1.8432 H   0  0  0  0  0  0  0  0  0  0  0  0
    0.7555   -0.4430    0.1690 H   0  0  0  0  0  0  0  0  0  0  0  0
   -3.3385    0.7446   -1.1262 H   0  0  0  0  0  0  0  0  0  0  0  0
    4.0211    1.1828    0.0415 H   0  0  0  0  0  0  0  0  0  0  0  0
  1  4  1  0
  1 13  1  0
  2  3  1  0
  2 14  1  0
  3  6  2  3
  4  5  1  0
  4  7  1  0
  4  8  1  0
  5  9  1  0
  5 10  1  0
  6 11  1  0
  6 12  1  0
M  RAD  1   5   2
M  END
>  <reaction>  (26) 
rmg_rxn_15466

>  <mol_properties>  (26) 
{"1": {"label": "*4", "atom_type": "N3d"}, "2": {"label": "*3", "atom_type": "Cd"}, "5": {"label": "*1", "atom_type": "Cs"}, "6": {"label": "*0", "atom_type": "Cs"}, "8": {"label": "*2", "atom_type": "H0"}}

>  <type>  (26) 
unop_22

>  <geom_source>  (26) 
AutoTST

$$$$

     RDKit          3D

 14 12  0  0  0  0  0  0  0  0999 V2000
   -2.9465    1.5225    0.3776 O   0  0  0  0  0  0  0  0  0  0  0  0
   -1.7985    0.7578    0.3117 N   0  0  0  0  0  0  0  0  0  0  0  0
   -0.7600    1.4474    0.5106 C   0  0  0  0  0  0  0  0  0  0  0  0
   -3.6460    0.8875    0.2118 H   0  0  0  0  0  0  0  0  0  0  0  0
   -0.7948    2.5166    0.7083 H   0  0  0  0  0  0  0  0  0  0  0  0
    1.4063    0.1398    1.1421 C   0  0  0  0  0  3  0  0  0  0  0  0
    1.4063   -1.2453    0.5194 C   0  0  0  0  0  0  0  0  0  0  0  0
    1.4063   -1.2453   -1.2976 S   0  0  0  0  0  0  0  0  0  0  0  0
    0.3184    0.7965    0.8249 H   0  0  0  0  0  0  0  0  0  0  0  0
    2.2623    0.7216    0.7993 H   0  0  0  0  0  0  0  0  0  0  0  0
    1.4494    0.0671    2.2314 H   0  0  0  0  0  0  0  0  0  0  0  0
    0.5631   -1.8378    0.8738 H   0  0  0  0  0  0  0  0  0  0  0  0
    2.3139   -1.7881    0.7875 H   0  0  0  0  0  0  0  0  0  0  0  0
    0.2315   -0.6214   -1.4576 H   0  0  0  0  0  0  0  0  0  0  0  0
  1  2  1  0
  1  4  1  0
  2  3  2  3
  3  5  1  0
  3  9  1  0
  6  7  1  0
  6 10  1  0
  6 11  1  0
  7  8  1  0
  7 12  1  0
  7 13  1  0
  8 14  1  0
M  RAD  1   6   2
M  END
>  <reaction>  (27) 
rmg_rxn_15466

>  <mol_properties>  (27) 
{"1": {"label": "*4", "atom_type": "N3d"}, "2": {"label": "*3", "atom_type": "Cd"}, "5": {"label": "*1", "atom_type": "Cs"}, "6": {"label": "*0", "atom_type": "Cs"}, "8": {"label": "*2", "atom_type": "H0"}}

>  <type>  (27) 
unop_23

>  <geom_source>  (27) 
gaussian_log

$$$$
