
     RDKit          3D

  9  8  0  0  0  0  0  0  0  0999 V2000
   -1.0314    0.2323   -0.1227 C   0  0  0  0  0  0  0  0  0  0  0  0
    0.3094   -0.4511    0.0063 C   0  0  0  0  0  0  0  0  0  0  0  0
    0.3197   -1.7698    0.6841 N   0  0  0  0  0  0  0  0  0  0  0  0
   -0.7498   -2.1455    1.0557 O   0  0  0  0  0  0  0  0  0  0  0  0
   -1.4744    0.4198    0.8552 H   0  0  0  0  0  0  0  0  0  0  0  0
   -0.9073    1.1865   -0.6350 H   0  0  0  0  0  0  0  0  0  0  0  0
   -1.7319   -0.3778   -0.6927 H   0  0  0  0  0  0  0  0  0  0  0  0
    1.0375    0.1401    0.5713 H   0  0  0  0  0  0  0  0  0  0  0  0
    0.7826   -0.6494   -0.9609 H   0  0  0  0  0  0  0  0  0  0  0  0
  1  2  1  0
  1  5  1  0
  1  6  1  0
  1  7  1  0
  2  3  1  0
  2  8  1  0
  2  9  1  0
  3  4  2  0
M  END
>  <reaction>  (1) 
rmg_rxn_176

>  <mol_properties>  (1) 
{"0": {"label": "donator", "atom_type": "Cs"}, "4": {"label": "d_hydrogen", "atom_type": "H0"}}

>  <type>  (1) 
r1h

$$$$

     RDKit          3D

 14 13  0  0  0  0  0  0  0  0999 V2000
    2.5796   -0.5432    0.2329 C   0  0  0  0  0  3  0  0  0  0  0  0
    1.2594    0.0982    0.3029 C   0  0  0  0  0  0  0  0  0  0  0  0
   -0.0483   -1.0244    0.9576 S   0  0  0  0  0  0  0  0  0  0  0  0
   -0.0049   -2.3732   -0.2491 C   0  0  0  0  0  0  0  0  0  0  0  0
   -0.3891   -1.9781   -1.6653 C   0  0  0  0  0  0  0  0  0  0  0  0
    2.9359   -0.9798   -0.6903 H   0  0  0  0  0  0  0  0  0  0  0  0
    3.1327   -0.7454    1.1400 H   0  0  0  0  0  0  0  0  0  0  0  0
    0.9347    0.4858   -0.6621 H   0  0  0  0  0  0  0  0  0  0  0  0
    1.2442    0.9220    1.0193 H   0  0  0  0  0  0  0  0  0  0  0  0
    0.9819   -2.8380   -0.2257 H   0  0  0  0  0  0  0  0  0  0  0  0
   -0.7110   -3.1037    0.1493 H   0  0  0  0  0  0  0  0  0  0  0  0
    0.3274   -1.2737   -2.0913 H   0  0  0  0  0  0  0  0  0  0  0  0
   -0.4075   -2.8581   -2.3121 H   0  0  0  0  0  0  0  0  0  0  0  0
   -1.3749   -1.5123   -1.6865 H   0  0  0  0  0  0  0  0  0  0  0  0
  1  2  1  0
  1  6  1  0
  1  7  1  0
  2  3  1  0
  2  8  1  0
  2  9  1  0
  3  4  1  0
  4  5  1  0
  4 10  1  0
  4 11  1  0
  5 12  1  0
  5 13  1  0
  5 14  1  0
M  RAD  1   1   2
M  END
>  <reaction>  (2) 
rmg_rxn_176

>  <mol_properties>  (2) 
{"0": {"label": "acceptor", "atom_type": "Cs"}}

>  <type>  (2) 
r2

$$$$

     RDKit          3D

 15 14  0  0  0  0  0  0  0  0999 V2000
   -2.0554    0.0723   -0.4910 C   0  0  0  0  0  0  0  0  0  0  0  0
   -0.7461   -0.6266   -0.8178 C   0  0  0  0  0  0  0  0  0  0  0  0
    0.3249    0.2591   -1.9782 S   0  0  0  0  0  0  0  0  0  0  0  0
   -0.7172    0.3642   -3.4551 C   0  0  0  0  0  0  0  0  0  0  0  0
   -1.1375   -0.9737   -4.0409 C   0  0  0  0  0  0  0  0  0  0  0  0
   -2.7005    0.1427   -1.3684 H   0  0  0  0  0  0  0  0  0  0  0  0
   -2.6016   -0.4848    0.2733 H   0  0  0  0  0  0  0  0  0  0  0  0
   -1.8758    1.0825   -0.1213 H   0  0  0  0  0  0  0  0  0  0  0  0
   -0.1320   -0.7246    0.0789 H   0  0  0  0  0  0  0  0  0  0  0  0
   -0.9254   -1.6374   -1.1879 H   0  0  0  0  0  0  0  0  0  0  0  0
   -1.5873    0.9874   -3.2422 H   0  0  0  0  0  0  0  0  0  0  0  0
   -0.1021    0.9161   -4.1678 H   0  0  0  0  0  0  0  0  0  0  0  0
   -1.7876   -1.5224   -3.3574 H   0  0  0  0  0  0  0  0  0  0  0  0
   -0.2676   -1.5962   -4.2534 H   0  0  0  0  0  0  0  0  0  0  0  0
   -1.6916   -0.8229   -4.9700 H   0  0  0  0  0  0  0  0  0  0  0  0
  1  2  1  0
  1  6  1  0
  1  7  1  0
  1  8  1  0
  2  3  1  0
  2  9  1  0
  2 10  1  0
  3  4  1  0
  4  5  1  0
  4 11  1  0
  4 12  1  0
  5 13  1  0
  5 14  1  0
  5 15  1  0
M  END
>  <reaction>  (3) 
rmg_rxn_176

>  <mol_properties>  (3) 
{"0": {"label": "a_hydrogen", "atom_type": "H0"}, "1": {"label": "acceptor", "atom_type": "Cs"}}

>  <type>  (3) 
r2h

$$$$

     RDKit          3D

 23 21  0  0  0  0  0  0  0  0999 V2000
    1.6314    1.5274    1.1862 C   0  0  0  0  0  3  0  0  0  0  0  0
    1.9503    0.0683    1.1808 C   0  0  0  0  0  0  0  0  0  0  0  0
    2.5572   -0.4836   -0.0507 N   0  0  0  0  0  0  0  0  0  0  0  0
    2.7943    0.3229   -0.8996 O   0  0  0  0  0  0  0  0  0  0  0  0
    0.7050    1.7346    0.2373 H   0  0  0  0  0  0  0  0  0  0  0  0
    1.1400    1.8497    2.1008 H   0  0  0  0  0  0  0  0  0  0  0  0
    2.4477    2.1822    0.8929 H   0  0  0  0  0  0  0  0  0  0  0  0
    1.0590   -0.5465    1.3471 H   0  0  0  0  0  0  0  0  0  0  0  0
    2.6604   -0.2268    1.9652 H   0  0  0  0  0  0  0  0  0  0  0  0
   -0.2303    1.9083   -0.7079 C   0  0  0  0  0  0  0  0  0  0  0  0
   -1.5744    1.5782   -0.1229 C   0  0  0  0  0  0  0  0  0  0  0  0
   -1.7245   -0.0694    0.6239 S   0  0  0  0  0  0  0  0  0  0  0  0
   -1.2346   -1.1522   -0.7424 C   0  0  0  0  0  0  0  0  0  0  0  0
   -2.0920   -1.0352   -1.9912 C   0  0  0  0  0  0  0  0  0  0  0  0
    0.0996    1.2561   -1.5136 H   0  0  0  0  0  0  0  0  0  0  0  0
   -0.1179    2.9566   -0.9801 H   0  0  0  0  0  0  0  0  0  0  0  0
   -2.3634    1.6964   -0.8716 H   0  0  0  0  0  0  0  0  0  0  0  0
   -1.8170    2.2604    0.6941 H   0  0  0  0  0  0  0  0  0  0  0  0
   -0.1809   -0.9901   -0.9775 H   0  0  0  0  0  0  0  0  0  0  0  0
   -1.3104   -2.1550   -0.3186 H   0  0  0  0  0  0  0  0  0  0  0  0
   -1.9974   -0.0490   -2.4484 H   0  0  0  0  0  0  0  0  0  0  0  0
   -1.7780   -1.7720   -2.7334 H   0  0  0  0  0  0  0  0  0  0  0  0
   -3.1443   -1.2031   -1.7593 H   0  0  0  0  0  0  0  0  0  0  0  0
  1  2  1  0
  1  6  1  0
  1  7  1  0
  2  3  1  0
  2  8  1  0
  2  9  1  0
  3  4  2  0
  5 10  1  0
 10 11  1  0
 10 15  1  0
 10 16  1  0
 11 12  1  0
 11 17  1  0
 11 18  1  0
 12 13  1  0
 13 14  1  0
 13 19  1  0
 13 20  1  0
 14 21  1  0
 14 22  1  0
 14 23  1  0
M  RAD  1   1   2
M  END
>  <reaction>  (4) 
rmg_rxn_176

>  <mol_properties>  (4) 
{"0": {"label": "*3", "atom_type": "Cs"}, "1": {"label": "*4", "atom_type": "Cs"}, "4": {"label": "*2", "atom_type": "H0"}, "9": {"label": "*1", "atom_type": "Cs"}, "10": {"label": "*0", "atom_type": "Cs"}}

>  <type>  (4) 
ts

$$$$

     RDKit          3D

 23 21  0  0  0  0  0  0  0  0999 V2000
    2.5061    0.2855    0.6104 C   0  0  0  0  0  0  0  0  0  0  0  0
    2.5061   -0.8915    1.5571 C   0  0  0  0  0  0  0  0  0  0  0  0
    2.5061   -2.2396    0.9398 N   0  0  0  0  0  0  0  0  0  0  0  0
    2.5061   -2.2396   -0.2532 O   0  0  0  0  0  0  0  0  0  0  0  0
    1.4499    0.2728   -0.1608 H   0  0  0  0  0  0  0  0  0  0  0  0
    2.5061    1.2139    1.1818 H   0  0  0  0  0  0  0  0  0  0  0  0
    3.3862    0.2749   -0.0322 H   0  0  0  0  0  0  0  0  0  0  0  0
    1.6349   -0.9063    2.2201 H   0  0  0  0  0  0  0  0  0  0  0  0
    3.3773   -0.9063    2.2201 H   0  0  0  0  0  0  0  0  0  0  0  0
    0.3931    0.2600   -0.9324 C   0  0  0  0  0  3  0  0  0  0  0  0
   -0.4366    1.5183   -0.7372 C   0  0  0  0  0  0  0  0  0  0  0  0
   -1.7968    1.3614    0.4475 S   0  0  0  0  0  0  0  0  0  0  0  0
   -2.8034    0.0542   -0.2982 C   0  0  0  0  0  0  0  0  0  0  0  0
   -3.3436    0.3708   -1.6830 C   0  0  0  0  0  0  0  0  0  0  0  0
   -0.1952   -0.5401   -1.3849 H   0  0  0  0  0  0  0  0  0  0  0  0
    1.2367    0.4619   -1.5961 H   0  0  0  0  0  0  0  0  0  0  0  0
   -0.8249    1.8812   -1.6902 H   0  0  0  0  0  0  0  0  0  0  0  0
    0.1775    2.3193   -0.3224 H   0  0  0  0  0  0  0  0  0  0  0  0
   -2.2395   -0.8801   -0.3038 H   0  0  0  0  0  0  0  0  0  0  0  0
   -3.6232   -0.0777    0.4099 H   0  0  0  0  0  0  0  0  0  0  0  0
   -2.5386    0.4658   -2.4136 H   0  0  0  0  0  0  0  0  0  0  0  0
   -4.0031   -0.4301   -2.0244 H   0  0  0  0  0  0  0  0  0  0  0  0
   -3.9070    1.3046   -1.6770 H   0  0  0  0  0  0  0  0  0  0  0  0
  1  2  1  0
  1  5  1  0
  1  6  1  0
  1  7  1  0
  2  3  1  0
  2  8  1  0
  2  9  1  0
  3  4  2  0
 10 11  1  0
 10 15  1  0
 10 16  1  0
 11 12  1  0
 11 17  1  0
 11 18  1  0
 12 13  1  0
 13 14  1  0
 13 19  1  0
 13 20  1  0
 14 21  1  0
 14 22  1  0
 14 23  1  0
M  RAD  1  10   2
M  END
>  <reaction>  (5) 
rmg_rxn_176

>  <mol_properties>  (5) 
{"0": {"label": "*3", "atom_type": "Cs"}, "1": {"label": "*4", "atom_type": "Cs"}, "4": {"label": "*2", "atom_type": "H0"}, "9": {"label": "*1", "atom_type": "Cs"}, "10": {"label": "*0", "atom_type": "Cs"}}

>  <type>  (5) 
unop_1

>  <geom_source>  (5) 
Heuristics

$$$$

     RDKit          3D

 23 21  0  0  0  0  0  0  0  0999 V2000
    1.9371    1.7651    0.9058 C   0  0  0  0  0  0  0  0  0  0  0  0
    1.9371    0.5881    1.8525 C   0  0  0  0  0  0  0  0  0  0  0  0
    1.9371   -0.7600    1.2353 N   0  0  0  0  0  0  0  0  0  0  0  0
    1.9371   -0.7600    0.0423 O   0  0  0  0  0  0  0  0  0  0  0  0
    0.8809    1.7524    0.1347 H   0  0  0  0  0  0  0  0  0  0  0  0
    1.9371    2.6935    1.4773 H   0  0  0  0  0  0  0  0  0  0  0  0
    2.8172    1.7545    0.2632 H   0  0  0  0  0  0  0  0  0  0  0  0
    1.0659    0.5732    2.5156 H   0  0  0  0  0  0  0  0  0  0  0  0
    2.8083    0.5732    2.5156 H   0  0  0  0  0  0  0  0  0  0  0  0
   -0.1760    1.7396   -0.6369 C   0  0  0  0  0  3  0  0  0  0  0  0
   -1.3542    1.0875    0.0673 C   0  0  0  0  0  0  0  0  0  0  0  0
   -1.2446   -0.7120    0.2350 S   0  0  0  0  0  0  0  0  0  0  0  0
   -1.1669   -1.2520   -1.4915 C   0  0  0  0  0  0  0  0  0  0  0  0
   -2.3713   -0.8733   -2.3374 C   0  0  0  0  0  0  0  0  0  0  0  0
   -0.1135    1.4296   -1.6814 H   0  0  0  0  0  0  0  0  0  0  0  0
   -0.2813    2.8267   -0.6236 H   0  0  0  0  0  0  0  0  0  0  0  0
   -2.2943    1.3503   -0.4204 H   0  0  0  0  0  0  0  0  0  0  0  0
   -1.4253    1.4401    1.0976 H   0  0  0  0  0  0  0  0  0  0  0  0
   -0.2426   -0.8894   -1.9443 H   0  0  0  0  0  0  0  0  0  0  0  0
   -1.0772   -2.3372   -1.4200 H   0  0  0  0  0  0  0  0  0  0  0  0
   -2.4533    0.2087   -2.4539 H   0  0  0  0  0  0  0  0  0  0  0  0
   -2.2826   -1.3046   -3.3370 H   0  0  0  0  0  0  0  0  0  0  0  0
   -3.2948   -1.2357   -1.8845 H   0  0  0  0  0  0  0  0  0  0  0  0
  1  2  1  0
  1  5  1  0
  1  6  1  0
  1  7  1  0
  2  3  1  0
  2  8  1  0
  2  9  1  0
  3  4  2  0
 10 11  1  0
 10 15  1  0
 10 16  1  0
 11 12  1  0
 11 17  1  0
 11 18  1  0
 12 13  1  0
 13 14  1  0
 13 19  1  0
 13 20  1  0
 14 21  1  0
 14 22  1  0
 14 23  1  0
M  RAD  1  10   2
M  END
>  <reaction>  (6) 
rmg_rxn_176

>  <mol_properties>  (6) 
{"0": {"label": "*3", "atom_type": "Cs"}, "1": {"label": "*4", "atom_type": "Cs"}, "4": {"label": "*2", "atom_type": "H0"}, "9": {"label": "*1", "atom_type": "Cs"}, "10": {"label": "*0", "atom_type": "Cs"}}

>  <type>  (6) 
unop_2

>  <geom_source>  (6) 
Heuristics

$$$$

     RDKit          3D

 23 21  0  0  0  0  0  0  0  0999 V2000
    2.2704   -0.2023    0.7179 C   0  0  0  0  0  0  0  0  0  0  0  0
    2.2704   -1.3793    1.6646 C   0  0  0  0  0  0  0  0  0  0  0  0
    2.2704   -2.7274    1.0473 N   0  0  0  0  0  0  0  0  0  0  0  0
    2.2704   -2.7274   -0.1456 O   0  0  0  0  0  0  0  0  0  0  0  0
    1.2143   -0.2150   -0.0532 H   0  0  0  0  0  0  0  0  0  0  0  0
    2.2704    0.7261    1.2893 H   0  0  0  0  0  0  0  0  0  0  0  0
    3.1506   -0.2129    0.0753 H   0  0  0  0  0  0  0  0  0  0  0  0
    1.3992   -1.3941    2.3276 H   0  0  0  0  0  0  0  0  0  0  0  0
    3.1416   -1.3941    2.3276 H   0  0  0  0  0  0  0  0  0  0  0  0
    0.1574   -0.2278   -0.8249 C   0  0  0  0  0  3  0  0  0  0  0  0
   -0.2498    1.1846   -1.2108 C   0  0  0  0  0  0  0  0  0  0  0  0
   -1.2818    2.0423    0.0048 S   0  0  0  0  0  0  0  0  0  0  0  0
   -2.7381    0.9702    0.0931 C   0  0  0  0  0  0  0  0  0  0  0  0
   -3.4927    0.8031   -1.2154 C   0  0  0  0  0  0  0  0  0  0  0  0
   -0.7070   -0.8917   -0.7698 H   0  0  0  0  0  0  0  0  0  0  0  0
    0.8413   -0.6415   -1.5693 H   0  0  0  0  0  0  0  0  0  0  0  0
   -0.7473    1.1955   -2.1820 H   0  0  0  0  0  0  0  0  0  0  0  0
    0.6300    1.8238   -1.3012 H   0  0  0  0  0  0  0  0  0  0  0  0
   -2.4514    0.0009    0.5045 H   0  0  0  0  0  0  0  0  0  0  0  0
   -3.3711    1.4534    0.8392 H   0  0  0  0  0  0  0  0  0  0  0  0
   -2.8885    0.2842   -1.9615 H   0  0  0  0  0  0  0  0  0  0  0  0
   -4.3976    0.2119   -1.0580 H   0  0  0  0  0  0  0  0  0  0  0  0
   -3.7790    1.7719   -1.6263 H   0  0  0  0  0  0  0  0  0  0  0  0
  1  2  1  0
  1  5  1  0
  1  6  1  0
  1  7  1  0
  2  3  1  0
  2  8  1  0
  2  9  1  0
  3  4  2  0
 10 11  1  0
 10 15  1  0
 10 16  1  0
 11 12  1  0
 11 17  1  0
 11 18  1  0
 12 13  1  0
 13 14  1  0
 13 19  1  0
 13 20  1  0
 14 21  1  0
 14 22  1  0
 14 23  1  0
M  RAD  1  10   2
M  END
>  <reaction>  (7) 
rmg_rxn_176

>  <mol_properties>  (7) 
{"0": {"label": "*3", "atom_type": "Cs"}, "1": {"label": "*4", "atom_type": "Cs"}, "4": {"label": "*2", "atom_type": "H0"}, "9": {"label": "*1", "atom_type": "Cs"}, "10": {"label": "*0", "atom_type": "Cs"}}

>  <type>  (7) 
unop_3

>  <geom_source>  (7) 
Heuristics

$$$$

     RDKit          3D

 23 22  0  0  0  0  0  0  0  0999 V2000
    0.5167    1.3014    1.7383 C   0  0  0  0  0  0  0  0  0  0  0  0
    0.5167    0.1245    2.6850 C   0  0  0  0  0  0  0  0  0  0  0  0
    0.5167   -1.2237    2.0677 N   0  0  0  0  0  2  0  0  0  0  0  0
    0.5167   -1.2237    0.8748 O   0  0  0  0  0  0  0  0  0  0  0  0
   -0.5395    1.2887    0.9672 H   0  0  0  0  0  0  0  0  0  0  0  0
    0.5167    2.2299    2.3097 H   0  0  0  0  0  0  0  0  0  0  0  0
    1.3968    1.2908    1.0957 H   0  0  0  0  0  0  0  0  0  0  0  0
   -0.3545    0.1096    3.3481 H   0  0  0  0  0  0  0  0  0  0  0  0
    1.3879    0.1096    3.3481 H   0  0  0  0  0  0  0  0  0  0  0  0
   -1.5964    1.2760    0.1955 C   0  0  0  0  0  3  0  0  0  0  0  0
   -1.6432    0.0071   -0.6396 C   0  0  0  0  0  0  0  0  0  0  0  0
   -0.0426   -0.7994   -0.8959 S   0  0  0  0  0  3  0  0  0  0  0  0
    0.8986    0.4855   -1.7570 C   0  0  0  0  0  0  0  0  0  0  0  0
    0.3120    0.9285   -3.0871 C   0  0  0  0  0  0  0  0  0  0  0  0
   -1.0359    2.0653   -0.3082 H   0  0  0  0  0  0  0  0  0  0  0  0
   -2.6069    1.6520    0.3700 H   0  0  0  0  0  0  0  0  0  0  0  0
   -2.1151    0.1933   -1.6058 H   0  0  0  0  0  0  0  0  0  0  0  0
   -2.2414   -0.7565   -0.1397 H   0  0  0  0  0  0  0  0  0  0  0  0
    1.0430    1.3379   -1.0911 H   0  0  0  0  0  0  0  0  0  0  0  0
    1.8803    0.0326   -1.9051 H   0  0  0  0  0  0  0  0  0  0  0  0
   -0.6526    1.4211   -2.9540 H   0  0  0  0  0  0  0  0  0  0  0  0
    0.9792    1.6415   -3.5765 H   0  0  0  0  0  0  0  0  0  0  0  0
    0.1678    0.0763   -3.7522 H   0  0  0  0  0  0  0  0  0  0  0  0
  1  2  1  0
  1  5  1  0
  1  6  1  0
  1  7  1  0
  2  3  1  0
  2  8  1  0
  2  9  1  0
  3  4  1  0
  4 12  1  0
 10 11  1  0
 10 15  1  0
 10 16  1  0
 11 12  1  0
 11 17  1  0
 11 18  1  0
 12 13  1  0
 13 14  1  0
 13 19  1  0
 13 20  1  0
 14 21  1  0
 14 22  1  0
 14 23  1  0
M  CHG  2   3  -1  12   1
M  RAD  1  10   2
M  END
>  <reaction>  (8) 
rmg_rxn_176

>  <mol_properties>  (8) 
{"0": {"label": "*3", "atom_type": "Cs"}, "1": {"label": "*4", "atom_type": "Cs"}, "4": {"label": "*2", "atom_type": "H0"}, "9": {"label": "*1", "atom_type": "Cs"}, "10": {"label": "*0", "atom_type": "Cs"}}

>  <type>  (8) 
unop_4

>  <geom_source>  (8) 
Heuristics

$$$$

     RDKit          3D

 23 21  0  0  0  0  0  0  0  0999 V2000
    1.6445   -0.6272    0.9225 C   0  0  0  0  0  0  0  0  0  0  0  0
    1.6445   -1.8042    1.8692 C   0  0  0  0  0  0  0  0  0  0  0  0
    1.6445   -3.1523    1.2519 N   0  0  0  0  0  0  0  0  0  0  0  0
    1.6445   -3.1523    0.0590 O   0  0  0  0  0  0  0  0  0  0  0  0
    0.5883   -0.6399    0.1514 H   0  0  0  0  0  0  0  0  0  0  0  0
    1.6445    0.3012    1.4939 H   0  0  0  0  0  0  0  0  0  0  0  0
    2.5246   -0.6378    0.2799 H   0  0  0  0  0  0  0  0  0  0  0  0
    0.7733   -1.8190    2.5323 H   0  0  0  0  0  0  0  0  0  0  0  0
    2.5157   -1.8190    2.5323 H   0  0  0  0  0  0  0  0  0  0  0  0
   -0.4686   -0.6527   -0.6203 C   0  0  0  0  0  3  0  0  0  0  0  0
   -0.4616    0.5340   -1.5697 C   0  0  0  0  0  0  0  0  0  0  0  0
   -0.3176    2.1522   -0.7704 S   0  0  0  0  0  0  0  0  0  0  0  0
   -1.7943    2.1934    0.2766 C   0  0  0  0  0  0  0  0  0  0  0  0
   -3.1138    2.0893   -0.4701 C   0  0  0  0  0  0  0  0  0  0  0  0
   -1.3537   -0.6484    0.0180 H   0  0  0  0  0  0  0  0  0  0  0  0
   -0.4755   -1.5884   -1.1837 H   0  0  0  0  0  0  0  0  0  0  0  0
   -1.3429    0.5238   -2.2132 H   0  0  0  0  0  0  0  0  0  0  0  0
    0.4082    0.4912   -2.2272 H   0  0  0  0  0  0  0  0  0  0  0  0
   -1.7178    1.4205    1.0431 H   0  0  0  0  0  0  0  0  0  0  0  0
   -1.7214    3.1535    0.7901 H   0  0  0  0  0  0  0  0  0  0  0  0
   -3.2219    1.1185   -0.9566 H   0  0  0  0  0  0  0  0  0  0  0  0
   -3.9507    2.2038    0.2222 H   0  0  0  0  0  0  0  0  0  0  0  0
   -3.1897    2.8618   -1.2361 H   0  0  0  0  0  0  0  0  0  0  0  0
  1  2  1  0
  1  5  1  0
  1  6  1  0
  1  7  1  0
  2  3  1  0
  2  8  1  0
  2  9  1  0
  3  4  2  0
 10 11  1  0
 10 15  1  0
 10 16  1  0
 11 12  1  0
 11 17  1  0
 11 18  1  0
 12 13  1  0
 13 14  1  0
 13 19  1  0
 13 20  1  0
 14 21  1  0
 14 22  1  0
 14 23  1  0
M  RAD  1  10   2
M  END
>  <reaction>  (9) 
rmg_rxn_176

>  <mol_properties>  (9) 
{"0": {"label": "*3", "atom_type": "Cs"}, "1": {"label": "*4", "atom_type": "Cs"}, "4": {"label": "*2", "atom_type": "H0"}, "9": {"label": "*1", "atom_type": "Cs"}, "10": {"label": "*0", "atom_type": "Cs"}}

>  <type>  (9) 
unop_5

>  <geom_source>  (9) 
Heuristics

$$$$

     RDKit          3D

 23 21  0  0  0  0  0  0  0  0999 V2000
    0.3541    0.7253    1.8323 C   0  0  0  0  0  0  0  0  0  0  0  0
    0.3541   -0.4517    2.7790 C   0  0  0  0  0  0  0  0  0  0  0  0
    0.3541   -1.7998    2.1618 N   0  0  0  0  0  0  0  0  0  0  0  0
    0.3541   -1.7998    0.9688 O   0  0  0  0  0  0  0  0  0  0  0  0
   -0.7021    0.7126    1.0612 H   0  0  0  0  0  0  0  0  0  0  0  0
    0.3541    1.6537    2.4037 H   0  0  0  0  0  0  0  0  0  0  0  0
    1.2342    0.7147    1.1897 H   0  0  0  0  0  0  0  0  0  0  0  0
   -0.5171   -0.4665    3.4421 H   0  0  0  0  0  0  0  0  0  0  0  0
    1.2253   -0.4665    3.4421 H   0  0  0  0  0  0  0  0  0  0  0  0
   -1.7590    0.6998    0.2896 C   0  0  0  0  0  3  0  0  0  0  0  0
   -1.4883   -0.0763   -0.9887 C   0  0  0  0  0  0  0  0  0  0  0  0
    0.2610   -0.3825   -1.3417 S   0  0  0  0  0  0  0  0  0  0  0  0
    0.9233    1.2974   -1.4740 C   0  0  0  0  0  0  0  0  0  0  0  0
    0.3044    2.1469   -2.5717 C   0  0  0  0  0  0  0  0  0  0  0  0
   -1.3703    1.7177    0.2287 H   0  0  0  0  0  0  0  0  0  0  0  0
   -2.8340    0.7698    0.4696 H   0  0  0  0  0  0  0  0  0  0  0  0
   -1.9520    0.4122   -1.8473 H   0  0  0  0  0  0  0  0  0  0  0  0
   -1.9192   -1.0769   -0.9258 H   0  0  0  0  0  0  0  0  0  0  0  0
    0.8473    1.7952   -0.5059 H   0  0  0  0  0  0  0  0  0  0  0  0
    1.9865    1.1427   -1.6653 H   0  0  0  0  0  0  0  0  0  0  0  0
   -0.7505    2.3463   -2.3756 H   0  0  0  0  0  0  0  0  0  0  0  0
    0.8135    3.1110   -2.6368 H   0  0  0  0  0  0  0  0  0  0  0  0
    0.3804    1.6490   -3.5390 H   0  0  0  0  0  0  0  0  0  0  0  0
  1  2  1  0
  1  5  1  0
  1  6  1  0
  1  7  1  0
  2  3  1  0
  2  8  1  0
  2  9  1  0
  3  4  2  0
 10 11  1  0
 10 15  1  0
 10 16  1  0
 11 12  1  0
 11 17  1  0
 11 18  1  0
 12 13  1  0
 13 14  1  0
 13 19  1  0
 13 20  1  0
 14 21  1  0
 14 22  1  0
 14 23  1  0
M  RAD  1  10   2
M  END
>  <reaction>  (10) 
rmg_rxn_176

>  <mol_properties>  (10) 
{"0": {"label": "*3", "atom_type": "Cs"}, "1": {"label": "*4", "atom_type": "Cs"}, "4": {"label": "*2", "atom_type": "H0"}, "9": {"label": "*1", "atom_type": "Cs"}, "10": {"label": "*0", "atom_type": "Cs"}}

>  <type>  (10) 
unop_6

>  <geom_source>  (10) 
Heuristics

$$$$

     RDKit          3D

 23 21  0  0  0  0  0  0  0  0999 V2000
    0.4297    0.0684    1.7328 C   0  0  0  0  0  0  0  0  0  0  0  0
    0.4297   -1.1086    2.6795 C   0  0  0  0  0  0  0  0  0  0  0  0
    0.4297   -2.4567    2.0622 N   0  0  0  0  0  0  0  0  0  0  0  0
    0.4297   -2.4567    0.8693 O   0  0  0  0  0  0  0  0  0  0  0  0
   -0.6265    0.0556    0.9617 H   0  0  0  0  0  0  0  0  0  0  0  0
    0.4297    0.9968    2.3042 H   0  0  0  0  0  0  0  0  0  0  0  0
    1.3098    0.0578    1.0902 H   0  0  0  0  0  0  0  0  0  0  0  0
   -0.4415   -1.1235    3.3426 H   0  0  0  0  0  0  0  0  0  0  0  0
    1.3009   -1.1235    3.3426 H   0  0  0  0  0  0  0  0  0  0  0  0
   -1.6834    0.0429    0.1900 C   0  0  0  0  0  3  0  0  0  0  0  0
   -1.2850   -0.0340   -1.2746 C   0  0  0  0  0  0  0  0  0  0  0  0
    0.4511    0.3497   -1.6162 S   0  0  0  0  0  0  0  0  0  0  0  0
    0.5911    2.0519   -1.0152 C   0  0  0  0  0  0  0  0  0  0  0  0
   -0.3170    3.0542   -1.7082 C   0  0  0  0  0  0  0  0  0  0  0  0
   -1.6094    1.0628    0.5711 H   0  0  0  0  0  0  0  0  0  0  0  0
   -2.7187   -0.2805    0.3183 H   0  0  0  0  0  0  0  0  0  0  0  0
   -1.9252    0.6033   -1.8868 H   0  0  0  0  0  0  0  0  0  0  0  0
   -1.4043   -1.0519   -1.6492 H   0  0  0  0  0  0  0  0  0  0  0  0
    0.4386    2.0694    0.0652 H   0  0  0  0  0  0  0  0  0  0  0  0
    1.6388    2.3030   -1.1889 H   0  0  0  0  0  0  0  0  0  0  0  0
   -1.3693    2.8424   -1.5115 H   0  0  0  0  0  0  0  0  0  0  0  0
   -0.1128    4.0641   -1.3457 H   0  0  0  0  0  0  0  0  0  0  0  0
   -0.1644    3.0363   -2.7879 H   0  0  0  0  0  0  0  0  0  0  0  0
  1  2  1  0
  1  5  1  0
  1  6  1  0
  1  7  1  0
  2  3  1  0
  2  8  1  0
  2  9  1  0
  3  4  2  0
 10 11  1  0
 10 15  1  0
 10 16  1  0
 11 12  1  0
 11 17  1  0
 11 18  1  0
 12 13  1  0
 13 14  1  0
 13 19  1  0
 13 20  1  0
 14 21  1  0
 14 22  1  0
 14 23  1  0
M  RAD  1  10   2
M  END
>  <reaction>  (11) 
rmg_rxn_176

>  <mol_properties>  (11) 
{"0": {"label": "*3", "atom_type": "Cs"}, "1": {"label": "*4", "atom_type": "Cs"}, "4": {"label": "*2", "atom_type": "H0"}, "9": {"label": "*1", "atom_type": "Cs"}, "10": {"label": "*0", "atom_type": "Cs"}}

>  <type>  (11) 
unop_7

>  <geom_source>  (11) 
Heuristics

$$$$

     RDKit          3D

 23 21  0  0  0  0  0  0  0  0999 V2000
    2.5291    0.8146    0.5625 C   0  0  0  0  0  0  0  0  0  0  0  0
    2.5291   -0.3624    1.5092 C   0  0  0  0  0  0  0  0  0  0  0  0
    2.5291   -1.7105    0.8920 N   0  0  0  0  0  0  0  0  0  0  0  0
    2.5291   -1.7105   -0.3010 O   0  0  0  0  0  0  0  0  0  0  0  0
    1.4730    0.8018   -0.2086 H   0  0  0  0  0  0  0  0  0  0  0  0
    2.5291    1.7430    1.1339 H   0  0  0  0  0  0  0  0  0  0  0  0
    3.4093    0.8040   -0.0801 H   0  0  0  0  0  0  0  0  0  0  0  0
    1.6579   -0.3773    2.1723 H   0  0  0  0  0  0  0  0  0  0  0  0
    3.4003   -0.3773    2.1723 H   0  0  0  0  0  0  0  0  0  0  0  0
    0.4161    0.7891   -0.9803 C   0  0  0  0  0  3  0  0  0  0  0  0
   -0.7311    1.5546   -0.3419 C   0  0  0  0  0  0  0  0  0  0  0  0
   -1.8943    0.5404    0.6049 S   0  0  0  0  0  0  0  0  0  0  0  0
   -2.5223   -0.5974   -0.6557 C   0  0  0  0  0  0  0  0  0  0  0  0
   -3.2315    0.0670   -1.8242 C   0  0  0  0  0  0  0  0  0  0  0  0
    0.0585    0.0994   -1.7467 H   0  0  0  0  0  0  0  0  0  0  0  0
    1.1119    1.4806   -1.4606 H   0  0  0  0  0  0  0  0  0  0  0  0
   -1.2777    2.1327   -1.0889 H   0  0  0  0  0  0  0  0  0  0  0  0
   -0.3520    2.2678    0.3918 H   0  0  0  0  0  0  0  0  0  0  0  0
   -1.7100   -1.2369   -1.0050 H   0  0  0  0  0  0  0  0  0  0  0  0
   -3.2128   -1.2387   -0.1054 H   0  0  0  0  0  0  0  0  0  0  0  0
   -2.5459    0.6809   -2.4107 H   0  0  0  0  0  0  0  0  0  0  0  0
   -3.6486   -0.6889   -2.4933 H   0  0  0  0  0  0  0  0  0  0  0  0
   -4.0431    0.7060   -1.4747 H   0  0  0  0  0  0  0  0  0  0  0  0
  1  2  1  0
  1  5  1  0
  1  6  1  0
  1  7  1  0
  2  3  1  0
  2  8  1  0
  2  9  1  0
  3  4  2  0
 10 11  1  0
 10 15  1  0
 10 16  1  0
 11 12  1  0
 11 17  1  0
 11 18  1  0
 12 13  1  0
 13 14  1  0
 13 19  1  0
 13 20  1  0
 14 21  1  0
 14 22  1  0
 14 23  1  0
M  RAD  1  10   2
M  END
>  <reaction>  (12) 
rmg_rxn_176

>  <mol_properties>  (12) 
{"0": {"label": "*3", "atom_type": "Cs"}, "1": {"label": "*4", "atom_type": "Cs"}, "4": {"label": "*2", "atom_type": "H0"}, "9": {"label": "*1", "atom_type": "Cs"}, "10": {"label": "*0", "atom_type": "Cs"}}

>  <type>  (12) 
unop_8

>  <geom_source>  (12) 
Heuristics

$$$$

     RDKit          3D

 23 22  0  0  0  0  0  0  0  0999 V2000
    0.8750    1.7170    1.5228 C   0  0  0  0  0  0  0  0  0  0  0  0
    0.8750    0.5401    2.4696 C   0  0  0  0  0  0  0  0  0  0  0  0
    0.8750   -0.8081    1.8523 N   0  0  0  0  0  2  0  0  0  0  0  0
    0.8750   -0.8081    0.6593 O   0  0  0  0  0  0  0  0  0  0  0  0
   -0.1811    1.7043    0.7517 H   0  0  0  0  0  0  0  0  0  0  0  0
    0.8750    2.6455    2.0943 H   0  0  0  0  0  0  0  0  0  0  0  0
    1.7552    1.7064    0.8802 H   0  0  0  0  0  0  0  0  0  0  0  0
    0.0038    0.5252    3.1326 H   0  0  0  0  0  0  0  0  0  0  0  0
    1.7462    0.5252    3.1326 H   0  0  0  0  0  0  0  0  0  0  0  0
   -1.2380    1.6916   -0.0199 C   0  0  0  0  0  3  0  0  0  0  0  0
   -1.7073    0.2686   -0.2739 C   0  0  0  0  0  0  0  0  0  0  0  0
   -0.3830   -0.9526   -0.4558 S   0  0  0  0  0  3  0  0  0  0  0  0
    0.5217   -0.3232   -1.8923 C   0  0  0  0  0  0  0  0  0  0  0  0
   -0.2910   -0.2315   -3.1732 C   0  0  0  0  0  0  0  0  0  0  0  0
   -0.6929    2.0913   -0.8767 H   0  0  0  0  0  0  0  0  0  0  0  0
   -2.0938    2.3464    0.1583 H   0  0  0  0  0  0  0  0  0  0  0  0
   -2.3646    0.2241   -1.1439 H   0  0  0  0  0  0  0  0  0  0  0  0
   -2.2849   -0.0998    0.5755 H   0  0  0  0  0  0  0  0  0  0  0  0
    0.9706    0.6403   -1.6454 H   0  0  0  0  0  0  0  0  0  0  0  0
    1.3434   -1.0313   -2.0120 H   0  0  0  0  0  0  0  0  0  0  0  0
   -1.0933    0.5030   -3.0855 H   0  0  0  0  0  0  0  0  0  0  0  0
    0.3463    0.0773   -4.0048 H   0  0  0  0  0  0  0  0  0  0  0  0
   -0.7395   -1.1946   -3.4196 H   0  0  0  0  0  0  0  0  0  0  0  0
  1  2  1  0
  1  5  1  0
  1  6  1  0
  1  7  1  0
  2  3  1  0
  2  8  1  0
  2  9  1  0
  3  4  1  0
  4 12  1  0
 10 11  1  0
 10 15  1  0
 10 16  1  0
 11 12  1  0
 11 17  1  0
 11 18  1  0
 12 13  1  0
 13 14  1  0
 13 19  1  0
 13 20  1  0
 14 21  1  0
 14 22  1  0
 14 23  1  0
M  CHG  2   3  -1  12   1
M  RAD  1  10   2
M  END
>  <reaction>  (13) 
rmg_rxn_176

>  <mol_properties>  (13) 
{"0": {"label": "*3", "atom_type": "Cs"}, "1": {"label": "*4", "atom_type": "Cs"}, "4": {"label": "*2", "atom_type": "H0"}, "9": {"label": "*1", "atom_type": "Cs"}, "10": {"label": "*0", "atom_type": "Cs"}}

>  <type>  (13) 
unop_9

>  <geom_source>  (13) 
Heuristics

$$$$

     RDKit          3D

 23 21  0  0  0  0  0  0  0  0999 V2000
    2.3432    1.3535    0.6564 C   0  0  0  0  0  0  0  0  0  0  0  0
    2.3432    0.1766    1.6031 C   0  0  0  0  0  0  0  0  0  0  0  0
    2.3432   -1.1716    0.9859 N   0  0  0  0  0  0  0  0  0  0  0  0
    2.3432   -1.1716   -0.2071 O   0  0  0  0  0  0  0  0  0  0  0  0
    1.2870    1.3408   -0.1147 H   0  0  0  0  0  0  0  0  0  0  0  0
    2.3432    2.2820    1.2278 H   0  0  0  0  0  0  0  0  0  0  0  0
    3.2233    1.3429    0.0138 H   0  0  0  0  0  0  0  0  0  0  0  0
    1.4720    0.1617    2.2662 H   0  0  0  0  0  0  0  0  0  0  0  0
    3.2144    0.1617    2.2662 H   0  0  0  0  0  0  0  0  0  0  0  0
    0.2301    1.3281   -0.8863 C   0  0  0  0  0  3  0  0  0  0  0  0
   -1.0447    1.3943   -0.0617 C   0  0  0  0  0  0  0  0  0  0  0  0
   -1.6730   -0.2063    0.5052 S   0  0  0  0  0  0  0  0  0  0  0  0
   -1.9786   -1.0708   -1.0561 C   0  0  0  0  0  0  0  0  0  0  0  0
   -2.9891   -0.4021   -1.9732 C   0  0  0  0  0  0  0  0  0  0  0  0
    0.0662    0.8132   -1.8345 H   0  0  0  0  0  0  0  0  0  0  0  0
    0.5845    2.3351   -1.1174 H   0  0  0  0  0  0  0  0  0  0  0  0
   -1.8317    1.9229   -0.6020 H   0  0  0  0  0  0  0  0  0  0  0  0
   -0.8723    1.9475    0.8630 H   0  0  0  0  0  0  0  0  0  0  0  0
   -1.0312   -1.2339   -1.5725 H   0  0  0  0  0  0  0  0  0  0  0  0
   -2.3388   -2.0522   -0.7429 H   0  0  0  0  0  0  0  0  0  0  0  0
   -2.6273    0.5639   -2.3294 H   0  0  0  0  0  0  0  0  0  0  0  0
   -3.1754   -1.0258   -2.8503 H   0  0  0  0  0  0  0  0  0  0  0  0
   -3.9357   -0.2392   -1.4567 H   0  0  0  0  0  0  0  0  0  0  0  0
  1  2  1  0
  1  5  1  0
  1  6  1  0
  1  7  1  0
  2  3  1  0
  2  8  1  0
  2  9  1  0
  3  4  2  0
 10 11  1  0
 10 15  1  0
 10 16  1  0
 11 12  1  0
 11 17  1  0
 11 18  1  0
 12 13  1  0
 13 14  1  0
 13 19  1  0
 13 20  1  0
 14 21  1  0
 14 22  1  0
 14 23  1  0
M  RAD  1  10   2
M  END
>  <reaction>  (14) 
rmg_rxn_176

>  <mol_properties>  (14) 
{"0": {"label": "*3", "atom_type": "Cs"}, "1": {"label": "*4", "atom_type": "Cs"}, "4": {"label": "*2", "atom_type": "H0"}, "9": {"label": "*1", "atom_type": "Cs"}, "10": {"label": "*0", "atom_type": "Cs"}}

>  <type>  (14) 
unop_10

>  <geom_source>  (14) 
Heuristics

$$$$

     RDKit          3D

 23 21  0  0  0  0  0  0  0  0999 V2000
    0.8410   -0.5095    1.3833 C   0  0  0  0  0  0  0  0  0  0  0  0
    0.8410   -1.6865    2.3300 C   0  0  0  0  0  0  0  0  0  0  0  0
    0.8410   -3.0346    1.7127 N   0  0  0  0  0  0  0  0  0  0  0  0
    0.8410   -3.0346    0.5198 O   0  0  0  0  0  0  0  0  0  0  0  0
   -0.2152   -0.5222    0.6122 H   0  0  0  0  0  0  0  0  0  0  0  0
    0.8410    0.4189    1.9547 H   0  0  0  0  0  0  0  0  0  0  0  0
    1.7211   -0.5201    0.7407 H   0  0  0  0  0  0  0  0  0  0  0  0
   -0.0302   -1.7013    2.9930 H   0  0  0  0  0  0  0  0  0  0  0  0
    1.7122   -1.7013    2.9930 H   0  0  0  0  0  0  0  0  0  0  0  0
   -1.2721   -0.5350   -0.1595 C   0  0  0  0  0  3  0  0  0  0  0  0
   -0.9703    0.1066   -1.5037 C   0  0  0  0  0  0  0  0  0  0  0  0
    0.3624    1.3320   -1.4844 S   0  0  0  0  0  0  0  0  0  0  0  0
   -0.2738    2.5695   -0.3260 C   0  0  0  0  0  0  0  0  0  0  0  0
   -1.5836    3.2209   -0.7378 C   0  0  0  0  0  0  0  0  0  0  0  0
   -1.6608    0.1945    0.5530 H   0  0  0  0  0  0  0  0  0  0  0  0
   -2.0272   -1.3159   -0.2736 H   0  0  0  0  0  0  0  0  0  0  0  0
   -1.8686    0.5534   -1.9331 H   0  0  0  0  0  0  0  0  0  0  0  0
   -0.6220   -0.6442   -2.2149 H   0  0  0  0  0  0  0  0  0  0  0  0
   -0.3534    2.1286    0.6691 H   0  0  0  0  0  0  0  0  0  0  0  0
    0.5232    3.3132   -0.2773 H   0  0  0  0  0  0  0  0  0  0  0  0
   -2.4017    2.4988   -0.7520 H   0  0  0  0  0  0  0  0  0  0  0  0
   -1.8538    4.0082   -0.0305 H   0  0  0  0  0  0  0  0  0  0  0  0
   -1.5037    3.6613   -1.7323 H   0  0  0  0  0  0  0  0  0  0  0  0
  1  2  1  0
  1  5  1  0
  1  6  1  0
  1  7  1  0
  2  3  1  0
  2  8  1  0
  2  9  1  0
  3  4  2  0
 10 11  1  0
 10 15  1  0
 10 16  1  0
 11 12  1  0
 11 17  1  0
 11 18  1  0
 12 13  1  0
 13 14  1  0
 13 19  1  0
 13 20  1  0
 14 21  1  0
 14 22  1  0
 14 23  1  0
M  RAD  1  10   2
M  END
>  <reaction>  (15) 
rmg_rxn_176

>  <mol_properties>  (15) 
{"0": {"label": "*3", "atom_type": "Cs"}, "1": {"label": "*4", "atom_type": "Cs"}, "4": {"label": "*2", "atom_type": "H0"}, "9": {"label": "*1", "atom_type": "Cs"}, "10": {"label": "*0", "atom_type": "Cs"}}

>  <type>  (15) 
unop_11

>  <geom_source>  (15) 
Heuristics

$$$$

     RDKit          3D

 23 21  0  0  0  0  0  0  0  0999 V2000
    1.3898    1.8977    1.2296 C   0  0  0  0  0  0  0  0  0  0  0  0
    1.3898    0.7207    2.1763 C   0  0  0  0  0  0  0  0  0  0  0  0
    1.3898   -0.6274    1.5590 N   0  0  0  0  0  0  0  0  0  0  0  0
    1.3898   -0.6274    0.3661 O   0  0  0  0  0  0  0  0  0  0  0  0
    0.3337    1.8850    0.4585 H   0  0  0  0  0  0  0  0  0  0  0  0
    1.3898    2.8261    1.8010 H   0  0  0  0  0  0  0  0  0  0  0  0
    2.2700    1.8871    0.5870 H   0  0  0  0  0  0  0  0  0  0  0  0
    0.5186    0.7059    2.8393 H   0  0  0  0  0  0  0  0  0  0  0  0
    2.2610    0.7059    2.8393 H   0  0  0  0  0  0  0  0  0  0  0  0
   -0.7232    1.8722   -0.3132 C   0  0  0  0  0  3  0  0  0  0  0  0
   -1.6066    0.6750   -0.0037 C   0  0  0  0  0  0  0  0  0  0  0  0
   -0.7761   -0.9315   -0.0915 S   0  0  0  0  0  0  0  0  0  0  0  0
   -0.2279   -0.9839   -1.8163 C   0  0  0  0  0  0  0  0  0  0  0  0
   -1.3424   -0.9092   -2.8467 C   0  0  0  0  0  0  0  0  0  0  0  0
   -0.3848    1.8614   -1.3506 H   0  0  0  0  0  0  0  0  0  0  0  0
   -1.2767    2.8012   -0.1589 H   0  0  0  0  0  0  0  0  0  0  0  0
   -2.4880    0.6639   -0.6471 H   0  0  0  0  0  0  0  0  0  0  0  0
   -1.9687    0.7239    1.0246 H   0  0  0  0  0  0  0  0  0  0  0  0
    0.5132   -0.2011   -1.9859 H   0  0  0  0  0  0  0  0  0  0  0  0
    0.2984   -1.9368   -1.8923 H   0  0  0  0  0  0  0  0  0  0  0  0
   -1.8540    0.0542   -2.8127 H   0  0  0  0  0  0  0  0  0  0  0  0
   -0.9360   -1.0289   -3.8535 H   0  0  0  0  0  0  0  0  0  0  0  0
   -2.0829   -1.6915   -2.6768 H   0  0  0  0  0  0  0  0  0  0  0  0
  1  2  1  0
  1  5  1  0
  1  6  1  0
  1  7  1  0
  2  3  1  0
  2  8  1  0
  2  9  1  0
  3  4  2  0
 10 11  1  0
 10 15  1  0
 10 16  1  0
 11 12  1  0
 11 17  1  0
 11 18  1  0
 12 13  1  0
 13 14  1  0
 13 19  1  0
 13 20  1  0
 14 21  1  0
 14 22  1  0
 14 23  1  0
M  RAD  1  10   2
M  END
>  <reaction>  (16) 
rmg_rxn_176

>  <mol_properties>  (16) 
{"0": {"label": "*3", "atom_type": "Cs"}, "1": {"label": "*4", "atom_type": "Cs"}, "4": {"label": "*2", "atom_type": "H0"}, "9": {"label": "*1", "atom_type": "Cs"}, "10": {"label": "*0", "atom_type": "Cs"}}

>  <type>  (16) 
unop_12

>  <geom_source>  (16) 
Heuristics

$$$$

     RDKit          3D

 23 21  0  0  0  0  0  0  0  0999 V2000
   -0.5914    0.7178   -0.4927 S   0  0  0  0  0  0  0  0  0  0  0  0
    4.7522    0.6492    0.6417 O   0  0  0  0  0  0  0  0  0  0  0  0
    3.7679    1.1741    1.0673 N   0  0  0  0  0  0  0  0  0  0  0  0
   -1.0273   -0.9606    0.0777 C   0  0  0  0  0  0  0  0  0  0  0  0
   -2.3058    1.3483   -0.5641 C   0  0  0  0  0  0  0  0  0  0  0  0
    0.2337   -1.7965    0.2236 C   0  0  0  0  0  0  0  0  0  0  0  0
   -2.9358    1.0469   -1.9176 C   0  0  0  0  0  0  0  0  0  0  0  0
    2.4605    0.6494    0.7583 C   0  0  0  0  0  0  0  0  0  0  0  0
    2.2485   -0.6983    1.4344 C   0  0  0  0  0  3  0  0  0  0  0  0
   -1.7047   -1.4489   -0.6534 H   0  0  0  0  0  0  0  0  0  0  0  0
   -1.5356   -0.8992    1.0632 H   0  0  0  0  0  0  0  0  0  0  0  0
   -2.2748    2.4491   -0.4225 H   0  0  0  0  0  0  0  0  0  0  0  0
   -2.9261    0.9178    0.2505 H   0  0  0  0  0  0  0  0  0  0  0  0
    0.7506   -1.8837   -0.7556 H   0  0  0  0  0  0  0  0  0  0  0  0
   -0.0312   -2.8139    0.5812 H   0  0  0  0  0  0  0  0  0  0  0  0
    1.0516   -1.2305    1.1045 H   0  0  0  0  0  0  0  0  0  0  0  0
   -2.3237    1.4906   -2.7313 H   0  0  0  0  0  0  0  0  0  0  0  0
   -3.9550    1.4854   -1.9588 H   0  0  0  0  0  0  0  0  0  0  0  0
   -3.0156   -0.0483   -2.0760 H   0  0  0  0  0  0  0  0  0  0  0  0
    2.3468    0.5402   -0.3417 H   0  0  0  0  0  0  0  0  0  0  0  0
    1.6901    1.3600    1.1232 H   0  0  0  0  0  0  0  0  0  0  0  0
    2.9737   -1.4476    1.0518 H   0  0  0  0  0  0  0  0  0  0  0  0
    2.3513   -0.6015    2.5362 H   0  0  0  0  0  0  0  0  0  0  0  0
  1  4  1  0
  1  5  1  0
  2  3  2  0
  3  8  1  0
  4  6  1  0
  4 10  1  0
  4 11  1  0
  5  7  1  0
  5 12  1  0
  5 13  1  0
  6 14  1  0
  6 15  1  0
  6 16  1  0
  7 17  1  0
  7 18  1  0
  7 19  1  0
  8  9  1  0
  8 20  1  0
  8 21  1  0
  9 22  1  0
  9 23  1  0
M  RAD  1   9   2
M  END
>  <reaction>  (17) 
rmg_rxn_176

>  <mol_properties>  (17) 
{"0": {"label": "*3", "atom_type": "Cs"}, "1": {"label": "*4", "atom_type": "Cs"}, "4": {"label": "*2", "atom_type": "H0"}, "9": {"label": "*1", "atom_type": "Cs"}, "10": {"label": "*0", "atom_type": "Cs"}}

>  <type>  (17) 
unop_13

>  <geom_source>  (17) 
AutoTST

$$$$

     RDKit          3D

 23 21  0  0  0  0  0  0  0  0999 V2000
    1.9371    1.7651    0.9058 C   0  0  0  0  0  0  0  0  0  0  0  0
    1.9371    0.5881    1.8525 C   0  0  0  0  0  0  0  0  0  0  0  0
    1.9371   -0.7600    1.2353 N   0  0  0  0  0  0  0  0  0  0  0  0
    1.9371   -0.7600    0.0423 O   0  0  0  0  0  0  0  0  0  0  0  0
    0.8809    1.7524    0.1347 H   0  0  0  0  0  0  0  0  0  0  0  0
    1.9371    2.6935    1.4772 H   0  0  0  0  0  0  0  0  0  0  0  0
    2.8172    1.7545    0.2632 H   0  0  0  0  0  0  0  0  0  0  0  0
    1.0659    0.5732    2.5156 H   0  0  0  0  0  0  0  0  0  0  0  0
    2.8083    0.5732    2.5156 H   0  0  0  0  0  0  0  0  0  0  0  0
   -0.1760    1.7396   -0.6369 C   0  0  0  0  0  3  0  0  0  0  0  0
   -1.3542    1.0875    0.0673 C   0  0  0  0  0  0  0  0  0  0  0  0
   -1.2446   -0.7120    0.2350 S   0  0  0  0  0  0  0  0  0  0  0  0
   -1.1669   -1.2520   -1.4915 C   0  0  0  0  0  0  0  0  0  0  0  0
   -2.3713   -0.8733   -2.3374 C   0  0  0  0  0  0  0  0  0  0  0  0
   -0.1135    1.4296   -1.6814 H   0  0  0  0  0  0  0  0  0  0  0  0
   -0.2813    2.8267   -0.6236 H   0  0  0  0  0  0  0  0  0  0  0  0
   -2.2943    1.3503   -0.4204 H   0  0  0  0  0  0  0  0  0  0  0  0
   -1.4253    1.4401    1.0976 H   0  0  0  0  0  0  0  0  0  0  0  0
   -0.2426   -0.8894   -1.9443 H   0  0  0  0  0  0  0  0  0  0  0  0
   -1.0772   -2.3372   -1.4200 H   0  0  0  0  0  0  0  0  0  0  0  0
   -2.4533    0.2087   -2.4539 H   0  0  0  0  0  0  0  0  0  0  0  0
   -2.2826   -1.3046   -3.3370 H   0  0  0  0  0  0  0  0  0  0  0  0
   -3.2948   -1.2357   -1.8845 H   0  0  0  0  0  0  0  0  0  0  0  0
  1  2  1  0
  1  5  1  0
  1  6  1  0
  1  7  1  0
  2  3  1  0
  2  8  1  0
  2  9  1  0
  3  4  2  0
 10 11  1  0
 10 15  1  0
 10 16  1  0
 11 12  1  0
 11 17  1  0
 11 18  1  0
 12 13  1  0
 13 14  1  0
 13 19  1  0
 13 20  1  0
 14 21  1  0
 14 22  1  0
 14 23  1  0
M  RAD  1  10   2
M  END
>  <reaction>  (18) 
rmg_rxn_176

>  <mol_properties>  (18) 
{"0": {"label": "*3", "atom_type": "Cs"}, "1": {"label": "*4", "atom_type": "Cs"}, "4": {"label": "*2", "atom_type": "H0"}, "9": {"label": "*1", "atom_type": "Cs"}, "10": {"label": "*0", "atom_type": "Cs"}}

>  <type>  (18) 
unop_14

>  <geom_source>  (18) 
gaussian_log

$$$$
