
     RDKit          3D

  3  2  0  0  0  0  0  0  0  0999 V2000
    0.0000    0.0000    0.1022 S   0  0  0  0  0  0  0  0  0  0  0  0
    0.0000    0.9758   -0.8177 H   0  0  0  0  0  0  0  0  0  0  0  0
    0.0000   -0.9758   -0.8177 H   0  0  0  0  0  0  0  0  0  0  0  0
  1  2  1  0
  1  3  1  0
M  END
>  <reaction>  (1) 
rmg_rxn_1146

>  <mol_properties>  (1) 
{"0": {"label": "donator", "atom_type": "S2s"}, "1": {"label": "d_hydrogen", "atom_type": "H0"}}

>  <type>  (1) 
r1h

$$$$

     RDKit          3D

  1  0  0  0  0  0  0  0  0  0999 V2000
    0.0000    0.0000    0.0000 O   0  0  0  0  0 15  0  0  0  0  0  0
M  END
>  <reaction>  (2) 
rmg_rxn_1146

>  <mol_properties>  (2) 
{"0": {"label": "acceptor", "atom_type": "O2s"}}

>  <type>  (2) 
r2

$$$$

     RDKit          3D

  2  1  0  0  0  0  0  0  0  0999 V2000
    0.0000    0.0000    0.1079 O   0  0  0  0  0  1  0  0  0  0  0  0
    0.0000    0.0000   -0.8631 H   0  0  0  0  0  0  0  0  0  0  0  0
  1  2  1  0
M  RAD  1   1   2
M  END
>  <reaction>  (3) 
rmg_rxn_1146

>  <mol_properties>  (3) 
{"0": {"label": "acceptor", "atom_type": "O2s"}, "1": {"label": "a_hydrogen", "atom_type": "H0"}}

>  <type>  (3) 
r2h

$$$$

     RDKit          3D

  4  2  0  0  0  0  0  0  0  0999 V2000
   -1.8222    0.0116   -0.0000 O   0  0  0  0  0  1  0  0  0  0  0  0
    0.8981   -0.0628   -0.0000 S   0  0  0  0  0  1  0  0  0  0  0  0
   -0.5005   -0.3516    0.0000 H   0  0  0  0  0  0  0  0  0  0  0  0
    0.7082    1.2631    0.0000 H   0  0  0  0  0  0  0  0  0  0  0  0
  1  3  1  0
  2  4  1  0
M  RAD  2   1   2   2   2
M  END
>  <reaction>  (4) 
rmg_rxn_1146

>  <mol_properties>  (4) 
{"0": {"label": "*1", "atom_type": "O2s"}, "1": {"label": "*3", "atom_type": "S2s"}, "2": {"label": "*2", "atom_type": "H0"}, "3": {"label": "*4", "atom_type": "H0"}}

>  <type>  (4) 
ts

$$$$

     RDKit          3D

  4  2  0  0  0  0  0  0  0  0999 V2000
    0.0000    1.8509    0.1363 O   0  0  0  0  0  1  0  0  0  0  0  0
    0.0000   -0.9187   -0.0272 S   0  0  0  0  0  1  0  0  0  0  0  0
    0.0000    0.6877    0.0676 H   0  0  0  0  0  0  0  0  0  0  0  0
    0.0000   -0.9187   -1.3682 H   0  0  0  0  0  0  0  0  0  0  0  0
  1  3  1  0
  2  4  1  0
M  RAD  2   1   2   2   2
M  END
>  <reaction>  (5) 
rmg_rxn_1146

>  <mol_properties>  (5) 
{"0": {"label": "*1", "atom_type": "O2s"}, "1": {"label": "*3", "atom_type": "S2s"}, "2": {"label": "*2", "atom_type": "H0"}, "3": {"label": "*4", "atom_type": "H0"}}

>  <type>  (5) 
unop_1

>  <geom_source>  (5) 
Heuristics

$$$$
