
     RDKit          3D

  5  4  0  0  0  0  0  0  0  0999 V2000
    0.7361   -0.2872    0.4035 N   0  0  0  0  0  2  0  0  0  0  0  0
   -0.3891   -0.1505   -0.3131 N   0  0  0  0  0  0  0  0  0  0  0  0
    1.4909    0.0686   -0.1831 H   0  0  0  0  0  0  0  0  0  0  0  0
   -1.1819   -0.6340    0.0744 H   0  0  0  0  0  0  0  0  0  0  0  0
   -0.3592   -0.1189   -1.3223 H   0  0  0  0  0  0  0  0  0  0  0  0
  1  2  1  0
  1  3  1  0
  2  4  1  0
  2  5  1  0
M  RAD  1   1   2
M  END
>  <reaction>  (1) 
rmg_rxn_15566

>  <mol_properties>  (1) 
{"0": {"label": "donator", "atom_type": "N3s"}, "2": {"label": "d_hydrogen", "atom_type": "H0"}}

>  <type>  (1) 
r1h

$$$$

     RDKit          3D

  8  7  0  0  0  0  0  0  0  0999 V2000
    1.7077   -0.1964   -0.0607 C   0  0  0  0  0  3  0  0  0  0  0  0
    0.4209   -0.4565    0.2808 O   0  0  0  0  0  0  0  0  0  0  0  0
   -0.4607    0.4385   -0.2968 N   0  0  0  0  0  0  0  0  0  0  0  0
   -1.6584    0.1416   -0.0244 C   0  0  0  0  0  0  0  0  0  0  0  0
    2.4163   -0.7685    0.5170 H   0  0  0  0  0  0  0  0  0  0  0  0
    1.9214    0.7645   -0.5045 H   0  0  0  0  0  0  0  0  0  0  0  0
   -2.4185    0.7953   -0.4307 H   0  0  0  0  0  0  0  0  0  0  0  0
   -1.9286   -0.7185    0.5831 H   0  0  0  0  0  0  0  0  0  0  0  0
  1  2  1  0
  1  5  1  0
  1  6  1  0
  2  3  1  0
  3  4  2  3
  4  7  1  0
  4  8  1  0
M  RAD  1   1   2
M  END
>  <reaction>  (2) 
rmg_rxn_15566

>  <mol_properties>  (2) 
{"0": {"label": "acceptor", "atom_type": "Cs"}}

>  <type>  (2) 
r2

$$$$

     RDKit          3D

  9  8  0  0  0  0  0  0  0  0999 V2000
   -1.5470   -0.0755   -0.1976 C   0  0  0  0  0  0  0  0  0  0  0  0
   -0.2885    0.4507    0.1749 O   0  0  0  0  0  0  0  0  0  0  0  0
   -0.1502    1.7216   -0.3294 N   0  0  0  0  0  0  0  0  0  0  0  0
    0.9626    2.2353   -0.0219 C   0  0  0  0  0  0  0  0  0  0  0  0
   -1.6392   -0.1356   -1.2844 H   0  0  0  0  0  0  0  0  0  0  0  0
   -2.3597    0.5337    0.2044 H   0  0  0  0  0  0  0  0  0  0  0  0
   -1.5879   -1.0750    0.2318 H   0  0  0  0  0  0  0  0  0  0  0  0
    1.1497    3.2381   -0.3820 H   0  0  0  0  0  0  0  0  0  0  0  0
    1.7060    1.7101    0.5739 H   0  0  0  0  0  0  0  0  0  0  0  0
  1  2  1  0
  1  5  1  0
  1  6  1  0
  1  7  1  0
  2  3  1  0
  3  4  2  3
  4  8  1  0
  4  9  1  0
M  END
>  <reaction>  (3) 
rmg_rxn_15566

>  <mol_properties>  (3) 
{"0": {"label": "a_hydrogen", "atom_type": "H0"}, "1": {"label": "acceptor", "atom_type": "Cs"}}

>  <type>  (3) 
r2h

$$$$

     RDKit          3D

 13 11  0  0  0  0  0  0  0  0999 V2000
   -0.3964   -1.7092   -1.5668 N   0  0  0  0  0  2  0  0  0  0  0  0
    0.9222   -1.4741   -1.5103 N   0  0  0  0  0  0  0  0  0  0  0  0
   -0.8869   -0.6516   -1.2746 H   0  0  0  0  0  0  0  0  0  0  0  0
    1.4812   -2.3135   -1.4763 H   0  0  0  0  0  0  0  0  0  0  0  0
    1.2423   -0.7217   -0.9078 H   0  0  0  0  0  0  0  0  0  0  0  0
   -1.1864    0.6677   -0.8791 C   0  0  0  0  0  3  0  0  0  0  0  0
   -0.8944    0.8408    0.4642 O   0  0  0  0  0  0  0  0  0  0  0  0
    0.4655    0.7980    0.6812 N   0  0  0  0  0  0  0  0  0  0  0  0
    0.7554    0.9935    1.8953 C   0  0  0  0  0  0  0  0  0  0  0  0
   -2.2596    0.7635   -1.0108 H   0  0  0  0  0  0  0  0  0  0  0  0
   -0.5785    1.2840   -1.5410 H   0  0  0  0  0  0  0  0  0  0  0  0
    1.8060    0.9741    2.1521 H   0  0  0  0  0  0  0  0  0  0  0  0
   -0.0014    1.1737    2.6546 H   0  0  0  0  0  0  0  0  0  0  0  0
  1  2  1  0
  1  3  1  0
  2  4  1  0
  2  5  1  0
  6  7  1  0
  6 10  1  0
  6 11  1  0
  7  8  1  0
  8  9  2  3
  9 12  1  0
  9 13  1  0
M  RAD  2   1   2   6   2
M  END
>  <reaction>  (4) 
rmg_rxn_15566

>  <mol_properties>  (4) 
{"0": {"label": "*1", "atom_type": "N3s"}, "1": {"label": "*0", "atom_type": "N3s"}, "2": {"label": "*2", "atom_type": "H0"}, "5": {"label": "*3", "atom_type": "Cs"}, "6": {"label": "*4", "atom_type": "O2s"}}

>  <type>  (4) 
ts

$$$$

     RDKit          3D

 13 11  0  0  0  0  0  0  0  0999 V2000
    1.7540   -0.0347    0.6001 N   0  0  0  0  0  1  0  0  0  0  0  0
    1.9788   -0.4703   -0.5322 N   0  0  0  0  0  0  0  0  0  0  0  0
    0.7907    0.7848    0.6999 H   0  0  0  0  0  0  0  0  0  0  0  0
    1.5743   -1.3569   -0.8874 H   0  0  0  0  0  0  0  0  0  0  0  0
    2.5127    0.0586   -1.2485 H   0  0  0  0  0  0  0  0  0  0  0  0
   -0.2957    1.3732    0.4681 C   0  0  0  0  0  0  0  0  0  0  0  0
   -0.9473    0.7463   -0.5944 O   0  0  0  0  0  0  0  0  0  0  0  0
   -1.4186   -0.5186   -0.4586 N   0  0  0  0  0  0  0  0  0  0  0  0
   -1.2688   -1.1881    0.5971 C   0  0  0  0  0  0  0  0  0  0  0  0
   -0.0565    2.3769    0.1341 H   0  0  0  0  0  0  0  0  0  0  0  0
   -0.8625    1.3669    1.3993 H   0  0  0  0  0  0  0  0  0  0  0  0
   -1.6863   -2.1804    0.5756 H   0  0  0  0  0  0  0  0  0  0  0  0
   -0.7518   -0.8771    1.4998 H   0  0  0  0  0  0  0  0  0  0  0  0
  1  2  1  0
  2  4  1  0
  2  5  1  0
  3  6  1  0
  6  7  1  0
  6 10  1  0
  6 11  1  0
  7  8  1  0
  8  9  2  3
  9 12  1  0
  9 13  1  0
M  RAD  1   1   3
M  END
>  <reaction>  (5) 
rmg_rxn_15566

>  <mol_properties>  (5) 
{"0": {"label": "*1", "atom_type": "N3s"}, "1": {"label": "*0", "atom_type": "N3s"}, "2": {"label": "*2", "atom_type": "H0"}, "5": {"label": "*3", "atom_type": "Cs"}, "6": {"label": "*4", "atom_type": "O2s"}}

>  <type>  (5) 
unop_1

>  <geom_source>  (5) 
crest_best.xyz

$$$$

     RDKit          3D

 13 11  0  0  0  0  0  0  0  0999 V2000
    0.6561   -1.9911   -1.0369 N   0  0  0  0  0  2  0  0  0  0  0  0
    0.6561   -1.9911   -2.3779 N   0  0  0  0  0  0  0  0  0  0  0  0
    0.6561   -0.8153   -0.6967 H   0  0  0  0  0  0  0  0  0  0  0  0
    0.8440   -2.8911   -2.7868 H   0  0  0  0  0  0  0  0  0  0  0  0
    1.0180   -1.2027   -2.8954 H   0  0  0  0  0  0  0  0  0  0  0  0
    0.6561    0.4395   -0.3336 C   0  0  0  0  0  3  0  0  0  0  0  0
   -0.5227    0.6186    0.4267 O   0  0  0  0  0  0  0  0  0  0  0  0
   -0.2729    1.4726    1.4742 N   0  0  0  0  0  0  0  0  0  0  0  0
   -1.3000    1.6643    2.1849 C   0  0  0  0  0  0  0  0  0  0  0  0
    0.9997    1.3886   -0.7511 H   0  0  0  0  0  0  0  0  0  0  0  0
    1.4499   -0.0005    0.2742 H   0  0  0  0  0  0  0  0  0  0  0  0
   -1.1862    2.3268    3.0326 H   0  0  0  0  0  0  0  0  0  0  0  0
   -2.2576    1.1951    1.9698 H   0  0  0  0  0  0  0  0  0  0  0  0
  1  2  1  0
  1  3  1  0
  2  4  1  0
  2  5  1  0
  6  7  1  0
  6 10  1  0
  6 11  1  0
  7  8  1  0
  8  9  2  3
  9 12  1  0
  9 13  1  0
M  RAD  2   1   2   6   2
M  END
>  <reaction>  (6) 
rmg_rxn_15566

>  <mol_properties>  (6) 
{"0": {"label": "*1", "atom_type": "N3s"}, "1": {"label": "*0", "atom_type": "N3s"}, "2": {"label": "*2", "atom_type": "H0"}, "5": {"label": "*3", "atom_type": "Cs"}, "6": {"label": "*4", "atom_type": "O2s"}}

>  <type>  (6) 
unop_2

>  <geom_source>  (6) 
Heuristics

$$$$

     RDKit          3D

 13 11  0  0  0  0  0  0  0  0999 V2000
    0.5601   -2.4403    0.2835 N   0  0  0  0  0  2  0  0  0  0  0  0
    0.5601   -2.4403   -1.0574 N   0  0  0  0  0  0  0  0  0  0  0  0
    0.5601   -1.2645    0.6238 H   0  0  0  0  0  0  0  0  0  0  0  0
    0.7480   -3.3403   -1.4663 H   0  0  0  0  0  0  0  0  0  0  0  0
    0.9221   -1.6519   -1.5749 H   0  0  0  0  0  0  0  0  0  0  0  0
    0.5601   -0.0096    0.9869 C   0  0  0  0  0  3  0  0  0  0  0  0
   -0.1205    0.6863   -0.0388 O   0  0  0  0  0  0  0  0  0  0  0  0
   -0.5330    1.9114    0.4276 N   0  0  0  0  0  0  0  0  0  0  0  0
   -1.1483    2.5726   -0.4561 C   0  0  0  0  0  0  0  0  0  0  0  0
    1.4466    0.5404    1.3105 H   0  0  0  0  0  0  0  0  0  0  0  0
   -0.0954   -0.1819    1.8435 H   0  0  0  0  0  0  0  0  0  0  0  0
   -1.5069    3.5515   -0.1673 H   0  0  0  0  0  0  0  0  0  0  0  0
   -1.3175    2.1921   -1.4612 H   0  0  0  0  0  0  0  0  0  0  0  0
  1  2  1  0
  1  3  1  0
  2  4  1  0
  2  5  1  0
  6  7  1  0
  6 10  1  0
  6 11  1  0
  7  8  1  0
  8  9  2  3
  9 12  1  0
  9 13  1  0
M  RAD  2   1   2   6   2
M  END
>  <reaction>  (7) 
rmg_rxn_15566

>  <mol_properties>  (7) 
{"0": {"label": "*1", "atom_type": "N3s"}, "1": {"label": "*0", "atom_type": "N3s"}, "2": {"label": "*2", "atom_type": "H0"}, "5": {"label": "*3", "atom_type": "Cs"}, "6": {"label": "*4", "atom_type": "O2s"}}

>  <type>  (7) 
unop_3

>  <geom_source>  (7) 
Heuristics

$$$$

     RDKit          3D

 13 11  0  0  0  0  0  0  0  0999 V2000
    0.2828   -1.9799   -1.2336 N   0  0  0  0  0  2  0  0  0  0  0  0
    0.2828   -1.9799   -2.5746 N   0  0  0  0  0  0  0  0  0  0  0  0
    0.2828   -0.8042   -0.8934 H   0  0  0  0  0  0  0  0  0  0  0  0
    0.4707   -2.8799   -2.9835 H   0  0  0  0  0  0  0  0  0  0  0  0
    0.6447   -1.1915   -3.0921 H   0  0  0  0  0  0  0  0  0  0  0  0
    0.2828    0.4507   -0.5303 C   0  0  0  0  0  3  0  0  0  0  0  0
   -0.3978    0.4913    0.7086 O   0  0  0  0  0  0  0  0  0  0  0  0
    0.0291    1.5763    1.4362 N   0  0  0  0  0  0  0  0  0  0  0  0
   -0.5526    1.6554    2.5552 C   0  0  0  0  0  0  0  0  0  0  0  0
    0.0782    1.3484   -1.1180 H   0  0  0  0  0  0  0  0  0  0  0  0
    1.3601    0.3498   -0.3811 H   0  0  0  0  0  0  0  0  0  0  0  0
   -0.2715    2.4850    3.1901 H   0  0  0  0  0  0  0  0  0  0  0  0
   -1.3003    0.9348    2.8794 H   0  0  0  0  0  0  0  0  0  0  0  0
  1  2  1  0
  1  3  1  0
  2  4  1  0
  2  5  1  0
  6  7  1  0
  6 10  1  0
  6 11  1  0
  7  8  1  0
  8  9  2  3
  9 12  1  0
  9 13  1  0
M  RAD  2   1   2   6   2
M  END
>  <reaction>  (8) 
rmg_rxn_15566

>  <mol_properties>  (8) 
{"0": {"label": "*1", "atom_type": "N3s"}, "1": {"label": "*0", "atom_type": "N3s"}, "2": {"label": "*2", "atom_type": "H0"}, "5": {"label": "*3", "atom_type": "Cs"}, "6": {"label": "*4", "atom_type": "O2s"}}

>  <type>  (8) 
unop_4

>  <geom_source>  (8) 
Heuristics

$$$$

     RDKit          3D

 13 11  0  0  0  0  0  0  0  0999 V2000
   -0.9062   -2.2760   -0.1377 N   0  0  0  0  0  2  0  0  0  0  0  0
   -0.9062   -2.2760   -1.4787 N   0  0  0  0  0  0  0  0  0  0  0  0
   -0.9062   -1.1002    0.2025 H   0  0  0  0  0  0  0  0  0  0  0  0
   -0.7182   -3.1760   -1.8876 H   0  0  0  0  0  0  0  0  0  0  0  0
   -0.5442   -1.4876   -1.9962 H   0  0  0  0  0  0  0  0  0  0  0  0
   -0.9062    0.1546    0.5657 C   0  0  0  0  0  3  0  0  0  0  0  0
    0.2726    0.7121    0.0185 O   0  0  0  0  0  0  0  0  0  0  0  0
    0.7422    1.7048    0.8447 N   0  0  0  0  0  0  0  0  0  0  0  0
    1.7980    2.2349    0.3964 C   0  0  0  0  0  0  0  0  0  0  0  0
   -0.7105   -0.2898    1.5441 H   0  0  0  0  0  0  0  0  0  0  0  0
   -1.6893    0.9105    0.6582 H   0  0  0  0  0  0  0  0  0  0  0  0
    2.2325    3.0277    0.9905 H   0  0  0  0  0  0  0  0  0  0  0  0
    2.2599    1.9223   -0.5377 H   0  0  0  0  0  0  0  0  0  0  0  0
  1  2  1  0
  1  3  1  0
  2  4  1  0
  2  5  1  0
  6  7  1  0
  6 10  1  0
  6 11  1  0
  7  8  1  0
  8  9  2  3
  9 12  1  0
  9 13  1  0
M  RAD  2   1   2   6   2
M  END
>  <reaction>  (9) 
rmg_rxn_15566

>  <mol_properties>  (9) 
{"0": {"label": "*1", "atom_type": "N3s"}, "1": {"label": "*0", "atom_type": "N3s"}, "2": {"label": "*2", "atom_type": "H0"}, "5": {"label": "*3", "atom_type": "Cs"}, "6": {"label": "*4", "atom_type": "O2s"}}

>  <type>  (9) 
unop_5

>  <geom_source>  (9) 
Heuristics

$$$$

     RDKit          3D

 13 11  0  0  0  0  0  0  0  0999 V2000
   -0.0062   -2.0158   -1.2600 N   0  0  0  0  0  2  0  0  0  0  0  0
   -0.0062   -2.0158   -2.6010 N   0  0  0  0  0  0  0  0  0  0  0  0
   -0.0062   -0.8401   -0.9197 H   0  0  0  0  0  0  0  0  0  0  0  0
    0.1817   -2.9158   -3.0098 H   0  0  0  0  0  0  0  0  0  0  0  0
    0.3558   -1.2274   -3.1184 H   0  0  0  0  0  0  0  0  0  0  0  0
   -0.0062    0.4148   -0.5566 C   0  0  0  0  0  3  0  0  0  0  0  0
   -0.0062    0.4047    0.8574 O   0  0  0  0  0  0  0  0  0  0  0  0
   -0.0062    1.6953    1.3298 N   0  0  0  0  0  0  0  0  0  0  0  0
   -0.0062    1.7381    2.5926 C   0  0  0  0  0  0  0  0  0  0  0  0
   -0.8984    0.9122   -0.9438 H   0  0  0  0  0  0  0  0  0  0  0  0
    0.8859    0.9122   -0.9438 H   0  0  0  0  0  0  0  0  0  0  0  0
   -0.0062    2.7210    3.0445 H   0  0  0  0  0  0  0  0  0  0  0  0
   -0.0062    0.8420    3.2095 H   0  0  0  0  0  0  0  0  0  0  0  0
  1  2  1  0
  1  3  1  0
  2  4  1  0
  2  5  1  0
  6  7  1  0
  6 10  1  0
  6 11  1  0
  7  8  1  0
  8  9  2  3
  9 12  1  0
  9 13  1  0
M  RAD  2   1   2   6   2
M  END
>  <reaction>  (10) 
rmg_rxn_15566

>  <mol_properties>  (10) 
{"0": {"label": "*1", "atom_type": "N3s"}, "1": {"label": "*0", "atom_type": "N3s"}, "2": {"label": "*2", "atom_type": "H0"}, "5": {"label": "*3", "atom_type": "Cs"}, "6": {"label": "*4", "atom_type": "O2s"}}

>  <type>  (10) 
unop_6

>  <geom_source>  (10) 
Heuristics

$$$$

     RDKit          3D

 13 11  0  0  0  0  0  0  0  0999 V2000
   -0.9228   -2.1038   -0.6344 N   0  0  0  0  0  2  0  0  0  0  0  0
   -0.9228   -2.1038   -1.9754 N   0  0  0  0  0  0  0  0  0  0  0  0
   -0.9228   -0.9280   -0.2942 H   0  0  0  0  0  0  0  0  0  0  0  0
   -0.7349   -3.0037   -2.3843 H   0  0  0  0  0  0  0  0  0  0  0  0
   -0.5608   -1.3153   -2.4929 H   0  0  0  0  0  0  0  0  0  0  0  0
   -0.9228    0.3269    0.0689 C   0  0  0  0  0  3  0  0  0  0  0  0
    0.4383    0.6952    0.1755 O   0  0  0  0  0  0  0  0  0  0  0  0
    0.6095    1.5283    1.2550 N   0  0  0  0  0  0  0  0  0  0  0  0
    1.8138    1.8856    1.3919 C   0  0  0  0  0  0  0  0  0  0  0  0
   -1.2533   -0.2100    0.9609 H   0  0  0  0  0  0  0  0  0  0  0  0
   -1.5544    1.2050   -0.0834 H   0  0  0  0  0  0  0  0  0  0  0  0
    2.0327    2.5444    2.2215 H   0  0  0  0  0  0  0  0  0  0  0  0
    2.6029    1.5569    0.7190 H   0  0  0  0  0  0  0  0  0  0  0  0
  1  2  1  0
  1  3  1  0
  2  4  1  0
  2  5  1  0
  6  7  1  0
  6 10  1  0
  6 11  1  0
  7  8  1  0
  8  9  2  3
  9 12  1  0
  9 13  1  0
M  RAD  2   1   2   6   2
M  END
>  <reaction>  (11) 
rmg_rxn_15566

>  <mol_properties>  (11) 
{"0": {"label": "*1", "atom_type": "N3s"}, "1": {"label": "*0", "atom_type": "N3s"}, "2": {"label": "*2", "atom_type": "H0"}, "5": {"label": "*3", "atom_type": "Cs"}, "6": {"label": "*4", "atom_type": "O2s"}}

>  <type>  (11) 
unop_7

>  <geom_source>  (11) 
Heuristics

$$$$

     RDKit          3D

 13 11  0  0  0  0  0  0  0  0999 V2000
    1.7552   -0.0346   -0.5999 N   0  0  0  0  0  1  0  0  0  0  0  0
    1.9787   -0.4719    0.5319 N   0  0  0  0  0  0  0  0  0  0  0  0
    0.7915    0.7844   -0.6999 H   0  0  0  0  0  0  0  0  0  0  0  0
    2.5111    0.0563    1.2498 H   0  0  0  0  0  0  0  0  0  0  0  0
    1.5736   -1.3589    0.8853 H   0  0  0  0  0  0  0  0  0  0  0  0
   -0.2948    1.3731   -0.4679 C   0  0  0  0  0  0  0  0  0  0  0  0
   -0.9462    0.7463    0.5947 O   0  0  0  0  0  0  0  0  0  0  0  0
   -1.4194   -0.5178    0.4586 N   0  0  0  0  0  0  0  0  0  0  0  0
   -1.2710   -1.1871   -0.5974 C   0  0  0  0  0  0  0  0  0  0  0  0
   -0.8617    1.3668   -1.3990 H   0  0  0  0  0  0  0  0  0  0  0  0
   -0.0553    2.3767   -0.1340 H   0  0  0  0  0  0  0  0  0  0  0  0
   -1.6899   -2.1789   -0.5761 H   0  0  0  0  0  0  0  0  0  0  0  0
   -0.7538   -0.8766   -1.5001 H   0  0  0  0  0  0  0  0  0  0  0  0
  1  2  1  0
  2  4  1  0
  2  5  1  0
  3  6  1  0
  6  7  1  0
  6 10  1  0
  6 11  1  0
  7  8  1  0
  8  9  2  3
  9 12  1  0
  9 13  1  0
M  RAD  1   1   3
M  END
>  <reaction>  (12) 
rmg_rxn_15566

>  <mol_properties>  (12) 
{"0": {"label": "*1", "atom_type": "N3s"}, "1": {"label": "*0", "atom_type": "N3s"}, "2": {"label": "*2", "atom_type": "H0"}, "5": {"label": "*3", "atom_type": "Cs"}, "6": {"label": "*4", "atom_type": "O2s"}}

>  <type>  (12) 
unop_8

>  <geom_source>  (12) 
Heuristics

$$$$

     RDKit          3D

 13 11  0  0  0  0  0  0  0  0999 V2000
   -0.6685   -1.9911   -1.0369 N   0  0  0  0  0  2  0  0  0  0  0  0
   -0.6685   -1.9911   -2.3779 N   0  0  0  0  0  0  0  0  0  0  0  0
   -0.6685   -0.8153   -0.6967 H   0  0  0  0  0  0  0  0  0  0  0  0
   -0.4806   -2.8911   -2.7868 H   0  0  0  0  0  0  0  0  0  0  0  0
   -0.3065   -1.2027   -2.8954 H   0  0  0  0  0  0  0  0  0  0  0  0
   -0.6685    0.4396   -0.3336 C   0  0  0  0  0  3  0  0  0  0  0  0
    0.5102    0.6186    0.4267 O   0  0  0  0  0  0  0  0  0  0  0  0
    0.2605    1.4726    1.4742 N   0  0  0  0  0  0  0  0  0  0  0  0
    1.2875    1.6643    2.1849 C   0  0  0  0  0  0  0  0  0  0  0  0
   -1.4623   -0.0005    0.2742 H   0  0  0  0  0  0  0  0  0  0  0  0
   -1.0121    1.3887   -0.7511 H   0  0  0  0  0  0  0  0  0  0  0  0
    1.1737    2.3268    3.0326 H   0  0  0  0  0  0  0  0  0  0  0  0
    2.2452    1.1952    1.9698 H   0  0  0  0  0  0  0  0  0  0  0  0
  1  2  1  0
  1  3  1  0
  2  4  1  0
  2  5  1  0
  6  7  1  0
  6 10  1  0
  6 11  1  0
  7  8  1  0
  8  9  2  3
  9 12  1  0
  9 13  1  0
M  RAD  2   1   2   6   2
M  END
>  <reaction>  (13) 
rmg_rxn_15566

>  <mol_properties>  (13) 
{"0": {"label": "*1", "atom_type": "N3s"}, "1": {"label": "*0", "atom_type": "N3s"}, "2": {"label": "*2", "atom_type": "H0"}, "5": {"label": "*3", "atom_type": "Cs"}, "6": {"label": "*4", "atom_type": "O2s"}}

>  <type>  (13) 
unop_9

>  <geom_source>  (13) 
Heuristics

$$$$

     RDKit          3D

 13 11  0  0  0  0  0  0  0  0999 V2000
    0.9104   -2.1038   -0.6344 N   0  0  0  0  0  2  0  0  0  0  0  0
    0.9104   -2.1038   -1.9754 N   0  0  0  0  0  0  0  0  0  0  0  0
    0.9104   -0.9280   -0.2942 H   0  0  0  0  0  0  0  0  0  0  0  0
    1.0983   -3.0037   -2.3843 H   0  0  0  0  0  0  0  0  0  0  0  0
    1.2723   -1.3154   -2.4929 H   0  0  0  0  0  0  0  0  0  0  0  0
    0.9104    0.3269    0.0689 C   0  0  0  0  0  3  0  0  0  0  0  0
   -0.4507    0.6952    0.1755 O   0  0  0  0  0  0  0  0  0  0  0  0
   -0.6220    1.5283    1.2550 N   0  0  0  0  0  0  0  0  0  0  0  0
   -1.8263    1.8856    1.3919 C   0  0  0  0  0  0  0  0  0  0  0  0
    1.5419    1.2050   -0.0834 H   0  0  0  0  0  0  0  0  0  0  0  0
    1.2408   -0.2100    0.9609 H   0  0  0  0  0  0  0  0  0  0  0  0
   -2.0452    2.5445    2.2215 H   0  0  0  0  0  0  0  0  0  0  0  0
   -2.6153    1.5568    0.7190 H   0  0  0  0  0  0  0  0  0  0  0  0
  1  2  1  0
  1  3  1  0
  2  4  1  0
  2  5  1  0
  6  7  1  0
  6 10  1  0
  6 11  1  0
  7  8  1  0
  8  9  2  3
  9 12  1  0
  9 13  1  0
M  RAD  2   1   2   6   2
M  END
>  <reaction>  (14) 
rmg_rxn_15566

>  <mol_properties>  (14) 
{"0": {"label": "*1", "atom_type": "N3s"}, "1": {"label": "*0", "atom_type": "N3s"}, "2": {"label": "*2", "atom_type": "H0"}, "5": {"label": "*3", "atom_type": "Cs"}, "6": {"label": "*4", "atom_type": "O2s"}}

>  <type>  (14) 
unop_10

>  <geom_source>  (14) 
Heuristics

$$$$

     RDKit          3D

 13 11  0  0  0  0  0  0  0  0999 V2000
    1.7540   -0.0347    0.6001 N   0  0  0  0  0  1  0  0  0  0  0  0
    1.9788   -0.4703   -0.5322 N   0  0  0  0  0  0  0  0  0  0  0  0
    0.7907    0.7848    0.6999 H   0  0  0  0  0  0  0  0  0  0  0  0
    1.5743   -1.3569   -0.8874 H   0  0  0  0  0  0  0  0  0  0  0  0
    2.5127    0.0586   -1.2485 H   0  0  0  0  0  0  0  0  0  0  0  0
   -0.2957    1.3732    0.4681 C   0  0  0  0  0  0  0  0  0  0  0  0
   -0.9473    0.7463   -0.5944 O   0  0  0  0  0  0  0  0  0  0  0  0
   -1.4186   -0.5186   -0.4586 N   0  0  0  0  0  0  0  0  0  0  0  0
   -1.2688   -1.1881    0.5971 C   0  0  0  0  0  0  0  0  0  0  0  0
   -0.0565    2.3769    0.1341 H   0  0  0  0  0  0  0  0  0  0  0  0
   -0.8625    1.3669    1.3993 H   0  0  0  0  0  0  0  0  0  0  0  0
   -1.6863   -2.1804    0.5756 H   0  0  0  0  0  0  0  0  0  0  0  0
   -0.7518   -0.8771    1.4998 H   0  0  0  0  0  0  0  0  0  0  0  0
  1  2  1  0
  2  4  1  0
  2  5  1  0
  3  6  1  0
  6  7  1  0
  6 10  1  0
  6 11  1  0
  7  8  1  0
  8  9  2  3
  9 12  1  0
  9 13  1  0
M  RAD  1   1   3
M  END
>  <reaction>  (15) 
rmg_rxn_15566

>  <mol_properties>  (15) 
{"0": {"label": "*1", "atom_type": "N3s"}, "1": {"label": "*0", "atom_type": "N3s"}, "2": {"label": "*2", "atom_type": "H0"}, "5": {"label": "*3", "atom_type": "Cs"}, "6": {"label": "*4", "atom_type": "O2s"}}

>  <type>  (15) 
unop_11

>  <geom_source>  (15) 
Heuristics

$$$$

     RDKit          3D

 13 11  0  0  0  0  0  0  0  0999 V2000
   -0.5725   -2.4403    0.2835 N   0  0  0  0  0  2  0  0  0  0  0  0
   -0.5725   -2.4403   -1.0574 N   0  0  0  0  0  0  0  0  0  0  0  0
   -0.5725   -1.2645    0.6238 H   0  0  0  0  0  0  0  0  0  0  0  0
   -0.3846   -3.3403   -1.4663 H   0  0  0  0  0  0  0  0  0  0  0  0
   -0.2106   -1.6519   -1.5749 H   0  0  0  0  0  0  0  0  0  0  0  0
   -0.5725   -0.0096    0.9869 C   0  0  0  0  0  3  0  0  0  0  0  0
    0.1080    0.6863   -0.0388 O   0  0  0  0  0  0  0  0  0  0  0  0
    0.5206    1.9114    0.4276 N   0  0  0  0  0  0  0  0  0  0  0  0
    1.1358    2.5726   -0.4561 C   0  0  0  0  0  0  0  0  0  0  0  0
    0.0829   -0.1819    1.8435 H   0  0  0  0  0  0  0  0  0  0  0  0
   -1.4591    0.5404    1.3105 H   0  0  0  0  0  0  0  0  0  0  0  0
    1.4945    3.5515   -0.1673 H   0  0  0  0  0  0  0  0  0  0  0  0
    1.3050    2.1921   -1.4612 H   0  0  0  0  0  0  0  0  0  0  0  0
  1  2  1  0
  1  3  1  0
  2  4  1  0
  2  5  1  0
  6  7  1  0
  6 10  1  0
  6 11  1  0
  7  8  1  0
  8  9  2  3
  9 12  1  0
  9 13  1  0
M  RAD  2   1   2   6   2
M  END
>  <reaction>  (16) 
rmg_rxn_15566

>  <mol_properties>  (16) 
{"0": {"label": "*1", "atom_type": "N3s"}, "1": {"label": "*0", "atom_type": "N3s"}, "2": {"label": "*2", "atom_type": "H0"}, "5": {"label": "*3", "atom_type": "Cs"}, "6": {"label": "*4", "atom_type": "O2s"}}

>  <type>  (16) 
unop_12

>  <geom_source>  (16) 
Heuristics

$$$$

     RDKit          3D

 13 11  0  0  0  0  0  0  0  0999 V2000
    0.8937   -2.2760   -0.1377 N   0  0  0  0  0  2  0  0  0  0  0  0
    0.8937   -2.2760   -1.4787 N   0  0  0  0  0  0  0  0  0  0  0  0
    0.8937   -1.1002    0.2025 H   0  0  0  0  0  0  0  0  0  0  0  0
    1.0817   -3.1760   -1.8876 H   0  0  0  0  0  0  0  0  0  0  0  0
    1.2557   -1.4876   -1.9962 H   0  0  0  0  0  0  0  0  0  0  0  0
    0.8937    0.1546    0.5657 C   0  0  0  0  0  3  0  0  0  0  0  0
   -0.2850    0.7121    0.0185 O   0  0  0  0  0  0  0  0  0  0  0  0
   -0.7547    1.7048    0.8447 N   0  0  0  0  0  0  0  0  0  0  0  0
   -1.8105    2.2349    0.3964 C   0  0  0  0  0  0  0  0  0  0  0  0
    1.6769    0.9105    0.6582 H   0  0  0  0  0  0  0  0  0  0  0  0
    0.6980   -0.2899    1.5441 H   0  0  0  0  0  0  0  0  0  0  0  0
   -2.2449    3.0277    0.9905 H   0  0  0  0  0  0  0  0  0  0  0  0
   -2.2724    1.9222   -0.5377 H   0  0  0  0  0  0  0  0  0  0  0  0
  1  2  1  0
  1  3  1  0
  2  4  1  0
  2  5  1  0
  6  7  1  0
  6 10  1  0
  6 11  1  0
  7  8  1  0
  8  9  2  3
  9 12  1  0
  9 13  1  0
M  RAD  2   1   2   6   2
M  END
>  <reaction>  (17) 
rmg_rxn_15566

>  <mol_properties>  (17) 
{"0": {"label": "*1", "atom_type": "N3s"}, "1": {"label": "*0", "atom_type": "N3s"}, "2": {"label": "*2", "atom_type": "H0"}, "5": {"label": "*3", "atom_type": "Cs"}, "6": {"label": "*4", "atom_type": "O2s"}}

>  <type>  (17) 
unop_13

>  <geom_source>  (17) 
Heuristics

$$$$

     RDKit          3D

 13 11  0  0  0  0  0  0  0  0999 V2000
   -0.2952   -1.9799   -1.2336 N   0  0  0  0  0  2  0  0  0  0  0  0
   -0.2952   -1.9799   -2.5746 N   0  0  0  0  0  0  0  0  0  0  0  0
   -0.2952   -0.8042   -0.8934 H   0  0  0  0  0  0  0  0  0  0  0  0
   -0.1072   -2.8799   -2.9835 H   0  0  0  0  0  0  0  0  0  0  0  0
    0.0668   -1.1915   -3.0921 H   0  0  0  0  0  0  0  0  0  0  0  0
   -0.2952    0.4507   -0.5303 C   0  0  0  0  0  3  0  0  0  0  0  0
    0.3854    0.4913    0.7086 O   0  0  0  0  0  0  0  0  0  0  0  0
   -0.0415    1.5763    1.4362 N   0  0  0  0  0  0  0  0  0  0  0  0
    0.5401    1.6554    2.5552 C   0  0  0  0  0  0  0  0  0  0  0  0
   -1.3726    0.3499   -0.3811 H   0  0  0  0  0  0  0  0  0  0  0  0
   -0.0906    1.3484   -1.1180 H   0  0  0  0  0  0  0  0  0  0  0  0
    0.2590    2.4849    3.1901 H   0  0  0  0  0  0  0  0  0  0  0  0
    1.2879    0.9348    2.8794 H   0  0  0  0  0  0  0  0  0  0  0  0
  1  2  1  0
  1  3  1  0
  2  4  1  0
  2  5  1  0
  6  7  1  0
  6 10  1  0
  6 11  1  0
  7  8  1  0
  8  9  2  3
  9 12  1  0
  9 13  1  0
M  RAD  2   1   2   6   2
M  END
>  <reaction>  (18) 
rmg_rxn_15566

>  <mol_properties>  (18) 
{"0": {"label": "*1", "atom_type": "N3s"}, "1": {"label": "*0", "atom_type": "N3s"}, "2": {"label": "*2", "atom_type": "H0"}, "5": {"label": "*3", "atom_type": "Cs"}, "6": {"label": "*4", "atom_type": "O2s"}}

>  <type>  (18) 
unop_14

>  <geom_source>  (18) 
Heuristics

$$$$

     RDKit          3D

 13 11  0  0  0  0  0  0  0  0999 V2000
   -0.0062   -2.5114    0.4526 N   0  0  0  0  0  2  0  0  0  0  0  0
   -0.0062   -2.5114   -0.8884 N   0  0  0  0  0  0  0  0  0  0  0  0
   -0.0062   -1.3356    0.7928 H   0  0  0  0  0  0  0  0  0  0  0  0
    0.1817   -3.4114   -1.2973 H   0  0  0  0  0  0  0  0  0  0  0  0
    0.3558   -1.7230   -1.4059 H   0  0  0  0  0  0  0  0  0  0  0  0
   -0.0062   -0.0807    1.1559 C   0  0  0  0  0  3  0  0  0  0  0  0
   -0.0062    0.6659   -0.0450 O   0  0  0  0  0  0  0  0  0  0  0  0
   -0.0062    2.0093    0.2449 N   0  0  0  0  0  0  0  0  0  0  0  0
   -0.0062    2.7198   -0.8000 C   0  0  0  0  0  0  0  0  0  0  0  0
    0.8859    0.1330    1.7489 H   0  0  0  0  0  0  0  0  0  0  0  0
   -0.8984    0.1330    1.7489 H   0  0  0  0  0  0  0  0  0  0  0  0
   -0.0062    3.7921   -0.6572 H   0  0  0  0  0  0  0  0  0  0  0  0
   -0.0063    2.2916   -1.8001 H   0  0  0  0  0  0  0  0  0  0  0  0
  1  2  1  0
  1  3  1  0
  2  4  1  0
  2  5  1  0
  6  7  1  0
  6 10  1  0
  6 11  1  0
  7  8  1  0
  8  9  2  3
  9 12  1  0
  9 13  1  0
M  RAD  2   1   2   6   2
M  END
>  <reaction>  (19) 
rmg_rxn_15566

>  <mol_properties>  (19) 
{"0": {"label": "*1", "atom_type": "N3s"}, "1": {"label": "*0", "atom_type": "N3s"}, "2": {"label": "*2", "atom_type": "H0"}, "5": {"label": "*3", "atom_type": "Cs"}, "6": {"label": "*4", "atom_type": "O2s"}}

>  <type>  (19) 
unop_15

>  <geom_source>  (19) 
Heuristics

$$$$

     RDKit          3D

 13 11  0  0  0  0  0  0  0  0999 V2000
    0.5601   -2.4403    0.2836 N   0  0  0  0  0  2  0  0  0  0  0  0
    0.5601   -2.4403   -1.0574 N   0  0  0  0  0  0  0  0  0  0  0  0
    0.5601   -1.2645    0.6238 H   0  0  0  0  0  0  0  0  0  0  0  0
    0.7480   -3.3403   -1.4663 H   0  0  0  0  0  0  0  0  0  0  0  0
    0.9221   -1.6519   -1.5749 H   0  0  0  0  0  0  0  0  0  0  0  0
    0.5601   -0.0096    0.9869 C   0  0  0  0  0  3  0  0  0  0  0  0
   -0.1205    0.6863   -0.0388 O   0  0  0  0  0  0  0  0  0  0  0  0
   -0.5330    1.9114    0.4276 N   0  0  0  0  0  0  0  0  0  0  0  0
   -1.1483    2.5726   -0.4561 C   0  0  0  0  0  0  0  0  0  0  0  0
    1.4466    0.5404    1.3105 H   0  0  0  0  0  0  0  0  0  0  0  0
   -0.0954   -0.1819    1.8435 H   0  0  0  0  0  0  0  0  0  0  0  0
   -1.5069    3.5515   -0.1673 H   0  0  0  0  0  0  0  0  0  0  0  0
   -1.3175    2.1921   -1.4611 H   0  0  0  0  0  0  0  0  0  0  0  0
  1  2  1  0
  1  3  1  0
  2  4  1  0
  2  5  1  0
  6  7  1  0
  6 10  1  0
  6 11  1  0
  7  8  1  0
  8  9  2  3
  9 12  1  0
  9 13  1  0
M  RAD  2   1   2   6   2
M  END
>  <reaction>  (20) 
rmg_rxn_15566

>  <mol_properties>  (20) 
{"0": {"label": "*1", "atom_type": "N3s"}, "1": {"label": "*0", "atom_type": "N3s"}, "2": {"label": "*2", "atom_type": "H0"}, "5": {"label": "*3", "atom_type": "Cs"}, "6": {"label": "*4", "atom_type": "O2s"}}

>  <type>  (20) 
unop_16

>  <geom_source>  (20) 
gaussian_log

$$$$
