
     RDKit          3D

  9  8  0  0  0  0  0  0  0  0999 V2000
   -0.8818   -0.3578    0.1297 C   0  0  0  0  0  0  0  0  0  0  0  0
    0.6153   -0.3021   -0.1188 C   0  0  0  0  0  0  0  0  0  0  0  0
    1.5354   -1.7170    0.5545 S   0  0  0  0  0  0  0  0  0  0  0  0
   -1.1018   -0.3317    1.1984 H   0  0  0  0  0  0  0  0  0  0  0  0
   -1.3114   -1.2723   -0.2799 H   0  0  0  0  0  0  0  0  0  0  0  0
   -1.3767    0.4976   -0.3363 H   0  0  0  0  0  0  0  0  0  0  0  0
    1.0467    0.6194    0.2718 H   0  0  0  0  0  0  0  0  0  0  0  0
    0.8295   -0.3275   -1.1882 H   0  0  0  0  0  0  0  0  0  0  0  0
    1.2306   -1.5077    1.8423 H   0  0  0  0  0  0  0  0  0  0  0  0
  1  2  1  0
  1  4  1  0
  1  5  1  0
  1  6  1  0
  2  3  1  0
  2  7  1  0
  2  8  1  0
  3  9  1  0
M  END
>  <reaction>  (1) 
rmg_rxn_15491

>  <mol_properties>  (1) 
{"1": {"label": "donator", "atom_type": "Cs"}, "6": {"label": "d_hydrogen", "atom_type": "H0"}}

>  <type>  (1) 
r1h

$$$$

     RDKit          3D

  5  4  0  0  0  0  0  0  0  0999 V2000
    0.8934    0.3742    0.4948 O   0  0  0  0  0  0  0  0  0  0  0  0
    0.1582   -0.1610   -0.5904 N   0  0  0  0  0  0  0  0  0  0  0  0
   -1.0297   -0.3739   -0.4689 C   0  0  0  0  0  3  0  0  0  0  0  0
    1.7805    0.4382    0.1306 H   0  0  0  0  0  0  0  0  0  0  0  0
   -1.8023   -0.2775    0.2859 H   0  0  0  0  0  0  0  0  0  0  0  0
  1  2  1  0
  1  4  1  0
  2  3  2  3
  3  5  1  0
M  RAD  1   3   2
M  END
>  <reaction>  (2) 
rmg_rxn_15491

>  <mol_properties>  (2) 
{"2": {"label": "acceptor", "atom_type": "Cd"}}

>  <type>  (2) 
r2

$$$$

     RDKit          3D

  6  5  0  0  0  0  0  0  0  0999 V2000
    1.2314    0.0428    0.5088 O   0  0  0  0  0  0  0  0  0  0  0  0
    0.2987    0.2341   -0.4915 N   0  0  0  0  0  0  0  0  0  0  0  0
   -0.8599   -0.1122   -0.1290 C   0  0  0  0  0  0  0  0  0  0  0  0
    2.0507    0.3401    0.1082 H   0  0  0  0  0  0  0  0  0  0  0  0
   -1.0700   -0.5112    0.8610 H   0  0  0  0  0  0  0  0  0  0  0  0
   -1.6509    0.0064   -0.8574 H   0  0  0  0  0  0  0  0  0  0  0  0
  1  2  1  0
  1  4  1  0
  2  3  2  3
  3  5  1  0
  3  6  1  0
M  END
>  <reaction>  (3) 
rmg_rxn_15491

>  <mol_properties>  (3) 
{"2": {"label": "acceptor", "atom_type": "Cd"}, "5": {"label": "a_hydrogen", "atom_type": "H0"}}

>  <type>  (3) 
r2h

$$$$

     RDKit          3D

 14 12  0  0  0  0  0  0  0  0999 V2000
    2.7369   -1.9548    0.4134 O   0  0  0  0  0  0  0  0  0  0  0  0
    1.5420   -1.3988   -0.0686 N   0  0  0  0  0  0  0  0  0  0  0  0
    0.7977   -0.9358    0.8098 C   0  0  0  0  0  3  0  0  0  0  0  0
    3.1698   -2.2542   -0.3895 H   0  0  0  0  0  0  0  0  0  0  0  0
    0.9502   -0.9056    1.8885 H   0  0  0  0  0  0  0  0  0  0  0  0
   -1.0543    0.1442   -1.7866 C   0  0  0  0  0  0  0  0  0  0  0  0
   -1.4077    0.1384   -0.3197 C   0  0  0  0  0  0  0  0  0  0  0  0
   -1.7956    1.7101    0.4313 S   0  0  0  0  0  0  0  0  0  0  0  0
   -0.1901    0.7837   -1.9750 H   0  0  0  0  0  0  0  0  0  0  0  0
   -1.8881    0.5082   -2.3905 H   0  0  0  0  0  0  0  0  0  0  0  0
   -0.7968   -0.8649   -2.1124 H   0  0  0  0  0  0  0  0  0  0  0  0
   -0.4333   -0.3431    0.2735 H   0  0  0  0  0  0  0  0  0  0  0  0
   -2.2258   -0.5398   -0.0761 H   0  0  0  0  0  0  0  0  0  0  0  0
   -0.7253    2.3741   -0.0277 H   0  0  0  0  0  0  0  0  0  0  0  0
  1  2  1  0
  1  4  1  0
  2  3  2  3
  3  5  1  0
  6  7  1  0
  6  9  1  0
  6 10  1  0
  6 11  1  0
  7  8  1  0
  7 12  1  0
  7 13  1  0
  8 14  1  0
M  RAD  1   3   2
M  END
>  <reaction>  (4) 
rmg_rxn_15491

>  <mol_properties>  (4) 
{"1": {"label": "*4", "atom_type": "N3d"}, "2": {"label": "*3", "atom_type": "Cd"}, "6": {"label": "*1", "atom_type": "Cs"}, "7": {"label": "*0", "atom_type": "S2s"}, "11": {"label": "*2", "atom_type": "H0"}}

>  <type>  (4) 
ts

$$$$

     RDKit          3D

 14 12  0  0  0  0  0  0  0  0999 V2000
    3.3681    0.2526   -0.2618 O   0  0  0  0  0  0  0  0  0  0  0  0
    2.0012   -0.0794   -0.1918 N   0  0  0  0  0  0  0  0  0  0  0  0
    1.3018    0.3893    0.7178 C   0  0  0  0  0  0  0  0  0  0  0  0
    3.6938   -0.2246   -1.0375 H   0  0  0  0  0  0  0  0  0  0  0  0
    1.5845    1.0591    1.5209 H   0  0  0  0  0  0  0  0  0  0  0  0
   -1.0590   -1.7710   -0.1878 C   0  0  0  0  0  0  0  0  0  0  0  0
   -1.1782   -0.4751    0.5648 C   0  0  0  0  0  3  0  0  0  0  0  0
   -2.1765    0.7745   -0.2017 S   0  0  0  0  0  0  0  0  0  0  0  0
   -0.6289   -1.6014   -1.1738 H   0  0  0  0  0  0  0  0  0  0  0  0
   -2.0326   -2.2485   -0.3125 H   0  0  0  0  0  0  0  0  0  0  0  0
   -0.4095   -2.4518    0.3583 H   0  0  0  0  0  0  0  0  0  0  0  0
    0.0751    0.0029    0.6685 H   0  0  0  0  0  0  0  0  0  0  0  0
   -1.5215   -0.5865    1.5903 H   0  0  0  0  0  0  0  0  0  0  0  0
   -1.6586    0.6362   -1.4234 H   0  0  0  0  0  0  0  0  0  0  0  0
  1  2  1  0
  1  4  1  0
  2  3  2  3
  3  5  1  0
  3 12  1  0
  6  7  1  0
  6  9  1  0
  6 10  1  0
  6 11  1  0
  7  8  1  0
  7 13  1  0
  8 14  1  0
M  RAD  1   7   2
M  END
>  <reaction>  (5) 
rmg_rxn_15491

>  <mol_properties>  (5) 
{"1": {"label": "*4", "atom_type": "N3d"}, "2": {"label": "*3", "atom_type": "Cd"}, "6": {"label": "*1", "atom_type": "Cs"}, "7": {"label": "*0", "atom_type": "S2s"}, "11": {"label": "*2", "atom_type": "H0"}}

>  <type>  (5) 
unop_1

>  <geom_source>  (5) 
crest_best.xyz

$$$$

     RDKit          3D

 14 12  0  0  0  0  0  0  0  0999 V2000
    2.0537   -1.4638    1.9857 O   0  0  0  0  0  0  0  0  0  0  0  0
    1.6794   -0.7314    0.8764 N   0  0  0  0  0  0  0  0  0  0  0  0
    0.8672   -1.3636    0.1455 C   0  0  0  0  0  0  0  0  0  0  0  0
    2.6593   -0.8782    2.4443 H   0  0  0  0  0  0  0  0  0  0  0  0
    0.5198   -2.3662    0.3855 H   0  0  0  0  0  0  0  0  0  0  0  0
   -1.1492   -0.0099   -2.3180 C   0  0  0  0  0  0  0  0  0  0  0  0
   -1.1492   -0.0099   -0.7993 C   0  0  0  0  0  3  0  0  0  0  0  0
   -1.1492    1.6475   -0.0543 S   0  0  0  0  0  0  0  0  0  0  0  0
   -0.2426    0.4555   -2.7087 H   0  0  0  0  0  0  0  0  0  0  0  0
   -2.0052    0.5413   -2.7081 H   0  0  0  0  0  0  0  0  0  0  0  0
   -1.1923   -1.0332   -2.6983 H   0  0  0  0  0  0  0  0  0  0  0  0
   -0.1373   -0.6892   -0.3252 H   0  0  0  0  0  0  0  0  0  0  0  0
   -2.0568   -0.4769   -0.4142 H   0  0  0  0  0  0  0  0  0  0  0  0
    0.0256    2.0492   -0.5579 H   0  0  0  0  0  0  0  0  0  0  0  0
  1  2  1  0
  1  4  1  0
  2  3  2  3
  3  5  1  0
  3 12  1  0
  6  7  1  0
  6  9  1  0
  6 10  1  0
  6 11  1  0
  7  8  1  0
  7 13  1  0
  8 14  1  0
M  RAD  1   7   2
M  END
>  <reaction>  (6) 
rmg_rxn_15491

>  <mol_properties>  (6) 
{"1": {"label": "*4", "atom_type": "N3d"}, "2": {"label": "*3", "atom_type": "Cd"}, "6": {"label": "*1", "atom_type": "Cs"}, "7": {"label": "*0", "atom_type": "S2s"}, "11": {"label": "*2", "atom_type": "H0"}}

>  <type>  (6) 
unop_2

>  <geom_source>  (6) 
Heuristics

$$$$

     RDKit          3D

 14 12  0  0  0  0  0  0  0  0999 V2000
    3.3637    0.2545   -0.2631 O   0  0  0  0  0  0  0  0  0  0  0  0
    1.9957   -0.0733   -0.1973 N   0  0  0  0  0  0  0  0  0  0  0  0
    1.3036    0.3667    0.7322 C   0  0  0  0  0  0  0  0  0  0  0  0
    3.6828   -0.1958   -1.0573 H   0  0  0  0  0  0  0  0  0  0  0  0
    1.5945    1.0060    1.5571 H   0  0  0  0  0  0  0  0  0  0  0  0
   -1.0680   -1.7712   -0.1977 C   0  0  0  0  0  0  0  0  0  0  0  0
   -1.1817   -0.4798    0.5634 C   0  0  0  0  0  3  0  0  0  0  0  0
   -2.1671    0.7822   -0.1994 S   0  0  0  0  0  0  0  0  0  0  0  0
   -2.0449   -2.2387   -0.3343 H   0  0  0  0  0  0  0  0  0  0  0  0
   -0.4296   -2.4621    0.3486 H   0  0  0  0  0  0  0  0  0  0  0  0
   -0.6279   -1.5983   -1.1787 H   0  0  0  0  0  0  0  0  0  0  0  0
    0.0746   -0.0113    0.6760 H   0  0  0  0  0  0  0  0  0  0  0  0
   -1.5309   -0.5959    1.5864 H   0  0  0  0  0  0  0  0  0  0  0  0
   -1.6429    0.6497   -1.4191 H   0  0  0  0  0  0  0  0  0  0  0  0
  1  2  1  0
  1  4  1  0
  2  3  2  3
  3  5  1  0
  3 12  1  0
  6  7  1  0
  6  9  1  0
  6 10  1  0
  6 11  1  0
  7  8  1  0
  7 13  1  0
  8 14  1  0
M  RAD  1   7   2
M  END
>  <reaction>  (7) 
rmg_rxn_15491

>  <mol_properties>  (7) 
{"1": {"label": "*4", "atom_type": "N3d"}, "2": {"label": "*3", "atom_type": "Cd"}, "6": {"label": "*1", "atom_type": "Cs"}, "7": {"label": "*0", "atom_type": "S2s"}, "11": {"label": "*2", "atom_type": "H0"}}

>  <type>  (7) 
unop_3

>  <geom_source>  (7) 
Heuristics

$$$$

     RDKit          3D

 14 12  0  0  0  0  0  0  0  0999 V2000
    2.8307   -1.6360    0.6531 O   0  0  0  0  0  0  0  0  0  0  0  0
    1.7230   -1.2523   -0.0769 N   0  0  0  0  0  0  0  0  0  0  0  0
    0.6769   -1.2298    0.6292 C   0  0  0  0  0  0  0  0  0  0  0  0
    3.5408   -1.6111    0.0087 H   0  0  0  0  0  0  0  0  0  0  0  0
    0.6771   -1.4872    1.6863 H   0  0  0  0  0  0  0  0  0  0  0  0
   -1.3395    0.1239   -1.8342 C   0  0  0  0  0  0  0  0  0  0  0  0
   -1.3395    0.1239   -0.3155 C   0  0  0  0  0  3  0  0  0  0  0  0
   -1.3395    1.7812    0.4294 S   0  0  0  0  0  0  0  0  0  0  0  0
   -0.4329    0.5893   -2.2250 H   0  0  0  0  0  0  0  0  0  0  0  0
   -2.1955    0.6751   -2.2243 H   0  0  0  0  0  0  0  0  0  0  0  0
   -1.3826   -0.8995   -2.2145 H   0  0  0  0  0  0  0  0  0  0  0  0
   -0.3276   -0.5555    0.1586 H   0  0  0  0  0  0  0  0  0  0  0  0
   -2.2471   -0.3432    0.0696 H   0  0  0  0  0  0  0  0  0  0  0  0
   -0.1647    2.1829   -0.0741 H   0  0  0  0  0  0  0  0  0  0  0  0
  1  2  1  0
  1  4  1  0
  2  3  2  3
  3  5  1  0
  3 12  1  0
  6  7  1  0
  6  9  1  0
  6 10  1  0
  6 11  1  0
  7  8  1  0
  7 13  1  0
  8 14  1  0
M  RAD  1   7   2
M  END
>  <reaction>  (8) 
rmg_rxn_15491

>  <mol_properties>  (8) 
{"1": {"label": "*4", "atom_type": "N3d"}, "2": {"label": "*3", "atom_type": "Cd"}, "6": {"label": "*1", "atom_type": "Cs"}, "7": {"label": "*0", "atom_type": "S2s"}, "11": {"label": "*2", "atom_type": "H0"}}

>  <type>  (8) 
unop_4

>  <geom_source>  (8) 
Heuristics

$$$$

     RDKit          3D

 14 12  0  0  0  0  0  0  0  0999 V2000
    3.3725    0.2504   -0.2607 O   0  0  0  0  0  0  0  0  0  0  0  0
    2.0065   -0.0841   -0.1863 N   0  0  0  0  0  0  0  0  0  0  0  0
    1.3004    0.4132    0.7028 C   0  0  0  0  0  0  0  0  0  0  0  0
    3.7040   -0.2523   -1.0175 H   0  0  0  0  0  0  0  0  0  0  0  0
    1.5762    1.1110    1.4843 H   0  0  0  0  0  0  0  0  0  0  0  0
   -1.0464   -1.7698   -0.1775 C   0  0  0  0  0  0  0  0  0  0  0  0
   -1.1740   -0.4697    0.5662 C   0  0  0  0  0  3  0  0  0  0  0  0
   -2.1880    0.7651   -0.2038 S   0  0  0  0  0  0  0  0  0  0  0  0
   -0.6242   -1.6033   -1.1674 H   0  0  0  0  0  0  0  0  0  0  0  0
   -2.0158   -2.2583   -0.2924 H   0  0  0  0  0  0  0  0  0  0  0  0
   -0.3863   -2.4396    0.3693 H   0  0  0  0  0  0  0  0  0  0  0  0
    0.0757    0.0197    0.6604 H   0  0  0  0  0  0  0  0  0  0  0  0
   -1.5110   -0.5770    1.5943 H   0  0  0  0  0  0  0  0  0  0  0  0
   -1.6769    0.6216   -1.4279 H   0  0  0  0  0  0  0  0  0  0  0  0
  1  2  1  0
  1  4  1  0
  2  3  2  3
  3  5  1  0
  3 12  1  0
  6  7  1  0
  6  9  1  0
  6 10  1  0
  6 11  1  0
  7  8  1  0
  7 13  1  0
  8 14  1  0
M  RAD  1   7   2
M  END
>  <reaction>  (9) 
rmg_rxn_15491

>  <mol_properties>  (9) 
{"1": {"label": "*4", "atom_type": "N3d"}, "2": {"label": "*3", "atom_type": "Cd"}, "6": {"label": "*1", "atom_type": "Cs"}, "7": {"label": "*0", "atom_type": "S2s"}, "11": {"label": "*2", "atom_type": "H0"}}

>  <type>  (9) 
unop_5

>  <geom_source>  (9) 
Heuristics

$$$$

     RDKit          3D

 14 12  0  0  0  0  0  0  0  0999 V2000
    1.8929   -1.9215    1.9505 O   0  0  0  0  0  0  0  0  0  0  0  0
    1.4107   -0.8604    1.2099 N   0  0  0  0  0  0  0  0  0  0  0  0
    0.9531   -1.2330    0.0940 C   0  0  0  0  0  0  0  0  0  0  0  0
    2.2038   -1.5060    2.7573 H   0  0  0  0  0  0  0  0  0  0  0  0
    0.9516   -2.2742   -0.2213 H   0  0  0  0  0  0  0  0  0  0  0  0
   -1.0633    0.1207   -2.3695 C   0  0  0  0  0  0  0  0  0  0  0  0
   -1.0633    0.1207   -0.8508 C   0  0  0  0  0  3  0  0  0  0  0  0
   -1.0633    1.7781   -0.1058 S   0  0  0  0  0  0  0  0  0  0  0  0
   -0.1567    0.5861   -2.7602 H   0  0  0  0  0  0  0  0  0  0  0  0
   -1.9193    0.6719   -2.7596 H   0  0  0  0  0  0  0  0  0  0  0  0
   -1.1064   -0.9027   -2.7498 H   0  0  0  0  0  0  0  0  0  0  0  0
   -0.0514   -0.5586   -0.3767 H   0  0  0  0  0  0  0  0  0  0  0  0
   -1.9709   -0.3463   -0.4657 H   0  0  0  0  0  0  0  0  0  0  0  0
    0.1115    2.1797   -0.6094 H   0  0  0  0  0  0  0  0  0  0  0  0
  1  2  1  0
  1  4  1  0
  2  3  2  3
  3  5  1  0
  3 12  1  0
  6  7  1  0
  6  9  1  0
  6 10  1  0
  6 11  1  0
  7  8  1  0
  7 13  1  0
  8 14  1  0
M  RAD  1   7   2
M  END
>  <reaction>  (10) 
rmg_rxn_15491

>  <mol_properties>  (10) 
{"1": {"label": "*4", "atom_type": "N3d"}, "2": {"label": "*3", "atom_type": "Cd"}, "6": {"label": "*1", "atom_type": "Cs"}, "7": {"label": "*0", "atom_type": "S2s"}, "11": {"label": "*2", "atom_type": "H0"}}

>  <type>  (10) 
unop_6

>  <geom_source>  (10) 
Heuristics

$$$$

     RDKit          3D

 14 12  0  0  0  0  0  0  0  0999 V2000
    1.6882   -2.8025    1.1467 O   0  0  0  0  0  0  0  0  0  0  0  0
    1.1162   -2.0349    0.1513 N   0  0  0  0  0  0  0  0  0  0  0  0
    1.0540   -0.8157    0.4724 C   0  0  0  0  0  0  0  0  0  0  0  0
    1.6739   -3.6885    0.7796 H   0  0  0  0  0  0  0  0  0  0  0  0
    1.4160   -0.4414    1.4277 H   0  0  0  0  0  0  0  0  0  0  0  0
   -0.9625    0.5380   -1.9910 C   0  0  0  0  0  0  0  0  0  0  0  0
   -0.9625    0.5380   -0.4724 C   0  0  0  0  0  3  0  0  0  0  0  0
   -0.9625    2.1954    0.2726 S   0  0  0  0  0  0  0  0  0  0  0  0
   -0.0558    1.0035   -2.3818 H   0  0  0  0  0  0  0  0  0  0  0  0
   -1.8184    1.0892   -2.3811 H   0  0  0  0  0  0  0  0  0  0  0  0
   -1.0055   -0.4853   -2.3713 H   0  0  0  0  0  0  0  0  0  0  0  0
    0.0495   -0.1413    0.0018 H   0  0  0  0  0  0  0  0  0  0  0  0
   -1.8701    0.0710   -0.0872 H   0  0  0  0  0  0  0  0  0  0  0  0
    0.2123    2.5971   -0.2309 H   0  0  0  0  0  0  0  0  0  0  0  0
  1  2  1  0
  1  4  1  0
  2  3  2  3
  3  5  1  0
  3 12  1  0
  6  7  1  0
  6  9  1  0
  6 10  1  0
  6 11  1  0
  7  8  1  0
  7 13  1  0
  8 14  1  0
M  RAD  1   7   2
M  END
>  <reaction>  (11) 
rmg_rxn_15491

>  <mol_properties>  (11) 
{"1": {"label": "*4", "atom_type": "N3d"}, "2": {"label": "*3", "atom_type": "Cd"}, "6": {"label": "*1", "atom_type": "Cs"}, "7": {"label": "*0", "atom_type": "S2s"}, "11": {"label": "*2", "atom_type": "H0"}}

>  <type>  (11) 
unop_7

>  <geom_source>  (11) 
Heuristics

$$$$

     RDKit          3D

 14 12  0  0  0  0  0  0  0  0999 V2000
    3.3693    0.2519   -0.2616 O   0  0  0  0  0  0  0  0  0  0  0  0
    2.0028   -0.0809   -0.1902 N   0  0  0  0  0  0  0  0  0  0  0  0
    1.3015    0.3961    0.7136 C   0  0  0  0  0  0  0  0  0  0  0  0
    3.6965   -0.2316   -1.0325 H   0  0  0  0  0  0  0  0  0  0  0  0
    1.5823    1.0742    1.5105 H   0  0  0  0  0  0  0  0  0  0  0  0
   -1.0557   -1.7706   -0.1848 C   0  0  0  0  0  0  0  0  0  0  0  0
   -1.1770   -0.4735    0.5654 C   0  0  0  0  0  3  0  0  0  0  0  0
   -2.1796    0.7719   -0.2023 S   0  0  0  0  0  0  0  0  0  0  0  0
   -0.4049   -2.4492    0.3625 H   0  0  0  0  0  0  0  0  0  0  0  0
   -0.6258   -1.6023   -1.1711 H   0  0  0  0  0  0  0  0  0  0  0  0
   -2.0285   -2.2501   -0.3085 H   0  0  0  0  0  0  0  0  0  0  0  0
    0.0754    0.0075    0.6663 H   0  0  0  0  0  0  0  0  0  0  0  0
   -1.5185   -0.5838    1.5916 H   0  0  0  0  0  0  0  0  0  0  0  0
   -1.6660    0.6299   -1.4255 H   0  0  0  0  0  0  0  0  0  0  0  0
  1  2  1  0
  1  4  1  0
  2  3  2  3
  3  5  1  0
  3 12  1  0
  6  7  1  0
  6  9  1  0
  6 10  1  0
  6 11  1  0
  7  8  1  0
  7 13  1  0
  8 14  1  0
M  RAD  1   7   2
M  END
>  <reaction>  (12) 
rmg_rxn_15491

>  <mol_properties>  (12) 
{"1": {"label": "*4", "atom_type": "N3d"}, "2": {"label": "*3", "atom_type": "Cd"}, "6": {"label": "*1", "atom_type": "Cs"}, "7": {"label": "*0", "atom_type": "S2s"}, "11": {"label": "*2", "atom_type": "H0"}}

>  <type>  (12) 
unop_8

>  <geom_source>  (12) 
Heuristics

$$$$

     RDKit          3D

 14 12  0  0  0  0  0  0  0  0999 V2000
    2.1523   -1.9615    1.7620 O   0  0  0  0  0  0  0  0  0  0  0  0
    1.0536   -1.2239    1.3670 N   0  0  0  0  0  0  0  0  0  0  0  0
    0.9562   -1.1585    0.1101 C   0  0  0  0  0  0  0  0  0  0  0  0
    2.1073   -1.9313    2.7196 H   0  0  0  0  0  0  0  0  0  0  0  0
    1.6683   -1.6366   -0.5592 H   0  0  0  0  0  0  0  0  0  0  0  0
   -1.0602    0.1952   -2.3533 C   0  0  0  0  0  0  0  0  0  0  0  0
   -1.0602    0.1952   -0.8347 C   0  0  0  0  0  3  0  0  0  0  0  0
   -1.0602    1.8526   -0.0897 S   0  0  0  0  0  0  0  0  0  0  0  0
   -0.1536    0.6606   -2.7441 H   0  0  0  0  0  0  0  0  0  0  0  0
   -1.9162    0.7464   -2.7434 H   0  0  0  0  0  0  0  0  0  0  0  0
   -1.1033   -0.8281   -2.7336 H   0  0  0  0  0  0  0  0  0  0  0  0
   -0.0483   -0.4841   -0.3605 H   0  0  0  0  0  0  0  0  0  0  0  0
   -1.9678   -0.2718   -0.4495 H   0  0  0  0  0  0  0  0  0  0  0  0
    0.1146    2.2543   -0.5932 H   0  0  0  0  0  0  0  0  0  0  0  0
  1  2  1  0
  1  4  1  0
  2  3  2  3
  3  5  1  0
  3 12  1  0
  6  7  1  0
  6  9  1  0
  6 10  1  0
  6 11  1  0
  7  8  1  0
  7 13  1  0
  8 14  1  0
M  RAD  1   7   2
M  END
>  <reaction>  (13) 
rmg_rxn_15491

>  <mol_properties>  (13) 
{"1": {"label": "*4", "atom_type": "N3d"}, "2": {"label": "*3", "atom_type": "Cd"}, "6": {"label": "*1", "atom_type": "Cs"}, "7": {"label": "*0", "atom_type": "S2s"}, "11": {"label": "*2", "atom_type": "H0"}}

>  <type>  (13) 
unop_9

>  <geom_source>  (13) 
Heuristics

$$$$

     RDKit          3D

 14 12  0  0  0  0  0  0  0  0999 V2000
    3.3691    0.2519   -0.2618 O   0  0  0  0  0  0  0  0  0  0  0  0
    2.0026   -0.0810   -0.1897 N   0  0  0  0  0  0  0  0  0  0  0  0
    1.3012    0.3980    0.7131 C   0  0  0  0  0  0  0  0  0  0  0  0
    3.6964   -0.2338   -1.0314 H   0  0  0  0  0  0  0  0  0  0  0  0
    1.5819    1.0774    1.5090 H   0  0  0  0  0  0  0  0  0  0  0  0
   -1.0534   -1.7704   -0.1842 C   0  0  0  0  0  0  0  0  0  0  0  0
   -1.1768   -0.4733    0.5656 C   0  0  0  0  0  3  0  0  0  0  0  0
   -2.1805    0.7709   -0.2026 S   0  0  0  0  0  0  0  0  0  0  0  0
   -2.0258   -2.2503   -0.3099 H   0  0  0  0  0  0  0  0  0  0  0  0
   -0.4034   -2.4486    0.3644 H   0  0  0  0  0  0  0  0  0  0  0  0
   -0.6217   -1.6018   -1.1696 H   0  0  0  0  0  0  0  0  0  0  0  0
    0.0751    0.0092    0.6665 H   0  0  0  0  0  0  0  0  0  0  0  0
   -1.5185   -0.5836    1.5917 H   0  0  0  0  0  0  0  0  0  0  0  0
   -1.6643    0.6312   -1.4249 H   0  0  0  0  0  0  0  0  0  0  0  0
  1  2  1  0
  1  4  1  0
  2  3  2  3
  3  5  1  0
  3 12  1  0
  6  7  1  0
  6  9  1  0
  6 10  1  0
  6 11  1  0
  7  8  1  0
  7 13  1  0
  8 14  1  0
M  RAD  1   7   2
M  END
>  <reaction>  (14) 
rmg_rxn_15491

>  <mol_properties>  (14) 
{"1": {"label": "*4", "atom_type": "N3d"}, "2": {"label": "*3", "atom_type": "Cd"}, "6": {"label": "*1", "atom_type": "Cs"}, "7": {"label": "*0", "atom_type": "S2s"}, "11": {"label": "*2", "atom_type": "H0"}}

>  <type>  (14) 
unop_10

>  <geom_source>  (14) 
Heuristics

$$$$

     RDKit          3D

 14 12  0  0  0  0  0  0  0  0999 V2000
    1.5180   -2.5246    1.6705 O   0  0  0  0  0  0  0  0  0  0  0  0
    0.9345   -2.1000    0.4930 N   0  0  0  0  0  0  0  0  0  0  0  0
    1.1265   -0.8693    0.2882 C   0  0  0  0  0  0  0  0  0  0  0  0
    1.2998   -3.4581    1.7023 H   0  0  0  0  0  0  0  0  0  0  0  0
    1.6892   -0.2409    0.9753 H   0  0  0  0  0  0  0  0  0  0  0  0
   -0.8899    0.4844   -2.1753 C   0  0  0  0  0  0  0  0  0  0  0  0
   -0.8899    0.4844   -0.6566 C   0  0  0  0  0  3  0  0  0  0  0  0
   -0.8899    2.1418    0.0884 S   0  0  0  0  0  0  0  0  0  0  0  0
    0.0167    0.9499   -2.5660 H   0  0  0  0  0  0  0  0  0  0  0  0
   -1.7459    1.0356   -2.5654 H   0  0  0  0  0  0  0  0  0  0  0  0
   -0.9330   -0.5389   -2.5556 H   0  0  0  0  0  0  0  0  0  0  0  0
    0.1220   -0.1949   -0.1825 H   0  0  0  0  0  0  0  0  0  0  0  0
   -1.7975    0.0174   -0.2715 H   0  0  0  0  0  0  0  0  0  0  0  0
    0.2849    2.5435   -0.4152 H   0  0  0  0  0  0  0  0  0  0  0  0
  1  2  1  0
  1  4  1  0
  2  3  2  3
  3  5  1  0
  3 12  1  0
  6  7  1  0
  6  9  1  0
  6 10  1  0
  6 11  1  0
  7  8  1  0
  7 13  1  0
  8 14  1  0
M  RAD  1   7   2
M  END
>  <reaction>  (15) 
rmg_rxn_15491

>  <mol_properties>  (15) 
{"1": {"label": "*4", "atom_type": "N3d"}, "2": {"label": "*3", "atom_type": "Cd"}, "6": {"label": "*1", "atom_type": "Cs"}, "7": {"label": "*0", "atom_type": "S2s"}, "11": {"label": "*2", "atom_type": "H0"}}

>  <type>  (15) 
unop_11

>  <geom_source>  (15) 
Heuristics

$$$$

     RDKit          3D

 14 12  0  0  0  0  0  0  0  0999 V2000
    3.3650    0.2530   -0.2633 O   0  0  0  0  0  0  0  0  0  0  0  0
    1.9970   -0.0743   -0.1948 N   0  0  0  0  0  0  0  0  0  0  0  0
    1.3028    0.3795    0.7265 C   0  0  0  0  0  0  0  0  0  0  0  0
    3.6856   -0.2095   -1.0497 H   0  0  0  0  0  0  0  0  0  0  0  0
    1.5914    1.0316    1.5420 H   0  0  0  0  0  0  0  0  0  0  0  0
   -1.0589   -1.7703   -0.1922 C   0  0  0  0  0  0  0  0  0  0  0  0
   -1.1793   -0.4770    0.5646 C   0  0  0  0  0  3  0  0  0  0  0  0
   -2.1732    0.7765   -0.2011 S   0  0  0  0  0  0  0  0  0  0  0  0
   -0.6217   -1.5980   -1.1746 H   0  0  0  0  0  0  0  0  0  0  0  0
   -2.0330   -2.2446   -0.3253 H   0  0  0  0  0  0  0  0  0  0  0  0
   -0.4149   -2.4551    0.3553 H   0  0  0  0  0  0  0  0  0  0  0  0
    0.0745   -0.0015    0.6737 H   0  0  0  0  0  0  0  0  0  0  0  0
   -1.5264   -0.5917    1.5885 H   0  0  0  0  0  0  0  0  0  0  0  0
   -1.6510    0.6419   -1.4214 H   0  0  0  0  0  0  0  0  0  0  0  0
  1  2  1  0
  1  4  1  0
  2  3  2  3
  3  5  1  0
  3 12  1  0
  6  7  1  0
  6  9  1  0
  6 10  1  0
  6 11  1  0
  7  8  1  0
  7 13  1  0
  8 14  1  0
M  RAD  1   7   2
M  END
>  <reaction>  (16) 
rmg_rxn_15491

>  <mol_properties>  (16) 
{"1": {"label": "*4", "atom_type": "N3d"}, "2": {"label": "*3", "atom_type": "Cd"}, "6": {"label": "*1", "atom_type": "Cs"}, "7": {"label": "*0", "atom_type": "S2s"}, "11": {"label": "*2", "atom_type": "H0"}}

>  <type>  (16) 
unop_12

>  <geom_source>  (16) 
Heuristics

$$$$

     RDKit          3D

 14 12  0  0  0  0  0  0  0  0999 V2000
    1.6544   -2.0587    1.9857 O   0  0  0  0  0  0  0  0  0  0  0  0
    0.8348   -1.9896    0.8764 N   0  0  0  0  0  0  0  0  0  0  0  0
    1.1123   -0.9985    0.1455 C   0  0  0  0  0  0  0  0  0  0  0  0
    1.3416   -2.8409    2.4443 H   0  0  0  0  0  0  0  0  0  0  0  0
    1.9088   -0.2973    0.3855 H   0  0  0  0  0  0  0  0  0  0  0  0
   -0.9041    0.3552   -2.3180 C   0  0  0  0  0  0  0  0  0  0  0  0
   -0.9041    0.3552   -0.7993 C   0  0  0  0  0  3  0  0  0  0  0  0
   -0.9041    2.0126   -0.0543 S   0  0  0  0  0  0  0  0  0  0  0  0
    0.0025    0.8207   -2.7087 H   0  0  0  0  0  0  0  0  0  0  0  0
   -1.7601    0.9064   -2.7081 H   0  0  0  0  0  0  0  0  0  0  0  0
   -0.9472   -0.6681   -2.6983 H   0  0  0  0  0  0  0  0  0  0  0  0
    0.1078   -0.3241   -0.3252 H   0  0  0  0  0  0  0  0  0  0  0  0
   -1.8117   -0.1118   -0.4142 H   0  0  0  0  0  0  0  0  0  0  0  0
    0.2707    2.4143   -0.5579 H   0  0  0  0  0  0  0  0  0  0  0  0
  1  2  1  0
  1  4  1  0
  2  3  2  3
  3  5  1  0
  3 12  1  0
  6  7  1  0
  6  9  1  0
  6 10  1  0
  6 11  1  0
  7  8  1  0
  7 13  1  0
  8 14  1  0
M  RAD  1   7   2
M  END
>  <reaction>  (17) 
rmg_rxn_15491

>  <mol_properties>  (17) 
{"1": {"label": "*4", "atom_type": "N3d"}, "2": {"label": "*3", "atom_type": "Cd"}, "6": {"label": "*1", "atom_type": "Cs"}, "7": {"label": "*0", "atom_type": "S2s"}, "11": {"label": "*2", "atom_type": "H0"}}

>  <type>  (17) 
unop_13

>  <geom_source>  (17) 
Heuristics

$$$$

     RDKit          3D

 14 12  0  0  0  0  0  0  0  0999 V2000
   -3.3750    0.2500    0.2593 O   0  0  0  0  0  0  0  0  0  0  0  0
   -2.0101   -0.0884    0.1835 N   0  0  0  0  0  0  0  0  0  0  0  0
   -1.2995    0.4211   -0.6951 C   0  0  0  0  0  0  0  0  0  0  0  0
   -3.7107   -0.2638    1.0066 H   0  0  0  0  0  0  0  0  0  0  0  0
   -1.5703    1.1330   -1.4655 H   0  0  0  0  0  0  0  0  0  0  0  0
    1.0466   -1.7703    0.1743 C   0  0  0  0  0  0  0  0  0  0  0  0
    1.1732   -0.4683   -0.5663 C   0  0  0  0  0  3  0  0  0  0  0  0
    2.1906    0.7635    0.2040 S   0  0  0  0  0  0  0  0  0  0  0  0
    2.0163   -2.2587    0.2872 H   0  0  0  0  0  0  0  0  0  0  0  0
    0.3863   -2.4389   -0.3736 H   0  0  0  0  0  0  0  0  0  0  0  0
    0.6253   -1.6065    1.1650 H   0  0  0  0  0  0  0  0  0  0  0  0
   -0.0760    0.0231   -0.6560 H   0  0  0  0  0  0  0  0  0  0  0  0
    1.5071   -0.5731   -1.5955 H   0  0  0  0  0  0  0  0  0  0  0  0
    1.6833    0.6170    1.4293 H   0  0  0  0  0  0  0  0  0  0  0  0
  1  2  1  0
  1  4  1  0
  2  3  2  3
  3  5  1  0
  3 12  1  0
  6  7  1  0
  6  9  1  0
  6 10  1  0
  6 11  1  0
  7  8  1  0
  7 13  1  0
  8 14  1  0
M  RAD  1   7   2
M  END
>  <reaction>  (18) 
rmg_rxn_15491

>  <mol_properties>  (18) 
{"1": {"label": "*4", "atom_type": "N3d"}, "2": {"label": "*3", "atom_type": "Cd"}, "6": {"label": "*1", "atom_type": "Cs"}, "7": {"label": "*0", "atom_type": "S2s"}, "11": {"label": "*2", "atom_type": "H0"}}

>  <type>  (18) 
unop_14

>  <geom_source>  (18) 
Heuristics

$$$$

     RDKit          3D

 14 12  0  0  0  0  0  0  0  0999 V2000
    2.4333   -1.1612    1.6705 O   0  0  0  0  0  0  0  0  0  0  0  0
    1.8194   -0.7820    0.4930 N   0  0  0  0  0  0  0  0  0  0  0  0
    0.7530   -1.4256    0.2882 C   0  0  0  0  0  0  0  0  0  0  0  0
    3.2147   -0.6058    1.7023 H   0  0  0  0  0  0  0  0  0  0  0  0
    0.3845   -2.1843    0.9753 H   0  0  0  0  0  0  0  0  0  0  0  0
   -1.2634   -0.0719   -2.1753 C   0  0  0  0  0  0  0  0  0  0  0  0
   -1.2634   -0.0719   -0.6566 C   0  0  0  0  0  3  0  0  0  0  0  0
   -1.2634    1.5854    0.0884 S   0  0  0  0  0  0  0  0  0  0  0  0
   -0.3568    0.3935   -2.5660 H   0  0  0  0  0  0  0  0  0  0  0  0
   -2.1194    0.4793   -2.5654 H   0  0  0  0  0  0  0  0  0  0  0  0
   -1.3065   -1.0953   -2.5556 H   0  0  0  0  0  0  0  0  0  0  0  0
   -0.2515   -0.7513   -0.1825 H   0  0  0  0  0  0  0  0  0  0  0  0
   -2.1710   -0.5390   -0.2715 H   0  0  0  0  0  0  0  0  0  0  0  0
   -0.0886    1.9871   -0.4152 H   0  0  0  0  0  0  0  0  0  0  0  0
  1  2  1  0
  1  4  1  0
  2  3  2  3
  3  5  1  0
  3 12  1  0
  6  7  1  0
  6  9  1  0
  6 10  1  0
  6 11  1  0
  7  8  1  0
  7 13  1  0
  8 14  1  0
M  RAD  1   7   2
M  END
>  <reaction>  (19) 
rmg_rxn_15491

>  <mol_properties>  (19) 
{"1": {"label": "*4", "atom_type": "N3d"}, "2": {"label": "*3", "atom_type": "Cd"}, "6": {"label": "*1", "atom_type": "Cs"}, "7": {"label": "*0", "atom_type": "S2s"}, "11": {"label": "*2", "atom_type": "H0"}}

>  <type>  (19) 
unop_15

>  <geom_source>  (19) 
Heuristics

$$$$

     RDKit          3D

 14 12  0  0  0  0  0  0  0  0999 V2000
    3.3681    0.2526   -0.2618 O   0  0  0  0  0  0  0  0  0  0  0  0
    2.0012   -0.0794   -0.1918 N   0  0  0  0  0  0  0  0  0  0  0  0
    1.3018    0.3893    0.7178 C   0  0  0  0  0  0  0  0  0  0  0  0
    3.6938   -0.2246   -1.0375 H   0  0  0  0  0  0  0  0  0  0  0  0
    1.5845    1.0591    1.5209 H   0  0  0  0  0  0  0  0  0  0  0  0
   -1.0590   -1.7710   -0.1878 C   0  0  0  0  0  0  0  0  0  0  0  0
   -1.1782   -0.4751    0.5648 C   0  0  0  0  0  3  0  0  0  0  0  0
   -2.1765    0.7745   -0.2017 S   0  0  0  0  0  0  0  0  0  0  0  0
   -0.6289   -1.6014   -1.1738 H   0  0  0  0  0  0  0  0  0  0  0  0
   -2.0326   -2.2485   -0.3125 H   0  0  0  0  0  0  0  0  0  0  0  0
   -0.4095   -2.4518    0.3583 H   0  0  0  0  0  0  0  0  0  0  0  0
    0.0751    0.0029    0.6685 H   0  0  0  0  0  0  0  0  0  0  0  0
   -1.5215   -0.5865    1.5903 H   0  0  0  0  0  0  0  0  0  0  0  0
   -1.6586    0.6362   -1.4234 H   0  0  0  0  0  0  0  0  0  0  0  0
  1  2  1  0
  1  4  1  0
  2  3  2  3
  3  5  1  0
  3 12  1  0
  6  7  1  0
  6  9  1  0
  6 10  1  0
  6 11  1  0
  7  8  1  0
  7 13  1  0
  8 14  1  0
M  RAD  1   7   2
M  END
>  <reaction>  (20) 
rmg_rxn_15491

>  <mol_properties>  (20) 
{"1": {"label": "*4", "atom_type": "N3d"}, "2": {"label": "*3", "atom_type": "Cd"}, "6": {"label": "*1", "atom_type": "Cs"}, "7": {"label": "*0", "atom_type": "S2s"}, "11": {"label": "*2", "atom_type": "H0"}}

>  <type>  (20) 
unop_16

>  <geom_source>  (20) 
Heuristics

$$$$

     RDKit          3D

 14 12  0  0  0  0  0  0  0  0999 V2000
    2.1079   -2.7126    0.6531 O   0  0  0  0  0  0  0  0  0  0  0  0
    1.3334   -1.8327   -0.0769 N   0  0  0  0  0  0  0  0  0  0  0  0
    0.9165   -0.8730    0.6292 C   0  0  0  0  0  0  0  0  0  0  0  0
    2.3537   -3.3793    0.0087 H   0  0  0  0  0  0  0  0  0  0  0  0
    1.1548   -0.7757    1.6863 H   0  0  0  0  0  0  0  0  0  0  0  0
   -1.0999    0.4807   -1.8342 C   0  0  0  0  0  0  0  0  0  0  0  0
   -1.0999    0.4807   -0.3155 C   0  0  0  0  0  3  0  0  0  0  0  0
   -1.0999    2.1381    0.4294 S   0  0  0  0  0  0  0  0  0  0  0  0
   -0.1933    0.9461   -2.2250 H   0  0  0  0  0  0  0  0  0  0  0  0
   -1.9559    1.0319   -2.2243 H   0  0  0  0  0  0  0  0  0  0  0  0
   -1.1430   -0.5427   -2.2145 H   0  0  0  0  0  0  0  0  0  0  0  0
   -0.0880   -0.1986    0.1586 H   0  0  0  0  0  0  0  0  0  0  0  0
   -2.0075    0.0137    0.0696 H   0  0  0  0  0  0  0  0  0  0  0  0
    0.0749    2.5397   -0.0741 H   0  0  0  0  0  0  0  0  0  0  0  0
  1  2  1  0
  1  4  1  0
  2  3  2  3
  3  5  1  0
  3 12  1  0
  6  7  1  0
  6  9  1  0
  6 10  1  0
  6 11  1  0
  7  8  1  0
  7 13  1  0
  8 14  1  0
M  RAD  1   7   2
M  END
>  <reaction>  (21) 
rmg_rxn_15491

>  <mol_properties>  (21) 
{"1": {"label": "*4", "atom_type": "N3d"}, "2": {"label": "*3", "atom_type": "Cd"}, "6": {"label": "*1", "atom_type": "Cs"}, "7": {"label": "*0", "atom_type": "S2s"}, "11": {"label": "*2", "atom_type": "H0"}}

>  <type>  (21) 
unop_17

>  <geom_source>  (21) 
Heuristics

$$$$

     RDKit          3D

 14 12  0  0  0  0  0  0  0  0999 V2000
    2.7549   -1.2135    1.1467 O   0  0  0  0  0  0  0  0  0  0  0  0
    1.8279   -0.9748    0.1513 N   0  0  0  0  0  0  0  0  0  0  0  0
    0.6759   -1.3788    0.4724 C   0  0  0  0  0  0  0  0  0  0  0  0
    3.5696   -0.8648    0.7796 H   0  0  0  0  0  0  0  0  0  0  0  0
    0.4666   -1.8556    1.4277 H   0  0  0  0  0  0  0  0  0  0  0  0
   -1.3405   -0.0251   -1.9910 C   0  0  0  0  0  0  0  0  0  0  0  0
   -1.3405   -0.0251   -0.4724 C   0  0  0  0  0  3  0  0  0  0  0  0
   -1.3405    1.6323    0.2726 S   0  0  0  0  0  0  0  0  0  0  0  0
   -0.4339    0.4403   -2.3818 H   0  0  0  0  0  0  0  0  0  0  0  0
   -2.1965    0.5261   -2.3811 H   0  0  0  0  0  0  0  0  0  0  0  0
   -1.3836   -1.0484   -2.3713 H   0  0  0  0  0  0  0  0  0  0  0  0
   -0.3286   -0.7044    0.0018 H   0  0  0  0  0  0  0  0  0  0  0  0
   -2.2481   -0.4921   -0.0872 H   0  0  0  0  0  0  0  0  0  0  0  0
   -0.1657    2.0340   -0.2309 H   0  0  0  0  0  0  0  0  0  0  0  0
  1  2  1  0
  1  4  1  0
  2  3  2  3
  3  5  1  0
  3 12  1  0
  6  7  1  0
  6  9  1  0
  6 10  1  0
  6 11  1  0
  7  8  1  0
  7 13  1  0
  8 14  1  0
M  RAD  1   7   2
M  END
>  <reaction>  (22) 
rmg_rxn_15491

>  <mol_properties>  (22) 
{"1": {"label": "*4", "atom_type": "N3d"}, "2": {"label": "*3", "atom_type": "Cd"}, "6": {"label": "*1", "atom_type": "Cs"}, "7": {"label": "*0", "atom_type": "S2s"}, "11": {"label": "*2", "atom_type": "H0"}}

>  <type>  (22) 
unop_18

>  <geom_source>  (22) 
Heuristics

$$$$

     RDKit          3D

 14 12  0  0  0  0  0  0  0  0999 V2000
    2.0171   -1.7366    1.9505 O   0  0  0  0  0  0  0  0  0  0  0  0
    0.8524   -1.6920    1.2099 N   0  0  0  0  0  0  0  0  0  0  0  0
    1.0240   -1.1274    0.0940 C   0  0  0  0  0  0  0  0  0  0  0  0
    1.7503   -2.1816    2.7573 H   0  0  0  0  0  0  0  0  0  0  0  0
    1.9871   -0.7318   -0.2213 H   0  0  0  0  0  0  0  0  0  0  0  0
   -0.9924    0.2263   -2.3695 C   0  0  0  0  0  0  0  0  0  0  0  0
   -0.9924    0.2263   -0.8508 C   0  0  0  0  0  3  0  0  0  0  0  0
   -0.9924    1.8836   -0.1058 S   0  0  0  0  0  0  0  0  0  0  0  0
   -0.0858    0.6917   -2.7602 H   0  0  0  0  0  0  0  0  0  0  0  0
   -1.8484    0.7775   -2.7596 H   0  0  0  0  0  0  0  0  0  0  0  0
   -1.0355   -0.7971   -2.7498 H   0  0  0  0  0  0  0  0  0  0  0  0
    0.0195   -0.4531   -0.3767 H   0  0  0  0  0  0  0  0  0  0  0  0
   -1.9000   -0.2408   -0.4657 H   0  0  0  0  0  0  0  0  0  0  0  0
    0.1824    2.2853   -0.6094 H   0  0  0  0  0  0  0  0  0  0  0  0
  1  2  1  0
  1  4  1  0
  2  3  2  3
  3  5  1  0
  3 12  1  0
  6  7  1  0
  6  9  1  0
  6 10  1  0
  6 11  1  0
  7  8  1  0
  7 13  1  0
  8 14  1  0
M  RAD  1   7   2
M  END
>  <reaction>  (23) 
rmg_rxn_15491

>  <mol_properties>  (23) 
{"1": {"label": "*4", "atom_type": "N3d"}, "2": {"label": "*3", "atom_type": "Cd"}, "6": {"label": "*1", "atom_type": "Cs"}, "7": {"label": "*0", "atom_type": "S2s"}, "11": {"label": "*2", "atom_type": "H0"}}

>  <type>  (23) 
unop_19

>  <geom_source>  (23) 
Heuristics

$$$$

     RDKit          3D

 14 12  0  0  0  0  0  0  0  0999 V2000
    2.5768   -2.2465    0.4475 O   0  0  0  0  0  0  0  0  0  0  0  0
    1.5454   -1.5540   -0.1555 N   0  0  0  0  0  0  0  0  0  0  0  0
    0.7684   -1.0324    0.6916 C   0  0  0  0  0  0  0  0  0  0  0  0
    3.0810   -2.5850   -0.2950 H   0  0  0  0  0  0  0  0  0  0  0  0
    0.9178   -1.1327    1.7646 H   0  0  0  0  0  0  0  0  0  0  0  0
   -1.2481    0.3213   -1.7719 C   0  0  0  0  0  0  0  0  0  0  0  0
   -1.2481    0.3213   -0.2532 C   0  0  0  0  0  3  0  0  0  0  0  0
   -1.2481    1.9787    0.4918 S   0  0  0  0  0  0  0  0  0  0  0  0
   -0.3414    0.7867   -2.1626 H   0  0  0  0  0  0  0  0  0  0  0  0
   -2.1040    0.8725   -2.1620 H   0  0  0  0  0  0  0  0  0  0  0  0
   -1.2911   -0.7021   -2.1521 H   0  0  0  0  0  0  0  0  0  0  0  0
   -0.2361   -0.3580    0.2209 H   0  0  0  0  0  0  0  0  0  0  0  0
   -2.1557   -0.1457    0.1319 H   0  0  0  0  0  0  0  0  0  0  0  0
   -0.0732    2.3804   -0.0117 H   0  0  0  0  0  0  0  0  0  0  0  0
  1  2  1  0
  1  4  1  0
  2  3  2  3
  3  5  1  0
  3 12  1  0
  6  7  1  0
  6  9  1  0
  6 10  1  0
  6 11  1  0
  7  8  1  0
  7 13  1  0
  8 14  1  0
M  RAD  1   7   2
M  END
>  <reaction>  (24) 
rmg_rxn_15491

>  <mol_properties>  (24) 
{"1": {"label": "*4", "atom_type": "N3d"}, "2": {"label": "*3", "atom_type": "Cd"}, "6": {"label": "*1", "atom_type": "Cs"}, "7": {"label": "*0", "atom_type": "S2s"}, "11": {"label": "*2", "atom_type": "H0"}}

>  <type>  (24) 
unop_20

>  <geom_source>  (24) 
Heuristics

$$$$

     RDKit          3D

 14 12  0  0  0  0  0  0  0  0999 V2000
   -1.4462    1.6390    0.1815 S   0  0  0  0  0  0  0  0  0  0  0  0
    2.4418    1.4853   -0.0529 O   0  0  0  0  0  0  0  0  0  0  0  0
    2.4498    0.1593    0.3103 N   0  0  0  0  0  0  0  0  0  0  0  0
   -1.5830   -1.0931    0.4138 C   0  0  0  0  0  0  0  0  0  0  0  0
   -1.0420   -0.0001   -0.4924 C   0  0  0  0  0  3  0  0  0  0  0  0
    1.4248   -0.5894    0.0720 C   0  0  0  0  0  0  0  0  0  0  0  0
   -2.6883   -1.0159    0.4914 H   0  0  0  0  0  0  0  0  0  0  0  0
   -1.1332   -1.0034    1.4248 H   0  0  0  0  0  0  0  0  0  0  0  0
   -1.3187   -2.0851   -0.0077 H   0  0  0  0  0  0  0  0  0  0  0  0
   -1.4772   -0.1012   -1.5092 H   0  0  0  0  0  0  0  0  0  0  0  0
    1.4400   -1.6312    0.3613 H   0  0  0  0  0  0  0  0  0  0  0  0
    0.4332   -0.1281   -0.4804 H   0  0  0  0  0  0  0  0  0  0  0  0
   -0.7491    2.2971   -0.8490 H   0  0  0  0  0  0  0  0  0  0  0  0
    3.2482    2.0668    0.1366 H   0  0  0  0  0  0  0  0  0  0  0  0
  1  5  1  0
  1 13  1  0
  2  3  1  0
  2 14  1  0
  3  6  2  3
  4  5  1  0
  4  7  1  0
  4  8  1  0
  4  9  1  0
  5 10  1  0
  6 11  1  0
  6 12  1  0
M  RAD  1   5   2
M  END
>  <reaction>  (25) 
rmg_rxn_15491

>  <mol_properties>  (25) 
{"1": {"label": "*4", "atom_type": "N3d"}, "2": {"label": "*3", "atom_type": "Cd"}, "6": {"label": "*1", "atom_type": "Cs"}, "7": {"label": "*0", "atom_type": "S2s"}, "11": {"label": "*2", "atom_type": "H0"}}

>  <type>  (25) 
unop_21

>  <geom_source>  (25) 
AutoTST

$$$$

     RDKit          3D

 14 12  0  0  0  0  0  0  0  0999 V2000
    2.8307   -1.6360    0.6531 O   0  0  0  0  0  0  0  0  0  0  0  0
    1.7230   -1.2523   -0.0770 N   0  0  0  0  0  0  0  0  0  0  0  0
    0.6769   -1.2298    0.6292 C   0  0  0  0  0  0  0  0  0  0  0  0
    3.5408   -1.6111    0.0087 H   0  0  0  0  0  0  0  0  0  0  0  0
    0.6771   -1.4872    1.6863 H   0  0  0  0  0  0  0  0  0  0  0  0
   -1.3395    0.1239   -1.8342 C   0  0  0  0  0  0  0  0  0  0  0  0
   -1.3395    0.1239   -0.3155 C   0  0  0  0  0  3  0  0  0  0  0  0
   -1.3395    1.7812    0.4294 S   0  0  0  0  0  0  0  0  0  0  0  0
   -0.4329    0.5893   -2.2250 H   0  0  0  0  0  0  0  0  0  0  0  0
   -2.1955    0.6751   -2.2243 H   0  0  0  0  0  0  0  0  0  0  0  0
   -1.3826   -0.8995   -2.2145 H   0  0  0  0  0  0  0  0  0  0  0  0
   -0.3276   -0.5555    0.1586 H   0  0  0  0  0  0  0  0  0  0  0  0
   -2.2471   -0.3432    0.0696 H   0  0  0  0  0  0  0  0  0  0  0  0
   -0.1647    2.1829   -0.0741 H   0  0  0  0  0  0  0  0  0  0  0  0
  1  2  1  0
  1  4  1  0
  2  3  2  3
  3  5  1  0
  3 12  1  0
  6  7  1  0
  6  9  1  0
  6 10  1  0
  6 11  1  0
  7  8  1  0
  7 13  1  0
  8 14  1  0
M  RAD  1   7   2
M  END
>  <reaction>  (26) 
rmg_rxn_15491

>  <mol_properties>  (26) 
{"1": {"label": "*4", "atom_type": "N3d"}, "2": {"label": "*3", "atom_type": "Cd"}, "6": {"label": "*1", "atom_type": "Cs"}, "7": {"label": "*0", "atom_type": "S2s"}, "11": {"label": "*2", "atom_type": "H0"}}

>  <type>  (26) 
unop_22

>  <geom_source>  (26) 
gaussian_log

$$$$
