
     RDKit          3D

  9  8  0  0  0  0  0  0  0  0999 V2000
   -0.9895    0.3048    0.1041 C   0  0  0  0  0  0  0  0  0  0  0  0
    0.3761   -0.3562    0.0721 C   0  0  0  0  0  0  0  0  0  0  0  0
    0.3441   -1.6564   -0.4834 O   0  0  0  0  0  0  0  0  0  0  0  0
   -1.6997   -0.3114    0.6572 H   0  0  0  0  0  0  0  0  0  0  0  0
   -0.9320    1.2848    0.5822 H   0  0  0  0  0  0  0  0  0  0  0  0
   -1.3774    0.4507   -0.9077 H   0  0  0  0  0  0  0  0  0  0  0  0
    0.7581   -0.4813    1.0862 H   0  0  0  0  0  0  0  0  0  0  0  0
    1.0900    0.2787   -0.4681 H   0  0  0  0  0  0  0  0  0  0  0  0
    0.0089   -1.5959   -1.3792 H   0  0  0  0  0  0  0  0  0  0  0  0
  1  2  1  0
  1  4  1  0
  1  5  1  0
  1  6  1  0
  2  3  1  0
  2  7  1  0
  2  8  1  0
  3  9  1  0
M  END
>  <reaction>  (1) 
rmg_rxn_391

>  <mol_properties>  (1) 
{"2": {"label": "donator", "atom_type": "O2s"}, "8": {"label": "d_hydrogen", "atom_type": "H0"}}

>  <type>  (1) 
r1h

$$$$

     RDKit          3D

  9  8  0  0  0  0  0  0  0  0999 V2000
    1.3246   -0.8124   -0.0809 C   0  0  0  0  0  2  0  0  0  0  0  0
    0.4082    0.3080    0.1518 C   0  0  0  0  0  0  0  0  0  0  0  0
   -1.0545   -0.0277   -0.1520 C   0  0  0  0  0  0  0  0  0  0  0  0
    2.3933   -0.9471    0.0203 H   0  0  0  0  0  0  0  0  0  0  0  0
    0.4898    0.6406    1.1970 H   0  0  0  0  0  0  0  0  0  0  0  0
    0.7134    1.1680   -0.4624 H   0  0  0  0  0  0  0  0  0  0  0  0
   -1.4014   -0.8515    0.4727 H   0  0  0  0  0  0  0  0  0  0  0  0
   -1.1767   -0.3214   -1.1952 H   0  0  0  0  0  0  0  0  0  0  0  0
   -1.6915    0.8372    0.0370 H   0  0  0  0  0  0  0  0  0  0  0  0
  1  2  1  0
  1  4  1  0
  2  3  1  0
  2  5  1  0
  2  6  1  0
  3  7  1  0
  3  8  1  0
  3  9  1  0
M  RAD  1   1   3
M  END
>  <reaction>  (2) 
rmg_rxn_391

>  <mol_properties>  (2) 
{"0": {"label": "acceptor", "atom_type": "Cs"}}

>  <type>  (2) 
r2

$$$$

     RDKit          3D

 10  9  0  0  0  0  0  0  0  0999 V2000
    1.4352    0.2660   -0.1351 C   0  0  0  0  0  3  0  0  0  0  0  0
    0.2236   -0.3243    0.4850 C   0  0  0  0  0  0  0  0  0  0  0  0
   -0.8893    0.6872    0.7364 C   0  0  0  0  0  0  0  0  0  0  0  0
    2.3577   -0.2958   -0.1940 H   0  0  0  0  0  0  0  0  0  0  0  0
    1.3935    1.2286   -0.6287 H   0  0  0  0  0  0  0  0  0  0  0  0
   -0.1633   -1.1318   -0.1556 H   0  0  0  0  0  0  0  0  0  0  0  0
    0.4945   -0.8215    1.4240 H   0  0  0  0  0  0  0  0  0  0  0  0
   -1.1991    1.1627   -0.1967 H   0  0  0  0  0  0  0  0  0  0  0  0
   -1.7660    0.2103    1.1768 H   0  0  0  0  0  0  0  0  0  0  0  0
   -0.5545    1.4732    1.4159 H   0  0  0  0  0  0  0  0  0  0  0  0
  1  2  1  0
  1  4  1  0
  1  5  1  0
  2  3  1  0
  2  6  1  0
  2  7  1  0
  3  8  1  0
  3  9  1  0
  3 10  1  0
M  RAD  1   1   2
M  END
>  <reaction>  (3) 
rmg_rxn_391

>  <mol_properties>  (3) 
{"0": {"label": "a_hydrogen", "atom_type": "H0"}, "1": {"label": "acceptor", "atom_type": "Cs"}}

>  <type>  (3) 
r2h

$$$$

     RDKit          3D

 18 16  0  0  0  0  0  0  0  0999 V2000
    1.0141   -1.5593   -1.0420 C   0  0  0  0  0  0  0  0  0  0  0  0
    0.6147   -1.9418    0.3719 C   0  0  0  0  0  0  0  0  0  0  0  0
    0.4854   -0.8521    1.2383 O   0  0  0  0  0  0  0  0  0  0  0  0
    1.9272   -0.9626   -1.0330 H   0  0  0  0  0  0  0  0  0  0  0  0
    1.1828   -2.4506   -1.6501 H   0  0  0  0  0  0  0  0  0  0  0  0
    0.2230   -0.9693   -1.5101 H   0  0  0  0  0  0  0  0  0  0  0  0
    1.3966   -2.5607    0.8296 H   0  0  0  0  0  0  0  0  0  0  0  0
   -0.2992   -2.5501    0.3630 H   0  0  0  0  0  0  0  0  0  0  0  0
   -0.4818   -0.2121    0.8925 H   0  0  0  0  0  0  0  0  0  0  0  0
   -1.4689    0.4175    0.3900 C   0  0  0  0  0  2  0  0  0  0  0  0
   -1.2459    1.8354    0.0498 C   0  0  0  0  0  0  0  0  0  0  0  0
    0.1141    2.1068   -0.5945 C   0  0  0  0  0  0  0  0  0  0  0  0
   -2.4194   -0.0926    0.4888 H   0  0  0  0  0  0  0  0  0  0  0  0
   -2.0495    2.1701   -0.6168 H   0  0  0  0  0  0  0  0  0  0  0  0
   -1.3362    2.4485    0.9587 H   0  0  0  0  0  0  0  0  0  0  0  0
    0.2033    1.5859   -1.5488 H   0  0  0  0  0  0  0  0  0  0  0  0
    0.9201    1.7582    0.0520 H   0  0  0  0  0  0  0  0  0  0  0  0
    0.2494    3.1741   -0.7733 H   0  0  0  0  0  0  0  0  0  0  0  0
  1  2  1  0
  1  4  1  0
  1  5  1  0
  1  6  1  0
  2  3  1  0
  2  7  1  0
  2  8  1  0
  3  9  1  0
 10 11  1  0
 10 13  1  0
 11 12  1  0
 11 14  1  0
 11 15  1  0
 12 16  1  0
 12 17  1  0
 12 18  1  0
M  RAD  1  10   3
M  END
>  <reaction>  (4) 
rmg_rxn_391

>  <mol_properties>  (4) 
{"1": {"label": "*0", "atom_type": "Cs"}, "2": {"label": "*1", "atom_type": "O2s"}, "8": {"label": "*2", "atom_type": "H0"}, "9": {"label": "*3", "atom_type": "Cs"}, "10": {"label": "*4", "atom_type": "Cs"}}

>  <type>  (4) 
ts

$$$$

     RDKit          3D

 18 16  0  0  0  0  0  0  0  0999 V2000
    1.4178   -1.4240   -1.6956 C   0  0  0  0  0  0  0  0  0  0  0  0
    1.4178   -1.4240   -0.1781 C   0  0  0  0  0  0  0  0  0  0  0  0
    1.4178   -0.1208    0.3713 O   0  0  0  0  0  0  0  0  0  0  0  0
    2.2739   -0.8665   -2.0779 H   0  0  0  0  0  0  0  0  0  0  0  0
    1.4662   -2.4446   -2.0808 H   0  0  0  0  0  0  0  0  0  0  0  0
    0.5064   -0.9639   -2.0868 H   0  0  0  0  0  0  0  0  0  0  0  0
    2.3243   -1.8997    0.1988 H   0  0  0  0  0  0  0  0  0  0  0  0
    0.5656   -2.0037    0.1992 H   0  0  0  0  0  0  0  0  0  0  0  0
    0.4795    0.4312    0.0004 H   0  0  0  0  0  0  0  0  0  0  0  0
   -0.5804    1.0547   -0.4186 C   0  0  0  0  0  2  0  0  0  0  0  0
   -1.5900    1.5679    0.5397 C   0  0  0  0  0  0  0  0  0  0  0  0
   -2.2742    0.4735    1.3515 C   0  0  0  0  0  0  0  0  0  0  0  0
   -0.1609    1.6986   -1.1798 H   0  0  0  0  0  0  0  0  0  0  0  0
   -1.1151    2.2826    1.2293 H   0  0  0  0  0  0  0  0  0  0  0  0
   -2.3416    2.1587    0.0028 H   0  0  0  0  0  0  0  0  0  0  0  0
   -1.5420   -0.0992    1.9248 H   0  0  0  0  0  0  0  0  0  0  0  0
   -2.8041   -0.2221    0.6982 H   0  0  0  0  0  0  0  0  0  0  0  0
   -2.9955    0.8936    2.0540 H   0  0  0  0  0  0  0  0  0  0  0  0
  1  2  1  0
  1  4  1  0
  1  5  1  0
  1  6  1  0
  2  3  1  0
  2  7  1  0
  2  8  1  0
  3  9  1  0
 10 11  1  0
 10 13  1  0
 11 12  1  0
 11 14  1  0
 11 15  1  0
 12 16  1  0
 12 17  1  0
 12 18  1  0
M  RAD  1  10   3
M  END
>  <reaction>  (5) 
rmg_rxn_391

>  <mol_properties>  (5) 
{"1": {"label": "*0", "atom_type": "Cs"}, "2": {"label": "*1", "atom_type": "O2s"}, "8": {"label": "*2", "atom_type": "H0"}, "9": {"label": "*3", "atom_type": "Cs"}, "10": {"label": "*4", "atom_type": "Cs"}}

>  <type>  (5) 
unop_1

>  <geom_source>  (5) 
Heuristics

$$$$

     RDKit          3D

 18 16  0  0  0  0  0  0  0  0999 V2000
    1.3454   -0.9552   -1.0343 C   0  0  0  0  0  0  0  0  0  0  0  0
    1.3454   -0.9552    0.4832 C   0  0  0  0  0  0  0  0  0  0  0  0
    1.3454    0.3480    1.0325 O   0  0  0  0  0  0  0  0  0  0  0  0
    2.2014   -0.3977   -1.4167 H   0  0  0  0  0  0  0  0  0  0  0  0
    1.3938   -1.9758   -1.4196 H   0  0  0  0  0  0  0  0  0  0  0  0
    0.4340   -0.4951   -1.4255 H   0  0  0  0  0  0  0  0  0  0  0  0
    2.2519   -1.4309    0.8600 H   0  0  0  0  0  0  0  0  0  0  0  0
    0.4932   -1.5349    0.8605 H   0  0  0  0  0  0  0  0  0  0  0  0
    0.4071    0.9000    0.6616 H   0  0  0  0  0  0  0  0  0  0  0  0
   -0.6528    1.5235    0.2427 C   0  0  0  0  0  2  0  0  0  0  0  0
   -1.8991    0.7813   -0.0685 C   0  0  0  0  0  0  0  0  0  0  0  0
   -1.6553   -0.5932   -0.6819 C   0  0  0  0  0  0  0  0  0  0  0  0
   -0.6829    2.5728    0.5038 H   0  0  0  0  0  0  0  0  0  0  0  0
   -2.4982    0.6643    0.8476 H   0  0  0  0  0  0  0  0  0  0  0  0
   -2.5288    1.3810   -0.7365 H   0  0  0  0  0  0  0  0  0  0  0  0
   -1.0628   -1.2180   -0.0100 H   0  0  0  0  0  0  0  0  0  0  0  0
   -1.1111   -0.5079   -1.6243 H   0  0  0  0  0  0  0  0  0  0  0  0
   -2.5948   -1.1111   -0.8797 H   0  0  0  0  0  0  0  0  0  0  0  0
  1  2  1  0
  1  4  1  0
  1  5  1  0
  1  6  1  0
  2  3  1  0
  2  7  1  0
  2  8  1  0
  3  9  1  0
 10 11  1  0
 10 13  1  0
 11 12  1  0
 11 14  1  0
 11 15  1  0
 12 16  1  0
 12 17  1  0
 12 18  1  0
M  RAD  1  10   3
M  END
>  <reaction>  (6) 
rmg_rxn_391

>  <mol_properties>  (6) 
{"1": {"label": "*0", "atom_type": "Cs"}, "2": {"label": "*1", "atom_type": "O2s"}, "8": {"label": "*2", "atom_type": "H0"}, "9": {"label": "*3", "atom_type": "Cs"}, "10": {"label": "*4", "atom_type": "Cs"}}

>  <type>  (6) 
unop_2

>  <geom_source>  (6) 
Heuristics

$$$$

     RDKit          3D

 18 16  0  0  0  0  0  0  0  0999 V2000
    1.2428   -1.7055   -1.7493 C   0  0  0  0  0  0  0  0  0  0  0  0
    1.2428   -1.7055   -0.2318 C   0  0  0  0  0  0  0  0  0  0  0  0
    1.2428   -0.4023    0.3175 O   0  0  0  0  0  0  0  0  0  0  0  0
    2.0988   -1.1480   -2.1316 H   0  0  0  0  0  0  0  0  0  0  0  0
    1.2912   -2.7261   -2.1345 H   0  0  0  0  0  0  0  0  0  0  0  0
    0.3313   -1.2453   -2.1405 H   0  0  0  0  0  0  0  0  0  0  0  0
    2.1493   -2.1812    0.1451 H   0  0  0  0  0  0  0  0  0  0  0  0
    0.3906   -2.2852    0.1455 H   0  0  0  0  0  0  0  0  0  0  0  0
    0.3044    0.1497   -0.0534 H   0  0  0  0  0  0  0  0  0  0  0  0
   -0.7554    0.7732   -0.4723 C   0  0  0  0  0  2  0  0  0  0  0  0
   -1.4002    1.8203    0.3576 C   0  0  0  0  0  0  0  0  0  0  0  0
   -1.7641    1.3497    1.7616 C   0  0  0  0  0  0  0  0  0  0  0  0
   -0.6187    0.9149   -1.5360 H   0  0  0  0  0  0  0  0  0  0  0  0
   -0.7346    2.6939    0.4331 H   0  0  0  0  0  0  0  0  0  0  0  0
   -2.2946    2.1968   -0.1527 H   0  0  0  0  0  0  0  0  0  0  0  0
   -0.8762    1.0089    2.2985 H   0  0  0  0  0  0  0  0  0  0  0  0
   -2.4699    0.5180    1.7226 H   0  0  0  0  0  0  0  0  0  0  0  0
   -2.2196    2.1527    2.3429 H   0  0  0  0  0  0  0  0  0  0  0  0
  1  2  1  0
  1  4  1  0
  1  5  1  0
  1  6  1  0
  2  3  1  0
  2  7  1  0
  2  8  1  0
  3  9  1  0
 10 11  1  0
 10 13  1  0
 11 12  1  0
 11 14  1  0
 11 15  1  0
 12 16  1  0
 12 17  1  0
 12 18  1  0
M  RAD  1  10   3
M  END
>  <reaction>  (7) 
rmg_rxn_391

>  <mol_properties>  (7) 
{"1": {"label": "*0", "atom_type": "Cs"}, "2": {"label": "*1", "atom_type": "O2s"}, "8": {"label": "*2", "atom_type": "H0"}, "9": {"label": "*3", "atom_type": "Cs"}, "10": {"label": "*4", "atom_type": "Cs"}}

>  <type>  (7) 
unop_3

>  <geom_source>  (7) 
Heuristics

$$$$

     RDKit          3D

 18 16  0  0  0  0  0  0  0  0999 V2000
    0.8958   -1.3652   -0.6056 C   0  0  0  0  0  0  0  0  0  0  0  0
    0.8958   -1.3652    0.9119 C   0  0  0  0  0  0  0  0  0  0  0  0
    0.8958   -0.0620    1.4613 O   0  0  0  0  0  0  0  0  0  0  0  0
    1.7518   -0.8077   -0.9879 H   0  0  0  0  0  0  0  0  0  0  0  0
    0.9442   -2.3858   -0.9908 H   0  0  0  0  0  0  0  0  0  0  0  0
   -0.0157   -0.9051   -0.9968 H   0  0  0  0  0  0  0  0  0  0  0  0
    1.8022   -1.8409    1.2888 H   0  0  0  0  0  0  0  0  0  0  0  0
    0.0436   -1.9449    1.2892 H   0  0  0  0  0  0  0  0  0  0  0  0
   -0.0426    0.4900    1.0904 H   0  0  0  0  0  0  0  0  0  0  0  0
   -1.1024    1.1135    0.6714 C   0  0  0  0  0  2  0  0  0  0  0  0
   -1.3346    1.3307   -0.7776 C   0  0  0  0  0  0  0  0  0  0  0  0
   -0.4416    0.4799   -1.6742 C   0  0  0  0  0  0  0  0  0  0  0  0
   -1.5306    1.7804    1.4076 H   0  0  0  0  0  0  0  0  0  0  0  0
   -2.3883    1.1218   -1.0185 H   0  0  0  0  0  0  0  0  0  0  0  0
   -1.2008    2.3921   -1.0178 H   0  0  0  0  0  0  0  0  0  0  0  0
   -0.5930   -0.5832   -1.4755 H   0  0  0  0  0  0  0  0  0  0  0  0
    0.6122    0.7050   -1.5000 H   0  0  0  0  0  0  0  0  0  0  0  0
   -0.6553    0.6575   -2.7292 H   0  0  0  0  0  0  0  0  0  0  0  0
  1  2  1  0
  1  4  1  0
  1  5  1  0
  1  6  1  0
  2  3  1  0
  2  7  1  0
  2  8  1  0
  3  9  1  0
 10 11  1  0
 10 13  1  0
 11 12  1  0
 11 14  1  0
 11 15  1  0
 12 16  1  0
 12 17  1  0
 12 18  1  0
M  RAD  1  10   3
M  END
>  <reaction>  (8) 
rmg_rxn_391

>  <mol_properties>  (8) 
{"1": {"label": "*0", "atom_type": "Cs"}, "2": {"label": "*1", "atom_type": "O2s"}, "8": {"label": "*2", "atom_type": "H0"}, "9": {"label": "*3", "atom_type": "Cs"}, "10": {"label": "*4", "atom_type": "Cs"}}

>  <type>  (8) 
unop_4

>  <geom_source>  (8) 
Heuristics

$$$$

     RDKit          3D

 18 16  0  0  0  0  0  0  0  0999 V2000
    0.9299   -1.9721   -1.5822 C   0  0  0  0  0  0  0  0  0  0  0  0
    0.9299   -1.9721   -0.0647 C   0  0  0  0  0  0  0  0  0  0  0  0
    0.9299   -0.6689    0.4846 O   0  0  0  0  0  0  0  0  0  0  0  0
    1.7860   -1.4145   -1.9645 H   0  0  0  0  0  0  0  0  0  0  0  0
    0.9784   -2.9926   -1.9674 H   0  0  0  0  0  0  0  0  0  0  0  0
    0.0185   -1.5119   -1.9734 H   0  0  0  0  0  0  0  0  0  0  0  0
    1.8364   -2.4478    0.3122 H   0  0  0  0  0  0  0  0  0  0  0  0
    0.0778   -2.5518    0.3126 H   0  0  0  0  0  0  0  0  0  0  0  0
   -0.0084   -0.1169    0.1138 H   0  0  0  0  0  0  0  0  0  0  0  0
   -1.0683    0.5066   -0.3052 C   0  0  0  0  0  2  0  0  0  0  0  0
   -1.3418    1.9049    0.1083 C   0  0  0  0  0  0  0  0  0  0  0  0
   -0.5559    2.3435    1.3391 C   0  0  0  0  0  0  0  0  0  0  0  0
   -1.6905    0.0140   -1.0402 H   0  0  0  0  0  0  0  0  0  0  0  0
   -1.1146    2.5878   -0.7248 H   0  0  0  0  0  0  0  0  0  0  0  0
   -2.4160    2.0335    0.2867 H   0  0  0  0  0  0  0  0  0  0  0  0
    0.5187    2.2597    1.1630 H   0  0  0  0  0  0  0  0  0  0  0  0
   -0.8021    1.7200    2.2006 H   0  0  0  0  0  0  0  0  0  0  0  0
   -0.7732    3.3804    1.5991 H   0  0  0  0  0  0  0  0  0  0  0  0
  1  2  1  0
  1  4  1  0
  1  5  1  0
  1  6  1  0
  2  3  1  0
  2  7  1  0
  2  8  1  0
  3  9  1  0
 10 11  1  0
 10 13  1  0
 11 12  1  0
 11 14  1  0
 11 15  1  0
 12 16  1  0
 12 17  1  0
 12 18  1  0
M  RAD  1  10   3
M  END
>  <reaction>  (9) 
rmg_rxn_391

>  <mol_properties>  (9) 
{"1": {"label": "*0", "atom_type": "Cs"}, "2": {"label": "*1", "atom_type": "O2s"}, "8": {"label": "*2", "atom_type": "H0"}, "9": {"label": "*3", "atom_type": "Cs"}, "10": {"label": "*4", "atom_type": "Cs"}}

>  <type>  (9) 
unop_5

>  <geom_source>  (9) 
Heuristics

$$$$

     RDKit          3D

 18 16  0  0  0  0  0  0  0  0999 V2000
    0.7767   -1.6253   -0.6589 C   0  0  0  0  0  0  0  0  0  0  0  0
    0.7767   -1.6253    0.8586 C   0  0  0  0  0  0  0  0  0  0  0  0
    0.7767   -0.3221    1.4079 O   0  0  0  0  0  0  0  0  0  0  0  0
    1.6328   -1.0677   -1.0412 H   0  0  0  0  0  0  0  0  0  0  0  0
    0.8252   -2.6459   -1.0441 H   0  0  0  0  0  0  0  0  0  0  0  0
   -0.1347   -1.1651   -1.0501 H   0  0  0  0  0  0  0  0  0  0  0  0
    1.6832   -2.1010    1.2355 H   0  0  0  0  0  0  0  0  0  0  0  0
   -0.0755   -2.2050    1.2359 H   0  0  0  0  0  0  0  0  0  0  0  0
   -0.1616    0.2299    1.0370 H   0  0  0  0  0  0  0  0  0  0  0  0
   -1.2215    0.8534    0.6181 C   0  0  0  0  0  2  0  0  0  0  0  0
   -1.1930    1.6441   -0.6368 C   0  0  0  0  0  0  0  0  0  0  0  0
   -0.1091    1.2018   -1.6138 C   0  0  0  0  0  0  0  0  0  0  0  0
   -1.8105    1.1787    1.4651 H   0  0  0  0  0  0  0  0  0  0  0  0
   -2.1726    1.5818   -1.1352 H   0  0  0  0  0  0  0  0  0  0  0  0
   -1.0699    2.7077   -0.4001 H   0  0  0  0  0  0  0  0  0  0  0  0
   -0.2417    0.1539   -1.8915 H   0  0  0  0  0  0  0  0  0  0  0  0
    0.8821    1.3058   -1.1685 H   0  0  0  0  0  0  0  0  0  0  0  0
   -0.1332    1.7965   -2.5280 H   0  0  0  0  0  0  0  0  0  0  0  0
  1  2  1  0
  1  4  1  0
  1  5  1  0
  1  6  1  0
  2  3  1  0
  2  7  1  0
  2  8  1  0
  3  9  1  0
 10 11  1  0
 10 13  1  0
 11 12  1  0
 11 14  1  0
 11 15  1  0
 12 16  1  0
 12 17  1  0
 12 18  1  0
M  RAD  1  10   3
M  END
>  <reaction>  (10) 
rmg_rxn_391

>  <mol_properties>  (10) 
{"1": {"label": "*0", "atom_type": "Cs"}, "2": {"label": "*1", "atom_type": "O2s"}, "8": {"label": "*2", "atom_type": "H0"}, "9": {"label": "*3", "atom_type": "Cs"}, "10": {"label": "*4", "atom_type": "Cs"}}

>  <type>  (10) 
unop_6

>  <geom_source>  (10) 
Heuristics

$$$$

     RDKit          3D

 18 16  0  0  0  0  0  0  0  0999 V2000
    0.7133   -1.8688   -0.8459 C   0  0  0  0  0  0  0  0  0  0  0  0
    0.7133   -1.8688    0.6716 C   0  0  0  0  0  0  0  0  0  0  0  0
    0.7133   -0.5656    1.2210 O   0  0  0  0  0  0  0  0  0  0  0  0
    1.5694   -1.3113   -1.2282 H   0  0  0  0  0  0  0  0  0  0  0  0
    0.7618   -2.8894   -1.2311 H   0  0  0  0  0  0  0  0  0  0  0  0
   -0.1981   -1.4087   -1.2371 H   0  0  0  0  0  0  0  0  0  0  0  0
    1.6198   -2.3445    1.0485 H   0  0  0  0  0  0  0  0  0  0  0  0
   -0.1388   -2.4485    1.0489 H   0  0  0  0  0  0  0  0  0  0  0  0
   -0.2250   -0.0136    0.8501 H   0  0  0  0  0  0  0  0  0  0  0  0
   -1.2849    0.6099    0.4311 C   0  0  0  0  0  2  0  0  0  0  0  0
   -1.1697    1.8601   -0.3591 C   0  0  0  0  0  0  0  0  0  0  0  0
    0.1262    1.9625   -1.1561 C   0  0  0  0  0  0  0  0  0  0  0  0
   -2.0583    0.4958    1.1788 H   0  0  0  0  0  0  0  0  0  0  0  0
   -2.0232    1.9407   -1.0498 H   0  0  0  0  0  0  0  0  0  0  0  0
   -1.2682    2.7269    0.3051 H   0  0  0  0  0  0  0  0  0  0  0  0
    0.2199    1.1266   -1.8527 H   0  0  0  0  0  0  0  0  0  0  0  0
    0.9932    1.9431   -0.4933 H   0  0  0  0  0  0  0  0  0  0  0  0
    0.1634    2.8867   -1.7346 H   0  0  0  0  0  0  0  0  0  0  0  0
  1  2  1  0
  1  4  1  0
  1  5  1  0
  1  6  1  0
  2  3  1  0
  2  7  1  0
  2  8  1  0
  3  9  1  0
 10 11  1  0
 10 13  1  0
 11 12  1  0
 11 14  1  0
 11 15  1  0
 12 16  1  0
 12 17  1  0
 12 18  1  0
M  RAD  1  10   3
M  END
>  <reaction>  (11) 
rmg_rxn_391

>  <mol_properties>  (11) 
{"1": {"label": "*0", "atom_type": "Cs"}, "2": {"label": "*1", "atom_type": "O2s"}, "8": {"label": "*2", "atom_type": "H0"}, "9": {"label": "*3", "atom_type": "Cs"}, "10": {"label": "*4", "atom_type": "Cs"}}

>  <type>  (11) 
unop_7

>  <geom_source>  (11) 
Heuristics

$$$$

     RDKit          3D

 18 16  0  0  0  0  0  0  0  0999 V2000
    1.4826   -1.1786   -1.5255 C   0  0  0  0  0  0  0  0  0  0  0  0
    1.4826   -1.1786   -0.0080 C   0  0  0  0  0  0  0  0  0  0  0  0
    1.4826    0.1246    0.5413 O   0  0  0  0  0  0  0  0  0  0  0  0
    2.3387   -0.6210   -1.9078 H   0  0  0  0  0  0  0  0  0  0  0  0
    1.5310   -2.1991   -1.9108 H   0  0  0  0  0  0  0  0  0  0  0  0
    0.5712   -0.7184   -1.9167 H   0  0  0  0  0  0  0  0  0  0  0  0
    2.3891   -1.6543    0.3688 H   0  0  0  0  0  0  0  0  0  0  0  0
    0.6304   -1.7583    0.3693 H   0  0  0  0  0  0  0  0  0  0  0  0
    0.5443    0.6766    0.1704 H   0  0  0  0  0  0  0  0  0  0  0  0
   -0.5156    1.3001   -0.2485 C   0  0  0  0  0  2  0  0  0  0  0  0
   -1.7858    1.2398    0.5156 C   0  0  0  0  0  0  0  0  0  0  0  0
   -2.3295   -0.1743    0.6873 C   0  0  0  0  0  0  0  0  0  0  0  0
   -0.1245    2.2454   -0.6002 H   0  0  0  0  0  0  0  0  0  0  0  0
   -1.6414    1.6919    1.5089 H   0  0  0  0  0  0  0  0  0  0  0  0
   -2.5387    1.8722    0.0304 H   0  0  0  0  0  0  0  0  0  0  0  0
   -1.6064   -0.8073    1.2062 H   0  0  0  0  0  0  0  0  0  0  0  0
   -2.5379   -0.6315   -0.2817 H   0  0  0  0  0  0  0  0  0  0  0  0
   -3.2533   -0.1758    1.2675 H   0  0  0  0  0  0  0  0  0  0  0  0
  1  2  1  0
  1  4  1  0
  1  5  1  0
  1  6  1  0
  2  3  1  0
  2  7  1  0
  2  8  1  0
  3  9  1  0
 10 11  1  0
 10 13  1  0
 11 12  1  0
 11 14  1  0
 11 15  1  0
 12 16  1  0
 12 17  1  0
 12 18  1  0
M  RAD  1  10   3
M  END
>  <reaction>  (12) 
rmg_rxn_391

>  <mol_properties>  (12) 
{"1": {"label": "*0", "atom_type": "Cs"}, "2": {"label": "*1", "atom_type": "O2s"}, "8": {"label": "*2", "atom_type": "H0"}, "9": {"label": "*3", "atom_type": "Cs"}, "10": {"label": "*4", "atom_type": "Cs"}}

>  <type>  (12) 
unop_8

>  <geom_source>  (12) 
Heuristics

$$$$

     RDKit          3D

 18 16  0  0  0  0  0  0  0  0999 V2000
    1.0430   -1.1462   -0.6698 C   0  0  0  0  0  0  0  0  0  0  0  0
    1.0430   -1.1462    0.8477 C   0  0  0  0  0  0  0  0  0  0  0  0
    1.0430    0.1570    1.3971 O   0  0  0  0  0  0  0  0  0  0  0  0
    1.8991   -0.5886   -1.0521 H   0  0  0  0  0  0  0  0  0  0  0  0
    1.0914   -2.1667   -1.0550 H   0  0  0  0  0  0  0  0  0  0  0  0
    0.1316   -0.6860   -1.0610 H   0  0  0  0  0  0  0  0  0  0  0  0
    1.9495   -1.6219    1.2246 H   0  0  0  0  0  0  0  0  0  0  0  0
    0.1908   -1.7259    1.2250 H   0  0  0  0  0  0  0  0  0  0  0  0
    0.1047    0.7090    1.0262 H   0  0  0  0  0  0  0  0  0  0  0  0
   -0.9552    1.3325    0.6072 C   0  0  0  0  0  2  0  0  0  0  0  0
   -1.5522    1.0159   -0.7135 C   0  0  0  0  0  0  0  0  0  0  0  0
   -0.8053   -0.0723   -1.4770 C   0  0  0  0  0  0  0  0  0  0  0  0
   -1.2708    2.2050    1.1635 H   0  0  0  0  0  0  0  0  0  0  0  0
   -2.6002    0.7063   -0.5807 H   0  0  0  0  0  0  0  0  0  0  0  0
   -1.6073    1.9267   -1.3214 H   0  0  0  0  0  0  0  0  0  0  0  0
   -0.7767   -0.9999   -0.9012 H   0  0  0  0  0  0  0  0  0  0  0  0
    0.2250    0.2287   -1.6754 H   0  0  0  0  0  0  0  0  0  0  0  0
   -1.2852   -0.2860   -2.4331 H   0  0  0  0  0  0  0  0  0  0  0  0
  1  2  1  0
  1  4  1  0
  1  5  1  0
  1  6  1  0
  2  3  1  0
  2  7  1  0
  2  8  1  0
  3  9  1  0
 10 11  1  0
 10 13  1  0
 11 12  1  0
 11 14  1  0
 11 15  1  0
 12 16  1  0
 12 17  1  0
 12 18  1  0
M  RAD  1  10   3
M  END
>  <reaction>  (13) 
rmg_rxn_391

>  <mol_properties>  (13) 
{"1": {"label": "*0", "atom_type": "Cs"}, "2": {"label": "*1", "atom_type": "O2s"}, "8": {"label": "*2", "atom_type": "H0"}, "9": {"label": "*3", "atom_type": "Cs"}, "10": {"label": "*4", "atom_type": "Cs"}}

>  <type>  (13) 
unop_9

>  <geom_source>  (13) 
Heuristics

$$$$

     RDKit          3D

 18 16  0  0  0  0  0  0  0  0999 V2000
    1.4519   -1.0135   -1.2855 C   0  0  0  0  0  0  0  0  0  0  0  0
    1.4519   -1.0135    0.2320 C   0  0  0  0  0  0  0  0  0  0  0  0
    1.4519    0.2897    0.7813 O   0  0  0  0  0  0  0  0  0  0  0  0
    2.3079   -0.4559   -1.6679 H   0  0  0  0  0  0  0  0  0  0  0  0
    1.5003   -2.0341   -1.6708 H   0  0  0  0  0  0  0  0  0  0  0  0
    0.5404   -0.5533   -1.6767 H   0  0  0  0  0  0  0  0  0  0  0  0
    2.3583   -1.4892    0.6088 H   0  0  0  0  0  0  0  0  0  0  0  0
    0.5997   -1.5932    0.6093 H   0  0  0  0  0  0  0  0  0  0  0  0
    0.5135    0.8417    0.4104 H   0  0  0  0  0  0  0  0  0  0  0  0
   -0.5464    1.4652   -0.0085 C   0  0  0  0  0  2  0  0  0  0  0  0
   -1.9032    0.9454    0.2909 C   0  0  0  0  0  0  0  0  0  0  0  0
   -2.0806   -0.5310   -0.0465 C   0  0  0  0  0  0  0  0  0  0  0  0
   -0.3438    2.5277    0.0070 H   0  0  0  0  0  0  0  0  0  0  0  0
   -2.1313    1.0999    1.3568 H   0  0  0  0  0  0  0  0  0  0  0  0
   -2.6529    1.5421   -0.2420 H   0  0  0  0  0  0  0  0  0  0  0  0
   -1.3668   -1.1439    0.5082 H   0  0  0  0  0  0  0  0  0  0  0  0
   -1.9168   -0.7094   -1.1109 H   0  0  0  0  0  0  0  0  0  0  0  0
   -3.0846   -0.8766    0.2037 H   0  0  0  0  0  0  0  0  0  0  0  0
  1  2  1  0
  1  4  1  0
  1  5  1  0
  1  6  1  0
  2  3  1  0
  2  7  1  0
  2  8  1  0
  3  9  1  0
 10 11  1  0
 10 13  1  0
 11 12  1  0
 11 14  1  0
 11 15  1  0
 12 16  1  0
 12 17  1  0
 12 18  1  0
M  RAD  1  10   3
M  END
>  <reaction>  (14) 
rmg_rxn_391

>  <mol_properties>  (14) 
{"1": {"label": "*0", "atom_type": "Cs"}, "2": {"label": "*1", "atom_type": "O2s"}, "8": {"label": "*2", "atom_type": "H0"}, "9": {"label": "*3", "atom_type": "Cs"}, "10": {"label": "*4", "atom_type": "Cs"}}

>  <type>  (14) 
unop_10

>  <geom_source>  (14) 
Heuristics

$$$$

     RDKit          3D

 18 16  0  0  0  0  0  0  0  0999 V2000
    0.7348   -2.0242   -1.1662 C   0  0  0  0  0  0  0  0  0  0  0  0
    0.7348   -2.0242    0.3514 C   0  0  0  0  0  0  0  0  0  0  0  0
    0.7348   -0.7210    0.9007 O   0  0  0  0  0  0  0  0  0  0  0  0
    1.5909   -1.4667   -1.5485 H   0  0  0  0  0  0  0  0  0  0  0  0
    0.7832   -3.0448   -1.5514 H   0  0  0  0  0  0  0  0  0  0  0  0
   -0.1766   -1.5640   -1.5573 H   0  0  0  0  0  0  0  0  0  0  0  0
    1.6413   -2.4999    0.7282 H   0  0  0  0  0  0  0  0  0  0  0  0
   -0.1174   -2.6039    0.7286 H   0  0  0  0  0  0  0  0  0  0  0  0
   -0.2035   -0.1690    0.5298 H   0  0  0  0  0  0  0  0  0  0  0  0
   -1.2634    0.4545    0.1108 C   0  0  0  0  0  2  0  0  0  0  0  0
   -1.2588    1.9271   -0.0687 C   0  0  0  0  0  0  0  0  0  0  0  0
    0.1397    2.5266   -0.1679 C   0  0  0  0  0  0  0  0  0  0  0  0
   -2.1713   -0.0684    0.3802 H   0  0  0  0  0  0  0  0  0  0  0  0
   -1.8274    2.1908   -0.9738 H   0  0  0  0  0  0  0  0  0  0  0  0
   -1.8099    2.4007    0.7523 H   0  0  0  0  0  0  0  0  0  0  0  0
    0.6883    2.0940   -1.0074 H   0  0  0  0  0  0  0  0  0  0  0  0
    0.7122    2.3312    0.7407 H   0  0  0  0  0  0  0  0  0  0  0  0
    0.0981    3.6067   -0.3157 H   0  0  0  0  0  0  0  0  0  0  0  0
  1  2  1  0
  1  4  1  0
  1  5  1  0
  1  6  1  0
  2  3  1  0
  2  7  1  0
  2  8  1  0
  3  9  1  0
 10 11  1  0
 10 13  1  0
 11 12  1  0
 11 14  1  0
 11 15  1  0
 12 16  1  0
 12 17  1  0
 12 18  1  0
M  RAD  1  10   3
M  END
>  <reaction>  (15) 
rmg_rxn_391

>  <mol_properties>  (15) 
{"1": {"label": "*0", "atom_type": "Cs"}, "2": {"label": "*1", "atom_type": "O2s"}, "8": {"label": "*2", "atom_type": "H0"}, "9": {"label": "*3", "atom_type": "Cs"}, "10": {"label": "*4", "atom_type": "Cs"}}

>  <type>  (15) 
unop_11

>  <geom_source>  (15) 
Heuristics

$$$$

     RDKit          3D

 18 16  0  0  0  0  0  0  0  0999 V2000
    1.1986   -1.0037   -0.8207 C   0  0  0  0  0  0  0  0  0  0  0  0
    1.1986   -1.0037    0.6969 C   0  0  0  0  0  0  0  0  0  0  0  0
    1.1986    0.2995    1.2462 O   0  0  0  0  0  0  0  0  0  0  0  0
    2.0546   -0.4461   -1.2030 H   0  0  0  0  0  0  0  0  0  0  0  0
    1.2470   -2.0243   -1.2059 H   0  0  0  0  0  0  0  0  0  0  0  0
    0.2872   -0.5435   -1.2118 H   0  0  0  0  0  0  0  0  0  0  0  0
    2.1051   -1.4794    1.0737 H   0  0  0  0  0  0  0  0  0  0  0  0
    0.3464   -1.5834    1.0741 H   0  0  0  0  0  0  0  0  0  0  0  0
    0.2603    0.8515    0.8753 H   0  0  0  0  0  0  0  0  0  0  0  0
   -0.7996    1.4750    0.4564 C   0  0  0  0  0  2  0  0  0  0  0  0
   -1.7678    0.8072   -0.4479 C   0  0  0  0  0  0  0  0  0  0  0  0
   -1.2032   -0.4259   -1.1449 C   0  0  0  0  0  0  0  0  0  0  0  0
   -1.0067    2.4555    0.8636 H   0  0  0  0  0  0  0  0  0  0  0  0
   -2.6656    0.5188    0.1201 H   0  0  0  0  0  0  0  0  0  0  0  0
   -2.1305    1.5238   -1.1943 H   0  0  0  0  0  0  0  0  0  0  0  0
   -0.8743   -1.1678   -0.4141 H   0  0  0  0  0  0  0  0  0  0  0  0
   -0.3431   -0.1635   -1.7638 H   0  0  0  0  0  0  0  0  0  0  0  0
   -1.9505   -0.8954   -1.7861 H   0  0  0  0  0  0  0  0  0  0  0  0
  1  2  1  0
  1  4  1  0
  1  5  1  0
  1  6  1  0
  2  3  1  0
  2  7  1  0
  2  8  1  0
  3  9  1  0
 10 11  1  0
 10 13  1  0
 11 12  1  0
 11 14  1  0
 11 15  1  0
 12 16  1  0
 12 17  1  0
 12 18  1  0
M  RAD  1  10   3
M  END
>  <reaction>  (16) 
rmg_rxn_391

>  <mol_properties>  (16) 
{"1": {"label": "*0", "atom_type": "Cs"}, "2": {"label": "*1", "atom_type": "O2s"}, "8": {"label": "*2", "atom_type": "H0"}, "9": {"label": "*3", "atom_type": "Cs"}, "10": {"label": "*4", "atom_type": "Cs"}}

>  <type>  (16) 
unop_12

>  <geom_source>  (16) 
Heuristics

$$$$

     RDKit          3D

 18 16  0  0  0  0  0  0  0  0999 V2000
   -0.9991   -0.4330    0.3120 O   0  0  0  0  0  0  0  0  0  0  0  0
    2.2954   -0.4985   -0.6754 C   0  0  0  0  0  0  0  0  0  0  0  0
    2.9053    0.1019    0.5867 C   0  0  0  0  0  0  0  0  0  0  0  0
   -2.3066   -0.4744   -0.1731 C   0  0  0  0  0  0  0  0  0  0  0  0
   -3.1568    0.5624    0.5442 C   0  0  0  0  0  0  0  0  0  0  0  0
    0.9325    0.1114   -0.9728 C   0  0  0  0  0  2  0  0  0  0  0  0
    2.1790   -1.5951   -0.5439 H   0  0  0  0  0  0  0  0  0  0  0  0
    2.9719   -0.3163   -1.5374 H   0  0  0  0  0  0  0  0  0  0  0  0
    3.0442    1.1974    0.4647 H   0  0  0  0  0  0  0  0  0  0  0  0
    2.2485   -0.0899    1.4619 H   0  0  0  0  0  0  0  0  0  0  0  0
    3.8957   -0.3625    0.7775 H   0  0  0  0  0  0  0  0  0  0  0  0
   -2.7282   -1.4875   -0.0032 H   0  0  0  0  0  0  0  0  0  0  0  0
   -2.2994   -0.2640   -1.2634 H   0  0  0  0  0  0  0  0  0  0  0  0
   -2.7424    1.5786    0.3727 H   0  0  0  0  0  0  0  0  0  0  0  0
   -3.1719    0.3532    1.6349 H   0  0  0  0  0  0  0  0  0  0  0  0
   -4.1966    0.5272    0.1562 H   0  0  0  0  0  0  0  0  0  0  0  0
    1.0203    1.2046   -1.1499 H   0  0  0  0  0  0  0  0  0  0  0  0
    0.1081   -0.1155    0.0083 H   0  0  0  0  0  0  0  0  0  0  0  0
  1  4  1  0
  1 18  1  0
  2  6  1  0
  2  3  1  0
  2  7  1  0
  2  8  1  0
  3  9  1  0
  3 10  1  0
  3 11  1  0
  4  5  1  0
  4 12  1  0
  4 13  1  0
  5 14  1  0
  5 15  1  0
  5 16  1  0
  6 17  1  0
M  RAD  1   6   3
M  END
>  <reaction>  (17) 
rmg_rxn_391

>  <mol_properties>  (17) 
{"1": {"label": "*0", "atom_type": "Cs"}, "2": {"label": "*1", "atom_type": "O2s"}, "8": {"label": "*2", "atom_type": "H0"}, "9": {"label": "*3", "atom_type": "Cs"}, "10": {"label": "*4", "atom_type": "Cs"}}

>  <type>  (17) 
unop_13

>  <geom_source>  (17) 
AutoTST

$$$$

     RDKit          3D

 18 16  0  0  0  0  0  0  0  0999 V2000
    1.3454   -0.9552   -1.0343 C   0  0  0  0  0  0  0  0  0  0  0  0
    1.3454   -0.9552    0.4832 C   0  0  0  0  0  0  0  0  0  0  0  0
    1.3454    0.3480    1.0325 O   0  0  0  0  0  0  0  0  0  0  0  0
    2.2014   -0.3977   -1.4167 H   0  0  0  0  0  0  0  0  0  0  0  0
    1.3938   -1.9758   -1.4196 H   0  0  0  0  0  0  0  0  0  0  0  0
    0.4340   -0.4951   -1.4255 H   0  0  0  0  0  0  0  0  0  0  0  0
    2.2519   -1.4309    0.8600 H   0  0  0  0  0  0  0  0  0  0  0  0
    0.4932   -1.5350    0.8605 H   0  0  0  0  0  0  0  0  0  0  0  0
    0.4071    0.9000    0.6616 H   0  0  0  0  0  0  0  0  0  0  0  0
   -0.6528    1.5234    0.2427 C   0  0  0  0  0  2  0  0  0  0  0  0
   -1.8991    0.7813   -0.0685 C   0  0  0  0  0  0  0  0  0  0  0  0
   -1.6553   -0.5932   -0.6819 C   0  0  0  0  0  0  0  0  0  0  0  0
   -0.6829    2.5728    0.5038 H   0  0  0  0  0  0  0  0  0  0  0  0
   -2.4982    0.6643    0.8476 H   0  0  0  0  0  0  0  0  0  0  0  0
   -2.5288    1.3810   -0.7365 H   0  0  0  0  0  0  0  0  0  0  0  0
   -1.0628   -1.2180   -0.0100 H   0  0  0  0  0  0  0  0  0  0  0  0
   -1.1111   -0.5079   -1.6243 H   0  0  0  0  0  0  0  0  0  0  0  0
   -2.5948   -1.1111   -0.8797 H   0  0  0  0  0  0  0  0  0  0  0  0
  1  2  1  0
  1  4  1  0
  1  5  1  0
  1  6  1  0
  2  3  1  0
  2  7  1  0
  2  8  1  0
  3  9  1  0
 10 11  1  0
 10 13  1  0
 11 12  1  0
 11 14  1  0
 11 15  1  0
 12 16  1  0
 12 17  1  0
 12 18  1  0
M  RAD  1  10   3
M  END
>  <reaction>  (18) 
rmg_rxn_391

>  <mol_properties>  (18) 
{"1": {"label": "*0", "atom_type": "Cs"}, "2": {"label": "*1", "atom_type": "O2s"}, "8": {"label": "*2", "atom_type": "H0"}, "9": {"label": "*3", "atom_type": "Cs"}, "10": {"label": "*4", "atom_type": "Cs"}}

>  <type>  (18) 
unop_14

>  <geom_source>  (18) 
gaussian_log

$$$$
