
     RDKit          3D

  9  9  0  0  0  0  0  0  0  0999 V2000
    1.1178    0.0251    0.0062 C   0  0  0  0  0  0  0  0  0  0  0  0
   -0.3279   -0.3139    0.1785 C   0  0  0  0  0  0  0  0  0  0  0  0
   -0.7053   -1.0901    1.3173 N   0  0  0  0  0  0  0  0  0  0  0  0
   -1.0350    0.3361    1.1839 O   0  0  0  0  0  0  0  0  0  0  0  0
    1.6209   -0.7545   -0.5686 H   0  0  0  0  0  0  0  0  0  0  0  0
    1.5927    0.1144    0.9820 H   0  0  0  0  0  0  0  0  0  0  0  0
    1.2207    0.9683   -0.5327 H   0  0  0  0  0  0  0  0  0  0  0  0
   -0.8945   -0.4615   -0.7417 H   0  0  0  0  0  0  0  0  0  0  0  0
   -1.5832   -1.5647    1.1026 H   0  0  0  0  0  0  0  0  0  0  0  0
  1  2  1  0
  1  5  1  0
  1  6  1  0
  1  7  1  0
  2  3  1  0
  2  4  1  0
  2  8  1  0
  3  4  1  0
  3  9  1  0
M  END
>  <reaction>  (1) 
rmg_rxn_16633

>  <mol_properties>  (1) 
{"2": {"label": "donator", "atom_type": "N3s"}, "8": {"label": "d_hydrogen", "atom_type": "H0"}}

>  <type>  (1) 
r1h

$$$$

     RDKit          3D

  7  6  0  0  0  0  0  0  0  0999 V2000
   -0.6441   -0.1356    0.0624 C   0  0  0  0  0  0  0  0  0  0  0  0
    0.8523    0.0148   -0.0333 C   0  0  0  0  0  0  0  0  0  0  0  0
    1.6700   -0.6077    0.6603 N   0  0  0  0  0  2  0  0  0  0  0  0
   -1.0940    0.8275    0.3091 H   0  0  0  0  0  0  0  0  0  0  0  0
   -0.9104   -0.8656    0.8237 H   0  0  0  0  0  0  0  0  0  0  0  0
   -1.0427   -0.4545   -0.9022 H   0  0  0  0  0  0  0  0  0  0  0  0
    1.2362    0.7308   -0.7748 H   0  0  0  0  0  0  0  0  0  0  0  0
  1  2  1  0
  1  4  1  0
  1  5  1  0
  1  6  1  0
  2  3  2  0
  2  7  1  0
M  RAD  1   3   2
M  END
>  <reaction>  (2) 
rmg_rxn_16633

>  <mol_properties>  (2) 
{"2": {"label": "acceptor", "atom_type": "N3d"}}

>  <type>  (2) 
r2

$$$$

     RDKit          3D

  8  7  0  0  0  0  0  0  0  0999 V2000
    0.9548    0.1194   -0.0790 C   0  0  0  0  0  0  0  0  0  0  0  0
   -0.4838   -0.2649    0.0193 C   0  0  0  0  0  0  0  0  0  0  0  0
   -0.8933   -1.1081    0.8664 N   0  0  0  0  0  0  0  0  0  0  0  0
    1.3360   -0.0983   -1.0800 H   0  0  0  0  0  0  0  0  0  0  0  0
    1.0698    1.1948    0.0786 H   0  0  0  0  0  0  0  0  0  0  0  0
    1.5426   -0.4219    0.6602 H   0  0  0  0  0  0  0  0  0  0  0  0
   -1.1575    0.2324   -0.6905 H   0  0  0  0  0  0  0  0  0  0  0  0
   -1.8989   -1.2455    0.7886 H   0  0  0  0  0  0  0  0  0  0  0  0
  1  2  1  0
  1  4  1  0
  1  5  1  0
  1  6  1  0
  2  3  2  3
  2  7  1  0
  3  8  1  0
M  END
>  <reaction>  (3) 
rmg_rxn_16633

>  <mol_properties>  (3) 
{"2": {"label": "acceptor", "atom_type": "N3d"}, "7": {"label": "a_hydrogen", "atom_type": "H0"}}

>  <type>  (3) 
r2h

$$$$

     RDKit          3D

 16 15  0  0  0  0  0  0  0  0999 V2000
    1.3821   -0.9649    2.9670 C   0  0  0  0  0  0  0  0  0  0  0  0
    0.6770   -0.4124    1.7624 C   0  0  0  0  0  0  0  0  0  0  0  0
    0.9071    0.7219    1.2917 N   0  0  0  0  0  2  0  0  0  0  0  0
    0.6509   -1.1984    3.7435 H   0  0  0  0  0  0  0  0  0  0  0  0
    2.1077   -0.2514    3.3521 H   0  0  0  0  0  0  0  0  0  0  0  0
    1.8875   -1.8964    2.7035 H   0  0  0  0  0  0  0  0  0  0  0  0
   -0.0803   -1.0616    1.2910 H   0  0  0  0  0  0  0  0  0  0  0  0
   -0.4124   -0.1520   -2.9886 C   0  0  0  0  0  0  0  0  0  0  0  0
   -0.1193   -0.1934   -1.5237 C   0  0  0  0  0  0  0  0  0  0  0  0
   -0.6102    0.8438   -0.6839 N   0  0  0  0  0  0  0  0  0  0  0  0
   -1.1829   -0.4641   -0.6450 O   0  0  0  0  0  0  0  0  0  0  0  0
    0.3784    0.3926   -3.5075 H   0  0  0  0  0  0  0  0  0  0  0  0
   -1.3643    0.3464   -3.1653 H   0  0  0  0  0  0  0  0  0  0  0  0
   -0.4536   -1.1639   -3.3952 H   0  0  0  0  0  0  0  0  0  0  0  0
    0.8220   -0.6576   -1.2293 H   0  0  0  0  0  0  0  0  0  0  0  0
    0.1291    0.9311    0.2843 H   0  0  0  0  0  0  0  0  0  0  0  0
  1  2  1  0
  1  4  1  0
  1  5  1  0
  1  6  1  0
  2  3  2  0
  2  7  1  0
  8  9  1  0
  8 12  1  0
  8 13  1  0
  8 14  1  0
  9 10  1  0
  9 11  1  0
  9 15  1  0
 10 11  1  0
 10 16  1  0
M  RAD  1   3   2
M  END
>  <reaction>  (4) 
rmg_rxn_16633

>  <mol_properties>  (4) 
{"1": {"label": "*4", "atom_type": "Cd"}, "2": {"label": "*3", "atom_type": "N3d"}, "9": {"label": "*1", "atom_type": "N3s"}, "10": {"label": "*0", "atom_type": "O2s"}, "15": {"label": "*2", "atom_type": "H0"}}

>  <type>  (4) 
ts

$$$$

     RDKit          3D

 16 15  0  0  0  0  0  0  0  0999 V2000
    2.6568    0.9454   -0.2213 C   0  0  0  0  0  0  0  0  0  0  0  0
    2.4507   -0.4972    0.1184 C   0  0  0  0  0  0  0  0  0  0  0  0
    1.4061   -1.1628    0.0829 N   0  0  0  0  0  0  0  0  0  0  0  0
    3.0672    1.4650    0.6432 H   0  0  0  0  0  0  0  0  0  0  0  0
    1.7190    1.4090   -0.5158 H   0  0  0  0  0  0  0  0  0  0  0  0
    3.3762    1.0240   -1.0351 H   0  0  0  0  0  0  0  0  0  0  0  0
    3.3589   -1.0168    0.4402 H   0  0  0  0  0  0  0  0  0  0  0  0
   -3.0819   -0.1650   -0.2739 C   0  0  0  0  0  0  0  0  0  0  0  0
   -1.6805   -0.2896    0.2571 C   0  0  0  0  0  0  0  0  0  0  0  0
   -0.5988    0.1145   -0.5456 N   0  0  0  0  0  2  0  0  0  0  0  0
   -0.9769    0.8722    0.5588 O   0  0  0  0  0  0  0  0  0  0  0  0
   -3.1442    0.6805   -0.9546 H   0  0  0  0  0  0  0  0  0  0  0  0
   -3.7779   -0.0168    0.5484 H   0  0  0  0  0  0  0  0  0  0  0  0
   -3.3456   -1.0755   -0.8056 H   0  0  0  0  0  0  0  0  0  0  0  0
   -1.5101   -1.1173    0.9471 H   0  0  0  0  0  0  0  0  0  0  0  0
    0.4314   -0.5523   -0.2818 H   0  0  0  0  0  0  0  0  0  0  0  0
  1  2  1  0
  1  4  1  0
  1  5  1  0
  1  6  1  0
  2  3  2  3
  2  7  1  0
  3 16  1  0
  8  9  1  0
  8 12  1  0
  8 13  1  0
  8 14  1  0
  9 10  1  0
  9 11  1  0
  9 15  1  0
 10 11  1  0
M  RAD  1  10   2
M  END
>  <reaction>  (5) 
rmg_rxn_16633

>  <mol_properties>  (5) 
{"1": {"label": "*4", "atom_type": "Cd"}, "2": {"label": "*3", "atom_type": "N3d"}, "9": {"label": "*1", "atom_type": "N3s"}, "10": {"label": "*0", "atom_type": "O2s"}, "15": {"label": "*2", "atom_type": "H0"}}

>  <type>  (5) 
unop_1

>  <geom_source>  (5) 
crest_best.xyz

$$$$

     RDKit          3D

 16 15  0  0  0  0  0  0  0  0999 V2000
    1.6824    1.4440    2.9100 C   0  0  0  0  0  0  0  0  0  0  0  0
    1.4252    0.7054    1.6390 C   0  0  0  0  0  0  0  0  0  0  0  0
    0.3917   -0.0028    1.4757 N   0  0  0  0  0  0  0  0  0  0  0  0
    2.6289    1.1198    3.3500 H   0  0  0  0  0  0  0  0  0  0  0  0
    0.8738    1.2720    3.6181 H   0  0  0  0  0  0  0  0  0  0  0  0
    1.7736    2.5151    2.7122 H   0  0  0  0  0  0  0  0  0  0  0  0
    2.1908    0.8190    0.8607 H   0  0  0  0  0  0  0  0  0  0  0  0
   -0.5522   -0.9384   -2.9248 C   0  0  0  0  0  0  0  0  0  0  0  0
   -0.5522   -0.9384   -1.4300 C   0  0  0  0  0  0  0  0  0  0  0  0
   -0.5522    0.3226   -0.7578 N   0  0  0  0  0  2  0  0  0  0  0  0
   -1.7225   -0.5666   -0.7776 O   0  0  0  0  0  0  0  0  0  0  0  0
    0.4724   -0.9277   -3.3009 H   0  0  0  0  0  0  0  0  0  0  0  0
   -1.0783   -0.0585   -3.2920 H   0  0  0  0  0  0  0  0  0  0  0  0
   -1.0455   -1.8364   -3.3003 H   0  0  0  0  0  0  0  0  0  0  0  0
   -0.0188   -1.7624   -0.9545 H   0  0  0  0  0  0  0  0  0  0  0  0
   -0.0796    0.1597    0.3606 H   0  0  0  0  0  0  0  0  0  0  0  0
  1  2  1  0
  1  4  1  0
  1  5  1  0
  1  6  1  0
  2  3  2  3
  2  7  1  0
  3 16  1  0
  8  9  1  0
  8 12  1  0
  8 13  1  0
  8 14  1  0
  9 10  1  0
  9 11  1  0
  9 15  1  0
 10 11  1  0
M  RAD  1  10   2
M  END
>  <reaction>  (6) 
rmg_rxn_16633

>  <mol_properties>  (6) 
{"1": {"label": "*4", "atom_type": "Cd"}, "2": {"label": "*3", "atom_type": "N3d"}, "9": {"label": "*1", "atom_type": "N3s"}, "10": {"label": "*0", "atom_type": "O2s"}, "15": {"label": "*2", "atom_type": "H0"}}

>  <type>  (6) 
unop_2

>  <geom_source>  (6) 
Heuristics

$$$$

     RDKit          3D

 16 15  0  0  0  0  0  0  0  0999 V2000
    2.1913   -0.4848    2.6375 C   0  0  0  0  0  0  0  0  0  0  0  0
    1.1768   -0.3389    1.5527 C   0  0  0  0  0  0  0  0  0  0  0  0
    0.3336    0.6019    1.5493 N   0  0  0  0  0  0  0  0  0  0  0  0
    2.0806   -1.4543    3.1299 H   0  0  0  0  0  0  0  0  0  0  0  0
    2.0782    0.3114    3.3712 H   0  0  0  0  0  0  0  0  0  0  0  0
    3.2000   -0.4544    2.2175 H   0  0  0  0  0  0  0  0  0  0  0  0
    1.2134   -1.1005    0.7631 H   0  0  0  0  0  0  0  0  0  0  0  0
   -0.6103   -0.3337   -2.8513 C   0  0  0  0  0  0  0  0  0  0  0  0
   -0.6103   -0.3337   -1.3564 C   0  0  0  0  0  0  0  0  0  0  0  0
   -0.6103    0.9273   -0.6842 N   0  0  0  0  0  2  0  0  0  0  0  0
   -1.7806    0.0381   -0.7040 O   0  0  0  0  0  0  0  0  0  0  0  0
    0.4144   -0.3230   -3.2273 H   0  0  0  0  0  0  0  0  0  0  0  0
   -1.1364    0.5462   -3.2184 H   0  0  0  0  0  0  0  0  0  0  0  0
   -1.1035   -1.2317   -3.2267 H   0  0  0  0  0  0  0  0  0  0  0  0
   -0.0769   -1.1577   -0.8809 H   0  0  0  0  0  0  0  0  0  0  0  0
   -0.1377    0.7644    0.4341 H   0  0  0  0  0  0  0  0  0  0  0  0
  1  2  1  0
  1  4  1  0
  1  5  1  0
  1  6  1  0
  2  3  2  3
  2  7  1  0
  3 16  1  0
  8  9  1  0
  8 12  1  0
  8 13  1  0
  8 14  1  0
  9 10  1  0
  9 11  1  0
  9 15  1  0
 10 11  1  0
M  RAD  1  10   2
M  END
>  <reaction>  (7) 
rmg_rxn_16633

>  <mol_properties>  (7) 
{"1": {"label": "*4", "atom_type": "Cd"}, "2": {"label": "*3", "atom_type": "N3d"}, "9": {"label": "*1", "atom_type": "N3s"}, "10": {"label": "*0", "atom_type": "O2s"}, "15": {"label": "*2", "atom_type": "H0"}}

>  <type>  (7) 
unop_3

>  <geom_source>  (7) 
Heuristics

$$$$

     RDKit          3D

 16 15  0  0  0  0  0  0  0  0999 V2000
    1.1950    1.3645    3.2296 C   0  0  0  0  0  0  0  0  0  0  0  0
    1.1341    1.0019    1.7833 C   0  0  0  0  0  0  0  0  0  0  0  0
    0.5497   -0.0436    1.3811 N   0  0  0  0  0  0  0  0  0  0  0  0
    2.2354    1.4423    3.5557 H   0  0  0  0  0  0  0  0  0  0  0  0
    0.6804    0.6160    3.8296 H   0  0  0  0  0  0  0  0  0  0  0  0
    0.7361    2.3429    3.3931 H   0  0  0  0  0  0  0  0  0  0  0  0
    1.6287    1.7016    1.0973 H   0  0  0  0  0  0  0  0  0  0  0  0
   -0.3941   -0.9792   -3.0195 C   0  0  0  0  0  0  0  0  0  0  0  0
   -0.3941   -0.9792   -1.5246 C   0  0  0  0  0  0  0  0  0  0  0  0
   -0.3941    0.2818   -0.8524 N   0  0  0  0  0  2  0  0  0  0  0  0
   -1.5645   -0.6074   -0.8722 O   0  0  0  0  0  0  0  0  0  0  0  0
    0.6305   -0.9685   -3.3955 H   0  0  0  0  0  0  0  0  0  0  0  0
   -0.9203   -0.0993   -3.3866 H   0  0  0  0  0  0  0  0  0  0  0  0
   -0.8874   -1.8773   -3.3949 H   0  0  0  0  0  0  0  0  0  0  0  0
    0.1393   -1.8032   -1.0491 H   0  0  0  0  0  0  0  0  0  0  0  0
    0.0785    0.1189    0.2659 H   0  0  0  0  0  0  0  0  0  0  0  0
  1  2  1  0
  1  4  1  0
  1  5  1  0
  1  6  1  0
  2  3  2  3
  2  7  1  0
  3 16  1  0
  8  9  1  0
  8 12  1  0
  8 13  1  0
  8 14  1  0
  9 10  1  0
  9 11  1  0
  9 15  1  0
 10 11  1  0
M  RAD  1  10   2
M  END
>  <reaction>  (8) 
rmg_rxn_16633

>  <mol_properties>  (8) 
{"1": {"label": "*4", "atom_type": "Cd"}, "2": {"label": "*3", "atom_type": "N3d"}, "9": {"label": "*1", "atom_type": "N3s"}, "10": {"label": "*0", "atom_type": "O2s"}, "15": {"label": "*2", "atom_type": "H0"}}

>  <type>  (8) 
unop_4

>  <geom_source>  (8) 
Heuristics

$$$$

     RDKit          3D

 16 15  0  0  0  0  0  0  0  0999 V2000
    0.1009   -0.1802    3.4446 C   0  0  0  0  0  0  0  0  0  0  0  0
    0.2632   -0.2983    1.9658 C   0  0  0  0  0  0  0  0  0  0  0  0
    0.9467    0.5305    1.3009 N   0  0  0  0  0  0  0  0  0  0  0  0
   -0.9576   -0.0907    3.7021 H   0  0  0  0  0  0  0  0  0  0  0  0
    0.6410    0.6886    3.8166 H   0  0  0  0  0  0  0  0  0  0  0  0
    0.4735   -1.0813    3.9383 H   0  0  0  0  0  0  0  0  0  0  0  0
   -0.2488   -1.1494    1.4986 H   0  0  0  0  0  0  0  0  0  0  0  0
    0.0028   -0.4051   -3.0997 C   0  0  0  0  0  0  0  0  0  0  0  0
    0.0028   -0.4051   -1.6048 C   0  0  0  0  0  0  0  0  0  0  0  0
    0.0028    0.8559   -0.9326 N   0  0  0  0  0  2  0  0  0  0  0  0
   -1.1675   -0.0333   -0.9525 O   0  0  0  0  0  0  0  0  0  0  0  0
    1.0275   -0.3944   -3.4757 H   0  0  0  0  0  0  0  0  0  0  0  0
   -0.5233    0.4748   -3.4668 H   0  0  0  0  0  0  0  0  0  0  0  0
   -0.4904   -1.3031   -3.4751 H   0  0  0  0  0  0  0  0  0  0  0  0
    0.5362   -1.2291   -1.1294 H   0  0  0  0  0  0  0  0  0  0  0  0
    0.4754    0.6930    0.1857 H   0  0  0  0  0  0  0  0  0  0  0  0
  1  2  1  0
  1  4  1  0
  1  5  1  0
  1  6  1  0
  2  3  2  3
  2  7  1  0
  3 16  1  0
  8  9  1  0
  8 12  1  0
  8 13  1  0
  8 14  1  0
  9 10  1  0
  9 11  1  0
  9 15  1  0
 10 11  1  0
M  RAD  1  10   2
M  END
>  <reaction>  (9) 
rmg_rxn_16633

>  <mol_properties>  (9) 
{"1": {"label": "*4", "atom_type": "Cd"}, "2": {"label": "*3", "atom_type": "N3d"}, "9": {"label": "*1", "atom_type": "N3s"}, "10": {"label": "*0", "atom_type": "O2s"}, "15": {"label": "*2", "atom_type": "H0"}}

>  <type>  (9) 
unop_5

>  <geom_source>  (9) 
Heuristics

$$$$

     RDKit          3D

 16 15  0  0  0  0  0  0  0  0999 V2000
    1.1956    1.1520    3.3568 C   0  0  0  0  0  0  0  0  0  0  0  0
    0.6658    1.0734    1.9639 C   0  0  0  0  0  0  0  0  0  0  0  0
    0.6403   -0.0131    1.3196 N   0  0  0  0  0  0  0  0  0  0  0  0
    2.0277    1.8591    3.4048 H   0  0  0  0  0  0  0  0  0  0  0  0
    1.5313    0.1715    3.6901 H   0  0  0  0  0  0  0  0  0  0  0  0
    0.4225    1.5235    4.0342 H   0  0  0  0  0  0  0  0  0  0  0  0
    0.3022    2.0185    1.5404 H   0  0  0  0  0  0  0  0  0  0  0  0
   -0.3036   -0.9487   -3.0810 C   0  0  0  0  0  0  0  0  0  0  0  0
   -0.3036   -0.9487   -1.5862 C   0  0  0  0  0  0  0  0  0  0  0  0
   -0.3036    0.3122   -0.9139 N   0  0  0  0  0  2  0  0  0  0  0  0
   -1.4739   -0.5769   -0.9338 O   0  0  0  0  0  0  0  0  0  0  0  0
    0.7211   -0.9380   -3.4570 H   0  0  0  0  0  0  0  0  0  0  0  0
   -0.8297   -0.0688   -3.4481 H   0  0  0  0  0  0  0  0  0  0  0  0
   -0.7968   -1.8468   -3.4564 H   0  0  0  0  0  0  0  0  0  0  0  0
    0.2299   -1.7727   -1.1107 H   0  0  0  0  0  0  0  0  0  0  0  0
    0.1691    0.1493    0.2044 H   0  0  0  0  0  0  0  0  0  0  0  0
  1  2  1  0
  1  4  1  0
  1  5  1  0
  1  6  1  0
  2  3  2  3
  2  7  1  0
  3 16  1  0
  8  9  1  0
  8 12  1  0
  8 13  1  0
  8 14  1  0
  9 10  1  0
  9 11  1  0
  9 15  1  0
 10 11  1  0
M  RAD  1  10   2
M  END
>  <reaction>  (10) 
rmg_rxn_16633

>  <mol_properties>  (10) 
{"1": {"label": "*4", "atom_type": "Cd"}, "2": {"label": "*3", "atom_type": "N3d"}, "9": {"label": "*1", "atom_type": "N3s"}, "10": {"label": "*0", "atom_type": "O2s"}, "15": {"label": "*2", "atom_type": "H0"}}

>  <type>  (10) 
unop_6

>  <geom_source>  (10) 
Heuristics

$$$$

     RDKit          3D

 16 15  0  0  0  0  0  0  0  0999 V2000
    0.0710    0.6015    3.4782 C   0  0  0  0  0  0  0  0  0  0  0  0
    0.0849    0.0202    2.1038 C   0  0  0  0  0  0  0  0  0  0  0  0
    0.9875    0.3058    1.2671 N   0  0  0  0  0  0  0  0  0  0  0  0
   -0.8576    1.1532    3.6453 H   0  0  0  0  0  0  0  0  0  0  0  0
    0.9204    1.2682    3.6158 H   0  0  0  0  0  0  0  0  0  0  0  0
    0.1068   -0.1954    4.2254 H   0  0  0  0  0  0  0  0  0  0  0  0
   -0.7378   -0.6682    1.8713 H   0  0  0  0  0  0  0  0  0  0  0  0
    0.0436   -0.6298   -3.1334 C   0  0  0  0  0  0  0  0  0  0  0  0
    0.0436   -0.6298   -1.6386 C   0  0  0  0  0  0  0  0  0  0  0  0
    0.0436    0.6311   -0.9664 N   0  0  0  0  0  2  0  0  0  0  0  0
   -1.1267   -0.2580   -0.9862 O   0  0  0  0  0  0  0  0  0  0  0  0
    1.0682   -0.6192   -3.5095 H   0  0  0  0  0  0  0  0  0  0  0  0
   -0.4825    0.2500   -3.5006 H   0  0  0  0  0  0  0  0  0  0  0  0
   -0.4496   -1.5279   -3.5089 H   0  0  0  0  0  0  0  0  0  0  0  0
    0.5770   -1.4538   -1.1631 H   0  0  0  0  0  0  0  0  0  0  0  0
    0.5162    0.4682    0.1520 H   0  0  0  0  0  0  0  0  0  0  0  0
  1  2  1  0
  1  4  1  0
  1  5  1  0
  1  6  1  0
  2  3  2  3
  2  7  1  0
  3 16  1  0
  8  9  1  0
  8 12  1  0
  8 13  1  0
  8 14  1  0
  9 10  1  0
  9 11  1  0
  9 15  1  0
 10 11  1  0
M  RAD  1  10   2
M  END
>  <reaction>  (11) 
rmg_rxn_16633

>  <mol_properties>  (11) 
{"1": {"label": "*4", "atom_type": "Cd"}, "2": {"label": "*3", "atom_type": "N3d"}, "9": {"label": "*1", "atom_type": "N3s"}, "10": {"label": "*0", "atom_type": "O2s"}, "15": {"label": "*2", "atom_type": "H0"}}

>  <type>  (11) 
unop_7

>  <geom_source>  (11) 
Heuristics

$$$$

     RDKit          3D

 16 15  0  0  0  0  0  0  0  0999 V2000
    0.4748    1.1916    3.3835 C   0  0  0  0  0  0  0  0  0  0  0  0
    0.0726    0.4227    2.1694 C   0  0  0  0  0  0  0  0  0  0  0  0
    0.9056    0.1047    1.2742 N   0  0  0  0  0  0  0  0  0  0  0  0
   -0.0898    2.1256    3.4429 H   0  0  0  0  0  0  0  0  0  0  0  0
    1.5406    1.4114    3.3566 H   0  0  0  0  0  0  0  0  0  0  0  0
    0.2418    0.6207    4.2860 H   0  0  0  0  0  0  0  0  0  0  0  0
   -0.9899    0.1541    2.1080 H   0  0  0  0  0  0  0  0  0  0  0  0
   -0.0383   -0.8309   -3.1264 C   0  0  0  0  0  0  0  0  0  0  0  0
   -0.0383   -0.8309   -1.6315 C   0  0  0  0  0  0  0  0  0  0  0  0
   -0.0383    0.4300   -0.9593 N   0  0  0  0  0  2  0  0  0  0  0  0
   -1.2086   -0.4591   -0.9791 O   0  0  0  0  0  0  0  0  0  0  0  0
    0.9864   -0.8202   -3.5024 H   0  0  0  0  0  0  0  0  0  0  0  0
   -0.5644    0.0490   -3.4935 H   0  0  0  0  0  0  0  0  0  0  0  0
   -0.5315   -1.7290   -3.5018 H   0  0  0  0  0  0  0  0  0  0  0  0
    0.4952   -1.6549   -1.1560 H   0  0  0  0  0  0  0  0  0  0  0  0
    0.4344    0.2671    0.1590 H   0  0  0  0  0  0  0  0  0  0  0  0
  1  2  1  0
  1  4  1  0
  1  5  1  0
  1  6  1  0
  2  3  2  3
  2  7  1  0
  3 16  1  0
  8  9  1  0
  8 12  1  0
  8 13  1  0
  8 14  1  0
  9 10  1  0
  9 11  1  0
  9 15  1  0
 10 11  1  0
M  RAD  1  10   2
M  END
>  <reaction>  (12) 
rmg_rxn_16633

>  <mol_properties>  (12) 
{"1": {"label": "*4", "atom_type": "Cd"}, "2": {"label": "*3", "atom_type": "N3d"}, "9": {"label": "*1", "atom_type": "N3s"}, "10": {"label": "*0", "atom_type": "O2s"}, "15": {"label": "*2", "atom_type": "H0"}}

>  <type>  (12) 
unop_8

>  <geom_source>  (12) 
Heuristics

$$$$

     RDKit          3D

 16 15  0  0  0  0  0  0  0  0999 V2000
    2.2210    1.0509    2.6351 C   0  0  0  0  0  0  0  0  0  0  0  0
    1.5146    0.3190    1.5432 C   0  0  0  0  0  0  0  0  0  0  0  0
    0.2620    0.1541    1.5516 N   0  0  0  0  0  0  0  0  0  0  0  0
    2.9647    0.4020    3.1047 H   0  0  0  0  0  0  0  0  0  0  0  0
    1.5091    1.3913    3.3850 H   0  0  0  0  0  0  0  0  0  0  0  0
    2.7602    1.9095    2.2266 H   0  0  0  0  0  0  0  0  0  0  0  0
    2.1540   -0.0637    0.7373 H   0  0  0  0  0  0  0  0  0  0  0  0
   -0.6819   -0.7815   -2.8489 C   0  0  0  0  0  0  0  0  0  0  0  0
   -0.6819   -0.7815   -1.3541 C   0  0  0  0  0  0  0  0  0  0  0  0
   -0.6819    0.4795   -0.6819 N   0  0  0  0  0  2  0  0  0  0  0  0
   -1.8522   -0.4097   -0.7017 O   0  0  0  0  0  0  0  0  0  0  0  0
    0.3427   -0.7708   -3.2250 H   0  0  0  0  0  0  0  0  0  0  0  0
   -1.2080    0.0984   -3.2161 H   0  0  0  0  0  0  0  0  0  0  0  0
   -1.1752   -1.6796   -3.2244 H   0  0  0  0  0  0  0  0  0  0  0  0
   -0.1485   -1.6055   -0.8786 H   0  0  0  0  0  0  0  0  0  0  0  0
   -0.2093    0.3165    0.4365 H   0  0  0  0  0  0  0  0  0  0  0  0
  1  2  1  0
  1  4  1  0
  1  5  1  0
  1  6  1  0
  2  3  2  3
  2  7  1  0
  3 16  1  0
  8  9  1  0
  8 12  1  0
  8 13  1  0
  8 14  1  0
  9 10  1  0
  9 11  1  0
  9 15  1  0
 10 11  1  0
M  RAD  1  10   2
M  END
>  <reaction>  (13) 
rmg_rxn_16633

>  <mol_properties>  (13) 
{"1": {"label": "*4", "atom_type": "Cd"}, "2": {"label": "*3", "atom_type": "N3d"}, "9": {"label": "*1", "atom_type": "N3s"}, "10": {"label": "*0", "atom_type": "O2s"}, "15": {"label": "*2", "atom_type": "H0"}}

>  <type>  (13) 
unop_9

>  <geom_source>  (13) 
Heuristics

$$$$

     RDKit          3D

 16 15  0  0  0  0  0  0  0  0999 V2000
    2.6568    0.9454   -0.2213 C   0  0  0  0  0  0  0  0  0  0  0  0
    2.4507   -0.4972    0.1184 C   0  0  0  0  0  0  0  0  0  0  0  0
    1.4061   -1.1628    0.0829 N   0  0  0  0  0  0  0  0  0  0  0  0
    3.0672    1.4650    0.6432 H   0  0  0  0  0  0  0  0  0  0  0  0
    1.7190    1.4090   -0.5158 H   0  0  0  0  0  0  0  0  0  0  0  0
    3.3762    1.0240   -1.0351 H   0  0  0  0  0  0  0  0  0  0  0  0
    3.3589   -1.0168    0.4402 H   0  0  0  0  0  0  0  0  0  0  0  0
   -3.0819   -0.1650   -0.2739 C   0  0  0  0  0  0  0  0  0  0  0  0
   -1.6805   -0.2896    0.2571 C   0  0  0  0  0  0  0  0  0  0  0  0
   -0.5988    0.1145   -0.5456 N   0  0  0  0  0  2  0  0  0  0  0  0
   -0.9769    0.8722    0.5588 O   0  0  0  0  0  0  0  0  0  0  0  0
   -3.1442    0.6805   -0.9546 H   0  0  0  0  0  0  0  0  0  0  0  0
   -3.7779   -0.0168    0.5484 H   0  0  0  0  0  0  0  0  0  0  0  0
   -3.3456   -1.0755   -0.8056 H   0  0  0  0  0  0  0  0  0  0  0  0
   -1.5101   -1.1173    0.9471 H   0  0  0  0  0  0  0  0  0  0  0  0
    0.4314   -0.5523   -0.2818 H   0  0  0  0  0  0  0  0  0  0  0  0
  1  2  1  0
  1  4  1  0
  1  5  1  0
  1  6  1  0
  2  3  2  3
  2  7  1  0
  3 16  1  0
  8  9  1  0
  8 12  1  0
  8 13  1  0
  8 14  1  0
  9 10  1  0
  9 11  1  0
  9 15  1  0
 10 11  1  0
M  RAD  1  10   2
M  END
>  <reaction>  (14) 
rmg_rxn_16633

>  <mol_properties>  (14) 
{"1": {"label": "*4", "atom_type": "Cd"}, "2": {"label": "*3", "atom_type": "N3d"}, "9": {"label": "*1", "atom_type": "N3s"}, "10": {"label": "*0", "atom_type": "O2s"}, "15": {"label": "*2", "atom_type": "H0"}}

>  <type>  (14) 
unop_10

>  <geom_source>  (14) 
Heuristics

$$$$

     RDKit          3D

 16 15  0  0  0  0  0  0  0  0999 V2000
    0.6287   -0.8115    3.2502 C   0  0  0  0  0  0  0  0  0  0  0  0
    0.5472   -0.4706    1.7996 C   0  0  0  0  0  0  0  0  0  0  0  0
    0.7816    0.6956    1.3736 N   0  0  0  0  0  0  0  0  0  0  0  0
   -0.3330   -1.1929    3.6029 H   0  0  0  0  0  0  0  0  0  0  0  0
    0.9071    0.0666    3.8304 H   0  0  0  0  0  0  0  0  0  0  0  0
    1.3639   -1.6041    3.4109 H   0  0  0  0  0  0  0  0  0  0  0  0
    0.2714   -1.2974    1.1325 H   0  0  0  0  0  0  0  0  0  0  0  0
   -0.1623   -0.2400   -3.0269 C   0  0  0  0  0  0  0  0  0  0  0  0
   -0.1623   -0.2400   -1.5321 C   0  0  0  0  0  0  0  0  0  0  0  0
   -0.1623    1.0210   -0.8599 N   0  0  0  0  0  2  0  0  0  0  0  0
   -1.3326    0.1318   -0.8797 O   0  0  0  0  0  0  0  0  0  0  0  0
    0.8623   -0.2293   -3.4030 H   0  0  0  0  0  0  0  0  0  0  0  0
   -0.6884    0.6399   -3.3941 H   0  0  0  0  0  0  0  0  0  0  0  0
   -0.6556   -1.1381   -3.4024 H   0  0  0  0  0  0  0  0  0  0  0  0
    0.3711   -1.0640   -1.0566 H   0  0  0  0  0  0  0  0  0  0  0  0
    0.3103    0.8580    0.2585 H   0  0  0  0  0  0  0  0  0  0  0  0
  1  2  1  0
  1  4  1  0
  1  5  1  0
  1  6  1  0
  2  3  2  3
  2  7  1  0
  3 16  1  0
  8  9  1  0
  8 12  1  0
  8 13  1  0
  8 14  1  0
  9 10  1  0
  9 11  1  0
  9 15  1  0
 10 11  1  0
M  RAD  1  10   2
M  END
>  <reaction>  (15) 
rmg_rxn_16633

>  <mol_properties>  (15) 
{"1": {"label": "*4", "atom_type": "Cd"}, "2": {"label": "*3", "atom_type": "N3d"}, "9": {"label": "*1", "atom_type": "N3s"}, "10": {"label": "*0", "atom_type": "O2s"}, "15": {"label": "*2", "atom_type": "H0"}}

>  <type>  (15) 
unop_11

>  <geom_source>  (15) 
Heuristics

$$$$

     RDKit          3D

 16 15  0  0  0  0  0  0  0  0999 V2000
    2.4520    0.3113    2.5226 C   0  0  0  0  0  0  0  0  0  0  0  0
    1.4159   -0.0573    1.5138 C   0  0  0  0  0  0  0  0  0  0  0  0
    0.2329    0.3813    1.5808 N   0  0  0  0  0  0  0  0  0  0  0  0
    2.8402   -0.5866    3.0103 H   0  0  0  0  0  0  0  0  0  0  0  0
    2.0303    0.9791    3.2718 H   0  0  0  0  0  0  0  0  0  0  0  0
    3.2987    0.7991    2.0331 H   0  0  0  0  0  0  0  0  0  0  0  0
    1.7502   -0.7315    0.7147 H   0  0  0  0  0  0  0  0  0  0  0  0
   -0.7109   -0.5543   -2.8198 C   0  0  0  0  0  0  0  0  0  0  0  0
   -0.7109   -0.5543   -1.3249 C   0  0  0  0  0  0  0  0  0  0  0  0
   -0.7109    0.7067   -0.6527 N   0  0  0  0  0  2  0  0  0  0  0  0
   -1.8813   -0.1825   -0.6725 O   0  0  0  0  0  0  0  0  0  0  0  0
    0.3137   -0.5436   -3.1958 H   0  0  0  0  0  0  0  0  0  0  0  0
   -1.2371    0.3256   -3.1869 H   0  0  0  0  0  0  0  0  0  0  0  0
   -1.2042   -1.4524   -3.1952 H   0  0  0  0  0  0  0  0  0  0  0  0
   -0.1775   -1.3783   -0.8494 H   0  0  0  0  0  0  0  0  0  0  0  0
   -0.2383    0.5438    0.4656 H   0  0  0  0  0  0  0  0  0  0  0  0
  1  2  1  0
  1  4  1  0
  1  5  1  0
  1  6  1  0
  2  3  2  3
  2  7  1  0
  3 16  1  0
  8  9  1  0
  8 12  1  0
  8 13  1  0
  8 14  1  0
  9 10  1  0
  9 11  1  0
  9 15  1  0
 10 11  1  0
M  RAD  1  10   2
M  END
>  <reaction>  (16) 
rmg_rxn_16633

>  <mol_properties>  (16) 
{"1": {"label": "*4", "atom_type": "Cd"}, "2": {"label": "*3", "atom_type": "N3d"}, "9": {"label": "*1", "atom_type": "N3s"}, "10": {"label": "*0", "atom_type": "O2s"}, "15": {"label": "*2", "atom_type": "H0"}}

>  <type>  (16) 
unop_12

>  <geom_source>  (16) 
Heuristics

$$$$

     RDKit          3D

 16 15  0  0  0  0  0  0  0  0999 V2000
    1.0385    1.3317    3.2910 C   0  0  0  0  0  0  0  0  0  0  0  0
    0.2587    0.8189    2.1266 C   0  0  0  0  0  0  0  0  0  0  0  0
    0.7520   -0.0013    1.3018 N   0  0  0  0  0  0  0  0  0  0  0  0
    1.1116    2.4214    3.2459 H   0  0  0  0  0  0  0  0  0  0  0  0
    2.0377    0.8997    3.2973 H   0  0  0  0  0  0  0  0  0  0  0  0
    0.5277    1.0853    4.2253 H   0  0  0  0  0  0  0  0  0  0  0  0
   -0.7664    1.2009    2.0365 H   0  0  0  0  0  0  0  0  0  0  0  0
   -0.1919   -0.9369   -3.0988 C   0  0  0  0  0  0  0  0  0  0  0  0
   -0.1919   -0.9369   -1.6039 C   0  0  0  0  0  0  0  0  0  0  0  0
   -0.1919    0.3240   -0.9317 N   0  0  0  0  0  2  0  0  0  0  0  0
   -1.3623   -0.5651   -0.9515 O   0  0  0  0  0  0  0  0  0  0  0  0
    0.8327   -0.9262   -3.4748 H   0  0  0  0  0  0  0  0  0  0  0  0
   -0.7180   -0.0571   -3.4659 H   0  0  0  0  0  0  0  0  0  0  0  0
   -0.6852   -1.8350   -3.4742 H   0  0  0  0  0  0  0  0  0  0  0  0
    0.3415   -1.7609   -1.1284 H   0  0  0  0  0  0  0  0  0  0  0  0
    0.2807    0.1611    0.1866 H   0  0  0  0  0  0  0  0  0  0  0  0
  1  2  1  0
  1  4  1  0
  1  5  1  0
  1  6  1  0
  2  3  2  3
  2  7  1  0
  3 16  1  0
  8  9  1  0
  8 12  1  0
  8 13  1  0
  8 14  1  0
  9 10  1  0
  9 11  1  0
  9 15  1  0
 10 11  1  0
M  RAD  1  10   2
M  END
>  <reaction>  (17) 
rmg_rxn_16633

>  <mol_properties>  (17) 
{"1": {"label": "*4", "atom_type": "Cd"}, "2": {"label": "*3", "atom_type": "N3d"}, "9": {"label": "*1", "atom_type": "N3s"}, "10": {"label": "*0", "atom_type": "O2s"}, "15": {"label": "*2", "atom_type": "H0"}}

>  <type>  (17) 
unop_13

>  <geom_source>  (17) 
Heuristics

$$$$

     RDKit          3D

 16 15  0  0  0  0  0  0  0  0999 V2000
    1.4695   -0.9492    2.9350 C   0  0  0  0  0  0  0  0  0  0  0  0
    0.8684   -0.4808    1.6519 C   0  0  0  0  0  0  0  0  0  0  0  0
    0.5439    0.7263    1.4680 N   0  0  0  0  0  0  0  0  0  0  0  0
    0.8464   -1.7284    3.3814 H   0  0  0  0  0  0  0  0  0  0  0  0
    1.5691   -0.1188    3.6318 H   0  0  0  0  0  0  0  0  0  0  0  0
    2.4515   -1.3928    2.7520 H   0  0  0  0  0  0  0  0  0  0  0  0
    0.7285   -1.2523    0.8838 H   0  0  0  0  0  0  0  0  0  0  0  0
   -0.3999   -0.2093   -2.9325 C   0  0  0  0  0  0  0  0  0  0  0  0
   -0.3999   -0.2093   -1.4377 C   0  0  0  0  0  0  0  0  0  0  0  0
   -0.3999    1.0517   -0.7655 N   0  0  0  0  0  2  0  0  0  0  0  0
   -1.5703    0.1625   -0.7853 O   0  0  0  0  0  0  0  0  0  0  0  0
    0.6247   -0.1986   -3.3086 H   0  0  0  0  0  0  0  0  0  0  0  0
   -0.9260    0.6706   -3.2997 H   0  0  0  0  0  0  0  0  0  0  0  0
   -0.8932   -1.1073   -3.3080 H   0  0  0  0  0  0  0  0  0  0  0  0
    0.1335   -1.0333   -0.9622 H   0  0  0  0  0  0  0  0  0  0  0  0
    0.0727    0.8888    0.3529 H   0  0  0  0  0  0  0  0  0  0  0  0
  1  2  1  0
  1  4  1  0
  1  5  1  0
  1  6  1  0
  2  3  2  3
  2  7  1  0
  3 16  1  0
  8  9  1  0
  8 12  1  0
  8 13  1  0
  8 14  1  0
  9 10  1  0
  9 11  1  0
  9 15  1  0
 10 11  1  0
M  RAD  1  10   2
M  END
>  <reaction>  (18) 
rmg_rxn_16633

>  <mol_properties>  (18) 
{"1": {"label": "*4", "atom_type": "Cd"}, "2": {"label": "*3", "atom_type": "N3d"}, "9": {"label": "*1", "atom_type": "N3s"}, "10": {"label": "*0", "atom_type": "O2s"}, "15": {"label": "*2", "atom_type": "H0"}}

>  <type>  (18) 
unop_14

>  <geom_source>  (18) 
Heuristics

$$$$

     RDKit          3D

 16 15  0  0  0  0  0  0  0  0999 V2000
    2.1913   -0.4848    2.6375 C   0  0  0  0  0  0  0  0  0  0  0  0
    1.1768   -0.3389    1.5527 C   0  0  0  0  0  0  0  0  0  0  0  0
    0.3336    0.6019    1.5493 N   0  0  0  0  0  0  0  0  0  0  0  0
    2.0806   -1.4543    3.1299 H   0  0  0  0  0  0  0  0  0  0  0  0
    2.0782    0.3114    3.3712 H   0  0  0  0  0  0  0  0  0  0  0  0
    3.1999   -0.4544    2.2175 H   0  0  0  0  0  0  0  0  0  0  0  0
    1.2134   -1.1005    0.7631 H   0  0  0  0  0  0  0  0  0  0  0  0
   -0.6103   -0.3337   -2.8513 C   0  0  0  0  0  0  0  0  0  0  0  0
   -0.6103   -0.3337   -1.3564 C   0  0  0  0  0  0  0  0  0  0  0  0
   -0.6103    0.9273   -0.6842 N   0  0  0  0  0  2  0  0  0  0  0  0
   -1.7806    0.0381   -0.7040 O   0  0  0  0  0  0  0  0  0  0  0  0
    0.4143   -0.3230   -3.2273 H   0  0  0  0  0  0  0  0  0  0  0  0
   -1.1364    0.5462   -3.2184 H   0  0  0  0  0  0  0  0  0  0  0  0
   -1.1035   -1.2317   -3.2267 H   0  0  0  0  0  0  0  0  0  0  0  0
   -0.0769   -1.1577   -0.8809 H   0  0  0  0  0  0  0  0  0  0  0  0
   -0.1376    0.7644    0.4341 H   0  0  0  0  0  0  0  0  0  0  0  0
  1  2  1  0
  1  4  1  0
  1  5  1  0
  1  6  1  0
  2  3  2  3
  2  7  1  0
  3 16  1  0
  8  9  1  0
  8 12  1  0
  8 13  1  0
  8 14  1  0
  9 10  1  0
  9 11  1  0
  9 15  1  0
 10 11  1  0
M  RAD  1  10   2
M  END
>  <reaction>  (19) 
rmg_rxn_16633

>  <mol_properties>  (19) 
{"1": {"label": "*4", "atom_type": "Cd"}, "2": {"label": "*3", "atom_type": "N3d"}, "9": {"label": "*1", "atom_type": "N3s"}, "10": {"label": "*0", "atom_type": "O2s"}, "15": {"label": "*2", "atom_type": "H0"}}

>  <type>  (19) 
unop_15

>  <geom_source>  (19) 
gaussian_log

$$$$
