
     RDKit          3D

 18 17  0  0  0  0  0  0  0  0999 V2000
    2.2026   -0.7213   -0.2612 C   0  0  0  0  0  0  0  0  0  0  0  0
    1.5384    0.2638    0.6915 C   0  0  0  0  0  0  0  0  0  0  0  0
    2.2584    1.5946    0.7694 C   0  0  0  0  0  0  0  0  0  0  0  0
    2.2212    2.2185   -0.4893 O   0  0  0  0  0  0  0  0  0  0  0  0
    2.8988    3.4488   -0.5204 C   0  0  0  0  0  0  0  0  0  0  0  0
    2.7981    4.0296   -1.9118 C   0  0  0  0  0  0  0  0  0  0  0  0
    3.2294   -0.9309    0.0486 H   0  0  0  0  0  0  0  0  0  0  0  0
    2.2338   -0.3181   -1.2734 H   0  0  0  0  0  0  0  0  0  0  0  0
    1.6610   -1.6680   -0.2875 H   0  0  0  0  0  0  0  0  0  0  0  0
    1.4990   -0.1566    1.7002 H   0  0  0  0  0  0  0  0  0  0  0  0
    0.5055    0.4455    0.3835 H   0  0  0  0  0  0  0  0  0  0  0  0
    3.3038    1.4410    1.0808 H   0  0  0  0  0  0  0  0  0  0  0  0
    1.7844    2.2410    1.5226 H   0  0  0  0  0  0  0  0  0  0  0  0
    2.4596    4.1376    0.2164 H   0  0  0  0  0  0  0  0  0  0  0  0
    3.9524    3.3035   -0.2397 H   0  0  0  0  0  0  0  0  0  0  0  0
    1.7543    4.1869   -2.1856 H   0  0  0  0  0  0  0  0  0  0  0  0
    3.2472    3.3545   -2.6411 H   0  0  0  0  0  0  0  0  0  0  0  0
    3.3178    4.9878   -1.9600 H   0  0  0  0  0  0  0  0  0  0  0  0
  1  2  1  0
  1  7  1  0
  1  8  1  0
  1  9  1  0
  2  3  1  0
  2 10  1  0
  2 11  1  0
  3  4  1  0
  3 12  1  0
  3 13  1  0
  4  5  1  0
  5  6  1  0
  5 14  1  0
  5 15  1  0
  6 16  1  0
  6 17  1  0
  6 18  1  0
M  END
>  <reaction>  (1) 
rmg_rxn_244

>  <mol_properties>  (1) 
{"0": {"label": "donator", "atom_type": "Cs"}, "6": {"label": "d_hydrogen", "atom_type": "H0"}}

>  <type>  (1) 
r1h

$$$$

     RDKit          3D

 17 16  0  0  0  0  0  0  0  0999 V2000
    3.3619    0.3511   -1.0290 C   0  0  0  0  0  3  0  0  0  0  0  0
    2.1806    1.0643   -0.5073 C   0  0  0  0  0  0  0  0  0  0  0  0
    1.4028    0.1998    0.2757 O   0  0  0  0  0  0  0  0  0  0  0  0
    0.2433    0.8081    0.7885 C   0  0  0  0  0  0  0  0  0  0  0  0
   -0.5040   -0.1878    1.6510 C   0  0  0  0  0  0  0  0  0  0  0  0
    0.2852   -0.6298    2.8762 C   0  0  0  0  0  0  0  0  0  0  0  0
    4.1174    0.8902   -1.5820 H   0  0  0  0  0  0  0  0  0  0  0  0
    3.4399   -0.7198   -0.9141 H   0  0  0  0  0  0  0  0  0  0  0  0
    1.5724    1.4684   -1.3398 H   0  0  0  0  0  0  0  0  0  0  0  0
    2.4896    1.9442    0.0856 H   0  0  0  0  0  0  0  0  0  0  0  0
    0.5169    1.6937    1.3835 H   0  0  0  0  0  0  0  0  0  0  0  0
   -0.3954    1.1528   -0.0379 H   0  0  0  0  0  0  0  0  0  0  0  0
   -0.7611   -1.0545    1.0367 H   0  0  0  0  0  0  0  0  0  0  0  0
   -1.4466    0.2743    1.9571 H   0  0  0  0  0  0  0  0  0  0  0  0
    0.5263    0.2245    3.5136 H   0  0  0  0  0  0  0  0  0  0  0  0
    1.2220   -1.1033    2.5825 H   0  0  0  0  0  0  0  0  0  0  0  0
   -0.2849   -1.3427    3.4737 H   0  0  0  0  0  0  0  0  0  0  0  0
  1  2  1  0
  1  7  1  0
  1  8  1  0
  2  3  1  0
  2  9  1  0
  2 10  1  0
  3  4  1  0
  4  5  1  0
  4 11  1  0
  4 12  1  0
  5  6  1  0
  5 13  1  0
  5 14  1  0
  6 15  1  0
  6 16  1  0
  6 17  1  0
M  RAD  1   1   2
M  END
>  <reaction>  (2) 
rmg_rxn_244

>  <mol_properties>  (2) 
{"0": {"label": "acceptor", "atom_type": "Cs"}}

>  <type>  (2) 
r2

$$$$

     RDKit          3D

 18 17  0  0  0  0  0  0  0  0999 V2000
    2.2026   -0.7213   -0.2612 C   0  0  0  0  0  0  0  0  0  0  0  0
    1.5384    0.2638    0.6915 C   0  0  0  0  0  0  0  0  0  0  0  0
    2.2584    1.5946    0.7694 C   0  0  0  0  0  0  0  0  0  0  0  0
    2.2212    2.2185   -0.4893 O   0  0  0  0  0  0  0  0  0  0  0  0
    2.8988    3.4488   -0.5204 C   0  0  0  0  0  0  0  0  0  0  0  0
    2.7981    4.0296   -1.9118 C   0  0  0  0  0  0  0  0  0  0  0  0
    3.2294   -0.9309    0.0486 H   0  0  0  0  0  0  0  0  0  0  0  0
    2.2338   -0.3181   -1.2734 H   0  0  0  0  0  0  0  0  0  0  0  0
    1.6610   -1.6680   -0.2875 H   0  0  0  0  0  0  0  0  0  0  0  0
    1.4990   -0.1566    1.7002 H   0  0  0  0  0  0  0  0  0  0  0  0
    0.5055    0.4455    0.3835 H   0  0  0  0  0  0  0  0  0  0  0  0
    3.3038    1.4410    1.0808 H   0  0  0  0  0  0  0  0  0  0  0  0
    1.7844    2.2410    1.5226 H   0  0  0  0  0  0  0  0  0  0  0  0
    2.4596    4.1376    0.2164 H   0  0  0  0  0  0  0  0  0  0  0  0
    3.9524    3.3035   -0.2397 H   0  0  0  0  0  0  0  0  0  0  0  0
    1.7543    4.1869   -2.1856 H   0  0  0  0  0  0  0  0  0  0  0  0
    3.2472    3.3545   -2.6411 H   0  0  0  0  0  0  0  0  0  0  0  0
    3.3178    4.9878   -1.9600 H   0  0  0  0  0  0  0  0  0  0  0  0
  1  2  1  0
  1  7  1  0
  1  8  1  0
  1  9  1  0
  2  3  1  0
  2 10  1  0
  2 11  1  0
  3  4  1  0
  3 12  1  0
  3 13  1  0
  4  5  1  0
  5  6  1  0
  5 14  1  0
  5 15  1  0
  6 16  1  0
  6 17  1  0
  6 18  1  0
M  END
>  <reaction>  (3) 
rmg_rxn_244

>  <mol_properties>  (3) 
{"0": {"label": "acceptor", "atom_type": "Cs"}, "17": {"label": "a_hydrogen", "atom_type": "H0"}}

>  <type>  (3) 
r2h

$$$$

     RDKit          3D

 35 33  0  0  0  0  0  0  0  0999 V2000
   -1.1711    1.1765   -0.0354 C   0  0  0  0  0  3  0  0  0  0  0  0
   -0.9592    0.5450    1.3053 C   0  0  0  0  0  0  0  0  0  0  0  0
   -2.1208   -0.1507    1.6988 O   0  0  0  0  0  0  0  0  0  0  0  0
   -1.9912   -0.7750    2.9521 C   0  0  0  0  0  0  0  0  0  0  0  0
   -3.2643   -1.5327    3.2688 C   0  0  0  0  0  0  0  0  0  0  0  0
   -3.5476   -2.6624    2.2875 C   0  0  0  0  0  0  0  0  0  0  0  0
   -1.2905    0.4692   -0.8533 H   0  0  0  0  0  0  0  0  0  0  0  0
   -1.9291    1.9563   -0.0496 H   0  0  0  0  0  0  0  0  0  0  0  0
   -0.7151    1.3137    2.0540 H   0  0  0  0  0  0  0  0  0  0  0  0
   -0.1079   -0.1518    1.2695 H   0  0  0  0  0  0  0  0  0  0  0  0
   -1.1333   -1.4661    2.9398 H   0  0  0  0  0  0  0  0  0  0  0  0
   -1.7925   -0.0212    3.7282 H   0  0  0  0  0  0  0  0  0  0  0  0
   -4.0969   -0.8247    3.2764 H   0  0  0  0  0  0  0  0  0  0  0  0
   -3.1761   -1.9294    4.2841 H   0  0  0  0  0  0  0  0  0  0  0  0
   -2.7329   -3.3909    2.2866 H   0  0  0  0  0  0  0  0  0  0  0  0
   -3.6526   -2.2757    1.2739 H   0  0  0  0  0  0  0  0  0  0  0  0
   -4.4667   -3.1887    2.5492 H   0  0  0  0  0  0  0  0  0  0  0  0
    1.1616    2.4209   -0.5238 C   0  0  0  0  0  0  0  0  0  0  0  0
    2.2301    1.4382   -0.1177 C   0  0  0  0  0  0  0  0  0  0  0  0
    2.1913    0.1471   -0.9124 C   0  0  0  0  0  0  0  0  0  0  0  0
    2.4084    0.4323   -2.2702 O   0  0  0  0  0  0  0  0  0  0  0  0
    2.3196   -0.7013   -3.0965 C   0  0  0  0  0  0  0  0  0  0  0  0
    2.5608   -0.2844   -4.5286 C   0  0  0  0  0  0  0  0  0  0  0  0
   -0.0123    1.8330   -0.3163 H   0  0  0  0  0  0  0  0  0  0  0  0
    1.1501    2.6532   -1.5860 H   0  0  0  0  0  0  0  0  0  0  0  0
    1.1162    3.3179    0.0911 H   0  0  0  0  0  0  0  0  0  0  0  0
    2.1303    1.1882    0.9427 H   0  0  0  0  0  0  0  0  0  0  0  0
    3.2215    1.8892   -0.2390 H   0  0  0  0  0  0  0  0  0  0  0  0
    1.2156   -0.3459   -0.7846 H   0  0  0  0  0  0  0  0  0  0  0  0
    2.9602   -0.5474   -0.5442 H   0  0  0  0  0  0  0  0  0  0  0  0
    3.0605   -1.4519   -2.7841 H   0  0  0  0  0  0  0  0  0  0  0  0
    1.3267   -1.1627   -2.9919 H   0  0  0  0  0  0  0  0  0  0  0  0
    3.5505    0.1609   -4.6357 H   0  0  0  0  0  0  0  0  0  0  0  0
    1.8174    0.4487   -4.8435 H   0  0  0  0  0  0  0  0  0  0  0  0
    2.4963   -1.1499   -5.1899 H   0  0  0  0  0  0  0  0  0  0  0  0
  1  2  1  0
  1  7  1  0
  1  8  1  0
  2  3  1  0
  2  9  1  0
  2 10  1  0
  3  4  1  0
  4  5  1  0
  4 11  1  0
  4 12  1  0
  5  6  1  0
  5 13  1  0
  5 14  1  0
  6 15  1  0
  6 16  1  0
  6 17  1  0
 18 19  1  0
 18 24  1  0
 18 25  1  0
 18 26  1  0
 19 20  1  0
 19 27  1  0
 19 28  1  0
 20 21  1  0
 20 29  1  0
 20 30  1  0
 21 22  1  0
 22 23  1  0
 22 31  1  0
 22 32  1  0
 23 33  1  0
 23 34  1  0
 23 35  1  0
M  RAD  1   1   2
M  END
>  <reaction>  (4) 
rmg_rxn_244

>  <mol_properties>  (4) 
{"0": {"label": "*3", "atom_type": "Cs"}, "1": {"label": "*4", "atom_type": "Cs"}, "17": {"label": "*1", "atom_type": "Cs"}, "18": {"label": "*0", "atom_type": "Cs"}, "23": {"label": "*2", "atom_type": "H0"}}

>  <type>  (4) 
ts

$$$$

     RDKit          3D

 35 33  0  0  0  0  0  0  0  0999 V2000
   -0.3500    0.0746    0.5577 C   0  0  0  0  0  0  0  0  0  0  0  0
   -1.1142    1.0706    1.3989 C   0  0  0  0  0  0  0  0  0  0  0  0
   -2.4910    0.8742    1.2004 O   0  0  0  0  0  0  0  0  0  0  0  0
   -3.2919    1.7571    1.9447 C   0  0  0  0  0  0  0  0  0  0  0  0
   -4.7526    1.4421    1.6945 C   0  0  0  0  0  0  0  0  0  0  0  0
   -5.1534    0.0495    2.1629 C   0  0  0  0  0  0  0  0  0  0  0  0
   -0.6112   -0.9454    0.8416 H   0  0  0  0  0  0  0  0  0  0  0  0
   -0.5836    0.2082   -0.4991 H   0  0  0  0  0  0  0  0  0  0  0  0
   -0.8383    2.0991    1.1225 H   0  0  0  0  0  0  0  0  0  0  0  0
   -0.8674    0.9444    2.4634 H   0  0  0  0  0  0  0  0  0  0  0  0
   -3.0622    1.6577    3.0174 H   0  0  0  0  0  0  0  0  0  0  0  0
   -3.0714    2.7959    1.6580 H   0  0  0  0  0  0  0  0  0  0  0  0
   -4.9529    1.5506    0.6255 H   0  0  0  0  0  0  0  0  0  0  0  0
   -5.3524    2.1989    2.2077 H   0  0  0  0  0  0  0  0  0  0  0  0
   -4.9807   -0.0653    3.2360 H   0  0  0  0  0  0  0  0  0  0  0  0
   -4.5716   -0.7139    1.6465 H   0  0  0  0  0  0  0  0  0  0  0  0
   -6.2107   -0.1398    1.9720 H   0  0  0  0  0  0  0  0  0  0  0  0
    1.7728    1.2052   -0.4837 C   0  0  0  0  0  3  0  0  0  0  0  0
    3.0426    0.4979   -0.0293 C   0  0  0  0  0  0  0  0  0  0  0  0
    3.0822   -0.9650   -0.4212 C   0  0  0  0  0  0  0  0  0  0  0  0
    3.0832   -1.0719   -1.8224 O   0  0  0  0  0  0  0  0  0  0  0  0
    3.0832   -2.4006   -2.2788 C   0  0  0  0  0  0  0  0  0  0  0  0
    3.0832   -2.4006   -3.7899 C   0  0  0  0  0  0  0  0  0  0  0  0
    0.7105    0.6394    0.0375 H   0  0  0  0  0  0  0  0  0  0  0  0
    1.6755    1.1649   -1.5685 H   0  0  0  0  0  0  0  0  0  0  0  0
    1.7768    2.2530   -0.1800 H   0  0  0  0  0  0  0  0  0  0  0  0
    3.1378    0.5573    1.0585 H   0  0  0  0  0  0  0  0  0  0  0  0
    3.9202    0.9942   -0.4516 H   0  0  0  0  0  0  0  0  0  0  0  0
    2.2083   -1.4913   -0.0057 H   0  0  0  0  0  0  0  0  0  0  0  0
    3.9807   -1.4463   -0.0076 H   0  0  0  0  0  0  0  0  0  0  0  0
    3.9680   -2.9293   -1.8944 H   0  0  0  0  0  0  0  0  0  0  0  0
    2.1982   -2.9288   -1.8943 H   0  0  0  0  0  0  0  0  0  0  0  0
    3.9673   -1.8891   -4.1721 H   0  0  0  0  0  0  0  0  0  0  0  0
    2.1984   -1.8902   -4.1721 H   0  0  0  0  0  0  0  0  0  0  0  0
    3.0838   -3.4241   -4.1680 H   0  0  0  0  0  0  0  0  0  0  0  0
  1  2  1  0
  1  7  1  0
  1  8  1  0
  1 24  1  0
  2  3  1  0
  2  9  1  0
  2 10  1  0
  3  4  1  0
  4  5  1  0
  4 11  1  0
  4 12  1  0
  5  6  1  0
  5 13  1  0
  5 14  1  0
  6 15  1  0
  6 16  1  0
  6 17  1  0
 18 19  1  0
 18 25  1  0
 18 26  1  0
 19 20  1  0
 19 27  1  0
 19 28  1  0
 20 21  1  0
 20 29  1  0
 20 30  1  0
 21 22  1  0
 22 23  1  0
 22 31  1  0
 22 32  1  0
 23 33  1  0
 23 34  1  0
 23 35  1  0
M  RAD  1  18   2
M  END
>  <reaction>  (5) 
rmg_rxn_244

>  <mol_properties>  (5) 
{"0": {"label": "*3", "atom_type": "Cs"}, "1": {"label": "*4", "atom_type": "Cs"}, "17": {"label": "*1", "atom_type": "Cs"}, "18": {"label": "*0", "atom_type": "Cs"}, "23": {"label": "*2", "atom_type": "H0"}}

>  <type>  (5) 
unop_1

>  <geom_source>  (5) 
Heuristics

$$$$

     RDKit          3D

 35 33  0  0  0  0  0  0  0  0999 V2000
   -1.1026    1.0652   -0.1390 C   0  0  0  0  0  0  0  0  0  0  0  0
   -0.7681    0.4617    1.2055 C   0  0  0  0  0  0  0  0  0  0  0  0
   -1.9598    0.2419    1.9162 O   0  0  0  0  0  0  0  0  0  0  0  0
   -1.7537   -0.3217    3.1870 C   0  0  0  0  0  0  0  0  0  0  0  0
   -3.0930   -0.5558    3.8555 C   0  0  0  0  0  0  0  0  0  0  0  0
   -3.9660   -1.5581    3.1121 C   0  0  0  0  0  0  0  0  0  0  0  0
   -1.7425    0.3926   -0.7112 H   0  0  0  0  0  0  0  0  0  0  0  0
   -1.6261    2.0135   -0.0125 H   0  0  0  0  0  0  0  0  0  0  0  0
   -0.1098    1.1340    1.7756 H   0  0  0  0  0  0  0  0  0  0  0  0
   -0.2279   -0.4878    1.0770 H   0  0  0  0  0  0  0  0  0  0  0  0
   -1.2077   -1.2735    3.0908 H   0  0  0  0  0  0  0  0  0  0  0  0
   -1.1343    0.3501    3.7993 H   0  0  0  0  0  0  0  0  0  0  0  0
   -3.6110    0.4029    3.9402 H   0  0  0  0  0  0  0  0  0  0  0  0
   -2.9036   -0.9047    4.8744 H   0  0  0  0  0  0  0  0  0  0  0  0
   -3.4700   -2.5293    3.0409 H   0  0  0  0  0  0  0  0  0  0  0  0
   -4.1734   -1.2128    2.0993 H   0  0  0  0  0  0  0  0  0  0  0  0
   -4.9180   -1.7053    3.6242 H   0  0  0  0  0  0  0  0  0  0  0  0
    1.0201    2.1957   -1.1803 C   0  0  0  0  0  3  0  0  0  0  0  0
    2.2900    1.4885   -0.7260 C   0  0  0  0  0  0  0  0  0  0  0  0
    2.3296    0.0256   -1.1179 C   0  0  0  0  0  0  0  0  0  0  0  0
    2.3306   -0.0814   -2.5191 O   0  0  0  0  0  0  0  0  0  0  0  0
    2.3306   -1.4100   -2.9755 C   0  0  0  0  0  0  0  0  0  0  0  0
    2.3306   -1.4100   -4.4866 C   0  0  0  0  0  0  0  0  0  0  0  0
   -0.0421    1.6300   -0.6592 H   0  0  0  0  0  0  0  0  0  0  0  0
    0.9229    2.1555   -2.2652 H   0  0  0  0  0  0  0  0  0  0  0  0
    1.0242    3.2436   -0.8766 H   0  0  0  0  0  0  0  0  0  0  0  0
    2.3852    1.5478    0.3618 H   0  0  0  0  0  0  0  0  0  0  0  0
    3.1676    1.9848   -1.1483 H   0  0  0  0  0  0  0  0  0  0  0  0
    1.4556   -0.5008   -0.7024 H   0  0  0  0  0  0  0  0  0  0  0  0
    3.2280   -0.4557   -0.7043 H   0  0  0  0  0  0  0  0  0  0  0  0
    3.2154   -1.9387   -2.5911 H   0  0  0  0  0  0  0  0  0  0  0  0
    1.4456   -1.9382   -2.5910 H   0  0  0  0  0  0  0  0  0  0  0  0
    3.2147   -0.8985   -4.8688 H   0  0  0  0  0  0  0  0  0  0  0  0
    1.4458   -0.8996   -4.8688 H   0  0  0  0  0  0  0  0  0  0  0  0
    2.3312   -2.4335   -4.8647 H   0  0  0  0  0  0  0  0  0  0  0  0
  1  2  1  0
  1  7  1  0
  1  8  1  0
  1 24  1  0
  2  3  1  0
  2  9  1  0
  2 10  1  0
  3  4  1  0
  4  5  1  0
  4 11  1  0
  4 12  1  0
  5  6  1  0
  5 13  1  0
  5 14  1  0
  6 15  1  0
  6 16  1  0
  6 17  1  0
 18 19  1  0
 18 25  1  0
 18 26  1  0
 19 20  1  0
 19 27  1  0
 19 28  1  0
 20 21  1  0
 20 29  1  0
 20 30  1  0
 21 22  1  0
 22 23  1  0
 22 31  1  0
 22 32  1  0
 23 33  1  0
 23 34  1  0
 23 35  1  0
M  RAD  1  18   2
M  END
>  <reaction>  (6) 
rmg_rxn_244

>  <mol_properties>  (6) 
{"0": {"label": "*3", "atom_type": "Cs"}, "1": {"label": "*4", "atom_type": "Cs"}, "17": {"label": "*1", "atom_type": "Cs"}, "18": {"label": "*0", "atom_type": "Cs"}, "23": {"label": "*2", "atom_type": "H0"}}

>  <type>  (6) 
unop_2

>  <geom_source>  (6) 
Heuristics

$$$$

     RDKit          3D

 35 33  0  0  0  0  0  0  0  0999 V2000
   -0.2344    0.2670    0.8485 C   0  0  0  0  0  0  0  0  0  0  0  0
   -1.3323    1.2880    1.0367 C   0  0  0  0  0  0  0  0  0  0  0  0
   -2.5764    0.6405    0.9562 O   0  0  0  0  0  0  0  0  0  0  0  0
   -3.6680    1.5102    1.1206 C   0  0  0  0  0  0  0  0  0  0  0  0
   -4.9566    0.7161    1.0573 C   0  0  0  0  0  0  0  0  0  0  0  0
   -5.0871   -0.3037    2.1808 C   0  0  0  0  0  0  0  0  0  0  0  0
   -0.2897   -0.5005    1.6213 H   0  0  0  0  0  0  0  0  0  0  0  0
   -0.3255   -0.2173   -0.1244 H   0  0  0  0  0  0  0  0  0  0  0  0
   -1.2660    2.0703    0.2660 H   0  0  0  0  0  0  0  0  0  0  0  0
   -1.2314    1.7858    2.0124 H   0  0  0  0  0  0  0  0  0  0  0  0
   -3.5911    2.0293    2.0891 H   0  0  0  0  0  0  0  0  0  0  0  0
   -3.6557    2.2802    0.3352 H   0  0  0  0  0  0  0  0  0  0  0  0
   -5.0081    0.2146    0.0874 H   0  0  0  0  0  0  0  0  0  0  0  0
   -5.7896    1.4237    1.0927 H   0  0  0  0  0  0  0  0  0  0  0  0
   -5.0614    0.1868    3.1571 H   0  0  0  0  0  0  0  0  0  0  0  0
   -4.2693   -1.0234    2.1459 H   0  0  0  0  0  0  0  0  0  0  0  0
   -6.0275   -0.8517    2.1064 H   0  0  0  0  0  0  0  0  0  0  0  0
    1.8884    1.3975   -0.1929 C   0  0  0  0  0  3  0  0  0  0  0  0
    3.1583    0.6902    0.2614 C   0  0  0  0  0  0  0  0  0  0  0  0
    3.1979   -0.7727   -0.1304 C   0  0  0  0  0  0  0  0  0  0  0  0
    3.1988   -0.8796   -1.5317 O   0  0  0  0  0  0  0  0  0  0  0  0
    3.1988   -2.2082   -1.9880 C   0  0  0  0  0  0  0  0  0  0  0  0
    3.1988   -2.2082   -3.4992 C   0  0  0  0  0  0  0  0  0  0  0  0
    0.8262    0.8318    0.3282 H   0  0  0  0  0  0  0  0  0  0  0  0
    1.7911    1.3573   -1.2778 H   0  0  0  0  0  0  0  0  0  0  0  0
    1.8924    2.4454    0.1108 H   0  0  0  0  0  0  0  0  0  0  0  0
    3.2534    0.7496    1.3492 H   0  0  0  0  0  0  0  0  0  0  0  0
    4.0358    1.1866   -0.1608 H   0  0  0  0  0  0  0  0  0  0  0  0
    2.3239   -1.2990    0.2850 H   0  0  0  0  0  0  0  0  0  0  0  0
    4.0963   -1.2540    0.2831 H   0  0  0  0  0  0  0  0  0  0  0  0
    4.0837   -2.7370   -1.6036 H   0  0  0  0  0  0  0  0  0  0  0  0
    2.3139   -2.7365   -1.6035 H   0  0  0  0  0  0  0  0  0  0  0  0
    4.0829   -1.6968   -3.8813 H   0  0  0  0  0  0  0  0  0  0  0  0
    2.3140   -1.6979   -3.8813 H   0  0  0  0  0  0  0  0  0  0  0  0
    3.1994   -3.2318   -3.8773 H   0  0  0  0  0  0  0  0  0  0  0  0
  1  2  1  0
  1  7  1  0
  1  8  1  0
  1 24  1  0
  2  3  1  0
  2  9  1  0
  2 10  1  0
  3  4  1  0
  4  5  1  0
  4 11  1  0
  4 12  1  0
  5  6  1  0
  5 13  1  0
  5 14  1  0
  6 15  1  0
  6 16  1  0
  6 17  1  0
 18 19  1  0
 18 25  1  0
 18 26  1  0
 19 20  1  0
 19 27  1  0
 19 28  1  0
 20 21  1  0
 20 29  1  0
 20 30  1  0
 21 22  1  0
 22 23  1  0
 22 31  1  0
 22 32  1  0
 23 33  1  0
 23 34  1  0
 23 35  1  0
M  RAD  1  18   2
M  END
>  <reaction>  (7) 
rmg_rxn_244

>  <mol_properties>  (7) 
{"0": {"label": "*3", "atom_type": "Cs"}, "1": {"label": "*4", "atom_type": "Cs"}, "17": {"label": "*1", "atom_type": "Cs"}, "18": {"label": "*0", "atom_type": "Cs"}, "23": {"label": "*2", "atom_type": "H0"}}

>  <type>  (7) 
unop_3

>  <geom_source>  (7) 
Heuristics

$$$$

     RDKit          3D

 35 33  0  0  0  0  0  0  0  0999 V2000
   -0.7675    1.5147    1.4426 C   0  0  0  0  0  0  0  0  0  0  0  0
   -0.8515    0.0670    1.0176 C   0  0  0  0  0  0  0  0  0  0  0  0
   -2.2033   -0.3042    0.9263 O   0  0  0  0  0  0  0  0  0  0  0  0
   -2.3879   -1.6410    0.5342 C   0  0  0  0  0  0  0  0  0  0  0  0
   -3.8708   -1.9325    0.4269 C   0  0  0  0  0  0  0  0  0  0  0  0
   -4.5678   -1.1035   -0.6437 C   0  0  0  0  0  0  0  0  0  0  0  0
   -1.2670    2.1560    0.7156 H   0  0  0  0  0  0  0  0  0  0  0  0
   -1.2456    1.6566    2.4124 H   0  0  0  0  0  0  0  0  0  0  0  0
   -0.3337   -0.5775    1.7435 H   0  0  0  0  0  0  0  0  0  0  0  0
   -0.3567   -0.0778    0.0459 H   0  0  0  0  0  0  0  0  0  0  0  0
   -1.8967   -1.8184   -0.4356 H   0  0  0  0  0  0  0  0  0  0  0  0
   -1.9190   -2.3148    1.2663 H   0  0  0  0  0  0  0  0  0  0  0  0
   -4.3317   -1.7511    1.4012 H   0  0  0  0  0  0  0  0  0  0  0  0
   -3.9893   -2.9985    0.2138 H   0  0  0  0  0  0  0  0  0  0  0  0
   -4.1325   -1.2930   -1.6281 H   0  0  0  0  0  0  0  0  0  0  0  0
   -4.4686   -0.0387   -0.4330 H   0  0  0  0  0  0  0  0  0  0  0  0
   -5.6308   -1.3435   -0.6961 H   0  0  0  0  0  0  0  0  0  0  0  0
    1.3553    2.6452    0.4012 C   0  0  0  0  0  3  0  0  0  0  0  0
    2.6251    1.9379    0.8556 C   0  0  0  0  0  0  0  0  0  0  0  0
    2.6647    0.4750    0.4637 C   0  0  0  0  0  0  0  0  0  0  0  0
    2.6657    0.3681   -0.9375 O   0  0  0  0  0  0  0  0  0  0  0  0
    2.6657   -0.9605   -1.3939 C   0  0  0  0  0  0  0  0  0  0  0  0
    2.6657   -0.9605   -2.9050 C   0  0  0  0  0  0  0  0  0  0  0  0
    0.2930    2.0795    0.9224 H   0  0  0  0  0  0  0  0  0  0  0  0
    1.2580    2.6050   -0.6836 H   0  0  0  0  0  0  0  0  0  0  0  0
    1.3593    3.6931    0.7049 H   0  0  0  0  0  0  0  0  0  0  0  0
    2.7203    1.9973    1.9434 H   0  0  0  0  0  0  0  0  0  0  0  0
    3.5027    2.4343    0.4333 H   0  0  0  0  0  0  0  0  0  0  0  0
    1.7908   -0.0513    0.8792 H   0  0  0  0  0  0  0  0  0  0  0  0
    3.5632   -0.0063    0.8773 H   0  0  0  0  0  0  0  0  0  0  0  0
    3.5505   -1.4893   -1.0095 H   0  0  0  0  0  0  0  0  0  0  0  0
    1.7807   -1.4888   -1.0094 H   0  0  0  0  0  0  0  0  0  0  0  0
    3.5498   -0.4491   -3.2872 H   0  0  0  0  0  0  0  0  0  0  0  0
    1.7809   -0.4502   -3.2872 H   0  0  0  0  0  0  0  0  0  0  0  0
    2.6663   -1.9841   -3.2831 H   0  0  0  0  0  0  0  0  0  0  0  0
  1  2  1  0
  1  7  1  0
  1  8  1  0
  1 24  1  0
  2  3  1  0
  2  9  1  0
  2 10  1  0
  3  4  1  0
  4  5  1  0
  4 11  1  0
  4 12  1  0
  5  6  1  0
  5 13  1  0
  5 14  1  0
  6 15  1  0
  6 16  1  0
  6 17  1  0
 18 19  1  0
 18 25  1  0
 18 26  1  0
 19 20  1  0
 19 27  1  0
 19 28  1  0
 20 21  1  0
 20 29  1  0
 20 30  1  0
 21 22  1  0
 22 23  1  0
 22 31  1  0
 22 32  1  0
 23 33  1  0
 23 34  1  0
 23 35  1  0
M  RAD  1  18   2
M  END
>  <reaction>  (8) 
rmg_rxn_244

>  <mol_properties>  (8) 
{"0": {"label": "*3", "atom_type": "Cs"}, "1": {"label": "*4", "atom_type": "Cs"}, "17": {"label": "*1", "atom_type": "Cs"}, "18": {"label": "*0", "atom_type": "Cs"}, "23": {"label": "*2", "atom_type": "H0"}}

>  <type>  (8) 
unop_4

>  <geom_source>  (8) 
Heuristics

$$$$

     RDKit          3D

 35 33  0  0  0  0  0  0  0  0999 V2000
   -0.2217    0.3487    0.8724 C   0  0  0  0  0  0  0  0  0  0  0  0
   -1.4728    1.0608    0.4129 C   0  0  0  0  0  0  0  0  0  0  0  0
   -2.5916    0.4331    0.9856 O   0  0  0  0  0  0  0  0  0  0  0  0
   -3.8113    1.0262    0.6175 C   0  0  0  0  0  0  0  0  0  0  0  0
   -4.9492    0.3072    1.3129 C   0  0  0  0  0  0  0  0  0  0  0  0
   -4.8919    0.4228    2.8303 C   0  0  0  0  0  0  0  0  0  0  0  0
   -0.1373    0.3873    1.9591 H   0  0  0  0  0  0  0  0  0  0  0  0
   -0.2431   -0.6976    0.5659 H   0  0  0  0  0  0  0  0  0  0  0  0
   -1.5488    1.0350   -0.6843 H   0  0  0  0  0  0  0  0  0  0  0  0
   -1.4440    2.1194    0.7104 H   0  0  0  0  0  0  0  0  0  0  0  0
   -3.8098    2.0915    0.8980 H   0  0  0  0  0  0  0  0  0  0  0  0
   -3.9387    0.9757   -0.4738 H   0  0  0  0  0  0  0  0  0  0  0  0
   -4.9285   -0.7444    1.0156 H   0  0  0  0  0  0  0  0  0  0  0  0
   -5.8886    0.7238    0.9390 H   0  0  0  0  0  0  0  0  0  0  0  0
   -4.9360    1.4690    3.1433 H   0  0  0  0  0  0  0  0  0  0  0  0
   -3.9655   -0.0032    3.2153 H   0  0  0  0  0  0  0  0  0  0  0  0
   -5.7279   -0.1012    3.2959 H   0  0  0  0  0  0  0  0  0  0  0  0
    1.9011    1.4793   -0.1689 C   0  0  0  0  0  3  0  0  0  0  0  0
    3.1710    0.7720    0.2854 C   0  0  0  0  0  0  0  0  0  0  0  0
    3.2105   -0.6909   -0.1065 C   0  0  0  0  0  0  0  0  0  0  0  0
    3.2115   -0.7978   -1.5077 O   0  0  0  0  0  0  0  0  0  0  0  0
    3.2115   -2.1265   -1.9641 C   0  0  0  0  0  0  0  0  0  0  0  0
    3.2115   -2.1265   -3.4752 C   0  0  0  0  0  0  0  0  0  0  0  0
    0.8389    0.9135    0.3522 H   0  0  0  0  0  0  0  0  0  0  0  0
    1.8038    1.4390   -1.2538 H   0  0  0  0  0  0  0  0  0  0  0  0
    1.9051    2.5271    0.1348 H   0  0  0  0  0  0  0  0  0  0  0  0
    3.2661    0.8314    1.3732 H   0  0  0  0  0  0  0  0  0  0  0  0
    4.0485    1.2684   -0.1369 H   0  0  0  0  0  0  0  0  0  0  0  0
    2.3366   -1.2172    0.3090 H   0  0  0  0  0  0  0  0  0  0  0  0
    4.1090   -1.1722    0.3071 H   0  0  0  0  0  0  0  0  0  0  0  0
    4.0964   -2.6552   -1.5797 H   0  0  0  0  0  0  0  0  0  0  0  0
    2.3266   -2.6547   -1.5796 H   0  0  0  0  0  0  0  0  0  0  0  0
    4.0956   -1.6150   -3.8574 H   0  0  0  0  0  0  0  0  0  0  0  0
    2.3267   -1.6161   -3.8574 H   0  0  0  0  0  0  0  0  0  0  0  0
    3.2121   -3.1500   -3.8533 H   0  0  0  0  0  0  0  0  0  0  0  0
  1  2  1  0
  1  7  1  0
  1  8  1  0
  1 24  1  0
  2  3  1  0
  2  9  1  0
  2 10  1  0
  3  4  1  0
  4  5  1  0
  4 11  1  0
  4 12  1  0
  5  6  1  0
  5 13  1  0
  5 14  1  0
  6 15  1  0
  6 16  1  0
  6 17  1  0
 18 19  1  0
 18 25  1  0
 18 26  1  0
 19 20  1  0
 19 27  1  0
 19 28  1  0
 20 21  1  0
 20 29  1  0
 20 30  1  0
 21 22  1  0
 22 23  1  0
 22 31  1  0
 22 32  1  0
 23 33  1  0
 23 34  1  0
 23 35  1  0
M  RAD  1  18   2
M  END
>  <reaction>  (9) 
rmg_rxn_244

>  <mol_properties>  (9) 
{"0": {"label": "*3", "atom_type": "Cs"}, "1": {"label": "*4", "atom_type": "Cs"}, "17": {"label": "*1", "atom_type": "Cs"}, "18": {"label": "*0", "atom_type": "Cs"}, "23": {"label": "*2", "atom_type": "H0"}}

>  <type>  (9) 
unop_5

>  <geom_source>  (9) 
Heuristics

$$$$

     RDKit          3D

 35 33  0  0  0  0  0  0  0  0999 V2000
   -0.4883    1.0330    1.6557 C   0  0  0  0  0  0  0  0  0  0  0  0
   -0.9971   -0.0622    0.7473 C   0  0  0  0  0  0  0  0  0  0  0  0
   -2.4017   -0.0363    0.7438 O   0  0  0  0  0  0  0  0  0  0  0  0
   -2.9742   -1.0226   -0.0775 C   0  0  0  0  0  0  0  0  0  0  0  0
   -4.4830   -0.8888   -0.0455 C   0  0  0  0  0  0  0  0  0  0  0  0
   -4.9785    0.4362   -0.6096 C   0  0  0  0  0  0  0  0  0  0  0  0
   -0.8280    2.0084    1.3057 H   0  0  0  0  0  0  0  0  0  0  0  0
   -0.8532    0.8862    2.6728 H   0  0  0  0  0  0  0  0  0  0  0  0
   -0.6408   -1.0442    1.0922 H   0  0  0  0  0  0  0  0  0  0  0  0
   -0.6172    0.0790   -0.2753 H   0  0  0  0  0  0  0  0  0  0  0  0
   -2.6066   -0.9103   -1.1099 H   0  0  0  0  0  0  0  0  0  0  0  0
   -2.6726   -2.0216    0.2700 H   0  0  0  0  0  0  0  0  0  0  0  0
   -4.8201   -1.0064    0.9876 H   0  0  0  0  0  0  0  0  0  0  0  0
   -4.9064   -1.7216   -0.6138 H   0  0  0  0  0  0  0  0  0  0  0  0
   -4.6688    0.5566   -1.6507 H   0  0  0  0  0  0  0  0  0  0  0  0
   -4.5740    1.2734   -0.0408 H   0  0  0  0  0  0  0  0  0  0  0  0
   -6.0674    0.4948   -0.5754 H   0  0  0  0  0  0  0  0  0  0  0  0
    1.6345    2.1636    0.6143 C   0  0  0  0  0  3  0  0  0  0  0  0
    2.9044    1.4563    1.0687 C   0  0  0  0  0  0  0  0  0  0  0  0
    2.9439   -0.0066    0.6768 C   0  0  0  0  0  0  0  0  0  0  0  0
    2.9449   -0.1135   -0.7245 O   0  0  0  0  0  0  0  0  0  0  0  0
    2.9449   -1.4422   -1.1808 C   0  0  0  0  0  0  0  0  0  0  0  0
    2.9449   -1.4422   -2.6920 C   0  0  0  0  0  0  0  0  0  0  0  0
    0.5722    1.5978    1.1354 H   0  0  0  0  0  0  0  0  0  0  0  0
    1.5372    2.1233   -0.4706 H   0  0  0  0  0  0  0  0  0  0  0  0
    1.6385    3.2114    0.9180 H   0  0  0  0  0  0  0  0  0  0  0  0
    2.9995    1.5157    2.1564 H   0  0  0  0  0  0  0  0  0  0  0  0
    3.7819    1.9526    0.6464 H   0  0  0  0  0  0  0  0  0  0  0  0
    2.0700   -0.5329    1.0922 H   0  0  0  0  0  0  0  0  0  0  0  0
    3.8424   -0.4879    1.0903 H   0  0  0  0  0  0  0  0  0  0  0  0
    3.8297   -1.9709   -0.7964 H   0  0  0  0  0  0  0  0  0  0  0  0
    2.0599   -1.9704   -0.7963 H   0  0  0  0  0  0  0  0  0  0  0  0
    3.8290   -0.9307   -3.0741 H   0  0  0  0  0  0  0  0  0  0  0  0
    2.0601   -0.9318   -3.0741 H   0  0  0  0  0  0  0  0  0  0  0  0
    2.9455   -2.4657   -3.0701 H   0  0  0  0  0  0  0  0  0  0  0  0
  1  2  1  0
  1  7  1  0
  1  8  1  0
  1 24  1  0
  2  3  1  0
  2  9  1  0
  2 10  1  0
  3  4  1  0
  4  5  1  0
  4 11  1  0
  4 12  1  0
  5  6  1  0
  5 13  1  0
  5 14  1  0
  6 15  1  0
  6 16  1  0
  6 17  1  0
 18 19  1  0
 18 25  1  0
 18 26  1  0
 19 20  1  0
 19 27  1  0
 19 28  1  0
 20 21  1  0
 20 29  1  0
 20 30  1  0
 21 22  1  0
 22 23  1  0
 22 31  1  0
 22 32  1  0
 23 33  1  0
 23 34  1  0
 23 35  1  0
M  RAD  1  18   2
M  END
>  <reaction>  (10) 
rmg_rxn_244

>  <mol_properties>  (10) 
{"0": {"label": "*3", "atom_type": "Cs"}, "1": {"label": "*4", "atom_type": "Cs"}, "17": {"label": "*1", "atom_type": "Cs"}, "18": {"label": "*0", "atom_type": "Cs"}, "23": {"label": "*2", "atom_type": "H0"}}

>  <type>  (10) 
unop_6

>  <geom_source>  (10) 
Heuristics

$$$$

     RDKit          3D

 35 33  0  0  0  0  0  0  0  0999 V2000
   -0.2946    0.5299    1.5099 C   0  0  0  0  0  0  0  0  0  0  0  0
   -1.2056    0.0202    0.4173 C   0  0  0  0  0  0  0  0  0  0  0  0
   -2.5395    0.2628    0.7851 O   0  0  0  0  0  0  0  0  0  0  0  0
   -3.4695   -0.1771   -0.1723 C   0  0  0  0  0  0  0  0  0  0  0  0
   -4.8700    0.1627    0.2949 C   0  0  0  0  0  0  0  0  0  0  0  0
   -5.1106    1.6609    0.4250 C   0  0  0  0  0  0  0  0  0  0  0  0
   -0.4367    1.6011    1.6571 H   0  0  0  0  0  0  0  0  0  0  0  0
   -0.5060    0.0221    2.4516 H   0  0  0  0  0  0  0  0  0  0  0  0
   -1.0502   -1.0574    0.2587 H   0  0  0  0  0  0  0  0  0  0  0  0
   -0.9822    0.5229   -0.5353 H   0  0  0  0  0  0  0  0  0  0  0  0
   -3.2667    0.3059   -1.1413 H   0  0  0  0  0  0  0  0  0  0  0  0
   -3.3699   -1.2624   -0.3209 H   0  0  0  0  0  0  0  0  0  0  0  0
   -5.0449   -0.3302    1.2547 H   0  0  0  0  0  0  0  0  0  0  0  0
   -5.5767   -0.2714   -0.4177 H   0  0  0  0  0  0  0  0  0  0  0  0
   -4.9625    2.1640   -0.5338 H   0  0  0  0  0  0  0  0  0  0  0  0
   -4.4207    2.1017    1.1446 H   0  0  0  0  0  0  0  0  0  0  0  0
   -6.1289    1.8676    0.7575 H   0  0  0  0  0  0  0  0  0  0  0  0
    1.8282    1.6604    0.4685 C   0  0  0  0  0  3  0  0  0  0  0  0
    3.0980    0.9532    0.9228 C   0  0  0  0  0  0  0  0  0  0  0  0
    3.1376   -0.5098    0.5310 C   0  0  0  0  0  0  0  0  0  0  0  0
    3.1386   -0.6167   -0.8703 O   0  0  0  0  0  0  0  0  0  0  0  0
    3.1386   -1.9453   -1.3267 C   0  0  0  0  0  0  0  0  0  0  0  0
    3.1386   -1.9453   -2.8378 C   0  0  0  0  0  0  0  0  0  0  0  0
    0.7659    1.0947    0.9896 H   0  0  0  0  0  0  0  0  0  0  0  0
    1.7309    1.6202   -0.6164 H   0  0  0  0  0  0  0  0  0  0  0  0
    1.8322    2.7083    0.7722 H   0  0  0  0  0  0  0  0  0  0  0  0
    3.1932    1.0125    2.0106 H   0  0  0  0  0  0  0  0  0  0  0  0
    3.9756    1.4495    0.5006 H   0  0  0  0  0  0  0  0  0  0  0  0
    2.2637   -1.0361    0.9464 H   0  0  0  0  0  0  0  0  0  0  0  0
    4.0361   -0.9910    0.9445 H   0  0  0  0  0  0  0  0  0  0  0  0
    4.0234   -2.4741   -0.9422 H   0  0  0  0  0  0  0  0  0  0  0  0
    2.2536   -2.4736   -0.9422 H   0  0  0  0  0  0  0  0  0  0  0  0
    4.0227   -1.4338   -3.2199 H   0  0  0  0  0  0  0  0  0  0  0  0
    2.2538   -1.4350   -3.2199 H   0  0  0  0  0  0  0  0  0  0  0  0
    3.1392   -2.9688   -3.2159 H   0  0  0  0  0  0  0  0  0  0  0  0
  1  2  1  0
  1  7  1  0
  1  8  1  0
  1 24  1  0
  2  3  1  0
  2  9  1  0
  2 10  1  0
  3  4  1  0
  4  5  1  0
  4 11  1  0
  4 12  1  0
  5  6  1  0
  5 13  1  0
  5 14  1  0
  6 15  1  0
  6 16  1  0
  6 17  1  0
 18 19  1  0
 18 25  1  0
 18 26  1  0
 19 20  1  0
 19 27  1  0
 19 28  1  0
 20 21  1  0
 20 29  1  0
 20 30  1  0
 21 22  1  0
 22 23  1  0
 22 31  1  0
 22 32  1  0
 23 33  1  0
 23 34  1  0
 23 35  1  0
M  RAD  1  18   2
M  END
>  <reaction>  (11) 
rmg_rxn_244

>  <mol_properties>  (11) 
{"0": {"label": "*3", "atom_type": "Cs"}, "1": {"label": "*4", "atom_type": "Cs"}, "17": {"label": "*1", "atom_type": "Cs"}, "18": {"label": "*0", "atom_type": "Cs"}, "23": {"label": "*2", "atom_type": "H0"}}

>  <type>  (11) 
unop_7

>  <geom_source>  (11) 
Heuristics

$$$$

     RDKit          3D

 35 33  0  0  0  0  0  0  0  0999 V2000
   -0.5872    0.1303    0.1308 C   0  0  0  0  0  0  0  0  0  0  0  0
   -0.9266    0.7738    1.4553 C   0  0  0  0  0  0  0  0  0  0  0  0
   -2.3227    0.8880    1.5627 O   0  0  0  0  0  0  0  0  0  0  0  0
   -2.7415    1.4774    2.7678 C   0  0  0  0  0  0  0  0  0  0  0  0
   -4.2554    1.5203    2.8061 C   0  0  0  0  0  0  0  0  0  0  0  0
   -4.8939    0.1377    2.7958 C   0  0  0  0  0  0  0  0  0  0  0  0
   -1.0345   -0.8619    0.0622 H   0  0  0  0  0  0  0  0  0  0  0  0
   -0.9632    0.7350   -0.6953 H   0  0  0  0  0  0  0  0  0  0  0  0
   -0.4620    1.7682    1.5298 H   0  0  0  0  0  0  0  0  0  0  0  0
   -0.5349    0.1704    2.2875 H   0  0  0  0  0  0  0  0  0  0  0  0
   -2.3582    0.8970    3.6220 H   0  0  0  0  0  0  0  0  0  0  0  0
   -2.3290    2.4936    2.8516 H   0  0  0  0  0  0  0  0  0  0  0  0
   -4.6079    2.1028    1.9510 H   0  0  0  0  0  0  0  0  0  0  0  0
   -4.5536    2.0658    3.7057 H   0  0  0  0  0  0  0  0  0  0  0  0
   -4.5687   -0.4481    3.6592 H   0  0  0  0  0  0  0  0  0  0  0  0
   -4.6151   -0.4096    1.8954 H   0  0  0  0  0  0  0  0  0  0  0  0
   -5.9822    0.2075    2.8295 H   0  0  0  0  0  0  0  0  0  0  0  0
    1.5355    1.2609   -0.9106 C   0  0  0  0  0  3  0  0  0  0  0  0
    2.8054    0.5536   -0.4563 C   0  0  0  0  0  0  0  0  0  0  0  0
    2.8450   -0.9093   -0.8481 C   0  0  0  0  0  0  0  0  0  0  0  0
    2.8459   -1.0162   -2.2494 O   0  0  0  0  0  0  0  0  0  0  0  0
    2.8459   -2.3449   -2.7058 C   0  0  0  0  0  0  0  0  0  0  0  0
    2.8459   -2.3449   -4.2169 C   0  0  0  0  0  0  0  0  0  0  0  0
    0.4733    0.6952   -0.3895 H   0  0  0  0  0  0  0  0  0  0  0  0
    1.4383    1.2206   -1.9955 H   0  0  0  0  0  0  0  0  0  0  0  0
    1.5396    2.3087   -0.6069 H   0  0  0  0  0  0  0  0  0  0  0  0
    2.9005    0.6130    0.6315 H   0  0  0  0  0  0  0  0  0  0  0  0
    3.6830    1.0500   -0.8785 H   0  0  0  0  0  0  0  0  0  0  0  0
    1.9710   -1.4356   -0.4327 H   0  0  0  0  0  0  0  0  0  0  0  0
    3.7434   -1.3906   -0.4346 H   0  0  0  0  0  0  0  0  0  0  0  0
    3.7308   -2.8736   -2.3213 H   0  0  0  0  0  0  0  0  0  0  0  0
    1.9610   -2.8731   -2.3213 H   0  0  0  0  0  0  0  0  0  0  0  0
    3.7301   -1.8334   -4.5990 H   0  0  0  0  0  0  0  0  0  0  0  0
    1.9611   -1.8345   -4.5990 H   0  0  0  0  0  0  0  0  0  0  0  0
    2.8465   -3.3684   -4.5950 H   0  0  0  0  0  0  0  0  0  0  0  0
  1  2  1  0
  1  7  1  0
  1  8  1  0
  1 24  1  0
  2  3  1  0
  2  9  1  0
  2 10  1  0
  3  4  1  0
  4  5  1  0
  4 11  1  0
  4 12  1  0
  5  6  1  0
  5 13  1  0
  5 14  1  0
  6 15  1  0
  6 16  1  0
  6 17  1  0
 18 19  1  0
 18 25  1  0
 18 26  1  0
 19 20  1  0
 19 27  1  0
 19 28  1  0
 20 21  1  0
 20 29  1  0
 20 30  1  0
 21 22  1  0
 22 23  1  0
 22 31  1  0
 22 32  1  0
 23 33  1  0
 23 34  1  0
 23 35  1  0
M  RAD  1  18   2
M  END
>  <reaction>  (12) 
rmg_rxn_244

>  <mol_properties>  (12) 
{"0": {"label": "*3", "atom_type": "Cs"}, "1": {"label": "*4", "atom_type": "Cs"}, "17": {"label": "*1", "atom_type": "Cs"}, "18": {"label": "*0", "atom_type": "Cs"}, "23": {"label": "*2", "atom_type": "H0"}}

>  <type>  (12) 
unop_8

>  <geom_source>  (12) 
Heuristics

$$$$

     RDKit          3D

 35 33  0  0  0  0  0  0  0  0999 V2000
   -1.0309    1.7458    0.9152 C   0  0  0  0  0  0  0  0  0  0  0  0
   -0.7811    0.2730    1.1432 C   0  0  0  0  0  0  0  0  0  0  0  0
   -2.0150   -0.3804    1.2983 O   0  0  0  0  0  0  0  0  0  0  0  0
   -1.8888   -1.7631    1.5157 C   0  0  0  0  0  0  0  0  0  0  0  0
   -3.2673   -2.3811    1.6307 C   0  0  0  0  0  0  0  0  0  0  0  0
   -4.0896   -2.2518    0.3554 C   0  0  0  0  0  0  0  0  0  0  0  0
   -1.6320    1.8971    0.0179 H   0  0  0  0  0  0  0  0  0  0  0  0
   -1.5631    2.1789    1.7629 H   0  0  0  0  0  0  0  0  0  0  0  0
   -0.1615    0.1224    2.0397 H   0  0  0  0  0  0  0  0  0  0  0  0
   -0.2320   -0.1598    0.2940 H   0  0  0  0  0  0  0  0  0  0  0  0
   -1.3361   -2.2247    0.6821 H   0  0  0  0  0  0  0  0  0  0  0  0
   -1.3107   -1.9474    2.4330 H   0  0  0  0  0  0  0  0  0  0  0  0
   -3.7915   -1.9076    2.4648 H   0  0  0  0  0  0  0  0  0  0  0  0
   -3.1422   -3.4355    1.8925 H   0  0  0  0  0  0  0  0  0  0  0  0
   -3.5883   -2.7421   -0.4829 H   0  0  0  0  0  0  0  0  0  0  0  0
   -4.2331   -1.2036    0.0932 H   0  0  0  0  0  0  0  0  0  0  0  0
   -5.0719   -2.7117    0.4732 H   0  0  0  0  0  0  0  0  0  0  0  0
    1.0919    2.8764   -0.1262 C   0  0  0  0  0  3  0  0  0  0  0  0
    2.3618    2.1691    0.3282 C   0  0  0  0  0  0  0  0  0  0  0  0
    2.4014    0.7062   -0.0637 C   0  0  0  0  0  0  0  0  0  0  0  0
    2.4023    0.5993   -1.4649 O   0  0  0  0  0  0  0  0  0  0  0  0
    2.4023   -0.7294   -1.9213 C   0  0  0  0  0  0  0  0  0  0  0  0
    2.4023   -0.7294   -3.4325 C   0  0  0  0  0  0  0  0  0  0  0  0
    0.0297    2.3107    0.3949 H   0  0  0  0  0  0  0  0  0  0  0  0
    0.9946    2.8361   -1.2110 H   0  0  0  0  0  0  0  0  0  0  0  0
    1.0959    3.9242    0.1775 H   0  0  0  0  0  0  0  0  0  0  0  0
    2.4569    2.2285    1.4159 H   0  0  0  0  0  0  0  0  0  0  0  0
    3.2393    2.6655   -0.0941 H   0  0  0  0  0  0  0  0  0  0  0  0
    1.5274    0.1799    0.3518 H   0  0  0  0  0  0  0  0  0  0  0  0
    3.2998    0.2249    0.3499 H   0  0  0  0  0  0  0  0  0  0  0  0
    3.2872   -1.2581   -1.5369 H   0  0  0  0  0  0  0  0  0  0  0  0
    1.5174   -1.2576   -1.5368 H   0  0  0  0  0  0  0  0  0  0  0  0
    3.2864   -0.2179   -3.8146 H   0  0  0  0  0  0  0  0  0  0  0  0
    1.5175   -0.2190   -3.8146 H   0  0  0  0  0  0  0  0  0  0  0  0
    2.4029   -1.7529   -3.8105 H   0  0  0  0  0  0  0  0  0  0  0  0
  1  2  1  0
  1  7  1  0
  1  8  1  0
  1 24  1  0
  2  3  1  0
  2  9  1  0
  2 10  1  0
  3  4  1  0
  4  5  1  0
  4 11  1  0
  4 12  1  0
  5  6  1  0
  5 13  1  0
  5 14  1  0
  6 15  1  0
  6 16  1  0
  6 17  1  0
 18 19  1  0
 18 25  1  0
 18 26  1  0
 19 20  1  0
 19 27  1  0
 19 28  1  0
 20 21  1  0
 20 29  1  0
 20 30  1  0
 21 22  1  0
 22 23  1  0
 22 31  1  0
 22 32  1  0
 23 33  1  0
 23 34  1  0
 23 35  1  0
M  RAD  1  18   2
M  END
>  <reaction>  (13) 
rmg_rxn_244

>  <mol_properties>  (13) 
{"0": {"label": "*3", "atom_type": "Cs"}, "1": {"label": "*4", "atom_type": "Cs"}, "17": {"label": "*1", "atom_type": "Cs"}, "18": {"label": "*0", "atom_type": "Cs"}, "23": {"label": "*2", "atom_type": "H0"}}

>  <type>  (13) 
unop_9

>  <geom_source>  (13) 
Heuristics

$$$$

     RDKit          3D

 35 33  0  0  0  0  0  0  0  0999 V2000
   -0.8757    0.4978   -0.1677 C   0  0  0  0  0  0  0  0  0  0  0  0
   -0.8129    0.5558    1.3410 C   0  0  0  0  0  0  0  0  0  0  0  0
   -2.1192    0.6527    1.8487 O   0  0  0  0  0  0  0  0  0  0  0  0
   -2.1677    0.7119    3.2520 C   0  0  0  0  0  0  0  0  0  0  0  0
   -3.6129    0.7749    3.7022 C   0  0  0  0  0  0  0  0  0  0  0  0
   -4.4111   -0.4670    3.3281 C   0  0  0  0  0  0  0  0  0  0  0  0
   -1.4521   -0.3689   -0.4931 H   0  0  0  0  0  0  0  0  0  0  0  0
   -1.3504    1.3956   -0.5652 H   0  0  0  0  0  0  0  0  0  0  0  0
   -0.2181    1.4216    1.6680 H   0  0  0  0  0  0  0  0  0  0  0  0
   -0.3215   -0.3437    1.7403 H   0  0  0  0  0  0  0  0  0  0  0  0
   -1.6763   -0.1753    3.6818 H   0  0  0  0  0  0  0  0  0  0  0  0
   -1.6183    1.5952    3.6094 H   0  0  0  0  0  0  0  0  0  0  0  0
   -4.0745    1.6637    3.2643 H   0  0  0  0  0  0  0  0  0  0  0  0
   -3.6214    0.9151    4.7867 H   0  0  0  0  0  0  0  0  0  0  0  0
   -3.9743   -1.3614    3.7792 H   0  0  0  0  0  0  0  0  0  0  0  0
   -4.4217   -0.6080    2.2473 H   0  0  0  0  0  0  0  0  0  0  0  0
   -5.4434   -0.3887    3.6722 H   0  0  0  0  0  0  0  0  0  0  0  0
    1.2470    1.6283   -1.2091 C   0  0  0  0  0  3  0  0  0  0  0  0
    2.5169    0.9211   -0.7548 C   0  0  0  0  0  0  0  0  0  0  0  0
    2.5565   -0.5418   -1.1466 C   0  0  0  0  0  0  0  0  0  0  0  0
    2.5575   -0.6488   -2.5479 O   0  0  0  0  0  0  0  0  0  0  0  0
    2.5575   -1.9774   -3.0042 C   0  0  0  0  0  0  0  0  0  0  0  0
    2.5575   -1.9774   -4.5154 C   0  0  0  0  0  0  0  0  0  0  0  0
    0.1848    1.0626   -0.6880 H   0  0  0  0  0  0  0  0  0  0  0  0
    1.1498    1.5881   -2.2940 H   0  0  0  0  0  0  0  0  0  0  0  0
    1.2511    2.6762   -0.9054 H   0  0  0  0  0  0  0  0  0  0  0  0
    2.6120    0.9804    0.3330 H   0  0  0  0  0  0  0  0  0  0  0  0
    3.3945    1.4174   -1.1770 H   0  0  0  0  0  0  0  0  0  0  0  0
    1.6825   -1.0682   -0.7312 H   0  0  0  0  0  0  0  0  0  0  0  0
    3.4549   -1.0231   -0.7331 H   0  0  0  0  0  0  0  0  0  0  0  0
    3.4423   -2.5061   -2.6198 H   0  0  0  0  0  0  0  0  0  0  0  0
    1.6725   -2.5056   -2.6197 H   0  0  0  0  0  0  0  0  0  0  0  0
    3.4416   -1.4659   -4.8975 H   0  0  0  0  0  0  0  0  0  0  0  0
    1.6726   -1.4670   -4.8975 H   0  0  0  0  0  0  0  0  0  0  0  0
    2.5580   -3.0009   -4.8935 H   0  0  0  0  0  0  0  0  0  0  0  0
  1  2  1  0
  1  7  1  0
  1  8  1  0
  1 24  1  0
  2  3  1  0
  2  9  1  0
  2 10  1  0
  3  4  1  0
  4  5  1  0
  4 11  1  0
  4 12  1  0
  5  6  1  0
  5 13  1  0
  5 14  1  0
  6 15  1  0
  6 16  1  0
  6 17  1  0
 18 19  1  0
 18 25  1  0
 18 26  1  0
 19 20  1  0
 19 27  1  0
 19 28  1  0
 20 21  1  0
 20 29  1  0
 20 30  1  0
 21 22  1  0
 22 23  1  0
 22 31  1  0
 22 32  1  0
 23 33  1  0
 23 34  1  0
 23 35  1  0
M  RAD  1  18   2
M  END
>  <reaction>  (14) 
rmg_rxn_244

>  <mol_properties>  (14) 
{"0": {"label": "*3", "atom_type": "Cs"}, "1": {"label": "*4", "atom_type": "Cs"}, "17": {"label": "*1", "atom_type": "Cs"}, "18": {"label": "*0", "atom_type": "Cs"}, "23": {"label": "*2", "atom_type": "H0"}}

>  <type>  (14) 
unop_10

>  <geom_source>  (14) 
Heuristics

$$$$

     RDKit          3D

 35 33  0  0  0  0  0  0  0  0999 V2000
   -0.2263    0.2647    1.1203 C   0  0  0  0  0  0  0  0  0  0  0  0
   -1.4090    0.4165    0.1920 C   0  0  0  0  0  0  0  0  0  0  0  0
   -2.5893    0.4234    0.9539 O   0  0  0  0  0  0  0  0  0  0  0  0
   -3.7522    0.5619    0.1771 C   0  0  0  0  0  0  0  0  0  0  0  0
   -4.9627    0.5978    1.0874 C   0  0  0  0  0  0  0  0  0  0  0  0
   -4.9680    1.7944    2.0294 C   0  0  0  0  0  0  0  0  0  0  0  0
   -0.1896    1.0914    1.8307 H   0  0  0  0  0  0  0  0  0  0  0  0
   -0.2979   -0.6679    1.6810 H   0  0  0  0  0  0  0  0  0  0  0  0
   -1.4362   -0.4094   -0.5343 H   0  0  0  0  0  0  0  0  0  0  0  0
   -1.3289    1.3507   -0.3833 H   0  0  0  0  0  0  0  0  0  0  0  0
   -3.6981    1.4882   -0.4166 H   0  0  0  0  0  0  0  0  0  0  0  0
   -3.8323   -0.2759   -0.5310 H   0  0  0  0  0  0  0  0  0  0  0  0
   -4.9930   -0.3319    1.6614 H   0  0  0  0  0  0  0  0  0  0  0  0
   -5.8566    0.6107    0.4576 H   0  0  0  0  0  0  0  0  0  0  0  0
   -4.9621    2.7321    1.4682 H   0  0  0  0  0  0  0  0  0  0  0  0
   -4.0881    1.7833    2.6725 H   0  0  0  0  0  0  0  0  0  0  0  0
   -5.8551    1.7902    2.6645 H   0  0  0  0  0  0  0  0  0  0  0  0
    1.8964    1.3953    0.0789 C   0  0  0  0  0  3  0  0  0  0  0  0
    3.1663    0.6880    0.5332 C   0  0  0  0  0  0  0  0  0  0  0  0
    3.2059   -0.7749    0.1414 C   0  0  0  0  0  0  0  0  0  0  0  0
    3.2068   -0.8818   -1.2599 O   0  0  0  0  0  0  0  0  0  0  0  0
    3.2068   -2.2105   -1.7163 C   0  0  0  0  0  0  0  0  0  0  0  0
    3.2068   -2.2105   -3.2274 C   0  0  0  0  0  0  0  0  0  0  0  0
    0.8342    0.8295    0.6000 H   0  0  0  0  0  0  0  0  0  0  0  0
    1.7992    1.3550   -1.0060 H   0  0  0  0  0  0  0  0  0  0  0  0
    1.9005    2.4431    0.3826 H   0  0  0  0  0  0  0  0  0  0  0  0
    3.2614    0.7474    1.6210 H   0  0  0  0  0  0  0  0  0  0  0  0
    4.0439    1.1843    0.1110 H   0  0  0  0  0  0  0  0  0  0  0  0
    2.3319   -1.3012    0.5568 H   0  0  0  0  0  0  0  0  0  0  0  0
    4.1043   -1.2562    0.5549 H   0  0  0  0  0  0  0  0  0  0  0  0
    4.0917   -2.7392   -1.3318 H   0  0  0  0  0  0  0  0  0  0  0  0
    2.3219   -2.7387   -1.3317 H   0  0  0  0  0  0  0  0  0  0  0  0
    4.0910   -1.6990   -3.6095 H   0  0  0  0  0  0  0  0  0  0  0  0
    2.3220   -1.7001   -3.6095 H   0  0  0  0  0  0  0  0  0  0  0  0
    3.2074   -3.2340   -3.6055 H   0  0  0  0  0  0  0  0  0  0  0  0
  1  2  1  0
  1  7  1  0
  1  8  1  0
  1 24  1  0
  2  3  1  0
  2  9  1  0
  2 10  1  0
  3  4  1  0
  4  5  1  0
  4 11  1  0
  4 12  1  0
  5  6  1  0
  5 13  1  0
  5 14  1  0
  6 15  1  0
  6 16  1  0
  6 17  1  0
 18 19  1  0
 18 25  1  0
 18 26  1  0
 19 20  1  0
 19 27  1  0
 19 28  1  0
 20 21  1  0
 20 29  1  0
 20 30  1  0
 21 22  1  0
 22 23  1  0
 22 31  1  0
 22 32  1  0
 23 33  1  0
 23 34  1  0
 23 35  1  0
M  RAD  1  18   2
M  END
>  <reaction>  (15) 
rmg_rxn_244

>  <mol_properties>  (15) 
{"0": {"label": "*3", "atom_type": "Cs"}, "1": {"label": "*4", "atom_type": "Cs"}, "17": {"label": "*1", "atom_type": "Cs"}, "18": {"label": "*0", "atom_type": "Cs"}, "23": {"label": "*2", "atom_type": "H0"}}

>  <type>  (15) 
unop_11

>  <geom_source>  (15) 
Heuristics

$$$$

     RDKit          3D

 35 33  0  0  0  0  0  0  0  0999 V2000
   -1.1645    1.5748    0.2817 C   0  0  0  0  0  0  0  0  0  0  0  0
   -0.7616    0.4110    1.1573 C   0  0  0  0  0  0  0  0  0  0  0  0
   -1.9179   -0.1730    1.7008 O   0  0  0  0  0  0  0  0  0  0  0  0
   -1.6472   -1.2715    2.5345 C   0  0  0  0  0  0  0  0  0  0  0  0
   -2.9523   -1.8536    3.0376 C   0  0  0  0  0  0  0  0  0  0  0  0
   -3.8304   -2.4063    1.9228 C   0  0  0  0  0  0  0  0  0  0  0  0
   -1.8107    1.2371   -0.5293 H   0  0  0  0  0  0  0  0  0  0  0  0
   -1.7050    2.3219    0.8639 H   0  0  0  0  0  0  0  0  0  0  0  0
   -0.0971    0.7502    1.9659 H   0  0  0  0  0  0  0  0  0  0  0  0
   -0.2043   -0.3355    0.5723 H   0  0  0  0  0  0  0  0  0  0  0  0
   -1.0829   -2.0354    1.9764 H   0  0  0  0  0  0  0  0  0  0  0  0
   -1.0198   -0.9547    3.3805 H   0  0  0  0  0  0  0  0  0  0  0  0
   -3.4894   -1.0769    3.5882 H   0  0  0  0  0  0  0  0  0  0  0  0
   -2.7136   -2.6434    3.7553 H   0  0  0  0  0  0  0  0  0  0  0  0
   -3.3145   -3.2012    1.3784 H   0  0  0  0  0  0  0  0  0  0  0  0
   -4.0868   -1.6234    1.2091 H   0  0  0  0  0  0  0  0  0  0  0  0
   -4.7571   -2.8211    2.3220 H   0  0  0  0  0  0  0  0  0  0  0  0
    0.9583    2.7054   -0.7597 C   0  0  0  0  0  3  0  0  0  0  0  0
    2.2282    1.9981   -0.3053 C   0  0  0  0  0  0  0  0  0  0  0  0
    2.2678    0.5352   -0.6972 C   0  0  0  0  0  0  0  0  0  0  0  0
    2.2687    0.4283   -2.0985 O   0  0  0  0  0  0  0  0  0  0  0  0
    2.2687   -0.9004   -2.5548 C   0  0  0  0  0  0  0  0  0  0  0  0
    2.2687   -0.9004   -4.0660 C   0  0  0  0  0  0  0  0  0  0  0  0
   -0.1039    2.1396   -0.2386 H   0  0  0  0  0  0  0  0  0  0  0  0
    0.8610    2.6651   -1.8446 H   0  0  0  0  0  0  0  0  0  0  0  0
    0.9623    3.7532   -0.4560 H   0  0  0  0  0  0  0  0  0  0  0  0
    2.3233    2.0575    0.7824 H   0  0  0  0  0  0  0  0  0  0  0  0
    3.1057    2.4945   -0.7276 H   0  0  0  0  0  0  0  0  0  0  0  0
    1.3938    0.0089   -0.2818 H   0  0  0  0  0  0  0  0  0  0  0  0
    3.1662    0.0539   -0.2837 H   0  0  0  0  0  0  0  0  0  0  0  0
    3.1536   -1.4291   -2.1704 H   0  0  0  0  0  0  0  0  0  0  0  0
    1.3838   -1.4286   -2.1703 H   0  0  0  0  0  0  0  0  0  0  0  0
    3.1528   -0.3889   -4.4481 H   0  0  0  0  0  0  0  0  0  0  0  0
    1.3839   -0.3900   -4.4481 H   0  0  0  0  0  0  0  0  0  0  0  0
    2.2693   -1.9239   -4.4441 H   0  0  0  0  0  0  0  0  0  0  0  0
  1  2  1  0
  1  7  1  0
  1  8  1  0
  1 24  1  0
  2  3  1  0
  2  9  1  0
  2 10  1  0
  3  4  1  0
  4  5  1  0
  4 11  1  0
  4 12  1  0
  5  6  1  0
  5 13  1  0
  5 14  1  0
  6 15  1  0
  6 16  1  0
  6 17  1  0
 18 19  1  0
 18 25  1  0
 18 26  1  0
 19 20  1  0
 19 27  1  0
 19 28  1  0
 20 21  1  0
 20 29  1  0
 20 30  1  0
 21 22  1  0
 22 23  1  0
 22 31  1  0
 22 32  1  0
 23 33  1  0
 23 34  1  0
 23 35  1  0
M  RAD  1  18   2
M  END
>  <reaction>  (16) 
rmg_rxn_244

>  <mol_properties>  (16) 
{"0": {"label": "*3", "atom_type": "Cs"}, "1": {"label": "*4", "atom_type": "Cs"}, "17": {"label": "*1", "atom_type": "Cs"}, "18": {"label": "*0", "atom_type": "Cs"}, "23": {"label": "*2", "atom_type": "H0"}}

>  <type>  (16) 
unop_12

>  <geom_source>  (16) 
Heuristics

$$$$

     RDKit          3D

 35 33  0  0  0  0  0  0  0  0999 V2000
    3.5871    0.3884    0.4096 O   0  0  0  0  0  0  0  0  0  0  0  0
   -4.1979    0.4784    0.9023 O   0  0  0  0  0  0  0  0  0  0  0  0
    5.4243   -0.4347   -0.9085 C   0  0  0  0  0  0  0  0  0  0  0  0
   -2.0990    0.9913   -0.2102 C   0  0  0  0  0  0  0  0  0  0  0  0
    4.1139    0.3530   -0.9015 C   0  0  0  0  0  0  0  0  0  0  0  0
   -3.4460    1.5165    0.2999 C   0  0  0  0  0  0  0  0  0  0  0  0
    2.2928    0.9600    0.4096 C   0  0  0  0  0  0  0  0  0  0  0  0
   -5.1059   -0.0792   -0.0247 C   0  0  0  0  0  0  0  0  0  0  0  0
    5.2039   -1.9049   -0.5580 C   0  0  0  0  0  0  0  0  0  0  0  0
    1.2329   -0.1341    0.3832 C   0  0  0  0  0  0  0  0  0  0  0  0
   -5.7853   -1.2849    0.6058 C   0  0  0  0  0  0  0  0  0  0  0  0
   -1.2501    0.4102    0.9156 C   0  0  0  0  0  3  0  0  0  0  0  0
    6.1333    0.0162   -0.1805 H   0  0  0  0  0  0  0  0  0  0  0  0
    5.8805   -0.3706   -1.9201 H   0  0  0  0  0  0  0  0  0  0  0  0
   -1.5387    1.8269   -0.6810 H   0  0  0  0  0  0  0  0  0  0  0  0
   -2.2610    0.2113   -0.9835 H   0  0  0  0  0  0  0  0  0  0  0  0
    3.4044   -0.1239   -1.6166 H   0  0  0  0  0  0  0  0  0  0  0  0
    4.3314    1.3885   -1.2479 H   0  0  0  0  0  0  0  0  0  0  0  0
    2.1703    1.5339    1.3519 H   0  0  0  0  0  0  0  0  0  0  0  0
    2.1174    1.6799   -0.4247 H   0  0  0  0  0  0  0  0  0  0  0  0
   -5.8898    0.6648   -0.2924 H   0  0  0  0  0  0  0  0  0  0  0  0
   -4.5843   -0.4175   -0.9486 H   0  0  0  0  0  0  0  0  0  0  0  0
   -3.2563    2.2960    1.0685 H   0  0  0  0  0  0  0  0  0  0  0  0
   -3.9857    2.0315   -0.5303 H   0  0  0  0  0  0  0  0  0  0  0  0
    4.7852   -2.0020    0.4661 H   0  0  0  0  0  0  0  0  0  0  0  0
    4.5079   -2.3751   -1.2849 H   0  0  0  0  0  0  0  0  0  0  0  0
    6.1737   -2.4444   -0.5957 H   0  0  0  0  0  0  0  0  0  0  0  0
    1.2918   -0.7077   -0.5652 H   0  0  0  0  0  0  0  0  0  0  0  0
    1.3803   -0.8274    1.2383 H   0  0  0  0  0  0  0  0  0  0  0  0
    0.0273    0.4164    0.4770 H   0  0  0  0  0  0  0  0  0  0  0  0
   -6.3329   -0.9770    1.5218 H   0  0  0  0  0  0  0  0  0  0  0  0
   -6.5062   -1.7286   -0.1130 H   0  0  0  0  0  0  0  0  0  0  0  0
   -5.0266   -2.0504    0.8744 H   0  0  0  0  0  0  0  0  0  0  0  0
   -1.0500    1.1755    1.6954 H   0  0  0  0  0  0  0  0  0  0  0  0
   -1.7426   -0.4766    1.3678 H   0  0  0  0  0  0  0  0  0  0  0  0
  1  7  1  0
  1  5  1  0
  2  8  1  0
  2  6  1  0
  3  9  1  0
  3  5  1  0
  3 13  1  0
  3 14  1  0
  4 12  1  0
  4  6  1  0
  4 15  1  0
  4 16  1  0
  5 17  1  0
  5 18  1  0
  6 23  1  0
  6 24  1  0
  7 10  1  0
  7 19  1  0
  7 20  1  0
  8 11  1  0
  8 21  1  0
  8 22  1  0
  9 25  1  0
  9 26  1  0
  9 27  1  0
 10 28  1  0
 10 29  1  0
 10 30  1  0
 11 31  1  0
 11 32  1  0
 11 33  1  0
 12 34  1  0
 12 35  1  0
M  RAD  1  12   2
M  END
>  <reaction>  (17) 
rmg_rxn_244

>  <mol_properties>  (17) 
{"0": {"label": "*3", "atom_type": "Cs"}, "1": {"label": "*4", "atom_type": "Cs"}, "17": {"label": "*1", "atom_type": "Cs"}, "18": {"label": "*0", "atom_type": "Cs"}, "23": {"label": "*2", "atom_type": "H0"}}

>  <type>  (17) 
unop_13

>  <geom_source>  (17) 
AutoTST

$$$$

     RDKit          3D

 35 33  0  0  0  0  0  0  0  0999 V2000
   -1.1026    1.0652   -0.1390 C   0  0  0  0  0  0  0  0  0  0  0  0
   -0.7681    0.4617    1.2055 C   0  0  0  0  0  0  0  0  0  0  0  0
   -1.9598    0.2419    1.9162 O   0  0  0  0  0  0  0  0  0  0  0  0
   -1.7537   -0.3217    3.1870 C   0  0  0  0  0  0  0  0  0  0  0  0
   -3.0930   -0.5558    3.8555 C   0  0  0  0  0  0  0  0  0  0  0  0
   -3.9660   -1.5580    3.1121 C   0  0  0  0  0  0  0  0  0  0  0  0
   -1.7425    0.3926   -0.7112 H   0  0  0  0  0  0  0  0  0  0  0  0
   -1.6261    2.0135   -0.0126 H   0  0  0  0  0  0  0  0  0  0  0  0
   -0.1098    1.1340    1.7756 H   0  0  0  0  0  0  0  0  0  0  0  0
   -0.2279   -0.4878    1.0770 H   0  0  0  0  0  0  0  0  0  0  0  0
   -1.2078   -1.2735    3.0908 H   0  0  0  0  0  0  0  0  0  0  0  0
   -1.1343    0.3501    3.7992 H   0  0  0  0  0  0  0  0  0  0  0  0
   -3.6111    0.4029    3.9402 H   0  0  0  0  0  0  0  0  0  0  0  0
   -2.9036   -0.9048    4.8745 H   0  0  0  0  0  0  0  0  0  0  0  0
   -3.4700   -2.5293    3.0409 H   0  0  0  0  0  0  0  0  0  0  0  0
   -4.1734   -1.2128    2.0993 H   0  0  0  0  0  0  0  0  0  0  0  0
   -4.9180   -1.7053    3.6242 H   0  0  0  0  0  0  0  0  0  0  0  0
    1.0201    2.1957   -1.1804 C   0  0  0  0  0  3  0  0  0  0  0  0
    2.2900    1.4885   -0.7260 C   0  0  0  0  0  0  0  0  0  0  0  0
    2.3296    0.0256   -1.1179 C   0  0  0  0  0  0  0  0  0  0  0  0
    2.3306   -0.0814   -2.5191 O   0  0  0  0  0  0  0  0  0  0  0  0
    2.3306   -1.4100   -2.9755 C   0  0  0  0  0  0  0  0  0  0  0  0
    2.3306   -1.4100   -4.4866 C   0  0  0  0  0  0  0  0  0  0  0  0
   -0.0421    1.6300   -0.6592 H   0  0  0  0  0  0  0  0  0  0  0  0
    0.9229    2.1555   -2.2652 H   0  0  0  0  0  0  0  0  0  0  0  0
    1.0242    3.2436   -0.8767 H   0  0  0  0  0  0  0  0  0  0  0  0
    2.3852    1.5478    0.3618 H   0  0  0  0  0  0  0  0  0  0  0  0
    3.1676    1.9848   -1.1482 H   0  0  0  0  0  0  0  0  0  0  0  0
    1.4556   -0.5008   -0.7024 H   0  0  0  0  0  0  0  0  0  0  0  0
    3.2280   -0.4557   -0.7043 H   0  0  0  0  0  0  0  0  0  0  0  0
    3.2154   -1.9387   -2.5911 H   0  0  0  0  0  0  0  0  0  0  0  0
    1.4456   -1.9382   -2.5910 H   0  0  0  0  0  0  0  0  0  0  0  0
    3.2147   -0.8985   -4.8688 H   0  0  0  0  0  0  0  0  0  0  0  0
    1.4458   -0.8996   -4.8688 H   0  0  0  0  0  0  0  0  0  0  0  0
    2.3312   -2.4335   -4.8647 H   0  0  0  0  0  0  0  0  0  0  0  0
  1  2  1  0
  1  7  1  0
  1  8  1  0
  1 24  1  0
  2  3  1  0
  2  9  1  0
  2 10  1  0
  3  4  1  0
  4  5  1  0
  4 11  1  0
  4 12  1  0
  5  6  1  0
  5 13  1  0
  5 14  1  0
  6 15  1  0
  6 16  1  0
  6 17  1  0
 18 19  1  0
 18 25  1  0
 18 26  1  0
 19 20  1  0
 19 27  1  0
 19 28  1  0
 20 21  1  0
 20 29  1  0
 20 30  1  0
 21 22  1  0
 22 23  1  0
 22 31  1  0
 22 32  1  0
 23 33  1  0
 23 34  1  0
 23 35  1  0
M  RAD  1  18   2
M  END
>  <reaction>  (18) 
rmg_rxn_244

>  <mol_properties>  (18) 
{"0": {"label": "*3", "atom_type": "Cs"}, "1": {"label": "*4", "atom_type": "Cs"}, "17": {"label": "*1", "atom_type": "Cs"}, "18": {"label": "*0", "atom_type": "Cs"}, "23": {"label": "*2", "atom_type": "H0"}}

>  <type>  (18) 
unop_14

>  <geom_source>  (18) 
gaussian_log

$$$$
