
     RDKit          3D

  9  8  0  0  0  0  0  0  0  0999 V2000
   -1.0314    0.2323   -0.1227 C   0  0  0  0  0  0  0  0  0  0  0  0
    0.3094   -0.4511    0.0063 C   0  0  0  0  0  0  0  0  0  0  0  0
    0.3197   -1.7698    0.6841 N   0  0  0  0  0  0  0  0  0  0  0  0
   -0.7498   -2.1455    1.0557 O   0  0  0  0  0  0  0  0  0  0  0  0
   -1.4744    0.4198    0.8552 H   0  0  0  0  0  0  0  0  0  0  0  0
   -0.9073    1.1865   -0.6350 H   0  0  0  0  0  0  0  0  0  0  0  0
   -1.7319   -0.3778   -0.6927 H   0  0  0  0  0  0  0  0  0  0  0  0
    1.0375    0.1401    0.5713 H   0  0  0  0  0  0  0  0  0  0  0  0
    0.7826   -0.6494   -0.9609 H   0  0  0  0  0  0  0  0  0  0  0  0
  1  2  1  0
  1  5  1  0
  1  6  1  0
  1  7  1  0
  2  3  1  0
  2  8  1  0
  2  9  1  0
  3  4  2  0
M  END
>  <reaction>  (1) 
rmg_rxn_324

>  <mol_properties>  (1) 
{"1": {"label": "donator", "atom_type": "Cs"}, "7": {"label": "d_hydrogen", "atom_type": "H0"}}

>  <type>  (1) 
r1h

$$$$

     RDKit          3D

 17 16  0  0  0  0  0  0  0  0999 V2000
   -2.5196    0.7765    0.6863 C   0  0  0  0  0  0  0  0  0  0  0  0
   -1.7832    0.2264   -0.5439 C   0  0  0  0  0  0  0  0  0  0  0  0
   -0.5364   -0.5090   -0.2164 C   0  0  0  0  0  3  0  0  0  0  0  0
   -0.7195   -1.6896    0.4220 O   0  0  0  0  0  0  0  0  0  0  0  0
    0.4618   -2.3470    0.8423 C   0  0  0  0  0  0  0  0  0  0  0  0
    0.0797   -3.6206    1.5573 C   0  0  0  0  0  0  0  0  0  0  0  0
   -1.8902    1.4809    1.2340 H   0  0  0  0  0  0  0  0  0  0  0  0
   -3.4347    1.2951    0.3937 H   0  0  0  0  0  0  0  0  0  0  0  0
   -2.7882   -0.0345    1.3642 H   0  0  0  0  0  0  0  0  0  0  0  0
   -2.4551   -0.4399   -1.0937 H   0  0  0  0  0  0  0  0  0  0  0  0
   -1.5294    1.0480   -1.2176 H   0  0  0  0  0  0  0  0  0  0  0  0
    0.3864    0.0229    0.0104 H   0  0  0  0  0  0  0  0  0  0  0  0
    1.0871   -2.5604   -0.0319 H   0  0  0  0  0  0  0  0  0  0  0  0
    1.0283   -1.6824    1.5065 H   0  0  0  0  0  0  0  0  0  0  0  0
   -0.4799   -4.2803    0.8934 H   0  0  0  0  0  0  0  0  0  0  0  0
    0.9764   -4.1449    1.8908 H   0  0  0  0  0  0  0  0  0  0  0  0
   -0.5383   -3.4025    2.4289 H   0  0  0  0  0  0  0  0  0  0  0  0
  1  2  1  0
  1  7  1  0
  1  8  1  0
  1  9  1  0
  2  3  1  0
  2 10  1  0
  2 11  1  0
  3  4  1  0
  3 12  1  0
  4  5  1  0
  5  6  1  0
  5 13  1  0
  5 14  1  0
  6 15  1  0
  6 16  1  0
  6 17  1  0
M  RAD  1   3   2
M  END
>  <reaction>  (2) 
rmg_rxn_324

>  <mol_properties>  (2) 
{"2": {"label": "acceptor", "atom_type": "Cs"}}

>  <type>  (2) 
r2

$$$$

     RDKit          3D

 18 17  0  0  0  0  0  0  0  0999 V2000
    2.2026   -0.7213   -0.2612 C   0  0  0  0  0  0  0  0  0  0  0  0
    1.5384    0.2638    0.6915 C   0  0  0  0  0  0  0  0  0  0  0  0
    2.2584    1.5946    0.7694 C   0  0  0  0  0  0  0  0  0  0  0  0
    2.2212    2.2185   -0.4893 O   0  0  0  0  0  0  0  0  0  0  0  0
    2.8988    3.4488   -0.5204 C   0  0  0  0  0  0  0  0  0  0  0  0
    2.7981    4.0296   -1.9118 C   0  0  0  0  0  0  0  0  0  0  0  0
    3.2294   -0.9309    0.0486 H   0  0  0  0  0  0  0  0  0  0  0  0
    2.2338   -0.3181   -1.2734 H   0  0  0  0  0  0  0  0  0  0  0  0
    1.6610   -1.6680   -0.2875 H   0  0  0  0  0  0  0  0  0  0  0  0
    1.4990   -0.1566    1.7002 H   0  0  0  0  0  0  0  0  0  0  0  0
    0.5055    0.4455    0.3835 H   0  0  0  0  0  0  0  0  0  0  0  0
    3.3038    1.4410    1.0808 H   0  0  0  0  0  0  0  0  0  0  0  0
    1.7844    2.2410    1.5226 H   0  0  0  0  0  0  0  0  0  0  0  0
    2.4596    4.1376    0.2164 H   0  0  0  0  0  0  0  0  0  0  0  0
    3.9524    3.3035   -0.2397 H   0  0  0  0  0  0  0  0  0  0  0  0
    1.7543    4.1869   -2.1856 H   0  0  0  0  0  0  0  0  0  0  0  0
    3.2472    3.3545   -2.6411 H   0  0  0  0  0  0  0  0  0  0  0  0
    3.3178    4.9878   -1.9600 H   0  0  0  0  0  0  0  0  0  0  0  0
  1  2  1  0
  1  7  1  0
  1  8  1  0
  1  9  1  0
  2  3  1  0
  2 10  1  0
  2 11  1  0
  3  4  1  0
  3 12  1  0
  3 13  1  0
  4  5  1  0
  5  6  1  0
  5 14  1  0
  5 15  1  0
  6 16  1  0
  6 17  1  0
  6 18  1  0
M  END
>  <reaction>  (3) 
rmg_rxn_324

>  <mol_properties>  (3) 
{"0": {"label": "a_hydrogen", "atom_type": "H0"}, "3": {"label": "acceptor", "atom_type": "Cs"}}

>  <type>  (3) 
r2h

$$$$

     RDKit          3D

 26 24  0  0  0  0  0  0  0  0999 V2000
   -2.1760   -0.4499   -1.6377 C   0  0  0  0  0  0  0  0  0  0  0  0
   -1.7331    0.2849   -0.3971 C   0  0  0  0  0  0  0  0  0  0  0  0
   -1.1966    1.5852   -0.5169 N   0  0  0  0  0  0  0  0  0  0  0  0
   -0.6723    1.8325   -1.5934 O   0  0  0  0  0  0  0  0  0  0  0  0
   -1.3766   -0.4848   -2.3764 H   0  0  0  0  0  0  0  0  0  0  0  0
   -2.4693   -1.4690   -1.3826 H   0  0  0  0  0  0  0  0  0  0  0  0
   -3.0321    0.0485   -2.0966 H   0  0  0  0  0  0  0  0  0  0  0  0
   -0.7486   -0.3809    0.0560 H   0  0  0  0  0  0  0  0  0  0  0  0
   -2.4272    0.2570    0.4418 H   0  0  0  0  0  0  0  0  0  0  0  0
    0.1848   -0.0554    2.7203 C   0  0  0  0  0  0  0  0  0  0  0  0
    0.1290   -1.3708    1.9510 C   0  0  0  0  0  0  0  0  0  0  0  0
    0.3653   -1.2109    0.4805 C   0  0  0  0  0  3  0  0  0  0  0  0
    1.4776   -0.5115    0.1774 O   0  0  0  0  0  0  0  0  0  0  0  0
    1.8019   -0.4342   -1.2072 C   0  0  0  0  0  0  0  0  0  0  0  0
    3.0602    0.3829   -1.3585 C   0  0  0  0  0  0  0  0  0  0  0  0
   -0.5395    0.6611    2.3284 H   0  0  0  0  0  0  0  0  0  0  0  0
   -0.0331   -0.2210    3.7757 H   0  0  0  0  0  0  0  0  0  0  0  0
    1.1719    0.3984    2.6414 H   0  0  0  0  0  0  0  0  0  0  0  0
    0.8733   -2.0689    2.3532 H   0  0  0  0  0  0  0  0  0  0  0  0
   -0.8453   -1.8495    2.0795 H   0  0  0  0  0  0  0  0  0  0  0  0
    0.1956   -2.0928   -0.1461 H   0  0  0  0  0  0  0  0  0  0  0  0
    1.9359   -1.4507   -1.5963 H   0  0  0  0  0  0  0  0  0  0  0  0
    0.9706    0.0386   -1.7403 H   0  0  0  0  0  0  0  0  0  0  0  0
    3.8887   -0.0718   -0.8143 H   0  0  0  0  0  0  0  0  0  0  0  0
    3.3310    0.4489   -2.4128 H   0  0  0  0  0  0  0  0  0  0  0  0
    2.9022    1.3929   -0.9808 H   0  0  0  0  0  0  0  0  0  0  0  0
  1  2  1  0
  1  5  1  0
  1  6  1  0
  1  7  1  0
  2  3  1  0
  2  8  1  0
  2  9  1  0
  3  4  2  0
 10 11  1  0
 10 16  1  0
 10 17  1  0
 10 18  1  0
 11 12  1  0
 11 19  1  0
 11 20  1  0
 12 13  1  0
 12 21  1  0
 13 14  1  0
 14 15  1  0
 14 22  1  0
 14 23  1  0
 15 24  1  0
 15 25  1  0
 15 26  1  0
M  RAD  1  12   2
M  END
>  <reaction>  (4) 
rmg_rxn_324

>  <mol_properties>  (4) 
{"1": {"label": "*1", "atom_type": "Cs"}, "2": {"label": "*0", "atom_type": "N3d"}, "7": {"label": "*2", "atom_type": "H0"}, "11": {"label": "*3", "atom_type": "Cs"}, "12": {"label": "*4", "atom_type": "O2s"}}

>  <type>  (4) 
ts

$$$$

     RDKit          3D

 26 24  0  0  0  0  0  0  0  0999 V2000
   -1.7482    0.7402   -1.8060 C   0  0  0  0  0  0  0  0  0  0  0  0
   -1.7482    0.7402   -0.2956 C   0  0  0  0  0  0  0  0  0  0  0  0
   -1.7482    2.0661    0.3680 N   0  0  0  0  0  0  0  0  0  0  0  0
   -1.7482    2.9957   -0.3797 O   0  0  0  0  0  0  0  0  0  0  0  0
   -0.8680    1.2476   -2.2005 H   0  0  0  0  0  0  0  0  0  0  0  0
   -1.7482   -0.2870   -2.1713 H   0  0  0  0  0  0  0  0  0  0  0  0
   -2.6283    1.2476   -2.2005 H   0  0  0  0  0  0  0  0  0  0  0  0
   -0.7027    0.1314    0.2170 H   0  0  0  0  0  0  0  0  0  0  0  0
   -2.6194    0.2329    0.1316 H   0  0  0  0  0  0  0  0  0  0  0  0
    2.3189    1.1105    0.8543 C   0  0  0  0  0  0  0  0  0  0  0  0
    1.1429    0.4827    1.5907 C   0  0  0  0  0  0  0  0  0  0  0  0
    0.3490   -0.4811    0.7327 C   0  0  0  0  0  3  0  0  0  0  0  0
    1.1699   -1.5603    0.3633 O   0  0  0  0  0  0  0  0  0  0  0  0
    0.5241   -2.4913   -0.4672 C   0  0  0  0  0  0  0  0  0  0  0  0
    1.4910   -3.6030   -0.8032 C   0  0  0  0  0  0  0  0  0  0  0  0
    1.9774    1.6685   -0.0212 H   0  0  0  0  0  0  0  0  0  0  0  0
    2.8629    1.8014    1.5001 H   0  0  0  0  0  0  0  0  0  0  0  0
    3.0142    0.3438    0.5126 H   0  0  0  0  0  0  0  0  0  0  0  0
    1.4966   -0.0513    2.4764 H   0  0  0  0  0  0  0  0  0  0  0  0
    0.4599    1.2612    1.9418 H   0  0  0  0  0  0  0  0  0  0  0  0
   -0.5284   -0.8489    1.2846 H   0  0  0  0  0  0  0  0  0  0  0  0
   -0.3641   -2.8949    0.0412 H   0  0  0  0  0  0  0  0  0  0  0  0
    0.1743   -1.9956   -1.3848 H   0  0  0  0  0  0  0  0  0  0  0  0
    1.8277   -4.1041    0.1050 H   0  0  0  0  0  0  0  0  0  0  0  0
    1.0103   -4.3400   -1.4484 H   0  0  0  0  0  0  0  0  0  0  0  0
    2.3647   -3.2059   -1.3213 H   0  0  0  0  0  0  0  0  0  0  0  0
  1  2  1  0
  1  5  1  0
  1  6  1  0
  1  7  1  0
  2  3  1  0
  2  8  1  0
  2  9  1  0
  3  4  2  0
 10 11  1  0
 10 16  1  0
 10 17  1  0
 10 18  1  0
 11 12  1  0
 11 19  1  0
 11 20  1  0
 12 13  1  0
 12 21  1  0
 13 14  1  0
 14 15  1  0
 14 22  1  0
 14 23  1  0
 15 24  1  0
 15 25  1  0
 15 26  1  0
M  RAD  1  12   2
M  END
>  <reaction>  (5) 
rmg_rxn_324

>  <mol_properties>  (5) 
{"1": {"label": "*1", "atom_type": "Cs"}, "2": {"label": "*0", "atom_type": "N3d"}, "7": {"label": "*2", "atom_type": "H0"}, "11": {"label": "*3", "atom_type": "Cs"}, "12": {"label": "*4", "atom_type": "O2s"}}

>  <type>  (5) 
unop_1

>  <geom_source>  (5) 
Heuristics

$$$$

     RDKit          3D

 26 24  0  0  0  0  0  0  0  0999 V2000
   -1.2549    1.0178   -2.0986 C   0  0  0  0  0  0  0  0  0  0  0  0
   -1.2549    1.0178   -0.5881 C   0  0  0  0  0  0  0  0  0  0  0  0
   -1.2549    2.3437    0.0755 N   0  0  0  0  0  0  0  0  0  0  0  0
   -1.2549    3.2733   -0.6722 O   0  0  0  0  0  0  0  0  0  0  0  0
   -0.3747    1.5252   -2.4931 H   0  0  0  0  0  0  0  0  0  0  0  0
   -1.2549   -0.0094   -2.4639 H   0  0  0  0  0  0  0  0  0  0  0  0
   -2.1350    1.5252   -2.4931 H   0  0  0  0  0  0  0  0  0  0  0  0
   -0.2094    0.4090   -0.0755 H   0  0  0  0  0  0  0  0  0  0  0  0
   -2.1261    0.5105   -0.1609 H   0  0  0  0  0  0  0  0  0  0  0  0
    1.9415   -0.9856   -1.7066 C   0  0  0  0  0  0  0  0  0  0  0  0
    2.0295   -0.0714   -0.4918 C   0  0  0  0  0  0  0  0  0  0  0  0
    0.8424   -0.2035    0.4402 C   0  0  0  0  0  3  0  0  0  0  0  0
    0.8038   -1.5073    0.9633 O   0  0  0  0  0  0  0  0  0  0  0  0
   -0.2905   -1.7326    1.8150 C   0  0  0  0  0  0  0  0  0  0  0  0
   -0.2363   -3.1567    2.3176 C   0  0  0  0  0  0  0  0  0  0  0  0
    1.0470   -0.7665   -2.2951 H   0  0  0  0  0  0  0  0  0  0  0  0
    2.8087   -0.8597   -2.3564 H   0  0  0  0  0  0  0  0  0  0  0  0
    1.8935   -2.0306   -1.4006 H   0  0  0  0  0  0  0  0  0  0  0  0
    2.9402   -0.2853    0.0736 H   0  0  0  0  0  0  0  0  0  0  0  0
    2.0922    0.9728   -0.8104 H   0  0  0  0  0  0  0  0  0  0  0  0
    0.9173    0.5271    1.2590 H   0  0  0  0  0  0  0  0  0  0  0  0
   -0.2616   -1.0261    2.6578 H   0  0  0  0  0  0  0  0  0  0  0  0
   -1.2305   -1.5516    1.2732 H   0  0  0  0  0  0  0  0  0  0  0  0
    0.6892   -3.3331    2.8668 H   0  0  0  0  0  0  0  0  0  0  0  0
   -1.0779   -3.3551    2.9830 H   0  0  0  0  0  0  0  0  0  0  0  0
   -0.2806   -3.8582    1.4837 H   0  0  0  0  0  0  0  0  0  0  0  0
  1  2  1  0
  1  5  1  0
  1  6  1  0
  1  7  1  0
  2  3  1  0
  2  8  1  0
  2  9  1  0
  3  4  2  0
 10 11  1  0
 10 16  1  0
 10 17  1  0
 10 18  1  0
 11 12  1  0
 11 19  1  0
 11 20  1  0
 12 13  1  0
 12 21  1  0
 13 14  1  0
 14 15  1  0
 14 22  1  0
 14 23  1  0
 15 24  1  0
 15 25  1  0
 15 26  1  0
M  RAD  1  12   2
M  END
>  <reaction>  (6) 
rmg_rxn_324

>  <mol_properties>  (6) 
{"1": {"label": "*1", "atom_type": "Cs"}, "2": {"label": "*0", "atom_type": "N3d"}, "7": {"label": "*2", "atom_type": "H0"}, "11": {"label": "*3", "atom_type": "Cs"}, "12": {"label": "*4", "atom_type": "O2s"}}

>  <type>  (6) 
unop_2

>  <geom_source>  (6) 
Heuristics

$$$$

     RDKit          3D

 26 24  0  0  0  0  0  0  0  0999 V2000
   -1.8598    0.4230   -1.7715 C   0  0  0  0  0  0  0  0  0  0  0  0
   -1.8598    0.4230   -0.2610 C   0  0  0  0  0  0  0  0  0  0  0  0
   -1.8598    1.7489    0.4026 N   0  0  0  0  0  0  0  0  0  0  0  0
   -1.8598    2.6785   -0.3451 O   0  0  0  0  0  0  0  0  0  0  0  0
   -0.9797    0.9304   -2.1660 H   0  0  0  0  0  0  0  0  0  0  0  0
   -1.8598   -0.6042   -2.1368 H   0  0  0  0  0  0  0  0  0  0  0  0
   -2.7400    0.9304   -2.1660 H   0  0  0  0  0  0  0  0  0  0  0  0
   -0.8144   -0.1858    0.2516 H   0  0  0  0  0  0  0  0  0  0  0  0
   -2.7310   -0.0843    0.1661 H   0  0  0  0  0  0  0  0  0  0  0  0
    1.4954    1.0385    1.9805 C   0  0  0  0  0  0  0  0  0  0  0  0
    0.5935   -0.1823    2.1048 C   0  0  0  0  0  0  0  0  0  0  0  0
    0.2374   -0.7983    0.7673 C   0  0  0  0  0  3  0  0  0  0  0  0
    1.4066   -1.2670    0.1443 O   0  0  0  0  0  0  0  0  0  0  0  0
    1.1755   -1.8253   -1.1240 C   0  0  0  0  0  0  0  0  0  0  0  0
    2.4912   -2.2936   -1.7013 C   0  0  0  0  0  0  0  0  0  0  0  0
    1.0141    1.8196    1.3867 H   0  0  0  0  0  0  0  0  0  0  0  0
    1.7261    1.4578    2.9609 H   0  0  0  0  0  0  0  0  0  0  0  0
    2.4341    0.7770    1.4920 H   0  0  0  0  0  0  0  0  0  0  0  0
    1.0772   -0.9450    2.7205 H   0  0  0  0  0  0  0  0  0  0  0  0
   -0.3383    0.0881    2.6092 H   0  0  0  0  0  0  0  0  0  0  0  0
   -0.4718   -1.6275    0.9061 H   0  0  0  0  0  0  0  0  0  0  0  0
    0.4711   -2.6662   -1.0410 H   0  0  0  0  0  0  0  0  0  0  0  0
    0.7107   -1.0776   -1.7834 H   0  0  0  0  0  0  0  0  0  0  0  0
    2.9462   -3.0451   -1.0551 H   0  0  0  0  0  0  0  0  0  0  0  0
    2.3361   -2.7325   -2.6882 H   0  0  0  0  0  0  0  0  0  0  0  0
    3.1850   -1.4578   -1.7985 H   0  0  0  0  0  0  0  0  0  0  0  0
  1  2  1  0
  1  5  1  0
  1  6  1  0
  1  7  1  0
  2  3  1  0
  2  8  1  0
  2  9  1  0
  3  4  2  0
 10 11  1  0
 10 16  1  0
 10 17  1  0
 10 18  1  0
 11 12  1  0
 11 19  1  0
 11 20  1  0
 12 13  1  0
 12 21  1  0
 13 14  1  0
 14 15  1  0
 14 22  1  0
 14 23  1  0
 15 24  1  0
 15 25  1  0
 15 26  1  0
M  RAD  1  12   2
M  END
>  <reaction>  (7) 
rmg_rxn_324

>  <mol_properties>  (7) 
{"1": {"label": "*1", "atom_type": "Cs"}, "2": {"label": "*0", "atom_type": "N3d"}, "7": {"label": "*2", "atom_type": "H0"}, "11": {"label": "*3", "atom_type": "Cs"}, "12": {"label": "*4", "atom_type": "O2s"}}

>  <type>  (7) 
unop_3

>  <geom_source>  (7) 
Heuristics

$$$$

     RDKit          3D

 26 24  0  0  0  0  0  0  0  0999 V2000
   -0.7869    0.4117   -2.4885 C   0  0  0  0  0  0  0  0  0  0  0  0
   -0.7869    0.4117   -0.9780 C   0  0  0  0  0  0  0  0  0  0  0  0
   -0.7869    1.7377   -0.3144 N   0  0  0  0  0  0  0  0  0  0  0  0
   -0.7869    2.6673   -1.0621 O   0  0  0  0  0  0  0  0  0  0  0  0
    0.0932    0.9191   -2.8830 H   0  0  0  0  0  0  0  0  0  0  0  0
   -0.7869   -0.6154   -2.8538 H   0  0  0  0  0  0  0  0  0  0  0  0
   -1.6671    0.9191   -2.8830 H   0  0  0  0  0  0  0  0  0  0  0  0
    0.2585   -0.1970   -0.4654 H   0  0  0  0  0  0  0  0  0  0  0  0
   -1.6581   -0.0956   -0.5509 H   0  0  0  0  0  0  0  0  0  0  0  0
   -0.0335   -2.8060   -0.7477 C   0  0  0  0  0  0  0  0  0  0  0  0
    1.3436   -2.2550   -0.4021 C   0  0  0  0  0  0  0  0  0  0  0  0
    1.3103   -0.8095    0.0503 C   0  0  0  0  0  3  0  0  0  0  0  0
    0.5659   -0.7103    1.2382 O   0  0  0  0  0  0  0  0  0  0  0  0
    0.4514    0.6063    1.7144 C   0  0  0  0  0  0  0  0  0  0  0  0
   -0.3636    0.5990    2.9869 C   0  0  0  0  0  0  0  0  0  0  0  0
   -0.4928   -2.2290   -1.5542 H   0  0  0  0  0  0  0  0  0  0  0  0
    0.0299   -3.8452   -1.0737 H   0  0  0  0  0  0  0  0  0  0  0  0
   -0.6959   -2.7596    0.1166 H   0  0  0  0  0  0  0  0  0  0  0  0
    1.8006   -2.8558    0.3885 H   0  0  0  0  0  0  0  0  0  0  0  0
    2.0039   -2.3202   -1.2713 H   0  0  0  0  0  0  0  0  0  0  0  0
    2.3323   -0.4382    0.2159 H   0  0  0  0  0  0  0  0  0  0  0  0
    1.4511    1.0263    1.9006 H   0  0  0  0  0  0  0  0  0  0  0  0
   -0.0289    1.2394    0.9538 H   0  0  0  0  0  0  0  0  0  0  0  0
    0.1190   -0.0174    3.7462 H   0  0  0  0  0  0  0  0  0  0  0  0
   -0.4656    1.6131    3.3764 H   0  0  0  0  0  0  0  0  0  0  0  0
   -1.3601    0.1973    2.8001 H   0  0  0  0  0  0  0  0  0  0  0  0
  1  2  1  0
  1  5  1  0
  1  6  1  0
  1  7  1  0
  2  3  1  0
  2  8  1  0
  2  9  1  0
  3  4  2  0
 10 11  1  0
 10 16  1  0
 10 17  1  0
 10 18  1  0
 11 12  1  0
 11 19  1  0
 11 20  1  0
 12 13  1  0
 12 21  1  0
 13 14  1  0
 14 15  1  0
 14 22  1  0
 14 23  1  0
 15 24  1  0
 15 25  1  0
 15 26  1  0
M  RAD  1  12   2
M  END
>  <reaction>  (8) 
rmg_rxn_324

>  <mol_properties>  (8) 
{"1": {"label": "*1", "atom_type": "Cs"}, "2": {"label": "*0", "atom_type": "N3d"}, "7": {"label": "*2", "atom_type": "H0"}, "11": {"label": "*3", "atom_type": "Cs"}, "12": {"label": "*4", "atom_type": "O2s"}}

>  <type>  (8) 
unop_4

>  <geom_source>  (8) 
Heuristics

$$$$

     RDKit          3D

 26 24  0  0  0  0  0  0  0  0999 V2000
   -1.7524   -0.0590   -1.9300 C   0  0  0  0  0  0  0  0  0  0  0  0
   -1.7524   -0.0590   -0.4195 C   0  0  0  0  0  0  0  0  0  0  0  0
   -1.7524    1.2670    0.2441 N   0  0  0  0  0  0  0  0  0  0  0  0
   -1.7524    2.1965   -0.5036 O   0  0  0  0  0  0  0  0  0  0  0  0
   -0.8723    0.4484   -2.3245 H   0  0  0  0  0  0  0  0  0  0  0  0
   -1.7524   -1.0861   -2.2953 H   0  0  0  0  0  0  0  0  0  0  0  0
   -2.6326    0.4484   -2.3245 H   0  0  0  0  0  0  0  0  0  0  0  0
   -0.7070   -0.6678    0.0931 H   0  0  0  0  0  0  0  0  0  0  0  0
   -2.6236   -0.5663    0.0077 H   0  0  0  0  0  0  0  0  0  0  0  0
    0.2013    0.1724    2.6819 C   0  0  0  0  0  0  0  0  0  0  0  0
    0.2786   -1.2417    2.1219 C   0  0  0  0  0  0  0  0  0  0  0  0
    0.3448   -1.2803    0.6088 C   0  0  0  0  0  3  0  0  0  0  0  0
    1.5243   -0.6493    0.1780 O   0  0  0  0  0  0  0  0  0  0  0  0
    1.6534   -0.6064   -1.2202 C   0  0  0  0  0  0  0  0  0  0  0  0
    2.9476    0.0894   -1.5727 C   0  0  0  0  0  0  0  0  0  0  0  0
   -0.6858    0.6909    2.3097 H   0  0  0  0  0  0  0  0  0  0  0  0
    0.1497    0.1609    3.7716 H   0  0  0  0  0  0  0  0  0  0  0  0
    1.0762    0.7523    2.3880 H   0  0  0  0  0  0  0  0  0  0  0  0
    1.1567   -1.7559    2.5210 H   0  0  0  0  0  0  0  0  0  0  0  0
   -0.5960   -1.8187    2.4349 H   0  0  0  0  0  0  0  0  0  0  0  0
    0.3244   -2.3207    0.2526 H   0  0  0  0  0  0  0  0  0  0  0  0
    1.6420   -1.6275   -1.6295 H   0  0  0  0  0  0  0  0  0  0  0  0
    0.7977   -0.0724   -1.6592 H   0  0  0  0  0  0  0  0  0  0  0  0
    3.7975   -0.4471   -1.1494 H   0  0  0  0  0  0  0  0  0  0  0  0
    3.0700    0.1341   -2.6560 H   0  0  0  0  0  0  0  0  0  0  0  0
    2.9534    1.1071   -1.1807 H   0  0  0  0  0  0  0  0  0  0  0  0
  1  2  1  0
  1  5  1  0
  1  6  1  0
  1  7  1  0
  2  3  1  0
  2  8  1  0
  2  9  1  0
  3  4  2  0
 10 11  1  0
 10 16  1  0
 10 17  1  0
 10 18  1  0
 11 12  1  0
 11 19  1  0
 11 20  1  0
 12 13  1  0
 12 21  1  0
 13 14  1  0
 14 15  1  0
 14 22  1  0
 14 23  1  0
 15 24  1  0
 15 25  1  0
 15 26  1  0
M  RAD  1  12   2
M  END
>  <reaction>  (9) 
rmg_rxn_324

>  <mol_properties>  (9) 
{"1": {"label": "*1", "atom_type": "Cs"}, "2": {"label": "*0", "atom_type": "N3d"}, "7": {"label": "*2", "atom_type": "H0"}, "11": {"label": "*3", "atom_type": "Cs"}, "12": {"label": "*4", "atom_type": "O2s"}}

>  <type>  (9) 
unop_5

>  <geom_source>  (9) 
Heuristics

$$$$

     RDKit          3D

 26 24  0  0  0  0  0  0  0  0999 V2000
   -0.8638    0.1116   -2.4943 C   0  0  0  0  0  0  0  0  0  0  0  0
   -0.8638    0.1116   -0.9838 C   0  0  0  0  0  0  0  0  0  0  0  0
   -0.8638    1.4376   -0.3202 N   0  0  0  0  0  0  0  0  0  0  0  0
   -0.8638    2.3671   -1.0679 O   0  0  0  0  0  0  0  0  0  0  0  0
    0.0163    0.6190   -2.8888 H   0  0  0  0  0  0  0  0  0  0  0  0
   -0.8638   -0.9155   -2.8596 H   0  0  0  0  0  0  0  0  0  0  0  0
   -1.7440    0.6190   -2.8888 H   0  0  0  0  0  0  0  0  0  0  0  0
    0.1816   -0.4972   -0.4712 H   0  0  0  0  0  0  0  0  0  0  0  0
   -1.7350   -0.3957   -0.5567 H   0  0  0  0  0  0  0  0  0  0  0  0
   -0.5604   -2.8888    0.2574 C   0  0  0  0  0  0  0  0  0  0  0  0
    0.9309   -2.5802    0.2473 C   0  0  0  0  0  0  0  0  0  0  0  0
    1.2334   -1.1097    0.0445 C   0  0  0  0  0  3  0  0  0  0  0  0
    0.7132   -0.3742    1.1231 O   0  0  0  0  0  0  0  0  0  0  0  0
    0.9170    1.0105    1.0018 C   0  0  0  0  0  0  0  0  0  0  0  0
    0.3218    1.7017    2.2065 C   0  0  0  0  0  0  0  0  0  0  0  0
   -1.0258   -2.5937   -0.6864 H   0  0  0  0  0  0  0  0  0  0  0  0
   -0.7398   -3.9554    0.3999 H   0  0  0  0  0  0  0  0  0  0  0  0
   -1.0610   -2.3485    1.0609 H   0  0  0  0  0  0  0  0  0  0  0  0
    1.3871   -2.9022    1.1869 H   0  0  0  0  0  0  0  0  0  0  0  0
    1.4252   -3.1386   -0.5526 H   0  0  0  0  0  0  0  0  0  0  0  0
    2.3192   -0.9504   -0.0292 H   0  0  0  0  0  0  0  0  0  0  0  0
    1.9932    1.2263    0.9275 H   0  0  0  0  0  0  0  0  0  0  0  0
    0.4486    1.3786    0.0770 H   0  0  0  0  0  0  0  0  0  0  0  0
    0.7952    1.3475    3.1229 H   0  0  0  0  0  0  0  0  0  0  0  0
    0.4689    2.7805    2.1345 H   0  0  0  0  0  0  0  0  0  0  0  0
   -0.7482    1.5012    2.2723 H   0  0  0  0  0  0  0  0  0  0  0  0
  1  2  1  0
  1  5  1  0
  1  6  1  0
  1  7  1  0
  2  3  1  0
  2  8  1  0
  2  9  1  0
  3  4  2  0
 10 11  1  0
 10 16  1  0
 10 17  1  0
 10 18  1  0
 11 12  1  0
 11 19  1  0
 11 20  1  0
 12 13  1  0
 12 21  1  0
 13 14  1  0
 14 15  1  0
 14 22  1  0
 14 23  1  0
 15 24  1  0
 15 25  1  0
 15 26  1  0
M  RAD  1  12   2
M  END
>  <reaction>  (10) 
rmg_rxn_324

>  <mol_properties>  (10) 
{"1": {"label": "*1", "atom_type": "Cs"}, "2": {"label": "*0", "atom_type": "N3d"}, "7": {"label": "*2", "atom_type": "H0"}, "11": {"label": "*3", "atom_type": "Cs"}, "12": {"label": "*4", "atom_type": "O2s"}}

>  <type>  (10) 
unop_6

>  <geom_source>  (10) 
Heuristics

$$$$

     RDKit          3D

 26 24  0  0  0  0  0  0  0  0999 V2000
   -1.0473   -0.1336   -2.4079 C   0  0  0  0  0  0  0  0  0  0  0  0
   -1.0473   -0.1336   -0.8974 C   0  0  0  0  0  0  0  0  0  0  0  0
   -1.0473    1.1923   -0.2338 N   0  0  0  0  0  0  0  0  0  0  0  0
   -1.0473    2.1219   -0.9815 O   0  0  0  0  0  0  0  0  0  0  0  0
   -0.1671    0.3738   -2.8024 H   0  0  0  0  0  0  0  0  0  0  0  0
   -1.0473   -1.1608   -2.7732 H   0  0  0  0  0  0  0  0  0  0  0  0
   -1.9274    0.3738   -2.8024 H   0  0  0  0  0  0  0  0  0  0  0  0
   -0.0018   -0.7424   -0.3848 H   0  0  0  0  0  0  0  0  0  0  0  0
   -1.9185   -0.6409   -0.4703 H   0  0  0  0  0  0  0  0  0  0  0  0
   -0.8576   -2.4304    1.4088 C   0  0  0  0  0  0  0  0  0  0  0  0
    0.6035   -2.5210    0.9888 C   0  0  0  0  0  0  0  0  0  0  0  0
    1.0499   -1.3549    0.1309 C   0  0  0  0  0  3  0  0  0  0  0  0
    0.9542   -0.1662    0.8744 O   0  0  0  0  0  0  0  0  0  0  0  0
    1.3164    0.9776    0.1436 C   0  0  0  0  0  0  0  0  0  0  0  0
    1.1771    2.1922    1.0318 C   0  0  0  0  0  0  0  0  0  0  0  0
   -1.5134   -2.4068    0.5349 H   0  0  0  0  0  0  0  0  0  0  0  0
   -1.1445   -3.2877    2.0194 H   0  0  0  0  0  0  0  0  0  0  0  0
   -1.0375   -1.5243    1.9872 H   0  0  0  0  0  0  0  0  0  0  0  0
    1.2456   -2.5680    1.8721 H   0  0  0  0  0  0  0  0  0  0  0  0
    0.7759   -3.4404    0.4224 H   0  0  0  0  0  0  0  0  0  0  0  0
    2.0863   -1.5042   -0.2060 H   0  0  0  0  0  0  0  0  0  0  0  0
    2.3516    0.8809   -0.2159 H   0  0  0  0  0  0  0  0  0  0  0  0
    0.6734    1.0744   -0.7437 H   0  0  0  0  0  0  0  0  0  0  0  0
    1.8246    2.1033    1.9049 H   0  0  0  0  0  0  0  0  0  0  0  0
    1.4542    3.0946    0.4846 H   0  0  0  0  0  0  0  0  0  0  0  0
    0.1477    2.2977    1.3762 H   0  0  0  0  0  0  0  0  0  0  0  0
  1  2  1  0
  1  5  1  0
  1  6  1  0
  1  7  1  0
  2  3  1  0
  2  8  1  0
  2  9  1  0
  3  4  2  0
 10 11  1  0
 10 16  1  0
 10 17  1  0
 10 18  1  0
 11 12  1  0
 11 19  1  0
 11 20  1  0
 12 13  1  0
 12 21  1  0
 13 14  1  0
 14 15  1  0
 14 22  1  0
 14 23  1  0
 15 24  1  0
 15 25  1  0
 15 26  1  0
M  RAD  1  12   2
M  END
>  <reaction>  (11) 
rmg_rxn_324

>  <mol_properties>  (11) 
{"1": {"label": "*1", "atom_type": "Cs"}, "2": {"label": "*0", "atom_type": "N3d"}, "7": {"label": "*2", "atom_type": "H0"}, "11": {"label": "*3", "atom_type": "Cs"}, "12": {"label": "*4", "atom_type": "O2s"}}

>  <type>  (11) 
unop_7

>  <geom_source>  (11) 
Heuristics

$$$$

     RDKit          3D

 26 24  0  0  0  0  0  0  0  0999 V2000
   -1.6099    0.9018   -1.8942 C   0  0  0  0  0  0  0  0  0  0  0  0
   -1.6099    0.9018   -0.3837 C   0  0  0  0  0  0  0  0  0  0  0  0
   -1.6099    2.2278    0.2799 N   0  0  0  0  0  0  0  0  0  0  0  0
   -1.6099    3.1573   -0.4678 O   0  0  0  0  0  0  0  0  0  0  0  0
   -0.7297    1.4092   -2.2887 H   0  0  0  0  0  0  0  0  0  0  0  0
   -1.6099   -0.1253   -2.2595 H   0  0  0  0  0  0  0  0  0  0  0  0
   -2.4900    1.4092   -2.2887 H   0  0  0  0  0  0  0  0  0  0  0  0
   -0.5644    0.2930    0.1289 H   0  0  0  0  0  0  0  0  0  0  0  0
   -2.4811    0.3945    0.0434 H   0  0  0  0  0  0  0  0  0  0  0  0
    2.6237    0.6709   -0.2954 C   0  0  0  0  0  0  0  0  0  0  0  0
    1.6171    0.6694    0.8473 C   0  0  0  0  0  0  0  0  0  0  0  0
    0.4874   -0.3195    0.6446 C   0  0  0  0  0  3  0  0  0  0  0  0
    1.0100   -1.6236    0.6134 O   0  0  0  0  0  0  0  0  0  0  0  0
    0.0334   -2.6090    0.3927 C   0  0  0  0  0  0  0  0  0  0  0  0
    0.6994   -3.9654    0.3768 C   0  0  0  0  0  0  0  0  0  0  0  0
    2.1395    0.9280   -1.2408 H   0  0  0  0  0  0  0  0  0  0  0  0
    3.4181    1.3973   -0.1180 H   0  0  0  0  0  0  0  0  0  0  0  0
    3.0799   -0.3124   -0.4093 H   0  0  0  0  0  0  0  0  0  0  0  0
    2.1191    0.4345    1.7894 H   0  0  0  0  0  0  0  0  0  0  0  0
    1.1768    1.6638    0.9623 H   0  0  0  0  0  0  0  0  0  0  0  0
   -0.2485   -0.2296    1.4571 H   0  0  0  0  0  0  0  0  0  0  0  0
   -0.7298   -2.5647    1.1839 H   0  0  0  0  0  0  0  0  0  0  0  0
   -0.4793   -2.4212   -0.5622 H   0  0  0  0  0  0  0  0  0  0  0  0
    1.1963   -4.1583    1.3283 H   0  0  0  0  0  0  0  0  0  0  0  0
   -0.0413   -4.7484    0.2071 H   0  0  0  0  0  0  0  0  0  0  0  0
    1.4453   -4.0156   -0.4173 H   0  0  0  0  0  0  0  0  0  0  0  0
  1  2  1  0
  1  5  1  0
  1  6  1  0
  1  7  1  0
  2  3  1  0
  2  8  1  0
  2  9  1  0
  3  4  2  0
 10 11  1  0
 10 16  1  0
 10 17  1  0
 10 18  1  0
 11 12  1  0
 11 19  1  0
 11 20  1  0
 12 13  1  0
 12 21  1  0
 13 14  1  0
 14 15  1  0
 14 22  1  0
 14 23  1  0
 15 24  1  0
 15 25  1  0
 15 26  1  0
M  RAD  1  12   2
M  END
>  <reaction>  (12) 
rmg_rxn_324

>  <mol_properties>  (12) 
{"1": {"label": "*1", "atom_type": "Cs"}, "2": {"label": "*0", "atom_type": "N3d"}, "7": {"label": "*2", "atom_type": "H0"}, "11": {"label": "*3", "atom_type": "Cs"}, "12": {"label": "*4", "atom_type": "O2s"}}

>  <type>  (12) 
unop_8

>  <geom_source>  (12) 
Heuristics

$$$$

     RDKit          3D

 26 24  0  0  0  0  0  0  0  0999 V2000
   -0.8365    0.7157   -2.3942 C   0  0  0  0  0  0  0  0  0  0  0  0
   -0.8365    0.7157   -0.8837 C   0  0  0  0  0  0  0  0  0  0  0  0
   -0.8365    2.0416   -0.2202 N   0  0  0  0  0  0  0  0  0  0  0  0
   -0.8365    2.9712   -0.9679 O   0  0  0  0  0  0  0  0  0  0  0  0
    0.0436    1.2231   -2.7887 H   0  0  0  0  0  0  0  0  0  0  0  0
   -0.8365   -0.3115   -2.7595 H   0  0  0  0  0  0  0  0  0  0  0  0
   -1.7166    1.2231   -2.7887 H   0  0  0  0  0  0  0  0  0  0  0  0
    0.2089    0.1069   -0.3712 H   0  0  0  0  0  0  0  0  0  0  0  0
   -1.7077    0.2084   -0.4566 H   0  0  0  0  0  0  0  0  0  0  0  0
    0.5869   -2.3716   -1.4342 C   0  0  0  0  0  0  0  0  0  0  0  0
    1.7317   -1.6032   -0.7874 C   0  0  0  0  0  0  0  0  0  0  0  0
    1.2607   -0.5056    0.1445 C   0  0  0  0  0  3  0  0  0  0  0  0
    0.5501   -1.0761    1.2144 O   0  0  0  0  0  0  0  0  0  0  0  0
    0.0426   -0.1249    2.1151 C   0  0  0  0  0  0  0  0  0  0  0  0
   -0.6999   -0.8414    3.2191 C   0  0  0  0  0  0  0  0  0  0  0  0
   -0.0477   -1.7035   -2.0219 H   0  0  0  0  0  0  0  0  0  0  0  0
    0.9630   -3.1486   -2.1013 H   0  0  0  0  0  0  0  0  0  0  0  0
   -0.0369   -2.8453   -0.6763 H   0  0  0  0  0  0  0  0  0  0  0  0
    2.3711   -2.2871   -0.2232 H   0  0  0  0  0  0  0  0  0  0  0  0
    2.3592   -1.1448   -1.5567 H   0  0  0  0  0  0  0  0  0  0  0  0
    2.1200    0.0649    0.5267 H   0  0  0  0  0  0  0  0  0  0  0  0
    0.8660    0.4742    2.5315 H   0  0  0  0  0  0  0  0  0  0  0  0
   -0.6284    0.5695    1.5881 H   0  0  0  0  0  0  0  0  0  0  0  0
   -0.0321   -1.5199    3.7510 H   0  0  0  0  0  0  0  0  0  0  0  0
   -1.1034   -0.1213    3.9326 H   0  0  0  0  0  0  0  0  0  0  0  0
   -1.5261   -1.4233    2.8088 H   0  0  0  0  0  0  0  0  0  0  0  0
  1  2  1  0
  1  5  1  0
  1  6  1  0
  1  7  1  0
  2  3  1  0
  2  8  1  0
  2  9  1  0
  3  4  2  0
 10 11  1  0
 10 16  1  0
 10 17  1  0
 10 18  1  0
 11 12  1  0
 11 19  1  0
 11 20  1  0
 12 13  1  0
 12 21  1  0
 13 14  1  0
 14 15  1  0
 14 22  1  0
 14 23  1  0
 15 24  1  0
 15 25  1  0
 15 26  1  0
M  RAD  1  12   2
M  END
>  <reaction>  (13) 
rmg_rxn_324

>  <mol_properties>  (13) 
{"1": {"label": "*1", "atom_type": "Cs"}, "2": {"label": "*0", "atom_type": "N3d"}, "7": {"label": "*2", "atom_type": "H0"}, "11": {"label": "*3", "atom_type": "Cs"}, "12": {"label": "*4", "atom_type": "O2s"}}

>  <type>  (13) 
unop_9

>  <geom_source>  (13) 
Heuristics

$$$$

     RDKit          3D

 26 24  0  0  0  0  0  0  0  0999 V2000
   -1.4555    0.9891   -1.9886 C   0  0  0  0  0  0  0  0  0  0  0  0
   -1.4555    0.9891   -0.4781 C   0  0  0  0  0  0  0  0  0  0  0  0
   -1.4555    2.3151    0.1855 N   0  0  0  0  0  0  0  0  0  0  0  0
   -1.4555    3.2446   -0.5622 O   0  0  0  0  0  0  0  0  0  0  0  0
   -0.5753    1.4965   -2.3831 H   0  0  0  0  0  0  0  0  0  0  0  0
   -1.4555   -0.0380   -2.3539 H   0  0  0  0  0  0  0  0  0  0  0  0
   -2.3356    1.4965   -2.3831 H   0  0  0  0  0  0  0  0  0  0  0  0
   -0.4100    0.3803    0.0345 H   0  0  0  0  0  0  0  0  0  0  0  0
   -2.3267    0.4818   -0.0510 H   0  0  0  0  0  0  0  0  0  0  0  0
    2.4641   -0.1068   -1.2082 C   0  0  0  0  0  0  0  0  0  0  0  0
    1.9154    0.4523    0.0978 C   0  0  0  0  0  0  0  0  0  0  0  0
    0.6417   -0.2321    0.5502 C   0  0  0  0  0  3  0  0  0  0  0  0
    0.9092   -1.5864    0.8136 O   0  0  0  0  0  0  0  0  0  0  0  0
   -0.2279   -2.3115    1.2071 C   0  0  0  0  0  0  0  0  0  0  0  0
    0.1694   -3.7469    1.4627 C   0  0  0  0  0  0  0  0  0  0  0  0
    1.7366    0.0052   -2.0161 H   0  0  0  0  0  0  0  0  0  0  0  0
    3.3764    0.4126   -1.5051 H   0  0  0  0  0  0  0  0  0  0  0  0
    2.6928   -1.1677   -1.1081 H   0  0  0  0  0  0  0  0  0  0  0  0
    2.6618    0.3556    0.8904 H   0  0  0  0  0  0  0  0  0  0  0  0
    1.7035    1.5198   -0.0094 H   0  0  0  0  0  0  0  0  0  0  0  0
    0.2474    0.2551    1.4540 H   0  0  0  0  0  0  0  0  0  0  0  0
   -0.6621   -1.8654    2.1141 H   0  0  0  0  0  0  0  0  0  0  0  0
   -0.9960   -2.2592    0.4214 H   0  0  0  0  0  0  0  0  0  0  0  0
    0.9208   -3.8007    2.2512 H   0  0  0  0  0  0  0  0  0  0  0  0
   -0.6995   -4.3305    1.7709 H   0  0  0  0  0  0  0  0  0  0  0  0
    0.5855   -4.1949    0.5597 H   0  0  0  0  0  0  0  0  0  0  0  0
  1  2  1  0
  1  5  1  0
  1  6  1  0
  1  7  1  0
  2  3  1  0
  2  8  1  0
  2  9  1  0
  3  4  2  0
 10 11  1  0
 10 16  1  0
 10 17  1  0
 10 18  1  0
 11 12  1  0
 11 19  1  0
 11 20  1  0
 12 13  1  0
 12 21  1  0
 13 14  1  0
 14 15  1  0
 14 22  1  0
 14 23  1  0
 15 24  1  0
 15 25  1  0
 15 26  1  0
M  RAD  1  12   2
M  END
>  <reaction>  (14) 
rmg_rxn_324

>  <mol_properties>  (14) 
{"1": {"label": "*1", "atom_type": "Cs"}, "2": {"label": "*0", "atom_type": "N3d"}, "7": {"label": "*2", "atom_type": "H0"}, "11": {"label": "*3", "atom_type": "Cs"}, "12": {"label": "*4", "atom_type": "O2s"}}

>  <type>  (14) 
unop_10

>  <geom_source>  (14) 
Heuristics

$$$$

     RDKit          3D

 26 24  0  0  0  0  0  0  0  0999 V2000
   -1.3576   -0.2596   -2.2191 C   0  0  0  0  0  0  0  0  0  0  0  0
   -1.3576   -0.2596   -0.7086 C   0  0  0  0  0  0  0  0  0  0  0  0
   -1.3576    1.0664   -0.0450 N   0  0  0  0  0  0  0  0  0  0  0  0
   -1.3576    1.9959   -0.7927 O   0  0  0  0  0  0  0  0  0  0  0  0
   -0.4775    0.2478   -2.6136 H   0  0  0  0  0  0  0  0  0  0  0  0
   -1.3576   -1.2867   -2.5844 H   0  0  0  0  0  0  0  0  0  0  0  0
   -2.2378    0.2478   -2.6136 H   0  0  0  0  0  0  0  0  0  0  0  0
   -0.3122   -0.8684   -0.1960 H   0  0  0  0  0  0  0  0  0  0  0  0
   -2.2288   -0.7669   -0.2815 H   0  0  0  0  0  0  0  0  0  0  0  0
   -0.7120   -1.3289    2.3928 C   0  0  0  0  0  0  0  0  0  0  0  0
    0.3796   -2.0946    1.6572 C   0  0  0  0  0  0  0  0  0  0  0  0
    0.7396   -1.4809    0.3197 C   0  0  0  0  0  3  0  0  0  0  0  0
    1.2671   -0.1945    0.5244 O   0  0  0  0  0  0  0  0  0  0  0  0
    1.5976    0.4676   -0.6697 C   0  0  0  0  0  0  0  0  0  0  0  0
    2.1514    1.8336   -0.3365 C   0  0  0  0  0  0  0  0  0  0  0  0
   -1.6296   -1.2928    1.8002 H   0  0  0  0  0  0  0  0  0  0  0  0
   -0.9484   -1.8018    3.3472 H   0  0  0  0  0  0  0  0  0  0  0  0
   -0.3993   -0.3033    2.5887 H   0  0  0  0  0  0  0  0  0  0  0  0
    1.2827   -2.1433    2.2711 H   0  0  0  0  0  0  0  0  0  0  0  0
    0.0615   -3.1256    1.4792 H   0  0  0  0  0  0  0  0  0  0  0  0
    1.4758   -2.1094   -0.2025 H   0  0  0  0  0  0  0  0  0  0  0  0
    2.3379   -0.1205   -1.2322 H   0  0  0  0  0  0  0  0  0  0  0  0
    0.7055    0.5592   -1.3067 H   0  0  0  0  0  0  0  0  0  0  0  0
    3.0439    1.7433    0.2835 H   0  0  0  0  0  0  0  0  0  0  0  0
    2.4163    2.3674   -1.2506 H   0  0  0  0  0  0  0  0  0  0  0  0
    1.4126    2.4231    0.2076 H   0  0  0  0  0  0  0  0  0  0  0  0
  1  2  1  0
  1  5  1  0
  1  6  1  0
  1  7  1  0
  2  3  1  0
  2  8  1  0
  2  9  1  0
  3  4  2  0
 10 11  1  0
 10 16  1  0
 10 17  1  0
 10 18  1  0
 11 12  1  0
 11 19  1  0
 11 20  1  0
 12 13  1  0
 12 21  1  0
 13 14  1  0
 14 15  1  0
 14 22  1  0
 14 23  1  0
 15 24  1  0
 15 25  1  0
 15 26  1  0
M  RAD  1  12   2
M  END
>  <reaction>  (15) 
rmg_rxn_324

>  <mol_properties>  (15) 
{"1": {"label": "*1", "atom_type": "Cs"}, "2": {"label": "*0", "atom_type": "N3d"}, "7": {"label": "*2", "atom_type": "H0"}, "11": {"label": "*3", "atom_type": "Cs"}, "12": {"label": "*4", "atom_type": "O2s"}}

>  <type>  (15) 
unop_11

>  <geom_source>  (15) 
Heuristics

$$$$

     RDKit          3D

 26 24  0  0  0  0  0  0  0  0999 V2000
   -1.0179    0.9385   -2.2433 C   0  0  0  0  0  0  0  0  0  0  0  0
   -1.0179    0.9385   -0.7329 C   0  0  0  0  0  0  0  0  0  0  0  0
   -1.0179    2.2644   -0.0693 N   0  0  0  0  0  0  0  0  0  0  0  0
   -1.0179    3.1940   -0.8170 O   0  0  0  0  0  0  0  0  0  0  0  0
   -0.1378    1.4458   -2.6378 H   0  0  0  0  0  0  0  0  0  0  0  0
   -1.0179   -0.0887   -2.6086 H   0  0  0  0  0  0  0  0  0  0  0  0
   -1.8981    1.4458   -2.6378 H   0  0  0  0  0  0  0  0  0  0  0  0
    0.0275    0.3297   -0.2203 H   0  0  0  0  0  0  0  0  0  0  0  0
   -1.8891    0.4312   -0.3057 H   0  0  0  0  0  0  0  0  0  0  0  0
    1.2570   -1.7554   -1.7608 C   0  0  0  0  0  0  0  0  0  0  0  0
    1.9726   -0.8030   -0.8121 C   0  0  0  0  0  0  0  0  0  0  0  0
    1.0793   -0.2828    0.2954 C   0  0  0  0  0  3  0  0  0  0  0  0
    0.6606   -1.3568    1.0993 O   0  0  0  0  0  0  0  0  0  0  0  0
   -0.2047   -0.9709    2.1365 C   0  0  0  0  0  0  0  0  0  0  0  0
   -0.5920   -2.1949    2.9336 C   0  0  0  0  0  0  0  0  0  0  0  0
    0.4075   -1.2626   -2.2402 H   0  0  0  0  0  0  0  0  0  0  0  0
    1.9283   -2.1047   -2.5468 H   0  0  0  0  0  0  0  0  0  0  0  0
    0.8799   -2.6252   -1.2230 H   0  0  0  0  0  0  0  0  0  0  0  0
    2.8333   -1.3014   -0.3586 H   0  0  0  0  0  0  0  0  0  0  0  0
    2.3596    0.0579   -1.3642 H   0  0  0  0  0  0  0  0  0  0  0  0
    1.6199    0.4547    0.9066 H   0  0  0  0  0  0  0  0  0  0  0  0
    0.2911   -0.2319    2.7833 H   0  0  0  0  0  0  0  0  0  0  0  0
   -1.0988   -0.4860    1.7176 H   0  0  0  0  0  0  0  0  0  0  0  0
    0.2926   -2.6684    3.3608 H   0  0  0  0  0  0  0  0  0  0  0  0
   -1.2650   -1.9190    3.7470 H   0  0  0  0  0  0  0  0  0  0  0  0
   -1.0976   -2.9216    2.2966 H   0  0  0  0  0  0  0  0  0  0  0  0
  1  2  1  0
  1  5  1  0
  1  6  1  0
  1  7  1  0
  2  3  1  0
  2  8  1  0
  2  9  1  0
  3  4  2  0
 10 11  1  0
 10 16  1  0
 10 17  1  0
 10 18  1  0
 11 12  1  0
 11 19  1  0
 11 20  1  0
 12 13  1  0
 12 21  1  0
 13 14  1  0
 14 15  1  0
 14 22  1  0
 14 23  1  0
 15 24  1  0
 15 25  1  0
 15 26  1  0
M  RAD  1  12   2
M  END
>  <reaction>  (16) 
rmg_rxn_324

>  <mol_properties>  (16) 
{"1": {"label": "*1", "atom_type": "Cs"}, "2": {"label": "*0", "atom_type": "N3d"}, "7": {"label": "*2", "atom_type": "H0"}, "11": {"label": "*3", "atom_type": "Cs"}, "12": {"label": "*4", "atom_type": "O2s"}}

>  <type>  (16) 
unop_12

>  <geom_source>  (16) 
Heuristics

$$$$

     RDKit          3D

 26 24  0  0  0  0  0  0  0  0999 V2000
    1.2121   -0.2793   -0.8040 O   0  0  0  0  0  0  0  0  0  0  0  0
   -3.3106    0.1813   -1.0129 O   0  0  0  0  0  1  0  0  0  0  0  0
   -2.6054   -0.7181   -1.3566 N   0  0  0  0  0  0  0  0  0  0  0  0
    0.0242    1.8166   -0.5952 C   0  0  0  0  0  0  0  0  0  0  0  0
    0.3179    0.4462    0.0199 C   0  0  0  0  0  0  0  0  0  0  0  0
    2.5562   -0.0869   -0.4027 C   0  0  0  0  0  0  0  0  0  0  0  0
   -1.0004    2.5838    0.2342 C   0  0  0  0  0  0  0  0  0  0  0  0
    2.9854   -1.1883    0.5606 C   0  0  0  0  0  0  0  0  0  0  0  0
   -2.2690   -2.0334    0.6676 C   0  0  0  0  0  0  0  0  0  0  0  0
   -1.6111   -1.2494   -0.4600 C   0  0  0  0  0  0  0  0  0  0  0  0
   -0.3713    1.6795   -1.6247 H   0  0  0  0  0  0  0  0  0  0  0  0
    0.9600    2.4123   -0.6554 H   0  0  0  0  0  0  0  0  0  0  0  0
    0.6770    0.5542    1.0708 H   0  0  0  0  0  0  0  0  0  0  0  0
   -0.8191   -0.2368    0.0800 H   0  0  0  0  0  0  0  0  0  0  0  0
    2.7473    0.9149    0.0485 H   0  0  0  0  0  0  0  0  0  0  0  0
    3.1964   -0.1505   -1.3077 H   0  0  0  0  0  0  0  0  0  0  0  0
   -1.9566    2.0208    0.2849 H   0  0  0  0  0  0  0  0  0  0  0  0
   -0.6169    2.7501    1.2634 H   0  0  0  0  0  0  0  0  0  0  0  0
   -1.1946    3.5709   -0.2359 H   0  0  0  0  0  0  0  0  0  0  0  0
    2.8394   -2.1832    0.0891 H   0  0  0  0  0  0  0  0  0  0  0  0
    2.3895   -1.1384    1.4958 H   0  0  0  0  0  0  0  0  0  0  0  0
    4.0593   -1.0652    0.8148 H   0  0  0  0  0  0  0  0  0  0  0  0
   -1.4846   -2.4471    1.3351 H   0  0  0  0  0  0  0  0  0  0  0  0
   -2.8701   -2.8707    0.2533 H   0  0  0  0  0  0  0  0  0  0  0  0
   -2.9266   -1.3656    1.2630 H   0  0  0  0  0  0  0  0  0  0  0  0
   -0.9284   -1.9176   -1.0260 H   0  0  0  0  0  0  0  0  0  0  0  0
  1  6  1  0
  1  5  1  0
  2  3  1  0
  3 10  2  3
  4  7  1  0
  4  5  1  0
  4 11  1  0
  4 12  1  0
  5 13  1  0
  5 14  1  0
  6  8  1  0
  6 15  1  0
  6 16  1  0
  7 17  1  0
  7 18  1  0
  7 19  1  0
  8 20  1  0
  8 21  1  0
  8 22  1  0
  9 10  1  0
  9 23  1  0
  9 24  1  0
  9 25  1  0
 10 26  1  0
M  RAD  1   2   2
M  END
>  <reaction>  (17) 
rmg_rxn_324

>  <mol_properties>  (17) 
{"1": {"label": "*1", "atom_type": "Cs"}, "2": {"label": "*0", "atom_type": "N3d"}, "7": {"label": "*2", "atom_type": "H0"}, "11": {"label": "*3", "atom_type": "Cs"}, "12": {"label": "*4", "atom_type": "O2s"}}

>  <type>  (17) 
unop_13

>  <geom_source>  (17) 
AutoTST

$$$$

     RDKit          3D

 26 24  0  0  0  0  0  0  0  0999 V2000
   -1.2549    1.0178   -2.0986 C   0  0  0  0  0  0  0  0  0  0  0  0
   -1.2549    1.0178   -0.5881 C   0  0  0  0  0  0  0  0  0  0  0  0
   -1.2549    2.3437    0.0755 N   0  0  0  0  0  0  0  0  0  0  0  0
   -1.2549    3.2733   -0.6722 O   0  0  0  0  0  0  0  0  0  0  0  0
   -0.3747    1.5252   -2.4931 H   0  0  0  0  0  0  0  0  0  0  0  0
   -1.2549   -0.0094   -2.4638 H   0  0  0  0  0  0  0  0  0  0  0  0
   -2.1350    1.5252   -2.4931 H   0  0  0  0  0  0  0  0  0  0  0  0
   -0.2094    0.4090   -0.0755 H   0  0  0  0  0  0  0  0  0  0  0  0
   -2.1261    0.5105   -0.1609 H   0  0  0  0  0  0  0  0  0  0  0  0
    1.9415   -0.9856   -1.7066 C   0  0  0  0  0  0  0  0  0  0  0  0
    2.0295   -0.0714   -0.4918 C   0  0  0  0  0  0  0  0  0  0  0  0
    0.8424   -0.2035    0.4402 C   0  0  0  0  0  3  0  0  0  0  0  0
    0.8038   -1.5073    0.9633 O   0  0  0  0  0  0  0  0  0  0  0  0
   -0.2905   -1.7326    1.8150 C   0  0  0  0  0  0  0  0  0  0  0  0
   -0.2362   -3.1567    2.3176 C   0  0  0  0  0  0  0  0  0  0  0  0
    1.0470   -0.7665   -2.2951 H   0  0  0  0  0  0  0  0  0  0  0  0
    2.8087   -0.8597   -2.3564 H   0  0  0  0  0  0  0  0  0  0  0  0
    1.8935   -2.0306   -1.4006 H   0  0  0  0  0  0  0  0  0  0  0  0
    2.9402   -0.2853    0.0736 H   0  0  0  0  0  0  0  0  0  0  0  0
    2.0922    0.9728   -0.8104 H   0  0  0  0  0  0  0  0  0  0  0  0
    0.9173    0.5271    1.2590 H   0  0  0  0  0  0  0  0  0  0  0  0
   -0.2616   -1.0261    2.6578 H   0  0  0  0  0  0  0  0  0  0  0  0
   -1.2305   -1.5516    1.2732 H   0  0  0  0  0  0  0  0  0  0  0  0
    0.6892   -3.3331    2.8668 H   0  0  0  0  0  0  0  0  0  0  0  0
   -1.0779   -3.3551    2.9830 H   0  0  0  0  0  0  0  0  0  0  0  0
   -0.2806   -3.8582    1.4837 H   0  0  0  0  0  0  0  0  0  0  0  0
  1  2  1  0
  1  5  1  0
  1  6  1  0
  1  7  1  0
  2  3  1  0
  2  8  1  0
  2  9  1  0
  3  4  2  0
 10 11  1  0
 10 16  1  0
 10 17  1  0
 10 18  1  0
 11 12  1  0
 11 19  1  0
 11 20  1  0
 12 13  1  0
 12 21  1  0
 13 14  1  0
 14 15  1  0
 14 22  1  0
 14 23  1  0
 15 24  1  0
 15 25  1  0
 15 26  1  0
M  RAD  1  12   2
M  END
>  <reaction>  (18) 
rmg_rxn_324

>  <mol_properties>  (18) 
{"1": {"label": "*1", "atom_type": "Cs"}, "2": {"label": "*0", "atom_type": "N3d"}, "7": {"label": "*2", "atom_type": "H0"}, "11": {"label": "*3", "atom_type": "Cs"}, "12": {"label": "*4", "atom_type": "O2s"}}

>  <type>  (18) 
unop_14

>  <geom_source>  (18) 
gaussian_log

$$$$
