
     RDKit          3D

  6  5  0  0  0  0  0  0  0  0999 V2000
   -0.4547   -0.0097   -0.0070 C   0  0  0  0  0  0  0  0  0  0  0  0
    0.8695   -0.1987   -0.6218 N   0  0  0  0  0  0  0  0  0  0  0  0
    1.0322   -1.2809   -1.0969 O   0  0  0  0  0  0  0  0  0  0  0  0
   -0.2820    0.2687    1.0347 H   0  0  0  0  0  0  0  0  0  0  0  0
   -1.0716   -0.9051   -0.0916 H   0  0  0  0  0  0  0  0  0  0  0  0
   -0.9130    0.8487   -0.5026 H   0  0  0  0  0  0  0  0  0  0  0  0
  1  2  1  0
  1  4  1  0
  1  5  1  0
  1  6  1  0
  2  3  2  0
M  END
>  <reaction>  (1) 
rmg_rxn_611

>  <mol_properties>  (1) 
{"0": {"label": "donator", "atom_type": "Cs"}, "3": {"label": "d_hydrogen", "atom_type": "H0"}}

>  <type>  (1) 
r1h

$$$$

     RDKit          3D

 11 10  0  0  0  0  0  0  0  0999 V2000
   -1.2230    0.3768   -0.0849 C   0  0  0  0  0  0  0  0  0  0  0  0
   -0.0734   -0.5533    0.2746 C   0  0  0  0  0  0  0  0  0  0  0  0
   -0.0853   -1.8426   -0.5372 C   0  0  0  0  0  0  0  0  0  0  0  0
    0.0319   -1.6944   -1.8815 O   0  0  0  0  0  1  0  0  0  0  0  0
   -2.1874   -0.0885    0.1341 H   0  0  0  0  0  0  0  0  0  0  0  0
   -1.1670    1.3099    0.4765 H   0  0  0  0  0  0  0  0  0  0  0  0
   -1.2014    0.6189   -1.1483 H   0  0  0  0  0  0  0  0  0  0  0  0
    0.8834   -0.0518    0.1071 H   0  0  0  0  0  0  0  0  0  0  0  0
   -0.1104   -0.8149    1.3362 H   0  0  0  0  0  0  0  0  0  0  0  0
    0.6767   -2.5604   -0.1861 H   0  0  0  0  0  0  0  0  0  0  0  0
   -1.0401   -2.3871   -0.3877 H   0  0  0  0  0  0  0  0  0  0  0  0
  1  2  1  0
  1  5  1  0
  1  6  1  0
  1  7  1  0
  2  3  1  0
  2  8  1  0
  2  9  1  0
  3  4  1  0
  3 10  1  0
  3 11  1  0
M  RAD  1   4   2
M  END
>  <reaction>  (2) 
rmg_rxn_611

>  <mol_properties>  (2) 
{"3": {"label": "acceptor", "atom_type": "O2s"}}

>  <type>  (2) 
r2

$$$$

     RDKit          3D

 12 11  0  0  0  0  0  0  0  0999 V2000
   -1.4643   -0.2505   -0.5284 C   0  0  0  0  0  0  0  0  0  0  0  0
   -0.3946    0.4302    0.3143 C   0  0  0  0  0  0  0  0  0  0  0  0
   -0.5959    0.2382    1.8102 C   0  0  0  0  0  0  0  0  0  0  0  0
   -0.5633   -1.1190    2.2092 O   0  0  0  0  0  0  0  0  0  0  0  0
   -2.4511    0.1644   -0.3109 H   0  0  0  0  0  0  0  0  0  0  0  0
   -1.5019   -1.3198   -0.3181 H   0  0  0  0  0  0  0  0  0  0  0  0
   -1.2720   -0.1182   -1.5941 H   0  0  0  0  0  0  0  0  0  0  0  0
    0.5965    0.0515    0.0385 H   0  0  0  0  0  0  0  0  0  0  0  0
   -0.3776    1.5047    0.1078 H   0  0  0  0  0  0  0  0  0  0  0  0
   -1.5821    0.6048    2.1034 H   0  0  0  0  0  0  0  0  0  0  0  0
    0.1495    0.8220    2.3649 H   0  0  0  0  0  0  0  0  0  0  0  0
    0.3017   -1.4750    1.9997 H   0  0  0  0  0  0  0  0  0  0  0  0
  1  2  1  0
  1  5  1  0
  1  6  1  0
  1  7  1  0
  2  3  1  0
  2  8  1  0
  2  9  1  0
  3  4  1  0
  3 10  1  0
  3 11  1  0
  4 12  1  0
M  END
>  <reaction>  (3) 
rmg_rxn_611

>  <mol_properties>  (3) 
{"0": {"label": "a_hydrogen", "atom_type": "H0"}, "4": {"label": "acceptor", "atom_type": "O2s"}}

>  <type>  (3) 
r2h

$$$$

     RDKit          3D

 17 15  0  0  0  0  0  0  0  0999 V2000
    1.0403   -0.9374   -0.5445 C   0  0  0  0  0  0  0  0  0  0  0  0
    0.8455   -2.1650   -1.2665 N   0  0  0  0  0  0  0  0  0  0  0  0
    0.3544   -2.0810   -2.3522 O   0  0  0  0  0  0  0  0  0  0  0  0
   -0.0569   -0.6261   -0.1249 H   0  0  0  0  0  0  0  0  0  0  0  0
    1.3616   -0.1196   -1.1912 H   0  0  0  0  0  0  0  0  0  0  0  0
    1.6775   -1.1039    0.3199 H   0  0  0  0  0  0  0  0  0  0  0  0
   -0.6177    2.8519    0.5230 C   0  0  0  0  0  0  0  0  0  0  0  0
    0.0520    1.8195    1.4175 C   0  0  0  0  0  0  0  0  0  0  0  0
   -0.7822    0.5580    1.6081 C   0  0  0  0  0  0  0  0  0  0  0  0
   -1.1374   -0.0813    0.4304 O   0  0  0  0  0  1  0  0  0  0  0  0
   -1.5623    3.1886    0.9562 H   0  0  0  0  0  0  0  0  0  0  0  0
    0.0191    3.7268    0.3870 H   0  0  0  0  0  0  0  0  0  0  0  0
   -0.8351    2.4306   -0.4589 H   0  0  0  0  0  0  0  0  0  0  0  0
    1.0226    1.5341    0.9982 H   0  0  0  0  0  0  0  0  0  0  0  0
    0.2564    2.2436    2.4048 H   0  0  0  0  0  0  0  0  0  0  0  0
   -0.2915   -0.1340    2.3071 H   0  0  0  0  0  0  0  0  0  0  0  0
   -1.7478    0.8237    2.0675 H   0  0  0  0  0  0  0  0  0  0  0  0
  1  2  1  0
  1  4  1  0
  1  5  1  0
  1  6  1  0
  2  3  2  0
  7  8  1  0
  7 11  1  0
  7 12  1  0
  7 13  1  0
  8  9  1  0
  8 14  1  0
  8 15  1  0
  9 10  1  0
  9 16  1  0
  9 17  1  0
M  RAD  1  10   2
M  END
>  <reaction>  (4) 
rmg_rxn_611

>  <mol_properties>  (4) 
{"0": {"label": "*1", "atom_type": "Cs"}, "1": {"label": "*0", "atom_type": "N3d"}, "3": {"label": "*2", "atom_type": "H0"}, "8": {"label": "*4", "atom_type": "Cs"}, "9": {"label": "*3", "atom_type": "O2s"}}

>  <type>  (4) 
ts

$$$$

     RDKit          3D

 17 15  0  0  0  0  0  0  0  0999 V2000
    0.5284   -0.1535   -0.9474 C   0  0  0  0  0  0  0  0  0  0  0  0
    0.5284   -1.4993   -1.5442 N   0  0  0  0  0  0  0  0  0  0  0  0
    0.5284   -1.4993   -2.7373 O   0  0  0  0  0  1  0  0  0  0  0  0
   -0.5276   -0.0821   -0.1748 H   0  0  0  0  0  0  0  0  0  0  0  0
    0.5284    0.6270   -1.7092 H   0  0  0  0  0  0  0  0  0  0  0  0
    1.4084   -0.0940   -0.3036 H   0  0  0  0  0  0  0  0  0  0  0  0
    0.5488    2.1254    1.1714 C   0  0  0  0  0  0  0  0  0  0  0  0
    0.3897    0.7980    1.8997 C   0  0  0  0  0  0  0  0  0  0  0  0
   -1.0232    0.2381    1.8262 C   0  0  0  0  0  0  0  0  0  0  0  0
   -1.4546   -0.0194    0.5034 O   0  0  0  0  0  0  0  0  0  0  0  0
   -0.0919    2.8905    1.6158 H   0  0  0  0  0  0  0  0  0  0  0  0
    1.5789    2.4816    1.2187 H   0  0  0  0  0  0  0  0  0  0  0  0
    0.2685    2.0286    0.1221 H   0  0  0  0  0  0  0  0  0  0  0  0
    1.0858    0.0587    1.4869 H   0  0  0  0  0  0  0  0  0  0  0  0
    0.6570    0.9112    2.9547 H   0  0  0  0  0  0  0  0  0  0  0  0
   -1.0978   -0.6682    2.4403 H   0  0  0  0  0  0  0  0  0  0  0  0
   -1.7331    0.9644    2.2282 H   0  0  0  0  0  0  0  0  0  0  0  0
  1  2  2  3
  1  5  1  0
  1  6  1  0
  2  3  1  0
  4 10  1  0
  7  8  1  0
  7 11  1  0
  7 12  1  0
  7 13  1  0
  8  9  1  0
  8 14  1  0
  8 15  1  0
  9 10  1  0
  9 16  1  0
  9 17  1  0
M  RAD  1   3   2
M  END
>  <reaction>  (5) 
rmg_rxn_611

>  <mol_properties>  (5) 
{"0": {"label": "*1", "atom_type": "Cs"}, "1": {"label": "*0", "atom_type": "N3d"}, "3": {"label": "*2", "atom_type": "H0"}, "8": {"label": "*4", "atom_type": "Cs"}, "9": {"label": "*3", "atom_type": "O2s"}}

>  <type>  (5) 
unop_1

>  <geom_source>  (5) 
Heuristics

$$$$

     RDKit          3D

 17 15  0  0  0  0  0  0  0  0999 V2000
    0.7848    0.9648   -0.9595 C   0  0  0  0  0  0  0  0  0  0  0  0
    0.7848   -0.3810   -1.5563 N   0  0  0  0  0  0  0  0  0  0  0  0
    0.7848   -0.3810   -2.7494 O   0  0  0  0  0  1  0  0  0  0  0  0
   -0.2712    1.0362   -0.1869 H   0  0  0  0  0  0  0  0  0  0  0  0
    0.7848    1.7453   -1.7212 H   0  0  0  0  0  0  0  0  0  0  0  0
    1.6648    1.0243   -0.3157 H   0  0  0  0  0  0  0  0  0  0  0  0
    0.5504   -0.2820    2.5152 C   0  0  0  0  0  0  0  0  0  0  0  0
   -0.2317   -0.9643    1.4014 C   0  0  0  0  0  0  0  0  0  0  0  0
   -1.4781   -0.1971    0.9855 C   0  0  0  0  0  0  0  0  0  0  0  0
   -1.1982    1.0989    0.4913 O   0  0  0  0  0  0  0  0  0  0  0  0
   -0.0565   -0.1984    3.4197 H   0  0  0  0  0  0  0  0  0  0  0  0
    1.4518   -0.8427    2.7665 H   0  0  0  0  0  0  0  0  0  0  0  0
    0.8455    0.7257    2.2212 H   0  0  0  0  0  0  0  0  0  0  0  0
    0.4098   -1.1012    0.5231 H   0  0  0  0  0  0  0  0  0  0  0  0
   -0.5373   -1.9675    1.7138 H   0  0  0  0  0  0  0  0  0  0  0  0
   -2.0447   -0.7782    0.2470 H   0  0  0  0  0  0  0  0  0  0  0  0
   -2.1280   -0.0455    1.8501 H   0  0  0  0  0  0  0  0  0  0  0  0
  1  2  2  3
  1  5  1  0
  1  6  1  0
  2  3  1  0
  4 10  1  0
  7  8  1  0
  7 11  1  0
  7 12  1  0
  7 13  1  0
  8  9  1  0
  8 14  1  0
  8 15  1  0
  9 10  1  0
  9 16  1  0
  9 17  1  0
M  RAD  1   3   2
M  END
>  <reaction>  (6) 
rmg_rxn_611

>  <mol_properties>  (6) 
{"0": {"label": "*1", "atom_type": "Cs"}, "1": {"label": "*0", "atom_type": "N3d"}, "3": {"label": "*2", "atom_type": "H0"}, "8": {"label": "*4", "atom_type": "Cs"}, "9": {"label": "*3", "atom_type": "O2s"}}

>  <type>  (6) 
unop_2

>  <geom_source>  (6) 
Heuristics

$$$$

     RDKit          3D

 17 15  0  0  0  0  0  0  0  0999 V2000
    0.8056   -0.5061   -0.6552 C   0  0  0  0  0  0  0  0  0  0  0  0
    0.8056   -1.8518   -1.2520 N   0  0  0  0  0  0  0  0  0  0  0  0
    0.8056   -1.8518   -2.4451 O   0  0  0  0  0  1  0  0  0  0  0  0
   -0.2504   -0.4347    0.1174 H   0  0  0  0  0  0  0  0  0  0  0  0
    0.8056    0.2744   -1.4169 H   0  0  0  0  0  0  0  0  0  0  0  0
    1.6856   -0.4466   -0.0113 H   0  0  0  0  0  0  0  0  0  0  0  0
   -0.4122    2.5057    0.3553 C   0  0  0  0  0  0  0  0  0  0  0  0
    0.0899    1.6135    1.4821 C   0  0  0  0  0  0  0  0  0  0  0  0
   -0.8919    0.5145    1.8609 C   0  0  0  0  0  0  0  0  0  0  0  0
   -1.1774   -0.3720    0.7956 O   0  0  0  0  0  0  0  0  0  0  0  0
   -1.3292    3.0218    0.6489 H   0  0  0  0  0  0  0  0  0  0  0  0
    0.3280    3.2618    0.0896 H   0  0  0  0  0  0  0  0  0  0  0  0
   -0.6350    1.9177   -0.5356 H   0  0  0  0  0  0  0  0  0  0  0  0
    1.0441    1.1542    1.1990 H   0  0  0  0  0  0  0  0  0  0  0  0
    0.2936    2.2115    2.3755 H   0  0  0  0  0  0  0  0  0  0  0  0
   -0.5166   -0.0368    2.7323 H   0  0  0  0  0  0  0  0  0  0  0  0
   -1.8523    0.9531    2.1407 H   0  0  0  0  0  0  0  0  0  0  0  0
  1  2  2  3
  1  5  1  0
  1  6  1  0
  2  3  1  0
  4 10  1  0
  7  8  1  0
  7 11  1  0
  7 12  1  0
  7 13  1  0
  8  9  1  0
  8 14  1  0
  8 15  1  0
  9 10  1  0
  9 16  1  0
  9 17  1  0
M  RAD  1   3   2
M  END
>  <reaction>  (7) 
rmg_rxn_611

>  <mol_properties>  (7) 
{"0": {"label": "*1", "atom_type": "Cs"}, "1": {"label": "*0", "atom_type": "N3d"}, "3": {"label": "*2", "atom_type": "H0"}, "8": {"label": "*4", "atom_type": "Cs"}, "9": {"label": "*3", "atom_type": "O2s"}}

>  <type>  (7) 
unop_3

>  <geom_source>  (7) 
Heuristics

$$$$

     RDKit          3D

 17 15  0  0  0  0  0  0  0  0999 V2000
    1.8087    0.8594   -0.3473 C   0  0  0  0  0  0  0  0  0  0  0  0
    1.8087   -0.4863   -0.9441 N   0  0  0  0  0  0  0  0  0  0  0  0
    1.8087   -0.4863   -2.1373 O   0  0  0  0  0  1  0  0  0  0  0  0
    0.7527    0.9308    0.4252 H   0  0  0  0  0  0  0  0  0  0  0  0
    1.8087    1.6399   -1.1091 H   0  0  0  0  0  0  0  0  0  0  0  0
    2.6887    0.9189    0.2965 H   0  0  0  0  0  0  0  0  0  0  0  0
   -2.2214   -1.1232    1.7279 C   0  0  0  0  0  0  0  0  0  0  0  0
   -1.8235   -0.6527    0.3356 C   0  0  0  0  0  0  0  0  0  0  0  0
   -1.3250    0.7846    0.3069 C   0  0  0  0  0  0  0  0  0  0  0  0
   -0.1743    0.9935    1.1034 O   0  0  0  0  0  0  0  0  0  0  0  0
   -3.0441   -0.5208    2.1200 H   0  0  0  0  0  0  0  0  0  0  0  0
   -2.5443   -2.1651    1.7161 H   0  0  0  0  0  0  0  0  0  0  0  0
   -1.3854   -1.0322    2.4220 H   0  0  0  0  0  0  0  0  0  0  0  0
   -1.0437   -1.3065   -0.0718 H   0  0  0  0  0  0  0  0  0  0  0  0
   -2.6744   -0.7321   -0.3477 H   0  0  0  0  0  0  0  0  0  0  0  0
   -1.1391    1.0943   -0.7293 H   0  0  0  0  0  0  0  0  0  0  0  0
   -2.0875    1.4515    0.7154 H   0  0  0  0  0  0  0  0  0  0  0  0
  1  2  2  3
  1  5  1  0
  1  6  1  0
  2  3  1  0
  4 10  1  0
  7  8  1  0
  7 11  1  0
  7 12  1  0
  7 13  1  0
  8  9  1  0
  8 14  1  0
  8 15  1  0
  9 10  1  0
  9 16  1  0
  9 17  1  0
M  RAD  1   3   2
M  END
>  <reaction>  (8) 
rmg_rxn_611

>  <mol_properties>  (8) 
{"0": {"label": "*1", "atom_type": "Cs"}, "1": {"label": "*0", "atom_type": "N3d"}, "3": {"label": "*2", "atom_type": "H0"}, "8": {"label": "*4", "atom_type": "Cs"}, "9": {"label": "*3", "atom_type": "O2s"}}

>  <type>  (8) 
unop_4

>  <geom_source>  (8) 
Heuristics

$$$$

     RDKit          3D

 17 15  0  0  0  0  0  0  0  0999 V2000
    1.3590   -0.5416   -0.3212 C   0  0  0  0  0  0  0  0  0  0  0  0
    1.3590   -1.8873   -0.9180 N   0  0  0  0  0  0  0  0  0  0  0  0
    1.3590   -1.8873   -2.1111 O   0  0  0  0  0  1  0  0  0  0  0  0
    0.3030   -0.4702    0.4514 H   0  0  0  0  0  0  0  0  0  0  0  0
    1.3590    0.2389   -1.0830 H   0  0  0  0  0  0  0  0  0  0  0  0
    2.2390   -0.4821    0.3226 H   0  0  0  0  0  0  0  0  0  0  0  0
   -2.0516    1.9262   -0.1260 C   0  0  0  0  0  0  0  0  0  0  0  0
   -0.7805    2.0044    0.7082 C   0  0  0  0  0  0  0  0  0  0  0  0
   -0.6572    0.8769    1.7225 C   0  0  0  0  0  0  0  0  0  0  0  0
   -0.6240   -0.4075    1.1296 O   0  0  0  0  0  0  0  0  0  0  0  0
   -2.9371    2.0062    0.5087 H   0  0  0  0  0  0  0  0  0  0  0  0
   -2.0921    2.7308   -0.8616 H   0  0  0  0  0  0  0  0  0  0  0  0
   -2.1101    0.9751   -0.6561 H   0  0  0  0  0  0  0  0  0  0  0  0
    0.0986    1.9898    0.0534 H   0  0  0  0  0  0  0  0  0  0  0  0
   -0.7410    2.9550    1.2488 H   0  0  0  0  0  0  0  0  0  0  0  0
    0.2283    1.0355    2.3508 H   0  0  0  0  0  0  0  0  0  0  0  0
   -1.5285    0.8715    2.3812 H   0  0  0  0  0  0  0  0  0  0  0  0
  1  2  2  3
  1  5  1  0
  1  6  1  0
  2  3  1  0
  4 10  1  0
  7  8  1  0
  7 11  1  0
  7 12  1  0
  7 13  1  0
  8  9  1  0
  8 14  1  0
  8 15  1  0
  9 10  1  0
  9 16  1  0
  9 17  1  0
M  RAD  1   3   2
M  END
>  <reaction>  (9) 
rmg_rxn_611

>  <mol_properties>  (9) 
{"0": {"label": "*1", "atom_type": "Cs"}, "1": {"label": "*0", "atom_type": "N3d"}, "3": {"label": "*2", "atom_type": "H0"}, "8": {"label": "*4", "atom_type": "Cs"}, "9": {"label": "*3", "atom_type": "O2s"}}

>  <type>  (9) 
unop_5

>  <geom_source>  (9) 
Heuristics

$$$$

     RDKit          3D

 17 15  0  0  0  0  0  0  0  0999 V2000
    1.9548    0.4994   -0.2163 C   0  0  0  0  0  0  0  0  0  0  0  0
    1.9548   -0.8464   -0.8131 N   0  0  0  0  0  0  0  0  0  0  0  0
    1.9548   -0.8464   -2.0062 O   0  0  0  0  0  1  0  0  0  0  0  0
    0.8988    0.5708    0.5563 H   0  0  0  0  0  0  0  0  0  0  0  0
    1.9548    1.2799   -0.9781 H   0  0  0  0  0  0  0  0  0  0  0  0
    2.8348    0.5589    0.4275 H   0  0  0  0  0  0  0  0  0  0  0  0
   -2.7527   -0.6453    1.2833 C   0  0  0  0  0  0  0  0  0  0  0  0
   -2.1080    0.0307    0.0811 C   0  0  0  0  0  0  0  0  0  0  0  0
   -1.1128    1.1160    0.4644 C   0  0  0  0  0  0  0  0  0  0  0  0
   -0.0282    0.6335    1.2345 O   0  0  0  0  0  0  0  0  0  0  0  0
   -3.3208    0.0761    1.8751 H   0  0  0  0  0  0  0  0  0  0  0  0
   -3.4362   -1.4368    0.9727 H   0  0  0  0  0  0  0  0  0  0  0  0
   -1.9957   -1.0835    1.9345 H   0  0  0  0  0  0  0  0  0  0  0  0
   -1.5976   -0.7154   -0.5388 H   0  0  0  0  0  0  0  0  0  0  0  0
   -2.8754    0.4814   -0.5556 H   0  0  0  0  0  0  0  0  0  0  0  0
   -0.7501    1.6249   -0.4376 H   0  0  0  0  0  0  0  0  0  0  0  0
   -1.6024    1.8668    1.0886 H   0  0  0  0  0  0  0  0  0  0  0  0
  1  2  2  3
  1  5  1  0
  1  6  1  0
  2  3  1  0
  4 10  1  0
  7  8  1  0
  7 11  1  0
  7 12  1  0
  7 13  1  0
  8  9  1  0
  8 14  1  0
  8 15  1  0
  9 10  1  0
  9 16  1  0
  9 17  1  0
M  RAD  1   3   2
M  END
>  <reaction>  (10) 
rmg_rxn_611

>  <mol_properties>  (10) 
{"0": {"label": "*1", "atom_type": "Cs"}, "1": {"label": "*0", "atom_type": "N3d"}, "3": {"label": "*2", "atom_type": "H0"}, "8": {"label": "*4", "atom_type": "Cs"}, "9": {"label": "*3", "atom_type": "O2s"}}

>  <type>  (10) 
unop_6

>  <geom_source>  (10) 
Heuristics

$$$$

     RDKit          3D

 17 15  0  0  0  0  0  0  0  0999 V2000
    1.9502    0.1208   -0.1921 C   0  0  0  0  0  0  0  0  0  0  0  0
    1.9502   -1.2250   -0.7889 N   0  0  0  0  0  0  0  0  0  0  0  0
    1.9502   -1.2250   -1.9820 O   0  0  0  0  0  1  0  0  0  0  0  0
    0.8941    0.1922    0.5805 H   0  0  0  0  0  0  0  0  0  0  0  0
    1.9502    0.9013   -0.9538 H   0  0  0  0  0  0  0  0  0  0  0  0
    2.8302    0.1803    0.4518 H   0  0  0  0  0  0  0  0  0  0  0  0
   -3.0056   -0.0488    0.8962 C   0  0  0  0  0  0  0  0  0  0  0  0
   -2.0887    0.8176    0.0437 C   0  0  0  0  0  0  0  0  0  0  0  0
   -0.8571    1.3060    0.7919 C   0  0  0  0  0  0  0  0  0  0  0  0
   -0.0328    0.2549    1.2587 O   0  0  0  0  0  0  0  0  0  0  0  0
   -3.3873    0.5150    1.7505 H   0  0  0  0  0  0  0  0  0  0  0  0
   -3.8607   -0.4055    0.3204 H   0  0  0  0  0  0  0  0  0  0  0  0
   -2.4699   -0.9152    1.2851 H   0  0  0  0  0  0  0  0  0  0  0  0
   -1.7665    0.2610   -0.8440 H   0  0  0  0  0  0  0  0  0  0  0  0
   -2.6318    1.6923   -0.3265 H   0  0  0  0  0  0  0  0  0  0  0  0
   -0.2839    1.9940    0.1578 H   0  0  0  0  0  0  0  0  0  0  0  0
   -1.1584    1.8587    1.6845 H   0  0  0  0  0  0  0  0  0  0  0  0
  1  2  2  3
  1  5  1  0
  1  6  1  0
  2  3  1  0
  4 10  1  0
  7  8  1  0
  7 11  1  0
  7 12  1  0
  7 13  1  0
  8  9  1  0
  8 14  1  0
  8 15  1  0
  9 10  1  0
  9 16  1  0
  9 17  1  0
M  RAD  1   3   2
M  END
>  <reaction>  (11) 
rmg_rxn_611

>  <mol_properties>  (11) 
{"0": {"label": "*1", "atom_type": "Cs"}, "1": {"label": "*0", "atom_type": "N3d"}, "3": {"label": "*2", "atom_type": "H0"}, "8": {"label": "*4", "atom_type": "Cs"}, "9": {"label": "*3", "atom_type": "O2s"}}

>  <type>  (11) 
unop_7

>  <geom_source>  (11) 
Heuristics

$$$$

     RDKit          3D

 17 15  0  0  0  0  0  0  0  0999 V2000
    0.4689    0.2734   -1.0714 C   0  0  0  0  0  0  0  0  0  0  0  0
    0.4689   -1.0724   -1.6682 N   0  0  0  0  0  0  0  0  0  0  0  0
    0.4689   -1.0724   -2.8613 O   0  0  0  0  0  1  0  0  0  0  0  0
   -0.5871    0.3448   -0.2988 H   0  0  0  0  0  0  0  0  0  0  0  0
    0.4689    1.0538   -1.8332 H   0  0  0  0  0  0  0  0  0  0  0  0
    1.3489    0.3329   -0.4276 H   0  0  0  0  0  0  0  0  0  0  0  0
    0.9460    1.4086    1.7957 C   0  0  0  0  0  0  0  0  0  0  0  0
    0.3521    0.0125    1.9222 C   0  0  0  0  0  0  0  0  0  0  0  0
   -1.1488   -0.0264    1.6757 C   0  0  0  0  0  0  0  0  0  0  0  0
   -1.5141    0.4074    0.3794 O   0  0  0  0  0  0  0  0  0  0  0  0
    0.5108    2.0834    2.5364 H   0  0  0  0  0  0  0  0  0  0  0  0
    2.0261    1.3944    1.9483 H   0  0  0  0  0  0  0  0  0  0  0  0
    0.7457    1.8277    0.8092 H   0  0  0  0  0  0  0  0  0  0  0  0
    0.8446   -0.6690    1.2189 H   0  0  0  0  0  0  0  0  0  0  0  0
    0.5441   -0.3908    2.9211 H   0  0  0  0  0  0  0  0  0  0  0  0
   -1.5323   -1.0365    1.8675 H   0  0  0  0  0  0  0  0  0  0  0  0
   -1.6571    0.6521    2.3644 H   0  0  0  0  0  0  0  0  0  0  0  0
  1  2  2  3
  1  5  1  0
  1  6  1  0
  2  3  1  0
  4 10  1  0
  7  8  1  0
  7 11  1  0
  7 12  1  0
  7 13  1  0
  8  9  1  0
  8 14  1  0
  8 15  1  0
  9 10  1  0
  9 16  1  0
  9 17  1  0
M  RAD  1   3   2
M  END
>  <reaction>  (12) 
rmg_rxn_611

>  <mol_properties>  (12) 
{"0": {"label": "*1", "atom_type": "Cs"}, "1": {"label": "*0", "atom_type": "N3d"}, "3": {"label": "*2", "atom_type": "H0"}, "8": {"label": "*4", "atom_type": "Cs"}, "9": {"label": "*3", "atom_type": "O2s"}}

>  <type>  (12) 
unop_8

>  <geom_source>  (12) 
Heuristics

$$$$

     RDKit          3D

 17 15  0  0  0  0  0  0  0  0999 V2000
    1.5103    1.0997   -0.5685 C   0  0  0  0  0  0  0  0  0  0  0  0
    1.5103   -0.2461   -1.1653 N   0  0  0  0  0  0  0  0  0  0  0  0
    1.5103   -0.2461   -2.3585 O   0  0  0  0  0  1  0  0  0  0  0  0
    0.4542    1.1711    0.2040 H   0  0  0  0  0  0  0  0  0  0  0  0
    1.5103    1.8801   -1.3303 H   0  0  0  0  0  0  0  0  0  0  0  0
    2.3903    1.1592    0.0753 H   0  0  0  0  0  0  0  0  0  0  0  0
   -1.3566   -1.3132    2.2210 C   0  0  0  0  0  0  0  0  0  0  0  0
   -1.3053   -1.0683    0.7193 C   0  0  0  0  0  0  0  0  0  0  0  0
   -1.4776    0.3959    0.3432 C   0  0  0  0  0  0  0  0  0  0  0  0
   -0.4727    1.2337    0.8822 O   0  0  0  0  0  0  0  0  0  0  0  0
   -2.3265   -1.0192    2.6287 H   0  0  0  0  0  0  0  0  0  0  0  0
   -1.1995   -2.3670    2.4556 H   0  0  0  0  0  0  0  0  0  0  0  0
   -0.5918   -0.7308    2.7357 H   0  0  0  0  0  0  0  0  0  0  0  0
   -0.3529   -1.4288    0.3135 H   0  0  0  0  0  0  0  0  0  0  0  0
   -2.0877   -1.6440    0.2155 H   0  0  0  0  0  0  0  0  0  0  0  0
   -1.5212    0.4980   -0.7485 H   0  0  0  0  0  0  0  0  0  0  0  0
   -2.4199    0.7753    0.7447 H   0  0  0  0  0  0  0  0  0  0  0  0
  1  2  2  3
  1  5  1  0
  1  6  1  0
  2  3  1  0
  4 10  1  0
  7  8  1  0
  7 11  1  0
  7 12  1  0
  7 13  1  0
  8  9  1  0
  8 14  1  0
  8 15  1  0
  9 10  1  0
  9 16  1  0
  9 17  1  0
M  RAD  1   3   2
M  END
>  <reaction>  (13) 
rmg_rxn_611

>  <mol_properties>  (13) 
{"0": {"label": "*1", "atom_type": "Cs"}, "1": {"label": "*0", "atom_type": "N3d"}, "3": {"label": "*2", "atom_type": "H0"}, "8": {"label": "*4", "atom_type": "Cs"}, "9": {"label": "*3", "atom_type": "O2s"}}

>  <type>  (13) 
unop_9

>  <geom_source>  (13) 
Heuristics

$$$$

     RDKit          3D

 17 15  0  0  0  0  0  0  0  0999 V2000
    0.5625    0.6643   -1.0585 C   0  0  0  0  0  0  0  0  0  0  0  0
    0.5625   -0.6814   -1.6553 N   0  0  0  0  0  0  0  0  0  0  0  0
    0.5625   -0.6814   -2.8484 O   0  0  0  0  0  1  0  0  0  0  0  0
   -0.4935    0.7357   -0.2859 H   0  0  0  0  0  0  0  0  0  0  0  0
    0.5625    1.4448   -1.8203 H   0  0  0  0  0  0  0  0  0  0  0  0
    1.4425    0.7238   -0.4147 H   0  0  0  0  0  0  0  0  0  0  0  0
    0.9500    0.5763    2.2340 C   0  0  0  0  0  0  0  0  0  0  0  0
    0.1222   -0.5865    1.7043 C   0  0  0  0  0  0  0  0  0  0  0  0
   -1.3156   -0.2041    1.3853 C   0  0  0  0  0  0  0  0  0  0  0  0
   -1.4205    0.7984    0.3923 O   0  0  0  0  0  0  0  0  0  0  0  0
    0.5334    0.9535    3.1708 H   0  0  0  0  0  0  0  0  0  0  0  0
    1.9811    0.2742    2.4228 H   0  0  0  0  0  0  0  0  0  0  0  0
    0.9607    1.4016    1.5214 H   0  0  0  0  0  0  0  0  0  0  0  0
    0.5885   -0.9971    0.8012 H   0  0  0  0  0  0  0  0  0  0  0  0
    0.1043   -1.4012    2.4344 H   0  0  0  0  0  0  0  0  0  0  0  0
   -1.8832   -1.0970    1.0945 H   0  0  0  0  0  0  0  0  0  0  0  0
   -1.7957    0.2134    2.2731 H   0  0  0  0  0  0  0  0  0  0  0  0
  1  2  2  3
  1  5  1  0
  1  6  1  0
  2  3  1  0
  4 10  1  0
  7  8  1  0
  7 11  1  0
  7 12  1  0
  7 13  1  0
  8  9  1  0
  8 14  1  0
  8 15  1  0
  9 10  1  0
  9 16  1  0
  9 17  1  0
M  RAD  1   3   2
M  END
>  <reaction>  (14) 
rmg_rxn_611

>  <mol_properties>  (14) 
{"0": {"label": "*1", "atom_type": "Cs"}, "1": {"label": "*0", "atom_type": "N3d"}, "3": {"label": "*2", "atom_type": "H0"}, "8": {"label": "*4", "atom_type": "Cs"}, "9": {"label": "*3", "atom_type": "O2s"}}

>  <type>  (14) 
unop_10

>  <geom_source>  (14) 
Heuristics

$$$$

     RDKit          3D

 17 15  0  0  0  0  0  0  0  0999 V2000
    1.7924   -0.2305   -0.2232 C   0  0  0  0  0  0  0  0  0  0  0  0
    1.7924   -1.5763   -0.8200 N   0  0  0  0  0  0  0  0  0  0  0  0
    1.7924   -1.5763   -2.0131 O   0  0  0  0  0  1  0  0  0  0  0  0
    0.7364   -0.1591    0.5494 H   0  0  0  0  0  0  0  0  0  0  0  0
    1.7924    0.5500   -0.9850 H   0  0  0  0  0  0  0  0  0  0  0  0
    2.6724   -0.1710    0.4206 H   0  0  0  0  0  0  0  0  0  0  0  0
   -2.9626    0.7283    0.3932 C   0  0  0  0  0  0  0  0  0  0  0  0
   -1.6973    1.5571    0.2201 C   0  0  0  0  0  0  0  0  0  0  0  0
   -0.6300    1.2482    1.2597 C   0  0  0  0  0  0  0  0  0  0  0  0
   -0.1906   -0.0964    1.2276 O   0  0  0  0  0  0  0  0  0  0  0  0
   -3.4293    0.9309    1.3600 H   0  0  0  0  0  0  0  0  0  0  0  0
   -3.6927    0.9535   -0.3855 H   0  0  0  0  0  0  0  0  0  0  0  0
   -2.7371   -0.3377    0.3524 H   0  0  0  0  0  0  0  0  0  0  0  0
   -1.2767    1.3940   -0.7789 H   0  0  0  0  0  0  0  0  0  0  0  0
   -1.9330    2.6239    0.2802 H   0  0  0  0  0  0  0  0  0  0  0  0
    0.2176    1.9347    1.1394 H   0  0  0  0  0  0  0  0  0  0  0  0
   -1.0330    1.3995    2.2636 H   0  0  0  0  0  0  0  0  0  0  0  0
  1  2  2  3
  1  5  1  0
  1  6  1  0
  2  3  1  0
  4 10  1  0
  7  8  1  0
  7 11  1  0
  7 12  1  0
  7 13  1  0
  8  9  1  0
  8 14  1  0
  8 15  1  0
  9 10  1  0
  9 16  1  0
  9 17  1  0
M  RAD  1   3   2
M  END
>  <reaction>  (15) 
rmg_rxn_611

>  <mol_properties>  (15) 
{"0": {"label": "*1", "atom_type": "Cs"}, "1": {"label": "*0", "atom_type": "N3d"}, "3": {"label": "*2", "atom_type": "H0"}, "8": {"label": "*4", "atom_type": "Cs"}, "9": {"label": "*3", "atom_type": "O2s"}}

>  <type>  (15) 
unop_11

>  <geom_source>  (15) 
Heuristics

$$$$

     RDKit          3D

 17 15  0  0  0  0  0  0  0  0999 V2000
    1.1251    1.1320   -0.7955 C   0  0  0  0  0  0  0  0  0  0  0  0
    1.1251   -0.2137   -1.3924 N   0  0  0  0  0  0  0  0  0  0  0  0
    1.1251   -0.2137   -2.5855 O   0  0  0  0  0  1  0  0  0  0  0  0
    0.0691    1.2034   -0.0230 H   0  0  0  0  0  0  0  0  0  0  0  0
    1.1251    1.9125   -1.5573 H   0  0  0  0  0  0  0  0  0  0  0  0
    2.0051    1.1915   -0.1517 H   0  0  0  0  0  0  0  0  0  0  0  0
   -0.2964   -1.0090    2.5444 C   0  0  0  0  0  0  0  0  0  0  0  0
   -0.7161   -1.1448    1.0873 C   0  0  0  0  0  0  0  0  0  0  0  0
   -1.5440    0.0304    0.5886 C   0  0  0  0  0  0  0  0  0  0  0  0
   -0.8579    1.2661    0.6552 O   0  0  0  0  0  0  0  0  0  0  0  0
   -1.1712   -0.9701    3.1976 H   0  0  0  0  0  0  0  0  0  0  0  0
    0.3199   -1.8525    2.8588 H   0  0  0  0  0  0  0  0  0  0  0  0
    0.2734   -0.0925    2.7005 H   0  0  0  0  0  0  0  0  0  0  0  0
    0.1701   -1.2495    0.4506 H   0  0  0  0  0  0  0  0  0  0  0  0
   -1.3014   -2.0585    0.9461 H   0  0  0  0  0  0  0  0  0  0  0  0
   -1.8903   -0.1647   -0.4342 H   0  0  0  0  0  0  0  0  0  0  0  0
   -2.4299    0.1545    1.2154 H   0  0  0  0  0  0  0  0  0  0  0  0
  1  2  2  3
  1  5  1  0
  1  6  1  0
  2  3  1  0
  4 10  1  0
  7  8  1  0
  7 11  1  0
  7 12  1  0
  7 13  1  0
  8  9  1  0
  8 14  1  0
  8 15  1  0
  9 10  1  0
  9 16  1  0
  9 17  1  0
M  RAD  1   3   2
M  END
>  <reaction>  (16) 
rmg_rxn_611

>  <mol_properties>  (16) 
{"0": {"label": "*1", "atom_type": "Cs"}, "1": {"label": "*0", "atom_type": "N3d"}, "3": {"label": "*2", "atom_type": "H0"}, "8": {"label": "*4", "atom_type": "Cs"}, "9": {"label": "*3", "atom_type": "O2s"}}

>  <type>  (16) 
unop_12

>  <geom_source>  (16) 
Heuristics

$$$$

     RDKit          3D

 17 15  0  0  0  0  0  0  0  0999 V2000
   -0.7113   -1.2055    0.5047 O   0  0  0  0  0  0  0  0  0  0  0  0
   -2.9110    1.8077    0.8974 O   0  0  0  0  0  1  0  0  0  0  0  0
   -2.9804    1.3099   -0.1846 N   0  0  0  0  0  0  0  0  0  0  0  0
    1.1544    0.3028    0.4127 C   0  0  0  0  0  0  0  0  0  0  0  0
    0.5934   -1.0644    0.0193 C   0  0  0  0  0  0  0  0  0  0  0  0
    2.5876    0.4755   -0.0812 C   0  0  0  0  0  0  0  0  0  0  0  0
   -2.6233   -0.0701   -0.3690 C   0  0  0  0  0  0  0  0  0  0  0  0
    0.5211    1.1046   -0.0251 H   0  0  0  0  0  0  0  0  0  0  0  0
    1.1360    0.4055    1.5195 H   0  0  0  0  0  0  0  0  0  0  0  0
    1.2230   -1.8676    0.4581 H   0  0  0  0  0  0  0  0  0  0  0  0
    0.5987   -1.1810   -1.0873 H   0  0  0  0  0  0  0  0  0  0  0  0
    2.9660    1.4755    0.2185 H   0  0  0  0  0  0  0  0  0  0  0  0
    2.6259    0.3984   -1.1888 H   0  0  0  0  0  0  0  0  0  0  0  0
    3.2455   -0.3011    0.3639 H   0  0  0  0  0  0  0  0  0  0  0  0
   -3.3123   -0.7183    0.2126 H   0  0  0  0  0  0  0  0  0  0  0  0
   -2.6981   -0.3298   -1.4450 H   0  0  0  0  0  0  0  0  0  0  0  0
   -1.4152   -0.5421   -0.2257 H   0  0  0  0  0  0  0  0  0  0  0  0
  1  5  1  0
  1 17  1  0
  2  3  1  0
  3  7  2  3
  4  6  1  0
  4  5  1  0
  4  8  1  0
  4  9  1  0
  5 10  1  0
  5 11  1  0
  6 12  1  0
  6 13  1  0
  6 14  1  0
  7 15  1  0
  7 16  1  0
M  RAD  1   2   2
M  END
>  <reaction>  (17) 
rmg_rxn_611

>  <mol_properties>  (17) 
{"0": {"label": "*1", "atom_type": "Cs"}, "1": {"label": "*0", "atom_type": "N3d"}, "3": {"label": "*2", "atom_type": "H0"}, "8": {"label": "*4", "atom_type": "Cs"}, "9": {"label": "*3", "atom_type": "O2s"}}

>  <type>  (17) 
unop_13

>  <geom_source>  (17) 
AutoTST

$$$$

     RDKit          3D

 17 15  0  0  0  0  0  0  0  0999 V2000
    0.7848    0.9648   -0.9595 C   0  0  0  0  0  0  0  0  0  0  0  0
    0.7848   -0.3810   -1.5563 N   0  0  0  0  0  0  0  0  0  0  0  0
    0.7848   -0.3810   -2.7494 O   0  0  0  0  0  1  0  0  0  0  0  0
   -0.2712    1.0362   -0.1869 H   0  0  0  0  0  0  0  0  0  0  0  0
    0.7848    1.7453   -1.7212 H   0  0  0  0  0  0  0  0  0  0  0  0
    1.6648    1.0243   -0.3157 H   0  0  0  0  0  0  0  0  0  0  0  0
    0.5504   -0.2820    2.5152 C   0  0  0  0  0  0  0  0  0  0  0  0
   -0.2317   -0.9643    1.4014 C   0  0  0  0  0  0  0  0  0  0  0  0
   -1.4781   -0.1971    0.9855 C   0  0  0  0  0  0  0  0  0  0  0  0
   -1.1982    1.0989    0.4913 O   0  0  0  0  0  0  0  0  0  0  0  0
   -0.0565   -0.1984    3.4197 H   0  0  0  0  0  0  0  0  0  0  0  0
    1.4518   -0.8427    2.7665 H   0  0  0  0  0  0  0  0  0  0  0  0
    0.8455    0.7257    2.2212 H   0  0  0  0  0  0  0  0  0  0  0  0
    0.4098   -1.1012    0.5231 H   0  0  0  0  0  0  0  0  0  0  0  0
   -0.5373   -1.9675    1.7138 H   0  0  0  0  0  0  0  0  0  0  0  0
   -2.0447   -0.7782    0.2470 H   0  0  0  0  0  0  0  0  0  0  0  0
   -2.1280   -0.0455    1.8501 H   0  0  0  0  0  0  0  0  0  0  0  0
  1  2  2  3
  1  5  1  0
  1  6  1  0
  2  3  1  0
  4 10  1  0
  7  8  1  0
  7 11  1  0
  7 12  1  0
  7 13  1  0
  8  9  1  0
  8 14  1  0
  8 15  1  0
  9 10  1  0
  9 16  1  0
  9 17  1  0
M  RAD  1   3   2
M  END
>  <reaction>  (18) 
rmg_rxn_611

>  <mol_properties>  (18) 
{"0": {"label": "*1", "atom_type": "Cs"}, "1": {"label": "*0", "atom_type": "N3d"}, "3": {"label": "*2", "atom_type": "H0"}, "8": {"label": "*4", "atom_type": "Cs"}, "9": {"label": "*3", "atom_type": "O2s"}}

>  <type>  (18) 
unop_14

>  <geom_source>  (18) 
gaussian_log

$$$$
