
     RDKit          3D

 14 14  0  0  0  0  0  0  0  0999 V2000
   -1.1778    0.2241    0.1818 C   0  0  0  0  0  0  0  0  0  0  0  0
   -0.5633   -1.1636    0.0678 C   0  0  0  0  0  0  0  0  0  0  0  0
    0.6943   -1.1996    0.7146 O   0  0  0  0  0  0  0  0  0  0  0  0
    1.5547   -0.2288    0.2011 C   0  0  0  0  0  0  0  0  0  0  0  0
    1.0729    1.0696    0.3698 O   0  0  0  0  0  0  0  0  0  0  0  0
   -0.1607    1.2493   -0.2989 C   0  0  0  0  0  0  0  0  0  0  0  0
   -2.0927    0.2866   -0.4117 H   0  0  0  0  0  0  0  0  0  0  0  0
   -1.4303    0.4248    1.2248 H   0  0  0  0  0  0  0  0  0  0  0  0
   -1.1822   -1.9235    0.5431 H   0  0  0  0  0  0  0  0  0  0  0  0
   -0.4389   -1.4347   -0.9919 H   0  0  0  0  0  0  0  0  0  0  0  0
    1.7250   -0.4207   -0.8742 H   0  0  0  0  0  0  0  0  0  0  0  0
    2.4896   -0.3010    0.7524 H   0  0  0  0  0  0  0  0  0  0  0  0
   -0.0080    1.1481   -1.3844 H   0  0  0  0  0  0  0  0  0  0  0  0
   -0.4826    2.2695   -0.0942 H   0  0  0  0  0  0  0  0  0  0  0  0
  1  2  1  0
  1  6  1  0
  1  7  1  0
  1  8  1  0
  2  3  1  0
  2  9  1  0
  2 10  1  0
  3  4  1  0
  4  5  1  0
  4 11  1  0
  4 12  1  0
  5  6  1  0
  6 13  1  0
  6 14  1  0
M  END
>  <reaction>  (1) 
rmg_rxn_268

>  <mol_properties>  (1) 
{"1": {"label": "donator", "atom_type": "Cs"}, "8": {"label": "d_hydrogen", "atom_type": "H0"}}

>  <type>  (1) 
r1h

$$$$

     RDKit          3D

 17 16  0  0  0  0  0  0  0  0999 V2000
    2.3993   -0.7259   -0.8796 C   0  0  0  0  0  0  0  0  0  0  0  0
    1.8173   -0.7170    0.4851 C   0  0  0  0  0  3  0  0  0  0  0  0
    2.6779   -0.5182    1.6852 C   0  0  0  0  0  0  0  0  0  0  0  0
    3.8710   -1.2723    1.6674 O   0  0  0  0  0  0  0  0  0  0  0  0
    3.6589   -2.6587    1.8015 C   0  0  0  0  0  0  0  0  0  0  0  0
    4.9969   -3.3586    1.7556 C   0  0  0  0  0  0  0  0  0  0  0  0
    3.3755   -1.2152   -0.8894 H   0  0  0  0  0  0  0  0  0  0  0  0
    1.7457   -1.2284   -1.5943 H   0  0  0  0  0  0  0  0  0  0  0  0
    2.5578    0.2962   -1.2545 H   0  0  0  0  0  0  0  0  0  0  0  0
    0.7445   -0.6275    0.6059 H   0  0  0  0  0  0  0  0  0  0  0  0
    2.1057   -0.7316    2.5992 H   0  0  0  0  0  0  0  0  0  0  0  0
    3.0103    0.5272    1.7516 H   0  0  0  0  0  0  0  0  0  0  0  0
    3.0050   -3.0235    0.9977 H   0  0  0  0  0  0  0  0  0  0  0  0
    3.1469   -2.8645    2.7531 H   0  0  0  0  0  0  0  0  0  0  0  0
    5.6430   -3.0039    2.5594 H   0  0  0  0  0  0  0  0  0  0  0  0
    4.8641   -4.4360    1.8660 H   0  0  0  0  0  0  0  0  0  0  0  0
    5.4957   -3.1672    0.8046 H   0  0  0  0  0  0  0  0  0  0  0  0
  1  2  1  0
  1  7  1  0
  1  8  1  0
  1  9  1  0
  2  3  1  0
  2 10  1  0
  3  4  1  0
  3 11  1  0
  3 12  1  0
  4  5  1  0
  5  6  1  0
  5 13  1  0
  5 14  1  0
  6 15  1  0
  6 16  1  0
  6 17  1  0
M  RAD  1   2   2
M  END
>  <reaction>  (2) 
rmg_rxn_268

>  <mol_properties>  (2) 
{"1": {"label": "acceptor", "atom_type": "Cs"}}

>  <type>  (2) 
r2

$$$$

     RDKit          3D

 18 17  0  0  0  0  0  0  0  0999 V2000
    2.2026   -0.7213   -0.2612 C   0  0  0  0  0  0  0  0  0  0  0  0
    1.5384    0.2638    0.6915 C   0  0  0  0  0  0  0  0  0  0  0  0
    2.2584    1.5946    0.7694 C   0  0  0  0  0  0  0  0  0  0  0  0
    2.2212    2.2185   -0.4893 O   0  0  0  0  0  0  0  0  0  0  0  0
    2.8988    3.4488   -0.5204 C   0  0  0  0  0  0  0  0  0  0  0  0
    2.7981    4.0296   -1.9118 C   0  0  0  0  0  0  0  0  0  0  0  0
    3.2294   -0.9309    0.0486 H   0  0  0  0  0  0  0  0  0  0  0  0
    2.2338   -0.3181   -1.2734 H   0  0  0  0  0  0  0  0  0  0  0  0
    1.6610   -1.6680   -0.2875 H   0  0  0  0  0  0  0  0  0  0  0  0
    1.4990   -0.1566    1.7002 H   0  0  0  0  0  0  0  0  0  0  0  0
    0.5055    0.4455    0.3835 H   0  0  0  0  0  0  0  0  0  0  0  0
    3.3038    1.4410    1.0808 H   0  0  0  0  0  0  0  0  0  0  0  0
    1.7844    2.2410    1.5226 H   0  0  0  0  0  0  0  0  0  0  0  0
    2.4596    4.1376    0.2164 H   0  0  0  0  0  0  0  0  0  0  0  0
    3.9524    3.3035   -0.2397 H   0  0  0  0  0  0  0  0  0  0  0  0
    1.7543    4.1869   -2.1856 H   0  0  0  0  0  0  0  0  0  0  0  0
    3.2472    3.3545   -2.6411 H   0  0  0  0  0  0  0  0  0  0  0  0
    3.3178    4.9878   -1.9600 H   0  0  0  0  0  0  0  0  0  0  0  0
  1  2  1  0
  1  7  1  0
  1  8  1  0
  1  9  1  0
  2  3  1  0
  2 10  1  0
  2 11  1  0
  3  4  1  0
  3 12  1  0
  3 13  1  0
  4  5  1  0
  5  6  1  0
  5 14  1  0
  5 15  1  0
  6 16  1  0
  6 17  1  0
  6 18  1  0
M  END
>  <reaction>  (3) 
rmg_rxn_268

>  <mol_properties>  (3) 
{"0": {"label": "a_hydrogen", "atom_type": "H0"}, "2": {"label": "acceptor", "atom_type": "Cs"}}

>  <type>  (3) 
r2h

$$$$

     RDKit          3D

 31 30  0  0  0  0  0  0  0  0999 V2000
    1.6397    1.4127   -1.8064 C   0  0  0  0  0  0  0  0  0  0  0  0
    0.9512    1.2985   -0.4712 C   0  0  0  0  0  3  0  0  0  0  0  0
   -0.4243    1.5215   -0.5682 O   0  0  0  0  0  0  0  0  0  0  0  0
   -0.7121    2.7489   -1.1864 C   0  0  0  0  0  0  0  0  0  0  0  0
   -0.1878    2.8377   -2.4719 O   0  0  0  0  0  0  0  0  0  0  0  0
    1.2229    2.7269   -2.4636 C   0  0  0  0  0  0  0  0  0  0  0  0
    2.7236    1.3696   -1.6851 H   0  0  0  0  0  0  0  0  0  0  0  0
    1.3311    0.5835   -2.4478 H   0  0  0  0  0  0  0  0  0  0  0  0
    1.0237    0.0152   -0.0565 H   0  0  0  0  0  0  0  0  0  0  0  0
    1.4071    1.8938    0.3298 H   0  0  0  0  0  0  0  0  0  0  0  0
   -0.3145    3.5688   -0.5632 H   0  0  0  0  0  0  0  0  0  0  0  0
   -1.7944    2.8200   -1.2687 H   0  0  0  0  0  0  0  0  0  0  0  0
    1.6565    3.5777   -1.9178 H   0  0  0  0  0  0  0  0  0  0  0  0
    1.5471    2.7825   -3.5021 H   0  0  0  0  0  0  0  0  0  0  0  0
    0.5700   -1.9802   -1.0420 C   0  0  0  0  0  0  0  0  0  0  0  0
    0.8881   -1.2778    0.2509 C   0  0  0  0  0  0  0  0  0  0  0  0
   -0.2035   -1.2766    1.2816 C   0  0  0  0  0  0  0  0  0  0  0  0
   -0.4167   -2.5934    1.7445 O   0  0  0  0  0  0  0  0  0  0  0  0
   -1.4569   -2.6833    2.6855 C   0  0  0  0  0  0  0  0  0  0  0  0
   -1.6090   -4.1251    3.1119 C   0  0  0  0  0  0  0  0  0  0  0  0
   -0.3128   -1.5395   -1.5124 H   0  0  0  0  0  0  0  0  0  0  0  0
    1.4005   -1.9158   -1.7471 H   0  0  0  0  0  0  0  0  0  0  0  0
    0.3600   -3.0392   -0.8672 H   0  0  0  0  0  0  0  0  0  0  0  0
    1.8589   -1.5430    0.6711 H   0  0  0  0  0  0  0  0  0  0  0  0
   -1.1291   -0.8764    0.8432 H   0  0  0  0  0  0  0  0  0  0  0  0
    0.0677   -0.6249    2.1251 H   0  0  0  0  0  0  0  0  0  0  0  0
   -2.3937   -2.3110    2.2455 H   0  0  0  0  0  0  0  0  0  0  0  0
   -1.2328   -2.0471    3.5547 H   0  0  0  0  0  0  0  0  0  0  0  0
   -0.6847   -4.4905    3.5608 H   0  0  0  0  0  0  0  0  0  0  0  0
   -2.4121   -4.2203    3.8445 H   0  0  0  0  0  0  0  0  0  0  0  0
   -1.8466   -4.7542    2.2533 H   0  0  0  0  0  0  0  0  0  0  0  0
  1  2  1  0
  1  6  1  0
  1  7  1  0
  1  8  1  0
  2  3  1  0
  2 10  1  0
  3  4  1  0
  4  5  1  0
  4 11  1  0
  4 12  1  0
  5  6  1  0
  6 13  1  0
  6 14  1  0
  9 16  1  0
 15 16  1  0
 15 21  1  0
 15 22  1  0
 15 23  1  0
 16 17  1  0
 16 24  1  0
 17 18  1  0
 17 25  1  0
 17 26  1  0
 18 19  1  0
 19 20  1  0
 19 27  1  0
 19 28  1  0
 20 29  1  0
 20 30  1  0
 20 31  1  0
M  RAD  1   2   2
M  END
>  <reaction>  (4) 
rmg_rxn_268

>  <mol_properties>  (4) 
{"1": {"label": "*3", "atom_type": "Cs"}, "2": {"label": "*4", "atom_type": "O2s"}, "8": {"label": "*2", "atom_type": "H0"}, "15": {"label": "*1", "atom_type": "Cs"}, "16": {"label": "*0", "atom_type": "Cs"}}

>  <type>  (4) 
ts

$$$$

     RDKit          3D

 31 30  0  0  0  0  0  0  0  0999 V2000
    0.9479    1.4813   -1.8979 C   0  0  0  0  0  0  0  0  0  0  0  0
    0.9479    1.4813   -0.3758 C   0  0  0  0  0  0  0  0  0  0  0  0
   -0.1004    2.2939    0.1163 O   0  0  0  0  0  0  0  0  0  0  0  0
   -0.0095    3.5935   -0.3831 C   0  0  0  0  0  0  0  0  0  0  0  0
   -0.1004    3.6497   -1.7741 O   0  0  0  0  0  0  0  0  0  0  0  0
    0.9479    2.9230   -2.3860 C   0  0  0  0  0  0  0  0  0  0  0  0
    1.8219    0.9488   -2.2797 H   0  0  0  0  0  0  0  0  0  0  0  0
    0.0513    0.9751   -2.2609 H   0  0  0  0  0  0  0  0  0  0  0  0
    0.7572    0.2843    0.1130 H   0  0  0  0  0  0  0  0  0  0  0  0
    1.9115    1.8573    0.0009 H   0  0  0  0  0  0  0  0  0  0  0  0
    0.9459    4.0455   -0.0588 H   0  0  0  0  0  0  0  0  0  0  0  0
   -0.8505    4.1540    0.0189 H   0  0  0  0  0  0  0  0  0  0  0  0
    1.9115    3.4003   -2.1507 H   0  0  0  0  0  0  0  0  0  0  0  0
    0.7890    2.9889   -3.4614 H   0  0  0  0  0  0  0  0  0  0  0  0
    1.7542   -1.3283    1.4628 C   0  0  0  0  0  0  0  0  0  0  0  0
    0.5657   -0.9176    0.6037 C   0  0  0  0  0  3  0  0  0  0  0  0
   -0.2672   -2.0942    0.1378 C   0  0  0  0  0  0  0  0  0  0  0  0
   -0.8261   -2.7401    1.2538 O   0  0  0  0  0  0  0  0  0  0  0  0
   -1.5898   -3.8703    0.9176 C   0  0  0  0  0  0  0  0  0  0  0  0
   -2.1398   -4.4855    2.1835 C   0  0  0  0  0  0  0  0  0  0  0  0
    2.4222   -1.9944    0.9109 H   0  0  0  0  0  0  0  0  0  0  0  0
    2.3328   -0.4576    1.7748 H   0  0  0  0  0  0  0  0  0  0  0  0
    1.4206   -1.8544    2.3572 H   0  0  0  0  0  0  0  0  0  0  0  0
   -0.0805   -0.2333    1.1596 H   0  0  0  0  0  0  0  0  0  0  0  0
    0.3600   -2.8005   -0.4288 H   0  0  0  0  0  0  0  0  0  0  0  0
   -1.0660   -1.7525   -0.5368 H   0  0  0  0  0  0  0  0  0  0  0  0
   -0.9657   -4.5968    0.3766 H   0  0  0  0  0  0  0  0  0  0  0  0
   -2.4094   -3.5820    0.2427 H   0  0  0  0  0  0  0  0  0  0  0  0
   -2.7699   -3.7703    2.7135 H   0  0  0  0  0  0  0  0  0  0  0  0
   -2.7383   -5.3665    1.9466 H   0  0  0  0  0  0  0  0  0  0  0  0
   -1.3276   -4.7859    2.8465 H   0  0  0  0  0  0  0  0  0  0  0  0
  1  2  1  0
  1  6  1  0
  1  7  1  0
  1  8  1  0
  2  3  1  0
  2  9  1  0
  2 10  1  0
  3  4  1  0
  4  5  1  0
  4 11  1  0
  4 12  1  0
  5  6  1  0
  6 13  1  0
  6 14  1  0
 15 16  1  0
 15 21  1  0
 15 22  1  0
 15 23  1  0
 16 17  1  0
 16 24  1  0
 17 18  1  0
 17 25  1  0
 17 26  1  0
 18 19  1  0
 19 20  1  0
 19 27  1  0
 19 28  1  0
 20 29  1  0
 20 30  1  0
 20 31  1  0
M  RAD  1  16   2
M  END
>  <reaction>  (5) 
rmg_rxn_268

>  <mol_properties>  (5) 
{"1": {"label": "*3", "atom_type": "Cs"}, "2": {"label": "*4", "atom_type": "O2s"}, "8": {"label": "*2", "atom_type": "H0"}, "15": {"label": "*1", "atom_type": "Cs"}, "16": {"label": "*0", "atom_type": "Cs"}}

>  <type>  (5) 
unop_1

>  <geom_source>  (5) 
Heuristics

$$$$

     RDKit          3D

 31 30  0  0  0  0  0  0  0  0999 V2000
    0.9849    1.3419   -2.1353 C   0  0  0  0  0  0  0  0  0  0  0  0
    0.9849    1.3419   -0.6133 C   0  0  0  0  0  0  0  0  0  0  0  0
   -0.0634    2.1545   -0.1212 O   0  0  0  0  0  0  0  0  0  0  0  0
    0.0276    3.4541   -0.6205 C   0  0  0  0  0  0  0  0  0  0  0  0
   -0.0633    3.5103   -2.0115 O   0  0  0  0  0  0  0  0  0  0  0  0
    0.9849    2.7836   -2.6234 C   0  0  0  0  0  0  0  0  0  0  0  0
    1.8589    0.8095   -2.5172 H   0  0  0  0  0  0  0  0  0  0  0  0
    0.0884    0.8358   -2.4983 H   0  0  0  0  0  0  0  0  0  0  0  0
    0.7942    0.1449   -0.1245 H   0  0  0  0  0  0  0  0  0  0  0  0
    1.9486    1.7179   -0.2365 H   0  0  0  0  0  0  0  0  0  0  0  0
    0.9829    3.9062   -0.2963 H   0  0  0  0  0  0  0  0  0  0  0  0
   -0.8135    4.0146   -0.2185 H   0  0  0  0  0  0  0  0  0  0  0  0
    1.9486    3.2610   -2.3881 H   0  0  0  0  0  0  0  0  0  0  0  0
    0.8260    2.8495   -3.6989 H   0  0  0  0  0  0  0  0  0  0  0  0
    1.1594   -2.1067   -0.5862 C   0  0  0  0  0  0  0  0  0  0  0  0
    0.6027   -1.0569    0.3663 C   0  0  0  0  0  3  0  0  0  0  0  0
   -0.7284   -1.4500    0.9737 C   0  0  0  0  0  0  0  0  0  0  0  0
   -0.5601   -2.6046    1.7569 O   0  0  0  0  0  0  0  0  0  0  0  0
   -1.7557   -3.0644    2.3338 C   0  0  0  0  0  0  0  0  0  0  0  0
   -1.4630   -4.3027    3.1489 C   0  0  0  0  0  0  0  0  0  0  0  0
    0.4700   -2.2854   -1.4151 H   0  0  0  0  0  0  0  0  0  0  0  0
    2.1139   -1.7879   -1.0075 H   0  0  0  0  0  0  0  0  0  0  0  0
    1.3142   -3.0538   -0.0692 H   0  0  0  0  0  0  0  0  0  0  0  0
    1.3126   -0.8711    1.1765 H   0  0  0  0  0  0  0  0  0  0  0  0
   -1.4653   -1.6412    0.1776 H   0  0  0  0  0  0  0  0  0  0  0  0
   -1.1217   -0.6305    1.5931 H   0  0  0  0  0  0  0  0  0  0  0  0
   -2.4903   -3.2874    1.5460 H   0  0  0  0  0  0  0  0  0  0  0  0
   -2.1915   -2.2796    2.9698 H   0  0  0  0  0  0  0  0  0  0  0  0
   -0.7451   -4.0793    3.9389 H   0  0  0  0  0  0  0  0  0  0  0  0
   -2.3788   -4.6783    3.6081 H   0  0  0  0  0  0  0  0  0  0  0  0
   -1.0454   -5.0868    2.5163 H   0  0  0  0  0  0  0  0  0  0  0  0
  1  2  1  0
  1  6  1  0
  1  7  1  0
  1  8  1  0
  2  3  1  0
  2  9  1  0
  2 10  1  0
  3  4  1  0
  4  5  1  0
  4 11  1  0
  4 12  1  0
  5  6  1  0
  6 13  1  0
  6 14  1  0
 15 16  1  0
 15 21  1  0
 15 22  1  0
 15 23  1  0
 16 17  1  0
 16 24  1  0
 17 18  1  0
 17 25  1  0
 17 26  1  0
 18 19  1  0
 19 20  1  0
 19 27  1  0
 19 28  1  0
 20 29  1  0
 20 30  1  0
 20 31  1  0
M  RAD  1  16   2
M  END
>  <reaction>  (6) 
rmg_rxn_268

>  <mol_properties>  (6) 
{"1": {"label": "*3", "atom_type": "Cs"}, "2": {"label": "*4", "atom_type": "O2s"}, "8": {"label": "*2", "atom_type": "H0"}, "15": {"label": "*1", "atom_type": "Cs"}, "16": {"label": "*0", "atom_type": "Cs"}}

>  <type>  (6) 
unop_2

>  <geom_source>  (6) 
Heuristics

$$$$

     RDKit          3D

 31 30  0  0  0  0  0  0  0  0999 V2000
    0.6962    1.6198   -1.6529 C   0  0  0  0  0  0  0  0  0  0  0  0
    0.6962    1.6198   -0.1309 C   0  0  0  0  0  0  0  0  0  0  0  0
   -0.3520    2.4324    0.3613 O   0  0  0  0  0  0  0  0  0  0  0  0
   -0.2611    3.7320   -0.1381 C   0  0  0  0  0  0  0  0  0  0  0  0
   -0.3520    3.7882   -1.5291 O   0  0  0  0  0  0  0  0  0  0  0  0
    0.6962    3.0615   -2.1410 C   0  0  0  0  0  0  0  0  0  0  0  0
    1.5702    1.0873   -2.0348 H   0  0  0  0  0  0  0  0  0  0  0  0
   -0.2003    1.1136   -2.0159 H   0  0  0  0  0  0  0  0  0  0  0  0
    0.5055    0.4228    0.3580 H   0  0  0  0  0  0  0  0  0  0  0  0
    1.6599    1.9958    0.2459 H   0  0  0  0  0  0  0  0  0  0  0  0
    0.6942    4.1840    0.1861 H   0  0  0  0  0  0  0  0  0  0  0  0
   -1.1022    4.2925    0.2639 H   0  0  0  0  0  0  0  0  0  0  0  0
    1.6599    3.5388   -1.9057 H   0  0  0  0  0  0  0  0  0  0  0  0
    0.5373    3.1274   -3.2165 H   0  0  0  0  0  0  0  0  0  0  0  0
    1.0165   -0.9142    2.1932 C   0  0  0  0  0  0  0  0  0  0  0  0
    0.3140   -0.7791    0.8487 C   0  0  0  0  0  3  0  0  0  0  0  0
    0.2443   -2.0825    0.0796 C   0  0  0  0  0  0  0  0  0  0  0  0
   -0.5236   -3.0101    0.8040 O   0  0  0  0  0  0  0  0  0  0  0  0
   -0.6134   -4.2656    0.1801 C   0  0  0  0  0  0  0  0  0  0  0  0
   -1.4550   -5.1813    1.0384 C   0  0  0  0  0  0  0  0  0  0  0  0
    2.0436   -1.2638    2.0627 H   0  0  0  0  0  0  0  0  0  0  0  0
    1.0526    0.0431    2.7153 H   0  0  0  0  0  0  0  0  0  0  0  0
    0.4972   -1.6304    2.8299 H   0  0  0  0  0  0  0  0  0  0  0  0
   -0.7033   -0.4061    0.9926 H   0  0  0  0  0  0  0  0  0  0  0  0
    1.2586   -2.4806   -0.0821 H   0  0  0  0  0  0  0  0  0  0  0  0
   -0.2038   -1.9170   -0.9112 H   0  0  0  0  0  0  0  0  0  0  0  0
    0.3929   -4.6872    0.0400 H   0  0  0  0  0  0  0  0  0  0  0  0
   -1.0606   -4.1568   -0.8191 H   0  0  0  0  0  0  0  0  0  0  0  0
   -2.4572   -4.7709    1.1665 H   0  0  0  0  0  0  0  0  0  0  0  0
   -1.5394   -6.1644    0.5726 H   0  0  0  0  0  0  0  0  0  0  0  0
   -1.0042   -5.3022    2.0241 H   0  0  0  0  0  0  0  0  0  0  0  0
  1  2  1  0
  1  6  1  0
  1  7  1  0
  1  8  1  0
  2  3  1  0
  2  9  1  0
  2 10  1  0
  3  4  1  0
  4  5  1  0
  4 11  1  0
  4 12  1  0
  5  6  1  0
  6 13  1  0
  6 14  1  0
 15 16  1  0
 15 21  1  0
 15 22  1  0
 15 23  1  0
 16 17  1  0
 16 24  1  0
 17 18  1  0
 17 25  1  0
 17 26  1  0
 18 19  1  0
 19 20  1  0
 19 27  1  0
 19 28  1  0
 20 29  1  0
 20 30  1  0
 20 31  1  0
M  RAD  1  16   2
M  END
>  <reaction>  (7) 
rmg_rxn_268

>  <mol_properties>  (7) 
{"1": {"label": "*3", "atom_type": "Cs"}, "2": {"label": "*4", "atom_type": "O2s"}, "8": {"label": "*2", "atom_type": "H0"}, "15": {"label": "*1", "atom_type": "Cs"}, "16": {"label": "*0", "atom_type": "Cs"}}

>  <type>  (7) 
unop_3

>  <geom_source>  (7) 
Heuristics

$$$$

     RDKit          3D

 31 30  0  0  0  0  0  0  0  0999 V2000
    0.7719    0.6126   -2.6025 C   0  0  0  0  0  0  0  0  0  0  0  0
    0.7719    0.6126   -1.0805 C   0  0  0  0  0  0  0  0  0  0  0  0
   -0.2764    1.4252   -0.5884 O   0  0  0  0  0  0  0  0  0  0  0  0
   -0.1855    2.7247   -1.0877 C   0  0  0  0  0  0  0  0  0  0  0  0
   -0.2764    2.7809   -2.4788 O   0  0  0  0  0  0  0  0  0  0  0  0
    0.7719    2.0542   -3.0906 C   0  0  0  0  0  0  0  0  0  0  0  0
    1.6459    0.0801   -2.9844 H   0  0  0  0  0  0  0  0  0  0  0  0
   -0.1247    0.1064   -2.9655 H   0  0  0  0  0  0  0  0  0  0  0  0
    0.5812   -0.5845   -0.5917 H   0  0  0  0  0  0  0  0  0  0  0  0
    1.7355    0.9885   -0.7038 H   0  0  0  0  0  0  0  0  0  0  0  0
    0.7699    3.1768   -0.7635 H   0  0  0  0  0  0  0  0  0  0  0  0
   -1.0265    3.2852   -0.6857 H   0  0  0  0  0  0  0  0  0  0  0  0
    1.7355    2.5316   -2.8553 H   0  0  0  0  0  0  0  0  0  0  0  0
    0.6130    2.1201   -4.1661 H   0  0  0  0  0  0  0  0  0  0  0  0
   -0.9518   -2.3355   -0.5680 C   0  0  0  0  0  0  0  0  0  0  0  0
    0.3897   -1.7863   -0.1009 C   0  0  0  0  0  3  0  0  0  0  0  0
    0.2941   -0.9997    1.1903 C   0  0  0  0  0  0  0  0  0  0  0  0
   -0.1346   -1.8506    2.2234 O   0  0  0  0  0  0  0  0  0  0  0  0
   -0.2863   -1.1953    3.4567 C   0  0  0  0  0  0  0  0  0  0  0  0
   -0.7485   -2.1958    4.4906 C   0  0  0  0  0  0  0  0  0  0  0  0
   -1.6660   -1.5261   -0.7387 H   0  0  0  0  0  0  0  0  0  0  0  0
   -0.8454   -2.8903   -1.5013 H   0  0  0  0  0  0  0  0  0  0  0  0
   -1.3766   -3.0047    0.1801 H   0  0  0  0  0  0  0  0  0  0  0  0
    1.1005   -2.6042    0.0426 H   0  0  0  0  0  0  0  0  0  0  0  0
   -0.4157   -0.1655    1.0731 H   0  0  0  0  0  0  0  0  0  0  0  0
    1.2715   -0.5640    1.4446 H   0  0  0  0  0  0  0  0  0  0  0  0
   -1.0160   -0.3780    3.3595 H   0  0  0  0  0  0  0  0  0  0  0  0
    0.6688   -0.7419    3.7607 H   0  0  0  0  0  0  0  0  0  0  0  0
   -0.0190   -2.9994    4.5977 H   0  0  0  0  0  0  0  0  0  0  0  0
   -0.8730   -1.7087    5.4590 H   0  0  0  0  0  0  0  0  0  0  0  0
   -1.7031   -2.6345    4.1978 H   0  0  0  0  0  0  0  0  0  0  0  0
  1  2  1  0
  1  6  1  0
  1  7  1  0
  1  8  1  0
  2  3  1  0
  2  9  1  0
  2 10  1  0
  3  4  1  0
  4  5  1  0
  4 11  1  0
  4 12  1  0
  5  6  1  0
  6 13  1  0
  6 14  1  0
 15 16  1  0
 15 21  1  0
 15 22  1  0
 15 23  1  0
 16 17  1  0
 16 24  1  0
 17 18  1  0
 17 25  1  0
 17 26  1  0
 18 19  1  0
 19 20  1  0
 19 27  1  0
 19 28  1  0
 20 29  1  0
 20 30  1  0
 20 31  1  0
M  RAD  1  16   2
M  END
>  <reaction>  (8) 
rmg_rxn_268

>  <mol_properties>  (8) 
{"1": {"label": "*3", "atom_type": "Cs"}, "2": {"label": "*4", "atom_type": "O2s"}, "8": {"label": "*2", "atom_type": "H0"}, "15": {"label": "*1", "atom_type": "Cs"}, "16": {"label": "*0", "atom_type": "Cs"}}

>  <type>  (8) 
unop_4

>  <geom_source>  (8) 
Heuristics

$$$$

     RDKit          3D

 31 30  0  0  0  0  0  0  0  0999 V2000
    0.0188    1.5549   -1.6514 C   0  0  0  0  0  0  0  0  0  0  0  0
    0.0188    1.5549   -0.1294 C   0  0  0  0  0  0  0  0  0  0  0  0
   -1.0295    2.3675    0.3627 O   0  0  0  0  0  0  0  0  0  0  0  0
   -0.9386    3.6670   -0.1366 C   0  0  0  0  0  0  0  0  0  0  0  0
   -1.0295    3.7232   -1.5277 O   0  0  0  0  0  0  0  0  0  0  0  0
    0.0188    2.9965   -2.1395 C   0  0  0  0  0  0  0  0  0  0  0  0
    0.8928    1.0224   -2.0333 H   0  0  0  0  0  0  0  0  0  0  0  0
   -0.8778    1.0487   -2.0144 H   0  0  0  0  0  0  0  0  0  0  0  0
   -0.1720    0.3578    0.3594 H   0  0  0  0  0  0  0  0  0  0  0  0
    0.9824    1.9308    0.2473 H   0  0  0  0  0  0  0  0  0  0  0  0
    0.0167    4.1191    0.1876 H   0  0  0  0  0  0  0  0  0  0  0  0
   -1.7797    4.2275    0.2654 H   0  0  0  0  0  0  0  0  0  0  0  0
    0.9824    3.4739   -1.9042 H   0  0  0  0  0  0  0  0  0  0  0  0
   -0.1402    3.0624   -3.2150 H   0  0  0  0  0  0  0  0  0  0  0  0
   -0.3558   -0.7958    2.3723 C   0  0  0  0  0  0  0  0  0  0  0  0
   -0.3635   -0.8440    0.8502 C   0  0  0  0  0  3  0  0  0  0  0  0
    0.7023   -1.7561    0.2778 C   0  0  0  0  0  0  0  0  0  0  0  0
    0.4545   -3.0770    0.6887 O   0  0  0  0  0  0  0  0  0  0  0  0
    1.4180   -3.9915    0.2316 C   0  0  0  0  0  0  0  0  0  0  0  0
    1.0583   -5.3727    0.7282 C   0  0  0  0  0  0  0  0  0  0  0  0
    0.6065   -0.4370    2.7459 H   0  0  0  0  0  0  0  0  0  0  0  0
   -1.1312   -0.1266    2.7479 H   0  0  0  0  0  0  0  0  0  0  0  0
   -0.5290   -1.7873    2.7908 H   0  0  0  0  0  0  0  0  0  0  0  0
   -1.3389   -1.1814    0.4903 H   0  0  0  0  0  0  0  0  0  0  0  0
    1.6983   -1.4367    0.6233 H   0  0  0  0  0  0  0  0  0  0  0  0
    0.7034   -1.6988   -0.8206 H   0  0  0  0  0  0  0  0  0  0  0  0
    2.4141   -3.6995    0.5955 H   0  0  0  0  0  0  0  0  0  0  0  0
    1.4577   -3.9766   -0.8677 H   0  0  0  0  0  0  0  0  0  0  0  0
    0.0766   -5.6687    0.3567 H   0  0  0  0  0  0  0  0  0  0  0  0
    1.7938   -6.1016    0.3844 H   0  0  0  0  0  0  0  0  0  0  0  0
    1.0338   -5.3925    1.8184 H   0  0  0  0  0  0  0  0  0  0  0  0
  1  2  1  0
  1  6  1  0
  1  7  1  0
  1  8  1  0
  2  3  1  0
  2  9  1  0
  2 10  1  0
  3  4  1  0
  4  5  1  0
  4 11  1  0
  4 12  1  0
  5  6  1  0
  6 13  1  0
  6 14  1  0
 15 16  1  0
 15 21  1  0
 15 22  1  0
 15 23  1  0
 16 17  1  0
 16 24  1  0
 17 18  1  0
 17 25  1  0
 17 26  1  0
 18 19  1  0
 19 20  1  0
 19 27  1  0
 19 28  1  0
 20 29  1  0
 20 30  1  0
 20 31  1  0
M  RAD  1  16   2
M  END
>  <reaction>  (9) 
rmg_rxn_268

>  <mol_properties>  (9) 
{"1": {"label": "*3", "atom_type": "Cs"}, "2": {"label": "*4", "atom_type": "O2s"}, "8": {"label": "*2", "atom_type": "H0"}, "15": {"label": "*1", "atom_type": "Cs"}, "16": {"label": "*0", "atom_type": "Cs"}}

>  <type>  (9) 
unop_5

>  <geom_source>  (9) 
Heuristics

$$$$

     RDKit          3D

 31 30  0  0  0  0  0  0  0  0999 V2000
    0.3141    0.5437   -2.6425 C   0  0  0  0  0  0  0  0  0  0  0  0
    0.3141    0.5437   -1.1204 C   0  0  0  0  0  0  0  0  0  0  0  0
   -0.7342    1.3563   -0.6283 O   0  0  0  0  0  0  0  0  0  0  0  0
   -0.6432    2.6558   -1.1277 C   0  0  0  0  0  0  0  0  0  0  0  0
   -0.7342    2.7120   -2.5187 O   0  0  0  0  0  0  0  0  0  0  0  0
    0.3141    1.9853   -3.1306 C   0  0  0  0  0  0  0  0  0  0  0  0
    1.1881    0.0112   -3.0244 H   0  0  0  0  0  0  0  0  0  0  0  0
   -0.5824    0.0375   -3.0055 H   0  0  0  0  0  0  0  0  0  0  0  0
    0.1234   -0.6533   -0.6316 H   0  0  0  0  0  0  0  0  0  0  0  0
    1.2778    0.9196   -0.7437 H   0  0  0  0  0  0  0  0  0  0  0  0
    0.3121    3.1079   -0.8035 H   0  0  0  0  0  0  0  0  0  0  0  0
   -1.4843    3.2163   -0.7257 H   0  0  0  0  0  0  0  0  0  0  0  0
    1.2778    2.4627   -2.8953 H   0  0  0  0  0  0  0  0  0  0  0  0
    0.1552    2.0512   -4.2060 H   0  0  0  0  0  0  0  0  0  0  0  0
   -1.5567   -2.1101    0.0551 C   0  0  0  0  0  0  0  0  0  0  0  0
   -0.0681   -1.8552   -0.1409 C   0  0  0  0  0  3  0  0  0  0  0  0
    0.5548   -1.0643    0.9913 C   0  0  0  0  0  0  0  0  0  0  0  0
    0.4623   -1.8044    2.1824 O   0  0  0  0  0  0  0  0  0  0  0  0
    0.9857   -1.1301    3.2982 C   0  0  0  0  0  0  0  0  0  0  0  0
    0.8356   -2.0094    4.5180 C   0  0  0  0  0  0  0  0  0  0  0  0
   -2.1069   -1.1687    0.1281 H   0  0  0  0  0  0  0  0  0  0  0  0
   -1.9714   -2.6763   -0.7802 H   0  0  0  0  0  0  0  0  0  0  0  0
   -1.7345   -2.6739    0.9709 H   0  0  0  0  0  0  0  0  0  0  0  0
    0.4658   -2.8042   -0.2362 H   0  0  0  0  0  0  0  0  0  0  0  0
    0.0362   -0.0995    1.1083 H   0  0  0  0  0  0  0  0  0  0  0  0
    1.6089   -0.8439    0.7675 H   0  0  0  0  0  0  0  0  0  0  0  0
    0.4550   -0.1775    3.4432 H   0  0  0  0  0  0  0  0  0  0  0  0
    2.0450   -0.8876    3.1270 H   0  0  0  0  0  0  0  0  0  0  0  0
    1.3729   -2.9484    4.3806 H   0  0  0  0  0  0  0  0  0  0  0  0
    1.2367   -1.5056    5.3988 H   0  0  0  0  0  0  0  0  0  0  0  0
   -0.2156   -2.2376    4.6976 H   0  0  0  0  0  0  0  0  0  0  0  0
  1  2  1  0
  1  6  1  0
  1  7  1  0
  1  8  1  0
  2  3  1  0
  2  9  1  0
  2 10  1  0
  3  4  1  0
  4  5  1  0
  4 11  1  0
  4 12  1  0
  5  6  1  0
  6 13  1  0
  6 14  1  0
 15 16  1  0
 15 21  1  0
 15 22  1  0
 15 23  1  0
 16 17  1  0
 16 24  1  0
 17 18  1  0
 17 25  1  0
 17 26  1  0
 18 19  1  0
 19 20  1  0
 19 27  1  0
 19 28  1  0
 20 29  1  0
 20 30  1  0
 20 31  1  0
M  RAD  1  16   2
M  END
>  <reaction>  (10) 
rmg_rxn_268

>  <mol_properties>  (10) 
{"1": {"label": "*3", "atom_type": "Cs"}, "2": {"label": "*4", "atom_type": "O2s"}, "8": {"label": "*2", "atom_type": "H0"}, "15": {"label": "*1", "atom_type": "Cs"}, "16": {"label": "*0", "atom_type": "Cs"}}

>  <type>  (10) 
unop_6

>  <geom_source>  (10) 
Heuristics

$$$$

     RDKit          3D

 31 30  0  0  0  0  0  0  0  0999 V2000
   -0.1379    0.6840   -2.4675 C   0  0  0  0  0  0  0  0  0  0  0  0
   -0.1379    0.6840   -0.9455 C   0  0  0  0  0  0  0  0  0  0  0  0
   -1.1862    1.4966   -0.4533 O   0  0  0  0  0  0  0  0  0  0  0  0
   -1.0953    2.7961   -0.9527 C   0  0  0  0  0  0  0  0  0  0  0  0
   -1.1862    2.8523   -2.3437 O   0  0  0  0  0  0  0  0  0  0  0  0
   -0.1379    2.1256   -2.9556 C   0  0  0  0  0  0  0  0  0  0  0  0
    0.7361    0.1515   -2.8494 H   0  0  0  0  0  0  0  0  0  0  0  0
   -1.0345    0.1778   -2.8305 H   0  0  0  0  0  0  0  0  0  0  0  0
   -0.3287   -0.5130   -0.4566 H   0  0  0  0  0  0  0  0  0  0  0  0
    0.8257    1.0599   -0.5687 H   0  0  0  0  0  0  0  0  0  0  0  0
   -0.1400    3.2482   -0.6285 H   0  0  0  0  0  0  0  0  0  0  0  0
   -1.9364    3.3566   -0.5507 H   0  0  0  0  0  0  0  0  0  0  0  0
    0.8257    2.6030   -2.7203 H   0  0  0  0  0  0  0  0  0  0  0  0
   -0.2969    2.1915   -4.0311 H   0  0  0  0  0  0  0  0  0  0  0  0
   -1.7775   -1.7359    0.8932 C   0  0  0  0  0  0  0  0  0  0  0  0
   -0.5202   -1.7149    0.0341 C   0  0  0  0  0  3  0  0  0  0  0  0
    0.6923   -1.1768    0.7661 C   0  0  0  0  0  0  0  0  0  0  0  0
    0.9985   -2.0235    1.8452 O   0  0  0  0  0  0  0  0  0  0  0  0
    2.0934   -1.5809    2.6060 C   0  0  0  0  0  0  0  0  0  0  0  0
    2.3342   -2.5573    3.7338 C   0  0  0  0  0  0  0  0  0  0  0  0
   -2.0316   -0.7300    1.2365 H   0  0  0  0  0  0  0  0  0  0  0  0
   -2.6295   -2.1234    0.3327 H   0  0  0  0  0  0  0  0  0  0  0  0
   -1.6338   -2.3637    1.7726 H   0  0  0  0  0  0  0  0  0  0  0  0
   -0.2918   -2.7229   -0.3216 H   0  0  0  0  0  0  0  0  0  0  0  0
    0.4903   -0.1585    1.1343 H   0  0  0  0  0  0  0  0  0  0  0  0
    1.5524   -1.1130    0.0835 H   0  0  0  0  0  0  0  0  0  0  0  0
    1.8910   -0.5757    3.0043 H   0  0  0  0  0  0  0  0  0  0  0  0
    2.9863   -1.5024    1.9681 H   0  0  0  0  0  0  0  0  0  0  0  0
    2.5486   -3.5513    3.3395 H   0  0  0  0  0  0  0  0  0  0  0  0
    3.1823   -2.2338    4.3394 H   0  0  0  0  0  0  0  0  0  0  0  0
    1.4551   -2.6241    4.3758 H   0  0  0  0  0  0  0  0  0  0  0  0
  1  2  1  0
  1  6  1  0
  1  7  1  0
  1  8  1  0
  2  3  1  0
  2  9  1  0
  2 10  1  0
  3  4  1  0
  4  5  1  0
  4 11  1  0
  4 12  1  0
  5  6  1  0
  6 13  1  0
  6 14  1  0
 15 16  1  0
 15 21  1  0
 15 22  1  0
 15 23  1  0
 16 17  1  0
 16 24  1  0
 17 18  1  0
 17 25  1  0
 17 26  1  0
 18 19  1  0
 19 20  1  0
 19 27  1  0
 19 28  1  0
 20 29  1  0
 20 30  1  0
 20 31  1  0
M  RAD  1  16   2
M  END
>  <reaction>  (11) 
rmg_rxn_268

>  <mol_properties>  (11) 
{"1": {"label": "*3", "atom_type": "Cs"}, "2": {"label": "*4", "atom_type": "O2s"}, "8": {"label": "*2", "atom_type": "H0"}, "15": {"label": "*1", "atom_type": "Cs"}, "16": {"label": "*0", "atom_type": "Cs"}}

>  <type>  (11) 
unop_7

>  <geom_source>  (11) 
Heuristics

$$$$

     RDKit          3D

 31 30  0  0  0  0  0  0  0  0999 V2000
    0.9408    1.4104   -2.0751 C   0  0  0  0  0  0  0  0  0  0  0  0
    0.9408    1.4104   -0.5531 C   0  0  0  0  0  0  0  0  0  0  0  0
   -0.1075    2.2230   -0.0610 O   0  0  0  0  0  0  0  0  0  0  0  0
   -0.0166    3.5225   -0.5603 C   0  0  0  0  0  0  0  0  0  0  0  0
   -0.1075    3.5787   -1.9513 O   0  0  0  0  0  0  0  0  0  0  0  0
    0.9408    2.8520   -2.5632 C   0  0  0  0  0  0  0  0  0  0  0  0
    1.8148    0.8779   -2.4570 H   0  0  0  0  0  0  0  0  0  0  0  0
    0.0442    0.9042   -2.4381 H   0  0  0  0  0  0  0  0  0  0  0  0
    0.7501    0.2133   -0.0643 H   0  0  0  0  0  0  0  0  0  0  0  0
    1.9044    1.7863   -0.1763 H   0  0  0  0  0  0  0  0  0  0  0  0
    0.9388    3.9746   -0.2361 H   0  0  0  0  0  0  0  0  0  0  0  0
   -0.8576    4.0830   -0.1583 H   0  0  0  0  0  0  0  0  0  0  0  0
    1.9044    3.3294   -2.3279 H   0  0  0  0  0  0  0  0  0  0  0  0
    0.7819    2.9179   -3.6387 H   0  0  0  0  0  0  0  0  0  0  0  0
    1.8942   -1.6935    0.6225 C   0  0  0  0  0  0  0  0  0  0  0  0
    0.5586   -0.9885    0.4265 C   0  0  0  0  0  3  0  0  0  0  0  0
   -0.6157   -1.9438    0.3655 C   0  0  0  0  0  0  0  0  0  0  0  0
   -0.7323   -2.6175    1.5933 O   0  0  0  0  0  0  0  0  0  0  0  0
   -1.7786   -3.5546    1.6164 C   0  0  0  0  0  0  0  0  0  0  0  0
   -1.8138   -4.2179    2.9737 C   0  0  0  0  0  0  0  0  0  0  0  0
    2.0909   -2.3901   -0.1963 H   0  0  0  0  0  0  0  0  0  0  0  0
    2.7156   -0.9762    0.6562 H   0  0  0  0  0  0  0  0  0  0  0  0
    1.8984   -2.2607    1.5532 H   0  0  0  0  0  0  0  0  0  0  0  0
    0.3863   -0.2782    1.2392 H   0  0  0  0  0  0  0  0  0  0  0  0
   -0.4693   -2.6712   -0.4486 H   0  0  0  0  0  0  0  0  0  0  0  0
   -1.5436   -1.3941    0.1497 H   0  0  0  0  0  0  0  0  0  0  0  0
   -1.6275   -4.3044    0.8258 H   0  0  0  0  0  0  0  0  0  0  0  0
   -2.7357   -3.0535    1.4084 H   0  0  0  0  0  0  0  0  0  0  0  0
   -1.9774   -3.4769    3.7570 H   0  0  0  0  0  0  0  0  0  0  0  0
   -2.6209   -4.9510    3.0155 H   0  0  0  0  0  0  0  0  0  0  0  0
   -0.8710   -4.7281    3.1743 H   0  0  0  0  0  0  0  0  0  0  0  0
  1  2  1  0
  1  6  1  0
  1  7  1  0
  1  8  1  0
  2  3  1  0
  2  9  1  0
  2 10  1  0
  3  4  1  0
  4  5  1  0
  4 11  1  0
  4 12  1  0
  5  6  1  0
  6 13  1  0
  6 14  1  0
 15 16  1  0
 15 21  1  0
 15 22  1  0
 15 23  1  0
 16 17  1  0
 16 24  1  0
 17 18  1  0
 17 25  1  0
 17 26  1  0
 18 19  1  0
 19 20  1  0
 19 27  1  0
 19 28  1  0
 20 29  1  0
 20 30  1  0
 20 31  1  0
M  RAD  1  16   2
M  END
>  <reaction>  (12) 
rmg_rxn_268

>  <mol_properties>  (12) 
{"1": {"label": "*3", "atom_type": "Cs"}, "2": {"label": "*4", "atom_type": "O2s"}, "8": {"label": "*2", "atom_type": "H0"}, "15": {"label": "*1", "atom_type": "Cs"}, "16": {"label": "*0", "atom_type": "Cs"}}

>  <type>  (12) 
unop_8

>  <geom_source>  (12) 
Heuristics

$$$$

     RDKit          3D

 31 30  0  0  0  0  0  0  0  0999 V2000
    1.0682    0.8523   -2.4149 C   0  0  0  0  0  0  0  0  0  0  0  0
    1.0682    0.8523   -0.8929 C   0  0  0  0  0  0  0  0  0  0  0  0
    0.0199    1.6649   -0.4008 O   0  0  0  0  0  0  0  0  0  0  0  0
    0.1108    2.9644   -0.9001 C   0  0  0  0  0  0  0  0  0  0  0  0
    0.0199    3.0206   -2.2912 O   0  0  0  0  0  0  0  0  0  0  0  0
    1.0682    2.2939   -2.9030 C   0  0  0  0  0  0  0  0  0  0  0  0
    1.9422    0.3198   -2.7968 H   0  0  0  0  0  0  0  0  0  0  0  0
    0.1716    0.3461   -2.7780 H   0  0  0  0  0  0  0  0  0  0  0  0
    0.8775   -0.3447   -0.4041 H   0  0  0  0  0  0  0  0  0  0  0  0
    2.0318    1.2282   -0.5162 H   0  0  0  0  0  0  0  0  0  0  0  0
    1.0662    3.4165   -0.5759 H   0  0  0  0  0  0  0  0  0  0  0  0
   -0.7302    3.5249   -0.4981 H   0  0  0  0  0  0  0  0  0  0  0  0
    2.0318    2.7713   -2.6678 H   0  0  0  0  0  0  0  0  0  0  0  0
    0.9093    2.3598   -3.9785 H   0  0  0  0  0  0  0  0  0  0  0  0
   -0.1694   -2.3714   -0.8658 C   0  0  0  0  0  0  0  0  0  0  0  0
    0.6860   -1.5466    0.0867 C   0  0  0  0  0  3  0  0  0  0  0  0
   -0.0861   -1.0269    1.2821 C   0  0  0  0  0  0  0  0  0  0  0  0
   -0.5459   -2.1123    2.0472 O   0  0  0  0  0  0  0  0  0  0  0  0
   -1.3063   -1.7239    3.1627 C   0  0  0  0  0  0  0  0  0  0  0  0
   -1.7486   -2.9606    3.9101 C   0  0  0  0  0  0  0  0  0  0  0  0
   -1.0010   -1.7787   -1.2552 H   0  0  0  0  0  0  0  0  0  0  0  0
    0.4173   -2.7236   -1.7155 H   0  0  0  0  0  0  0  0  0  0  0  0
   -0.5868   -3.2398   -0.3562 H   0  0  0  0  0  0  0  0  0  0  0  0
    1.5264   -2.1440    0.4492 H   0  0  0  0  0  0  0  0  0  0  0  0
   -0.9397   -0.4177    0.9450 H   0  0  0  0  0  0  0  0  0  0  0  0
    0.5551   -0.3789    1.8977 H   0  0  0  0  0  0  0  0  0  0  0  0
   -2.1791   -1.1393    2.8361 H   0  0  0  0  0  0  0  0  0  0  0  0
   -0.7074   -1.0730    3.8169 H   0  0  0  0  0  0  0  0  0  0  0  0
   -0.8838   -3.5336    4.2463 H   0  0  0  0  0  0  0  0  0  0  0  0
   -2.3418   -2.6831    4.7828 H   0  0  0  0  0  0  0  0  0  0  0  0
   -2.3556   -3.5990    3.2671 H   0  0  0  0  0  0  0  0  0  0  0  0
  1  2  1  0
  1  6  1  0
  1  7  1  0
  1  8  1  0
  2  3  1  0
  2  9  1  0
  2 10  1  0
  3  4  1  0
  4  5  1  0
  4 11  1  0
  4 12  1  0
  5  6  1  0
  6 13  1  0
  6 14  1  0
 15 16  1  0
 15 21  1  0
 15 22  1  0
 15 23  1  0
 16 17  1  0
 16 24  1  0
 17 18  1  0
 17 25  1  0
 17 26  1  0
 18 19  1  0
 19 20  1  0
 19 27  1  0
 19 28  1  0
 20 29  1  0
 20 30  1  0
 20 31  1  0
M  RAD  1  16   2
M  END
>  <reaction>  (13) 
rmg_rxn_268

>  <mol_properties>  (13) 
{"1": {"label": "*3", "atom_type": "Cs"}, "2": {"label": "*4", "atom_type": "O2s"}, "8": {"label": "*2", "atom_type": "H0"}, "15": {"label": "*1", "atom_type": "Cs"}, "16": {"label": "*0", "atom_type": "Cs"}}

>  <type>  (13) 
unop_9

>  <geom_source>  (13) 
Heuristics

$$$$

     RDKit          3D

 31 30  0  0  0  0  0  0  0  0999 V2000
    0.9122    1.3953   -2.1299 C   0  0  0  0  0  0  0  0  0  0  0  0
    0.9122    1.3953   -0.6079 C   0  0  0  0  0  0  0  0  0  0  0  0
   -0.1361    2.2079   -0.1158 O   0  0  0  0  0  0  0  0  0  0  0  0
   -0.0452    3.5075   -0.6151 C   0  0  0  0  0  0  0  0  0  0  0  0
   -0.1361    3.5637   -2.0061 O   0  0  0  0  0  0  0  0  0  0  0  0
    0.9122    2.8370   -2.6180 C   0  0  0  0  0  0  0  0  0  0  0  0
    1.7862    0.8629   -2.5118 H   0  0  0  0  0  0  0  0  0  0  0  0
    0.0156    0.8892   -2.4929 H   0  0  0  0  0  0  0  0  0  0  0  0
    0.7215    0.1983   -0.1191 H   0  0  0  0  0  0  0  0  0  0  0  0
    1.8758    1.7713   -0.2311 H   0  0  0  0  0  0  0  0  0  0  0  0
    0.9102    3.9596   -0.2909 H   0  0  0  0  0  0  0  0  0  0  0  0
   -0.8862    4.0680   -0.2131 H   0  0  0  0  0  0  0  0  0  0  0  0
    1.8758    3.3144   -2.3827 H   0  0  0  0  0  0  0  0  0  0  0  0
    0.7533    2.9029   -3.6935 H   0  0  0  0  0  0  0  0  0  0  0  0
    1.6343   -1.9424   -0.0954 C   0  0  0  0  0  0  0  0  0  0  0  0
    0.5300   -1.0036    0.3717 C   0  0  0  0  0  3  0  0  0  0  0  0
   -0.7727   -1.7177    0.6691 C   0  0  0  0  0  0  0  0  0  0  0  0
   -0.5792   -2.6156    1.7327 O   0  0  0  0  0  0  0  0  0  0  0  0
   -1.7314   -3.3516    2.0558 C   0  0  0  0  0  0  0  0  0  0  0  0
   -1.4142   -4.2811    3.2042 C   0  0  0  0  0  0  0  0  0  0  0  0
    1.3406   -2.4654   -1.0089 H   0  0  0  0  0  0  0  0  0  0  0  0
    2.5537   -1.3937   -0.3048 H   0  0  0  0  0  0  0  0  0  0  0  0
    1.8506   -2.6926    0.6652 H   0  0  0  0  0  0  0  0  0  0  0  0
    0.8466   -0.4700    1.2716 H   0  0  0  0  0  0  0  0  0  0  0  0
   -1.1170   -2.2631   -0.2239 H   0  0  0  0  0  0  0  0  0  0  0  0
   -1.5554   -0.9903    0.9299 H   0  0  0  0  0  0  0  0  0  0  0  0
   -2.0681   -3.9245    1.1792 H   0  0  0  0  0  0  0  0  0  0  0  0
   -2.5489   -2.6680    2.3290 H   0  0  0  0  0  0  0  0  0  0  0  0
   -1.0935   -3.7131    4.0782 H   0  0  0  0  0  0  0  0  0  0  0  0
   -2.2964   -4.8639    3.4737 H   0  0  0  0  0  0  0  0  0  0  0  0
   -0.6144   -4.9696    2.9289 H   0  0  0  0  0  0  0  0  0  0  0  0
  1  2  1  0
  1  6  1  0
  1  7  1  0
  1  8  1  0
  2  3  1  0
  2  9  1  0
  2 10  1  0
  3  4  1  0
  4  5  1  0
  4 11  1  0
  4 12  1  0
  5  6  1  0
  6 13  1  0
  6 14  1  0
 15 16  1  0
 15 21  1  0
 15 22  1  0
 15 23  1  0
 16 17  1  0
 16 24  1  0
 17 18  1  0
 17 25  1  0
 17 26  1  0
 18 19  1  0
 19 20  1  0
 19 27  1  0
 19 28  1  0
 20 29  1  0
 20 30  1  0
 20 31  1  0
M  RAD  1  16   2
M  END
>  <reaction>  (14) 
rmg_rxn_268

>  <mol_properties>  (14) 
{"1": {"label": "*3", "atom_type": "Cs"}, "2": {"label": "*4", "atom_type": "O2s"}, "8": {"label": "*2", "atom_type": "H0"}, "15": {"label": "*1", "atom_type": "Cs"}, "16": {"label": "*0", "atom_type": "Cs"}}

>  <type>  (14) 
unop_10

>  <geom_source>  (14) 
Heuristics

$$$$

     RDKit          3D

 31 30  0  0  0  0  0  0  0  0999 V2000
   -0.3606    1.0644   -2.0778 C   0  0  0  0  0  0  0  0  0  0  0  0
   -0.3606    1.0644   -0.5557 C   0  0  0  0  0  0  0  0  0  0  0  0
   -1.4089    1.8770   -0.0636 O   0  0  0  0  0  0  0  0  0  0  0  0
   -1.3180    3.1766   -0.5630 C   0  0  0  0  0  0  0  0  0  0  0  0
   -1.4089    3.2328   -1.9540 O   0  0  0  0  0  0  0  0  0  0  0  0
   -0.3606    2.5061   -2.5659 C   0  0  0  0  0  0  0  0  0  0  0  0
    0.5134    0.5320   -2.4596 H   0  0  0  0  0  0  0  0  0  0  0  0
   -1.2572    0.5583   -2.4408 H   0  0  0  0  0  0  0  0  0  0  0  0
   -0.5514   -0.1326   -0.0669 H   0  0  0  0  0  0  0  0  0  0  0  0
    0.6030    1.4404   -0.1790 H   0  0  0  0  0  0  0  0  0  0  0  0
   -0.3627    3.6286   -0.2387 H   0  0  0  0  0  0  0  0  0  0  0  0
   -2.1591    3.7371   -0.1610 H   0  0  0  0  0  0  0  0  0  0  0  0
    0.6030    2.9835   -2.3306 H   0  0  0  0  0  0  0  0  0  0  0  0
   -0.5196    2.5720   -3.6413 H   0  0  0  0  0  0  0  0  0  0  0  0
   -1.4525   -1.2445    1.7683 C   0  0  0  0  0  0  0  0  0  0  0  0
   -0.7429   -1.3345    0.4238 C   0  0  0  0  0  3  0  0  0  0  0  0
    0.7667   -1.3674    0.5483 C   0  0  0  0  0  0  0  0  0  0  0  0
    1.1513   -2.5256    1.2451 O   0  0  0  0  0  0  0  0  0  0  0  0
    2.5393   -2.6225    1.4395 C   0  0  0  0  0  0  0  0  0  0  0  0
    2.8414   -3.8960    2.1949 C   0  0  0  0  0  0  0  0  0  0  0  0
   -1.1561   -0.3402    2.3056 H   0  0  0  0  0  0  0  0  0  0  0  0
   -2.5356   -1.2175    1.6396 H   0  0  0  0  0  0  0  0  0  0  0  0
   -1.2047   -2.1021    2.3938 H   0  0  0  0  0  0  0  0  0  0  0  0
   -1.0667   -2.2303   -0.1122 H   0  0  0  0  0  0  0  0  0  0  0  0
    1.1214   -0.4726    1.0839 H   0  0  0  0  0  0  0  0  0  0  0  0
    1.2317   -1.3576   -0.4485 H   0  0  0  0  0  0  0  0  0  0  0  0
    2.9011   -1.7479    2.0000 H   0  0  0  0  0  0  0  0  0  0  0  0
    3.0552   -2.6202    0.4679 H   0  0  0  0  0  0  0  0  0  0  0  0
    2.4954   -4.7645    1.6334 H   0  0  0  0  0  0  0  0  0  0  0  0
    3.9160   -3.9932    2.3573 H   0  0  0  0  0  0  0  0  0  0  0  0
    2.3430   -3.8923    3.1648 H   0  0  0  0  0  0  0  0  0  0  0  0
  1  2  1  0
  1  6  1  0
  1  7  1  0
  1  8  1  0
  2  3  1  0
  2  9  1  0
  2 10  1  0
  3  4  1  0
  4  5  1  0
  4 11  1  0
  4 12  1  0
  5  6  1  0
  6 13  1  0
  6 14  1  0
 15 16  1  0
 15 21  1  0
 15 22  1  0
 15 23  1  0
 16 17  1  0
 16 24  1  0
 17 18  1  0
 17 25  1  0
 17 26  1  0
 18 19  1  0
 19 20  1  0
 19 27  1  0
 19 28  1  0
 20 29  1  0
 20 30  1  0
 20 31  1  0
M  RAD  1  16   2
M  END
>  <reaction>  (15) 
rmg_rxn_268

>  <mol_properties>  (15) 
{"1": {"label": "*3", "atom_type": "Cs"}, "2": {"label": "*4", "atom_type": "O2s"}, "8": {"label": "*2", "atom_type": "H0"}, "15": {"label": "*1", "atom_type": "Cs"}, "16": {"label": "*0", "atom_type": "Cs"}}

>  <type>  (15) 
unop_11

>  <geom_source>  (15) 
Heuristics

$$$$

     RDKit          3D

 31 30  0  0  0  0  0  0  0  0999 V2000
    1.1061    1.1501   -2.2184 C   0  0  0  0  0  0  0  0  0  0  0  0
    1.1061    1.1501   -0.6964 C   0  0  0  0  0  0  0  0  0  0  0  0
    0.0578    1.9627   -0.2043 O   0  0  0  0  0  0  0  0  0  0  0  0
    0.1487    3.2622   -0.7036 C   0  0  0  0  0  0  0  0  0  0  0  0
    0.0578    3.3184   -2.0947 O   0  0  0  0  0  0  0  0  0  0  0  0
    1.1061    2.5917   -2.7065 C   0  0  0  0  0  0  0  0  0  0  0  0
    1.9801    0.6176   -2.6003 H   0  0  0  0  0  0  0  0  0  0  0  0
    0.2095    0.6439   -2.5814 H   0  0  0  0  0  0  0  0  0  0  0  0
    0.9153   -0.0470   -0.2076 H   0  0  0  0  0  0  0  0  0  0  0  0
    2.0697    1.5260   -0.3197 H   0  0  0  0  0  0  0  0  0  0  0  0
    1.1040    3.7143   -0.3794 H   0  0  0  0  0  0  0  0  0  0  0  0
   -0.6924    3.8227   -0.3016 H   0  0  0  0  0  0  0  0  0  0  0  0
    2.0697    3.0691   -2.4712 H   0  0  0  0  0  0  0  0  0  0  0  0
    0.9471    2.6576   -3.7820 H   0  0  0  0  0  0  0  0  0  0  0  0
    0.5632   -2.2569   -0.8470 C   0  0  0  0  0  0  0  0  0  0  0  0
    0.7238   -1.2488    0.2832 C   0  0  0  0  0  3  0  0  0  0  0  0
   -0.4779   -1.1899    1.2039 C   0  0  0  0  0  0  0  0  0  0  0  0
   -0.6386   -2.4327    1.8399 O   0  0  0  0  0  0  0  0  0  0  0  0
   -1.7556   -2.4818    2.6905 C   0  0  0  0  0  0  0  0  0  0  0  0
   -1.8346   -3.8541    3.3183 C   0  0  0  0  0  0  0  0  0  0  0  0
   -0.3030   -2.0124   -1.4670 H   0  0  0  0  0  0  0  0  0  0  0  0
    1.4435   -2.2679   -1.4913 H   0  0  0  0  0  0  0  0  0  0  0  0
    0.4183   -3.2617   -0.4503 H   0  0  0  0  0  0  0  0  0  0  0  0
    1.6068   -1.4916    0.8800 H   0  0  0  0  0  0  0  0  0  0  0  0
   -1.3838   -0.9439    0.6276 H   0  0  0  0  0  0  0  0  0  0  0  0
   -0.3437   -0.3983    1.9557 H   0  0  0  0  0  0  0  0  0  0  0  0
   -2.6710   -2.2668    2.1196 H   0  0  0  0  0  0  0  0  0  0  0  0
   -1.6697   -1.7079    3.4677 H   0  0  0  0  0  0  0  0  0  0  0  0
   -0.9334   -4.0626    3.8959 H   0  0  0  0  0  0  0  0  0  0  0  0
   -2.6962   -3.9158    3.9850 H   0  0  0  0  0  0  0  0  0  0  0  0
   -1.9355   -4.6208    2.5493 H   0  0  0  0  0  0  0  0  0  0  0  0
  1  2  1  0
  1  6  1  0
  1  7  1  0
  1  8  1  0
  2  3  1  0
  2  9  1  0
  2 10  1  0
  3  4  1  0
  4  5  1  0
  4 11  1  0
  4 12  1  0
  5  6  1  0
  6 13  1  0
  6 14  1  0
 15 16  1  0
 15 21  1  0
 15 22  1  0
 15 23  1  0
 16 17  1  0
 16 24  1  0
 17 18  1  0
 17 25  1  0
 17 26  1  0
 18 19  1  0
 19 20  1  0
 19 27  1  0
 19 28  1  0
 20 29  1  0
 20 30  1  0
 20 31  1  0
M  RAD  1  16   2
M  END
>  <reaction>  (16) 
rmg_rxn_268

>  <mol_properties>  (16) 
{"1": {"label": "*3", "atom_type": "Cs"}, "2": {"label": "*4", "atom_type": "O2s"}, "8": {"label": "*2", "atom_type": "H0"}, "15": {"label": "*1", "atom_type": "Cs"}, "16": {"label": "*0", "atom_type": "Cs"}}

>  <type>  (16) 
unop_12

>  <geom_source>  (16) 
Heuristics

$$$$

     RDKit          3D

 31 30  0  0  0  0  0  0  0  0999 V2000
    2.8602   -0.6506    0.1454 O   0  0  0  0  0  0  0  0  0  0  0  0
   -4.3093   -0.1186   -0.1640 O   0  0  0  0  0  0  0  0  0  0  0  0
   -2.4494    0.9445   -1.2398 O   0  0  0  0  0  0  0  0  0  0  0  0
    0.4714   -0.9370    0.0922 C   0  0  0  0  0  0  0  0  0  0  0  0
   -2.4323    0.6577    1.1375 C   0  0  0  0  0  0  0  0  0  0  0  0
    1.6792   -0.2033   -0.4892 C   0  0  0  0  0  0  0  0  0  0  0  0
   -3.9392    0.7526    0.8846 C   0  0  0  0  0  0  0  0  0  0  0  0
    3.9745    0.1071   -0.2872 C   0  0  0  0  0  0  0  0  0  0  0  0
    0.5146   -2.4334   -0.2061 C   0  0  0  0  0  0  0  0  0  0  0  0
    4.2799    1.2154    0.7141 C   0  0  0  0  0  0  0  0  0  0  0  0
   -3.6951    0.2762   -1.3902 C   0  0  0  0  0  0  0  0  0  0  0  0
   -1.7419    0.3435   -0.1853 C   0  0  0  0  0  3  0  0  0  0  0  0
    0.4338   -0.7794    1.1920 H   0  0  0  0  0  0  0  0  0  0  0  0
   -0.6233   -0.4342   -0.4326 H   0  0  0  0  0  0  0  0  0  0  0  0
   -2.0596    1.6194    1.5520 H   0  0  0  0  0  0  0  0  0  0  0  0
   -2.2124   -0.1587    1.8577 H   0  0  0  0  0  0  0  0  0  0  0  0
    1.7257   -0.3960   -1.5852 H   0  0  0  0  0  0  0  0  0  0  0  0
    1.5264    0.8865   -0.3203 H   0  0  0  0  0  0  0  0  0  0  0  0
    4.8531   -0.5706   -0.3310 H   0  0  0  0  0  0  0  0  0  0  0  0
    3.8577    0.5391   -1.3097 H   0  0  0  0  0  0  0  0  0  0  0  0
   -4.2291    1.8002    0.6386 H   0  0  0  0  0  0  0  0  0  0  0  0
   -4.4870    0.4646    1.8066 H   0  0  0  0  0  0  0  0  0  0  0  0
    1.4100   -2.8980    0.2586 H   0  0  0  0  0  0  0  0  0  0  0  0
   -0.3929   -2.9180    0.2108 H   0  0  0  0  0  0  0  0  0  0  0  0
    0.5363   -2.6064   -1.3029 H   0  0  0  0  0  0  0  0  0  0  0  0
    3.4397    1.9395    0.7571 H   0  0  0  0  0  0  0  0  0  0  0  0
    4.4388    0.7818    1.7241 H   0  0  0  0  0  0  0  0  0  0  0  0
    5.2001    1.7550    0.4057 H   0  0  0  0  0  0  0  0  0  0  0  0
   -4.3910    0.9468   -1.9371 H   0  0  0  0  0  0  0  0  0  0  0  0
   -3.5481   -0.6263   -2.0214 H   0  0  0  0  0  0  0  0  0  0  0  0
   -0.6906    0.7005   -0.1752 H   0  0  0  0  0  0  0  0  0  0  0  0
  1  8  1  0
  1  6  1  0
  2  7  1  0
  2 11  1  0
  3 12  1  0
  3 11  1  0
  4  9  1  0
  4  6  1  0
  4 13  1  0
  4 14  1  0
  5 12  1  0
  5  7  1  0
  5 15  1  0
  5 16  1  0
  6 17  1  0
  6 18  1  0
  7 21  1  0
  7 22  1  0
  8 10  1  0
  8 19  1  0
  8 20  1  0
  9 23  1  0
  9 24  1  0
  9 25  1  0
 10 26  1  0
 10 27  1  0
 10 28  1  0
 11 29  1  0
 11 30  1  0
 12 31  1  0
M  RAD  1  12   2
M  END
>  <reaction>  (17) 
rmg_rxn_268

>  <mol_properties>  (17) 
{"1": {"label": "*3", "atom_type": "Cs"}, "2": {"label": "*4", "atom_type": "O2s"}, "8": {"label": "*2", "atom_type": "H0"}, "15": {"label": "*1", "atom_type": "Cs"}, "16": {"label": "*0", "atom_type": "Cs"}}

>  <type>  (17) 
unop_13

>  <geom_source>  (17) 
AutoTST

$$$$

     RDKit          3D

 31 30  0  0  0  0  0  0  0  0999 V2000
    0.9849    1.3419   -2.1353 C   0  0  0  0  0  0  0  0  0  0  0  0
    0.9849    1.3419   -0.6132 C   0  0  0  0  0  0  0  0  0  0  0  0
   -0.0634    2.1545   -0.1211 O   0  0  0  0  0  0  0  0  0  0  0  0
    0.0276    3.4541   -0.6205 C   0  0  0  0  0  0  0  0  0  0  0  0
   -0.0634    3.5103   -2.0115 O   0  0  0  0  0  0  0  0  0  0  0  0
    0.9849    2.7836   -2.6234 C   0  0  0  0  0  0  0  0  0  0  0  0
    1.8589    0.8095   -2.5172 H   0  0  0  0  0  0  0  0  0  0  0  0
    0.0884    0.8358   -2.4983 H   0  0  0  0  0  0  0  0  0  0  0  0
    0.7942    0.1449   -0.1245 H   0  0  0  0  0  0  0  0  0  0  0  0
    1.9486    1.7179   -0.2365 H   0  0  0  0  0  0  0  0  0  0  0  0
    0.9829    3.9062   -0.2963 H   0  0  0  0  0  0  0  0  0  0  0  0
   -0.8135    4.0146   -0.2185 H   0  0  0  0  0  0  0  0  0  0  0  0
    1.9486    3.2610   -2.3881 H   0  0  0  0  0  0  0  0  0  0  0  0
    0.8260    2.8495   -3.6989 H   0  0  0  0  0  0  0  0  0  0  0  0
    1.1594   -2.1067   -0.5862 C   0  0  0  0  0  0  0  0  0  0  0  0
    0.6027   -1.0569    0.3663 C   0  0  0  0  0  3  0  0  0  0  0  0
   -0.7284   -1.4500    0.9737 C   0  0  0  0  0  0  0  0  0  0  0  0
   -0.5602   -2.6046    1.7569 O   0  0  0  0  0  0  0  0  0  0  0  0
   -1.7557   -3.0644    2.3338 C   0  0  0  0  0  0  0  0  0  0  0  0
   -1.4630   -4.3027    3.1489 C   0  0  0  0  0  0  0  0  0  0  0  0
    0.4700   -2.2854   -1.4151 H   0  0  0  0  0  0  0  0  0  0  0  0
    2.1139   -1.7879   -1.0075 H   0  0  0  0  0  0  0  0  0  0  0  0
    1.3142   -3.0537   -0.0692 H   0  0  0  0  0  0  0  0  0  0  0  0
    1.3126   -0.8711    1.1765 H   0  0  0  0  0  0  0  0  0  0  0  0
   -1.4653   -1.6412    0.1776 H   0  0  0  0  0  0  0  0  0  0  0  0
   -1.1217   -0.6306    1.5931 H   0  0  0  0  0  0  0  0  0  0  0  0
   -2.4903   -3.2874    1.5460 H   0  0  0  0  0  0  0  0  0  0  0  0
   -2.1915   -2.2796    2.9698 H   0  0  0  0  0  0  0  0  0  0  0  0
   -0.7451   -4.0793    3.9389 H   0  0  0  0  0  0  0  0  0  0  0  0
   -2.3788   -4.6783    3.6081 H   0  0  0  0  0  0  0  0  0  0  0  0
   -1.0454   -5.0868    2.5162 H   0  0  0  0  0  0  0  0  0  0  0  0
  1  2  1  0
  1  6  1  0
  1  7  1  0
  1  8  1  0
  2  3  1  0
  2  9  1  0
  2 10  1  0
  3  4  1  0
  4  5  1  0
  4 11  1  0
  4 12  1  0
  5  6  1  0
  6 13  1  0
  6 14  1  0
 15 16  1  0
 15 21  1  0
 15 22  1  0
 15 23  1  0
 16 17  1  0
 16 24  1  0
 17 18  1  0
 17 25  1  0
 17 26  1  0
 18 19  1  0
 19 20  1  0
 19 27  1  0
 19 28  1  0
 20 29  1  0
 20 30  1  0
 20 31  1  0
M  RAD  1  16   2
M  END
>  <reaction>  (18) 
rmg_rxn_268

>  <mol_properties>  (18) 
{"1": {"label": "*3", "atom_type": "Cs"}, "2": {"label": "*4", "atom_type": "O2s"}, "8": {"label": "*2", "atom_type": "H0"}, "15": {"label": "*1", "atom_type": "Cs"}, "16": {"label": "*0", "atom_type": "Cs"}}

>  <type>  (18) 
unop_14

>  <geom_source>  (18) 
gaussian_log

$$$$
