
     RDKit          3D

  7  6  0  0  0  0  0  0  0  0999 V2000
    1.6899   -0.1839   -0.0115 C   0  0  0  0  0  0  0  0  0  0  0  0
    0.5000   -0.0544   -0.0034 C   0  0  0  0  0  0  0  0  0  0  0  0
   -0.9469    0.1030    0.0064 C   0  0  0  0  0  0  0  0  0  0  0  0
    2.7470   -0.2989   -0.0186 H   0  0  0  0  0  0  0  0  0  0  0  0
   -1.4140   -0.5835   -0.7010 H   0  0  0  0  0  0  0  0  0  0  0  0
   -1.2257    1.1206   -0.2707 H   0  0  0  0  0  0  0  0  0  0  0  0
   -1.3502   -0.1030    0.9988 H   0  0  0  0  0  0  0  0  0  0  0  0
  1  2  3  0
  1  4  1  0
  2  3  1  0
  3  5  1  0
  3  6  1  0
  3  7  1  0
M  END
>  <reaction>  (1) 
rmg_rxn_15436

>  <mol_properties>  (1) 
{"0": {"label": "donator", "atom_type": "Ct"}, "3": {"label": "d_hydrogen", "atom_type": "H0"}}

>  <type>  (1) 
r1h

$$$$

     RDKit          3D

  5  4  0  0  0  0  0  0  0  0999 V2000
    0.8934    0.3742    0.4948 O   0  0  0  0  0  0  0  0  0  0  0  0
    0.1582   -0.1610   -0.5904 N   0  0  0  0  0  0  0  0  0  0  0  0
   -1.0297   -0.3739   -0.4689 C   0  0  0  0  0  3  0  0  0  0  0  0
    1.7805    0.4382    0.1306 H   0  0  0  0  0  0  0  0  0  0  0  0
   -1.8023   -0.2775    0.2859 H   0  0  0  0  0  0  0  0  0  0  0  0
  1  2  1  0
  1  4  1  0
  2  3  2  3
  3  5  1  0
M  RAD  1   3   2
M  END
>  <reaction>  (2) 
rmg_rxn_15436

>  <mol_properties>  (2) 
{"2": {"label": "acceptor", "atom_type": "Cd"}}

>  <type>  (2) 
r2

$$$$

     RDKit          3D

  6  5  0  0  0  0  0  0  0  0999 V2000
    1.2314    0.0428    0.5088 O   0  0  0  0  0  0  0  0  0  0  0  0
    0.2987    0.2341   -0.4915 N   0  0  0  0  0  0  0  0  0  0  0  0
   -0.8599   -0.1122   -0.1290 C   0  0  0  0  0  0  0  0  0  0  0  0
    2.0507    0.3401    0.1082 H   0  0  0  0  0  0  0  0  0  0  0  0
   -1.0700   -0.5112    0.8610 H   0  0  0  0  0  0  0  0  0  0  0  0
   -1.6509    0.0064   -0.8574 H   0  0  0  0  0  0  0  0  0  0  0  0
  1  2  1  0
  1  4  1  0
  2  3  2  3
  3  5  1  0
  3  6  1  0
M  END
>  <reaction>  (3) 
rmg_rxn_15436

>  <mol_properties>  (3) 
{"2": {"label": "acceptor", "atom_type": "Cd"}, "5": {"label": "a_hydrogen", "atom_type": "H0"}}

>  <type>  (3) 
r2h

$$$$

     RDKit          3D

 12 10  0  0  0  0  0  0  0  0999 V2000
    3.4386    0.3141   -0.2025 O   0  0  0  0  0  0  0  0  0  0  0  0
    2.0812    0.4066   -0.4375 N   0  0  0  0  0  0  0  0  0  0  0  0
    1.3953   -0.1737    0.4352 C   0  0  0  0  0  0  0  0  0  0  0  0
    3.8225    0.7955   -0.9386 H   0  0  0  0  0  0  0  0  0  0  0  0
    1.7829   -0.7056    1.3016 H   0  0  0  0  0  0  0  0  0  0  0  0
   -1.3619   -0.0858    0.1162 C   0  0  0  0  0  3  0  0  0  0  0  0
   -2.5591   -0.0692    0.0118 C   0  0  0  0  0  0  0  0  0  0  0  0
   -4.0106   -0.0467   -0.1187 C   0  0  0  0  0  0  0  0  0  0  0  0
    0.2655   -0.1303    0.2928 H   0  0  0  0  0  0  0  0  0  0  0  0
   -4.4661    0.4334    0.7482 H   0  0  0  0  0  0  0  0  0  0  0  0
   -4.4044   -1.0608   -0.1965 H   0  0  0  0  0  0  0  0  0  0  0  0
   -4.3055    0.5057   -1.0117 H   0  0  0  0  0  0  0  0  0  0  0  0
  1  2  1  0
  1  4  1  0
  2  3  2  3
  3  5  1  0
  3  9  1  0
  6  7  3  0
  7  8  1  0
  8 10  1  0
  8 11  1  0
  8 12  1  0
M  RAD  1   6   2
M  END
>  <reaction>  (4) 
rmg_rxn_15436

>  <mol_properties>  (4) 
{"1": {"label": "*0", "atom_type": "N3d"}, "2": {"label": "*1", "atom_type": "Cd"}, "5": {"label": "*3", "atom_type": "Ct"}, "6": {"label": "*4", "atom_type": "Ct"}, "8": {"label": "*2", "atom_type": "H0"}}

>  <type>  (4) 
ts

$$$$

     RDKit          3D

 12 10  0  0  0  0  0  0  0  0999 V2000
    3.3861   -0.2703   -0.0004 O   0  0  0  0  0  0  0  0  0  0  0  0
    1.9847   -0.2786    0.0005 N   0  0  0  0  0  0  0  0  0  0  0  0
    1.2905    0.7312   -0.0001 C   0  0  0  0  0  3  0  0  0  0  0  0
    3.6365   -1.2053    0.0002 H   0  0  0  0  0  0  0  0  0  0  0  0
    1.4997    1.7909   -0.0013 H   0  0  0  0  0  0  0  0  0  0  0  0
   -1.2333    0.2111    0.0006 C   0  0  0  0  0  0  0  0  0  0  0  0
   -2.4123   -0.0016   -0.0001 C   0  0  0  0  0  0  0  0  0  0  0  0
   -3.8410   -0.2600   -0.0003 C   0  0  0  0  0  0  0  0  0  0  0  0
   -0.0181    0.4424    0.0006 H   0  0  0  0  0  0  0  0  0  0  0  0
   -4.0484   -1.1859    0.5351 H   0  0  0  0  0  0  0  0  0  0  0  0
   -4.1995   -0.3521   -1.0251 H   0  0  0  0  0  0  0  0  0  0  0  0
   -4.3652    0.5605    0.4890 H   0  0  0  0  0  0  0  0  0  0  0  0
  1  2  1  0
  1  4  1  0
  2  3  2  3
  3  5  1  0
  6  7  3  0
  6  9  1  0
  7  8  1  0
  8 10  1  0
  8 11  1  0
  8 12  1  0
M  RAD  1   3   2
M  END
>  <reaction>  (5) 
rmg_rxn_15436

>  <mol_properties>  (5) 
{"1": {"label": "*0", "atom_type": "N3d"}, "2": {"label": "*1", "atom_type": "Cd"}, "5": {"label": "*3", "atom_type": "Ct"}, "6": {"label": "*4", "atom_type": "Ct"}, "8": {"label": "*2", "atom_type": "H0"}}

>  <type>  (5) 
unop_1

>  <geom_source>  (5) 
crest_best.xyz

$$$$

     RDKit          3D

 12 10  0  0  0  0  0  0  0  0999 V2000
    0.6554    0.6892    3.1229 O   0  0  0  0  0  0  0  0  0  0  0  0
    0.7225   -0.0951    1.9883 N   0  0  0  0  0  0  0  0  0  0  0  0
   -0.4009   -0.2049    1.4232 C   0  0  0  0  0  3  0  0  0  0  0  0
    1.5583    0.6891    3.4466 H   0  0  0  0  0  0  0  0  0  0  0  0
   -1.2998    0.2730    1.8069 H   0  0  0  0  0  0  0  0  0  0  0  0
   -0.4009   -0.2049   -1.1509 C   0  0  0  0  0  0  0  0  0  0  0  0
   -0.4009   -0.2049   -2.3480 C   0  0  0  0  0  0  0  0  0  0  0  0
   -0.4009   -0.2049   -3.8034 C   0  0  0  0  0  0  0  0  0  0  0  0
   -0.4009   -0.2049    0.1250 H   0  0  0  0  0  0  0  0  0  0  0  0
   -0.4882    0.8119   -4.1887 H   0  0  0  0  0  0  0  0  0  0  0  0
   -1.2378   -0.7889   -4.1888 H   0  0  0  0  0  0  0  0  0  0  0  0
    0.5233   -0.6377   -4.1888 H   0  0  0  0  0  0  0  0  0  0  0  0
  1  2  1  0
  1  4  1  0
  2  3  2  3
  3  5  1  0
  6  7  3  0
  6  9  1  0
  7  8  1  0
  8 10  1  0
  8 11  1  0
  8 12  1  0
M  RAD  1   3   2
M  END
>  <reaction>  (6) 
rmg_rxn_15436

>  <mol_properties>  (6) 
{"1": {"label": "*0", "atom_type": "N3d"}, "2": {"label": "*1", "atom_type": "Cd"}, "5": {"label": "*3", "atom_type": "Ct"}, "6": {"label": "*4", "atom_type": "Ct"}, "8": {"label": "*2", "atom_type": "H0"}}

>  <type>  (6) 
unop_2

>  <geom_source>  (6) 
Heuristics

$$$$

     RDKit          3D

 12 10  0  0  0  0  0  0  0  0999 V2000
    3.3865   -0.2697    0.0009 O   0  0  0  0  0  0  0  0  0  0  0  0
    1.9851   -0.2787   -0.0010 N   0  0  0  0  0  0  0  0  0  0  0  0
    1.2903    0.7307    0.0002 C   0  0  0  0  0  3  0  0  0  0  0  0
    3.6374   -1.2045   -0.0006 H   0  0  0  0  0  0  0  0  0  0  0  0
    1.4988    1.7906    0.0028 H   0  0  0  0  0  0  0  0  0  0  0  0
   -1.2333    0.2100   -0.0012 C   0  0  0  0  0  0  0  0  0  0  0  0
   -2.4126   -0.0010   -0.0002 C   0  0  0  0  0  0  0  0  0  0  0  0
   -3.8413   -0.2596    0.0008 C   0  0  0  0  0  0  0  0  0  0  0  0
   -0.0182    0.4414   -0.0013 H   0  0  0  0  0  0  0  0  0  0  0  0
   -4.3853    0.6697    0.1675 H   0  0  0  0  0  0  0  0  0  0  0  0
   -4.0879   -0.9648    0.7940 H   0  0  0  0  0  0  0  0  0  0  0  0
   -4.1408   -0.6817   -0.9580 H   0  0  0  0  0  0  0  0  0  0  0  0
  1  2  1  0
  1  4  1  0
  2  3  2  3
  3  5  1  0
  6  7  3  0
  6  9  1  0
  7  8  1  0
  8 10  1  0
  8 11  1  0
  8 12  1  0
M  RAD  1   3   2
M  END
>  <reaction>  (7) 
rmg_rxn_15436

>  <mol_properties>  (7) 
{"1": {"label": "*0", "atom_type": "N3d"}, "2": {"label": "*1", "atom_type": "Cd"}, "5": {"label": "*3", "atom_type": "Ct"}, "6": {"label": "*4", "atom_type": "Ct"}, "8": {"label": "*2", "atom_type": "H0"}}

>  <type>  (7) 
unop_3

>  <geom_source>  (7) 
Heuristics

$$$$

     RDKit          3D

 12 10  0  0  0  0  0  0  0  0999 V2000
    3.3860   -0.2705    0.0000 O   0  0  0  0  0  0  0  0  0  0  0  0
    1.9846   -0.2786   -0.0000 N   0  0  0  0  0  0  0  0  0  0  0  0
    1.2905    0.7312   -0.0000 C   0  0  0  0  0  3  0  0  0  0  0  0
    3.6364   -1.2055    0.0000 H   0  0  0  0  0  0  0  0  0  0  0  0
    1.4999    1.7910   -0.0001 H   0  0  0  0  0  0  0  0  0  0  0  0
   -1.2333    0.2117   -0.0001 C   0  0  0  0  0  0  0  0  0  0  0  0
   -2.4122   -0.0014    0.0005 C   0  0  0  0  0  0  0  0  0  0  0  0
   -3.8409   -0.2603   -0.0002 C   0  0  0  0  0  0  0  0  0  0  0  0
   -0.0181    0.4429   -0.0000 H   0  0  0  0  0  0  0  0  0  0  0  0
   -4.0808   -1.0071    0.7560 H   0  0  0  0  0  0  0  0  0  0  0  0
   -4.1483   -0.6305   -0.9777 H   0  0  0  0  0  0  0  0  0  0  0  0
   -4.3835    0.6585    0.2206 H   0  0  0  0  0  0  0  0  0  0  0  0
  1  2  1  0
  1  4  1  0
  2  3  2  3
  3  5  1  0
  6  7  3  0
  6  9  1  0
  7  8  1  0
  8 10  1  0
  8 11  1  0
  8 12  1  0
M  RAD  1   3   2
M  END
>  <reaction>  (8) 
rmg_rxn_15436

>  <mol_properties>  (8) 
{"1": {"label": "*0", "atom_type": "N3d"}, "2": {"label": "*1", "atom_type": "Cd"}, "5": {"label": "*3", "atom_type": "Ct"}, "6": {"label": "*4", "atom_type": "Ct"}, "8": {"label": "*2", "atom_type": "H0"}}

>  <type>  (8) 
unop_4

>  <geom_source>  (8) 
Heuristics

$$$$

     RDKit          3D

 12 10  0  0  0  0  0  0  0  0999 V2000
    3.3866   -0.2696   -0.0001 O   0  0  0  0  0  0  0  0  0  0  0  0
    1.9851   -0.2787    0.0001 N   0  0  0  0  0  0  0  0  0  0  0  0
    1.2903    0.7306   -0.0001 C   0  0  0  0  0  3  0  0  0  0  0  0
    3.6376   -1.2043    0.0001 H   0  0  0  0  0  0  0  0  0  0  0  0
    1.4985    1.7905   -0.0003 H   0  0  0  0  0  0  0  0  0  0  0  0
   -1.2333    0.2098    0.0004 C   0  0  0  0  0  0  0  0  0  0  0  0
   -2.4126   -0.0013   -0.0002 C   0  0  0  0  0  0  0  0  0  0  0  0
   -3.8414   -0.2594   -0.0000 C   0  0  0  0  0  0  0  0  0  0  0  0
   -0.0182    0.4412    0.0002 H   0  0  0  0  0  0  0  0  0  0  0  0
   -4.0798   -1.0156   -0.7473 H   0  0  0  0  0  0  0  0  0  0  0  0
   -4.3828    0.6569   -0.2339 H   0  0  0  0  0  0  0  0  0  0  0  0
   -4.1517   -0.6169    0.9813 H   0  0  0  0  0  0  0  0  0  0  0  0
  1  2  1  0
  1  4  1  0
  2  3  2  3
  3  5  1  0
  6  7  3  0
  6  9  1  0
  7  8  1  0
  8 10  1  0
  8 11  1  0
  8 12  1  0
M  RAD  1   3   2
M  END
>  <reaction>  (9) 
rmg_rxn_15436

>  <mol_properties>  (9) 
{"1": {"label": "*0", "atom_type": "N3d"}, "2": {"label": "*1", "atom_type": "Cd"}, "5": {"label": "*3", "atom_type": "Ct"}, "6": {"label": "*4", "atom_type": "Ct"}, "8": {"label": "*2", "atom_type": "H0"}}

>  <type>  (9) 
unop_5

>  <geom_source>  (9) 
Heuristics

$$$$

     RDKit          3D

 12 10  0  0  0  0  0  0  0  0999 V2000
    0.5409   -0.6275    3.2071 O   0  0  0  0  0  0  0  0  0  0  0  0
   -0.0558   -0.7299    1.9660 N   0  0  0  0  0  0  0  0  0  0  0  0
   -0.1656    0.3935    1.4009 C   0  0  0  0  0  3  0  0  0  0  0  0
    0.5618   -1.5343    3.5189 H   0  0  0  0  0  0  0  0  0  0  0  0
    0.1781    1.3176    1.8608 H   0  0  0  0  0  0  0  0  0  0  0  0
   -0.1656    0.3935   -1.1733 C   0  0  0  0  0  0  0  0  0  0  0  0
   -0.1656    0.3935   -2.3703 C   0  0  0  0  0  0  0  0  0  0  0  0
   -0.1656    0.3935   -3.8257 C   0  0  0  0  0  0  0  0  0  0  0  0
   -0.1656    0.3935    0.1027 H   0  0  0  0  0  0  0  0  0  0  0  0
   -0.2529    1.4103   -4.2111 H   0  0  0  0  0  0  0  0  0  0  0  0
   -1.0025   -0.1905   -4.2111 H   0  0  0  0  0  0  0  0  0  0  0  0
    0.7586   -0.0392   -4.2111 H   0  0  0  0  0  0  0  0  0  0  0  0
  1  2  1  0
  1  4  1  0
  2  3  2  3
  3  5  1  0
  6  7  3  0
  6  9  1  0
  7  8  1  0
  8 10  1  0
  8 11  1  0
  8 12  1  0
M  RAD  1   3   2
M  END
>  <reaction>  (10) 
rmg_rxn_15436

>  <mol_properties>  (10) 
{"1": {"label": "*0", "atom_type": "N3d"}, "2": {"label": "*1", "atom_type": "Cd"}, "5": {"label": "*3", "atom_type": "Ct"}, "6": {"label": "*4", "atom_type": "Ct"}, "8": {"label": "*2", "atom_type": "H0"}}

>  <type>  (10) 
unop_6

>  <geom_source>  (10) 
Heuristics

$$$$

     RDKit          3D

 12 10  0  0  0  0  0  0  0  0999 V2000
    3.3861   -0.2706   -0.0002 O   0  0  0  0  0  0  0  0  0  0  0  0
    1.9846   -0.2785    0.0002 N   0  0  0  0  0  0  0  0  0  0  0  0
    1.2905    0.7312   -0.0000 C   0  0  0  0  0  3  0  0  0  0  0  0
    3.6363   -1.2055    0.0001 H   0  0  0  0  0  0  0  0  0  0  0  0
    1.4995    1.7910   -0.0005 H   0  0  0  0  0  0  0  0  0  0  0  0
   -1.2333    0.2115    0.0003 C   0  0  0  0  0  0  0  0  0  0  0  0
   -2.4123   -0.0012   -0.0000 C   0  0  0  0  0  0  0  0  0  0  0  0
   -3.8409   -0.2604   -0.0001 C   0  0  0  0  0  0  0  0  0  0  0  0
   -0.0182    0.4427    0.0004 H   0  0  0  0  0  0  0  0  0  0  0  0
   -4.1616   -0.5611    0.9968 H   0  0  0  0  0  0  0  0  0  0  0  0
   -4.0708   -1.0587   -0.7051 H   0  0  0  0  0  0  0  0  0  0  0  0
   -4.3802    0.6402   -0.2923 H   0  0  0  0  0  0  0  0  0  0  0  0
  1  2  1  0
  1  4  1  0
  2  3  2  3
  3  5  1  0
  6  7  3  0
  6  9  1  0
  7  8  1  0
  8 10  1  0
  8 11  1  0
  8 12  1  0
M  RAD  1   3   2
M  END
>  <reaction>  (11) 
rmg_rxn_15436

>  <mol_properties>  (11) 
{"1": {"label": "*0", "atom_type": "N3d"}, "2": {"label": "*1", "atom_type": "Cd"}, "5": {"label": "*3", "atom_type": "Ct"}, "6": {"label": "*4", "atom_type": "Ct"}, "8": {"label": "*2", "atom_type": "H0"}}

>  <type>  (11) 
unop_7

>  <geom_source>  (11) 
Heuristics

$$$$

     RDKit          3D

 12 10  0  0  0  0  0  0  0  0999 V2000
    0.3857    0.5521    3.2915 O   0  0  0  0  0  0  0  0  0  0  0  0
    0.6302    0.3776    1.9436 N   0  0  0  0  0  0  0  0  0  0  0  0
   -0.2879   -0.2792    1.3785 C   0  0  0  0  0  3  0  0  0  0  0  0
    1.1447    1.0561    3.5914 H   0  0  0  0  0  0  0  0  0  0  0  0
   -1.1580   -0.6518    1.9148 H   0  0  0  0  0  0  0  0  0  0  0  0
   -0.2879   -0.2792   -1.1956 C   0  0  0  0  0  0  0  0  0  0  0  0
   -0.2879   -0.2792   -2.3927 C   0  0  0  0  0  0  0  0  0  0  0  0
   -0.2879   -0.2792   -3.8481 C   0  0  0  0  0  0  0  0  0  0  0  0
   -0.2879   -0.2792    0.0803 H   0  0  0  0  0  0  0  0  0  0  0  0
   -0.3752    0.7376   -4.2334 H   0  0  0  0  0  0  0  0  0  0  0  0
   -1.1248   -0.8632   -4.2334 H   0  0  0  0  0  0  0  0  0  0  0  0
    0.6363   -0.7119   -4.2334 H   0  0  0  0  0  0  0  0  0  0  0  0
  1  2  1  0
  1  4  1  0
  2  3  2  3
  3  5  1  0
  6  7  3  0
  6  9  1  0
  7  8  1  0
  8 10  1  0
  8 11  1  0
  8 12  1  0
M  RAD  1   3   2
M  END
>  <reaction>  (12) 
rmg_rxn_15436

>  <mol_properties>  (12) 
{"1": {"label": "*0", "atom_type": "N3d"}, "2": {"label": "*1", "atom_type": "Cd"}, "5": {"label": "*3", "atom_type": "Ct"}, "6": {"label": "*4", "atom_type": "Ct"}, "8": {"label": "*2", "atom_type": "H0"}}

>  <type>  (12) 
unop_8

>  <geom_source>  (12) 
Heuristics

$$$$

     RDKit          3D

 12 10  0  0  0  0  0  0  0  0999 V2000
   -0.6943    0.3272    3.2430 O   0  0  0  0  0  0  0  0  0  0  0  0
   -0.7122   -0.1743    1.9564 N   0  0  0  0  0  0  0  0  0  0  0  0
    0.4112   -0.0645    1.3914 C   0  0  0  0  0  3  0  0  0  0  0  0
   -1.5917    0.1837    3.5497 H   0  0  0  0  0  0  0  0  0  0  0  0
    1.2749    0.3774    1.8838 H   0  0  0  0  0  0  0  0  0  0  0  0
    0.4112   -0.0645   -1.1828 C   0  0  0  0  0  0  0  0  0  0  0  0
    0.4112   -0.0645   -2.3798 C   0  0  0  0  0  0  0  0  0  0  0  0
    0.4112   -0.0645   -3.8352 C   0  0  0  0  0  0  0  0  0  0  0  0
    0.4112   -0.0645    0.0932 H   0  0  0  0  0  0  0  0  0  0  0  0
    0.3239    0.9523   -4.2206 H   0  0  0  0  0  0  0  0  0  0  0  0
   -0.4257   -0.6485   -4.2206 H   0  0  0  0  0  0  0  0  0  0  0  0
    1.3355   -0.4973   -4.2206 H   0  0  0  0  0  0  0  0  0  0  0  0
  1  2  1  0
  1  4  1  0
  2  3  2  3
  3  5  1  0
  6  7  3  0
  6  9  1  0
  7  8  1  0
  8 10  1  0
  8 11  1  0
  8 12  1  0
M  RAD  1   3   2
M  END
>  <reaction>  (13) 
rmg_rxn_15436

>  <mol_properties>  (13) 
{"1": {"label": "*0", "atom_type": "N3d"}, "2": {"label": "*1", "atom_type": "Cd"}, "5": {"label": "*3", "atom_type": "Ct"}, "6": {"label": "*4", "atom_type": "Ct"}, "8": {"label": "*2", "atom_type": "H0"}}

>  <type>  (13) 
unop_9

>  <geom_source>  (13) 
Heuristics

$$$$

     RDKit          3D

 12 10  0  0  0  0  0  0  0  0999 V2000
    1.7369    1.2070   -0.0001 O   0  0  0  0  0  0  0  0  0  0  0  0
    2.3259   -0.0062    0.0002 N   0  0  0  0  0  0  0  0  0  0  0  0
    1.6963   -1.0715    0.0000 C   0  0  0  0  0  3  0  0  0  0  0  0
    0.7585    1.1304   -0.0005 H   0  0  0  0  0  0  0  0  0  0  0  0
    2.2045   -2.0166    0.0004 H   0  0  0  0  0  0  0  0  0  0  0  0
   -0.8431   -0.6571   -0.0003 C   0  0  0  0  0  0  0  0  0  0  0  0
   -1.9422   -0.1754   -0.0000 C   0  0  0  0  0  0  0  0  0  0  0  0
   -3.2984    0.3426    0.0002 C   0  0  0  0  0  0  0  0  0  0  0  0
    0.3587   -1.0048   -0.0004 H   0  0  0  0  0  0  0  0  0  0  0  0
   -4.0109   -0.4809    0.0360 H   0  0  0  0  0  0  0  0  0  0  0  0
   -3.4719    0.9240   -0.9053 H   0  0  0  0  0  0  0  0  0  0  0  0
   -3.4494    0.9818    0.8700 H   0  0  0  0  0  0  0  0  0  0  0  0
  1  2  1  0
  1  4  1  0
  2  3  2  3
  3  5  1  0
  6  7  3  0
  6  9  1  0
  7  8  1  0
  8 10  1  0
  8 11  1  0
  8 12  1  0
M  RAD  1   3   2
M  END
>  <reaction>  (14) 
rmg_rxn_15436

>  <mol_properties>  (14) 
{"1": {"label": "*0", "atom_type": "N3d"}, "2": {"label": "*1", "atom_type": "Cd"}, "5": {"label": "*3", "atom_type": "Ct"}, "6": {"label": "*4", "atom_type": "Ct"}, "8": {"label": "*2", "atom_type": "H0"}}

>  <type>  (14) 
unop_10

>  <geom_source>  (14) 
Heuristics

$$$$

     RDKit          3D

 12 10  0  0  0  0  0  0  0  0999 V2000
    0.6706    0.4283    3.2268 O   0  0  0  0  0  0  0  0  0  0  0  0
    0.1945    0.7064    1.9607 N   0  0  0  0  0  0  0  0  0  0  0  0
   -0.2721   -0.3214    1.3957 C   0  0  0  0  0  3  0  0  0  0  0  0
    0.9894    1.2786    3.5359 H   0  0  0  0  0  0  0  0  0  0  0  0
   -0.2850   -1.2987    1.8734 H   0  0  0  0  0  0  0  0  0  0  0  0
   -0.2721   -0.3214   -1.1785 C   0  0  0  0  0  0  0  0  0  0  0  0
   -0.2721   -0.3214   -2.3755 C   0  0  0  0  0  0  0  0  0  0  0  0
   -0.2721   -0.3214   -3.8309 C   0  0  0  0  0  0  0  0  0  0  0  0
   -0.2721   -0.3214    0.0975 H   0  0  0  0  0  0  0  0  0  0  0  0
   -0.3595    0.6954   -4.2163 H   0  0  0  0  0  0  0  0  0  0  0  0
   -1.1091   -0.9054   -4.2163 H   0  0  0  0  0  0  0  0  0  0  0  0
    0.6521   -0.7542   -4.2163 H   0  0  0  0  0  0  0  0  0  0  0  0
  1  2  1  0
  1  4  1  0
  2  3  2  3
  3  5  1  0
  6  7  3  0
  6  9  1  0
  7  8  1  0
  8 10  1  0
  8 11  1  0
  8 12  1  0
M  RAD  1   3   2
M  END
>  <reaction>  (15) 
rmg_rxn_15436

>  <mol_properties>  (15) 
{"1": {"label": "*0", "atom_type": "N3d"}, "2": {"label": "*1", "atom_type": "Cd"}, "5": {"label": "*3", "atom_type": "Ct"}, "6": {"label": "*4", "atom_type": "Ct"}, "8": {"label": "*2", "atom_type": "H0"}}

>  <type>  (15) 
unop_11

>  <geom_source>  (15) 
Heuristics

$$$$

     RDKit          3D

 12 10  0  0  0  0  0  0  0  0999 V2000
    3.3870   -0.2687    0.0003 O   0  0  0  0  0  0  0  0  0  0  0  0
    1.9856   -0.2789   -0.0003 N   0  0  0  0  0  0  0  0  0  0  0  0
    1.2901    0.7299    0.0001 C   0  0  0  0  0  3  0  0  0  0  0  0
    3.6388   -1.2032   -0.0002 H   0  0  0  0  0  0  0  0  0  0  0  0
    1.4978    1.7900    0.0010 H   0  0  0  0  0  0  0  0  0  0  0  0
   -1.2334    0.2085   -0.0005 C   0  0  0  0  0  0  0  0  0  0  0  0
   -2.4129   -0.0013   -0.0001 C   0  0  0  0  0  0  0  0  0  0  0  0
   -3.8419   -0.2586    0.0003 C   0  0  0  0  0  0  0  0  0  0  0  0
   -0.0182    0.4399   -0.0004 H   0  0  0  0  0  0  0  0  0  0  0  0
   -4.1345   -0.7145    0.9456 H   0  0  0  0  0  0  0  0  0  0  0  0
   -4.0952   -0.9347   -0.8157 H   0  0  0  0  0  0  0  0  0  0  0  0
   -4.3861    0.6766   -0.1288 H   0  0  0  0  0  0  0  0  0  0  0  0
  1  2  1  0
  1  4  1  0
  2  3  2  3
  3  5  1  0
  6  7  3  0
  6  9  1  0
  7  8  1  0
  8 10  1  0
  8 11  1  0
  8 12  1  0
M  RAD  1   3   2
M  END
>  <reaction>  (16) 
rmg_rxn_15436

>  <mol_properties>  (16) 
{"1": {"label": "*0", "atom_type": "N3d"}, "2": {"label": "*1", "atom_type": "Cd"}, "5": {"label": "*3", "atom_type": "Ct"}, "6": {"label": "*4", "atom_type": "Ct"}, "8": {"label": "*2", "atom_type": "H0"}}

>  <type>  (16) 
unop_12

>  <geom_source>  (16) 
Heuristics

$$$$

     RDKit          3D

 12 10  0  0  0  0  0  0  0  0999 V2000
   -0.4017    0.8262    3.1469 O   0  0  0  0  0  0  0  0  0  0  0  0
   -0.7135    0.1533    1.9819 N   0  0  0  0  0  0  0  0  0  0  0  0
    0.3143   -0.3134    1.4169 C   0  0  0  0  0  3  0  0  0  0  0  0
   -1.2557    1.1230    3.4672 H   0  0  0  0  0  0  0  0  0  0  0  0
    1.3158   -0.1854    1.8222 H   0  0  0  0  0  0  0  0  0  0  0  0
    0.3143   -0.3134   -1.1573 C   0  0  0  0  0  0  0  0  0  0  0  0
    0.3143   -0.3134   -2.3543 C   0  0  0  0  0  0  0  0  0  0  0  0
    0.3143   -0.3134   -3.8097 C   0  0  0  0  0  0  0  0  0  0  0  0
    0.3143   -0.3134    0.1187 H   0  0  0  0  0  0  0  0  0  0  0  0
    0.2270    0.7034   -4.1951 H   0  0  0  0  0  0  0  0  0  0  0  0
   -0.5226   -0.8974   -4.1951 H   0  0  0  0  0  0  0  0  0  0  0  0
    1.2386   -0.7461   -4.1951 H   0  0  0  0  0  0  0  0  0  0  0  0
  1  2  1  0
  1  4  1  0
  2  3  2  3
  3  5  1  0
  6  7  3  0
  6  9  1  0
  7  8  1  0
  8 10  1  0
  8 11  1  0
  8 12  1  0
M  RAD  1   3   2
M  END
>  <reaction>  (17) 
rmg_rxn_15436

>  <mol_properties>  (17) 
{"1": {"label": "*0", "atom_type": "N3d"}, "2": {"label": "*1", "atom_type": "Cd"}, "5": {"label": "*3", "atom_type": "Ct"}, "6": {"label": "*4", "atom_type": "Ct"}, "8": {"label": "*2", "atom_type": "H0"}}

>  <type>  (17) 
unop_13

>  <geom_source>  (17) 
Heuristics

$$$$

     RDKit          3D

 12 10  0  0  0  0  0  0  0  0999 V2000
    3.3864   -0.2702   -0.0001 O   0  0  0  0  0  0  0  0  0  0  0  0
    1.9849   -0.2785    0.0001 N   0  0  0  0  0  0  0  0  0  0  0  0
    1.2904    0.7310   -0.0000 C   0  0  0  0  0  3  0  0  0  0  0  0
    3.6368   -1.2051    0.0002 H   0  0  0  0  0  0  0  0  0  0  0  0
    1.4988    1.7909   -0.0003 H   0  0  0  0  0  0  0  0  0  0  0  0
   -1.2333    0.2108    0.0000 C   0  0  0  0  0  0  0  0  0  0  0  0
   -2.4124   -0.0014    0.0003 C   0  0  0  0  0  0  0  0  0  0  0  0
   -3.8411   -0.2599   -0.0002 C   0  0  0  0  0  0  0  0  0  0  0  0
   -0.0182    0.4420    0.0000 H   0  0  0  0  0  0  0  0  0  0  0  0
   -4.3876    0.6827   -0.0182 H   0  0  0  0  0  0  0  0  0  0  0  0
   -4.1159   -0.8148    0.8963 H   0  0  0  0  0  0  0  0  0  0  0  0
   -4.1099   -0.8453   -0.8789 H   0  0  0  0  0  0  0  0  0  0  0  0
  1  2  1  0
  1  4  1  0
  2  3  2  3
  3  5  1  0
  6  7  3  0
  6  9  1  0
  7  8  1  0
  8 10  1  0
  8 11  1  0
  8 12  1  0
M  RAD  1   3   2
M  END
>  <reaction>  (18) 
rmg_rxn_15436

>  <mol_properties>  (18) 
{"1": {"label": "*0", "atom_type": "N3d"}, "2": {"label": "*1", "atom_type": "Cd"}, "5": {"label": "*3", "atom_type": "Ct"}, "6": {"label": "*4", "atom_type": "Ct"}, "8": {"label": "*2", "atom_type": "H0"}}

>  <type>  (18) 
unop_14

>  <geom_source>  (18) 
Heuristics

$$$$

     RDKit          3D

 12 10  0  0  0  0  0  0  0  0999 V2000
    0.1220    0.9985    3.0793 O   0  0  0  0  0  0  0  0  0  0  0  0
   -0.5563    0.4677    1.9998 N   0  0  0  0  0  0  0  0  0  0  0  0
    0.1005   -0.4504    1.4348 C   0  0  0  0  0  3  0  0  0  0  0  0
   -0.4773    1.6710    3.4092 H   0  0  0  0  0  0  0  0  0  0  0  0
    1.0831   -0.7659    1.7790 H   0  0  0  0  0  0  0  0  0  0  0  0
    0.1005   -0.4504   -1.1394 C   0  0  0  0  0  0  0  0  0  0  0  0
    0.1005   -0.4504   -2.3364 C   0  0  0  0  0  0  0  0  0  0  0  0
    0.1005   -0.4504   -3.7918 C   0  0  0  0  0  0  0  0  0  0  0  0
    0.1005   -0.4504    0.1366 H   0  0  0  0  0  0  0  0  0  0  0  0
    0.0132    0.5664   -4.1772 H   0  0  0  0  0  0  0  0  0  0  0  0
   -0.7364   -1.0344   -4.1772 H   0  0  0  0  0  0  0  0  0  0  0  0
    1.0247   -0.8831   -4.1772 H   0  0  0  0  0  0  0  0  0  0  0  0
  1  2  1  0
  1  4  1  0
  2  3  2  3
  3  5  1  0
  6  7  3  0
  6  9  1  0
  7  8  1  0
  8 10  1  0
  8 11  1  0
  8 12  1  0
M  RAD  1   3   2
M  END
>  <reaction>  (19) 
rmg_rxn_15436

>  <mol_properties>  (19) 
{"1": {"label": "*0", "atom_type": "N3d"}, "2": {"label": "*1", "atom_type": "Cd"}, "5": {"label": "*3", "atom_type": "Ct"}, "6": {"label": "*4", "atom_type": "Ct"}, "8": {"label": "*2", "atom_type": "H0"}}

>  <type>  (19) 
unop_15

>  <geom_source>  (19) 
Heuristics

$$$$

     RDKit          3D

 12 10  0  0  0  0  0  0  0  0999 V2000
    3.3869    0.2690    0.0009 O   0  0  0  0  0  0  0  0  0  0  0  0
    1.9854    0.2789   -0.0010 N   0  0  0  0  0  0  0  0  0  0  0  0
    1.2902   -0.7301    0.0002 C   0  0  0  0  0  3  0  0  0  0  0  0
    3.6385    1.2036   -0.0005 H   0  0  0  0  0  0  0  0  0  0  0  0
    1.4982   -1.7901    0.0028 H   0  0  0  0  0  0  0  0  0  0  0  0
   -1.2334   -0.2094   -0.0012 C   0  0  0  0  0  0  0  0  0  0  0  0
   -2.4128    0.0014   -0.0001 C   0  0  0  0  0  0  0  0  0  0  0  0
   -3.8417    0.2590    0.0008 C   0  0  0  0  0  0  0  0  0  0  0  0
   -0.0182   -0.4405   -0.0014 H   0  0  0  0  0  0  0  0  0  0  0  0
   -4.1030    0.8922   -0.8465 H   0  0  0  0  0  0  0  0  0  0  0  0
   -4.1250    0.7632    0.9242 H   0  0  0  0  0  0  0  0  0  0  0  0
   -4.3871   -0.6813   -0.0745 H   0  0  0  0  0  0  0  0  0  0  0  0
  1  2  1  0
  1  4  1  0
  2  3  2  3
  3  5  1  0
  6  7  3  0
  6  9  1  0
  7  8  1  0
  8 10  1  0
  8 11  1  0
  8 12  1  0
M  RAD  1   3   2
M  END
>  <reaction>  (20) 
rmg_rxn_15436

>  <mol_properties>  (20) 
{"1": {"label": "*0", "atom_type": "N3d"}, "2": {"label": "*1", "atom_type": "Cd"}, "5": {"label": "*3", "atom_type": "Ct"}, "6": {"label": "*4", "atom_type": "Ct"}, "8": {"label": "*2", "atom_type": "H0"}}

>  <type>  (20) 
unop_16

>  <geom_source>  (20) 
Heuristics

$$$$

     RDKit          3D

 12 10  0  0  0  0  0  0  0  0999 V2000
    0.9642    0.3207    3.0707 O   0  0  0  0  0  0  0  0  0  0  0  0
    0.5644   -0.4573    2.0021 N   0  0  0  0  0  0  0  0  0  0  0  0
   -0.4635    0.0094    1.4370 C   0  0  0  0  0  3  0  0  0  0  0  0
    1.7388   -0.1381    3.4018 H   0  0  0  0  0  0  0  0  0  0  0  0
   -0.9558    0.9193    1.7735 H   0  0  0  0  0  0  0  0  0  0  0  0
   -0.4635    0.0094   -1.1371 C   0  0  0  0  0  0  0  0  0  0  0  0
   -0.4635    0.0094   -2.3341 C   0  0  0  0  0  0  0  0  0  0  0  0
   -0.4635    0.0094   -3.7895 C   0  0  0  0  0  0  0  0  0  0  0  0
   -0.4635    0.0094    0.1388 H   0  0  0  0  0  0  0  0  0  0  0  0
   -0.5508    1.0262   -4.1749 H   0  0  0  0  0  0  0  0  0  0  0  0
   -1.3004   -0.5746   -4.1749 H   0  0  0  0  0  0  0  0  0  0  0  0
    0.4608   -0.4234   -4.1749 H   0  0  0  0  0  0  0  0  0  0  0  0
  1  2  1  0
  1  4  1  0
  2  3  2  3
  3  5  1  0
  6  7  3  0
  6  9  1  0
  7  8  1  0
  8 10  1  0
  8 11  1  0
  8 12  1  0
M  RAD  1   3   2
M  END
>  <reaction>  (21) 
rmg_rxn_15436

>  <mol_properties>  (21) 
{"1": {"label": "*0", "atom_type": "N3d"}, "2": {"label": "*1", "atom_type": "Cd"}, "5": {"label": "*3", "atom_type": "Ct"}, "6": {"label": "*4", "atom_type": "Ct"}, "8": {"label": "*2", "atom_type": "H0"}}

>  <type>  (21) 
unop_17

>  <geom_source>  (21) 
Heuristics

$$$$

     RDKit          3D

 12 10  0  0  0  0  0  0  0  0999 V2000
    3.3861   -0.2703   -0.0004 O   0  0  0  0  0  0  0  0  0  0  0  0
    1.9847   -0.2786    0.0005 N   0  0  0  0  0  0  0  0  0  0  0  0
    1.2905    0.7312   -0.0001 C   0  0  0  0  0  3  0  0  0  0  0  0
    3.6365   -1.2053    0.0002 H   0  0  0  0  0  0  0  0  0  0  0  0
    1.4997    1.7909   -0.0013 H   0  0  0  0  0  0  0  0  0  0  0  0
   -1.2333    0.2111    0.0006 C   0  0  0  0  0  0  0  0  0  0  0  0
   -2.4123   -0.0016   -0.0001 C   0  0  0  0  0  0  0  0  0  0  0  0
   -3.8410   -0.2600   -0.0003 C   0  0  0  0  0  0  0  0  0  0  0  0
   -0.0181    0.4424    0.0006 H   0  0  0  0  0  0  0  0  0  0  0  0
   -4.0484   -1.1859    0.5351 H   0  0  0  0  0  0  0  0  0  0  0  0
   -4.1995   -0.3521   -1.0251 H   0  0  0  0  0  0  0  0  0  0  0  0
   -4.3652    0.5605    0.4890 H   0  0  0  0  0  0  0  0  0  0  0  0
  1  2  1  0
  1  4  1  0
  2  3  2  3
  3  5  1  0
  6  7  3  0
  6  9  1  0
  7  8  1  0
  8 10  1  0
  8 11  1  0
  8 12  1  0
M  RAD  1   3   2
M  END
>  <reaction>  (22) 
rmg_rxn_15436

>  <mol_properties>  (22) 
{"1": {"label": "*0", "atom_type": "N3d"}, "2": {"label": "*1", "atom_type": "Cd"}, "5": {"label": "*3", "atom_type": "Ct"}, "6": {"label": "*4", "atom_type": "Ct"}, "8": {"label": "*2", "atom_type": "H0"}}

>  <type>  (22) 
unop_18

>  <geom_source>  (22) 
Heuristics

$$$$

     RDKit          3D

 12 10  0  0  0  0  0  0  0  0999 V2000
   -0.5689   -0.2806    3.3094 O   0  0  0  0  0  0  0  0  0  0  0  0
   -0.5816   -0.4496    1.9389 N   0  0  0  0  0  0  0  0  0  0  0  0
    0.3365    0.2072    1.3738 C   0  0  0  0  0  3  0  0  0  0  0  0
   -1.3020   -0.8229    3.6067 H   0  0  0  0  0  0  0  0  0  0  0  0
    1.0408    0.8255    1.9262 H   0  0  0  0  0  0  0  0  0  0  0  0
    0.3365    0.2072   -1.2004 C   0  0  0  0  0  0  0  0  0  0  0  0
    0.3365    0.2072   -2.3974 C   0  0  0  0  0  0  0  0  0  0  0  0
    0.3365    0.2072   -3.8528 C   0  0  0  0  0  0  0  0  0  0  0  0
    0.3365    0.2072    0.0756 H   0  0  0  0  0  0  0  0  0  0  0  0
    0.2492    1.2240   -4.2382 H   0  0  0  0  0  0  0  0  0  0  0  0
   -0.5005   -0.3768   -4.2382 H   0  0  0  0  0  0  0  0  0  0  0  0
    1.2607   -0.2256   -4.2382 H   0  0  0  0  0  0  0  0  0  0  0  0
  1  2  1  0
  1  4  1  0
  2  3  2  3
  3  5  1  0
  6  7  3  0
  6  9  1  0
  7  8  1  0
  8 10  1  0
  8 11  1  0
  8 12  1  0
M  RAD  1   3   2
M  END
>  <reaction>  (23) 
rmg_rxn_15436

>  <mol_properties>  (23) 
{"1": {"label": "*0", "atom_type": "N3d"}, "2": {"label": "*1", "atom_type": "Cd"}, "5": {"label": "*3", "atom_type": "Ct"}, "6": {"label": "*4", "atom_type": "Ct"}, "8": {"label": "*2", "atom_type": "H0"}}

>  <type>  (23) 
unop_19

>  <geom_source>  (23) 
Heuristics

$$$$

     RDKit          3D

 12 10  0  0  0  0  0  0  0  0999 V2000
    0.9347   -0.2200    3.1159 O   0  0  0  0  0  0  0  0  0  0  0  0
    0.2762   -0.6741    1.9901 N   0  0  0  0  0  0  0  0  0  0  0  0
   -0.3806    0.2440    1.4251 C   0  0  0  0  0  3  0  0  0  0  0  0
    1.3847   -1.0024    3.4406 H   0  0  0  0  0  0  0  0  0  0  0  0
   -0.4070    1.2640    1.8024 H   0  0  0  0  0  0  0  0  0  0  0  0
   -0.3806    0.2440   -1.1491 C   0  0  0  0  0  0  0  0  0  0  0  0
   -0.3806    0.2440   -2.3461 C   0  0  0  0  0  0  0  0  0  0  0  0
   -0.3806    0.2440   -3.8015 C   0  0  0  0  0  0  0  0  0  0  0  0
   -0.3806    0.2440    0.1269 H   0  0  0  0  0  0  0  0  0  0  0  0
   -0.4679    1.2608   -4.1869 H   0  0  0  0  0  0  0  0  0  0  0  0
   -1.2175   -0.3400   -4.1869 H   0  0  0  0  0  0  0  0  0  0  0  0
    0.5436   -0.1888   -4.1869 H   0  0  0  0  0  0  0  0  0  0  0  0
  1  2  1  0
  1  4  1  0
  2  3  2  3
  3  5  1  0
  6  7  3  0
  6  9  1  0
  7  8  1  0
  8 10  1  0
  8 11  1  0
  8 12  1  0
M  RAD  1   3   2
M  END
>  <reaction>  (24) 
rmg_rxn_15436

>  <mol_properties>  (24) 
{"1": {"label": "*0", "atom_type": "N3d"}, "2": {"label": "*1", "atom_type": "Cd"}, "5": {"label": "*3", "atom_type": "Ct"}, "6": {"label": "*4", "atom_type": "Ct"}, "8": {"label": "*2", "atom_type": "H0"}}

>  <type>  (24) 
unop_20

>  <geom_source>  (24) 
Heuristics

$$$$

     RDKit          3D

 12 10  0  0  0  0  0  0  0  0999 V2000
    0.5945    0.7984    3.0879 O   0  0  0  0  0  0  0  0  0  0  0  0
   -0.2452    0.6846    1.9975 N   0  0  0  0  0  0  0  0  0  0  0  0
   -0.1354   -0.4388    1.4325 C   0  0  0  0  0  3  0  0  0  0  0  0
    0.4133    1.6811    3.4166 H   0  0  0  0  0  0  0  0  0  0  0  0
    0.5484   -1.2083    1.7845 H   0  0  0  0  0  0  0  0  0  0  0  0
   -0.1354   -0.4388   -1.1417 C   0  0  0  0  0  0  0  0  0  0  0  0
   -0.1354   -0.4388   -2.3387 C   0  0  0  0  0  0  0  0  0  0  0  0
   -0.1354   -0.4388   -3.7941 C   0  0  0  0  0  0  0  0  0  0  0  0
   -0.1354   -0.4388    0.1343 H   0  0  0  0  0  0  0  0  0  0  0  0
   -0.2227    0.5780   -4.1795 H   0  0  0  0  0  0  0  0  0  0  0  0
   -0.9723   -1.0228   -4.1795 H   0  0  0  0  0  0  0  0  0  0  0  0
    0.7888   -0.8716   -4.1795 H   0  0  0  0  0  0  0  0  0  0  0  0
  1  2  1  0
  1  4  1  0
  2  3  2  3
  3  5  1  0
  6  7  3  0
  6  9  1  0
  7  8  1  0
  8 10  1  0
  8 11  1  0
  8 12  1  0
M  RAD  1   3   2
M  END
>  <reaction>  (25) 
rmg_rxn_15436

>  <mol_properties>  (25) 
{"1": {"label": "*0", "atom_type": "N3d"}, "2": {"label": "*1", "atom_type": "Cd"}, "5": {"label": "*3", "atom_type": "Ct"}, "6": {"label": "*4", "atom_type": "Ct"}, "8": {"label": "*2", "atom_type": "H0"}}

>  <type>  (25) 
unop_21

>  <geom_source>  (25) 
Heuristics

$$$$

     RDKit          3D

 12 10  0  0  0  0  0  0  0  0999 V2000
   -0.0621   -0.6686    3.2924 O   0  0  0  0  0  0  0  0  0  0  0  0
   -0.3558   -0.6427    1.9433 N   0  0  0  0  0  0  0  0  0  0  0  0
    0.1108    0.3851    1.3783 C   0  0  0  0  0  3  0  0  0  0  0  0
   -0.4668   -1.4849    3.5922 H   0  0  0  0  0  0  0  0  0  0  0  0
    0.6744    1.1450    1.9154 H   0  0  0  0  0  0  0  0  0  0  0  0
    0.1108    0.3851   -1.1959 C   0  0  0  0  0  0  0  0  0  0  0  0
    0.1108    0.3851   -2.3929 C   0  0  0  0  0  0  0  0  0  0  0  0
    0.1108    0.3851   -3.8483 C   0  0  0  0  0  0  0  0  0  0  0  0
    0.1108    0.3851    0.0801 H   0  0  0  0  0  0  0  0  0  0  0  0
    0.0235    1.4019   -4.2337 H   0  0  0  0  0  0  0  0  0  0  0  0
   -0.7261   -0.1989   -4.2337 H   0  0  0  0  0  0  0  0  0  0  0  0
    1.0351   -0.0477   -4.2337 H   0  0  0  0  0  0  0  0  0  0  0  0
  1  2  1  0
  1  4  1  0
  2  3  2  3
  3  5  1  0
  6  7  3  0
  6  9  1  0
  7  8  1  0
  8 10  1  0
  8 11  1  0
  8 12  1  0
M  RAD  1   3   2
M  END
>  <reaction>  (26) 
rmg_rxn_15436

>  <mol_properties>  (26) 
{"1": {"label": "*0", "atom_type": "N3d"}, "2": {"label": "*1", "atom_type": "Cd"}, "5": {"label": "*3", "atom_type": "Ct"}, "6": {"label": "*4", "atom_type": "Ct"}, "8": {"label": "*2", "atom_type": "H0"}}

>  <type>  (26) 
unop_22

>  <geom_source>  (26) 
Heuristics

$$$$

     RDKit          3D

 12 10  0  0  0  0  0  0  0  0999 V2000
    3.3868    0.2691   -0.0005 O   0  0  0  0  0  0  0  0  0  0  0  0
    1.9853    0.2789    0.0005 N   0  0  0  0  0  0  0  0  0  0  0  0
    1.2902   -0.7302   -0.0001 C   0  0  0  0  0  3  0  0  0  0  0  0
    3.6383    1.2038    0.0004 H   0  0  0  0  0  0  0  0  0  0  0  0
    1.4983   -1.7901   -0.0015 H   0  0  0  0  0  0  0  0  0  0  0  0
   -1.2334   -0.2097    0.0007 C   0  0  0  0  0  0  0  0  0  0  0  0
   -2.4128    0.0014    0.0003 C   0  0  0  0  0  0  0  0  0  0  0  0
   -3.8416    0.2591   -0.0006 C   0  0  0  0  0  0  0  0  0  0  0  0
   -0.0182   -0.4407    0.0004 H   0  0  0  0  0  0  0  0  0  0  0  0
   -4.0941    0.9349   -0.8171 H   0  0  0  0  0  0  0  0  0  0  0  0
   -4.1348    0.7156    0.9444 H   0  0  0  0  0  0  0  0  0  0  0  0
   -4.3860   -0.6759   -0.1295 H   0  0  0  0  0  0  0  0  0  0  0  0
  1  2  1  0
  1  4  1  0
  2  3  2  3
  3  5  1  0
  6  7  3  0
  6  9  1  0
  7  8  1  0
  8 10  1  0
  8 11  1  0
  8 12  1  0
M  RAD  1   3   2
M  END
>  <reaction>  (27) 
rmg_rxn_15436

>  <mol_properties>  (27) 
{"1": {"label": "*0", "atom_type": "N3d"}, "2": {"label": "*1", "atom_type": "Cd"}, "5": {"label": "*3", "atom_type": "Ct"}, "6": {"label": "*4", "atom_type": "Ct"}, "8": {"label": "*2", "atom_type": "H0"}}

>  <type>  (27) 
unop_23

>  <geom_source>  (27) 
Heuristics

$$$$

     RDKit          3D

 12 10  0  0  0  0  0  0  0  0999 V2000
    1.9797   -0.1676   -0.5129 O   0  0  0  0  0  0  0  0  0  0  0  0
    2.1913    1.0868    0.0071 N   0  0  0  0  0  0  0  0  0  0  0  0
   -1.6052   -1.5393    0.4071 C   0  0  0  0  0  0  0  0  0  0  0  0
    1.2342    1.9526    0.0183 C   0  0  0  0  0  3  0  0  0  0  0  0
   -1.4233   -0.2209   -0.2011 C   0  0  0  0  0  0  0  0  0  0  0  0
   -1.2735    0.8653   -0.7021 C   0  0  0  0  0  0  0  0  0  0  0  0
   -1.0849   -2.3044   -0.2052 H   0  0  0  0  0  0  0  0  0  0  0  0
   -2.6875   -1.7784    0.4558 H   0  0  0  0  0  0  0  0  0  0  0  0
   -1.1811   -1.5357    1.4324 H   0  0  0  0  0  0  0  0  0  0  0  0
   -0.2840    1.5481   -0.6064 H   0  0  0  0  0  0  0  0  0  0  0  0
    1.4032    2.9390    0.4280 H   0  0  0  0  0  0  0  0  0  0  0  0
    2.7312   -0.8456   -0.5211 H   0  0  0  0  0  0  0  0  0  0  0  0
  1  2  1  0
  1 12  1  0
  2  4  2  3
  3  5  1  0
  3  7  1  0
  3  8  1  0
  3  9  1  0
  4 11  1  0
  5  6  3  0
  6 10  1  0
M  RAD  1   4   2
M  END
>  <reaction>  (28) 
rmg_rxn_15436

>  <mol_properties>  (28) 
{"1": {"label": "*0", "atom_type": "N3d"}, "2": {"label": "*1", "atom_type": "Cd"}, "5": {"label": "*3", "atom_type": "Ct"}, "6": {"label": "*4", "atom_type": "Ct"}, "8": {"label": "*2", "atom_type": "H0"}}

>  <type>  (28) 
unop_24

>  <geom_source>  (28) 
AutoTST

$$$$

     RDKit          3D

 12 10  0  0  0  0  0  0  0  0999 V2000
    0.5409   -0.6275    3.2071 O   0  0  0  0  0  0  0  0  0  0  0  0
   -0.0558   -0.7299    1.9660 N   0  0  0  0  0  0  0  0  0  0  0  0
   -0.1656    0.3935    1.4009 C   0  0  0  0  0  3  0  0  0  0  0  0
    0.5618   -1.5344    3.5189 H   0  0  0  0  0  0  0  0  0  0  0  0
    0.1781    1.3176    1.8608 H   0  0  0  0  0  0  0  0  0  0  0  0
   -0.1656    0.3935   -1.1732 C   0  0  0  0  0  0  0  0  0  0  0  0
   -0.1656    0.3935   -2.3703 C   0  0  0  0  0  0  0  0  0  0  0  0
   -0.1656    0.3935   -3.8257 C   0  0  0  0  0  0  0  0  0  0  0  0
   -0.1656    0.3935    0.1027 H   0  0  0  0  0  0  0  0  0  0  0  0
   -0.2529    1.4103   -4.2111 H   0  0  0  0  0  0  0  0  0  0  0  0
   -1.0025   -0.1905   -4.2111 H   0  0  0  0  0  0  0  0  0  0  0  0
    0.7587   -0.0392   -4.2111 H   0  0  0  0  0  0  0  0  0  0  0  0
  1  2  1  0
  1  4  1  0
  2  3  2  3
  3  5  1  0
  6  7  3  0
  6  9  1  0
  7  8  1  0
  8 10  1  0
  8 11  1  0
  8 12  1  0
M  RAD  1   3   2
M  END
>  <reaction>  (29) 
rmg_rxn_15436

>  <mol_properties>  (29) 
{"1": {"label": "*0", "atom_type": "N3d"}, "2": {"label": "*1", "atom_type": "Cd"}, "5": {"label": "*3", "atom_type": "Ct"}, "6": {"label": "*4", "atom_type": "Ct"}, "8": {"label": "*2", "atom_type": "H0"}}

>  <type>  (29) 
unop_25

>  <geom_source>  (29) 
gaussian_log

$$$$
