
     RDKit          3D

 11 10  0  0  0  0  0  0  0  0999 V2000
   -1.2710    0.1907   -0.2084 C   0  0  0  0  0  0  0  0  0  0  0  0
    0.0202   -0.6130   -0.2928 C   0  0  0  0  0  0  0  0  0  0  0  0
    0.1086   -1.6953    0.7756 C   0  0  0  0  0  0  0  0  0  0  0  0
   -1.3607    0.6851    0.7620 H   0  0  0  0  0  0  0  0  0  0  0  0
   -2.1429   -0.4567   -0.3299 H   0  0  0  0  0  0  0  0  0  0  0  0
   -1.3158    0.9602   -0.9809 H   0  0  0  0  0  0  0  0  0  0  0  0
    0.8757    0.0616   -0.1992 H   0  0  0  0  0  0  0  0  0  0  0  0
    0.0997   -1.0712   -1.2825 H   0  0  0  0  0  0  0  0  0  0  0  0
   -0.7198   -2.4022    0.6850 H   0  0  0  0  0  0  0  0  0  0  0  0
    1.0395   -2.2596    0.6989 H   0  0  0  0  0  0  0  0  0  0  0  0
    0.0624   -1.2603    1.7770 H   0  0  0  0  0  0  0  0  0  0  0  0
  1  2  1  0
  1  4  1  0
  1  5  1  0
  1  6  1  0
  2  3  1  0
  2  7  1  0
  2  8  1  0
  3  9  1  0
  3 10  1  0
  3 11  1  0
M  END
>  <reaction>  (1) 
rmg_rxn_513

>  <mol_properties>  (1) 
{"0": {"label": "donator", "atom_type": "Cs"}, "3": {"label": "d_hydrogen", "atom_type": "H0"}}

>  <type>  (1) 
r1h

$$$$

     RDKit          3D

  8  7  0  0  0  0  0  0  0  0999 V2000
    1.3778   -0.6812    0.2772 C   0  0  0  0  0  3  0  0  0  0  0  0
    0.4890    0.2108   -0.0590 C   0  0  0  0  0  0  0  0  0  0  0  0
   -1.0010    0.0286   -0.0323 C   0  0  0  0  0  0  0  0  0  0  0  0
    2.4535   -0.7507    0.3287 H   0  0  0  0  0  0  0  0  0  0  0  0
    0.8447    1.1899   -0.3945 H   0  0  0  0  0  0  0  0  0  0  0  0
   -1.4635    0.7638    0.6301 H   0  0  0  0  0  0  0  0  0  0  0  0
   -1.2709   -0.9687    0.3117 H   0  0  0  0  0  0  0  0  0  0  0  0
   -1.4218    0.1801   -1.0289 H   0  0  0  0  0  0  0  0  0  0  0  0
  1  2  2  3
  1  4  1  0
  2  3  1  0
  2  5  1  0
  3  6  1  0
  3  7  1  0
  3  8  1  0
M  RAD  1   1   2
M  END
>  <reaction>  (2) 
rmg_rxn_513

>  <mol_properties>  (2) 
{"0": {"label": "acceptor", "atom_type": "Cd"}}

>  <type>  (2) 
r2

$$$$

     RDKit          3D

  9  8  0  0  0  0  0  0  0  0999 V2000
    1.1303   -0.2933   -0.7510 C   0  0  0  0  0  0  0  0  0  0  0  0
    0.2866    0.4560   -0.0588 C   0  0  0  0  0  0  0  0  0  0  0  0
   -0.9719   -0.0331    0.5823 C   0  0  0  0  0  0  0  0  0  0  0  0
    2.0274    0.1230   -1.1916 H   0  0  0  0  0  0  0  0  0  0  0  0
    0.9532   -1.3530   -0.9023 H   0  0  0  0  0  0  0  0  0  0  0  0
    0.5065    1.5132    0.0659 H   0  0  0  0  0  0  0  0  0  0  0  0
   -0.9526    0.1426    1.6610 H   0  0  0  0  0  0  0  0  0  0  0  0
   -1.1182   -1.1002    0.4106 H   0  0  0  0  0  0  0  0  0  0  0  0
   -1.8412    0.5010    0.1901 H   0  0  0  0  0  0  0  0  0  0  0  0
  1  2  2  3
  1  4  1  0
  1  5  1  0
  2  3  1  0
  2  6  1  0
  3  7  1  0
  3  8  1  0
  3  9  1  0
M  END
>  <reaction>  (3) 
rmg_rxn_513

>  <mol_properties>  (3) 
{"0": {"label": "acceptor", "atom_type": "Cd"}, "8": {"label": "a_hydrogen", "atom_type": "H0"}}

>  <type>  (3) 
r2h

$$$$

     RDKit          3D

 19 17  0  0  0  0  0  0  0  0999 V2000
   -1.0702    0.3983    0.7463 C   0  0  0  0  0  3  0  0  0  0  0  0
   -0.9029    1.4725    0.0064 C   0  0  0  0  0  0  0  0  0  0  0  0
   -1.9757    2.4547   -0.3644 C   0  0  0  0  0  0  0  0  0  0  0  0
   -1.9881    0.0465    1.2058 H   0  0  0  0  0  0  0  0  0  0  0  0
    0.0924    1.6868   -0.3815 H   0  0  0  0  0  0  0  0  0  0  0  0
   -1.7216    3.4555   -0.0062 H   0  0  0  0  0  0  0  0  0  0  0  0
   -2.9396    2.1713    0.0588 H   0  0  0  0  0  0  0  0  0  0  0  0
   -2.0803    2.5190   -1.4504 H   0  0  0  0  0  0  0  0  0  0  0  0
    1.1409   -1.0613    1.1457 C   0  0  0  0  0  0  0  0  0  0  0  0
    1.2407   -2.0463    0.0063 C   0  0  0  0  0  0  0  0  0  0  0  0
    1.3846   -1.3702   -1.3516 C   0  0  0  0  0  0  0  0  0  0  0  0
    0.0700   -0.3795    0.9886 H   0  0  0  0  0  0  0  0  0  0  0  0
    1.9347   -0.3132    1.1579 H   0  0  0  0  0  0  0  0  0  0  0  0
    1.0199   -1.5167    2.1280 H   0  0  0  0  0  0  0  0  0  0  0  0
    0.3557   -2.6894    0.0041 H   0  0  0  0  0  0  0  0  0  0  0  0
    2.0959   -2.7110    0.1751 H   0  0  0  0  0  0  0  0  0  0  0  0
    2.2772   -0.7402   -1.3796 H   0  0  0  0  0  0  0  0  0  0  0  0
    1.4678   -2.1039   -2.1550 H   0  0  0  0  0  0  0  0  0  0  0  0
    0.5211   -0.7355   -1.5598 H   0  0  0  0  0  0  0  0  0  0  0  0
  1  2  2  3
  1  4  1  0
  2  3  1  0
  2  5  1  0
  3  6  1  0
  3  7  1  0
  3  8  1  0
  9 10  1  0
  9 12  1  0
  9 13  1  0
  9 14  1  0
 10 11  1  0
 10 15  1  0
 10 16  1  0
 11 17  1  0
 11 18  1  0
 11 19  1  0
M  RAD  1   1   2
M  END
>  <reaction>  (4) 
rmg_rxn_513

>  <mol_properties>  (4) 
{"0": {"label": "*3", "atom_type": "Cd"}, "1": {"label": "*4", "atom_type": "Cd"}, "8": {"label": "*1", "atom_type": "Cs"}, "9": {"label": "*0", "atom_type": "Cs"}, "11": {"label": "*2", "atom_type": "H0"}}

>  <type>  (4) 
ts

$$$$

     RDKit          3D

 19 17  0  0  0  0  0  0  0  0999 V2000
   -0.6924    0.7566   -0.2127 C   0  0  0  0  0  0  0  0  0  0  0  0
   -1.5692    1.2326    0.6573 C   0  0  0  0  0  0  0  0  0  0  0  0
   -2.1460    2.6113    0.6309 C   0  0  0  0  0  0  0  0  0  0  0  0
   -0.3226    1.3628   -1.0330 H   0  0  0  0  0  0  0  0  0  0  0  0
   -1.9106    0.5875    1.4628 H   0  0  0  0  0  0  0  0  0  0  0  0
   -3.2350    2.5756    0.5437 H   0  0  0  0  0  0  0  0  0  0  0  0
   -1.7533    3.1919   -0.2048 H   0  0  0  0  0  0  0  0  0  0  0  0
   -1.9200    3.1453    1.5575 H   0  0  0  0  0  0  0  0  0  0  0  0
    1.4135   -0.5778    0.5617 C   0  0  0  0  0  3  0  0  0  0  0  0
    1.4135   -1.9837   -0.0250 C   0  0  0  0  0  0  0  0  0  0  0  0
    1.4135   -1.9837   -1.5483 C   0  0  0  0  0  0  0  0  0  0  0  0
    0.3557    0.0924    0.1727 H   0  0  0  0  0  0  0  0  0  0  0  0
    2.2949   -0.0193    0.2376 H   0  0  0  0  0  0  0  0  0  0  0  0
    1.4135   -0.5985    1.6528 H   0  0  0  0  0  0  0  0  0  0  0  0
    0.5389   -2.5300    0.3390 H   0  0  0  0  0  0  0  0  0  0  0  0
    2.2880   -2.5300    0.3390 H   0  0  0  0  0  0  0  0  0  0  0  0
    2.2949   -1.4694   -1.9390 H   0  0  0  0  0  0  0  0  0  0  0  0
    1.4135   -2.9986   -1.9495 H   0  0  0  0  0  0  0  0  0  0  0  0
    0.5320   -1.4694   -1.9390 H   0  0  0  0  0  0  0  0  0  0  0  0
  1  2  2  3
  1  4  1  0
  1 12  1  0
  2  3  1  0
  2  5  1  0
  3  6  1  0
  3  7  1  0
  3  8  1  0
  9 10  1  0
  9 13  1  0
  9 14  1  0
 10 11  1  0
 10 15  1  0
 10 16  1  0
 11 17  1  0
 11 18  1  0
 11 19  1  0
M  RAD  1   9   2
M  END
>  <reaction>  (5) 
rmg_rxn_513

>  <mol_properties>  (5) 
{"0": {"label": "*3", "atom_type": "Cd"}, "1": {"label": "*4", "atom_type": "Cd"}, "8": {"label": "*1", "atom_type": "Cs"}, "9": {"label": "*0", "atom_type": "Cs"}, "11": {"label": "*2", "atom_type": "H0"}}

>  <type>  (5) 
unop_1

>  <geom_source>  (5) 
Heuristics

$$$$

     RDKit          3D

 19 17  0  0  0  0  0  0  0  0999 V2000
   -0.4639    1.2449    0.1727 C   0  0  0  0  0  0  0  0  0  0  0  0
   -1.6085    0.6370   -0.0970 C   0  0  0  0  0  0  0  0  0  0  0  0
   -2.9416    1.3085   -0.1764 C   0  0  0  0  0  0  0  0  0  0  0  0
   -0.4206    2.3125    0.3606 H   0  0  0  0  0  0  0  0  0  0  0  0
   -1.6020   -0.4347   -0.2785 H   0  0  0  0  0  0  0  0  0  0  0  0
   -3.3885    1.1701   -1.1642 H   0  0  0  0  0  0  0  0  0  0  0  0
   -2.8611    2.3788    0.0175 H   0  0  0  0  0  0  0  0  0  0  0  0
   -3.6373    0.8786    0.5489 H   0  0  0  0  0  0  0  0  0  0  0  0
    1.6419   -0.0896    0.9470 C   0  0  0  0  0  3  0  0  0  0  0  0
    1.6419   -1.4954    0.3603 C   0  0  0  0  0  0  0  0  0  0  0  0
    1.6419   -1.4954   -1.1630 C   0  0  0  0  0  0  0  0  0  0  0  0
    0.5842    0.5807    0.5581 H   0  0  0  0  0  0  0  0  0  0  0  0
    2.5234    0.4690    0.6229 H   0  0  0  0  0  0  0  0  0  0  0  0
    1.6419   -0.1102    2.0381 H   0  0  0  0  0  0  0  0  0  0  0  0
    0.7674   -2.0417    0.7243 H   0  0  0  0  0  0  0  0  0  0  0  0
    2.5165   -2.0417    0.7243 H   0  0  0  0  0  0  0  0  0  0  0  0
    2.5234   -0.9811   -1.5536 H   0  0  0  0  0  0  0  0  0  0  0  0
    1.6419   -2.5103   -1.5642 H   0  0  0  0  0  0  0  0  0  0  0  0
    0.7605   -0.9811   -1.5536 H   0  0  0  0  0  0  0  0  0  0  0  0
  1  2  2  3
  1  4  1  0
  1 12  1  0
  2  3  1  0
  2  5  1  0
  3  6  1  0
  3  7  1  0
  3  8  1  0
  9 10  1  0
  9 13  1  0
  9 14  1  0
 10 11  1  0
 10 15  1  0
 10 16  1  0
 11 17  1  0
 11 18  1  0
 11 19  1  0
M  RAD  1   9   2
M  END
>  <reaction>  (6) 
rmg_rxn_513

>  <mol_properties>  (6) 
{"0": {"label": "*3", "atom_type": "Cd"}, "1": {"label": "*4", "atom_type": "Cd"}, "8": {"label": "*1", "atom_type": "Cs"}, "9": {"label": "*0", "atom_type": "Cs"}, "11": {"label": "*2", "atom_type": "H0"}}

>  <type>  (6) 
unop_2

>  <geom_source>  (6) 
Heuristics

$$$$

     RDKit          3D

 19 17  0  0  0  0  0  0  0  0999 V2000
   -0.8007    0.6222   -0.0873 C   0  0  0  0  0  0  0  0  0  0  0  0
   -1.3420    1.5628    0.6707 C   0  0  0  0  0  0  0  0  0  0  0  0
   -1.9307    2.8410    0.1670 C   0  0  0  0  0  0  0  0  0  0  0  0
   -0.7487    0.7249   -1.1661 H   0  0  0  0  0  0  0  0  0  0  0  0
   -1.3714    1.4151    1.7473 H   0  0  0  0  0  0  0  0  0  0  0  0
   -2.9830    2.9230    0.4510 H   0  0  0  0  0  0  0  0  0  0  0  0
   -1.8616    2.9109   -0.9193 H   0  0  0  0  0  0  0  0  0  0  0  0
   -1.4176    3.7031    0.6008 H   0  0  0  0  0  0  0  0  0  0  0  0
    1.3051   -0.7123    0.6871 C   0  0  0  0  0  3  0  0  0  0  0  0
    1.3051   -2.1181    0.1004 C   0  0  0  0  0  0  0  0  0  0  0  0
    1.3051   -2.1181   -1.4229 C   0  0  0  0  0  0  0  0  0  0  0  0
    0.2474   -0.0420    0.2981 H   0  0  0  0  0  0  0  0  0  0  0  0
    2.1866   -0.1537    0.3630 H   0  0  0  0  0  0  0  0  0  0  0  0
    1.3051   -0.7330    1.7782 H   0  0  0  0  0  0  0  0  0  0  0  0
    0.4306   -2.6645    0.4644 H   0  0  0  0  0  0  0  0  0  0  0  0
    2.1796   -2.6645    0.4644 H   0  0  0  0  0  0  0  0  0  0  0  0
    2.1866   -1.6038   -1.8136 H   0  0  0  0  0  0  0  0  0  0  0  0
    1.3051   -3.1330   -1.8241 H   0  0  0  0  0  0  0  0  0  0  0  0
    0.4237   -1.6038   -1.8136 H   0  0  0  0  0  0  0  0  0  0  0  0
  1  2  2  3
  1  4  1  0
  1 12  1  0
  2  3  1  0
  2  5  1  0
  3  6  1  0
  3  7  1  0
  3  8  1  0
  9 10  1  0
  9 13  1  0
  9 14  1  0
 10 11  1  0
 10 15  1  0
 10 16  1  0
 11 17  1  0
 11 18  1  0
 11 19  1  0
M  RAD  1   9   2
M  END
>  <reaction>  (7) 
rmg_rxn_513

>  <mol_properties>  (7) 
{"0": {"label": "*3", "atom_type": "Cd"}, "1": {"label": "*4", "atom_type": "Cd"}, "8": {"label": "*1", "atom_type": "Cs"}, "9": {"label": "*0", "atom_type": "Cs"}, "11": {"label": "*2", "atom_type": "H0"}}

>  <type>  (7) 
unop_3

>  <geom_source>  (7) 
Heuristics

$$$$

     RDKit          3D

 19 17  0  0  0  0  0  0  0  0999 V2000
   -0.8830    0.8671    0.5915 C   0  0  0  0  0  0  0  0  0  0  0  0
   -1.1235    1.0991   -0.6893 C   0  0  0  0  0  0  0  0  0  0  0  0
   -1.8029    2.3155   -1.2308 C   0  0  0  0  0  0  0  0  0  0  0  0
   -1.1763    1.5748    1.3598 H   0  0  0  0  0  0  0  0  0  0  0  0
   -0.8109    0.3604   -1.4229 H   0  0  0  0  0  0  0  0  0  0  0  0
   -1.1515    2.8460   -1.9300 H   0  0  0  0  0  0  0  0  0  0  0  0
   -2.0834    3.0040   -0.4327 H   0  0  0  0  0  0  0  0  0  0  0  0
   -2.7056    2.0431   -1.7836 H   0  0  0  0  0  0  0  0  0  0  0  0
    1.2228   -0.4673    1.3659 C   0  0  0  0  0  3  0  0  0  0  0  0
    1.2228   -1.8732    0.7792 C   0  0  0  0  0  0  0  0  0  0  0  0
    1.2228   -1.8732   -0.7441 C   0  0  0  0  0  0  0  0  0  0  0  0
    0.1651    0.2029    0.9769 H   0  0  0  0  0  0  0  0  0  0  0  0
    2.1043    0.0912    1.0418 H   0  0  0  0  0  0  0  0  0  0  0  0
    1.2228   -0.4880    2.4570 H   0  0  0  0  0  0  0  0  0  0  0  0
    0.3483   -2.4195    1.1432 H   0  0  0  0  0  0  0  0  0  0  0  0
    2.0974   -2.4195    1.1432 H   0  0  0  0  0  0  0  0  0  0  0  0
    2.1043   -1.3589   -1.1348 H   0  0  0  0  0  0  0  0  0  0  0  0
    1.2228   -2.8881   -1.1453 H   0  0  0  0  0  0  0  0  0  0  0  0
    0.3414   -1.3589   -1.1348 H   0  0  0  0  0  0  0  0  0  0  0  0
  1  2  2  3
  1  4  1  0
  1 12  1  0
  2  3  1  0
  2  5  1  0
  3  6  1  0
  3  7  1  0
  3  8  1  0
  9 10  1  0
  9 13  1  0
  9 14  1  0
 10 11  1  0
 10 15  1  0
 10 16  1  0
 11 17  1  0
 11 18  1  0
 11 19  1  0
M  RAD  1   9   2
M  END
>  <reaction>  (8) 
rmg_rxn_513

>  <mol_properties>  (8) 
{"0": {"label": "*3", "atom_type": "Cd"}, "1": {"label": "*4", "atom_type": "Cd"}, "8": {"label": "*1", "atom_type": "Cs"}, "9": {"label": "*0", "atom_type": "Cs"}, "11": {"label": "*2", "atom_type": "H0"}}

>  <type>  (8) 
unop_4

>  <geom_source>  (8) 
Heuristics

$$$$

     RDKit          3D

 19 17  0  0  0  0  0  0  0  0999 V2000
   -0.8012    0.6027    0.0142 C   0  0  0  0  0  0  0  0  0  0  0  0
   -1.0115    1.8507    0.4021 C   0  0  0  0  0  0  0  0  0  0  0  0
   -2.1859    2.6877    0.0089 C   0  0  0  0  0  0  0  0  0  0  0  0
   -1.4971    0.0885   -0.6404 H   0  0  0  0  0  0  0  0  0  0  0  0
   -0.2859    2.3243    1.0584 H   0  0  0  0  0  0  0  0  0  0  0  0
   -2.7462    3.0100    0.8904 H   0  0  0  0  0  0  0  0  0  0  0  0
   -2.8634    2.1406   -0.6477 H   0  0  0  0  0  0  0  0  0  0  0  0
   -1.8616    3.5940   -0.5089 H   0  0  0  0  0  0  0  0  0  0  0  0
    1.3047   -0.7318    0.7885 C   0  0  0  0  0  3  0  0  0  0  0  0
    1.3047   -2.1376    0.2018 C   0  0  0  0  0  0  0  0  0  0  0  0
    1.3047   -2.1376   -1.3215 C   0  0  0  0  0  0  0  0  0  0  0  0
    0.2469   -0.0615    0.3996 H   0  0  0  0  0  0  0  0  0  0  0  0
    2.1861   -0.1732    0.4644 H   0  0  0  0  0  0  0  0  0  0  0  0
    1.3047   -0.7525    1.8797 H   0  0  0  0  0  0  0  0  0  0  0  0
    0.4301   -2.6839    0.5658 H   0  0  0  0  0  0  0  0  0  0  0  0
    2.1792   -2.6839    0.5658 H   0  0  0  0  0  0  0  0  0  0  0  0
    2.1861   -1.6233   -1.7121 H   0  0  0  0  0  0  0  0  0  0  0  0
    1.3047   -3.1525   -1.7227 H   0  0  0  0  0  0  0  0  0  0  0  0
    0.4232   -1.6233   -1.7121 H   0  0  0  0  0  0  0  0  0  0  0  0
  1  2  2  3
  1  4  1  0
  1 12  1  0
  2  3  1  0
  2  5  1  0
  3  6  1  0
  3  7  1  0
  3  8  1  0
  9 10  1  0
  9 13  1  0
  9 14  1  0
 10 11  1  0
 10 15  1  0
 10 16  1  0
 11 17  1  0
 11 18  1  0
 11 19  1  0
M  RAD  1   9   2
M  END
>  <reaction>  (9) 
rmg_rxn_513

>  <mol_properties>  (9) 
{"0": {"label": "*3", "atom_type": "Cd"}, "1": {"label": "*4", "atom_type": "Cd"}, "8": {"label": "*1", "atom_type": "Cs"}, "9": {"label": "*0", "atom_type": "Cs"}, "11": {"label": "*2", "atom_type": "H0"}}

>  <type>  (9) 
unop_5

>  <geom_source>  (9) 
Heuristics

$$$$

     RDKit          3D

 19 17  0  0  0  0  0  0  0  0999 V2000
   -0.9796    0.6765    0.4587 C   0  0  0  0  0  0  0  0  0  0  0  0
   -0.9698    1.4058   -0.6460 C   0  0  0  0  0  0  0  0  0  0  0  0
   -1.5731    2.7664   -0.7843 C   0  0  0  0  0  0  0  0  0  0  0  0
   -1.4456    1.0360    1.3702 H   0  0  0  0  0  0  0  0  0  0  0  0
   -0.4906    1.0033   -1.5348 H   0  0  0  0  0  0  0  0  0  0  0  0
   -0.8162    3.4999   -1.0736 H   0  0  0  0  0  0  0  0  0  0  0  0
   -2.0318    3.0958    0.1489 H   0  0  0  0  0  0  0  0  0  0  0  0
   -2.3375    2.7752   -1.5656 H   0  0  0  0  0  0  0  0  0  0  0  0
    1.1262   -0.6579    1.2331 C   0  0  0  0  0  3  0  0  0  0  0  0
    1.1262   -2.0638    0.6464 C   0  0  0  0  0  0  0  0  0  0  0  0
    1.1262   -2.0638   -0.8769 C   0  0  0  0  0  0  0  0  0  0  0  0
    0.0685    0.0123    0.8441 H   0  0  0  0  0  0  0  0  0  0  0  0
    2.0077   -0.0994    0.9090 H   0  0  0  0  0  0  0  0  0  0  0  0
    1.1262   -0.6786    2.3242 H   0  0  0  0  0  0  0  0  0  0  0  0
    0.2517   -2.6101    1.0104 H   0  0  0  0  0  0  0  0  0  0  0  0
    2.0008   -2.6101    1.0104 H   0  0  0  0  0  0  0  0  0  0  0  0
    2.0077   -1.5495   -1.2676 H   0  0  0  0  0  0  0  0  0  0  0  0
    1.1262   -3.0787   -1.2781 H   0  0  0  0  0  0  0  0  0  0  0  0
    0.2448   -1.5495   -1.2676 H   0  0  0  0  0  0  0  0  0  0  0  0
  1  2  2  3
  1  4  1  0
  1 12  1  0
  2  3  1  0
  2  5  1  0
  3  6  1  0
  3  7  1  0
  3  8  1  0
  9 10  1  0
  9 13  1  0
  9 14  1  0
 10 11  1  0
 10 15  1  0
 10 16  1  0
 11 17  1  0
 11 18  1  0
 11 19  1  0
M  RAD  1   9   2
M  END
>  <reaction>  (10) 
rmg_rxn_513

>  <mol_properties>  (10) 
{"0": {"label": "*3", "atom_type": "Cd"}, "1": {"label": "*4", "atom_type": "Cd"}, "8": {"label": "*1", "atom_type": "Cs"}, "9": {"label": "*0", "atom_type": "Cs"}, "11": {"label": "*2", "atom_type": "H0"}}

>  <type>  (10) 
unop_6

>  <geom_source>  (10) 
Heuristics

$$$$

     RDKit          3D

 19 17  0  0  0  0  0  0  0  0999 V2000
   -0.9815    0.5657    0.2447 C   0  0  0  0  0  0  0  0  0  0  0  0
   -0.8736    1.6918   -0.4429 C   0  0  0  0  0  0  0  0  0  0  0  0
   -1.6410    2.9447   -0.1680 C   0  0  0  0  0  0  0  0  0  0  0  0
   -1.6618    0.4788    1.0853 H   0  0  0  0  0  0  0  0  0  0  0  0
   -0.1783    1.7311   -1.2774 H   0  0  0  0  0  0  0  0  0  0  0  0
   -0.9644    3.7761    0.0460 H   0  0  0  0  0  0  0  0  0  0  0  0
   -2.3137    2.8219    0.6817 H   0  0  0  0  0  0  0  0  0  0  0  0
   -2.2349    3.2358   -1.0382 H   0  0  0  0  0  0  0  0  0  0  0  0
    1.1243   -0.7687    1.0190 C   0  0  0  0  0  3  0  0  0  0  0  0
    1.1243   -2.1745    0.4323 C   0  0  0  0  0  0  0  0  0  0  0  0
    1.1243   -2.1745   -1.0910 C   0  0  0  0  0  0  0  0  0  0  0  0
    0.0666   -0.0984    0.6301 H   0  0  0  0  0  0  0  0  0  0  0  0
    2.0058   -0.2101    0.6949 H   0  0  0  0  0  0  0  0  0  0  0  0
    1.1243   -0.7894    2.1101 H   0  0  0  0  0  0  0  0  0  0  0  0
    0.2498   -2.7209    0.7963 H   0  0  0  0  0  0  0  0  0  0  0  0
    1.9989   -2.7209    0.7963 H   0  0  0  0  0  0  0  0  0  0  0  0
    2.0058   -1.6603   -1.4816 H   0  0  0  0  0  0  0  0  0  0  0  0
    1.1244   -3.1894   -1.4922 H   0  0  0  0  0  0  0  0  0  0  0  0
    0.2429   -1.6603   -1.4816 H   0  0  0  0  0  0  0  0  0  0  0  0
  1  2  2  3
  1  4  1  0
  1 12  1  0
  2  3  1  0
  2  5  1  0
  3  6  1  0
  3  7  1  0
  3  8  1  0
  9 10  1  0
  9 13  1  0
  9 14  1  0
 10 11  1  0
 10 15  1  0
 10 16  1  0
 11 17  1  0
 11 18  1  0
 11 19  1  0
M  RAD  1   9   2
M  END
>  <reaction>  (11) 
rmg_rxn_513

>  <mol_properties>  (11) 
{"0": {"label": "*3", "atom_type": "Cd"}, "1": {"label": "*4", "atom_type": "Cd"}, "8": {"label": "*1", "atom_type": "Cs"}, "9": {"label": "*0", "atom_type": "Cs"}, "11": {"label": "*2", "atom_type": "H0"}}

>  <type>  (11) 
unop_7

>  <geom_source>  (11) 
Heuristics

$$$$

     RDKit          3D

 19 17  0  0  0  0  0  0  0  0999 V2000
   -0.5566    0.9558   -0.2104 C   0  0  0  0  0  0  0  0  0  0  0  0
   -1.6838    0.9345    0.4834 C   0  0  0  0  0  0  0  0  0  0  0  0
   -2.5479    2.1228    0.7577 C   0  0  0  0  0  0  0  0  0  0  0  0
   -0.1742    1.8753   -0.6409 H   0  0  0  0  0  0  0  0  0  0  0  0
   -2.0271   -0.0110    0.8955 H   0  0  0  0  0  0  0  0  0  0  0  0
   -3.5547    1.9717    0.3599 H   0  0  0  0  0  0  0  0  0  0  0  0
   -2.1345    3.0280    0.3113 H   0  0  0  0  0  0  0  0  0  0  0  0
   -2.6538    2.2868    1.8332 H   0  0  0  0  0  0  0  0  0  0  0  0
    1.5492   -0.3787    0.5640 C   0  0  0  0  0  3  0  0  0  0  0  0
    1.5492   -1.7845   -0.0227 C   0  0  0  0  0  0  0  0  0  0  0  0
    1.5492   -1.7845   -1.5460 C   0  0  0  0  0  0  0  0  0  0  0  0
    0.4915    0.2916    0.1750 H   0  0  0  0  0  0  0  0  0  0  0  0
    2.4307    0.1799    0.2399 H   0  0  0  0  0  0  0  0  0  0  0  0
    1.5492   -0.3994    1.6551 H   0  0  0  0  0  0  0  0  0  0  0  0
    0.6747   -2.3309    0.3413 H   0  0  0  0  0  0  0  0  0  0  0  0
    2.4238   -2.3309    0.3413 H   0  0  0  0  0  0  0  0  0  0  0  0
    2.4307   -1.2702   -1.9367 H   0  0  0  0  0  0  0  0  0  0  0  0
    1.5493   -2.7994   -1.9472 H   0  0  0  0  0  0  0  0  0  0  0  0
    0.6678   -1.2702   -1.9367 H   0  0  0  0  0  0  0  0  0  0  0  0
  1  2  2  3
  1  4  1  0
  1 12  1  0
  2  3  1  0
  2  5  1  0
  3  6  1  0
  3  7  1  0
  3  8  1  0
  9 10  1  0
  9 13  1  0
  9 14  1  0
 10 11  1  0
 10 15  1  0
 10 16  1  0
 11 17  1  0
 11 18  1  0
 11 19  1  0
M  RAD  1   9   2
M  END
>  <reaction>  (12) 
rmg_rxn_513

>  <mol_properties>  (12) 
{"0": {"label": "*3", "atom_type": "Cd"}, "1": {"label": "*4", "atom_type": "Cd"}, "8": {"label": "*1", "atom_type": "Cs"}, "9": {"label": "*0", "atom_type": "Cs"}, "11": {"label": "*2", "atom_type": "H0"}}

>  <type>  (12) 
unop_8

>  <geom_source>  (12) 
Heuristics

$$$$

     RDKit          3D

 19 17  0  0  0  0  0  0  0  0999 V2000
   -0.7232    1.0737    0.5828 C   0  0  0  0  0  0  0  0  0  0  0  0
   -1.2993    0.8411   -0.5861 C   0  0  0  0  0  0  0  0  0  0  0  0
   -2.2442    1.7688   -1.2795 C   0  0  0  0  0  0  0  0  0  0  0  0
   -0.9088    1.9902    1.1329 H   0  0  0  0  0  0  0  0  0  0  0  0
   -1.0826   -0.0918   -1.1002 H   0  0  0  0  0  0  0  0  0  0  0  0
   -1.8598    2.0520   -2.2628 H   0  0  0  0  0  0  0  0  0  0  0  0
   -2.4077    2.6781   -0.6997 H   0  0  0  0  0  0  0  0  0  0  0  0
   -3.2113    1.2871   -1.4444 H   0  0  0  0  0  0  0  0  0  0  0  0
    1.3826   -0.2607    1.3572 C   0  0  0  0  0  3  0  0  0  0  0  0
    1.3826   -1.6665    0.7705 C   0  0  0  0  0  0  0  0  0  0  0  0
    1.3826   -1.6665   -0.7528 C   0  0  0  0  0  0  0  0  0  0  0  0
    0.3249    0.4095    0.9682 H   0  0  0  0  0  0  0  0  0  0  0  0
    2.2641    0.2978    1.0331 H   0  0  0  0  0  0  0  0  0  0  0  0
    1.3826   -0.2814    2.4483 H   0  0  0  0  0  0  0  0  0  0  0  0
    0.5081   -2.2129    1.1345 H   0  0  0  0  0  0  0  0  0  0  0  0
    2.2572   -2.2129    1.1345 H   0  0  0  0  0  0  0  0  0  0  0  0
    2.2641   -1.1523   -1.1435 H   0  0  0  0  0  0  0  0  0  0  0  0
    1.3826   -2.6814   -1.1540 H   0  0  0  0  0  0  0  0  0  0  0  0
    0.5012   -1.1523   -1.1435 H   0  0  0  0  0  0  0  0  0  0  0  0
  1  2  2  3
  1  4  1  0
  1 12  1  0
  2  3  1  0
  2  5  1  0
  3  6  1  0
  3  7  1  0
  3  8  1  0
  9 10  1  0
  9 13  1  0
  9 14  1  0
 10 11  1  0
 10 15  1  0
 10 16  1  0
 11 17  1  0
 11 18  1  0
 11 19  1  0
M  RAD  1   9   2
M  END
>  <reaction>  (13) 
rmg_rxn_513

>  <mol_properties>  (13) 
{"0": {"label": "*3", "atom_type": "Cd"}, "1": {"label": "*4", "atom_type": "Cd"}, "8": {"label": "*1", "atom_type": "Cs"}, "9": {"label": "*0", "atom_type": "Cs"}, "11": {"label": "*2", "atom_type": "H0"}}

>  <type>  (13) 
unop_9

>  <geom_source>  (13) 
Heuristics

$$$$

     RDKit          3D

 19 17  0  0  0  0  0  0  0  0999 V2000
   -0.4663    1.1422   -0.0677 C   0  0  0  0  0  0  0  0  0  0  0  0
   -1.6914    0.7242    0.2090 C   0  0  0  0  0  0  0  0  0  0  0  0
   -2.8686    1.6120    0.4549 C   0  0  0  0  0  0  0  0  0  0  0  0
   -0.2307    2.1991   -0.1359 H   0  0  0  0  0  0  0  0  0  0  0  0
   -1.8793   -0.3449    0.2669 H   0  0  0  0  0  0  0  0  0  0  0  0
   -3.6656    1.4094   -0.2651 H   0  0  0  0  0  0  0  0  0  0  0  0
   -2.5963    2.6654    0.3785 H   0  0  0  0  0  0  0  0  0  0  0  0
   -3.2876    1.4358    1.4489 H   0  0  0  0  0  0  0  0  0  0  0  0
    1.6396   -0.1922    0.7067 C   0  0  0  0  0  3  0  0  0  0  0  0
    1.6396   -1.5980    0.1200 C   0  0  0  0  0  0  0  0  0  0  0  0
    1.6396   -1.5980   -1.4033 C   0  0  0  0  0  0  0  0  0  0  0  0
    0.5818    0.4781    0.3178 H   0  0  0  0  0  0  0  0  0  0  0  0
    2.5210    0.3663    0.3826 H   0  0  0  0  0  0  0  0  0  0  0  0
    1.6396   -0.2129    1.7978 H   0  0  0  0  0  0  0  0  0  0  0  0
    0.7650   -2.1444    0.4840 H   0  0  0  0  0  0  0  0  0  0  0  0
    2.5141   -2.1444    0.4840 H   0  0  0  0  0  0  0  0  0  0  0  0
    2.5210   -1.0838   -1.7940 H   0  0  0  0  0  0  0  0  0  0  0  0
    1.6396   -2.6129   -1.8045 H   0  0  0  0  0  0  0  0  0  0  0  0
    0.7581   -1.0838   -1.7940 H   0  0  0  0  0  0  0  0  0  0  0  0
  1  2  2  3
  1  4  1  0
  1 12  1  0
  2  3  1  0
  2  5  1  0
  3  6  1  0
  3  7  1  0
  3  8  1  0
  9 10  1  0
  9 13  1  0
  9 14  1  0
 10 11  1  0
 10 15  1  0
 10 16  1  0
 11 17  1  0
 11 18  1  0
 11 19  1  0
M  RAD  1   9   2
M  END
>  <reaction>  (14) 
rmg_rxn_513

>  <mol_properties>  (14) 
{"0": {"label": "*3", "atom_type": "Cd"}, "1": {"label": "*4", "atom_type": "Cd"}, "8": {"label": "*1", "atom_type": "Cs"}, "9": {"label": "*0", "atom_type": "Cs"}, "11": {"label": "*2", "atom_type": "H0"}}

>  <type>  (14) 
unop_10

>  <geom_source>  (14) 
Heuristics

$$$$

     RDKit          3D

 19 17  0  0  0  0  0  0  0  0999 V2000
   -0.8890    0.5639    0.0523 C   0  0  0  0  0  0  0  0  0  0  0  0
   -0.8617    1.8798   -0.0889 C   0  0  0  0  0  0  0  0  0  0  0  0
   -1.9847    2.8053    0.2524 C   0  0  0  0  0  0  0  0  0  0  0  0
   -1.7645    0.0543    0.4407 H   0  0  0  0  0  0  0  0  0  0  0  0
    0.0382    2.3456   -0.4823 H   0  0  0  0  0  0  0  0  0  0  0  0
   -1.6727    3.5347    1.0044 H   0  0  0  0  0  0  0  0  0  0  0  0
   -2.8469    2.2605    0.6391 H   0  0  0  0  0  0  0  0  0  0  0  0
   -2.3019    3.3727   -0.6264 H   0  0  0  0  0  0  0  0  0  0  0  0
    1.2169   -0.7706    0.8267 C   0  0  0  0  0  3  0  0  0  0  0  0
    1.2169   -2.1764    0.2400 C   0  0  0  0  0  0  0  0  0  0  0  0
    1.2169   -2.1764   -1.2833 C   0  0  0  0  0  0  0  0  0  0  0  0
    0.1591   -0.1003    0.4377 H   0  0  0  0  0  0  0  0  0  0  0  0
    2.0983   -0.2120    0.5026 H   0  0  0  0  0  0  0  0  0  0  0  0
    1.2168   -0.7912    1.9178 H   0  0  0  0  0  0  0  0  0  0  0  0
    0.3423   -2.7227    0.6040 H   0  0  0  0  0  0  0  0  0  0  0  0
    2.0914   -2.7227    0.6040 H   0  0  0  0  0  0  0  0  0  0  0  0
    2.0983   -1.6621   -1.6740 H   0  0  0  0  0  0  0  0  0  0  0  0
    1.2169   -3.1913   -1.6845 H   0  0  0  0  0  0  0  0  0  0  0  0
    0.3354   -1.6621   -1.6740 H   0  0  0  0  0  0  0  0  0  0  0  0
  1  2  2  3
  1  4  1  0
  1 12  1  0
  2  3  1  0
  2  5  1  0
  3  6  1  0
  3  7  1  0
  3  8  1  0
  9 10  1  0
  9 13  1  0
  9 14  1  0
 10 11  1  0
 10 15  1  0
 10 16  1  0
 11 17  1  0
 11 18  1  0
 11 19  1  0
M  RAD  1   9   2
M  END
>  <reaction>  (15) 
rmg_rxn_513

>  <mol_properties>  (15) 
{"0": {"label": "*3", "atom_type": "Cd"}, "1": {"label": "*4", "atom_type": "Cd"}, "8": {"label": "*1", "atom_type": "Cs"}, "9": {"label": "*0", "atom_type": "Cs"}, "11": {"label": "*2", "atom_type": "H0"}}

>  <type>  (15) 
unop_11

>  <geom_source>  (15) 
Heuristics

$$$$

     RDKit          3D

 19 17  0  0  0  0  0  0  0  0999 V2000
   -0.5609    1.2194    0.4235 C   0  0  0  0  0  0  0  0  0  0  0  0
   -1.4679    0.6794   -0.3753 C   0  0  0  0  0  0  0  0  0  0  0  0
   -2.7002    1.3676   -0.8672 C   0  0  0  0  0  0  0  0  0  0  0  0
   -0.6598    2.2373    0.7857 H   0  0  0  0  0  0  0  0  0  0  0  0
   -1.3256   -0.3441   -0.7125 H   0  0  0  0  0  0  0  0  0  0  0  0
   -2.7131    1.4085   -1.9594 H   0  0  0  0  0  0  0  0  0  0  0  0
   -2.7675    2.3867   -0.4844 H   0  0  0  0  0  0  0  0  0  0  0  0
   -3.5977    0.8245   -0.5601 H   0  0  0  0  0  0  0  0  0  0  0  0
    1.5450   -0.1150    1.1979 C   0  0  0  0  0  3  0  0  0  0  0  0
    1.5450   -1.5208    0.6112 C   0  0  0  0  0  0  0  0  0  0  0  0
    1.5450   -1.5208   -0.9122 C   0  0  0  0  0  0  0  0  0  0  0  0
    0.4872    0.5553    0.8089 H   0  0  0  0  0  0  0  0  0  0  0  0
    2.4264    0.4436    0.8737 H   0  0  0  0  0  0  0  0  0  0  0  0
    1.5450   -0.1357    2.2890 H   0  0  0  0  0  0  0  0  0  0  0  0
    0.6704   -2.0672    0.9752 H   0  0  0  0  0  0  0  0  0  0  0  0
    2.4195   -2.0672    0.9752 H   0  0  0  0  0  0  0  0  0  0  0  0
    2.4264   -1.0066   -1.3028 H   0  0  0  0  0  0  0  0  0  0  0  0
    1.5450   -2.5357   -1.3133 H   0  0  0  0  0  0  0  0  0  0  0  0
    0.6635   -1.0066   -1.3028 H   0  0  0  0  0  0  0  0  0  0  0  0
  1  2  2  3
  1  4  1  0
  1 12  1  0
  2  3  1  0
  2  5  1  0
  3  6  1  0
  3  7  1  0
  3  8  1  0
  9 10  1  0
  9 13  1  0
  9 14  1  0
 10 11  1  0
 10 15  1  0
 10 16  1  0
 11 17  1  0
 11 18  1  0
 11 19  1  0
M  RAD  1   9   2
M  END
>  <reaction>  (16) 
rmg_rxn_513

>  <mol_properties>  (16) 
{"0": {"label": "*3", "atom_type": "Cd"}, "1": {"label": "*4", "atom_type": "Cd"}, "8": {"label": "*1", "atom_type": "Cs"}, "9": {"label": "*0", "atom_type": "Cs"}, "11": {"label": "*2", "atom_type": "H0"}}

>  <type>  (16) 
unop_12

>  <geom_source>  (16) 
Heuristics

$$$$

     RDKit          3D

 19 17  0  0  0  0  0  0  0  0999 V2000
    2.4793    0.1495   -0.5603 C   0  0  0  0  0  0  0  0  0  0  0  0
    2.7403    1.2011    0.5112 C   0  0  0  0  0  0  0  0  0  0  0  0
   -3.4744   -1.0591    0.5063 C   0  0  0  0  0  0  0  0  0  0  0  0
   -2.2122   -0.6334   -0.1771 C   0  0  0  0  0  0  0  0  0  0  0  0
    0.9873    0.0134   -0.8305 C   0  0  0  0  0  3  0  0  0  0  0  0
   -1.2374   -0.0169    0.4938 C   0  0  0  0  0  0  0  0  0  0  0  0
    2.8767   -0.8291   -0.2158 H   0  0  0  0  0  0  0  0  0  0  0  0
    3.0022    0.4353   -1.4984 H   0  0  0  0  0  0  0  0  0  0  0  0
    2.3735    2.1944    0.1748 H   0  0  0  0  0  0  0  0  0  0  0  0
    3.8315    1.2723    0.7041 H   0  0  0  0  0  0  0  0  0  0  0  0
    2.2287    0.9218    1.4571 H   0  0  0  0  0  0  0  0  0  0  0  0
   -3.9914   -0.1740    0.9335 H   0  0  0  0  0  0  0  0  0  0  0  0
   -4.1490   -1.5501   -0.2259 H   0  0  0  0  0  0  0  0  0  0  0  0
   -3.2414   -1.7792    1.3189 H   0  0  0  0  0  0  0  0  0  0  0  0
   -2.0863   -0.8292   -1.2374 H   0  0  0  0  0  0  0  0  0  0  0  0
    0.5785    0.9621   -1.2392 H   0  0  0  0  0  0  0  0  0  0  0  0
    0.8075   -0.8040   -1.5601 H   0  0  0  0  0  0  0  0  0  0  0  0
   -1.3352    0.1922    1.5550 H   0  0  0  0  0  0  0  0  0  0  0  0
   -0.1781    0.3331   -0.1100 H   0  0  0  0  0  0  0  0  0  0  0  0
  1  5  1  0
  1  2  1  0
  1  7  1  0
  1  8  1  0
  2  9  1  0
  2 10  1  0
  2 11  1  0
  3  4  1  0
  3 12  1  0
  3 13  1  0
  3 14  1  0
  4  6  2  3
  4 15  1  0
  5 16  1  0
  5 17  1  0
  6 18  1  0
  6 19  1  0
M  RAD  1   5   2
M  END
>  <reaction>  (17) 
rmg_rxn_513

>  <mol_properties>  (17) 
{"0": {"label": "*3", "atom_type": "Cd"}, "1": {"label": "*4", "atom_type": "Cd"}, "8": {"label": "*1", "atom_type": "Cs"}, "9": {"label": "*0", "atom_type": "Cs"}, "11": {"label": "*2", "atom_type": "H0"}}

>  <type>  (17) 
unop_13

>  <geom_source>  (17) 
AutoTST

$$$$

     RDKit          3D

 19 17  0  0  0  0  0  0  0  0999 V2000
   -0.4639    1.2449    0.1726 C   0  0  0  0  0  0  0  0  0  0  0  0
   -1.6085    0.6370   -0.0970 C   0  0  0  0  0  0  0  0  0  0  0  0
   -2.9416    1.3084   -0.1764 C   0  0  0  0  0  0  0  0  0  0  0  0
   -0.4206    2.3125    0.3606 H   0  0  0  0  0  0  0  0  0  0  0  0
   -1.6020   -0.4347   -0.2785 H   0  0  0  0  0  0  0  0  0  0  0  0
   -3.3885    1.1701   -1.1642 H   0  0  0  0  0  0  0  0  0  0  0  0
   -2.8611    2.3788    0.0175 H   0  0  0  0  0  0  0  0  0  0  0  0
   -3.6373    0.8786    0.5489 H   0  0  0  0  0  0  0  0  0  0  0  0
    1.6419   -0.0896    0.9470 C   0  0  0  0  0  3  0  0  0  0  0  0
    1.6419   -1.4954    0.3603 C   0  0  0  0  0  0  0  0  0  0  0  0
    1.6419   -1.4954   -1.1630 C   0  0  0  0  0  0  0  0  0  0  0  0
    0.5842    0.5807    0.5581 H   0  0  0  0  0  0  0  0  0  0  0  0
    2.5234    0.4690    0.6229 H   0  0  0  0  0  0  0  0  0  0  0  0
    1.6419   -0.1102    2.0381 H   0  0  0  0  0  0  0  0  0  0  0  0
    0.7674   -2.0417    0.7243 H   0  0  0  0  0  0  0  0  0  0  0  0
    2.5165   -2.0417    0.7243 H   0  0  0  0  0  0  0  0  0  0  0  0
    2.5234   -0.9811   -1.5536 H   0  0  0  0  0  0  0  0  0  0  0  0
    1.6419   -2.5103   -1.5642 H   0  0  0  0  0  0  0  0  0  0  0  0
    0.7605   -0.9811   -1.5536 H   0  0  0  0  0  0  0  0  0  0  0  0
  1  2  2  3
  1  4  1  0
  1 12  1  0
  2  3  1  0
  2  5  1  0
  3  6  1  0
  3  7  1  0
  3  8  1  0
  9 10  1  0
  9 13  1  0
  9 14  1  0
 10 11  1  0
 10 15  1  0
 10 16  1  0
 11 17  1  0
 11 18  1  0
 11 19  1  0
M  RAD  1   9   2
M  END
>  <reaction>  (18) 
rmg_rxn_513

>  <mol_properties>  (18) 
{"0": {"label": "*3", "atom_type": "Cd"}, "1": {"label": "*4", "atom_type": "Cd"}, "8": {"label": "*1", "atom_type": "Cs"}, "9": {"label": "*0", "atom_type": "Cs"}, "11": {"label": "*2", "atom_type": "H0"}}

>  <type>  (18) 
unop_14

>  <geom_source>  (18) 
gaussian_log

$$$$
