
     RDKit          3D

  9  8  0  0  0  0  0  0  0  0999 V2000
   -1.0434   -0.0834    0.0221 C   0  0  0  0  0  0  0  0  0  0  0  0
    0.4680   -0.2131    0.0785 C   0  0  0  0  0  0  0  0  0  0  0  0
    0.9450   -1.3136   -0.7058 N   0  0  0  0  0  2  0  0  0  0  0  0
   -1.5170   -0.9919    0.3960 H   0  0  0  0  0  0  0  0  0  0  0  0
   -1.3864    0.7592    0.6249 H   0  0  0  0  0  0  0  0  0  0  0  0
   -1.3736    0.0696   -1.0061 H   0  0  0  0  0  0  0  0  0  0  0  0
    0.8045   -0.3309    1.1214 H   0  0  0  0  0  0  0  0  0  0  0  0
    0.9463    0.7186   -0.2648 H   0  0  0  0  0  0  0  0  0  0  0  0
    1.9638   -1.3321   -0.6157 H   0  0  0  0  0  0  0  0  0  0  0  0
  1  2  1  0
  1  4  1  0
  1  5  1  0
  1  6  1  0
  2  3  1  0
  2  7  1  0
  2  8  1  0
  3  9  1  0
M  RAD  1   3   2
M  END
>  <reaction>  (1) 
rmg_rxn_4

>  <mol_properties>  (1) 
{"2": {"label": "donator", "atom_type": "N3s"}, "8": {"label": "d_hydrogen", "atom_type": "H0"}}

>  <type>  (1) 
r1h

$$$$

     RDKit          3D

  9  8  0  0  0  0  0  0  0  0999 V2000
    1.3246   -0.8124   -0.0809 C   0  0  0  0  0  2  0  0  0  0  0  0
    0.4082    0.3080    0.1518 C   0  0  0  0  0  0  0  0  0  0  0  0
   -1.0545   -0.0277   -0.1520 C   0  0  0  0  0  0  0  0  0  0  0  0
    2.3933   -0.9471    0.0203 H   0  0  0  0  0  0  0  0  0  0  0  0
    0.4898    0.6406    1.1970 H   0  0  0  0  0  0  0  0  0  0  0  0
    0.7134    1.1680   -0.4624 H   0  0  0  0  0  0  0  0  0  0  0  0
   -1.4014   -0.8515    0.4727 H   0  0  0  0  0  0  0  0  0  0  0  0
   -1.1767   -0.3214   -1.1952 H   0  0  0  0  0  0  0  0  0  0  0  0
   -1.6915    0.8372    0.0370 H   0  0  0  0  0  0  0  0  0  0  0  0
  1  2  1  0
  1  4  1  0
  2  3  1  0
  2  5  1  0
  2  6  1  0
  3  7  1  0
  3  8  1  0
  3  9  1  0
M  RAD  1   1   3
M  END
>  <reaction>  (2) 
rmg_rxn_4

>  <mol_properties>  (2) 
{"0": {"label": "acceptor", "atom_type": "Cs"}}

>  <type>  (2) 
r2

$$$$

     RDKit          3D

 10  9  0  0  0  0  0  0  0  0999 V2000
    1.3802    0.3101   -0.1184 C   0  0  0  0  0  3  0  0  0  0  0  0
    0.1674   -0.3214    0.4572 C   0  0  0  0  0  0  0  0  0  0  0  0
   -0.8660    0.6823    0.9569 C   0  0  0  0  0  0  0  0  0  0  0  0
    2.2617   -0.2782   -0.3355 H   0  0  0  0  0  0  0  0  0  0  0  0
    1.3734    1.3484   -0.4248 H   0  0  0  0  0  0  0  0  0  0  0  0
   -0.3013   -0.9748   -0.2947 H   0  0  0  0  0  0  0  0  0  0  0  0
    0.4543   -0.9974    1.2713 H   0  0  0  0  0  0  0  0  0  0  0  0
   -1.1928    1.3380    0.1470 H   0  0  0  0  0  0  0  0  0  0  0  0
   -1.7471    0.1781    1.3563 H   0  0  0  0  0  0  0  0  0  0  0  0
   -0.4486    1.3102    1.7464 H   0  0  0  0  0  0  0  0  0  0  0  0
  1  2  1  0
  1  4  1  0
  1  5  1  0
  2  3  1  0
  2  6  1  0
  2  7  1  0
  3  8  1  0
  3  9  1  0
  3 10  1  0
M  RAD  1   1   2
M  END
>  <reaction>  (3) 
rmg_rxn_4

>  <mol_properties>  (3) 
{"0": {"label": "a_hydrogen", "atom_type": "H0"}, "1": {"label": "acceptor", "atom_type": "Cs"}}

>  <type>  (3) 
r2h

$$$$

     RDKit          3D

 18 16  0  0  0  0  0  0  0  0999 V2000
   -0.2690   -0.2638   -2.9646 C   0  0  0  0  0  0  0  0  0  0  0  0
   -0.7435   -0.2862   -1.5192 C   0  0  0  0  0  0  0  0  0  0  0  0
   -0.2611    0.8413   -0.7815 N   0  0  0  0  0  2  0  0  0  0  0  0
    0.8202   -0.2945   -3.0101 H   0  0  0  0  0  0  0  0  0  0  0  0
   -0.6618   -1.1229   -3.5114 H   0  0  0  0  0  0  0  0  0  0  0  0
   -0.6032    0.6466   -3.4628 H   0  0  0  0  0  0  0  0  0  0  0  0
   -0.4401   -1.2201   -1.0207 H   0  0  0  0  0  0  0  0  0  0  0  0
   -1.8445   -0.2900   -1.4745 H   0  0  0  0  0  0  0  0  0  0  0  0
   -0.6514    0.5863    0.2839 H   0  0  0  0  0  0  0  0  0  0  0  0
   -0.6510    0.5403    1.6969 C   0  0  0  0  0  2  0  0  0  0  0  0
    0.6653    0.1475    2.2386 C   0  0  0  0  0  0  0  0  0  0  0  0
    1.2290   -1.1614    1.7022 C   0  0  0  0  0  0  0  0  0  0  0  0
   -0.9460    1.5426    2.0337 H   0  0  0  0  0  0  0  0  0  0  0  0
    1.3938    0.9623    2.1182 H   0  0  0  0  0  0  0  0  0  0  0  0
    0.5107    0.0866    3.3283 H   0  0  0  0  0  0  0  0  0  0  0  0
    1.4610   -1.0667    0.6400 H   0  0  0  0  0  0  0  0  0  0  0  0
    0.5058   -1.9698    1.8196 H   0  0  0  0  0  0  0  0  0  0  0  0
    2.1471   -1.4411    2.2208 H   0  0  0  0  0  0  0  0  0  0  0  0
  1  2  1  0
  1  4  1  0
  1  5  1  0
  1  6  1  0
  2  3  1  0
  2  7  1  0
  2  8  1  0
  3  9  1  0
 10 11  1  0
 10 13  1  0
 11 12  1  0
 11 14  1  0
 11 15  1  0
 12 16  1  0
 12 17  1  0
 12 18  1  0
M  RAD  2   3   2  10   3
M  END
>  <reaction>  (4) 
rmg_rxn_4

>  <mol_properties>  (4) 
{"1": {"label": "*0", "atom_type": "Cs"}, "2": {"label": "*1", "atom_type": "N3s"}, "8": {"label": "*2", "atom_type": "H0"}, "9": {"label": "*3", "atom_type": "Cs"}, "10": {"label": "*4", "atom_type": "Cs"}}

>  <type>  (4) 
ts

$$$$

     RDKit          3D

 18 16  0  0  0  0  0  0  0  0999 V2000
   -0.6070   -0.8521   -3.0851 C   0  0  0  0  0  0  0  0  0  0  0  0
   -0.6070   -0.8521   -1.5671 C   0  0  0  0  0  0  0  0  0  0  0  0
   -0.6070    0.4754   -1.0274 N   0  0  0  0  0  2  0  0  0  0  0  0
    0.2752   -0.3357   -3.4652 H   0  0  0  0  0  0  0  0  0  0  0  0
   -0.6070   -1.8710   -3.4762 H   0  0  0  0  0  0  0  0  0  0  0  0
   -1.4893   -0.3357   -3.4652 H   0  0  0  0  0  0  0  0  0  0  0  0
    0.2652   -1.4059   -1.1832 H   0  0  0  0  0  0  0  0  0  0  0  0
   -1.4793   -1.4059   -1.1832 H   0  0  0  0  0  0  0  0  0  0  0  0
   -0.6070    0.3719    0.1958 H   0  0  0  0  0  0  0  0  0  0  0  0
   -0.6070    0.2623    1.4903 C   0  0  0  0  0  2  0  0  0  0  0  0
    0.4959    0.8326    2.3022 C   0  0  0  0  0  0  0  0  0  0  0  0
    1.8540    0.1999    2.0191 C   0  0  0  0  0  0  0  0  0  0  0  0
   -1.6396    0.4865    1.7223 H   0  0  0  0  0  0  0  0  0  0  0  0
    0.5616    1.9174    2.1263 H   0  0  0  0  0  0  0  0  0  0  0  0
    0.2561    0.7389    3.3681 H   0  0  0  0  0  0  0  0  0  0  0  0
    2.1264    0.3206    0.9684 H   0  0  0  0  0  0  0  0  0  0  0  0
    1.8386   -0.8692    2.2388 H   0  0  0  0  0  0  0  0  0  0  0  0
    2.6382    0.6580    2.6234 H   0  0  0  0  0  0  0  0  0  0  0  0
  1  2  1  0
  1  4  1  0
  1  5  1  0
  1  6  1  0
  2  3  1  0
  2  7  1  0
  2  8  1  0
  3  9  1  0
 10 11  1  0
 10 13  1  0
 11 12  1  0
 11 14  1  0
 11 15  1  0
 12 16  1  0
 12 17  1  0
 12 18  1  0
M  RAD  2   3   2  10   3
M  END
>  <reaction>  (5) 
rmg_rxn_4

>  <mol_properties>  (5) 
{"1": {"label": "*0", "atom_type": "Cs"}, "2": {"label": "*1", "atom_type": "N3s"}, "8": {"label": "*2", "atom_type": "H0"}, "9": {"label": "*3", "atom_type": "Cs"}, "10": {"label": "*4", "atom_type": "Cs"}}

>  <type>  (5) 
unop_1

>  <geom_source>  (5) 
Heuristics

$$$$

     RDKit          3D

 18 16  0  0  0  0  0  0  0  0999 V2000
   -0.1932   -0.1420   -2.9523 C   0  0  0  0  0  0  0  0  0  0  0  0
   -0.1932   -0.1420   -1.4343 C   0  0  0  0  0  0  0  0  0  0  0  0
   -0.1932    1.1856   -0.8945 N   0  0  0  0  0  2  0  0  0  0  0  0
    0.6890    0.3745   -3.3323 H   0  0  0  0  0  0  0  0  0  0  0  0
   -0.1932   -1.1608   -3.3433 H   0  0  0  0  0  0  0  0  0  0  0  0
   -1.0755    0.3745   -3.3323 H   0  0  0  0  0  0  0  0  0  0  0  0
    0.6790   -0.6957   -1.0504 H   0  0  0  0  0  0  0  0  0  0  0  0
   -1.0655   -0.6957   -1.0504 H   0  0  0  0  0  0  0  0  0  0  0  0
   -0.1932    1.0821    0.3287 H   0  0  0  0  0  0  0  0  0  0  0  0
   -0.1932    0.9725    1.6231 C   0  0  0  0  0  2  0  0  0  0  0  0
    0.4435   -0.1906    2.2884 C   0  0  0  0  0  0  0  0  0  0  0  0
    0.2923   -1.4958    1.5147 C   0  0  0  0  0  0  0  0  0  0  0  0
   -0.3215    1.9096    2.1480 H   0  0  0  0  0  0  0  0  0  0  0  0
    1.5143    0.0128    2.4432 H   0  0  0  0  0  0  0  0  0  0  0  0
    0.0347   -0.3071    3.2991 H   0  0  0  0  0  0  0  0  0  0  0  0
    0.7315   -1.4091    0.5185 H   0  0  0  0  0  0  0  0  0  0  0  0
   -0.7608   -1.7564    1.3932 H   0  0  0  0  0  0  0  0  0  0  0  0
    0.7876   -2.3207    2.0287 H   0  0  0  0  0  0  0  0  0  0  0  0
  1  2  1  0
  1  4  1  0
  1  5  1  0
  1  6  1  0
  2  3  1  0
  2  7  1  0
  2  8  1  0
  3  9  1  0
 10 11  1  0
 10 13  1  0
 11 12  1  0
 11 14  1  0
 11 15  1  0
 12 16  1  0
 12 17  1  0
 12 18  1  0
M  RAD  2   3   2  10   3
M  END
>  <reaction>  (6) 
rmg_rxn_4

>  <mol_properties>  (6) 
{"1": {"label": "*0", "atom_type": "Cs"}, "2": {"label": "*1", "atom_type": "N3s"}, "8": {"label": "*2", "atom_type": "H0"}, "9": {"label": "*3", "atom_type": "Cs"}, "10": {"label": "*4", "atom_type": "Cs"}}

>  <type>  (6) 
unop_2

>  <geom_source>  (6) 
Heuristics

$$$$

     RDKit          3D

 18 16  0  0  0  0  0  0  0  0999 V2000
   -0.4631   -1.1641   -3.0858 C   0  0  0  0  0  0  0  0  0  0  0  0
   -0.4631   -1.1641   -1.5678 C   0  0  0  0  0  0  0  0  0  0  0  0
   -0.4631    0.1635   -1.0281 N   0  0  0  0  0  2  0  0  0  0  0  0
    0.4192   -0.6476   -3.4659 H   0  0  0  0  0  0  0  0  0  0  0  0
   -0.4631   -2.1830   -3.4769 H   0  0  0  0  0  0  0  0  0  0  0  0
   -1.3453   -0.6476   -3.4659 H   0  0  0  0  0  0  0  0  0  0  0  0
    0.4092   -1.7178   -1.1839 H   0  0  0  0  0  0  0  0  0  0  0  0
   -1.3353   -1.7178   -1.1839 H   0  0  0  0  0  0  0  0  0  0  0  0
   -0.4631    0.0599    0.1951 H   0  0  0  0  0  0  0  0  0  0  0  0
   -0.4631   -0.0496    1.4896 C   0  0  0  0  0  2  0  0  0  0  0  0
    0.1737    0.9852    2.3408 C   0  0  0  0  0  0  0  0  0  0  0  0
    1.6294    1.2619    1.9812 C   0  0  0  0  0  0  0  0  0  0  0  0
   -1.4233   -0.4715    1.7544 H   0  0  0  0  0  0  0  0  0  0  0  0
   -0.3978    1.9235    2.2717 H   0  0  0  0  0  0  0  0  0  0  0  0
    0.0994    0.6928    3.3950 H   0  0  0  0  0  0  0  0  0  0  0  0
    1.7161    1.5939    0.9443 H   0  0  0  0  0  0  0  0  0  0  0  0
    2.2363    0.3617    2.0949 H   0  0  0  0  0  0  0  0  0  0  0  0
    2.0541    2.0387    2.6185 H   0  0  0  0  0  0  0  0  0  0  0  0
  1  2  1  0
  1  4  1  0
  1  5  1  0
  1  6  1  0
  2  3  1  0
  2  7  1  0
  2  8  1  0
  3  9  1  0
 10 11  1  0
 10 13  1  0
 11 12  1  0
 11 14  1  0
 11 15  1  0
 12 16  1  0
 12 17  1  0
 12 18  1  0
M  RAD  2   3   2  10   3
M  END
>  <reaction>  (7) 
rmg_rxn_4

>  <mol_properties>  (7) 
{"1": {"label": "*0", "atom_type": "Cs"}, "2": {"label": "*1", "atom_type": "N3s"}, "8": {"label": "*2", "atom_type": "H0"}, "9": {"label": "*3", "atom_type": "Cs"}, "10": {"label": "*4", "atom_type": "Cs"}}

>  <type>  (7) 
unop_3

>  <geom_source>  (7) 
Heuristics

$$$$

     RDKit          3D

 18 16  0  0  0  0  0  0  0  0999 V2000
    0.5292   -0.3826   -2.9400 C   0  0  0  0  0  0  0  0  0  0  0  0
    0.5292   -0.3826   -1.4220 C   0  0  0  0  0  0  0  0  0  0  0  0
    0.5292    0.9449   -0.8823 N   0  0  0  0  0  2  0  0  0  0  0  0
    1.4115    0.1338   -3.3201 H   0  0  0  0  0  0  0  0  0  0  0  0
    0.5292   -1.4015   -3.3311 H   0  0  0  0  0  0  0  0  0  0  0  0
   -0.3530    0.1338   -3.3201 H   0  0  0  0  0  0  0  0  0  0  0  0
    1.4015   -0.9363   -1.0381 H   0  0  0  0  0  0  0  0  0  0  0  0
   -0.3430   -0.9363   -1.0381 H   0  0  0  0  0  0  0  0  0  0  0  0
    0.5292    0.8414    0.3409 H   0  0  0  0  0  0  0  0  0  0  0  0
    0.5292    0.7318    1.6354 C   0  0  0  0  0  2  0  0  0  0  0  0
   -0.5737    0.0332    2.3400 C   0  0  0  0  0  0  0  0  0  0  0  0
   -1.4554   -0.8025    1.4185 C   0  0  0  0  0  0  0  0  0  0  0  0
    1.1083    1.4977    2.1338 H   0  0  0  0  0  0  0  0  0  0  0  0
   -0.1575   -0.6167    3.1250 H   0  0  0  0  0  0  0  0  0  0  0  0
   -1.1869    0.7634    2.8812 H   0  0  0  0  0  0  0  0  0  0  0  0
   -0.8654   -1.5625    0.9016 H   0  0  0  0  0  0  0  0  0  0  0  0
   -1.9298   -0.1763    0.6606 H   0  0  0  0  0  0  0  0  0  0  0  0
   -2.2420   -1.3115    1.9773 H   0  0  0  0  0  0  0  0  0  0  0  0
  1  2  1  0
  1  4  1  0
  1  5  1  0
  1  6  1  0
  2  3  1  0
  2  7  1  0
  2  8  1  0
  3  9  1  0
 10 11  1  0
 10 13  1  0
 11 12  1  0
 11 14  1  0
 11 15  1  0
 12 16  1  0
 12 17  1  0
 12 18  1  0
M  RAD  2   3   2  10   3
M  END
>  <reaction>  (8) 
rmg_rxn_4

>  <mol_properties>  (8) 
{"1": {"label": "*0", "atom_type": "Cs"}, "2": {"label": "*1", "atom_type": "N3s"}, "8": {"label": "*2", "atom_type": "H0"}, "9": {"label": "*3", "atom_type": "Cs"}, "10": {"label": "*4", "atom_type": "Cs"}}

>  <type>  (8) 
unop_4

>  <geom_source>  (8) 
Heuristics

$$$$

     RDKit          3D

 18 16  0  0  0  0  0  0  0  0999 V2000
   -0.0732   -1.3897   -3.0295 C   0  0  0  0  0  0  0  0  0  0  0  0
   -0.0732   -1.3897   -1.5116 C   0  0  0  0  0  0  0  0  0  0  0  0
   -0.0732   -0.0621   -0.9718 N   0  0  0  0  0  2  0  0  0  0  0  0
    0.8090   -0.8732   -3.4096 H   0  0  0  0  0  0  0  0  0  0  0  0
   -0.0732   -2.4086   -3.4206 H   0  0  0  0  0  0  0  0  0  0  0  0
   -0.9554   -0.8732   -3.4096 H   0  0  0  0  0  0  0  0  0  0  0  0
    0.7990   -1.9434   -1.1276 H   0  0  0  0  0  0  0  0  0  0  0  0
   -0.9454   -1.9434   -1.1276 H   0  0  0  0  0  0  0  0  0  0  0  0
   -0.0732   -0.1657    0.2514 H   0  0  0  0  0  0  0  0  0  0  0  0
   -0.0732   -0.2752    1.5459 C   0  0  0  0  0  2  0  0  0  0  0  0
   -0.0732    0.9296    2.4115 C   0  0  0  0  0  0  0  0  0  0  0  0
    0.3552    2.2019    1.6886 C   0  0  0  0  0  0  0  0  0  0  0  0
   -0.1740   -1.2643    1.9722 H   0  0  0  0  0  0  0  0  0  0  0  0
   -1.0776    1.0792    2.8367 H   0  0  0  0  0  0  0  0  0  0  0  0
    0.5729    0.7594    3.2809 H   0  0  0  0  0  0  0  0  0  0  0  0
   -0.3043    2.4080    0.8428 H   0  0  0  0  0  0  0  0  0  0  0  0
    1.3720    2.1069    1.3031 H   0  0  0  0  0  0  0  0  0  0  0  0
    0.3256    3.0652    2.3549 H   0  0  0  0  0  0  0  0  0  0  0  0
  1  2  1  0
  1  4  1  0
  1  5  1  0
  1  6  1  0
  2  3  1  0
  2  7  1  0
  2  8  1  0
  3  9  1  0
 10 11  1  0
 10 13  1  0
 11 12  1  0
 11 14  1  0
 11 15  1  0
 12 16  1  0
 12 17  1  0
 12 18  1  0
M  RAD  2   3   2  10   3
M  END
>  <reaction>  (9) 
rmg_rxn_4

>  <mol_properties>  (9) 
{"1": {"label": "*0", "atom_type": "Cs"}, "2": {"label": "*1", "atom_type": "N3s"}, "8": {"label": "*2", "atom_type": "H0"}, "9": {"label": "*3", "atom_type": "Cs"}, "10": {"label": "*4", "atom_type": "Cs"}}

>  <type>  (9) 
unop_5

>  <geom_source>  (9) 
Heuristics

$$$$

     RDKit          3D

 18 16  0  0  0  0  0  0  0  0999 V2000
    0.6370   -0.6580   -2.9741 C   0  0  0  0  0  0  0  0  0  0  0  0
    0.6370   -0.6580   -1.4561 C   0  0  0  0  0  0  0  0  0  0  0  0
    0.6370    0.6695   -0.9164 N   0  0  0  0  0  2  0  0  0  0  0  0
    1.5192   -0.1415   -3.3542 H   0  0  0  0  0  0  0  0  0  0  0  0
    0.6370   -1.6769   -3.3652 H   0  0  0  0  0  0  0  0  0  0  0  0
   -0.2452   -0.1415   -3.3542 H   0  0  0  0  0  0  0  0  0  0  0  0
    1.5092   -1.2117   -1.0722 H   0  0  0  0  0  0  0  0  0  0  0  0
   -0.2352   -1.2117   -1.0722 H   0  0  0  0  0  0  0  0  0  0  0  0
    0.6370    0.5660    0.3069 H   0  0  0  0  0  0  0  0  0  0  0  0
    0.6370    0.4564    1.6013 C   0  0  0  0  0  2  0  0  0  0  0  0
   -0.6365    0.3923    2.3596 C   0  0  0  0  0  0  0  0  0  0  0  0
   -1.8158   -0.1084    1.5328 C   0  0  0  0  0  0  0  0  0  0  0  0
    1.5001    0.9653    2.0092 H   0  0  0  0  0  0  0  0  0  0  0  0
   -0.5113   -0.2597    3.2377 H   0  0  0  0  0  0  0  0  0  0  0  0
   -0.8671    1.3792    2.7780 H   0  0  0  0  0  0  0  0  0  0  0  0
   -1.6182   -1.1089    1.1419 H   0  0  0  0  0  0  0  0  0  0  0  0
   -2.0030    0.5506    0.6830 H   0  0  0  0  0  0  0  0  0  0  0  0
   -2.7270   -0.1562    2.1308 H   0  0  0  0  0  0  0  0  0  0  0  0
  1  2  1  0
  1  4  1  0
  1  5  1  0
  1  6  1  0
  2  3  1  0
  2  7  1  0
  2  8  1  0
  3  9  1  0
 10 11  1  0
 10 13  1  0
 11 12  1  0
 11 14  1  0
 11 15  1  0
 12 16  1  0
 12 17  1  0
 12 18  1  0
M  RAD  2   3   2  10   3
M  END
>  <reaction>  (10) 
rmg_rxn_4

>  <mol_properties>  (10) 
{"1": {"label": "*0", "atom_type": "Cs"}, "2": {"label": "*1", "atom_type": "N3s"}, "8": {"label": "*2", "atom_type": "H0"}, "9": {"label": "*3", "atom_type": "Cs"}, "10": {"label": "*4", "atom_type": "Cs"}}

>  <type>  (10) 
unop_6

>  <geom_source>  (10) 
Heuristics

$$$$

     RDKit          3D

 18 16  0  0  0  0  0  0  0  0999 V2000
    0.6017   -0.9752   -3.0059 C   0  0  0  0  0  0  0  0  0  0  0  0
    0.6017   -0.9752   -1.4880 C   0  0  0  0  0  0  0  0  0  0  0  0
    0.6017    0.3523   -0.9482 N   0  0  0  0  0  2  0  0  0  0  0  0
    1.4839   -0.4588   -3.3860 H   0  0  0  0  0  0  0  0  0  0  0  0
    0.6017   -1.9941   -3.3970 H   0  0  0  0  0  0  0  0  0  0  0  0
   -0.2805   -0.4588   -3.3860 H   0  0  0  0  0  0  0  0  0  0  0  0
    1.4739   -1.5289   -1.1040 H   0  0  0  0  0  0  0  0  0  0  0  0
   -0.2706   -1.5289   -1.1040 H   0  0  0  0  0  0  0  0  0  0  0  0
    0.6017    0.2488    0.2750 H   0  0  0  0  0  0  0  0  0  0  0  0
    0.6017    0.1392    1.5695 C   0  0  0  0  0  2  0  0  0  0  0  0
   -0.5012    0.7095    2.3814 C   0  0  0  0  0  0  0  0  0  0  0  0
   -1.8280    0.7970    1.6350 C   0  0  0  0  0  0  0  0  0  0  0  0
    1.6268    0.1940    1.9104 H   0  0  0  0  0  0  0  0  0  0  0  0
   -0.6405    0.1060    3.2915 H   0  0  0  0  0  0  0  0  0  0  0  0
   -0.2141    1.7020    2.7486 H   0  0  0  0  0  0  0  0  0  0  0  0
   -2.1487   -0.1909    1.2974 H   0  0  0  0  0  0  0  0  0  0  0  0
   -1.7382    1.4370    0.7554 H   0  0  0  0  0  0  0  0  0  0  0  0
   -2.6143    1.2053    2.2714 H   0  0  0  0  0  0  0  0  0  0  0  0
  1  2  1  0
  1  4  1  0
  1  5  1  0
  1  6  1  0
  2  3  1  0
  2  7  1  0
  2  8  1  0
  3  9  1  0
 10 11  1  0
 10 13  1  0
 11 12  1  0
 11 14  1  0
 11 15  1  0
 12 16  1  0
 12 17  1  0
 12 18  1  0
M  RAD  2   3   2  10   3
M  END
>  <reaction>  (11) 
rmg_rxn_4

>  <mol_properties>  (11) 
{"1": {"label": "*0", "atom_type": "Cs"}, "2": {"label": "*1", "atom_type": "N3s"}, "8": {"label": "*2", "atom_type": "H0"}, "9": {"label": "*3", "atom_type": "Cs"}, "10": {"label": "*4", "atom_type": "Cs"}}

>  <type>  (11) 
unop_7

>  <geom_source>  (11) 
Heuristics

$$$$

     RDKit          3D

 18 16  0  0  0  0  0  0  0  0999 V2000
   -0.5868   -0.5423   -3.0485 C   0  0  0  0  0  0  0  0  0  0  0  0
   -0.5868   -0.5423   -1.5305 C   0  0  0  0  0  0  0  0  0  0  0  0
   -0.5868    0.7852   -0.9908 N   0  0  0  0  0  2  0  0  0  0  0  0
    0.2954   -0.0258   -3.4286 H   0  0  0  0  0  0  0  0  0  0  0  0
   -0.5868   -1.5612   -3.4396 H   0  0  0  0  0  0  0  0  0  0  0  0
   -1.4691   -0.0258   -3.4286 H   0  0  0  0  0  0  0  0  0  0  0  0
    0.2854   -1.0960   -1.1466 H   0  0  0  0  0  0  0  0  0  0  0  0
   -1.4591   -1.0960   -1.1466 H   0  0  0  0  0  0  0  0  0  0  0  0
   -0.5868    0.6817    0.2324 H   0  0  0  0  0  0  0  0  0  0  0  0
   -0.5868    0.5722    1.5269 C   0  0  0  0  0  2  0  0  0  0  0  0
    0.6867    0.5080    2.2851 C   0  0  0  0  0  0  0  0  0  0  0  0
    1.5726   -0.6698    1.8939 C   0  0  0  0  0  0  0  0  0  0  0  0
   -1.3809    1.2403    1.8323 H   0  0  0  0  0  0  0  0  0  0  0  0
    1.2494    1.4433    2.1423 H   0  0  0  0  0  0  0  0  0  0  0  0
    0.4747    0.4737    3.3604 H   0  0  0  0  0  0  0  0  0  0  0  0
    1.8267   -0.6279    0.8325 H   0  0  0  0  0  0  0  0  0  0  0  0
    1.0634   -1.6177    2.0777 H   0  0  0  0  0  0  0  0  0  0  0  0
    2.5040   -0.6707    2.4618 H   0  0  0  0  0  0  0  0  0  0  0  0
  1  2  1  0
  1  4  1  0
  1  5  1  0
  1  6  1  0
  2  3  1  0
  2  7  1  0
  2  8  1  0
  3  9  1  0
 10 11  1  0
 10 13  1  0
 11 12  1  0
 11 14  1  0
 11 15  1  0
 12 16  1  0
 12 17  1  0
 12 18  1  0
M  RAD  2   3   2  10   3
M  END
>  <reaction>  (12) 
rmg_rxn_4

>  <mol_properties>  (12) 
{"1": {"label": "*0", "atom_type": "Cs"}, "2": {"label": "*1", "atom_type": "N3s"}, "8": {"label": "*2", "atom_type": "H0"}, "9": {"label": "*3", "atom_type": "Cs"}, "10": {"label": "*4", "atom_type": "Cs"}}

>  <type>  (12) 
unop_8

>  <geom_source>  (12) 
Heuristics

$$$$

     RDKit          3D

 18 16  0  0  0  0  0  0  0  0999 V2000
    0.3255   -0.1949   -2.9182 C   0  0  0  0  0  0  0  0  0  0  0  0
    0.3255   -0.1949   -1.4003 C   0  0  0  0  0  0  0  0  0  0  0  0
    0.3255    1.1327   -0.8605 N   0  0  0  0  0  2  0  0  0  0  0  0
    1.2077    0.3216   -3.2983 H   0  0  0  0  0  0  0  0  0  0  0  0
    0.3255   -1.2138   -3.3093 H   0  0  0  0  0  0  0  0  0  0  0  0
   -0.5568    0.3216   -3.2983 H   0  0  0  0  0  0  0  0  0  0  0  0
    1.1977   -0.7486   -1.0163 H   0  0  0  0  0  0  0  0  0  0  0  0
   -0.5468   -0.7486   -1.0163 H   0  0  0  0  0  0  0  0  0  0  0  0
    0.3255    1.0292    0.3627 H   0  0  0  0  0  0  0  0  0  0  0  0
    0.3255    0.9196    1.6572 C   0  0  0  0  0  2  0  0  0  0  0  0
   -0.3113   -0.2436    2.3224 C   0  0  0  0  0  0  0  0  0  0  0  0
   -0.9337   -1.2391    1.3495 C   0  0  0  0  0  0  0  0  0  0  0  0
    0.6358    1.7839    2.2289 H   0  0  0  0  0  0  0  0  0  0  0  0
    0.4318   -0.7661    2.9442 H   0  0  0  0  0  0  0  0  0  0  0  0
   -1.0694    0.1070    3.0327 H   0  0  0  0  0  0  0  0  0  0  0  0
   -0.1819   -1.6291    0.6600 H   0  0  0  0  0  0  0  0  0  0  0  0
   -1.7170   -0.7648    0.7553 H   0  0  0  0  0  0  0  0  0  0  0  0
   -1.3755   -2.0854    1.8774 H   0  0  0  0  0  0  0  0  0  0  0  0
  1  2  1  0
  1  4  1  0
  1  5  1  0
  1  6  1  0
  2  3  1  0
  2  7  1  0
  2  8  1  0
  3  9  1  0
 10 11  1  0
 10 13  1  0
 11 12  1  0
 11 14  1  0
 11 15  1  0
 12 16  1  0
 12 17  1  0
 12 18  1  0
M  RAD  2   3   2  10   3
M  END
>  <reaction>  (13) 
rmg_rxn_4

>  <mol_properties>  (13) 
{"1": {"label": "*0", "atom_type": "Cs"}, "2": {"label": "*1", "atom_type": "N3s"}, "8": {"label": "*2", "atom_type": "H0"}, "9": {"label": "*3", "atom_type": "Cs"}, "10": {"label": "*4", "atom_type": "Cs"}}

>  <type>  (13) 
unop_9

>  <geom_source>  (13) 
Heuristics

$$$$

     RDKit          3D

 18 16  0  0  0  0  0  0  0  0999 V2000
   -0.4326   -0.2901   -2.9995 C   0  0  0  0  0  0  0  0  0  0  0  0
   -0.4326   -0.2901   -1.4815 C   0  0  0  0  0  0  0  0  0  0  0  0
   -0.4326    1.0375   -0.9418 N   0  0  0  0  0  2  0  0  0  0  0  0
    0.4496    0.2264   -3.3796 H   0  0  0  0  0  0  0  0  0  0  0  0
   -0.4326   -1.3090   -3.3906 H   0  0  0  0  0  0  0  0  0  0  0  0
   -1.3148    0.2264   -3.3796 H   0  0  0  0  0  0  0  0  0  0  0  0
    0.4396   -0.8438   -1.0976 H   0  0  0  0  0  0  0  0  0  0  0  0
   -1.3048   -0.8438   -1.0976 H   0  0  0  0  0  0  0  0  0  0  0  0
   -0.4326    0.9339    0.2814 H   0  0  0  0  0  0  0  0  0  0  0  0
   -0.4326    0.8244    1.5759 C   0  0  0  0  0  2  0  0  0  0  0  0
    0.6703    0.1257    2.2804 C   0  0  0  0  0  0  0  0  0  0  0  0
    0.9866   -1.2514    1.7072 C   0  0  0  0  0  0  0  0  0  0  0  0
   -0.8786    1.7176    1.9924 H   0  0  0  0  0  0  0  0  0  0  0  0
    1.5798    0.7451    2.2491 H   0  0  0  0  0  0  0  0  0  0  0  0
    0.4307    0.0393    3.3469 H   0  0  0  0  0  0  0  0  0  0  0  0
    1.2671   -1.1779    0.6543 H   0  0  0  0  0  0  0  0  0  0  0  0
    0.1190   -1.9102    1.7759 H   0  0  0  0  0  0  0  0  0  0  0  0
    1.8123   -1.7229    2.2419 H   0  0  0  0  0  0  0  0  0  0  0  0
  1  2  1  0
  1  4  1  0
  1  5  1  0
  1  6  1  0
  2  3  1  0
  2  7  1  0
  2  8  1  0
  3  9  1  0
 10 11  1  0
 10 13  1  0
 11 12  1  0
 11 14  1  0
 11 15  1  0
 12 16  1  0
 12 17  1  0
 12 18  1  0
M  RAD  2   3   2  10   3
M  END
>  <reaction>  (14) 
rmg_rxn_4

>  <mol_properties>  (14) 
{"1": {"label": "*0", "atom_type": "Cs"}, "2": {"label": "*1", "atom_type": "N3s"}, "8": {"label": "*2", "atom_type": "H0"}, "9": {"label": "*3", "atom_type": "Cs"}, "10": {"label": "*4", "atom_type": "Cs"}}

>  <type>  (14) 
unop_10

>  <geom_source>  (14) 
Heuristics

$$$$

     RDKit          3D

 18 16  0  0  0  0  0  0  0  0999 V2000
    0.3838   -1.2677   -3.0192 C   0  0  0  0  0  0  0  0  0  0  0  0
    0.3838   -1.2677   -1.5012 C   0  0  0  0  0  0  0  0  0  0  0  0
    0.3838    0.0599   -0.9615 N   0  0  0  0  0  2  0  0  0  0  0  0
    1.2661   -0.7512   -3.3993 H   0  0  0  0  0  0  0  0  0  0  0  0
    0.3838   -2.2865   -3.4103 H   0  0  0  0  0  0  0  0  0  0  0  0
   -0.4984   -0.7512   -3.3993 H   0  0  0  0  0  0  0  0  0  0  0  0
    1.2561   -1.8214   -1.1173 H   0  0  0  0  0  0  0  0  0  0  0  0
   -0.4884   -1.8214   -1.1173 H   0  0  0  0  0  0  0  0  0  0  0  0
    0.3838   -0.0436    0.2617 H   0  0  0  0  0  0  0  0  0  0  0  0
    0.3838   -0.1532    1.5562 C   0  0  0  0  0  2  0  0  0  0  0  0
   -0.2529    0.8816    2.4075 C   0  0  0  0  0  0  0  0  0  0  0  0
   -1.2449    1.7643    1.6580 C   0  0  0  0  0  0  0  0  0  0  0  0
    1.2350   -0.7176    1.9127 H   0  0  0  0  0  0  0  0  0  0  0  0
   -0.7686    0.3993    3.2521 H   0  0  0  0  0  0  0  0  0  0  0  0
    0.5207    1.5032    2.8737 H   0  0  0  0  0  0  0  0  0  0  0  0
   -2.0455    1.1634    1.2212 H   0  0  0  0  0  0  0  0  0  0  0  0
   -0.7513    2.3024    0.8466 H   0  0  0  0  0  0  0  0  0  0  0  0
   -1.7017    2.4992    2.3223 H   0  0  0  0  0  0  0  0  0  0  0  0
  1  2  1  0
  1  4  1  0
  1  5  1  0
  1  6  1  0
  2  3  1  0
  2  7  1  0
  2  8  1  0
  3  9  1  0
 10 11  1  0
 10 13  1  0
 11 12  1  0
 11 14  1  0
 11 15  1  0
 12 16  1  0
 12 17  1  0
 12 18  1  0
M  RAD  2   3   2  10   3
M  END
>  <reaction>  (15) 
rmg_rxn_4

>  <mol_properties>  (15) 
{"1": {"label": "*0", "atom_type": "Cs"}, "2": {"label": "*1", "atom_type": "N3s"}, "8": {"label": "*2", "atom_type": "H0"}, "9": {"label": "*3", "atom_type": "Cs"}, "10": {"label": "*4", "atom_type": "Cs"}}

>  <type>  (15) 
unop_11

>  <geom_source>  (15) 
Heuristics

$$$$

     RDKit          3D

 18 16  0  0  0  0  0  0  0  0999 V2000
    0.0732   -0.1125   -2.9214 C   0  0  0  0  0  0  0  0  0  0  0  0
    0.0732   -0.1125   -1.4035 C   0  0  0  0  0  0  0  0  0  0  0  0
    0.0732    1.2150   -0.8637 N   0  0  0  0  0  2  0  0  0  0  0  0
    0.9554    0.4039   -3.3015 H   0  0  0  0  0  0  0  0  0  0  0  0
    0.0732   -1.1314   -3.3125 H   0  0  0  0  0  0  0  0  0  0  0  0
   -0.8090    0.4039   -3.3015 H   0  0  0  0  0  0  0  0  0  0  0  0
    0.9454   -0.6662   -1.0195 H   0  0  0  0  0  0  0  0  0  0  0  0
   -0.7990   -0.6662   -1.0195 H   0  0  0  0  0  0  0  0  0  0  0  0
    0.0732    1.1115    0.3595 H   0  0  0  0  0  0  0  0  0  0  0  0
    0.0732    1.0019    1.6540 C   0  0  0  0  0  2  0  0  0  0  0  0
    0.0732   -0.3312    2.3048 C   0  0  0  0  0  0  0  0  0  0  0  0
   -0.3552   -1.4640    1.3783 C   0  0  0  0  0  0  0  0  0  0  0  0
    0.1740    1.9053    2.2405 H   0  0  0  0  0  0  0  0  0  0  0  0
    1.0776   -0.5502    2.6987 H   0  0  0  0  0  0  0  0  0  0  0  0
   -0.5729   -0.3096    3.1904 H   0  0  0  0  0  0  0  0  0  0  0  0
    0.3043   -1.5250    0.5099 H   0  0  0  0  0  0  0  0  0  0  0  0
   -1.3720   -1.3055    1.0142 H   0  0  0  0  0  0  0  0  0  0  0  0
   -0.3256   -2.4270    1.8900 H   0  0  0  0  0  0  0  0  0  0  0  0
  1  2  1  0
  1  4  1  0
  1  5  1  0
  1  6  1  0
  2  3  1  0
  2  7  1  0
  2  8  1  0
  3  9  1  0
 10 11  1  0
 10 13  1  0
 11 12  1  0
 11 14  1  0
 11 15  1  0
 12 16  1  0
 12 17  1  0
 12 18  1  0
M  RAD  2   3   2  10   3
M  END
>  <reaction>  (16) 
rmg_rxn_4

>  <mol_properties>  (16) 
{"1": {"label": "*0", "atom_type": "Cs"}, "2": {"label": "*1", "atom_type": "N3s"}, "8": {"label": "*2", "atom_type": "H0"}, "9": {"label": "*3", "atom_type": "Cs"}, "10": {"label": "*4", "atom_type": "Cs"}}

>  <type>  (16) 
unop_12

>  <geom_source>  (16) 
Heuristics

$$$$

     RDKit          3D

 18 16  0  0  0  0  0  0  0  0999 V2000
   -0.1932   -0.1419   -2.9523 C   0  0  0  0  0  0  0  0  0  0  0  0
   -0.1932   -0.1419   -1.4343 C   0  0  0  0  0  0  0  0  0  0  0  0
   -0.1932    1.1856   -0.8945 N   0  0  0  0  0  2  0  0  0  0  0  0
    0.6890    0.3745   -3.3323 H   0  0  0  0  0  0  0  0  0  0  0  0
   -0.1932   -1.1608   -3.3434 H   0  0  0  0  0  0  0  0  0  0  0  0
   -1.0755    0.3745   -3.3323 H   0  0  0  0  0  0  0  0  0  0  0  0
    0.6790   -0.6956   -1.0504 H   0  0  0  0  0  0  0  0  0  0  0  0
   -1.0655   -0.6956   -1.0504 H   0  0  0  0  0  0  0  0  0  0  0  0
   -0.1932    1.0821    0.3287 H   0  0  0  0  0  0  0  0  0  0  0  0
   -0.1932    0.9725    1.6231 C   0  0  0  0  0  2  0  0  0  0  0  0
    0.4435   -0.1906    2.2884 C   0  0  0  0  0  0  0  0  0  0  0  0
    0.2923   -1.4958    1.5147 C   0  0  0  0  0  0  0  0  0  0  0  0
   -0.3216    1.9096    2.1480 H   0  0  0  0  0  0  0  0  0  0  0  0
    1.5143    0.0128    2.4432 H   0  0  0  0  0  0  0  0  0  0  0  0
    0.0347   -0.3071    3.2991 H   0  0  0  0  0  0  0  0  0  0  0  0
    0.7315   -1.4091    0.5185 H   0  0  0  0  0  0  0  0  0  0  0  0
   -0.7608   -1.7564    1.3932 H   0  0  0  0  0  0  0  0  0  0  0  0
    0.7876   -2.3207    2.0287 H   0  0  0  0  0  0  0  0  0  0  0  0
  1  2  1  0
  1  4  1  0
  1  5  1  0
  1  6  1  0
  2  3  1  0
  2  7  1  0
  2  8  1  0
  3  9  1  0
 10 11  1  0
 10 13  1  0
 11 12  1  0
 11 14  1  0
 11 15  1  0
 12 16  1  0
 12 17  1  0
 12 18  1  0
M  RAD  2   3   2  10   3
M  END
>  <reaction>  (17) 
rmg_rxn_4

>  <mol_properties>  (17) 
{"1": {"label": "*0", "atom_type": "Cs"}, "2": {"label": "*1", "atom_type": "N3s"}, "8": {"label": "*2", "atom_type": "H0"}, "9": {"label": "*3", "atom_type": "Cs"}, "10": {"label": "*4", "atom_type": "Cs"}}

>  <type>  (17) 
unop_13

>  <geom_source>  (17) 
gaussian_log

$$$$
