
     RDKit          3D

 11 10  0  0  0  0  0  0  0  0999 V2000
   -1.2710    0.1907   -0.2084 C   0  0  0  0  0  0  0  0  0  0  0  0
    0.0202   -0.6130   -0.2928 C   0  0  0  0  0  0  0  0  0  0  0  0
    0.1086   -1.6953    0.7756 C   0  0  0  0  0  0  0  0  0  0  0  0
   -1.3607    0.6851    0.7620 H   0  0  0  0  0  0  0  0  0  0  0  0
   -2.1429   -0.4567   -0.3299 H   0  0  0  0  0  0  0  0  0  0  0  0
   -1.3158    0.9602   -0.9809 H   0  0  0  0  0  0  0  0  0  0  0  0
    0.8757    0.0616   -0.1992 H   0  0  0  0  0  0  0  0  0  0  0  0
    0.0997   -1.0712   -1.2825 H   0  0  0  0  0  0  0  0  0  0  0  0
   -0.7198   -2.4022    0.6850 H   0  0  0  0  0  0  0  0  0  0  0  0
    1.0395   -2.2596    0.6989 H   0  0  0  0  0  0  0  0  0  0  0  0
    0.0624   -1.2603    1.7770 H   0  0  0  0  0  0  0  0  0  0  0  0
  1  2  1  0
  1  4  1  0
  1  5  1  0
  1  6  1  0
  2  3  1  0
  2  7  1  0
  2  8  1  0
  3  9  1  0
  3 10  1  0
  3 11  1  0
M  END
>  <reaction>  (1) 
rmg_rxn_15684

>  <mol_properties>  (1) 
{"1": {"label": "donator", "atom_type": "Cs"}, "6": {"label": "d_hydrogen", "atom_type": "H0"}}

>  <type>  (1) 
r1h

$$$$

     RDKit          3D

  8  7  0  0  0  0  0  0  0  0999 V2000
    1.7077   -0.1964   -0.0607 C   0  0  0  0  0  3  0  0  0  0  0  0
    0.4209   -0.4565    0.2808 O   0  0  0  0  0  0  0  0  0  0  0  0
   -0.4607    0.4385   -0.2968 N   0  0  0  0  0  0  0  0  0  0  0  0
   -1.6584    0.1416   -0.0244 C   0  0  0  0  0  0  0  0  0  0  0  0
    2.4163   -0.7685    0.5170 H   0  0  0  0  0  0  0  0  0  0  0  0
    1.9214    0.7645   -0.5045 H   0  0  0  0  0  0  0  0  0  0  0  0
   -2.4185    0.7953   -0.4307 H   0  0  0  0  0  0  0  0  0  0  0  0
   -1.9286   -0.7185    0.5831 H   0  0  0  0  0  0  0  0  0  0  0  0
  1  2  1  0
  1  5  1  0
  1  6  1  0
  2  3  1  0
  3  4  2  3
  4  7  1  0
  4  8  1  0
M  RAD  1   1   2
M  END
>  <reaction>  (2) 
rmg_rxn_15684

>  <mol_properties>  (2) 
{"0": {"label": "acceptor", "atom_type": "Cs"}}

>  <type>  (2) 
r2

$$$$

     RDKit          3D

  9  8  0  0  0  0  0  0  0  0999 V2000
   -1.5470   -0.0755   -0.1976 C   0  0  0  0  0  0  0  0  0  0  0  0
   -0.2885    0.4507    0.1749 O   0  0  0  0  0  0  0  0  0  0  0  0
   -0.1502    1.7216   -0.3294 N   0  0  0  0  0  0  0  0  0  0  0  0
    0.9626    2.2353   -0.0219 C   0  0  0  0  0  0  0  0  0  0  0  0
   -1.6392   -0.1356   -1.2844 H   0  0  0  0  0  0  0  0  0  0  0  0
   -2.3597    0.5337    0.2044 H   0  0  0  0  0  0  0  0  0  0  0  0
   -1.5879   -1.0750    0.2318 H   0  0  0  0  0  0  0  0  0  0  0  0
    1.1497    3.2381   -0.3820 H   0  0  0  0  0  0  0  0  0  0  0  0
    1.7060    1.7101    0.5739 H   0  0  0  0  0  0  0  0  0  0  0  0
  1  2  1  0
  1  5  1  0
  1  6  1  0
  1  7  1  0
  2  3  1  0
  3  4  2  3
  4  8  1  0
  4  9  1  0
M  END
>  <reaction>  (3) 
rmg_rxn_15684

>  <mol_properties>  (3) 
{"0": {"label": "acceptor", "atom_type": "Cs"}, "8": {"label": "a_hydrogen", "atom_type": "H0"}}

>  <type>  (3) 
r2h

$$$$

     RDKit          3D

 19 17  0  0  0  0  0  0  0  0999 V2000
   -0.1426   -1.5789   -0.4466 C   0  0  0  0  0  3  0  0  0  0  0  0
    0.3861   -1.1635    0.7721 O   0  0  0  0  0  0  0  0  0  0  0  0
    1.3881   -0.2408    0.5773 N   0  0  0  0  0  0  0  0  0  0  0  0
    1.8407    0.1996    1.6725 C   0  0  0  0  0  0  0  0  0  0  0  0
    0.6231   -1.8117   -1.1863 H   0  0  0  0  0  0  0  0  0  0  0  0
   -0.8374   -2.3907   -0.2496 H   0  0  0  0  0  0  0  0  0  0  0  0
    2.6400    0.9256    1.6079 H   0  0  0  0  0  0  0  0  0  0  0  0
    1.4593   -0.1255    2.6378 H   0  0  0  0  0  0  0  0  0  0  0  0
   -0.4706    1.2800   -2.2471 C   0  0  0  0  0  0  0  0  0  0  0  0
   -1.4694    0.5784   -1.3638 C   0  0  0  0  0  0  0  0  0  0  0  0
   -1.8403    1.2964   -0.0924 C   0  0  0  0  0  0  0  0  0  0  0  0
    0.4526    1.4807   -1.6984 H   0  0  0  0  0  0  0  0  0  0  0  0
   -0.8610    2.2393   -2.6058 H   0  0  0  0  0  0  0  0  0  0  0  0
   -0.2172    0.6792   -3.1225 H   0  0  0  0  0  0  0  0  0  0  0  0
   -0.8602   -0.5495   -0.9663 H   0  0  0  0  0  0  0  0  0  0  0  0
   -2.3357    0.1996   -1.9087 H   0  0  0  0  0  0  0  0  0  0  0  0
   -2.3721    2.2310   -0.3050 H   0  0  0  0  0  0  0  0  0  0  0  0
   -2.4859    0.6855    0.5412 H   0  0  0  0  0  0  0  0  0  0  0  0
   -0.9474    1.5516    0.4834 H   0  0  0  0  0  0  0  0  0  0  0  0
  1  2  1  0
  1  5  1  0
  1  6  1  0
  2  3  1  0
  3  4  2  3
  4  7  1  0
  4  8  1  0
  9 10  1  0
  9 12  1  0
  9 13  1  0
  9 14  1  0
 10 11  1  0
 10 15  1  0
 10 16  1  0
 11 17  1  0
 11 18  1  0
 11 19  1  0
M  RAD  1   1   2
M  END
>  <reaction>  (4) 
rmg_rxn_15684

>  <mol_properties>  (4) 
{"0": {"label": "*3", "atom_type": "Cs"}, "1": {"label": "*4", "atom_type": "O2s"}, "8": {"label": "*0", "atom_type": "Cs"}, "9": {"label": "*1", "atom_type": "Cs"}, "14": {"label": "*2", "atom_type": "H0"}}

>  <type>  (4) 
ts

$$$$

     RDKit          3D

 19 17  0  0  0  0  0  0  0  0999 V2000
    0.2924    1.4876   -0.2611 C   0  0  0  0  0  3  0  0  0  0  0  0
    1.3421    0.6285   -0.5422 O   0  0  0  0  0  0  0  0  0  0  0  0
    1.7340   -0.1051    0.5577 N   0  0  0  0  0  0  0  0  0  0  0  0
    2.6422   -0.9603    0.3559 C   0  0  0  0  0  0  0  0  0  0  0  0
    0.3269    1.8943    0.7466 H   0  0  0  0  0  0  0  0  0  0  0  0
    0.2568    2.2403   -1.0407 H   0  0  0  0  0  0  0  0  0  0  0  0
    2.9603   -1.5315    1.2094 H   0  0  0  0  0  0  0  0  0  0  0  0
    3.1100   -1.1420   -0.6070 H   0  0  0  0  0  0  0  0  0  0  0  0
   -2.5545    0.1615    1.0232 C   0  0  0  0  0  0  0  0  0  0  0  0
   -1.9373    0.0640   -0.3496 C   0  0  0  0  0  0  0  0  0  0  0  0
   -1.4935   -1.3243   -0.7374 C   0  0  0  0  0  0  0  0  0  0  0  0
   -1.8711   -0.2248    1.7769 H   0  0  0  0  0  0  0  0  0  0  0  0
   -3.4765   -0.4220    1.0755 H   0  0  0  0  0  0  0  0  0  0  0  0
   -2.7957    1.1939    1.2676 H   0  0  0  0  0  0  0  0  0  0  0  0
   -0.8530    0.8003   -0.3207 H   0  0  0  0  0  0  0  0  0  0  0  0
   -2.5580    0.5273   -1.1154 H   0  0  0  0  0  0  0  0  0  0  0  0
   -2.3501   -1.9958   -0.8311 H   0  0  0  0  0  0  0  0  0  0  0  0
   -0.9707   -1.3099   -1.6916 H   0  0  0  0  0  0  0  0  0  0  0  0
   -0.8250   -1.7353    0.0170 H   0  0  0  0  0  0  0  0  0  0  0  0
  1  2  1  0
  1  5  1  0
  1  6  1  0
  2  3  1  0
  3  4  2  3
  4  7  1  0
  4  8  1  0
  9 10  1  0
  9 12  1  0
  9 13  1  0
  9 14  1  0
 10 11  1  0
 10 15  1  0
 10 16  1  0
 11 17  1  0
 11 18  1  0
 11 19  1  0
M  RAD  1   1   2
M  END
>  <reaction>  (5) 
rmg_rxn_15684

>  <mol_properties>  (5) 
{"0": {"label": "*3", "atom_type": "Cs"}, "1": {"label": "*4", "atom_type": "O2s"}, "8": {"label": "*0", "atom_type": "Cs"}, "9": {"label": "*1", "atom_type": "Cs"}, "14": {"label": "*2", "atom_type": "H0"}}

>  <type>  (5) 
unop_1

>  <geom_source>  (5) 
crest_best.xyz

$$$$

     RDKit          3D

 19 17  0  0  0  0  0  0  0  0999 V2000
    0.3393   -1.1002   -0.2262 C   0  0  0  0  0  0  0  0  0  0  0  0
    1.0783   -0.1720    0.5432 O   0  0  0  0  0  0  0  0  0  0  0  0
    1.6178   -0.8036    1.6381 N   0  0  0  0  0  0  0  0  0  0  0  0
    2.2896   -0.0123    2.3587 C   0  0  0  0  0  0  0  0  0  0  0  0
    0.9812   -1.9064   -0.5883 H   0  0  0  0  0  0  0  0  0  0  0  0
   -0.4836   -1.5221    0.3552 H   0  0  0  0  0  0  0  0  0  0  0  0
    2.7487   -0.4333    3.2431 H   0  0  0  0  0  0  0  0  0  0  0  0
    2.4102    1.0415    2.1169 H   0  0  0  0  0  0  0  0  0  0  0  0
   -1.7549    0.2081   -2.6212 C   0  0  0  0  0  0  0  0  0  0  0  0
   -1.7549    0.2081   -1.0978 C   0  0  0  0  0  3  0  0  0  0  0  0
   -1.7549    1.6139   -0.5111 C   0  0  0  0  0  0  0  0  0  0  0  0
   -0.8734    0.7224   -3.0118 H   0  0  0  0  0  0  0  0  0  0  0  0
   -2.6363    0.7223   -3.0118 H   0  0  0  0  0  0  0  0  0  0  0  0
   -1.7549   -0.8068   -3.0223 H   0  0  0  0  0  0  0  0  0  0  0  0
   -0.7055   -0.4475   -0.6610 H   0  0  0  0  0  0  0  0  0  0  0  0
   -2.6294   -0.3383   -0.7338 H   0  0  0  0  0  0  0  0  0  0  0  0
   -2.6363    2.1725   -0.8353 H   0  0  0  0  0  0  0  0  0  0  0  0
   -1.7549    1.5932    0.5800 H   0  0  0  0  0  0  0  0  0  0  0  0
   -0.8734    2.1725   -0.8353 H   0  0  0  0  0  0  0  0  0  0  0  0
  1  2  1  0
  1  5  1  0
  1  6  1  0
  1 15  1  0
  2  3  1  0
  3  4  2  3
  4  7  1  0
  4  8  1  0
  9 10  1  0
  9 12  1  0
  9 13  1  0
  9 14  1  0
 10 11  1  0
 10 16  1  0
 11 17  1  0
 11 18  1  0
 11 19  1  0
M  RAD  1  10   2
M  END
>  <reaction>  (6) 
rmg_rxn_15684

>  <mol_properties>  (6) 
{"0": {"label": "*3", "atom_type": "Cs"}, "1": {"label": "*4", "atom_type": "O2s"}, "8": {"label": "*0", "atom_type": "Cs"}, "9": {"label": "*1", "atom_type": "Cs"}, "14": {"label": "*2", "atom_type": "H0"}}

>  <type>  (6) 
unop_2

>  <geom_source>  (6) 
Heuristics

$$$$

     RDKit          3D

 19 17  0  0  0  0  0  0  0  0999 V2000
    0.6651   -1.6961   -0.0707 C   0  0  0  0  0  0  0  0  0  0  0  0
    1.6309   -0.7411    0.2930 O   0  0  0  0  0  0  0  0  0  0  0  0
    1.3752    0.4766   -0.3019 N   0  0  0  0  0  0  0  0  0  0  0  0
    2.1860    1.4037   -0.0452 C   0  0  0  0  0  0  0  0  0  0  0  0
    0.5614   -1.8336   -1.1294 H   0  0  0  0  0  0  0  0  0  0  0  0
    0.8932   -2.6071    0.4660 H   0  0  0  0  0  0  0  0  0  0  0  0
    1.9907    2.3560   -0.5067 H   0  0  0  0  0  0  0  0  0  0  0  0
    3.0530    1.3009    0.6013 H   0  0  0  0  0  0  0  0  0  0  0  0
   -1.9793    0.3429   -1.2645 C   0  0  0  0  0  0  0  0  0  0  0  0
   -2.1272   -0.2527    0.0855 C   0  0  0  0  0  3  0  0  0  0  0  0
   -1.8594    0.5757    1.2859 C   0  0  0  0  0  0  0  0  0  0  0  0
   -2.0536   -0.4165   -2.0406 H   0  0  0  0  0  0  0  0  0  0  0  0
   -1.0195    0.8532   -1.3526 H   0  0  0  0  0  0  0  0  0  0  0  0
   -2.7611    1.0894   -1.4576 H   0  0  0  0  0  0  0  0  0  0  0  0
   -0.3782   -1.3482    0.0693 H   0  0  0  0  0  0  0  0  0  0  0  0
   -2.7786   -1.1061    0.1987 H   0  0  0  0  0  0  0  0  0  0  0  0
   -0.9723    1.1904    1.1365 H   0  0  0  0  0  0  0  0  0  0  0  0
   -2.6952    1.2568    1.4959 H   0  0  0  0  0  0  0  0  0  0  0  0
   -1.7190   -0.0445    2.1700 H   0  0  0  0  0  0  0  0  0  0  0  0
  1  2  1  0
  1  5  1  0
  1  6  1  0
  1 15  1  0
  2  3  1  0
  3  4  2  3
  4  7  1  0
  4  8  1  0
  9 10  1  0
  9 12  1  0
  9 13  1  0
  9 14  1  0
 10 11  1  0
 10 16  1  0
 11 17  1  0
 11 18  1  0
 11 19  1  0
M  RAD  1  10   2
M  END
>  <reaction>  (7) 
rmg_rxn_15684

>  <mol_properties>  (7) 
{"0": {"label": "*3", "atom_type": "Cs"}, "1": {"label": "*4", "atom_type": "O2s"}, "8": {"label": "*0", "atom_type": "Cs"}, "9": {"label": "*1", "atom_type": "Cs"}, "14": {"label": "*2", "atom_type": "H0"}}

>  <type>  (7) 
unop_3

>  <geom_source>  (7) 
Heuristics

$$$$

     RDKit          3D

 19 17  0  0  0  0  0  0  0  0999 V2000
    0.6651   -1.6958    0.0713 C   0  0  0  0  0  0  0  0  0  0  0  0
    1.6308   -0.7411   -0.2935 O   0  0  0  0  0  0  0  0  0  0  0  0
    1.3773    0.4763    0.3032 N   0  0  0  0  0  0  0  0  0  0  0  0
    2.1879    1.4032    0.0451 C   0  0  0  0  0  0  0  0  0  0  0  0
    0.8901   -2.6047   -0.4705 H   0  0  0  0  0  0  0  0  0  0  0  0
    0.5704   -1.8393    1.1305 H   0  0  0  0  0  0  0  0  0  0  0  0
    1.9945    2.3551    0.5081 H   0  0  0  0  0  0  0  0  0  0  0  0
    3.0531    1.3006   -0.6040 H   0  0  0  0  0  0  0  0  0  0  0  0
   -1.8597    0.5759   -1.2862 C   0  0  0  0  0  0  0  0  0  0  0  0
   -2.1280   -0.2526   -0.0860 C   0  0  0  0  0  3  0  0  0  0  0  0
   -1.9824    0.3431    1.2643 C   0  0  0  0  0  0  0  0  0  0  0  0
   -0.9742    1.1925   -1.1354 H   0  0  0  0  0  0  0  0  0  0  0  0
   -2.6965    1.2552   -1.4981 H   0  0  0  0  0  0  0  0  0  0  0  0
   -1.7163   -0.0444   -2.1697 H   0  0  0  0  0  0  0  0  0  0  0  0
   -0.3784   -1.3455   -0.0681 H   0  0  0  0  0  0  0  0  0  0  0  0
   -2.7780   -1.1069   -0.1999 H   0  0  0  0  0  0  0  0  0  0  0  0
   -2.7669    1.0868    1.4576 H   0  0  0  0  0  0  0  0  0  0  0  0
   -2.0544   -0.4168    2.0401 H   0  0  0  0  0  0  0  0  0  0  0  0
   -1.0243    0.8566    1.3530 H   0  0  0  0  0  0  0  0  0  0  0  0
  1  2  1  0
  1  5  1  0
  1  6  1  0
  1 15  1  0
  2  3  1  0
  3  4  2  3
  4  7  1  0
  4  8  1  0
  9 10  1  0
  9 12  1  0
  9 13  1  0
  9 14  1  0
 10 11  1  0
 10 16  1  0
 11 17  1  0
 11 18  1  0
 11 19  1  0
M  RAD  1  10   2
M  END
>  <reaction>  (8) 
rmg_rxn_15684

>  <mol_properties>  (8) 
{"0": {"label": "*3", "atom_type": "Cs"}, "1": {"label": "*4", "atom_type": "O2s"}, "8": {"label": "*0", "atom_type": "Cs"}, "9": {"label": "*1", "atom_type": "Cs"}, "14": {"label": "*2", "atom_type": "H0"}}

>  <type>  (8) 
unop_4

>  <geom_source>  (8) 
Heuristics

$$$$

     RDKit          3D

 19 17  0  0  0  0  0  0  0  0999 V2000
    0.2900    1.4862    0.2592 C   0  0  0  0  0  3  0  0  0  0  0  0
    1.3432    0.6316    0.5410 O   0  0  0  0  0  0  0  0  0  0  0  0
    1.7351   -0.1046   -0.5572 N   0  0  0  0  0  0  0  0  0  0  0  0
    2.6475   -0.9552   -0.3547 C   0  0  0  0  0  0  0  0  0  0  0  0
    0.2538    2.2418    1.0359 H   0  0  0  0  0  0  0  0  0  0  0  0
    0.3205    1.8889   -0.7501 H   0  0  0  0  0  0  0  0  0  0  0  0
    2.9660   -1.5279   -1.2070 H   0  0  0  0  0  0  0  0  0  0  0  0
    3.1184   -1.1317    0.6077 H   0  0  0  0  0  0  0  0  0  0  0  0
   -1.4861   -1.3354    0.7203 C   0  0  0  0  0  0  0  0  0  0  0  0
   -1.9360    0.0571    0.3552 C   0  0  0  0  0  0  0  0  0  0  0  0
   -2.5680    0.1715   -1.0095 C   0  0  0  0  0  0  0  0  0  0  0  0
   -2.3405   -2.0100    0.8120 H   0  0  0  0  0  0  0  0  0  0  0  0
   -0.9553   -1.3328    1.6702 H   0  0  0  0  0  0  0  0  0  0  0  0
   -0.8232   -1.7346   -0.0453 H   0  0  0  0  0  0  0  0  0  0  0  0
   -0.8533    0.7957    0.3242 H   0  0  0  0  0  0  0  0  0  0  0  0
   -2.5492    0.5095    1.1335 H   0  0  0  0  0  0  0  0  0  0  0  0
   -3.4911   -0.4103   -1.0588 H   0  0  0  0  0  0  0  0  0  0  0  0
   -2.8106    1.2071   -1.2391 H   0  0  0  0  0  0  0  0  0  0  0  0
   -1.8932   -0.2065   -1.7751 H   0  0  0  0  0  0  0  0  0  0  0  0
  1  2  1  0
  1  5  1  0
  1  6  1  0
  2  3  1  0
  3  4  2  3
  4  7  1  0
  4  8  1  0
  9 10  1  0
  9 12  1  0
  9 13  1  0
  9 14  1  0
 10 11  1  0
 10 15  1  0
 10 16  1  0
 11 17  1  0
 11 18  1  0
 11 19  1  0
M  RAD  1   1   2
M  END
>  <reaction>  (9) 
rmg_rxn_15684

>  <mol_properties>  (9) 
{"0": {"label": "*3", "atom_type": "Cs"}, "1": {"label": "*4", "atom_type": "O2s"}, "8": {"label": "*0", "atom_type": "Cs"}, "9": {"label": "*1", "atom_type": "Cs"}, "14": {"label": "*2", "atom_type": "H0"}}

>  <type>  (9) 
unop_5

>  <geom_source>  (9) 
Heuristics

$$$$

     RDKit          3D

 19 17  0  0  0  0  0  0  0  0999 V2000
    0.2937   -1.4881    0.2624 C   0  0  0  0  0  3  0  0  0  0  0  0
    1.3422   -0.6273    0.5429 O   0  0  0  0  0  0  0  0  0  0  0  0
    1.7321    0.1070   -0.5574 N   0  0  0  0  0  0  0  0  0  0  0  0
    2.6400    0.9627   -0.3565 C   0  0  0  0  0  0  0  0  0  0  0  0
    0.3290   -1.8959   -0.7447 H   0  0  0  0  0  0  0  0  0  0  0  0
    0.2589   -2.2398    1.0430 H   0  0  0  0  0  0  0  0  0  0  0  0
    2.9565    1.5344   -1.2103 H   0  0  0  0  0  0  0  0  0  0  0  0
    3.1092    1.1444    0.6057 H   0  0  0  0  0  0  0  0  0  0  0  0
   -2.5449   -0.1571   -1.0316 C   0  0  0  0  0  0  0  0  0  0  0  0
   -1.9384   -0.0678    0.3464 C   0  0  0  0  0  0  0  0  0  0  0  0
   -1.4998    1.3186    0.7470 C   0  0  0  0  0  0  0  0  0  0  0  0
   -2.7806   -1.1885   -1.2856 H   0  0  0  0  0  0  0  0  0  0  0  0
   -1.8571    0.2372   -1.7772 H   0  0  0  0  0  0  0  0  0  0  0  0
   -3.4685    0.4236   -1.0866 H   0  0  0  0  0  0  0  0  0  0  0  0
   -0.8527   -0.8023    0.3205 H   0  0  0  0  0  0  0  0  0  0  0  0
   -2.5641   -0.5373    1.1044 H   0  0  0  0  0  0  0  0  0  0  0  0
   -2.3581    1.9881    0.8386 H   0  0  0  0  0  0  0  0  0  0  0  0
   -0.9842    1.2986    1.7050 H   0  0  0  0  0  0  0  0  0  0  0  0
   -0.8263    1.7357    0.0003 H   0  0  0  0  0  0  0  0  0  0  0  0
  1  2  1  0
  1  5  1  0
  1  6  1  0
  2  3  1  0
  3  4  2  3
  4  7  1  0
  4  8  1  0
  9 10  1  0
  9 12  1  0
  9 13  1  0
  9 14  1  0
 10 11  1  0
 10 15  1  0
 10 16  1  0
 11 17  1  0
 11 18  1  0
 11 19  1  0
M  RAD  1   1   2
M  END
>  <reaction>  (10) 
rmg_rxn_15684

>  <mol_properties>  (10) 
{"0": {"label": "*3", "atom_type": "Cs"}, "1": {"label": "*4", "atom_type": "O2s"}, "8": {"label": "*0", "atom_type": "Cs"}, "9": {"label": "*1", "atom_type": "Cs"}, "14": {"label": "*2", "atom_type": "H0"}}

>  <type>  (10) 
unop_6

>  <geom_source>  (10) 
Heuristics

$$$$

     RDKit          3D

 19 17  0  0  0  0  0  0  0  0999 V2000
   -0.0044   -0.7868    0.9012 C   0  0  0  0  0  0  0  0  0  0  0  0
    0.9955   -0.6090   -0.0827 O   0  0  0  0  0  0  0  0  0  0  0  0
    2.2286   -0.8929    0.4536 N   0  0  0  0  0  0  0  0  0  0  0  0
    3.1577   -0.7479   -0.3906 C   0  0  0  0  0  0  0  0  0  0  0  0
   -0.0242   -1.8197    1.2559 H   0  0  0  0  0  0  0  0  0  0  0  0
    0.1552   -0.1136    1.7465 H   0  0  0  0  0  0  0  0  0  0  0  0
    4.1624   -0.9527   -0.0458 H   0  0  0  0  0  0  0  0  0  0  0  0
    2.9742   -0.4338   -1.4159 H   0  0  0  0  0  0  0  0  0  0  0  0
   -2.0986    0.5215   -1.4938 C   0  0  0  0  0  0  0  0  0  0  0  0
   -2.0986    0.5215    0.0295 C   0  0  0  0  0  3  0  0  0  0  0  0
   -2.0986    1.9273    0.6162 C   0  0  0  0  0  0  0  0  0  0  0  0
   -1.2172    1.0358   -1.8844 H   0  0  0  0  0  0  0  0  0  0  0  0
   -2.9801    1.0358   -1.8844 H   0  0  0  0  0  0  0  0  0  0  0  0
   -2.0986   -0.4934   -1.8950 H   0  0  0  0  0  0  0  0  0  0  0  0
   -1.0492   -0.1341    0.4663 H   0  0  0  0  0  0  0  0  0  0  0  0
   -2.9731   -0.0248    0.3935 H   0  0  0  0  0  0  0  0  0  0  0  0
   -2.9801    2.4859    0.2921 H   0  0  0  0  0  0  0  0  0  0  0  0
   -2.0986    1.9067    1.7074 H   0  0  0  0  0  0  0  0  0  0  0  0
   -1.2172    2.4859    0.2921 H   0  0  0  0  0  0  0  0  0  0  0  0
  1  2  1  0
  1  5  1  0
  1  6  1  0
  1 15  1  0
  2  3  1  0
  3  4  2  3
  4  7  1  0
  4  8  1  0
  9 10  1  0
  9 12  1  0
  9 13  1  0
  9 14  1  0
 10 11  1  0
 10 16  1  0
 11 17  1  0
 11 18  1  0
 11 19  1  0
M  RAD  1  10   2
M  END
>  <reaction>  (11) 
rmg_rxn_15684

>  <mol_properties>  (11) 
{"0": {"label": "*3", "atom_type": "Cs"}, "1": {"label": "*4", "atom_type": "O2s"}, "8": {"label": "*0", "atom_type": "Cs"}, "9": {"label": "*1", "atom_type": "Cs"}, "14": {"label": "*2", "atom_type": "H0"}}

>  <type>  (11) 
unop_7

>  <geom_source>  (11) 
Heuristics

$$$$

     RDKit          3D

 19 17  0  0  0  0  0  0  0  0999 V2000
    0.4565   -1.3166   -0.2242 C   0  0  0  0  0  3  0  0  0  0  0  0
    1.3794   -0.7704    0.6560 O   0  0  0  0  0  0  0  0  0  0  0  0
    2.1569    0.2735    0.3062 N   0  0  0  0  0  0  0  0  0  0  0  0
    2.0415    0.8706   -0.8014 C   0  0  0  0  0  0  0  0  0  0  0  0
    0.8372   -1.4740   -1.2335 H   0  0  0  0  0  0  0  0  0  0  0  0
    0.0902   -2.2285    0.2337 H   0  0  0  0  0  0  0  0  0  0  0  0
    2.7293    1.6810   -0.9669 H   0  0  0  0  0  0  0  0  0  0  0  0
    1.3198    0.6534   -1.5848 H   0  0  0  0  0  0  0  0  0  0  0  0
   -1.4362    1.3601    0.6196 C   0  0  0  0  0  0  0  0  0  0  0  0
   -1.6483    0.2808   -0.4121 C   0  0  0  0  0  0  0  0  0  0  0  0
   -2.8516   -0.5937   -0.1640 C   0  0  0  0  0  0  0  0  0  0  0  0
   -1.3533    0.9263    1.6144 H   0  0  0  0  0  0  0  0  0  0  0  0
   -2.2749    2.0597    0.6259 H   0  0  0  0  0  0  0  0  0  0  0  0
   -0.5285    1.9247    0.4144 H   0  0  0  0  0  0  0  0  0  0  0  0
   -0.6039   -0.5111   -0.3409 H   0  0  0  0  0  0  0  0  0  0  0  0
   -1.6287    0.6714   -1.4294 H   0  0  0  0  0  0  0  0  0  0  0  0
   -2.9062   -1.3974   -0.8955 H   0  0  0  0  0  0  0  0  0  0  0  0
   -2.8081   -1.0308    0.8316 H   0  0  0  0  0  0  0  0  0  0  0  0
   -3.7726   -0.0110   -0.2339 H   0  0  0  0  0  0  0  0  0  0  0  0
  1  2  1  0
  1  5  1  0
  1  6  1  0
  2  3  1  0
  3  4  2  3
  4  7  1  0
  4  8  1  0
  9 10  1  0
  9 12  1  0
  9 13  1  0
  9 14  1  0
 10 11  1  0
 10 15  1  0
 10 16  1  0
 11 17  1  0
 11 18  1  0
 11 19  1  0
M  RAD  1   1   2
M  END
>  <reaction>  (12) 
rmg_rxn_15684

>  <mol_properties>  (12) 
{"0": {"label": "*3", "atom_type": "Cs"}, "1": {"label": "*4", "atom_type": "O2s"}, "8": {"label": "*0", "atom_type": "Cs"}, "9": {"label": "*1", "atom_type": "Cs"}, "14": {"label": "*2", "atom_type": "H0"}}

>  <type>  (12) 
unop_8

>  <geom_source>  (12) 
Heuristics

$$$$

     RDKit          3D

 19 17  0  0  0  0  0  0  0  0999 V2000
    0.5285   -0.8344   -0.3969 C   0  0  0  0  0  0  0  0  0  0  0  0
    0.8629   -0.2409    0.8422 O   0  0  0  0  0  0  0  0  0  0  0  0
    1.5198   -1.1546    1.6311 N   0  0  0  0  0  0  0  0  0  0  0  0
    1.8403   -0.6690    2.7528 C   0  0  0  0  0  0  0  0  0  0  0  0
    1.4257   -1.1537   -0.9320 H   0  0  0  0  0  0  0  0  0  0  0  0
   -0.1351   -1.6902   -0.2538 H   0  0  0  0  0  0  0  0  0  0  0  0
    2.3626   -1.3268    3.4345 H   0  0  0  0  0  0  0  0  0  0  0  0
    1.6104    0.3562    3.0349 H   0  0  0  0  0  0  0  0  0  0  0  0
   -1.5657    0.4739   -2.7919 C   0  0  0  0  0  0  0  0  0  0  0  0
   -1.5657    0.4739   -1.2686 C   0  0  0  0  0  3  0  0  0  0  0  0
   -1.5657    1.8797   -0.6819 C   0  0  0  0  0  0  0  0  0  0  0  0
   -0.6843    0.9881   -3.1826 H   0  0  0  0  0  0  0  0  0  0  0  0
   -2.4472    0.9881   -3.1826 H   0  0  0  0  0  0  0  0  0  0  0  0
   -1.5657   -0.5410   -3.1931 H   0  0  0  0  0  0  0  0  0  0  0  0
   -0.5163   -0.1818   -0.8318 H   0  0  0  0  0  0  0  0  0  0  0  0
   -2.4402   -0.0725   -0.9046 H   0  0  0  0  0  0  0  0  0  0  0  0
   -2.4472    2.4382   -1.0060 H   0  0  0  0  0  0  0  0  0  0  0  0
   -1.5657    1.8590    0.4092 H   0  0  0  0  0  0  0  0  0  0  0  0
   -0.6843    2.4382   -1.0060 H   0  0  0  0  0  0  0  0  0  0  0  0
  1  2  1  0
  1  5  1  0
  1  6  1  0
  1 15  1  0
  2  3  1  0
  3  4  2  3
  4  7  1  0
  4  8  1  0
  9 10  1  0
  9 12  1  0
  9 13  1  0
  9 14  1  0
 10 11  1  0
 10 16  1  0
 11 17  1  0
 11 18  1  0
 11 19  1  0
M  RAD  1  10   2
M  END
>  <reaction>  (13) 
rmg_rxn_15684

>  <mol_properties>  (13) 
{"0": {"label": "*3", "atom_type": "Cs"}, "1": {"label": "*4", "atom_type": "O2s"}, "8": {"label": "*0", "atom_type": "Cs"}, "9": {"label": "*1", "atom_type": "Cs"}, "14": {"label": "*2", "atom_type": "H0"}}

>  <type>  (13) 
unop_9

>  <geom_source>  (13) 
Heuristics

$$$$

     RDKit          3D

 19 17  0  0  0  0  0  0  0  0999 V2000
    0.8126    0.2110    0.5426 C   0  0  0  0  0  0  0  0  0  0  0  0
    0.6868   -1.1003    0.0285 O   0  0  0  0  0  0  0  0  0  0  0  0
    1.2381   -1.9985    0.9105 N   0  0  0  0  0  0  0  0  0  0  0  0
    1.1494   -3.1880    0.4935 C   0  0  0  0  0  0  0  0  0  0  0  0
    0.2847    0.3100    1.4938 H   0  0  0  0  0  0  0  0  0  0  0  0
    1.8630    0.4782    0.6786 H   0  0  0  0  0  0  0  0  0  0  0  0
    1.5614   -3.9577    1.1323 H   0  0  0  0  0  0  0  0  0  0  0  0
    0.6857   -3.4429   -0.4570 H   0  0  0  0  0  0  0  0  0  0  0  0
   -1.2816    1.5193   -1.8524 C   0  0  0  0  0  0  0  0  0  0  0  0
   -1.2816    1.5193   -0.3291 C   0  0  0  0  0  3  0  0  0  0  0  0
   -1.2816    2.9251    0.2577 C   0  0  0  0  0  0  0  0  0  0  0  0
   -0.4002    2.0336   -2.2430 H   0  0  0  0  0  0  0  0  0  0  0  0
   -2.1631    2.0336   -2.2430 H   0  0  0  0  0  0  0  0  0  0  0  0
   -1.2816    0.5044   -2.2536 H   0  0  0  0  0  0  0  0  0  0  0  0
   -0.2322    0.8637    0.1077 H   0  0  0  0  0  0  0  0  0  0  0  0
   -2.1561    0.9729    0.0349 H   0  0  0  0  0  0  0  0  0  0  0  0
   -2.1631    3.4837   -0.0665 H   0  0  0  0  0  0  0  0  0  0  0  0
   -1.2816    2.9044    1.3488 H   0  0  0  0  0  0  0  0  0  0  0  0
   -0.4001    3.4837   -0.0665 H   0  0  0  0  0  0  0  0  0  0  0  0
  1  2  1  0
  1  5  1  0
  1  6  1  0
  1 15  1  0
  2  3  1  0
  3  4  2  3
  4  7  1  0
  4  8  1  0
  9 10  1  0
  9 12  1  0
  9 13  1  0
  9 14  1  0
 10 11  1  0
 10 16  1  0
 11 17  1  0
 11 18  1  0
 11 19  1  0
M  RAD  1  10   2
M  END
>  <reaction>  (14) 
rmg_rxn_15684

>  <mol_properties>  (14) 
{"0": {"label": "*3", "atom_type": "Cs"}, "1": {"label": "*4", "atom_type": "O2s"}, "8": {"label": "*0", "atom_type": "Cs"}, "9": {"label": "*1", "atom_type": "Cs"}, "14": {"label": "*2", "atom_type": "H0"}}

>  <type>  (14) 
unop_10

>  <geom_source>  (14) 
Heuristics

$$$$

     RDKit          3D

 19 17  0  0  0  0  0  0  0  0999 V2000
    0.6648   -1.6966    0.0528 C   0  0  0  0  0  0  0  0  0  0  0  0
    1.6329   -0.7389   -0.2971 O   0  0  0  0  0  0  0  0  0  0  0  0
    1.3739    0.4740    0.3063 N   0  0  0  0  0  0  0  0  0  0  0  0
    2.1865    1.4029    0.0622 C   0  0  0  0  0  0  0  0  0  0  0  0
    0.8941   -2.6022   -0.4923 H   0  0  0  0  0  0  0  0  0  0  0  0
    0.5566   -1.8448    1.1096 H   0  0  0  0  0  0  0  0  0  0  0  0
    1.9888    2.3514    0.5304 H   0  0  0  0  0  0  0  0  0  0  0  0
    3.0574    1.3050   -0.5798 H   0  0  0  0  0  0  0  0  0  0  0  0
   -1.8521    0.6017   -1.2774 C   0  0  0  0  0  0  0  0  0  0  0  0
   -2.1267   -0.2512   -0.0958 C   0  0  0  0  0  3  0  0  0  0  0  0
   -1.9882    0.3171    1.2669 C   0  0  0  0  0  0  0  0  0  0  0  0
   -2.6881    1.2848   -1.4799 H   0  0  0  0  0  0  0  0  0  0  0  0
   -1.7038   -0.0004   -2.1726 H   0  0  0  0  0  0  0  0  0  0  0  0
   -0.9676    1.2152   -1.1092 H   0  0  0  0  0  0  0  0  0  0  0  0
   -0.3775   -1.3461   -0.0879 H   0  0  0  0  0  0  0  0  0  0  0  0
   -2.7766   -1.1026   -0.2304 H   0  0  0  0  0  0  0  0  0  0  0  0
   -2.0628   -0.4585    2.0268 H   0  0  0  0  0  0  0  0  0  0  0  0
   -1.0313    0.8299    1.3703 H   0  0  0  0  0  0  0  0  0  0  0  0
   -2.7746    1.0557    1.4716 H   0  0  0  0  0  0  0  0  0  0  0  0
  1  2  1  0
  1  5  1  0
  1  6  1  0
  1 15  1  0
  2  3  1  0
  3  4  2  3
  4  7  1  0
  4  8  1  0
  9 10  1  0
  9 12  1  0
  9 13  1  0
  9 14  1  0
 10 11  1  0
 10 16  1  0
 11 17  1  0
 11 18  1  0
 11 19  1  0
M  RAD  1  10   2
M  END
>  <reaction>  (15) 
rmg_rxn_15684

>  <mol_properties>  (15) 
{"0": {"label": "*3", "atom_type": "Cs"}, "1": {"label": "*4", "atom_type": "O2s"}, "8": {"label": "*0", "atom_type": "Cs"}, "9": {"label": "*1", "atom_type": "Cs"}, "14": {"label": "*2", "atom_type": "H0"}}

>  <type>  (15) 
unop_11

>  <geom_source>  (15) 
Heuristics

$$$$

     RDKit          3D

 19 17  0  0  0  0  0  0  0  0999 V2000
    0.6366   -0.6048   -0.4217 C   0  0  0  0  0  0  0  0  0  0  0  0
    0.5590   -0.5563    0.9894 O   0  0  0  0  0  0  0  0  0  0  0  0
    1.6286   -1.2245    1.5353 N   0  0  0  0  0  0  0  0  0  0  0  0
    1.6031   -1.2085    2.7986 C   0  0  0  0  0  0  0  0  0  0  0  0
    1.5494   -0.1231   -0.7795 H   0  0  0  0  0  0  0  0  0  0  0  0
    0.6040   -1.6363   -0.7795 H   0  0  0  0  0  0  0  0  0  0  0  0
    2.4133   -1.7147    3.3063 H   0  0  0  0  0  0  0  0  0  0  0  0
    0.8142   -0.7157    3.3628 H   0  0  0  0  0  0  0  0  0  0  0  0
   -1.4575    0.7035   -2.8167 C   0  0  0  0  0  0  0  0  0  0  0  0
   -1.4575    0.7035   -1.2933 C   0  0  0  0  0  3  0  0  0  0  0  0
   -1.4575    2.1093   -0.7066 C   0  0  0  0  0  0  0  0  0  0  0  0
   -0.5761    1.2178   -3.2073 H   0  0  0  0  0  0  0  0  0  0  0  0
   -2.3390    1.2178   -3.2073 H   0  0  0  0  0  0  0  0  0  0  0  0
   -1.4575   -0.3114   -3.2178 H   0  0  0  0  0  0  0  0  0  0  0  0
   -0.4081    0.0479   -0.8565 H   0  0  0  0  0  0  0  0  0  0  0  0
   -2.3321    0.1572   -0.9293 H   0  0  0  0  0  0  0  0  0  0  0  0
   -2.3390    2.6679   -1.0308 H   0  0  0  0  0  0  0  0  0  0  0  0
   -1.4575    2.0887    0.3845 H   0  0  0  0  0  0  0  0  0  0  0  0
   -0.5761    2.6679   -1.0308 H   0  0  0  0  0  0  0  0  0  0  0  0
  1  2  1  0
  1  5  1  0
  1  6  1  0
  1 15  1  0
  2  3  1  0
  3  4  2  3
  4  7  1  0
  4  8  1  0
  9 10  1  0
  9 12  1  0
  9 13  1  0
  9 14  1  0
 10 11  1  0
 10 16  1  0
 11 17  1  0
 11 18  1  0
 11 19  1  0
M  RAD  1  10   2
M  END
>  <reaction>  (16) 
rmg_rxn_15684

>  <mol_properties>  (16) 
{"0": {"label": "*3", "atom_type": "Cs"}, "1": {"label": "*4", "atom_type": "O2s"}, "8": {"label": "*0", "atom_type": "Cs"}, "9": {"label": "*1", "atom_type": "Cs"}, "14": {"label": "*2", "atom_type": "H0"}}

>  <type>  (16) 
unop_12

>  <geom_source>  (16) 
Heuristics

$$$$

     RDKit          3D

 19 17  0  0  0  0  0  0  0  0999 V2000
    0.2904   -1.4852    0.2604 C   0  0  0  0  0  3  0  0  0  0  0  0
    1.3424   -0.6292    0.5422 O   0  0  0  0  0  0  0  0  0  0  0  0
    1.7379    0.1026   -0.5576 N   0  0  0  0  0  0  0  0  0  0  0  0
    2.6486    0.9549   -0.3553 C   0  0  0  0  0  0  0  0  0  0  0  0
    0.3227   -1.8896   -0.7483 H   0  0  0  0  0  0  0  0  0  0  0  0
    0.2536   -2.2396    1.0383 H   0  0  0  0  0  0  0  0  0  0  0  0
    2.9700    1.5240   -1.2091 H   0  0  0  0  0  0  0  0  0  0  0  0
    3.1164    1.1357    0.6079 H   0  0  0  0  0  0  0  0  0  0  0  0
   -2.5681   -0.1710   -1.0111 C   0  0  0  0  0  0  0  0  0  0  0  0
   -1.9370   -0.0580    0.3541 C   0  0  0  0  0  0  0  0  0  0  0  0
   -1.4882    1.3344    0.7213 C   0  0  0  0  0  0  0  0  0  0  0  0
   -1.8928    0.2074   -1.7761 H   0  0  0  0  0  0  0  0  0  0  0  0
   -3.4910    0.4113   -1.0604 H   0  0  0  0  0  0  0  0  0  0  0  0
   -2.8110   -1.2062   -1.2417 H   0  0  0  0  0  0  0  0  0  0  0  0
   -0.8537   -0.7957    0.3226 H   0  0  0  0  0  0  0  0  0  0  0  0
   -2.5503   -0.5118    1.1315 H   0  0  0  0  0  0  0  0  0  0  0  0
   -2.3433    2.0077    0.8158 H   0  0  0  0  0  0  0  0  0  0  0  0
   -0.9559    1.3306    1.6703 H   0  0  0  0  0  0  0  0  0  0  0  0
   -0.8270    1.7360   -0.0445 H   0  0  0  0  0  0  0  0  0  0  0  0
  1  2  1  0
  1  5  1  0
  1  6  1  0
  2  3  1  0
  3  4  2  3
  4  7  1  0
  4  8  1  0
  9 10  1  0
  9 12  1  0
  9 13  1  0
  9 14  1  0
 10 11  1  0
 10 15  1  0
 10 16  1  0
 11 17  1  0
 11 18  1  0
 11 19  1  0
M  RAD  1   1   2
M  END
>  <reaction>  (17) 
rmg_rxn_15684

>  <mol_properties>  (17) 
{"0": {"label": "*3", "atom_type": "Cs"}, "1": {"label": "*4", "atom_type": "O2s"}, "8": {"label": "*0", "atom_type": "Cs"}, "9": {"label": "*1", "atom_type": "Cs"}, "14": {"label": "*2", "atom_type": "H0"}}

>  <type>  (17) 
unop_13

>  <geom_source>  (17) 
Heuristics

$$$$

     RDKit          3D

 19 17  0  0  0  0  0  0  0  0999 V2000
    0.2898   -1.4829   -0.2610 C   0  0  0  0  0  3  0  0  0  0  0  0
    1.3437   -0.6292   -0.5425 O   0  0  0  0  0  0  0  0  0  0  0  0
    1.7399    0.1025    0.5572 N   0  0  0  0  0  0  0  0  0  0  0  0
    2.6539    0.9515    0.3552 C   0  0  0  0  0  0  0  0  0  0  0  0
    0.2521   -2.2375   -1.0387 H   0  0  0  0  0  0  0  0  0  0  0  0
    0.3207   -1.8871    0.7477 H   0  0  0  0  0  0  0  0  0  0  0  0
    2.9754    1.5211    1.2085 H   0  0  0  0  0  0  0  0  0  0  0  0
    3.1237    1.1292   -0.6075 H   0  0  0  0  0  0  0  0  0  0  0  0
   -1.4897    1.3396   -0.7135 C   0  0  0  0  0  0  0  0  0  0  0  0
   -1.9375   -0.0556   -0.3558 C   0  0  0  0  0  0  0  0  0  0  0  0
   -2.5738   -0.1772    1.0063 C   0  0  0  0  0  0  0  0  0  0  0  0
   -0.9544    1.3421   -1.6608 H   0  0  0  0  0  0  0  0  0  0  0  0
   -0.8316    1.7379    0.0567 H   0  0  0  0  0  0  0  0  0  0  0  0
   -2.3456    2.0121   -0.8069 H   0  0  0  0  0  0  0  0  0  0  0  0
   -0.8533   -0.7919   -0.3244 H   0  0  0  0  0  0  0  0  0  0  0  0
   -2.5471   -0.5060   -1.1380 H   0  0  0  0  0  0  0  0  0  0  0  0
   -1.9022    0.1982    1.7759 H   0  0  0  0  0  0  0  0  0  0  0  0
   -3.4980    0.4030    1.0551 H   0  0  0  0  0  0  0  0  0  0  0  0
   -2.8156   -1.2142    1.2302 H   0  0  0  0  0  0  0  0  0  0  0  0
  1  2  1  0
  1  5  1  0
  1  6  1  0
  2  3  1  0
  3  4  2  3
  4  7  1  0
  4  8  1  0
  9 10  1  0
  9 12  1  0
  9 13  1  0
  9 14  1  0
 10 11  1  0
 10 15  1  0
 10 16  1  0
 11 17  1  0
 11 18  1  0
 11 19  1  0
M  RAD  1   1   2
M  END
>  <reaction>  (18) 
rmg_rxn_15684

>  <mol_properties>  (18) 
{"0": {"label": "*3", "atom_type": "Cs"}, "1": {"label": "*4", "atom_type": "O2s"}, "8": {"label": "*0", "atom_type": "Cs"}, "9": {"label": "*1", "atom_type": "Cs"}, "14": {"label": "*2", "atom_type": "H0"}}

>  <type>  (18) 
unop_14

>  <geom_source>  (18) 
Heuristics

$$$$

     RDKit          3D

 19 17  0  0  0  0  0  0  0  0999 V2000
    0.9687    0.1306    0.1186 C   0  0  0  0  0  0  0  0  0  0  0  0
    0.5541   -1.2153    0.2463 O   0  0  0  0  0  0  0  0  0  0  0  0
    1.1160   -1.7683    1.3720 N   0  0  0  0  0  0  0  0  0  0  0  0
    0.7738   -2.9744    1.5293 C   0  0  0  0  0  0  0  0  0  0  0  0
    0.6456    0.7221    0.9782 H   0  0  0  0  0  0  0  0  0  0  0  0
    2.0543    0.1971    0.0172 H   0  0  0  0  0  0  0  0  0  0  0  0
    1.1751   -3.4832    2.3955 H   0  0  0  0  0  0  0  0  0  0  0  0
    0.1103   -3.4903    0.8385 H   0  0  0  0  0  0  0  0  0  0  0  0
   -1.1255    1.4389   -2.2763 C   0  0  0  0  0  0  0  0  0  0  0  0
   -1.1255    1.4389   -0.7530 C   0  0  0  0  0  3  0  0  0  0  0  0
   -1.1255    2.8447   -0.1663 C   0  0  0  0  0  0  0  0  0  0  0  0
   -0.2440    1.9531   -2.6670 H   0  0  0  0  0  0  0  0  0  0  0  0
   -2.0070    1.9531   -2.6670 H   0  0  0  0  0  0  0  0  0  0  0  0
   -1.1255    0.4240   -2.6775 H   0  0  0  0  0  0  0  0  0  0  0  0
   -0.0761    0.7833   -0.3162 H   0  0  0  0  0  0  0  0  0  0  0  0
   -2.0000    0.8925   -0.3890 H   0  0  0  0  0  0  0  0  0  0  0  0
   -2.0070    3.4033   -0.4904 H   0  0  0  0  0  0  0  0  0  0  0  0
   -1.1255    2.8240    0.9248 H   0  0  0  0  0  0  0  0  0  0  0  0
   -0.2440    3.4033   -0.4904 H   0  0  0  0  0  0  0  0  0  0  0  0
  1  2  1  0
  1  5  1  0
  1  6  1  0
  1 15  1  0
  2  3  1  0
  3  4  2  3
  4  7  1  0
  4  8  1  0
  9 10  1  0
  9 12  1  0
  9 13  1  0
  9 14  1  0
 10 11  1  0
 10 16  1  0
 11 17  1  0
 11 18  1  0
 11 19  1  0
M  RAD  1  10   2
M  END
>  <reaction>  (19) 
rmg_rxn_15684

>  <mol_properties>  (19) 
{"0": {"label": "*3", "atom_type": "Cs"}, "1": {"label": "*4", "atom_type": "O2s"}, "8": {"label": "*0", "atom_type": "Cs"}, "9": {"label": "*1", "atom_type": "Cs"}, "14": {"label": "*2", "atom_type": "H0"}}

>  <type>  (19) 
unop_15

>  <geom_source>  (19) 
Heuristics

$$$$

     RDKit          3D

 19 17  0  0  0  0  0  0  0  0999 V2000
    0.4572   -1.3175    0.2198 C   0  0  0  0  0  3  0  0  0  0  0  0
    1.3814   -0.7684   -0.6572 O   0  0  0  0  0  0  0  0  0  0  0  0
    2.1571    0.2754   -0.3034 N   0  0  0  0  0  0  0  0  0  0  0  0
    2.0388    0.8698    0.8052 C   0  0  0  0  0  0  0  0  0  0  0  0
    0.0917   -2.2280   -0.2416 H   0  0  0  0  0  0  0  0  0  0  0  0
    0.8363   -1.4779    1.2292 H   0  0  0  0  0  0  0  0  0  0  0  0
    2.7255    1.6804    0.9743 H   0  0  0  0  0  0  0  0  0  0  0  0
    1.3158    0.6499    1.5866 H   0  0  0  0  0  0  0  0  0  0  0  0
   -2.8521   -0.5930    0.1694 C   0  0  0  0  0  0  0  0  0  0  0  0
   -1.6468    0.2808    0.4107 C   0  0  0  0  0  0  0  0  0  0  0  0
   -1.4374    1.3574   -0.6243 C   0  0  0  0  0  0  0  0  0  0  0  0
   -3.7721   -0.0090    0.2419 H   0  0  0  0  0  0  0  0  0  0  0  0
   -2.9045   -1.3950    0.9029 H   0  0  0  0  0  0  0  0  0  0  0  0
   -2.8132   -1.0322   -0.8254 H   0  0  0  0  0  0  0  0  0  0  0  0
   -0.6032   -0.5122    0.3374 H   0  0  0  0  0  0  0  0  0  0  0  0
   -1.6227    0.6737    1.4271 H   0  0  0  0  0  0  0  0  0  0  0  0
   -0.5281    1.9211   -0.4241 H   0  0  0  0  0  0  0  0  0  0  0  0
   -1.3595    0.9214   -1.6185 H   0  0  0  0  0  0  0  0  0  0  0  0
   -2.2751    2.0583   -0.6284 H   0  0  0  0  0  0  0  0  0  0  0  0
  1  2  1  0
  1  5  1  0
  1  6  1  0
  2  3  1  0
  3  4  2  3
  4  7  1  0
  4  8  1  0
  9 10  1  0
  9 12  1  0
  9 13  1  0
  9 14  1  0
 10 11  1  0
 10 15  1  0
 10 16  1  0
 11 17  1  0
 11 18  1  0
 11 19  1  0
M  RAD  1   1   2
M  END
>  <reaction>  (20) 
rmg_rxn_15684

>  <mol_properties>  (20) 
{"0": {"label": "*3", "atom_type": "Cs"}, "1": {"label": "*4", "atom_type": "O2s"}, "8": {"label": "*0", "atom_type": "Cs"}, "9": {"label": "*1", "atom_type": "Cs"}, "14": {"label": "*2", "atom_type": "H0"}}

>  <type>  (20) 
unop_16

>  <geom_source>  (20) 
Heuristics

$$$$

     RDKit          3D

 19 17  0  0  0  0  0  0  0  0999 V2000
    0.9515   -0.1203   -0.2262 C   0  0  0  0  0  0  0  0  0  0  0  0
    0.4414   -1.1915    0.5432 O   0  0  0  0  0  0  0  0  0  0  0  0
    1.2456   -1.3994    1.6381 N   0  0  0  0  0  0  0  0  0  0  0  0
    0.8290   -2.3501    2.3587 C   0  0  0  0  0  0  0  0  0  0  0  0
    0.9698    0.8043    0.3552 H   0  0  0  0  0  0  0  0  0  0  0  0
    1.9576   -0.3436   -0.5883 H   0  0  0  0  0  0  0  0  0  0  0  0
    1.4087   -2.5781    3.2432 H   0  0  0  0  0  0  0  0  0  0  0  0
   -0.0651   -2.9207    2.1169 H   0  0  0  0  0  0  0  0  0  0  0  0
   -1.1427    1.1880   -2.6212 C   0  0  0  0  0  0  0  0  0  0  0  0
   -1.1427    1.1880   -1.0978 C   0  0  0  0  0  3  0  0  0  0  0  0
   -1.1427    2.5938   -0.5111 C   0  0  0  0  0  0  0  0  0  0  0  0
   -0.2612    1.7023   -3.0118 H   0  0  0  0  0  0  0  0  0  0  0  0
   -2.0241    1.7023   -3.0118 H   0  0  0  0  0  0  0  0  0  0  0  0
   -1.1427    0.1731   -3.0223 H   0  0  0  0  0  0  0  0  0  0  0  0
   -0.0932    0.5324   -0.6610 H   0  0  0  0  0  0  0  0  0  0  0  0
   -2.0172    0.6417   -0.7338 H   0  0  0  0  0  0  0  0  0  0  0  0
   -2.0241    3.1524   -0.8353 H   0  0  0  0  0  0  0  0  0  0  0  0
   -1.1427    2.5732    0.5800 H   0  0  0  0  0  0  0  0  0  0  0  0
   -0.2612    3.1524   -0.8353 H   0  0  0  0  0  0  0  0  0  0  0  0
  1  2  1  0
  1  5  1  0
  1  6  1  0
  1 15  1  0
  2  3  1  0
  3  4  2  3
  4  7  1  0
  4  8  1  0
  9 10  1  0
  9 12  1  0
  9 13  1  0
  9 14  1  0
 10 11  1  0
 10 16  1  0
 11 17  1  0
 11 18  1  0
 11 19  1  0
M  RAD  1  10   2
M  END
>  <reaction>  (21) 
rmg_rxn_15684

>  <mol_properties>  (21) 
{"0": {"label": "*3", "atom_type": "Cs"}, "1": {"label": "*4", "atom_type": "O2s"}, "8": {"label": "*0", "atom_type": "Cs"}, "9": {"label": "*1", "atom_type": "Cs"}, "14": {"label": "*2", "atom_type": "H0"}}

>  <type>  (21) 
unop_17

>  <geom_source>  (21) 
Heuristics

$$$$

     RDKit          3D

 19 17  0  0  0  0  0  0  0  0999 V2000
    0.4564   -1.3153    0.2261 C   0  0  0  0  0  3  0  0  0  0  0  0
    1.3795   -0.7713   -0.6552 O   0  0  0  0  0  0  0  0  0  0  0  0
    2.1583    0.2722   -0.3073 N   0  0  0  0  0  0  0  0  0  0  0  0
    2.0435    0.8715    0.7991 C   0  0  0  0  0  0  0  0  0  0  0  0
    0.0899   -2.2280   -0.2299 H   0  0  0  0  0  0  0  0  0  0  0  0
    0.8369   -1.4706    1.2357 H   0  0  0  0  0  0  0  0  0  0  0  0
    2.7326    1.6810    0.9635 H   0  0  0  0  0  0  0  0  0  0  0  0
    1.3214    0.6566    1.5828 H   0  0  0  0  0  0  0  0  0  0  0  0
   -2.8513   -0.5955    0.1617 C   0  0  0  0  0  0  0  0  0  0  0  0
   -1.6497    0.2806    0.4124 C   0  0  0  0  0  0  0  0  0  0  0  0
   -1.4384    1.3620   -0.6172 C   0  0  0  0  0  0  0  0  0  0  0  0
   -3.7734   -0.0148    0.2332 H   0  0  0  0  0  0  0  0  0  0  0  0
   -2.9043   -1.4014    0.8909 H   0  0  0  0  0  0  0  0  0  0  0  0
   -2.8068   -1.0297   -0.8352 H   0  0  0  0  0  0  0  0  0  0  0  0
   -0.6043   -0.5100    0.3412 H   0  0  0  0  0  0  0  0  0  0  0  0
   -1.6318    0.6695    1.4304 H   0  0  0  0  0  0  0  0  0  0  0  0
   -1.3534    0.9303   -1.6127 H   0  0  0  0  0  0  0  0  0  0  0  0
   -2.2785    2.0599   -0.6232 H   0  0  0  0  0  0  0  0  0  0  0  0
   -0.5323    1.9282   -0.4099 H   0  0  0  0  0  0  0  0  0  0  0  0
  1  2  1  0
  1  5  1  0
  1  6  1  0
  2  3  1  0
  3  4  2  3
  4  7  1  0
  4  8  1  0
  9 10  1  0
  9 12  1  0
  9 13  1  0
  9 14  1  0
 10 11  1  0
 10 15  1  0
 10 16  1  0
 11 17  1  0
 11 18  1  0
 11 19  1  0
M  RAD  1   1   2
M  END
>  <reaction>  (22) 
rmg_rxn_15684

>  <mol_properties>  (22) 
{"0": {"label": "*3", "atom_type": "Cs"}, "1": {"label": "*4", "atom_type": "O2s"}, "8": {"label": "*0", "atom_type": "Cs"}, "9": {"label": "*1", "atom_type": "Cs"}, "14": {"label": "*2", "atom_type": "H0"}}

>  <type>  (22) 
unop_18

>  <geom_source>  (22) 
Heuristics

$$$$

     RDKit          3D

 19 17  0  0  0  0  0  0  0  0999 V2000
    0.1214   -1.2257    0.1187 C   0  0  0  0  0  0  0  0  0  0  0  0
    1.1491   -0.2629    0.2463 O   0  0  0  0  0  0  0  0  0  0  0  0
    1.8925   -0.5254    1.3720 N   0  0  0  0  0  0  0  0  0  0  0  0
    2.8264    0.3112    1.5293 C   0  0  0  0  0  0  0  0  0  0  0  0
    0.5377   -2.2304    0.0172 H   0  0  0  0  0  0  0  0  0  0  0  0
   -0.5519   -1.1947    0.9782 H   0  0  0  0  0  0  0  0  0  0  0  0
    3.4597    0.1737    2.3955 H   0  0  0  0  0  0  0  0  0  0  0  0
    2.9990    1.1337    0.8385 H   0  0  0  0  0  0  0  0  0  0  0  0
   -1.9728    0.0826   -2.2763 C   0  0  0  0  0  0  0  0  0  0  0  0
   -1.9728    0.0826   -0.7530 C   0  0  0  0  0  3  0  0  0  0  0  0
   -1.9728    1.4885   -0.1663 C   0  0  0  0  0  0  0  0  0  0  0  0
   -1.0913    0.5969   -2.6670 H   0  0  0  0  0  0  0  0  0  0  0  0
   -2.8542    0.5969   -2.6670 H   0  0  0  0  0  0  0  0  0  0  0  0
   -1.9728   -0.9323   -2.6775 H   0  0  0  0  0  0  0  0  0  0  0  0
   -0.9234   -0.5730   -0.3162 H   0  0  0  0  0  0  0  0  0  0  0  0
   -2.8473   -0.4637   -0.3890 H   0  0  0  0  0  0  0  0  0  0  0  0
   -2.8542    2.0470   -0.4904 H   0  0  0  0  0  0  0  0  0  0  0  0
   -1.9728    1.4678    0.9248 H   0  0  0  0  0  0  0  0  0  0  0  0
   -1.0913    2.0470   -0.4904 H   0  0  0  0  0  0  0  0  0  0  0  0
  1  2  1  0
  1  5  1  0
  1  6  1  0
  1 15  1  0
  2  3  1  0
  3  4  2  3
  4  7  1  0
  4  8  1  0
  9 10  1  0
  9 12  1  0
  9 13  1  0
  9 14  1  0
 10 11  1  0
 10 16  1  0
 11 17  1  0
 11 18  1  0
 11 19  1  0
M  RAD  1  10   2
M  END
>  <reaction>  (23) 
rmg_rxn_15684

>  <mol_properties>  (23) 
{"0": {"label": "*3", "atom_type": "Cs"}, "1": {"label": "*4", "atom_type": "O2s"}, "8": {"label": "*0", "atom_type": "Cs"}, "9": {"label": "*1", "atom_type": "Cs"}, "14": {"label": "*2", "atom_type": "H0"}}

>  <type>  (23) 
unop_19

>  <geom_source>  (23) 
Heuristics

$$$$

     RDKit          3D

 19 17  0  0  0  0  0  0  0  0999 V2000
    0.2924    1.4876   -0.2611 C   0  0  0  0  0  3  0  0  0  0  0  0
    1.3421    0.6285   -0.5422 O   0  0  0  0  0  0  0  0  0  0  0  0
    1.7340   -0.1051    0.5577 N   0  0  0  0  0  0  0  0  0  0  0  0
    2.6422   -0.9603    0.3559 C   0  0  0  0  0  0  0  0  0  0  0  0
    0.3269    1.8943    0.7466 H   0  0  0  0  0  0  0  0  0  0  0  0
    0.2568    2.2403   -1.0407 H   0  0  0  0  0  0  0  0  0  0  0  0
    2.9603   -1.5315    1.2094 H   0  0  0  0  0  0  0  0  0  0  0  0
    3.1100   -1.1420   -0.6070 H   0  0  0  0  0  0  0  0  0  0  0  0
   -2.5545    0.1615    1.0232 C   0  0  0  0  0  0  0  0  0  0  0  0
   -1.9373    0.0640   -0.3496 C   0  0  0  0  0  0  0  0  0  0  0  0
   -1.4935   -1.3243   -0.7374 C   0  0  0  0  0  0  0  0  0  0  0  0
   -1.8711   -0.2248    1.7769 H   0  0  0  0  0  0  0  0  0  0  0  0
   -3.4765   -0.4220    1.0755 H   0  0  0  0  0  0  0  0  0  0  0  0
   -2.7957    1.1939    1.2676 H   0  0  0  0  0  0  0  0  0  0  0  0
   -0.8530    0.8003   -0.3207 H   0  0  0  0  0  0  0  0  0  0  0  0
   -2.5580    0.5273   -1.1154 H   0  0  0  0  0  0  0  0  0  0  0  0
   -2.3501   -1.9958   -0.8311 H   0  0  0  0  0  0  0  0  0  0  0  0
   -0.9707   -1.3099   -1.6916 H   0  0  0  0  0  0  0  0  0  0  0  0
   -0.8250   -1.7353    0.0170 H   0  0  0  0  0  0  0  0  0  0  0  0
  1  2  1  0
  1  5  1  0
  1  6  1  0
  2  3  1  0
  3  4  2  3
  4  7  1  0
  4  8  1  0
  9 10  1  0
  9 12  1  0
  9 13  1  0
  9 14  1  0
 10 11  1  0
 10 15  1  0
 10 16  1  0
 11 17  1  0
 11 18  1  0
 11 19  1  0
M  RAD  1   1   2
M  END
>  <reaction>  (24) 
rmg_rxn_15684

>  <mol_properties>  (24) 
{"0": {"label": "*3", "atom_type": "Cs"}, "1": {"label": "*4", "atom_type": "O2s"}, "8": {"label": "*0", "atom_type": "Cs"}, "9": {"label": "*1", "atom_type": "Cs"}, "14": {"label": "*2", "atom_type": "H0"}}

>  <type>  (24) 
unop_20

>  <geom_source>  (24) 
Heuristics

$$$$

     RDKit          3D

 19 17  0  0  0  0  0  0  0  0999 V2000
    0.5191    0.0512    0.9012 C   0  0  0  0  0  0  0  0  0  0  0  0
    0.7979   -0.9254   -0.0827 O   0  0  0  0  0  0  0  0  0  0  0  0
    1.5937   -1.9092    0.4536 N   0  0  0  0  0  0  0  0  0  0  0  0
    1.8708   -2.8077   -0.3906 C   0  0  0  0  0  0  0  0  0  0  0  0
   -0.0159   -0.3875    1.7465 H   0  0  0  0  0  0  0  0  0  0  0  0
    1.4387    0.5220    1.2559 H   0  0  0  0  0  0  0  0  0  0  0  0
    2.4955   -3.6208   -0.0458 H   0  0  0  0  0  0  0  0  0  0  0  0
    1.5082   -2.7806   -1.4159 H   0  0  0  0  0  0  0  0  0  0  0  0
   -1.5751    1.3595   -1.4938 C   0  0  0  0  0  0  0  0  0  0  0  0
   -1.5751    1.3595    0.0295 C   0  0  0  0  0  3  0  0  0  0  0  0
   -1.5751    2.7653    0.6162 C   0  0  0  0  0  0  0  0  0  0  0  0
   -0.6937    1.8738   -1.8844 H   0  0  0  0  0  0  0  0  0  0  0  0
   -2.4566    1.8737   -1.8844 H   0  0  0  0  0  0  0  0  0  0  0  0
   -1.5751    0.3446   -1.8950 H   0  0  0  0  0  0  0  0  0  0  0  0
   -0.5257    0.7039    0.4663 H   0  0  0  0  0  0  0  0  0  0  0  0
   -2.4496    0.8131    0.3935 H   0  0  0  0  0  0  0  0  0  0  0  0
   -2.4566    3.3239    0.2921 H   0  0  0  0  0  0  0  0  0  0  0  0
   -1.5751    2.7446    1.7074 H   0  0  0  0  0  0  0  0  0  0  0  0
   -0.6936    3.3239    0.2921 H   0  0  0  0  0  0  0  0  0  0  0  0
  1  2  1  0
  1  5  1  0
  1  6  1  0
  1 15  1  0
  2  3  1  0
  3  4  2  3
  4  7  1  0
  4  8  1  0
  9 10  1  0
  9 12  1  0
  9 13  1  0
  9 14  1  0
 10 11  1  0
 10 16  1  0
 11 17  1  0
 11 18  1  0
 11 19  1  0
M  RAD  1  10   2
M  END
>  <reaction>  (25) 
rmg_rxn_15684

>  <mol_properties>  (25) 
{"0": {"label": "*3", "atom_type": "Cs"}, "1": {"label": "*4", "atom_type": "O2s"}, "8": {"label": "*0", "atom_type": "Cs"}, "9": {"label": "*1", "atom_type": "Cs"}, "14": {"label": "*2", "atom_type": "H0"}}

>  <type>  (25) 
unop_21

>  <geom_source>  (25) 
Heuristics

$$$$

     RDKit          3D

 19 17  0  0  0  0  0  0  0  0999 V2000
   -0.0193   -1.1206    0.5426 C   0  0  0  0  0  0  0  0  0  0  0  0
    1.1039   -0.4325    0.0285 O   0  0  0  0  0  0  0  0  0  0  0  0
    2.1529   -0.5341    0.9105 N   0  0  0  0  0  0  0  0  0  0  0  0
    3.1831    0.0672    0.4935 C   0  0  0  0  0  0  0  0  0  0  0  0
    0.2011   -2.1818    0.6786 H   0  0  0  0  0  0  0  0  0  0  0  0
   -0.3398   -0.6897    1.4938 H   0  0  0  0  0  0  0  0  0  0  0  0
    4.0555    0.0345    1.1323 H   0  0  0  0  0  0  0  0  0  0  0  0
    3.2087    0.5958   -0.4570 H   0  0  0  0  0  0  0  0  0  0  0  0
   -2.1135    0.1877   -1.8524 C   0  0  0  0  0  0  0  0  0  0  0  0
   -2.1135    0.1877   -0.3291 C   0  0  0  0  0  3  0  0  0  0  0  0
   -2.1135    1.5935    0.2577 C   0  0  0  0  0  0  0  0  0  0  0  0
   -1.2321    0.7019   -2.2430 H   0  0  0  0  0  0  0  0  0  0  0  0
   -2.9950    0.7019   -2.2430 H   0  0  0  0  0  0  0  0  0  0  0  0
   -2.1135   -0.8272   -2.2535 H   0  0  0  0  0  0  0  0  0  0  0  0
   -1.0641   -0.4680    0.1077 H   0  0  0  0  0  0  0  0  0  0  0  0
   -2.9881   -0.3587    0.0349 H   0  0  0  0  0  0  0  0  0  0  0  0
   -2.9950    2.1520   -0.0665 H   0  0  0  0  0  0  0  0  0  0  0  0
   -2.1135    1.5728    1.3488 H   0  0  0  0  0  0  0  0  0  0  0  0
   -1.2321    2.1520   -0.0665 H   0  0  0  0  0  0  0  0  0  0  0  0
  1  2  1  0
  1  5  1  0
  1  6  1  0
  1 15  1  0
  2  3  1  0
  3  4  2  3
  4  7  1  0
  4  8  1  0
  9 10  1  0
  9 12  1  0
  9 13  1  0
  9 14  1  0
 10 11  1  0
 10 16  1  0
 11 17  1  0
 11 18  1  0
 11 19  1  0
M  RAD  1  10   2
M  END
>  <reaction>  (26) 
rmg_rxn_15684

>  <mol_properties>  (26) 
{"0": {"label": "*3", "atom_type": "Cs"}, "1": {"label": "*4", "atom_type": "O2s"}, "8": {"label": "*0", "atom_type": "Cs"}, "9": {"label": "*1", "atom_type": "Cs"}, "14": {"label": "*2", "atom_type": "H0"}}

>  <type>  (26) 
unop_22

>  <geom_source>  (26) 
Heuristics

$$$$

     RDKit          3D

 19 17  0  0  0  0  0  0  0  0999 V2000
    0.7956   -0.4069   -0.3969 C   0  0  0  0  0  0  0  0  0  0  0  0
    0.4088   -0.9677    0.8422 O   0  0  0  0  0  0  0  0  0  0  0  0
    1.5181   -1.1573    1.6311 N   0  0  0  0  0  0  0  0  0  0  0  0
    1.2222   -1.6583    2.7528 C   0  0  0  0  0  0  0  0  0  0  0  0
    1.2737    0.5648   -0.2538 H   0  0  0  0  0  0  0  0  0  0  0  0
    1.4760   -1.0732   -0.9320 H   0  0  0  0  0  0  0  0  0  0  0  0
    2.0425   -1.8392    3.4345 H   0  0  0  0  0  0  0  0  0  0  0  0
    0.2000   -1.9014    3.0349 H   0  0  0  0  0  0  0  0  0  0  0  0
   -1.2986    0.9014   -2.7919 C   0  0  0  0  0  0  0  0  0  0  0  0
   -1.2986    0.9014   -1.2686 C   0  0  0  0  0  3  0  0  0  0  0  0
   -1.2986    2.3073   -0.6819 C   0  0  0  0  0  0  0  0  0  0  0  0
   -0.4171    1.4157   -3.1826 H   0  0  0  0  0  0  0  0  0  0  0  0
   -2.1800    1.4157   -3.1826 H   0  0  0  0  0  0  0  0  0  0  0  0
   -1.2986   -0.1134   -3.1931 H   0  0  0  0  0  0  0  0  0  0  0  0
   -0.2491    0.2458   -0.8318 H   0  0  0  0  0  0  0  0  0  0  0  0
   -2.1731    0.3551   -0.9046 H   0  0  0  0  0  0  0  0  0  0  0  0
   -2.1800    2.8658   -1.0060 H   0  0  0  0  0  0  0  0  0  0  0  0
   -1.2986    2.2866    0.4092 H   0  0  0  0  0  0  0  0  0  0  0  0
   -0.4171    2.8658   -1.0060 H   0  0  0  0  0  0  0  0  0  0  0  0
  1  2  1  0
  1  5  1  0
  1  6  1  0
  1 15  1  0
  2  3  1  0
  3  4  2  3
  4  7  1  0
  4  8  1  0
  9 10  1  0
  9 12  1  0
  9 13  1  0
  9 14  1  0
 10 11  1  0
 10 16  1  0
 11 17  1  0
 11 18  1  0
 11 19  1  0
M  RAD  1  10   2
M  END
>  <reaction>  (27) 
rmg_rxn_15684

>  <mol_properties>  (27) 
{"0": {"label": "*3", "atom_type": "Cs"}, "1": {"label": "*4", "atom_type": "O2s"}, "8": {"label": "*0", "atom_type": "Cs"}, "9": {"label": "*1", "atom_type": "Cs"}, "14": {"label": "*2", "atom_type": "H0"}}

>  <type>  (27) 
unop_23

>  <geom_source>  (27) 
Heuristics

$$$$

     RDKit          3D

 19 17  0  0  0  0  0  0  0  0999 V2000
    0.1976   -0.3305    1.0448 C   0  0  0  0  0  0  0  0  0  0  0  0
    0.8884   -0.7621   -0.1111 O   0  0  0  0  0  0  0  0  0  0  0  0
    2.0117   -1.4639    0.2558 N   0  0  0  0  0  0  0  0  0  0  0  0
    2.6644   -1.8716   -0.7465 C   0  0  0  0  0  0  0  0  0  0  0  0
   -0.1231   -1.1821    1.6491 H   0  0  0  0  0  0  0  0  0  0  0  0
    0.8223    0.3312    1.6491 H   0  0  0  0  0  0  0  0  0  0  0  0
    3.5653   -2.4345   -0.5420 H   0  0  0  0  0  0  0  0  0  0  0  0
    2.3507   -1.6756   -1.7695 H   0  0  0  0  0  0  0  0  0  0  0  0
   -1.8966    0.9778   -1.3502 C   0  0  0  0  0  0  0  0  0  0  0  0
   -1.8966    0.9778    0.1732 C   0  0  0  0  0  3  0  0  0  0  0  0
   -1.8966    2.3836    0.7599 C   0  0  0  0  0  0  0  0  0  0  0  0
   -1.0151    1.4921   -1.7408 H   0  0  0  0  0  0  0  0  0  0  0  0
   -2.7780    1.4921   -1.7408 H   0  0  0  0  0  0  0  0  0  0  0  0
   -1.8966   -0.0371   -1.7513 H   0  0  0  0  0  0  0  0  0  0  0  0
   -0.8471    0.3222    0.6100 H   0  0  0  0  0  0  0  0  0  0  0  0
   -2.7711    0.4315    0.5372 H   0  0  0  0  0  0  0  0  0  0  0  0
   -2.7780    2.9422    0.4357 H   0  0  0  0  0  0  0  0  0  0  0  0
   -1.8966    2.3629    1.8510 H   0  0  0  0  0  0  0  0  0  0  0  0
   -1.0151    2.9422    0.4357 H   0  0  0  0  0  0  0  0  0  0  0  0
  1  2  1  0
  1  5  1  0
  1  6  1  0
  1 15  1  0
  2  3  1  0
  3  4  2  3
  4  7  1  0
  4  8  1  0
  9 10  1  0
  9 12  1  0
  9 13  1  0
  9 14  1  0
 10 11  1  0
 10 16  1  0
 11 17  1  0
 11 18  1  0
 11 19  1  0
M  RAD  1  10   2
M  END
>  <reaction>  (28) 
rmg_rxn_15684

>  <mol_properties>  (28) 
{"0": {"label": "*3", "atom_type": "Cs"}, "1": {"label": "*4", "atom_type": "O2s"}, "8": {"label": "*0", "atom_type": "Cs"}, "9": {"label": "*1", "atom_type": "Cs"}, "14": {"label": "*2", "atom_type": "H0"}}

>  <type>  (28) 
unop_24

>  <geom_source>  (28) 
Heuristics

$$$$

     RDKit          3D

 19 17  0  0  0  0  0  0  0  0999 V2000
    0.6657   -1.6967   -0.0586 C   0  0  0  0  0  0  0  0  0  0  0  0
    1.6325   -0.7392    0.2961 O   0  0  0  0  0  0  0  0  0  0  0  0
    1.3739    0.4751   -0.3047 N   0  0  0  0  0  0  0  0  0  0  0  0
    2.1863    1.4034   -0.0576 C   0  0  0  0  0  0  0  0  0  0  0  0
    0.5670   -1.8470   -1.1166 H   0  0  0  0  0  0  0  0  0  0  0  0
    0.8934   -2.6020    0.4881 H   0  0  0  0  0  0  0  0  0  0  0  0
    1.9889    2.3532   -0.5235 H   0  0  0  0  0  0  0  0  0  0  0  0
    3.0567    1.3040    0.5847 H   0  0  0  0  0  0  0  0  0  0  0  0
   -1.8541    0.5937    1.2800 C   0  0  0  0  0  0  0  0  0  0  0  0
   -2.1272   -0.2518    0.0929 C   0  0  0  0  0  3  0  0  0  0  0  0
   -1.9865    0.3245   -1.2662 C   0  0  0  0  0  0  0  0  0  0  0  0
   -2.6894    1.2770    1.4847 H   0  0  0  0  0  0  0  0  0  0  0  0
   -0.9683    1.2069    1.1174 H   0  0  0  0  0  0  0  0  0  0  0  0
   -1.7086   -0.0138    2.1721 H   0  0  0  0  0  0  0  0  0  0  0  0
   -0.3773   -1.3460    0.0826 H   0  0  0  0  0  0  0  0  0  0  0  0
   -2.7772   -1.1040    0.2213 H   0  0  0  0  0  0  0  0  0  0  0  0
   -2.7733    1.0633   -1.4684 H   0  0  0  0  0  0  0  0  0  0  0  0
   -1.0299    0.8388   -1.3646 H   0  0  0  0  0  0  0  0  0  0  0  0
   -2.0586   -0.4469   -2.0307 H   0  0  0  0  0  0  0  0  0  0  0  0
  1  2  1  0
  1  5  1  0
  1  6  1  0
  1 15  1  0
  2  3  1  0
  3  4  2  3
  4  7  1  0
  4  8  1  0
  9 10  1  0
  9 12  1  0
  9 13  1  0
  9 14  1  0
 10 11  1  0
 10 16  1  0
 11 17  1  0
 11 18  1  0
 11 19  1  0
M  RAD  1  10   2
M  END
>  <reaction>  (29) 
rmg_rxn_15684

>  <mol_properties>  (29) 
{"0": {"label": "*3", "atom_type": "Cs"}, "1": {"label": "*4", "atom_type": "O2s"}, "8": {"label": "*0", "atom_type": "Cs"}, "9": {"label": "*1", "atom_type": "Cs"}, "14": {"label": "*2", "atom_type": "H0"}}

>  <type>  (29) 
unop_25

>  <geom_source>  (29) 
Heuristics

$$$$

     RDKit          3D

 19 17  0  0  0  0  0  0  0  0999 V2000
    2.1728    0.0214   -0.7302 O   0  0  0  0  0  0  0  0  0  0  0  0
    2.7971   -0.3178    0.4481 N   0  0  0  0  0  0  0  0  0  0  0  0
   -2.1585    1.3692   -0.1791 C   0  0  0  0  0  0  0  0  0  0  0  0
   -2.0684   -1.0904    0.3672 C   0  0  0  0  0  0  0  0  0  0  0  0
    0.8540   -0.4252   -0.9942 C   0  0  0  0  0  3  0  0  0  0  0  0
   -1.2784    0.2087    0.2681 C   0  0  0  0  0  0  0  0  0  0  0  0
    3.9993    0.0868    0.6937 C   0  0  0  0  0  0  0  0  0  0  0  0
   -2.5973    1.1543   -1.1763 H   0  0  0  0  0  0  0  0  0  0  0  0
   -2.9740    1.5416    0.5553 H   0  0  0  0  0  0  0  0  0  0  0  0
   -1.5423    2.2892   -0.2540 H   0  0  0  0  0  0  0  0  0  0  0  0
   -1.3884   -1.9103    0.6787 H   0  0  0  0  0  0  0  0  0  0  0  0
   -2.8811   -0.9926    1.1181 H   0  0  0  0  0  0  0  0  0  0  0  0
   -2.5056   -1.3484   -0.6205 H   0  0  0  0  0  0  0  0  0  0  0  0
    0.5228   -0.0321   -1.9772 H   0  0  0  0  0  0  0  0  0  0  0  0
    0.8305   -1.5349   -1.0180 H   0  0  0  0  0  0  0  0  0  0  0  0
    0.0190    0.0252   -0.0292 H   0  0  0  0  0  0  0  0  0  0  0  0
   -0.8136    0.4437    1.2498 H   0  0  0  0  0  0  0  0  0  0  0  0
    4.5326    0.6980   -0.0236 H   0  0  0  0  0  0  0  0  0  0  0  0
    4.4793   -0.1863    1.6233 H   0  0  0  0  0  0  0  0  0  0  0  0
  1  5  1  0
  1  2  1  0
  2  7  2  3
  3  6  1  0
  3  8  1  0
  3  9  1  0
  3 10  1  0
  4  6  1  0
  4 11  1  0
  4 12  1  0
  4 13  1  0
  5 14  1  0
  5 15  1  0
  6 16  1  0
  6 17  1  0
  7 18  1  0
  7 19  1  0
M  RAD  1   5   2
M  END
>  <reaction>  (30) 
rmg_rxn_15684

>  <mol_properties>  (30) 
{"0": {"label": "*3", "atom_type": "Cs"}, "1": {"label": "*4", "atom_type": "O2s"}, "8": {"label": "*0", "atom_type": "Cs"}, "9": {"label": "*1", "atom_type": "Cs"}, "14": {"label": "*2", "atom_type": "H0"}}

>  <type>  (30) 
unop_26

>  <geom_source>  (30) 
AutoTST

$$$$

     RDKit          3D

 19 17  0  0  0  0  0  0  0  0999 V2000
   -0.0044   -0.7868    0.9012 C   0  0  0  0  0  0  0  0  0  0  0  0
    0.9955   -0.6090   -0.0827 O   0  0  0  0  0  0  0  0  0  0  0  0
    2.2286   -0.8929    0.4536 N   0  0  0  0  0  0  0  0  0  0  0  0
    3.1576   -0.7479   -0.3906 C   0  0  0  0  0  0  0  0  0  0  0  0
   -0.0243   -1.8197    1.2559 H   0  0  0  0  0  0  0  0  0  0  0  0
    0.1552   -0.1136    1.7465 H   0  0  0  0  0  0  0  0  0  0  0  0
    4.1624   -0.9527   -0.0458 H   0  0  0  0  0  0  0  0  0  0  0  0
    2.9743   -0.4338   -1.4159 H   0  0  0  0  0  0  0  0  0  0  0  0
   -2.0986    0.5215   -1.4938 C   0  0  0  0  0  0  0  0  0  0  0  0
   -2.0986    0.5215    0.0295 C   0  0  0  0  0  3  0  0  0  0  0  0
   -2.0986    1.9273    0.6162 C   0  0  0  0  0  0  0  0  0  0  0  0
   -1.2172    1.0358   -1.8844 H   0  0  0  0  0  0  0  0  0  0  0  0
   -2.9801    1.0358   -1.8844 H   0  0  0  0  0  0  0  0  0  0  0  0
   -2.0986   -0.4934   -1.8950 H   0  0  0  0  0  0  0  0  0  0  0  0
   -1.0492   -0.1341    0.4663 H   0  0  0  0  0  0  0  0  0  0  0  0
   -2.9731   -0.0248    0.3935 H   0  0  0  0  0  0  0  0  0  0  0  0
   -2.9801    2.4859    0.2921 H   0  0  0  0  0  0  0  0  0  0  0  0
   -2.0986    1.9066    1.7074 H   0  0  0  0  0  0  0  0  0  0  0  0
   -1.2172    2.4859    0.2921 H   0  0  0  0  0  0  0  0  0  0  0  0
  1  2  1  0
  1  5  1  0
  1  6  1  0
  1 15  1  0
  2  3  1  0
  3  4  2  3
  4  7  1  0
  4  8  1  0
  9 10  1  0
  9 12  1  0
  9 13  1  0
  9 14  1  0
 10 11  1  0
 10 16  1  0
 11 17  1  0
 11 18  1  0
 11 19  1  0
M  RAD  1  10   2
M  END
>  <reaction>  (31) 
rmg_rxn_15684

>  <mol_properties>  (31) 
{"0": {"label": "*3", "atom_type": "Cs"}, "1": {"label": "*4", "atom_type": "O2s"}, "8": {"label": "*0", "atom_type": "Cs"}, "9": {"label": "*1", "atom_type": "Cs"}, "14": {"label": "*2", "atom_type": "H0"}}

>  <type>  (31) 
unop_27

>  <geom_source>  (31) 
gaussian_log

$$$$
