
     RDKit          3D

  9  8  0  0  0  0  0  0  0  0999 V2000
   -0.9895    0.3048    0.1041 C   0  0  0  0  0  0  0  0  0  0  0  0
    0.3761   -0.3562    0.0721 C   0  0  0  0  0  0  0  0  0  0  0  0
    0.3441   -1.6564   -0.4834 O   0  0  0  0  0  0  0  0  0  0  0  0
   -1.6997   -0.3114    0.6572 H   0  0  0  0  0  0  0  0  0  0  0  0
   -0.9320    1.2848    0.5822 H   0  0  0  0  0  0  0  0  0  0  0  0
   -1.3774    0.4507   -0.9077 H   0  0  0  0  0  0  0  0  0  0  0  0
    0.7581   -0.4813    1.0862 H   0  0  0  0  0  0  0  0  0  0  0  0
    1.0900    0.2787   -0.4681 H   0  0  0  0  0  0  0  0  0  0  0  0
    0.0089   -1.5959   -1.3792 H   0  0  0  0  0  0  0  0  0  0  0  0
  1  2  1  0
  1  4  1  0
  1  5  1  0
  1  6  1  0
  2  3  1  0
  2  7  1  0
  2  8  1  0
  3  9  1  0
M  END
>  <reaction>  (1) 
rmg_rxn_15508

>  <mol_properties>  (1) 
{"0": {"label": "donator", "atom_type": "Cs"}, "3": {"label": "d_hydrogen", "atom_type": "H0"}}

>  <type>  (1) 
r1h

$$$$

     RDKit          3D

  5  4  0  0  0  0  0  0  0  0999 V2000
    0.8934    0.3742    0.4948 O   0  0  0  0  0  0  0  0  0  0  0  0
    0.1582   -0.1610   -0.5904 N   0  0  0  0  0  0  0  0  0  0  0  0
   -1.0297   -0.3739   -0.4689 C   0  0  0  0  0  3  0  0  0  0  0  0
    1.7805    0.4382    0.1306 H   0  0  0  0  0  0  0  0  0  0  0  0
   -1.8023   -0.2775    0.2859 H   0  0  0  0  0  0  0  0  0  0  0  0
  1  2  1  0
  1  4  1  0
  2  3  2  3
  3  5  1  0
M  RAD  1   3   2
M  END
>  <reaction>  (2) 
rmg_rxn_15508

>  <mol_properties>  (2) 
{"2": {"label": "acceptor", "atom_type": "Cd"}}

>  <type>  (2) 
r2

$$$$

     RDKit          3D

  6  5  0  0  0  0  0  0  0  0999 V2000
    1.2314    0.0428    0.5088 O   0  0  0  0  0  0  0  0  0  0  0  0
    0.2987    0.2341   -0.4915 N   0  0  0  0  0  0  0  0  0  0  0  0
   -0.8599   -0.1122   -0.1290 C   0  0  0  0  0  0  0  0  0  0  0  0
    2.0507    0.3401    0.1082 H   0  0  0  0  0  0  0  0  0  0  0  0
   -1.0700   -0.5112    0.8610 H   0  0  0  0  0  0  0  0  0  0  0  0
   -1.6509    0.0064   -0.8574 H   0  0  0  0  0  0  0  0  0  0  0  0
  1  2  1  0
  1  4  1  0
  2  3  2  3
  3  5  1  0
  3  6  1  0
M  END
>  <reaction>  (3) 
rmg_rxn_15508

>  <mol_properties>  (3) 
{"2": {"label": "acceptor", "atom_type": "Cd"}, "5": {"label": "a_hydrogen", "atom_type": "H0"}}

>  <type>  (3) 
r2h

$$$$

     RDKit          3D

 14 12  0  0  0  0  0  0  0  0999 V2000
   -1.5104    1.9307   -0.9459 O   0  0  0  0  0  0  0  0  0  0  0  0
   -0.6278    0.9911   -0.4151 N   0  0  0  0  0  0  0  0  0  0  0  0
   -0.6798    0.8716    0.8245 C   0  0  0  0  0  3  0  0  0  0  0  0
   -1.3318    1.8924   -1.8887 H   0  0  0  0  0  0  0  0  0  0  0  0
   -1.3258    1.4123    1.5152 H   0  0  0  0  0  0  0  0  0  0  0  0
    1.0537   -1.0655    1.4517 C   0  0  0  0  0  0  0  0  0  0  0  0
    1.0932   -1.8168    0.1451 C   0  0  0  0  0  0  0  0  0  0  0  0
    1.5563   -1.0264   -0.9229 O   0  0  0  0  0  0  0  0  0  0  0  0
    0.2205   -0.1144    1.2853 H   0  0  0  0  0  0  0  0  0  0  0  0
    0.6557   -1.6381    2.2893 H   0  0  0  0  0  0  0  0  0  0  0  0
    1.9874   -0.5614    1.6967 H   0  0  0  0  0  0  0  0  0  0  0  0
    0.1007   -2.2347   -0.0711 H   0  0  0  0  0  0  0  0  0  0  0  0
    1.7834   -2.6618    0.2280 H   0  0  0  0  0  0  0  0  0  0  0  0
    0.9240   -0.3079   -1.0487 H   0  0  0  0  0  0  0  0  0  0  0  0
  1  2  1  0
  1  4  1  0
  2  3  2  3
  3  5  1  0
  6  7  1  0
  6  9  1  0
  6 10  1  0
  6 11  1  0
  7  8  1  0
  7 12  1  0
  7 13  1  0
  8 14  1  0
M  RAD  1   3   2
M  END
>  <reaction>  (4) 
rmg_rxn_15508

>  <mol_properties>  (4) 
{"1": {"label": "*4", "atom_type": "N3d"}, "2": {"label": "*3", "atom_type": "Cd"}, "5": {"label": "*1", "atom_type": "Cs"}, "6": {"label": "*0", "atom_type": "Cs"}, "8": {"label": "*2", "atom_type": "H0"}}

>  <type>  (4) 
ts

$$$$

     RDKit          3D

 14 12  0  0  0  0  0  0  0  0999 V2000
   -2.6943    0.4037    0.0743 O   0  0  0  0  0  0  0  0  0  0  0  0
   -1.3279    0.0819   -0.0190 N   0  0  0  0  0  0  0  0  0  0  0  0
   -0.9569   -1.0990   -0.0318 C   0  0  0  0  0  3  0  0  0  0  0  0
   -2.7212    1.3708    0.0607 H   0  0  0  0  0  0  0  0  0  0  0  0
   -1.5333   -2.0131    0.0198 H   0  0  0  0  0  0  0  0  0  0  0  0
    1.6596   -1.1427   -0.1791 C   0  0  0  0  0  0  0  0  0  0  0  0
    2.0319    0.1878    0.4241 C   0  0  0  0  0  0  0  0  0  0  0  0
    1.4647    1.2769   -0.2612 O   0  0  0  0  0  0  0  0  0  0  0  0
    0.3534   -1.2040   -0.1124 H   0  0  0  0  0  0  0  0  0  0  0  0
    1.8844   -1.2078   -1.2373 H   0  0  0  0  0  0  0  0  0  0  0  0
    2.0374   -1.9904    0.3790 H   0  0  0  0  0  0  0  0  0  0  0  0
    3.1177    0.3419    0.3705 H   0  0  0  0  0  0  0  0  0  0  0  0
    1.7424    0.2092    1.4867 H   0  0  0  0  0  0  0  0  0  0  0  0
    0.5047    1.1526   -0.2769 H   0  0  0  0  0  0  0  0  0  0  0  0
  1  2  1  0
  1  4  1  0
  2  3  2  3
  3  5  1  0
  6  7  1  0
  6  9  1  0
  6 10  1  0
  6 11  1  0
  7  8  1  0
  7 12  1  0
  7 13  1  0
  8 14  1  0
M  RAD  1   3   2
M  END
>  <reaction>  (5) 
rmg_rxn_15508

>  <mol_properties>  (5) 
{"1": {"label": "*4", "atom_type": "N3d"}, "2": {"label": "*3", "atom_type": "Cd"}, "5": {"label": "*1", "atom_type": "Cs"}, "6": {"label": "*0", "atom_type": "Cs"}, "8": {"label": "*2", "atom_type": "H0"}}

>  <type>  (5) 
unop_1

>  <geom_source>  (5) 
crest_best.xyz

$$$$

     RDKit          3D

 14 12  0  0  0  0  0  0  0  0999 V2000
   -1.9028    2.4921    0.3845 O   0  0  0  0  0  0  0  0  0  0  0  0
   -1.5064    1.1930    0.6344 N   0  0  0  0  0  0  0  0  0  0  0  0
   -0.6952    0.7714   -0.2360 C   0  0  0  0  0  0  0  0  0  0  0  0
   -2.5051    2.6831    1.1062 H   0  0  0  0  0  0  0  0  0  0  0  0
   -0.3644    1.3813   -1.0739 H   0  0  0  0  0  0  0  0  0  0  0  0
    1.3509   -0.5883    0.6371 C   0  0  0  0  0  3  0  0  0  0  0  0
    1.3509   -1.9867    0.0477 C   0  0  0  0  0  0  0  0  0  0  0  0
    1.3509   -1.9867   -1.3666 O   0  0  0  0  0  0  0  0  0  0  0  0
    0.3236    0.0943    0.1988 H   0  0  0  0  0  0  0  0  0  0  0  0
    1.3024   -0.6297    1.7272 H   0  0  0  0  0  0  0  0  0  0  0  0
    2.2623   -0.0491    0.3650 H   0  0  0  0  0  0  0  0  0  0  0  0
    0.4444   -2.5187    0.3396 H   0  0  0  0  0  0  0  0  0  0  0  0
    2.2031   -2.5595    0.4353 H   0  0  0  0  0  0  0  0  0  0  0  0
    2.1328   -1.5232   -1.6704 H   0  0  0  0  0  0  0  0  0  0  0  0
  1  2  1  0
  1  4  1  0
  2  3  2  3
  3  5  1  0
  3  9  1  0
  6  7  1  0
  6 10  1  0
  6 11  1  0
  7  8  1  0
  7 12  1  0
  7 13  1  0
  8 14  1  0
M  RAD  1   6   2
M  END
>  <reaction>  (6) 
rmg_rxn_15508

>  <mol_properties>  (6) 
{"1": {"label": "*4", "atom_type": "N3d"}, "2": {"label": "*3", "atom_type": "Cd"}, "5": {"label": "*1", "atom_type": "Cs"}, "6": {"label": "*0", "atom_type": "Cs"}, "8": {"label": "*2", "atom_type": "H0"}}

>  <type>  (6) 
unop_2

>  <geom_source>  (6) 
Heuristics

$$$$

     RDKit          3D

 14 12  0  0  0  0  0  0  0  0999 V2000
   -2.6345    1.3852   -0.2223 O   0  0  0  0  0  0  0  0  0  0  0  0
   -1.5138    0.5810   -0.1562 N   0  0  0  0  0  0  0  0  0  0  0  0
   -0.4752    1.2411    0.1251 C   0  0  0  0  0  0  0  0  0  0  0  0
   -3.3371    0.7693   -0.4392 H   0  0  0  0  0  0  0  0  0  0  0  0
   -0.4903    2.3162    0.2909 H   0  0  0  0  0  0  0  0  0  0  0  0
    1.5709   -0.1186    0.9982 C   0  0  0  0  0  3  0  0  0  0  0  0
    1.5709   -1.5170    0.4088 C   0  0  0  0  0  0  0  0  0  0  0  0
    1.5709   -1.5170   -1.0055 O   0  0  0  0  0  0  0  0  0  0  0  0
    0.5436    0.5640    0.5599 H   0  0  0  0  0  0  0  0  0  0  0  0
    1.5225   -0.1601    2.0883 H   0  0  0  0  0  0  0  0  0  0  0  0
    2.4823    0.4206    0.7261 H   0  0  0  0  0  0  0  0  0  0  0  0
    0.6644   -2.0490    0.7007 H   0  0  0  0  0  0  0  0  0  0  0  0
    2.4231   -2.0898    0.7964 H   0  0  0  0  0  0  0  0  0  0  0  0
    2.3528   -1.0535   -1.3093 H   0  0  0  0  0  0  0  0  0  0  0  0
  1  2  1  0
  1  4  1  0
  2  3  2  3
  3  5  1  0
  3  9  1  0
  6  7  1  0
  6 10  1  0
  6 11  1  0
  7  8  1  0
  7 12  1  0
  7 13  1  0
  8 14  1  0
M  RAD  1   6   2
M  END
>  <reaction>  (7) 
rmg_rxn_15508

>  <mol_properties>  (7) 
{"1": {"label": "*4", "atom_type": "N3d"}, "2": {"label": "*3", "atom_type": "Cd"}, "5": {"label": "*1", "atom_type": "Cs"}, "6": {"label": "*0", "atom_type": "Cs"}, "8": {"label": "*2", "atom_type": "H0"}}

>  <type>  (7) 
unop_3

>  <geom_source>  (7) 
Heuristics

$$$$

     RDKit          3D

 14 12  0  0  0  0  0  0  0  0999 V2000
   -1.7629    2.6193   -0.0352 O   0  0  0  0  0  0  0  0  0  0  0  0
   -1.2579    1.5371    0.6584 N   0  0  0  0  0  0  0  0  0  0  0  0
   -0.7935    0.6551   -0.1162 C   0  0  0  0  0  0  0  0  0  0  0  0
   -2.0766    3.2014    0.6595 H   0  0  0  0  0  0  0  0  0  0  0  0
   -0.8031    0.7612   -1.1989 H   0  0  0  0  0  0  0  0  0  0  0  0
    1.2525   -0.7046    0.7569 C   0  0  0  0  0  3  0  0  0  0  0  0
    1.2525   -2.1030    0.1675 C   0  0  0  0  0  0  0  0  0  0  0  0
    1.2525   -2.1030   -1.2468 O   0  0  0  0  0  0  0  0  0  0  0  0
    0.2253   -0.0220    0.3186 H   0  0  0  0  0  0  0  0  0  0  0  0
    1.2041   -0.7460    1.8470 H   0  0  0  0  0  0  0  0  0  0  0  0
    2.1640   -0.1654    0.4848 H   0  0  0  0  0  0  0  0  0  0  0  0
    0.3460   -2.6350    0.4595 H   0  0  0  0  0  0  0  0  0  0  0  0
    2.1047   -2.6758    0.5551 H   0  0  0  0  0  0  0  0  0  0  0  0
    2.0345   -1.6395   -1.5506 H   0  0  0  0  0  0  0  0  0  0  0  0
  1  2  1  0
  1  4  1  0
  2  3  2  3
  3  5  1  0
  3  9  1  0
  6  7  1  0
  6 10  1  0
  6 11  1  0
  7  8  1  0
  7 12  1  0
  7 13  1  0
  8 14  1  0
M  RAD  1   6   2
M  END
>  <reaction>  (8) 
rmg_rxn_15508

>  <mol_properties>  (8) 
{"1": {"label": "*4", "atom_type": "N3d"}, "2": {"label": "*3", "atom_type": "Cd"}, "5": {"label": "*1", "atom_type": "Cs"}, "6": {"label": "*0", "atom_type": "Cs"}, "8": {"label": "*2", "atom_type": "H0"}}

>  <type>  (8) 
unop_4

>  <geom_source>  (8) 
Heuristics

$$$$

     RDKit          3D

 14 12  0  0  0  0  0  0  0  0999 V2000
   -1.5793    2.2493   -1.0639 O   0  0  0  0  0  0  0  0  0  0  0  0
   -0.9860    1.0452   -0.7397 N   0  0  0  0  0  0  0  0  0  0  0  0
   -0.9103    0.8775    0.5092 C   0  0  0  0  0  0  0  0  0  0  0  0
   -1.5734    2.2485   -2.0231 H   0  0  0  0  0  0  0  0  0  0  0  0
   -1.2773    1.6118    1.2230 H   0  0  0  0  0  0  0  0  0  0  0  0
    1.1358   -0.4822    1.3822 C   0  0  0  0  0  3  0  0  0  0  0  0
    1.1358   -1.8806    0.7928 C   0  0  0  0  0  0  0  0  0  0  0  0
    1.1358   -1.8806   -0.6214 O   0  0  0  0  0  0  0  0  0  0  0  0
    0.1086    0.2004    0.9439 H   0  0  0  0  0  0  0  0  0  0  0  0
    1.0874   -0.5236    2.4723 H   0  0  0  0  0  0  0  0  0  0  0  0
    2.0472    0.0570    1.1101 H   0  0  0  0  0  0  0  0  0  0  0  0
    0.2293   -2.4126    1.0848 H   0  0  0  0  0  0  0  0  0  0  0  0
    1.9880   -2.4534    1.1804 H   0  0  0  0  0  0  0  0  0  0  0  0
    1.9178   -1.4171   -0.9253 H   0  0  0  0  0  0  0  0  0  0  0  0
  1  2  1  0
  1  4  1  0
  2  3  2  3
  3  5  1  0
  3  9  1  0
  6  7  1  0
  6 10  1  0
  6 11  1  0
  7  8  1  0
  7 12  1  0
  7 13  1  0
  8 14  1  0
M  RAD  1   6   2
M  END
>  <reaction>  (9) 
rmg_rxn_15508

>  <mol_properties>  (9) 
{"1": {"label": "*4", "atom_type": "N3d"}, "2": {"label": "*3", "atom_type": "Cd"}, "5": {"label": "*1", "atom_type": "Cs"}, "6": {"label": "*0", "atom_type": "Cs"}, "8": {"label": "*2", "atom_type": "H0"}}

>  <type>  (9) 
unop_5

>  <geom_source>  (9) 
Heuristics

$$$$

     RDKit          3D

 14 12  0  0  0  0  0  0  0  0999 V2000
   -2.0211    2.4539   -0.1286 O   0  0  0  0  0  0  0  0  0  0  0  0
   -0.9081    1.8241    0.3926 N   0  0  0  0  0  0  0  0  0  0  0  0
   -0.7961    0.6391   -0.0278 C   0  0  0  0  0  0  0  0  0  0  0  0
   -1.9860    3.3281    0.2647 H   0  0  0  0  0  0  0  0  0  0  0  0
   -1.5075    0.1922   -0.7190 H   0  0  0  0  0  0  0  0  0  0  0  0
    1.2499   -0.7206    0.8453 C   0  0  0  0  0  3  0  0  0  0  0  0
    1.2499   -2.1190    0.2558 C   0  0  0  0  0  0  0  0  0  0  0  0
    1.2499   -2.1190   -1.1584 O   0  0  0  0  0  0  0  0  0  0  0  0
    0.2227   -0.0380    0.4069 H   0  0  0  0  0  0  0  0  0  0  0  0
    1.2015   -0.7620    1.9354 H   0  0  0  0  0  0  0  0  0  0  0  0
    2.1614   -0.1814    0.5732 H   0  0  0  0  0  0  0  0  0  0  0  0
    0.3434   -2.6510    0.5478 H   0  0  0  0  0  0  0  0  0  0  0  0
    2.1021   -2.6918    0.6435 H   0  0  0  0  0  0  0  0  0  0  0  0
    2.0319   -1.6555   -1.4622 H   0  0  0  0  0  0  0  0  0  0  0  0
  1  2  1  0
  1  4  1  0
  2  3  2  3
  3  5  1  0
  3  9  1  0
  6  7  1  0
  6 10  1  0
  6 11  1  0
  7  8  1  0
  7 12  1  0
  7 13  1  0
  8 14  1  0
M  RAD  1   6   2
M  END
>  <reaction>  (10) 
rmg_rxn_15508

>  <mol_properties>  (10) 
{"1": {"label": "*4", "atom_type": "N3d"}, "2": {"label": "*3", "atom_type": "Cd"}, "5": {"label": "*1", "atom_type": "Cs"}, "6": {"label": "*0", "atom_type": "Cs"}, "8": {"label": "*2", "atom_type": "H0"}}

>  <type>  (10) 
unop_6

>  <geom_source>  (10) 
Heuristics

$$$$

     RDKit          3D

 14 12  0  0  0  0  0  0  0  0999 V2000
   -1.4235    2.6032   -0.6297 O   0  0  0  0  0  0  0  0  0  0  0  0
   -0.8216    1.3619   -0.6921 N   0  0  0  0  0  0  0  0  0  0  0  0
   -0.9942    0.6998    0.3687 C   0  0  0  0  0  0  0  0  0  0  0  0
   -1.2187    2.9923   -1.4822 H   0  0  0  0  0  0  0  0  0  0  0  0
   -1.5555    1.0863    1.2167 H   0  0  0  0  0  0  0  0  0  0  0  0
    1.0519   -0.6599    1.2418 C   0  0  0  0  0  3  0  0  0  0  0  0
    1.0519   -2.0583    0.6524 C   0  0  0  0  0  0  0  0  0  0  0  0
    1.0519   -2.0583   -0.7619 O   0  0  0  0  0  0  0  0  0  0  0  0
    0.0246    0.0227    0.8035 H   0  0  0  0  0  0  0  0  0  0  0  0
    1.0035   -0.7013    2.3319 H   0  0  0  0  0  0  0  0  0  0  0  0
    1.9633   -0.1207    0.9697 H   0  0  0  0  0  0  0  0  0  0  0  0
    0.1454   -2.5903    0.9443 H   0  0  0  0  0  0  0  0  0  0  0  0
    1.9041   -2.6311    1.0400 H   0  0  0  0  0  0  0  0  0  0  0  0
    1.8338   -1.5948   -1.0657 H   0  0  0  0  0  0  0  0  0  0  0  0
  1  2  1  0
  1  4  1  0
  2  3  2  3
  3  5  1  0
  3  9  1  0
  6  7  1  0
  6 10  1  0
  6 11  1  0
  7  8  1  0
  7 12  1  0
  7 13  1  0
  8 14  1  0
M  RAD  1   6   2
M  END
>  <reaction>  (11) 
rmg_rxn_15508

>  <mol_properties>  (11) 
{"1": {"label": "*4", "atom_type": "N3d"}, "2": {"label": "*3", "atom_type": "Cd"}, "5": {"label": "*1", "atom_type": "Cs"}, "6": {"label": "*0", "atom_type": "Cs"}, "8": {"label": "*2", "atom_type": "H0"}}

>  <type>  (11) 
unop_7

>  <geom_source>  (11) 
Heuristics

$$$$

     RDKit          3D

 14 12  0  0  0  0  0  0  0  0999 V2000
   -2.6946    0.4036   -0.0742 O   0  0  0  0  0  0  0  0  0  0  0  0
   -1.3281    0.0821    0.0188 N   0  0  0  0  0  0  0  0  0  0  0  0
   -0.9569   -1.0988    0.0317 C   0  0  0  0  0  3  0  0  0  0  0  0
   -2.7218    1.3707   -0.0603 H   0  0  0  0  0  0  0  0  0  0  0  0
   -1.5335   -2.0128   -0.0193 H   0  0  0  0  0  0  0  0  0  0  0  0
    1.6595   -1.1428    0.1790 C   0  0  0  0  0  0  0  0  0  0  0  0
    2.0323    0.1877   -0.4238 C   0  0  0  0  0  0  0  0  0  0  0  0
    1.4649    1.2769    0.2611 O   0  0  0  0  0  0  0  0  0  0  0  0
    0.3533   -1.2038    0.1123 H   0  0  0  0  0  0  0  0  0  0  0  0
    2.0371   -1.9905   -0.3792 H   0  0  0  0  0  0  0  0  0  0  0  0
    1.8840   -1.2083    1.2372 H   0  0  0  0  0  0  0  0  0  0  0  0
    1.7436    0.2093   -1.4866 H   0  0  0  0  0  0  0  0  0  0  0  0
    3.1181    0.3417   -0.3695 H   0  0  0  0  0  0  0  0  0  0  0  0
    0.5048    1.1530    0.2759 H   0  0  0  0  0  0  0  0  0  0  0  0
  1  2  1  0
  1  4  1  0
  2  3  2  3
  3  5  1  0
  6  7  1  0
  6  9  1  0
  6 10  1  0
  6 11  1  0
  7  8  1  0
  7 12  1  0
  7 13  1  0
  8 14  1  0
M  RAD  1   3   2
M  END
>  <reaction>  (12) 
rmg_rxn_15508

>  <mol_properties>  (12) 
{"1": {"label": "*4", "atom_type": "N3d"}, "2": {"label": "*3", "atom_type": "Cd"}, "5": {"label": "*1", "atom_type": "Cs"}, "6": {"label": "*0", "atom_type": "Cs"}, "8": {"label": "*2", "atom_type": "H0"}}

>  <type>  (12) 
unop_8

>  <geom_source>  (12) 
Heuristics

$$$$

     RDKit          3D

 14 12  0  0  0  0  0  0  0  0999 V2000
   -1.5544    2.6999   -0.1085 O   0  0  0  0  0  0  0  0  0  0  0  0
   -0.7220    1.6609   -0.4754 N   0  0  0  0  0  0  0  0  0  0  0  0
   -0.9778    0.6028    0.1638 C   0  0  0  0  0  0  0  0  0  0  0  0
   -1.2575    3.4271   -0.6589 H   0  0  0  0  0  0  0  0  0  0  0  0
   -1.7670    0.5448    0.9104 H   0  0  0  0  0  0  0  0  0  0  0  0
    1.0683   -0.7569    1.0369 C   0  0  0  0  0  3  0  0  0  0  0  0
    1.0683   -2.1552    0.4475 C   0  0  0  0  0  0  0  0  0  0  0  0
    1.0683   -2.1552   -0.9668 O   0  0  0  0  0  0  0  0  0  0  0  0
    0.0410   -0.0742    0.5986 H   0  0  0  0  0  0  0  0  0  0  0  0
    1.0198   -0.7983    2.1270 H   0  0  0  0  0  0  0  0  0  0  0  0
    1.9797   -0.2176    0.7648 H   0  0  0  0  0  0  0  0  0  0  0  0
    0.1618   -2.6872    0.7394 H   0  0  0  0  0  0  0  0  0  0  0  0
    1.9205   -2.7280    0.8351 H   0  0  0  0  0  0  0  0  0  0  0  0
    1.8502   -1.6917   -1.2706 H   0  0  0  0  0  0  0  0  0  0  0  0
  1  2  1  0
  1  4  1  0
  2  3  2  3
  3  5  1  0
  3  9  1  0
  6  7  1  0
  6 10  1  0
  6 11  1  0
  7  8  1  0
  7 12  1  0
  7 13  1  0
  8 14  1  0
M  RAD  1   6   2
M  END
>  <reaction>  (13) 
rmg_rxn_15508

>  <mol_properties>  (13) 
{"1": {"label": "*4", "atom_type": "N3d"}, "2": {"label": "*3", "atom_type": "Cd"}, "5": {"label": "*1", "atom_type": "Cs"}, "6": {"label": "*0", "atom_type": "Cs"}, "8": {"label": "*2", "atom_type": "H0"}}

>  <type>  (13) 
unop_9

>  <geom_source>  (13) 
Heuristics

$$$$

     RDKit          3D

 14 12  0  0  0  0  0  0  0  0999 V2000
   -2.2549    2.1074    0.5465 O   0  0  0  0  0  0  0  0  0  0  0  0
   -1.6231    0.8839    0.4419 N   0  0  0  0  0  0  0  0  0  0  0  0
   -0.5636    0.9566   -0.2405 C   0  0  0  0  0  0  0  0  0  0  0  0
   -3.0288    1.9128    1.0787 H   0  0  0  0  0  0  0  0  0  0  0  0
   -0.2131    1.8868   -0.6825 H   0  0  0  0  0  0  0  0  0  0  0  0
    1.4825   -0.4031    0.6326 C   0  0  0  0  0  3  0  0  0  0  0  0
    1.4825   -1.8015    0.0432 C   0  0  0  0  0  0  0  0  0  0  0  0
    1.4825   -1.8015   -1.3711 O   0  0  0  0  0  0  0  0  0  0  0  0
    0.4552    0.2795    0.1943 H   0  0  0  0  0  0  0  0  0  0  0  0
    1.4341   -0.4445    1.7227 H   0  0  0  0  0  0  0  0  0  0  0  0
    2.3939    0.1361    0.3605 H   0  0  0  0  0  0  0  0  0  0  0  0
    0.5760   -2.3335    0.3351 H   0  0  0  0  0  0  0  0  0  0  0  0
    2.3347   -2.3743    0.4308 H   0  0  0  0  0  0  0  0  0  0  0  0
    2.2644   -1.3380   -1.6749 H   0  0  0  0  0  0  0  0  0  0  0  0
  1  2  1  0
  1  4  1  0
  2  3  2  3
  3  5  1  0
  3  9  1  0
  6  7  1  0
  6 10  1  0
  6 11  1  0
  7  8  1  0
  7 12  1  0
  7 13  1  0
  8 14  1  0
M  RAD  1   6   2
M  END
>  <reaction>  (14) 
rmg_rxn_15508

>  <mol_properties>  (14) 
{"1": {"label": "*4", "atom_type": "N3d"}, "2": {"label": "*3", "atom_type": "Cd"}, "5": {"label": "*1", "atom_type": "Cs"}, "6": {"label": "*0", "atom_type": "Cs"}, "8": {"label": "*2", "atom_type": "H0"}}

>  <type>  (14) 
unop_10

>  <geom_source>  (14) 
Heuristics

$$$$

     RDKit          3D

 14 12  0  0  0  0  0  0  0  0999 V2000
   -2.6943    0.4037    0.0743 O   0  0  0  0  0  0  0  0  0  0  0  0
   -1.3279    0.0819   -0.0190 N   0  0  0  0  0  0  0  0  0  0  0  0
   -0.9569   -1.0990   -0.0318 C   0  0  0  0  0  3  0  0  0  0  0  0
   -2.7212    1.3708    0.0607 H   0  0  0  0  0  0  0  0  0  0  0  0
   -1.5333   -2.0131    0.0198 H   0  0  0  0  0  0  0  0  0  0  0  0
    1.6596   -1.1427   -0.1791 C   0  0  0  0  0  0  0  0  0  0  0  0
    2.0319    0.1878    0.4241 C   0  0  0  0  0  0  0  0  0  0  0  0
    1.4647    1.2769   -0.2612 O   0  0  0  0  0  0  0  0  0  0  0  0
    0.3534   -1.2040   -0.1124 H   0  0  0  0  0  0  0  0  0  0  0  0
    1.8844   -1.2078   -1.2373 H   0  0  0  0  0  0  0  0  0  0  0  0
    2.0374   -1.9904    0.3790 H   0  0  0  0  0  0  0  0  0  0  0  0
    3.1177    0.3419    0.3705 H   0  0  0  0  0  0  0  0  0  0  0  0
    1.7424    0.2092    1.4867 H   0  0  0  0  0  0  0  0  0  0  0  0
    0.5047    1.1526   -0.2769 H   0  0  0  0  0  0  0  0  0  0  0  0
  1  2  1  0
  1  4  1  0
  2  3  2  3
  3  5  1  0
  6  7  1  0
  6  9  1  0
  6 10  1  0
  6 11  1  0
  7  8  1  0
  7 12  1  0
  7 13  1  0
  8 14  1  0
M  RAD  1   3   2
M  END
>  <reaction>  (15) 
rmg_rxn_15508

>  <mol_properties>  (15) 
{"1": {"label": "*4", "atom_type": "N3d"}, "2": {"label": "*3", "atom_type": "Cd"}, "5": {"label": "*1", "atom_type": "Cs"}, "6": {"label": "*0", "atom_type": "Cs"}, "8": {"label": "*2", "atom_type": "H0"}}

>  <type>  (15) 
unop_11

>  <geom_source>  (15) 
Heuristics

$$$$

     RDKit          3D

 14 12  0  0  0  0  0  0  0  0999 V2000
   -1.9684    1.7824   -1.1647 O   0  0  0  0  0  0  0  0  0  0  0  0
   -1.1739    0.7837   -0.6371 N   0  0  0  0  0  0  0  0  0  0  0  0
   -0.7513    1.0763    0.5159 C   0  0  0  0  0  0  0  0  0  0  0  0
   -2.2164    1.4377   -2.0248 H   0  0  0  0  0  0  0  0  0  0  0  0
   -0.9997    2.0124    1.0116 H   0  0  0  0  0  0  0  0  0  0  0  0
    1.2947   -0.2833    1.3889 C   0  0  0  0  0  3  0  0  0  0  0  0
    1.2947   -1.6817    0.7995 C   0  0  0  0  0  0  0  0  0  0  0  0
    1.2947   -1.6817   -0.6147 O   0  0  0  0  0  0  0  0  0  0  0  0
    0.2675    0.3993    0.9506 H   0  0  0  0  0  0  0  0  0  0  0  0
    1.2463   -0.3248    2.4790 H   0  0  0  0  0  0  0  0  0  0  0  0
    2.2062    0.2559    1.1168 H   0  0  0  0  0  0  0  0  0  0  0  0
    0.3882   -2.2137    1.0915 H   0  0  0  0  0  0  0  0  0  0  0  0
    2.1469   -2.2545    1.1872 H   0  0  0  0  0  0  0  0  0  0  0  0
    2.0767   -1.2182   -0.9186 H   0  0  0  0  0  0  0  0  0  0  0  0
  1  2  1  0
  1  4  1  0
  2  3  2  3
  3  5  1  0
  3  9  1  0
  6  7  1  0
  6 10  1  0
  6 11  1  0
  7  8  1  0
  7 12  1  0
  7 13  1  0
  8 14  1  0
M  RAD  1   6   2
M  END
>  <reaction>  (16) 
rmg_rxn_15508

>  <mol_properties>  (16) 
{"1": {"label": "*4", "atom_type": "N3d"}, "2": {"label": "*3", "atom_type": "Cd"}, "5": {"label": "*1", "atom_type": "Cs"}, "6": {"label": "*0", "atom_type": "Cs"}, "8": {"label": "*2", "atom_type": "H0"}}

>  <type>  (16) 
unop_12

>  <geom_source>  (16) 
Heuristics

$$$$

     RDKit          3D

 14 12  0  0  0  0  0  0  0  0999 V2000
   -2.5581    1.6656    0.3209 O   0  0  0  0  0  0  0  0  0  0  0  0
   -1.6172    0.6688    0.1533 N   0  0  0  0  0  0  0  0  0  0  0  0
   -0.4744    1.1374   -0.1075 C   0  0  0  0  0  0  0  0  0  0  0  0
   -3.3638    1.1808    0.5101 H   0  0  0  0  0  0  0  0  0  0  0  0
   -0.2821    2.2054   -0.1851 H   0  0  0  0  0  0  0  0  0  0  0  0
    1.5716   -0.2223    0.7656 C   0  0  0  0  0  3  0  0  0  0  0  0
    1.5716   -1.6207    0.1762 C   0  0  0  0  0  0  0  0  0  0  0  0
    1.5716   -1.6207   -1.2381 O   0  0  0  0  0  0  0  0  0  0  0  0
    0.5444    0.4604    0.3273 H   0  0  0  0  0  0  0  0  0  0  0  0
    1.5232   -0.2637    1.8557 H   0  0  0  0  0  0  0  0  0  0  0  0
    2.4831    0.3169    0.4935 H   0  0  0  0  0  0  0  0  0  0  0  0
    0.6652   -2.1527    0.4681 H   0  0  0  0  0  0  0  0  0  0  0  0
    2.4238   -2.1935    0.5638 H   0  0  0  0  0  0  0  0  0  0  0  0
    2.3536   -1.1572   -1.5419 H   0  0  0  0  0  0  0  0  0  0  0  0
  1  2  1  0
  1  4  1  0
  2  3  2  3
  3  5  1  0
  3  9  1  0
  6  7  1  0
  6 10  1  0
  6 11  1  0
  7  8  1  0
  7 12  1  0
  7 13  1  0
  8 14  1  0
M  RAD  1   6   2
M  END
>  <reaction>  (17) 
rmg_rxn_15508

>  <mol_properties>  (17) 
{"1": {"label": "*4", "atom_type": "N3d"}, "2": {"label": "*3", "atom_type": "Cd"}, "5": {"label": "*1", "atom_type": "Cs"}, "6": {"label": "*0", "atom_type": "Cs"}, "8": {"label": "*2", "atom_type": "H0"}}

>  <type>  (17) 
unop_13

>  <geom_source>  (17) 
Heuristics

$$$$

     RDKit          3D

 14 12  0  0  0  0  0  0  0  0999 V2000
   -1.8967    2.5394    0.1542 O   0  0  0  0  0  0  0  0  0  0  0  0
   -0.7236    1.8558   -0.0976 N   0  0  0  0  0  0  0  0  0  0  0  0
   -0.8753    0.6063   -0.0006 C   0  0  0  0  0  0  0  0  0  0  0  0
   -1.6448    3.4589    0.0487 H   0  0  0  0  0  0  0  0  0  0  0  0
   -1.8293    0.1492    0.2531 H   0  0  0  0  0  0  0  0  0  0  0  0
    1.1708   -0.7533    0.8725 C   0  0  0  0  0  3  0  0  0  0  0  0
    1.1708   -2.1517    0.2831 C   0  0  0  0  0  0  0  0  0  0  0  0
    1.1708   -2.1517   -1.1312 O   0  0  0  0  0  0  0  0  0  0  0  0
    0.1436   -0.0707    0.4342 H   0  0  0  0  0  0  0  0  0  0  0  0
    1.1224   -0.7948    1.9626 H   0  0  0  0  0  0  0  0  0  0  0  0
    2.0822   -0.2141    0.6004 H   0  0  0  0  0  0  0  0  0  0  0  0
    0.2643   -2.6837    0.5751 H   0  0  0  0  0  0  0  0  0  0  0  0
    2.0230   -2.7245    0.6707 H   0  0  0  0  0  0  0  0  0  0  0  0
    1.9528   -1.6882   -1.4350 H   0  0  0  0  0  0  0  0  0  0  0  0
  1  2  1  0
  1  4  1  0
  2  3  2  3
  3  5  1  0
  3  9  1  0
  6  7  1  0
  6 10  1  0
  6 11  1  0
  7  8  1  0
  7 12  1  0
  7 13  1  0
  8 14  1  0
M  RAD  1   6   2
M  END
>  <reaction>  (18) 
rmg_rxn_15508

>  <mol_properties>  (18) 
{"1": {"label": "*4", "atom_type": "N3d"}, "2": {"label": "*3", "atom_type": "Cd"}, "5": {"label": "*1", "atom_type": "Cs"}, "6": {"label": "*0", "atom_type": "Cs"}, "8": {"label": "*2", "atom_type": "H0"}}

>  <type>  (18) 
unop_14

>  <geom_source>  (18) 
Heuristics

$$$$

     RDKit          3D

 14 12  0  0  0  0  0  0  0  0999 V2000
   -2.4028    1.4288   -0.8305 O   0  0  0  0  0  0  0  0  0  0  0  0
   -1.3554    0.6229   -0.4299 N   0  0  0  0  0  0  0  0  0  0  0  0
   -0.5804    1.2185    0.3690 C   0  0  0  0  0  0  0  0  0  0  0  0
   -2.9035    0.8641   -1.4225 H   0  0  0  0  0  0  0  0  0  0  0  0
   -0.7427    2.2461    0.6873 H   0  0  0  0  0  0  0  0  0  0  0  0
    1.4657   -0.1412    1.2420 C   0  0  0  0  0  3  0  0  0  0  0  0
    1.4657   -1.5395    0.6526 C   0  0  0  0  0  0  0  0  0  0  0  0
    1.4657   -1.5395   -0.7616 O   0  0  0  0  0  0  0  0  0  0  0  0
    0.4384    0.5415    0.8037 H   0  0  0  0  0  0  0  0  0  0  0  0
    1.4173   -0.1826    2.3321 H   0  0  0  0  0  0  0  0  0  0  0  0
    2.3771    0.3980    0.9699 H   0  0  0  0  0  0  0  0  0  0  0  0
    0.5592   -2.0716    0.9446 H   0  0  0  0  0  0  0  0  0  0  0  0
    2.3179   -2.1124    1.0402 H   0  0  0  0  0  0  0  0  0  0  0  0
    2.2476   -1.0761   -1.0655 H   0  0  0  0  0  0  0  0  0  0  0  0
  1  2  1  0
  1  4  1  0
  2  3  2  3
  3  5  1  0
  3  9  1  0
  6  7  1  0
  6 10  1  0
  6 11  1  0
  7  8  1  0
  7 12  1  0
  7 13  1  0
  8 14  1  0
M  RAD  1   6   2
M  END
>  <reaction>  (19) 
rmg_rxn_15508

>  <mol_properties>  (19) 
{"1": {"label": "*4", "atom_type": "N3d"}, "2": {"label": "*3", "atom_type": "Cd"}, "5": {"label": "*1", "atom_type": "Cs"}, "6": {"label": "*0", "atom_type": "Cs"}, "8": {"label": "*2", "atom_type": "H0"}}

>  <type>  (19) 
unop_15

>  <geom_source>  (19) 
Heuristics

$$$$

     RDKit          3D

 14 12  0  0  0  0  0  0  0  0999 V2000
   -2.8483   -0.4663    0.3340 O   0  0  0  0  0  0  0  0  0  0  0  0
    2.8209   -0.8946    0.3608 O   0  0  0  0  0  0  0  0  0  0  0  0
    2.6926    0.1735   -0.4951 N   0  0  0  0  0  0  0  0  0  0  0  0
   -1.5597   -0.4225   -0.2113 C   0  0  0  0  0  0  0  0  0  0  0  0
   -0.7226    0.6006    0.5366 C   0  0  0  0  0  3  0  0  0  0  0  0
    1.6179    0.8894   -0.4878 C   0  0  0  0  0  0  0  0  0  0  0  0
   -1.0753   -1.4198   -0.1241 H   0  0  0  0  0  0  0  0  0  0  0  0
   -1.6101   -0.1340   -1.2843 H   0  0  0  0  0  0  0  0  0  0  0  0
   -0.6399    0.3223    1.6087 H   0  0  0  0  0  0  0  0  0  0  0  0
   -1.1757    1.6106    0.4463 H   0  0  0  0  0  0  0  0  0  0  0  0
    1.5246    1.7280   -1.1641 H   0  0  0  0  0  0  0  0  0  0  0  0
    0.6552    0.6118    0.3201 H   0  0  0  0  0  0  0  0  0  0  0  0
   -3.3450   -1.1465   -0.1909 H   0  0  0  0  0  0  0  0  0  0  0  0
    3.6654   -1.4525    0.3509 H   0  0  0  0  0  0  0  0  0  0  0  0
  1  4  1  0
  1 13  1  0
  2  3  1  0
  2 14  1  0
  3  6  2  3
  4  5  1  0
  4  7  1  0
  4  8  1  0
  5  9  1  0
  5 10  1  0
  6 11  1  0
  6 12  1  0
M  RAD  1   5   2
M  END
>  <reaction>  (20) 
rmg_rxn_15508

>  <mol_properties>  (20) 
{"1": {"label": "*4", "atom_type": "N3d"}, "2": {"label": "*3", "atom_type": "Cd"}, "5": {"label": "*1", "atom_type": "Cs"}, "6": {"label": "*0", "atom_type": "Cs"}, "8": {"label": "*2", "atom_type": "H0"}}

>  <type>  (20) 
unop_16

>  <geom_source>  (20) 
AutoTST

$$$$

     RDKit          3D

 14 12  0  0  0  0  0  0  0  0999 V2000
   -2.6345    1.3852   -0.2223 O   0  0  0  0  0  0  0  0  0  0  0  0
   -1.5138    0.5810   -0.1562 N   0  0  0  0  0  0  0  0  0  0  0  0
   -0.4752    1.2410    0.1251 C   0  0  0  0  0  0  0  0  0  0  0  0
   -3.3371    0.7693   -0.4392 H   0  0  0  0  0  0  0  0  0  0  0  0
   -0.4903    2.3162    0.2909 H   0  0  0  0  0  0  0  0  0  0  0  0
    1.5709   -0.1186    0.9982 C   0  0  0  0  0  3  0  0  0  0  0  0
    1.5709   -1.5170    0.4088 C   0  0  0  0  0  0  0  0  0  0  0  0
    1.5709   -1.5170   -1.0055 O   0  0  0  0  0  0  0  0  0  0  0  0
    0.5436    0.5640    0.5599 H   0  0  0  0  0  0  0  0  0  0  0  0
    1.5225   -0.1601    2.0883 H   0  0  0  0  0  0  0  0  0  0  0  0
    2.4823    0.4206    0.7261 H   0  0  0  0  0  0  0  0  0  0  0  0
    0.6644   -2.0490    0.7007 H   0  0  0  0  0  0  0  0  0  0  0  0
    2.4231   -2.0898    0.7964 H   0  0  0  0  0  0  0  0  0  0  0  0
    2.3528   -1.0535   -1.3093 H   0  0  0  0  0  0  0  0  0  0  0  0
  1  2  1  0
  1  4  1  0
  2  3  2  3
  3  5  1  0
  3  9  1  0
  6  7  1  0
  6 10  1  0
  6 11  1  0
  7  8  1  0
  7 12  1  0
  7 13  1  0
  8 14  1  0
M  RAD  1   6   2
M  END
>  <reaction>  (21) 
rmg_rxn_15508

>  <mol_properties>  (21) 
{"1": {"label": "*4", "atom_type": "N3d"}, "2": {"label": "*3", "atom_type": "Cd"}, "5": {"label": "*1", "atom_type": "Cs"}, "6": {"label": "*0", "atom_type": "Cs"}, "8": {"label": "*2", "atom_type": "H0"}}

>  <type>  (21) 
unop_17

>  <geom_source>  (21) 
gaussian_log

$$$$
