
     RDKit          3D

  6  5  0  0  0  0  0  0  0  0999 V2000
   -0.4901    0.0045    0.0014 C   0  0  0  0  0  0  0  0  0  0  0  0
    0.9645   -0.0089   -0.0027 C   0  0  0  0  0  0  0  0  0  0  0  0
    2.1108   -0.0195   -0.0059 N   0  0  0  0  0  0  0  0  0  0  0  0
   -0.8700   -0.6407   -0.7900 H   0  0  0  0  0  0  0  0  0  0  0  0
   -0.8625   -0.3540    0.9604 H   0  0  0  0  0  0  0  0  0  0  0  0
   -0.8530    1.0185   -0.1631 H   0  0  0  0  0  0  0  0  0  0  0  0
  1  2  1  0
  1  4  1  0
  1  5  1  0
  1  6  1  0
  2  3  3  0
M  END
>  <reaction>  (1) 
rmg_rxn_220

>  <mol_properties>  (1) 
{"0": {"label": "donator", "atom_type": "Cs"}, "3": {"label": "d_hydrogen", "atom_type": "H0"}}

>  <type>  (1) 
r1h

$$$$

     RDKit          3D

 17 16  0  0  0  0  0  0  0  0999 V2000
    2.3993   -0.7259   -0.8796 C   0  0  0  0  0  0  0  0  0  0  0  0
    1.8173   -0.7170    0.4851 C   0  0  0  0  0  3  0  0  0  0  0  0
    2.6779   -0.5182    1.6852 C   0  0  0  0  0  0  0  0  0  0  0  0
    3.8710   -1.2723    1.6674 O   0  0  0  0  0  0  0  0  0  0  0  0
    3.6589   -2.6587    1.8015 C   0  0  0  0  0  0  0  0  0  0  0  0
    4.9969   -3.3586    1.7556 C   0  0  0  0  0  0  0  0  0  0  0  0
    3.3755   -1.2152   -0.8894 H   0  0  0  0  0  0  0  0  0  0  0  0
    1.7457   -1.2284   -1.5943 H   0  0  0  0  0  0  0  0  0  0  0  0
    2.5578    0.2962   -1.2545 H   0  0  0  0  0  0  0  0  0  0  0  0
    0.7445   -0.6275    0.6059 H   0  0  0  0  0  0  0  0  0  0  0  0
    2.1057   -0.7316    2.5992 H   0  0  0  0  0  0  0  0  0  0  0  0
    3.0103    0.5272    1.7516 H   0  0  0  0  0  0  0  0  0  0  0  0
    3.0050   -3.0235    0.9977 H   0  0  0  0  0  0  0  0  0  0  0  0
    3.1469   -2.8645    2.7531 H   0  0  0  0  0  0  0  0  0  0  0  0
    5.6430   -3.0039    2.5594 H   0  0  0  0  0  0  0  0  0  0  0  0
    4.8641   -4.4360    1.8660 H   0  0  0  0  0  0  0  0  0  0  0  0
    5.4957   -3.1672    0.8046 H   0  0  0  0  0  0  0  0  0  0  0  0
  1  2  1  0
  1  7  1  0
  1  8  1  0
  1  9  1  0
  2  3  1  0
  2 10  1  0
  3  4  1  0
  3 11  1  0
  3 12  1  0
  4  5  1  0
  5  6  1  0
  5 13  1  0
  5 14  1  0
  6 15  1  0
  6 16  1  0
  6 17  1  0
M  RAD  1   2   2
M  END
>  <reaction>  (2) 
rmg_rxn_220

>  <mol_properties>  (2) 
{"1": {"label": "acceptor", "atom_type": "Cs"}}

>  <type>  (2) 
r2

$$$$

     RDKit          3D

 18 17  0  0  0  0  0  0  0  0999 V2000
    2.2026   -0.7213   -0.2612 C   0  0  0  0  0  0  0  0  0  0  0  0
    1.5384    0.2638    0.6915 C   0  0  0  0  0  0  0  0  0  0  0  0
    2.2584    1.5946    0.7694 C   0  0  0  0  0  0  0  0  0  0  0  0
    2.2212    2.2185   -0.4893 O   0  0  0  0  0  0  0  0  0  0  0  0
    2.8988    3.4488   -0.5204 C   0  0  0  0  0  0  0  0  0  0  0  0
    2.7981    4.0296   -1.9118 C   0  0  0  0  0  0  0  0  0  0  0  0
    3.2294   -0.9309    0.0486 H   0  0  0  0  0  0  0  0  0  0  0  0
    2.2338   -0.3181   -1.2734 H   0  0  0  0  0  0  0  0  0  0  0  0
    1.6610   -1.6680   -0.2875 H   0  0  0  0  0  0  0  0  0  0  0  0
    1.4990   -0.1566    1.7002 H   0  0  0  0  0  0  0  0  0  0  0  0
    0.5055    0.4455    0.3835 H   0  0  0  0  0  0  0  0  0  0  0  0
    3.3038    1.4410    1.0808 H   0  0  0  0  0  0  0  0  0  0  0  0
    1.7844    2.2410    1.5226 H   0  0  0  0  0  0  0  0  0  0  0  0
    2.4596    4.1376    0.2164 H   0  0  0  0  0  0  0  0  0  0  0  0
    3.9524    3.3035   -0.2397 H   0  0  0  0  0  0  0  0  0  0  0  0
    1.7543    4.1869   -2.1856 H   0  0  0  0  0  0  0  0  0  0  0  0
    3.2472    3.3545   -2.6411 H   0  0  0  0  0  0  0  0  0  0  0  0
    3.3178    4.9878   -1.9600 H   0  0  0  0  0  0  0  0  0  0  0  0
  1  2  1  0
  1  7  1  0
  1  8  1  0
  1  9  1  0
  2  3  1  0
  2 10  1  0
  2 11  1  0
  3  4  1  0
  3 12  1  0
  3 13  1  0
  4  5  1  0
  5  6  1  0
  5 14  1  0
  5 15  1  0
  6 16  1  0
  6 17  1  0
  6 18  1  0
M  END
>  <reaction>  (3) 
rmg_rxn_220

>  <mol_properties>  (3) 
{"0": {"label": "a_hydrogen", "atom_type": "H0"}, "2": {"label": "acceptor", "atom_type": "Cs"}}

>  <type>  (3) 
r2h

$$$$

     RDKit          3D

 23 21  0  0  0  0  0  0  0  0999 V2000
    2.4482    0.8982   -1.0495 C   0  0  0  0  0  0  0  0  0  0  0  0
    1.5977    1.7302   -1.8333 C   0  0  0  0  0  0  0  0  0  0  0  0
    0.8523    2.3651   -2.4398 N   0  0  0  0  0  2  0  0  0  0  0  0
    1.6286    0.0244   -0.4270 H   0  0  0  0  0  0  0  0  0  0  0  0
    3.1078    0.2647   -1.6350 H   0  0  0  0  0  0  0  0  0  0  0  0
    2.9534    1.4187   -0.2415 H   0  0  0  0  0  0  0  0  0  0  0  0
    0.1366   -1.5403   -1.0727 C   0  0  0  0  0  0  0  0  0  0  0  0
    0.7093   -0.7931    0.0977 C   0  0  0  0  0  0  0  0  0  0  0  0
   -0.2174    0.1618    0.7975 C   0  0  0  0  0  0  0  0  0  0  0  0
   -1.2432   -0.5739    1.4199 O   0  0  0  0  0  0  0  0  0  0  0  0
   -2.1950    0.2429    2.0620 C   0  0  0  0  0  0  0  0  0  0  0  0
   -3.2520   -0.6378    2.6857 C   0  0  0  0  0  0  0  0  0  0  0  0
   -0.2803   -0.8491   -1.8093 H   0  0  0  0  0  0  0  0  0  0  0  0
    0.8907   -2.1569   -1.5636 H   0  0  0  0  0  0  0  0  0  0  0  0
   -0.6723   -2.1964   -0.7401 H   0  0  0  0  0  0  0  0  0  0  0  0
    1.2942   -1.4052    0.7842 H   0  0  0  0  0  0  0  0  0  0  0  0
   -0.6434    0.8678    0.0691 H   0  0  0  0  0  0  0  0  0  0  0  0
    0.3331    0.7506    1.5457 H   0  0  0  0  0  0  0  0  0  0  0  0
   -2.6458    0.9316    1.3338 H   0  0  0  0  0  0  0  0  0  0  0  0
   -1.7020    0.8567    2.8296 H   0  0  0  0  0  0  0  0  0  0  0  0
   -2.8057   -1.3131    3.4165 H   0  0  0  0  0  0  0  0  0  0  0  0
   -4.0012   -0.0263    3.1907 H   0  0  0  0  0  0  0  0  0  0  0  0
   -3.7506   -1.2359    1.9223 H   0  0  0  0  0  0  0  0  0  0  0  0
  1  2  2  0
  1  5  1  0
  1  6  1  0
  2  3  2  0
  4  8  1  0
  7  8  1  0
  7 13  1  0
  7 14  1  0
  7 15  1  0
  8  9  1  0
  8 16  1  0
  9 10  1  0
  9 17  1  0
  9 18  1  0
 10 11  1  0
 11 12  1  0
 11 19  1  0
 11 20  1  0
 12 21  1  0
 12 22  1  0
 12 23  1  0
M  RAD  1   3   2
M  END
>  <reaction>  (4) 
rmg_rxn_220

>  <mol_properties>  (4) 
{"0": {"label": "*3", "atom_type": "Cd"}, "1": {"label": "*4", "atom_type": "Cdd"}, "3": {"label": "*2", "atom_type": "H0"}, "7": {"label": "*1", "atom_type": "Cs"}, "8": {"label": "*0", "atom_type": "Cs"}}

>  <type>  (4) 
ts

$$$$

     RDKit          3D

 23 21  0  0  0  0  0  0  0  0999 V2000
    2.5856    1.4695   -0.5007 C   0  0  0  0  0  0  0  0  0  0  0  0
    2.5856    1.4695   -1.9553 C   0  0  0  0  0  0  0  0  0  0  0  0
    2.5856    1.4695   -3.1018 N   0  0  0  0  0  0  0  0  0  0  0  0
    1.6326    0.6937   -0.0546 H   0  0  0  0  0  0  0  0  0  0  0  0
    3.5427    1.1050   -0.1290 H   0  0  0  0  0  0  0  0  0  0  0  0
    2.4229    2.4806   -0.1290 H   0  0  0  0  0  0  0  0  0  0  0  0
    1.2650   -1.2024    1.2440 C   0  0  0  0  0  0  0  0  0  0  0  0
    0.6760   -0.0850    0.3932 C   0  0  0  0  0  3  0  0  0  0  0  0
   -0.7158   -0.3962   -0.1178 C   0  0  0  0  0  0  0  0  0  0  0  0
   -1.5930   -0.5297    0.9720 O   0  0  0  0  0  0  0  0  0  0  0  0
   -2.9059   -0.8553    0.5926 C   0  0  0  0  0  0  0  0  0  0  0  0
   -3.7600   -0.9751    1.8334 C   0  0  0  0  0  0  0  0  0  0  0  0
    1.3343   -2.1317    0.6731 H   0  0  0  0  0  0  0  0  0  0  0  0
    2.2677   -0.9461    1.5892 H   0  0  0  0  0  0  0  0  0  0  0  0
    0.6416   -1.3918    2.1178 H   0  0  0  0  0  0  0  0  0  0  0  0
    0.6350    0.8432    0.9689 H   0  0  0  0  0  0  0  0  0  0  0  0
   -0.7033   -1.3280   -0.7051 H   0  0  0  0  0  0  0  0  0  0  0  0
   -1.0653    0.4057   -0.7846 H   0  0  0  0  0  0  0  0  0  0  0  0
   -2.9099   -1.8007    0.0302 H   0  0  0  0  0  0  0  0  0  0  0  0
   -3.3064   -0.0792   -0.0764 H   0  0  0  0  0  0  0  0  0  0  0  0
   -3.7678   -0.0340    2.3843 H   0  0  0  0  0  0  0  0  0  0  0  0
   -4.7865   -1.2274    1.5628 H   0  0  0  0  0  0  0  0  0  0  0  0
   -3.3728   -1.7550    2.4900 H   0  0  0  0  0  0  0  0  0  0  0  0
  1  2  1  0
  1  4  1  0
  1  5  1  0
  1  6  1  0
  2  3  3  0
  7  8  1  0
  7 13  1  0
  7 14  1  0
  7 15  1  0
  8  9  1  0
  8 16  1  0
  9 10  1  0
  9 17  1  0
  9 18  1  0
 10 11  1  0
 11 12  1  0
 11 19  1  0
 11 20  1  0
 12 21  1  0
 12 22  1  0
 12 23  1  0
M  RAD  1   8   2
M  END
>  <reaction>  (5) 
rmg_rxn_220

>  <mol_properties>  (5) 
{"0": {"label": "*3", "atom_type": "Cd"}, "1": {"label": "*4", "atom_type": "Cdd"}, "3": {"label": "*2", "atom_type": "H0"}, "7": {"label": "*1", "atom_type": "Cs"}, "8": {"label": "*0", "atom_type": "Cs"}}

>  <type>  (5) 
unop_1

>  <geom_source>  (5) 
Heuristics

$$$$

     RDKit          3D

 23 21  0  0  0  0  0  0  0  0999 V2000
    2.5053    1.3010   -0.8314 C   0  0  0  0  0  0  0  0  0  0  0  0
    2.5053    1.3010   -2.2860 C   0  0  0  0  0  0  0  0  0  0  0  0
    2.5053    1.3010   -3.4325 N   0  0  0  0  0  0  0  0  0  0  0  0
    1.5523    0.5252   -0.3853 H   0  0  0  0  0  0  0  0  0  0  0  0
    3.4623    0.9365   -0.4597 H   0  0  0  0  0  0  0  0  0  0  0  0
    2.3425    2.3121   -0.4597 H   0  0  0  0  0  0  0  0  0  0  0  0
    0.3374   -1.3857   -0.9227 C   0  0  0  0  0  0  0  0  0  0  0  0
    0.5957   -0.2535    0.0625 C   0  0  0  0  0  3  0  0  0  0  0  0
   -0.6749    0.3274    0.6485 C   0  0  0  0  0  0  0  0  0  0  0  0
   -1.3398   -0.6624    1.3922 O   0  0  0  0  0  0  0  0  0  0  0  0
   -2.5529   -0.2209    1.9462 C   0  0  0  0  0  0  0  0  0  0  0  0
   -3.1817   -1.3567    2.7195 C   0  0  0  0  0  0  0  0  0  0  0  0
   -0.2730   -1.0410   -1.7612 H   0  0  0  0  0  0  0  0  0  0  0  0
    1.2727   -1.7751   -1.3275 H   0  0  0  0  0  0  0  0  0  0  0  0
   -0.1921   -2.2060   -0.4380 H   0  0  0  0  0  0  0  0  0  0  0  0
    1.2265   -0.6062    0.8825 H   0  0  0  0  0  0  0  0  0  0  0  0
   -1.3299    0.6938   -0.1578 H   0  0  0  0  0  0  0  0  0  0  0  0
   -0.4391    1.1864    1.2938 H   0  0  0  0  0  0  0  0  0  0  0  0
   -3.2276    0.1201    1.1471 H   0  0  0  0  0  0  0  0  0  0  0  0
   -2.3724    0.6403    2.6066 H   0  0  0  0  0  0  0  0  0  0  0  0
   -2.5193   -1.6863    3.5207 H   0  0  0  0  0  0  0  0  0  0  0  0
   -4.1270   -1.0363    3.1603 H   0  0  0  0  0  0  0  0  0  0  0  0
   -3.3754   -2.2052    2.0623 H   0  0  0  0  0  0  0  0  0  0  0  0
  1  2  1  0
  1  4  1  0
  1  5  1  0
  1  6  1  0
  2  3  3  0
  7  8  1  0
  7 13  1  0
  7 14  1  0
  7 15  1  0
  8  9  1  0
  8 16  1  0
  9 10  1  0
  9 17  1  0
  9 18  1  0
 10 11  1  0
 11 12  1  0
 11 19  1  0
 11 20  1  0
 12 21  1  0
 12 22  1  0
 12 23  1  0
M  RAD  1   8   2
M  END
>  <reaction>  (6) 
rmg_rxn_220

>  <mol_properties>  (6) 
{"0": {"label": "*3", "atom_type": "Cd"}, "1": {"label": "*4", "atom_type": "Cdd"}, "3": {"label": "*2", "atom_type": "H0"}, "7": {"label": "*1", "atom_type": "Cs"}, "8": {"label": "*0", "atom_type": "Cs"}}

>  <type>  (6) 
unop_2

>  <geom_source>  (6) 
Heuristics

$$$$

     RDKit          3D

 23 21  0  0  0  0  0  0  0  0999 V2000
    2.4462    1.8325   -0.1613 C   0  0  0  0  0  0  0  0  0  0  0  0
    2.4462    1.8325   -1.6160 C   0  0  0  0  0  0  0  0  0  0  0  0
    2.4462    1.8325   -2.7624 N   0  0  0  0  0  0  0  0  0  0  0  0
    1.4931    1.0567    0.2848 H   0  0  0  0  0  0  0  0  0  0  0  0
    3.4032    1.4680    0.2104 H   0  0  0  0  0  0  0  0  0  0  0  0
    2.2834    2.8436    0.2104 H   0  0  0  0  0  0  0  0  0  0  0  0
    0.9336   -0.3207    2.0754 C   0  0  0  0  0  0  0  0  0  0  0  0
    0.5366    0.2780    0.7325 C   0  0  0  0  0  3  0  0  0  0  0  0
   -0.3626   -0.6297   -0.0816 C   0  0  0  0  0  0  0  0  0  0  0  0
   -1.5726   -0.8251    0.6059 O   0  0  0  0  0  0  0  0  0  0  0  0
   -2.4587   -1.6869   -0.0616 C   0  0  0  0  0  0  0  0  0  0  0  0
   -3.7193   -1.8272    0.7598 C   0  0  0  0  0  0  0  0  0  0  0  0
    1.4700   -1.2630    1.9385 H   0  0  0  0  0  0  0  0  0  0  0  0
    1.5839    0.3569    2.6305 H   0  0  0  0  0  0  0  0  0  0  0  0
    0.0521   -0.5223    2.6840 H   0  0  0  0  0  0  0  0  0  0  0  0
    0.0228    1.2308    0.8837 H   0  0  0  0  0  0  0  0  0  0  0  0
    0.1327   -1.5989   -0.2514 H   0  0  0  0  0  0  0  0  0  0  0  0
   -0.5595   -0.1858   -1.0686 H   0  0  0  0  0  0  0  0  0  0  0  0
   -1.9856   -2.6687   -0.2107 H   0  0  0  0  0  0  0  0  0  0  0  0
   -2.6925   -1.2856   -1.0589 H   0  0  0  0  0  0  0  0  0  0  0  0
   -4.1965   -0.8562    0.8964 H   0  0  0  0  0  0  0  0  0  0  0  0
   -4.4243   -2.4931    0.2597 H   0  0  0  0  0  0  0  0  0  0  0  0
   -3.4907   -2.2397    1.7432 H   0  0  0  0  0  0  0  0  0  0  0  0
  1  2  1  0
  1  4  1  0
  1  5  1  0
  1  6  1  0
  2  3  3  0
  7  8  1  0
  7 13  1  0
  7 14  1  0
  7 15  1  0
  8  9  1  0
  8 16  1  0
  9 10  1  0
  9 17  1  0
  9 18  1  0
 10 11  1  0
 11 12  1  0
 11 19  1  0
 11 20  1  0
 12 21  1  0
 12 22  1  0
 12 23  1  0
M  RAD  1   8   2
M  END
>  <reaction>  (7) 
rmg_rxn_220

>  <mol_properties>  (7) 
{"0": {"label": "*3", "atom_type": "Cd"}, "1": {"label": "*4", "atom_type": "Cdd"}, "3": {"label": "*2", "atom_type": "H0"}, "7": {"label": "*1", "atom_type": "Cs"}, "8": {"label": "*0", "atom_type": "Cs"}}

>  <type>  (7) 
unop_3

>  <geom_source>  (7) 
Heuristics

$$$$

     RDKit          3D

 23 21  0  0  0  0  0  0  0  0999 V2000
    1.6415    0.7663   -1.5059 C   0  0  0  0  0  0  0  0  0  0  0  0
    1.6415    0.7663   -2.9605 C   0  0  0  0  0  0  0  0  0  0  0  0
    1.6415    0.7663   -4.1070 N   0  0  0  0  0  0  0  0  0  0  0  0
    0.6884   -0.0095   -1.0598 H   0  0  0  0  0  0  0  0  0  0  0  0
    2.5985    0.4018   -1.1342 H   0  0  0  0  0  0  0  0  0  0  0  0
    1.4787    1.7774   -1.1342 H   0  0  0  0  0  0  0  0  0  0  0  0
   -1.6211   -0.2929   -1.1053 C   0  0  0  0  0  0  0  0  0  0  0  0
   -0.2682   -0.7882   -0.6120 C   0  0  0  0  0  3  0  0  0  0  0  0
    0.1494   -0.1670    0.7052 C   0  0  0  0  0  0  0  0  0  0  0  0
   -0.7650   -0.5382    1.7057 O   0  0  0  0  0  0  0  0  0  0  0  0
   -0.4752    0.0239    2.9602 C   0  0  0  0  0  0  0  0  0  0  0  0
   -1.5143   -0.4364    3.9562 C   0  0  0  0  0  0  0  0  0  0  0  0
   -1.6098    0.7901   -1.2518 H   0  0  0  0  0  0  0  0  0  0  0  0
   -1.8860   -0.7565   -2.0567 H   0  0  0  0  0  0  0  0  0  0  0  0
   -2.4039   -0.5250   -0.3832 H   0  0  0  0  0  0  0  0  0  0  0  0
   -0.2869   -1.8746   -0.4930 H   0  0  0  0  0  0  0  0  0  0  0  0
    0.1791    0.9303    0.6129 H   0  0  0  0  0  0  0  0  0  0  0  0
    1.1613   -0.4995    0.9797 H   0  0  0  0  0  0  0  0  0  0  0  0
   -0.4721    1.1215    2.8872 H   0  0  0  0  0  0  0  0  0  0  0  0
    0.5305   -0.2816    3.2849 H   0  0  0  0  0  0  0  0  0  0  0  0
   -1.5086   -1.5237    4.0393 H   0  0  0  0  0  0  0  0  0  0  0  0
   -1.3090   -0.0119    4.9401 H   0  0  0  0  0  0  0  0  0  0  0  0
   -2.5101   -0.1205    3.6431 H   0  0  0  0  0  0  0  0  0  0  0  0
  1  2  1  0
  1  4  1  0
  1  5  1  0
  1  6  1  0
  2  3  3  0
  7  8  1  0
  7 13  1  0
  7 14  1  0
  7 15  1  0
  8  9  1  0
  8 16  1  0
  9 10  1  0
  9 17  1  0
  9 18  1  0
 10 11  1  0
 11 12  1  0
 11 19  1  0
 11 20  1  0
 12 21  1  0
 12 22  1  0
 12 23  1  0
M  RAD  1   8   2
M  END
>  <reaction>  (8) 
rmg_rxn_220

>  <mol_properties>  (8) 
{"0": {"label": "*3", "atom_type": "Cd"}, "1": {"label": "*4", "atom_type": "Cdd"}, "3": {"label": "*2", "atom_type": "H0"}, "7": {"label": "*1", "atom_type": "Cs"}, "8": {"label": "*0", "atom_type": "Cs"}}

>  <type>  (8) 
unop_4

>  <geom_source>  (8) 
Heuristics

$$$$

     RDKit          3D

 23 21  0  0  0  0  0  0  0  0999 V2000
    1.6966    2.3837   -0.1675 C   0  0  0  0  0  0  0  0  0  0  0  0
    1.6966    2.3837   -1.6222 C   0  0  0  0  0  0  0  0  0  0  0  0
    1.6966    2.3837   -2.7686 N   0  0  0  0  0  0  0  0  0  0  0  0
    0.7436    1.6079    0.2786 H   0  0  0  0  0  0  0  0  0  0  0  0
    2.6536    2.0192    0.2042 H   0  0  0  0  0  0  0  0  0  0  0  0
    1.5338    3.3948    0.2042 H   0  0  0  0  0  0  0  0  0  0  0  0
   -0.2167    0.8262    2.2492 C   0  0  0  0  0  0  0  0  0  0  0  0
   -0.2130    0.8291    0.7263 C   0  0  0  0  0  3  0  0  0  0  0  0
   -0.0105   -0.5482    0.1286 C   0  0  0  0  0  0  0  0  0  0  0  0
   -1.0862   -1.3763    0.4921 O   0  0  0  0  0  0  0  0  0  0  0  0
   -0.9647   -2.6899    0.0089 C   0  0  0  0  0  0  0  0  0  0  0  0
   -2.1662   -3.4902    0.4554 C   0  0  0  0  0  0  0  0  0  0  0  0
    0.7295    0.4438    2.6404 H   0  0  0  0  0  0  0  0  0  0  0  0
   -0.3591    1.8334    2.6435 H   0  0  0  0  0  0  0  0  0  0  0  0
   -1.0175    0.1936    2.6322 H   0  0  0  0  0  0  0  0  0  0  0  0
   -1.1550    1.2359    0.3496 H   0  0  0  0  0  0  0  0  0  0  0  0
    0.9353   -0.9818    0.4904 H   0  0  0  0  0  0  0  0  0  0  0  0
    0.0583   -0.4819   -0.9671 H   0  0  0  0  0  0  0  0  0  0  0  0
   -0.0375   -3.1443    0.3881 H   0  0  0  0  0  0  0  0  0  0  0  0
   -0.8951   -2.6809   -1.0890 H   0  0  0  0  0  0  0  0  0  0  0  0
   -3.0850   -3.0482    0.0684 H   0  0  0  0  0  0  0  0  0  0  0  0
   -2.0940   -4.5160    0.0905 H   0  0  0  0  0  0  0  0  0  0  0  0
   -2.2273   -3.5128    1.5440 H   0  0  0  0  0  0  0  0  0  0  0  0
  1  2  1  0
  1  4  1  0
  1  5  1  0
  1  6  1  0
  2  3  3  0
  7  8  1  0
  7 13  1  0
  7 14  1  0
  7 15  1  0
  8  9  1  0
  8 16  1  0
  9 10  1  0
  9 17  1  0
  9 18  1  0
 10 11  1  0
 11 12  1  0
 11 19  1  0
 11 20  1  0
 12 21  1  0
 12 22  1  0
 12 23  1  0
M  RAD  1   8   2
M  END
>  <reaction>  (9) 
rmg_rxn_220

>  <mol_properties>  (9) 
{"0": {"label": "*3", "atom_type": "Cd"}, "1": {"label": "*4", "atom_type": "Cdd"}, "3": {"label": "*2", "atom_type": "H0"}, "7": {"label": "*1", "atom_type": "Cs"}, "8": {"label": "*0", "atom_type": "Cs"}}

>  <type>  (9) 
unop_5

>  <geom_source>  (9) 
Heuristics

$$$$

     RDKit          3D

 23 21  0  0  0  0  0  0  0  0999 V2000
    1.1137    1.1145   -1.5672 C   0  0  0  0  0  0  0  0  0  0  0  0
    1.1137    1.1145   -3.0218 C   0  0  0  0  0  0  0  0  0  0  0  0
    1.1137    1.1145   -4.1683 N   0  0  0  0  0  0  0  0  0  0  0  0
    0.1607    0.3387   -1.1211 H   0  0  0  0  0  0  0  0  0  0  0  0
    2.0708    0.7500   -1.1955 H   0  0  0  0  0  0  0  0  0  0  0  0
    0.9510    2.1256   -1.1955 H   0  0  0  0  0  0  0  0  0  0  0  0
   -2.0806    0.3579   -0.4945 C   0  0  0  0  0  0  0  0  0  0  0  0
   -0.7959   -0.4400   -0.6733 C   0  0  0  0  0  3  0  0  0  0  0  0
    0.1644   -0.2910    0.4890 C   0  0  0  0  0  0  0  0  0  0  0  0
   -0.4299   -0.8072    1.6531 O   0  0  0  0  0  0  0  0  0  0  0  0
    0.3790   -0.6784    2.7945 C   0  0  0  0  0  0  0  0  0  0  0  0
   -0.3517   -1.2605    3.9822 C   0  0  0  0  0  0  0  0  0  0  0  0
   -1.8657    1.4245   -0.3920 H   0  0  0  0  0  0  0  0  0  0  0  0
   -2.7441    0.2311   -1.3512 H   0  0  0  0  0  0  0  0  0  0  0  0
   -2.6136    0.0361    0.4001 H   0  0  0  0  0  0  0  0  0  0  0  0
   -1.0274   -1.5009   -0.7985 H   0  0  0  0  0  0  0  0  0  0  0  0
    0.4173    0.7709    0.6365 H   0  0  0  0  0  0  0  0  0  0  0  0
    1.1031   -0.8244    0.2788 H   0  0  0  0  0  0  0  0  0  0  0  0
    0.6139    0.3819    2.9695 H   0  0  0  0  0  0  0  0  0  0  0  0
    1.3348   -1.2000    2.6377 H   0  0  0  0  0  0  0  0  0  0  0  0
   -0.5729   -2.3153    3.8154 H   0  0  0  0  0  0  0  0  0  0  0  0
    0.2588   -1.1721    4.8822 H   0  0  0  0  0  0  0  0  0  0  0  0
   -1.2922   -0.7338    4.1480 H   0  0  0  0  0  0  0  0  0  0  0  0
  1  2  1  0
  1  4  1  0
  1  5  1  0
  1  6  1  0
  2  3  3  0
  7  8  1  0
  7 13  1  0
  7 14  1  0
  7 15  1  0
  8  9  1  0
  8 16  1  0
  9 10  1  0
  9 17  1  0
  9 18  1  0
 10 11  1  0
 11 12  1  0
 11 19  1  0
 11 20  1  0
 12 21  1  0
 12 22  1  0
 12 23  1  0
M  RAD  1   8   2
M  END
>  <reaction>  (10) 
rmg_rxn_220

>  <mol_properties>  (10) 
{"0": {"label": "*3", "atom_type": "Cd"}, "1": {"label": "*4", "atom_type": "Cdd"}, "3": {"label": "*2", "atom_type": "H0"}, "7": {"label": "*1", "atom_type": "Cs"}, "8": {"label": "*0", "atom_type": "Cs"}}

>  <type>  (10) 
unop_6

>  <geom_source>  (10) 
Heuristics

$$$$

     RDKit          3D

 23 21  0  0  0  0  0  0  0  0999 V2000
    0.7743    1.6641   -1.3249 C   0  0  0  0  0  0  0  0  0  0  0  0
    0.7743    1.6641   -2.7795 C   0  0  0  0  0  0  0  0  0  0  0  0
    0.7743    1.6641   -3.9260 N   0  0  0  0  0  0  0  0  0  0  0  0
   -0.1787    0.8883   -0.8788 H   0  0  0  0  0  0  0  0  0  0  0  0
    1.7313    1.2996   -0.9532 H   0  0  0  0  0  0  0  0  0  0  0  0
    0.6115    2.6752   -0.9532 H   0  0  0  0  0  0  0  0  0  0  0  0
   -2.1099    0.9129    0.4198 C   0  0  0  0  0  0  0  0  0  0  0  0
   -1.1353    0.1095   -0.4310 C   0  0  0  0  0  3  0  0  0  0  0  0
    0.1069   -0.3139    0.3258 C   0  0  0  0  0  0  0  0  0  0  0  0
   -0.2581   -1.1728    1.3766 O   0  0  0  0  0  0  0  0  0  0  0  0
    0.8321   -1.5897    2.1583 C   0  0  0  0  0  0  0  0  0  0  0  0
    0.3306   -2.5028    3.2530 C   0  0  0  0  0  0  0  0  0  0  0  0
   -1.6387    1.8242    0.7964 H   0  0  0  0  0  0  0  0  0  0  0  0
   -2.9879    1.2046   -0.1584 H   0  0  0  0  0  0  0  0  0  0  0  0
   -2.4448    0.3299    1.2777 H   0  0  0  0  0  0  0  0  0  0  0  0
   -1.6268   -0.7859   -0.8202 H   0  0  0  0  0  0  0  0  0  0  0  0
    0.6246    0.5713    0.7280 H   0  0  0  0  0  0  0  0  0  0  0  0
    0.8092   -0.8247   -0.3493 H   0  0  0  0  0  0  0  0  0  0  0  0
    1.3400   -0.7147    2.5901 H   0  0  0  0  0  0  0  0  0  0  0  0
    1.5673   -2.1123    1.5285 H   0  0  0  0  0  0  0  0  0  0  0  0
   -0.1609   -3.3775    2.8256 H   0  0  0  0  0  0  0  0  0  0  0  0
    1.1618   -2.8405    3.8740 H   0  0  0  0  0  0  0  0  0  0  0  0
   -0.3866   -1.9808    3.8873 H   0  0  0  0  0  0  0  0  0  0  0  0
  1  2  1  0
  1  4  1  0
  1  5  1  0
  1  6  1  0
  2  3  3  0
  7  8  1  0
  7 13  1  0
  7 14  1  0
  7 15  1  0
  8  9  1  0
  8 16  1  0
  9 10  1  0
  9 17  1  0
  9 18  1  0
 10 11  1  0
 11 12  1  0
 11 19  1  0
 11 20  1  0
 12 21  1  0
 12 22  1  0
 12 23  1  0
M  RAD  1   8   2
M  END
>  <reaction>  (11) 
rmg_rxn_220

>  <mol_properties>  (11) 
{"0": {"label": "*3", "atom_type": "Cd"}, "1": {"label": "*4", "atom_type": "Cdd"}, "3": {"label": "*2", "atom_type": "H0"}, "7": {"label": "*1", "atom_type": "Cs"}, "8": {"label": "*0", "atom_type": "Cs"}}

>  <type>  (11) 
unop_7

>  <geom_source>  (11) 
Heuristics

$$$$

     RDKit          3D

 23 21  0  0  0  0  0  0  0  0999 V2000
    2.5204    1.4091   -0.7462 C   0  0  0  0  0  0  0  0  0  0  0  0
    2.5204    1.4091   -2.2009 C   0  0  0  0  0  0  0  0  0  0  0  0
    2.5204    1.4091   -3.3473 N   0  0  0  0  0  0  0  0  0  0  0  0
    1.5674    0.6333   -0.3001 H   0  0  0  0  0  0  0  0  0  0  0  0
    3.4774    1.0446   -0.3745 H   0  0  0  0  0  0  0  0  0  0  0  0
    2.3576    2.4202   -0.3745 H   0  0  0  0  0  0  0  0  0  0  0  0
    1.1315   -1.5653    0.3264 C   0  0  0  0  0  0  0  0  0  0  0  0
    0.6108   -0.1455    0.1476 C   0  0  0  0  0  3  0  0  0  0  0  0
   -0.8992   -0.0732    0.0471 C   0  0  0  0  0  0  0  0  0  0  0  0
   -1.4682   -0.5246    1.2501 O   0  0  0  0  0  0  0  0  0  0  0  0
   -2.8729   -0.5259    1.2349 C   0  0  0  0  0  0  0  0  0  0  0  0
   -3.3779   -1.0267    2.5682 C   0  0  0  0  0  0  0  0  0  0  0  0
    0.8364   -2.1974   -0.5149 H   0  0  0  0  0  0  0  0  0  0  0  0
    2.2206   -1.5792    0.3895 H   0  0  0  0  0  0  0  0  0  0  0  0
    0.7315   -2.0115    1.2369 H   0  0  0  0  0  0  0  0  0  0  0  0
    0.9334    0.4806    0.9835 H   0  0  0  0  0  0  0  0  0  0  0  0
   -1.2523   -0.6947   -0.7910 H   0  0  0  0  0  0  0  0  0  0  0  0
   -1.2188    0.9598   -0.1547 H   0  0  0  0  0  0  0  0  0  0  0  0
   -3.2382   -1.1678    0.4197 H   0  0  0  0  0  0  0  0  0  0  0  0
   -3.2470    0.4900    1.0391 H   0  0  0  0  0  0  0  0  0  0  0  0
   -3.0276   -0.3829    3.3758 H   0  0  0  0  0  0  0  0  0  0  0  0
   -4.4689   -1.0360    2.5801 H   0  0  0  0  0  0  0  0  0  0  0  0
   -3.0204   -2.0398    2.7562 H   0  0  0  0  0  0  0  0  0  0  0  0
  1  2  1  0
  1  4  1  0
  1  5  1  0
  1  6  1  0
  2  3  3  0
  7  8  1  0
  7 13  1  0
  7 14  1  0
  7 15  1  0
  8  9  1  0
  8 16  1  0
  9 10  1  0
  9 17  1  0
  9 18  1  0
 10 11  1  0
 11 12  1  0
 11 19  1  0
 11 20  1  0
 12 21  1  0
 12 22  1  0
 12 23  1  0
M  RAD  1   8   2
M  END
>  <reaction>  (12) 
rmg_rxn_220

>  <mol_properties>  (12) 
{"0": {"label": "*3", "atom_type": "Cd"}, "1": {"label": "*4", "atom_type": "Cdd"}, "3": {"label": "*2", "atom_type": "H0"}, "7": {"label": "*1", "atom_type": "Cs"}, "8": {"label": "*0", "atom_type": "Cs"}}

>  <type>  (12) 
unop_8

>  <geom_source>  (12) 
Heuristics

$$$$

     RDKit          3D

 23 21  0  0  0  0  0  0  0  0999 V2000
    2.1547    0.7348   -1.2360 C   0  0  0  0  0  0  0  0  0  0  0  0
    2.1547    0.7348   -2.6907 C   0  0  0  0  0  0  0  0  0  0  0  0
    2.1547    0.7348   -3.8371 N   0  0  0  0  0  0  0  0  0  0  0  0
    1.2017   -0.0410   -0.7899 H   0  0  0  0  0  0  0  0  0  0  0  0
    3.1117    0.3703   -0.8643 H   0  0  0  0  0  0  0  0  0  0  0  0
    1.9919    1.7459   -0.8643 H   0  0  0  0  0  0  0  0  0  0  0  0
   -0.9160   -0.8430   -1.3274 C   0  0  0  0  0  0  0  0  0  0  0  0
    0.2451   -0.8197   -0.3422 C   0  0  0  0  0  3  0  0  0  0  0  0
   -0.0168    0.0556    0.8663 C   0  0  0  0  0  0  0  0  0  0  0  0
   -1.1033   -0.4636    1.5908 O   0  0  0  0  0  0  0  0  0  0  0  0
   -1.4418    0.3080    2.7149 C   0  0  0  0  0  0  0  0  0  0  0  0
   -2.6156   -0.3352    3.4164 C   0  0  0  0  0  0  0  0  0  0  0  0
   -1.1305    0.1615   -1.7006 H   0  0  0  0  0  0  0  0  0  0  0  0
   -0.6901   -1.4777   -2.1855 H   0  0  0  0  0  0  0  0  0  0  0  0
   -1.8194   -1.2231   -0.8505 H   0  0  0  0  0  0  0  0  0  0  0  0
    0.4638   -1.8332    0.0041 H   0  0  0  0  0  0  0  0  0  0  0  0
   -0.2382    1.0860    0.5458 H   0  0  0  0  0  0  0  0  0  0  0  0
    0.8760    0.0974    1.5075 H   0  0  0  0  0  0  0  0  0  0  0  0
   -1.6941    1.3326    2.4039 H   0  0  0  0  0  0  0  0  0  0  0  0
   -0.5797    0.3793    3.3945 H   0  0  0  0  0  0  0  0  0  0  0  0
   -2.3617   -1.3460    3.7374 H   0  0  0  0  0  0  0  0  0  0  0  0
   -2.8966    0.2476    4.2950 H   0  0  0  0  0  0  0  0  0  0  0  0
   -3.4757   -0.3921    2.7483 H   0  0  0  0  0  0  0  0  0  0  0  0
  1  2  1  0
  1  4  1  0
  1  5  1  0
  1  6  1  0
  2  3  3  0
  7  8  1  0
  7 13  1  0
  7 14  1  0
  7 15  1  0
  8  9  1  0
  8 16  1  0
  9 10  1  0
  9 17  1  0
  9 18  1  0
 10 11  1  0
 11 12  1  0
 11 19  1  0
 11 20  1  0
 12 21  1  0
 12 22  1  0
 12 23  1  0
M  RAD  1   8   2
M  END
>  <reaction>  (13) 
rmg_rxn_220

>  <mol_properties>  (13) 
{"0": {"label": "*3", "atom_type": "Cd"}, "1": {"label": "*4", "atom_type": "Cdd"}, "3": {"label": "*2", "atom_type": "H0"}, "7": {"label": "*1", "atom_type": "Cs"}, "8": {"label": "*0", "atom_type": "Cs"}}

>  <type>  (13) 
unop_9

>  <geom_source>  (13) 
Heuristics

$$$$

     RDKit          3D

 23 21  0  0  0  0  0  0  0  0999 V2000
    2.4796    1.4215   -0.8220 C   0  0  0  0  0  0  0  0  0  0  0  0
    2.4796    1.4215   -2.2767 C   0  0  0  0  0  0  0  0  0  0  0  0
    2.4796    1.4215   -3.4231 N   0  0  0  0  0  0  0  0  0  0  0  0
    1.5266    0.6457   -0.3759 H   0  0  0  0  0  0  0  0  0  0  0  0
    3.4366    1.0570   -0.4503 H   0  0  0  0  0  0  0  0  0  0  0  0
    2.3168    2.4326   -0.4503 H   0  0  0  0  0  0  0  0  0  0  0  0
    0.7806   -1.5584   -0.4214 C   0  0  0  0  0  0  0  0  0  0  0  0
    0.5700   -0.1330    0.0718 C   0  0  0  0  0  3  0  0  0  0  0  0
   -0.8848    0.1965    0.3370 C   0  0  0  0  0  0  0  0  0  0  0  0
   -1.3676   -0.6250    1.3700 O   0  0  0  0  0  0  0  0  0  0  0  0
   -2.7254   -0.4125    1.6610 C   0  0  0  0  0  0  0  0  0  0  0  0
   -3.1393   -1.3420    2.7783 C   0  0  0  0  0  0  0  0  0  0  0  0
    0.2382   -1.7320   -1.3542 H   0  0  0  0  0  0  0  0  0  0  0  0
    1.8371   -1.7577   -0.6066 H   0  0  0  0  0  0  0  0  0  0  0  0
    0.4215   -2.2784    0.3139 H   0  0  0  0  0  0  0  0  0  0  0  0
    1.1369    0.0335    0.9914 H   0  0  0  0  0  0  0  0  0  0  0  0
   -1.4805    0.0395   -0.5762 H   0  0  0  0  0  0  0  0  0  0  0  0
   -0.9908    1.2545    0.6186 H   0  0  0  0  0  0  0  0  0  0  0  0
   -3.3341   -0.5955    0.7632 H   0  0  0  0  0  0  0  0  0  0  0  0
   -2.8869    0.6357    1.9533 H   0  0  0  0  0  0  0  0  0  0  0  0
   -2.5457   -1.1519    3.6732 H   0  0  0  0  0  0  0  0  0  0  0  0
   -4.1924   -1.1942    3.0225 H   0  0  0  0  0  0  0  0  0  0  0  0
   -2.9942   -2.3820    2.4837 H   0  0  0  0  0  0  0  0  0  0  0  0
  1  2  1  0
  1  4  1  0
  1  5  1  0
  1  6  1  0
  2  3  3  0
  7  8  1  0
  7 13  1  0
  7 14  1  0
  7 15  1  0
  8  9  1  0
  8 16  1  0
  9 10  1  0
  9 17  1  0
  9 18  1  0
 10 11  1  0
 11 12  1  0
 11 19  1  0
 11 20  1  0
 12 21  1  0
 12 22  1  0
 12 23  1  0
M  RAD  1   8   2
M  END
>  <reaction>  (14) 
rmg_rxn_220

>  <mol_properties>  (14) 
{"0": {"label": "*3", "atom_type": "Cd"}, "1": {"label": "*4", "atom_type": "Cdd"}, "3": {"label": "*2", "atom_type": "H0"}, "7": {"label": "*1", "atom_type": "Cs"}, "8": {"label": "*0", "atom_type": "Cs"}}

>  <type>  (14) 
unop_10

>  <geom_source>  (14) 
Heuristics

$$$$

     RDKit          3D

 23 21  0  0  0  0  0  0  0  0999 V2000
    0.8793    2.2428   -0.7761 C   0  0  0  0  0  0  0  0  0  0  0  0
    0.8793    2.2428   -2.2307 C   0  0  0  0  0  0  0  0  0  0  0  0
    0.8793    2.2428   -3.3772 N   0  0  0  0  0  0  0  0  0  0  0  0
   -0.0738    1.4669   -0.3300 H   0  0  0  0  0  0  0  0  0  0  0  0
    1.8363    1.8782   -0.4044 H   0  0  0  0  0  0  0  0  0  0  0  0
    0.7165    3.2538   -0.4044 H   0  0  0  0  0  0  0  0  0  0  0  0
   -1.5360    1.1984    1.4606 C   0  0  0  0  0  0  0  0  0  0  0  0
   -1.0304    0.6882    0.1178 C   0  0  0  0  0  3  0  0  0  0  0  0
    0.0695   -0.3453    0.2493 C   0  0  0  0  0  0  0  0  0  0  0  0
   -0.4341   -1.4801    0.9077 O   0  0  0  0  0  0  0  0  0  0  0  0
    0.5307   -2.4818    1.1063 C   0  0  0  0  0  0  0  0  0  0  0  0
   -0.1128   -3.6488    1.8187 C   0  0  0  0  0  0  0  0  0  0  0  0
   -0.7274    1.6628    2.0305 H   0  0  0  0  0  0  0  0  0  0  0  0
   -2.3218    1.9434    1.3269 H   0  0  0  0  0  0  0  0  0  0  0  0
   -1.9395    0.3804    2.0573 H   0  0  0  0  0  0  0  0  0  0  0  0
   -1.8538    0.2484   -0.4508 H   0  0  0  0  0  0  0  0  0  0  0  0
    0.9154    0.0731    0.8175 H   0  0  0  0  0  0  0  0  0  0  0  0
    0.4498   -0.6259   -0.7439 H   0  0  0  0  0  0  0  0  0  0  0  0
    1.3676   -2.0837    1.6988 H   0  0  0  0  0  0  0  0  0  0  0  0
    0.9432   -2.8025    0.1382 H   0  0  0  0  0  0  0  0  0  0  0  0
   -0.9339   -4.0529    1.2256 H   0  0  0  0  0  0  0  0  0  0  0  0
    0.6190   -4.4412    1.9836 H   0  0  0  0  0  0  0  0  0  0  0  0
   -0.5084   -3.3354    2.7855 H   0  0  0  0  0  0  0  0  0  0  0  0
  1  2  1  0
  1  4  1  0
  1  5  1  0
  1  6  1  0
  2  3  3  0
  7  8  1  0
  7 13  1  0
  7 14  1  0
  7 15  1  0
  8  9  1  0
  8 16  1  0
  9 10  1  0
  9 17  1  0
  9 18  1  0
 10 11  1  0
 11 12  1  0
 11 19  1  0
 11 20  1  0
 12 21  1  0
 12 22  1  0
 12 23  1  0
M  RAD  1   8   2
M  END
>  <reaction>  (15) 
rmg_rxn_220

>  <mol_properties>  (15) 
{"0": {"label": "*3", "atom_type": "Cd"}, "1": {"label": "*4", "atom_type": "Cdd"}, "3": {"label": "*2", "atom_type": "H0"}, "7": {"label": "*1", "atom_type": "Cs"}, "8": {"label": "*0", "atom_type": "Cs"}}

>  <type>  (15) 
unop_11

>  <geom_source>  (15) 
Heuristics

$$$$

     RDKit          3D

 23 21  0  0  0  0  0  0  0  0999 V2000
    2.4571    0.9977   -0.9532 C   0  0  0  0  0  0  0  0  0  0  0  0
    2.4571    0.9977   -2.4078 C   0  0  0  0  0  0  0  0  0  0  0  0
    2.4571    0.9977   -3.5542 N   0  0  0  0  0  0  0  0  0  0  0  0
    1.5041    0.2219   -0.5071 H   0  0  0  0  0  0  0  0  0  0  0  0
    3.4141    0.6332   -0.5815 H   0  0  0  0  0  0  0  0  0  0  0  0
    2.2943    2.0088   -0.5814 H   0  0  0  0  0  0  0  0  0  0  0  0
   -0.2129   -1.1759   -1.2246 C   0  0  0  0  0  0  0  0  0  0  0  0
    0.5475   -0.5568   -0.0593 C   0  0  0  0  0  3  0  0  0  0  0  0
   -0.3341    0.2677    0.8563 C   0  0  0  0  0  0  0  0  0  0  0  0
   -1.2990   -0.5653    1.4480 O   0  0  0  0  0  0  0  0  0  0  0  0
   -2.1874    0.1238    2.2901 C   0  0  0  0  0  0  0  0  0  0  0  0
   -3.1775   -0.8599    2.8695 C   0  0  0  0  0  0  0  0  0  0  0  0
   -0.6788   -0.4026   -1.8405 H   0  0  0  0  0  0  0  0  0  0  0  0
    0.4535   -1.7566   -1.8641 H   0  0  0  0  0  0  0  0  0  0  0  0
   -1.0010   -1.8368   -0.8638 H   0  0  0  0  0  0  0  0  0  0  0  0
    1.0277   -1.3396    0.5336 H   0  0  0  0  0  0  0  0  0  0  0  0
   -0.8299    1.0676    0.2838 H   0  0  0  0  0  0  0  0  0  0  0  0
    0.2727    0.7514    1.6358 H   0  0  0  0  0  0  0  0  0  0  0  0
   -2.7111    0.9068    1.7220 H   0  0  0  0  0  0  0  0  0  0  0  0
   -1.6291    0.6260    3.0941 H   0  0  0  0  0  0  0  0  0  0  0  0
   -2.6602   -1.6288    3.4445 H   0  0  0  0  0  0  0  0  0  0  0  0
   -3.8789   -0.3464    3.5289 H   0  0  0  0  0  0  0  0  0  0  0  0
   -3.7424   -1.3469    2.0739 H   0  0  0  0  0  0  0  0  0  0  0  0
  1  2  1  0
  1  4  1  0
  1  5  1  0
  1  6  1  0
  2  3  3  0
  7  8  1  0
  7 13  1  0
  7 14  1  0
  7 15  1  0
  8  9  1  0
  8 16  1  0
  9 10  1  0
  9 17  1  0
  9 18  1  0
 10 11  1  0
 11 12  1  0
 11 19  1  0
 11 20  1  0
 12 21  1  0
 12 22  1  0
 12 23  1  0
M  RAD  1   8   2
M  END
>  <reaction>  (16) 
rmg_rxn_220

>  <mol_properties>  (16) 
{"0": {"label": "*3", "atom_type": "Cd"}, "1": {"label": "*4", "atom_type": "Cdd"}, "3": {"label": "*2", "atom_type": "H0"}, "7": {"label": "*1", "atom_type": "Cs"}, "8": {"label": "*0", "atom_type": "Cs"}}

>  <type>  (16) 
unop_12

>  <geom_source>  (16) 
Heuristics

$$$$

     RDKit          3D

 23 21  0  0  0  0  0  0  0  0999 V2000
    1.0296   -0.0417   -0.0422 O   0  0  0  0  0  0  0  0  0  0  0  0
   -4.0788    2.0430    0.4255 N   0  0  0  0  0  2  0  0  0  0  0  0
   -1.2238   -0.6787   -0.5809 C   0  0  0  0  0  0  0  0  0  0  0  0
    0.0090    0.1184   -1.0051 C   0  0  0  0  0  0  0  0  0  0  0  0
    2.1744    0.6787   -0.4456 C   0  0  0  0  0  0  0  0  0  0  0  0
   -0.9552   -2.1813   -0.5701 C   0  0  0  0  0  0  0  0  0  0  0  0
    3.2642    0.5100    0.6016 C   0  0  0  0  0  0  0  0  0  0  0  0
   -2.0657    0.7060    1.4382 C   0  0  0  0  0  0  0  0  0  0  0  0
   -3.1898    1.4526    0.8728 C   0  0  0  0  0  0  0  0  0  0  0  0
   -2.0557   -0.4660   -1.2869 H   0  0  0  0  0  0  0  0  0  0  0  0
   -1.5997   -0.2930    0.6339 H   0  0  0  0  0  0  0  0  0  0  0  0
    0.3411   -0.2367   -2.0081 H   0  0  0  0  0  0  0  0  0  0  0  0
   -0.2885    1.1890   -1.0793 H   0  0  0  0  0  0  0  0  0  0  0  0
    2.5622    0.2942   -1.4165 H   0  0  0  0  0  0  0  0  0  0  0  0
    1.9468    1.7652   -0.5398 H   0  0  0  0  0  0  0  0  0  0  0  0
   -0.6492   -2.5273   -1.5803 H   0  0  0  0  0  0  0  0  0  0  0  0
   -1.8806   -2.7185   -0.2748 H   0  0  0  0  0  0  0  0  0  0  0  0
   -0.1566   -2.4266    0.1614 H   0  0  0  0  0  0  0  0  0  0  0  0
    2.9136    0.8992    1.5811 H   0  0  0  0  0  0  0  0  0  0  0  0
    3.5254   -0.5643    0.7086 H   0  0  0  0  0  0  0  0  0  0  0  0
    4.1712    1.0723    0.2943 H   0  0  0  0  0  0  0  0  0  0  0  0
   -2.4411   -0.0069    2.2009 H   0  0  0  0  0  0  0  0  0  0  0  0
   -1.3529    1.4124    1.9114 H   0  0  0  0  0  0  0  0  0  0  0  0
  1  5  1  0
  1  4  1  0
  2  9  2  0
  3  6  1  0
  3  4  1  0
  3 10  1  0
  3 11  1  0
  4 12  1  0
  4 13  1  0
  5  7  1  0
  5 14  1  0
  5 15  1  0
  6 16  1  0
  6 17  1  0
  6 18  1  0
  7 19  1  0
  7 20  1  0
  7 21  1  0
  8  9  2  0
  8 22  1  0
  8 23  1  0
M  RAD  1   2   2
M  END
>  <reaction>  (17) 
rmg_rxn_220

>  <mol_properties>  (17) 
{"0": {"label": "*3", "atom_type": "Cd"}, "1": {"label": "*4", "atom_type": "Cdd"}, "3": {"label": "*2", "atom_type": "H0"}, "7": {"label": "*1", "atom_type": "Cs"}, "8": {"label": "*0", "atom_type": "Cs"}}

>  <type>  (17) 
unop_13

>  <geom_source>  (17) 
AutoTST

$$$$

     RDKit          3D

 23 21  0  0  0  0  0  0  0  0999 V2000
    2.5053    1.3010   -0.8314 C   0  0  0  0  0  0  0  0  0  0  0  0
    2.5053    1.3010   -2.2860 C   0  0  0  0  0  0  0  0  0  0  0  0
    2.5053    1.3010   -3.4325 N   0  0  0  0  0  0  0  0  0  0  0  0
    1.5523    0.5252   -0.3853 H   0  0  0  0  0  0  0  0  0  0  0  0
    3.4623    0.9365   -0.4597 H   0  0  0  0  0  0  0  0  0  0  0  0
    2.3425    2.3121   -0.4597 H   0  0  0  0  0  0  0  0  0  0  0  0
    0.3374   -1.3858   -0.9227 C   0  0  0  0  0  0  0  0  0  0  0  0
    0.5957   -0.2535    0.0625 C   0  0  0  0  0  3  0  0  0  0  0  0
   -0.6749    0.3274    0.6485 C   0  0  0  0  0  0  0  0  0  0  0  0
   -1.3398   -0.6624    1.3922 O   0  0  0  0  0  0  0  0  0  0  0  0
   -2.5529   -0.2209    1.9462 C   0  0  0  0  0  0  0  0  0  0  0  0
   -3.1817   -1.3567    2.7195 C   0  0  0  0  0  0  0  0  0  0  0  0
   -0.2730   -1.0410   -1.7612 H   0  0  0  0  0  0  0  0  0  0  0  0
    1.2727   -1.7751   -1.3275 H   0  0  0  0  0  0  0  0  0  0  0  0
   -0.1921   -2.2060   -0.4380 H   0  0  0  0  0  0  0  0  0  0  0  0
    1.2266   -0.6062    0.8825 H   0  0  0  0  0  0  0  0  0  0  0  0
   -1.3299    0.6938   -0.1578 H   0  0  0  0  0  0  0  0  0  0  0  0
   -0.4391    1.1864    1.2938 H   0  0  0  0  0  0  0  0  0  0  0  0
   -3.2276    0.1201    1.1471 H   0  0  0  0  0  0  0  0  0  0  0  0
   -2.3724    0.6403    2.6066 H   0  0  0  0  0  0  0  0  0  0  0  0
   -2.5193   -1.6863    3.5207 H   0  0  0  0  0  0  0  0  0  0  0  0
   -4.1270   -1.0363    3.1603 H   0  0  0  0  0  0  0  0  0  0  0  0
   -3.3754   -2.2052    2.0623 H   0  0  0  0  0  0  0  0  0  0  0  0
  1  2  1  0
  1  4  1  0
  1  5  1  0
  1  6  1  0
  2  3  3  0
  7  8  1  0
  7 13  1  0
  7 14  1  0
  7 15  1  0
  8  9  1  0
  8 16  1  0
  9 10  1  0
  9 17  1  0
  9 18  1  0
 10 11  1  0
 11 12  1  0
 11 19  1  0
 11 20  1  0
 12 21  1  0
 12 22  1  0
 12 23  1  0
M  RAD  1   8   2
M  END
>  <reaction>  (18) 
rmg_rxn_220

>  <mol_properties>  (18) 
{"0": {"label": "*3", "atom_type": "Cd"}, "1": {"label": "*4", "atom_type": "Cdd"}, "3": {"label": "*2", "atom_type": "H0"}, "7": {"label": "*1", "atom_type": "Cs"}, "8": {"label": "*0", "atom_type": "Cs"}}

>  <type>  (18) 
unop_14

>  <geom_source>  (18) 
gaussian_log

$$$$
