
     RDKit          3D

  5  4  0  0  0  0  0  0  0  0999 V2000
   -0.4583    0.0384    0.1517 N   0  0  0  0  0  0  0  0  0  0  0  0
    0.7454   -0.3487    0.5322 N   0  0  0  0  0  0  0  0  0  0  0  0
    0.7566   -1.0388    1.5193 O   0  0  0  0  0  0  0  0  0  0  0  0
   -1.2688   -0.2521    0.6850 H   0  0  0  0  0  0  0  0  0  0  0  0
   -0.5137    0.6154   -0.6670 H   0  0  0  0  0  0  0  0  0  0  0  0
  1  2  1  0
  1  4  1  0
  1  5  1  0
  2  3  2  0
M  END
>  <reaction>  (1) 
rmg_rxn_1476

>  <mol_properties>  (1) 
{"0": {"label": "donator", "atom_type": "N3s"}, "3": {"label": "d_hydrogen", "atom_type": "H0"}}

>  <type>  (1) 
r1h

$$$$

     RDKit          3D

 17 16  0  0  0  0  0  0  0  0999 V2000
   -2.5196    0.7765    0.6863 C   0  0  0  0  0  0  0  0  0  0  0  0
   -1.7832    0.2264   -0.5439 C   0  0  0  0  0  0  0  0  0  0  0  0
   -0.5364   -0.5090   -0.2164 C   0  0  0  0  0  3  0  0  0  0  0  0
   -0.7195   -1.6896    0.4220 O   0  0  0  0  0  0  0  0  0  0  0  0
    0.4618   -2.3470    0.8423 C   0  0  0  0  0  0  0  0  0  0  0  0
    0.0797   -3.6206    1.5573 C   0  0  0  0  0  0  0  0  0  0  0  0
   -1.8902    1.4809    1.2340 H   0  0  0  0  0  0  0  0  0  0  0  0
   -3.4347    1.2951    0.3937 H   0  0  0  0  0  0  0  0  0  0  0  0
   -2.7882   -0.0345    1.3642 H   0  0  0  0  0  0  0  0  0  0  0  0
   -2.4551   -0.4399   -1.0937 H   0  0  0  0  0  0  0  0  0  0  0  0
   -1.5294    1.0480   -1.2176 H   0  0  0  0  0  0  0  0  0  0  0  0
    0.3864    0.0229    0.0104 H   0  0  0  0  0  0  0  0  0  0  0  0
    1.0871   -2.5604   -0.0319 H   0  0  0  0  0  0  0  0  0  0  0  0
    1.0283   -1.6824    1.5065 H   0  0  0  0  0  0  0  0  0  0  0  0
   -0.4799   -4.2803    0.8934 H   0  0  0  0  0  0  0  0  0  0  0  0
    0.9764   -4.1449    1.8908 H   0  0  0  0  0  0  0  0  0  0  0  0
   -0.5383   -3.4025    2.4289 H   0  0  0  0  0  0  0  0  0  0  0  0
  1  2  1  0
  1  7  1  0
  1  8  1  0
  1  9  1  0
  2  3  1  0
  2 10  1  0
  2 11  1  0
  3  4  1  0
  3 12  1  0
  4  5  1  0
  5  6  1  0
  5 13  1  0
  5 14  1  0
  6 15  1  0
  6 16  1  0
  6 17  1  0
M  RAD  1   3   2
M  END
>  <reaction>  (2) 
rmg_rxn_1476

>  <mol_properties>  (2) 
{"2": {"label": "acceptor", "atom_type": "Cs"}}

>  <type>  (2) 
r2

$$$$

     RDKit          3D

 18 17  0  0  0  0  0  0  0  0999 V2000
    2.2026   -0.7213   -0.2612 C   0  0  0  0  0  0  0  0  0  0  0  0
    1.5384    0.2638    0.6915 C   0  0  0  0  0  0  0  0  0  0  0  0
    2.2584    1.5946    0.7694 C   0  0  0  0  0  0  0  0  0  0  0  0
    2.2212    2.2185   -0.4893 O   0  0  0  0  0  0  0  0  0  0  0  0
    2.8988    3.4488   -0.5204 C   0  0  0  0  0  0  0  0  0  0  0  0
    2.7981    4.0296   -1.9118 C   0  0  0  0  0  0  0  0  0  0  0  0
    3.2294   -0.9309    0.0486 H   0  0  0  0  0  0  0  0  0  0  0  0
    2.2338   -0.3181   -1.2734 H   0  0  0  0  0  0  0  0  0  0  0  0
    1.6610   -1.6680   -0.2875 H   0  0  0  0  0  0  0  0  0  0  0  0
    1.4990   -0.1566    1.7002 H   0  0  0  0  0  0  0  0  0  0  0  0
    0.5055    0.4455    0.3835 H   0  0  0  0  0  0  0  0  0  0  0  0
    3.3038    1.4410    1.0808 H   0  0  0  0  0  0  0  0  0  0  0  0
    1.7844    2.2410    1.5226 H   0  0  0  0  0  0  0  0  0  0  0  0
    2.4596    4.1376    0.2164 H   0  0  0  0  0  0  0  0  0  0  0  0
    3.9524    3.3035   -0.2397 H   0  0  0  0  0  0  0  0  0  0  0  0
    1.7543    4.1869   -2.1856 H   0  0  0  0  0  0  0  0  0  0  0  0
    3.2472    3.3545   -2.6411 H   0  0  0  0  0  0  0  0  0  0  0  0
    3.3178    4.9878   -1.9600 H   0  0  0  0  0  0  0  0  0  0  0  0
  1  2  1  0
  1  7  1  0
  1  8  1  0
  1  9  1  0
  2  3  1  0
  2 10  1  0
  2 11  1  0
  3  4  1  0
  3 12  1  0
  3 13  1  0
  4  5  1  0
  5  6  1  0
  5 14  1  0
  5 15  1  0
  6 16  1  0
  6 17  1  0
  6 18  1  0
M  END
>  <reaction>  (3) 
rmg_rxn_1476

>  <mol_properties>  (3) 
{"0": {"label": "a_hydrogen", "atom_type": "H0"}, "3": {"label": "acceptor", "atom_type": "Cs"}}

>  <type>  (3) 
r2h

$$$$

     RDKit          3D

 22 20  0  0  0  0  0  0  0  0999 V2000
   -0.4996   -1.7741    0.7562 N   0  0  0  0  0  0  0  0  0  0  0  0
   -0.7431   -1.8784    2.0102 N   0  0  0  0  0  0  0  0  0  0  0  0
   -0.6072   -0.9096    2.7248 O   0  0  0  0  0  1  0  0  0  0  0  0
   -0.5386   -0.5352    0.2322 H   0  0  0  0  0  0  0  0  0  0  0  0
   -0.8063   -2.5952    0.2459 H   0  0  0  0  0  0  0  0  0  0  0  0
    0.1616   -0.2740   -2.4891 C   0  0  0  0  0  0  0  0  0  0  0  0
   -0.9471    0.4525   -1.7374 C   0  0  0  0  0  0  0  0  0  0  0  0
   -0.6447    0.6684   -0.2769 C   0  0  0  0  0  0  0  0  0  0  0  0
    0.5402    1.3088   -0.0787 O   0  0  0  0  0  0  0  0  0  0  0  0
    0.7651    1.7708    1.2468 C   0  0  0  0  0  0  0  0  0  0  0  0
    2.1546    2.3528    1.3253 C   0  0  0  0  0  0  0  0  0  0  0  0
    0.3556   -1.2558   -2.0519 H   0  0  0  0  0  0  0  0  0  0  0  0
   -0.1111   -0.4177   -3.5350 H   0  0  0  0  0  0  0  0  0  0  0  0
    1.0911    0.2933   -2.4531 H   0  0  0  0  0  0  0  0  0  0  0  0
   -1.1323    1.4276   -2.2017 H   0  0  0  0  0  0  0  0  0  0  0  0
   -1.8839   -0.1069   -1.8030 H   0  0  0  0  0  0  0  0  0  0  0  0
   -1.4715    1.0962    0.3025 H   0  0  0  0  0  0  0  0  0  0  0  0
    0.0064    2.5239    1.4916 H   0  0  0  0  0  0  0  0  0  0  0  0
    0.6354    0.9320    1.9393 H   0  0  0  0  0  0  0  0  0  0  0  0
    2.2707    3.1831    0.6276 H   0  0  0  0  0  0  0  0  0  0  0  0
    2.3428    2.7205    2.3348 H   0  0  0  0  0  0  0  0  0  0  0  0
    2.9021    1.5944    1.0910 H   0  0  0  0  0  0  0  0  0  0  0  0
  1  2  2  3
  1  5  1  0
  2  3  1  0
  4  8  1  0
  6  7  1  0
  6 12  1  0
  6 13  1  0
  6 14  1  0
  7  8  1  0
  7 15  1  0
  7 16  1  0
  8  9  1  0
  8 17  1  0
  9 10  1  0
 10 11  1  0
 10 18  1  0
 10 19  1  0
 11 20  1  0
 11 21  1  0
 11 22  1  0
M  RAD  1   3   2
M  END
>  <reaction>  (4) 
rmg_rxn_1476

>  <mol_properties>  (4) 
{"0": {"label": "*3", "atom_type": "N3d"}, "1": {"label": "*4", "atom_type": "N3d"}, "3": {"label": "*2", "atom_type": "H0"}, "7": {"label": "*1", "atom_type": "Cs"}, "8": {"label": "*0", "atom_type": "O2s"}}

>  <type>  (4) 
ts

$$$$

     RDKit          3D

 22 20  0  0  0  0  0  0  0  0999 V2000
   -1.0294   -1.5608    0.7502 N   0  0  0  0  0  0  0  0  0  0  0  0
   -0.3329   -2.4105    0.1239 N   0  0  0  0  0  0  0  0  0  0  0  0
    0.3578   -2.1107   -0.8379 O   0  0  0  0  0  0  0  0  0  0  0  0
   -0.8212   -0.3513    0.7226 H   0  0  0  0  0  0  0  0  0  0  0  0
   -1.4783   -1.9398    1.5780 H   0  0  0  0  0  0  0  0  0  0  0  0
   -2.7623    1.3493   -0.3982 C   0  0  0  0  0  0  0  0  0  0  0  0
   -1.2515    1.4484   -0.5681 C   0  0  0  0  0  0  0  0  0  0  0  0
   -0.5301    0.9330    0.6653 C   0  0  0  0  0  3  0  0  0  0  0  0
    0.8447    1.0700    0.7271 O   0  0  0  0  0  0  0  0  0  0  0  0
    1.5950    0.7295   -0.4221 C   0  0  0  0  0  0  0  0  0  0  0  0
    3.0678    0.7352   -0.0452 C   0  0  0  0  0  0  0  0  0  0  0  0
   -3.0905    1.9180    0.4690 H   0  0  0  0  0  0  0  0  0  0  0  0
   -3.2662    1.7422   -1.2774 H   0  0  0  0  0  0  0  0  0  0  0  0
   -3.0630    0.3128   -0.2651 H   0  0  0  0  0  0  0  0  0  0  0  0
   -0.9487    0.8734   -1.4459 H   0  0  0  0  0  0  0  0  0  0  0  0
   -0.9693    2.4938   -0.7398 H   0  0  0  0  0  0  0  0  0  0  0  0
   -0.9219    1.3613    1.5904 H   0  0  0  0  0  0  0  0  0  0  0  0
    1.2979   -0.2714   -0.7805 H   0  0  0  0  0  0  0  0  0  0  0  0
    1.4072    1.4525   -1.2270 H   0  0  0  0  0  0  0  0  0  0  0  0
    3.2523    0.0110    0.7434 H   0  0  0  0  0  0  0  0  0  0  0  0
    3.6682    0.4759   -0.9122 H   0  0  0  0  0  0  0  0  0  0  0  0
    3.3605    1.7191    0.3124 H   0  0  0  0  0  0  0  0  0  0  0  0
  1  2  1  0
  1  4  1  0
  1  5  1  0
  2  3  2  0
  6  7  1  0
  6 12  1  0
  6 13  1  0
  6 14  1  0
  7  8  1  0
  7 15  1  0
  7 16  1  0
  8  9  1  0
  8 17  1  0
  9 10  1  0
 10 11  1  0
 10 18  1  0
 10 19  1  0
 11 20  1  0
 11 21  1  0
 11 22  1  0
M  RAD  1   8   2
M  END
>  <reaction>  (5) 
rmg_rxn_1476

>  <mol_properties>  (5) 
{"0": {"label": "*3", "atom_type": "N3d"}, "1": {"label": "*4", "atom_type": "N3d"}, "3": {"label": "*2", "atom_type": "H0"}, "7": {"label": "*1", "atom_type": "Cs"}, "8": {"label": "*0", "atom_type": "O2s"}}

>  <type>  (5) 
unop_1

>  <geom_source>  (5) 
crest_best.xyz

$$$$

     RDKit          3D

 22 20  0  0  0  0  0  0  0  0999 V2000
   -0.0845   -1.2271    1.9472 N   0  0  0  0  0  0  0  0  0  0  0  0
   -0.0845   -2.4299    1.4025 N   0  0  0  0  0  0  0  0  0  0  0  0
   -0.0845   -2.4299    0.1980 O   0  0  0  0  0  0  0  0  0  0  0  0
   -0.0845   -0.2445    1.2320 H   0  0  0  0  0  0  0  0  0  0  0  0
   -0.0845   -1.1808    2.9493 H   0  0  0  0  0  0  0  0  0  0  0  0
   -2.4512    1.3926   -0.2559 C   0  0  0  0  0  0  0  0  0  0  0  0
   -1.3169    1.6632    0.7235 C   0  0  0  0  0  0  0  0  0  0  0  0
   -0.0845    0.8243    0.4541 C   0  0  0  0  0  3  0  0  0  0  0  0
    0.4351    1.1524   -0.8097 O   0  0  0  0  0  0  0  0  0  0  0  0
    1.5646    0.3943   -1.1606 C   0  0  0  0  0  0  0  0  0  0  0  0
    2.0387    0.8245   -2.5294 C   0  0  0  0  0  0  0  0  0  0  0  0
   -2.7615    0.3455   -0.2130 H   0  0  0  0  0  0  0  0  0  0  0  0
   -3.3220    2.0092   -0.0285 H   0  0  0  0  0  0  0  0  0  0  0  0
   -2.1385    1.6076   -1.2777 H   0  0  0  0  0  0  0  0  0  0  0  0
   -1.0334    2.7183    0.6871 H   0  0  0  0  0  0  0  0  0  0  0  0
   -1.6459    1.4587    1.7461 H   0  0  0  0  0  0  0  0  0  0  0  0
    0.6749    1.0023    1.2296 H   0  0  0  0  0  0  0  0  0  0  0  0
    2.3603    0.5396   -0.4149 H   0  0  0  0  0  0  0  0  0  0  0  0
    1.3122   -0.6764   -1.1600 H   0  0  0  0  0  0  0  0  0  0  0  0
    2.3022    1.8827   -2.5274 H   0  0  0  0  0  0  0  0  0  0  0  0
    2.9175    0.2484   -2.8235 H   0  0  0  0  0  0  0  0  0  0  0  0
    1.2559    0.6662   -3.2721 H   0  0  0  0  0  0  0  0  0  0  0  0
  1  2  1  0
  1  4  1  0
  1  5  1  0
  2  3  2  0
  6  7  1  0
  6 12  1  0
  6 13  1  0
  6 14  1  0
  7  8  1  0
  7 15  1  0
  7 16  1  0
  8  9  1  0
  8 17  1  0
  9 10  1  0
 10 11  1  0
 10 18  1  0
 10 19  1  0
 11 20  1  0
 11 21  1  0
 11 22  1  0
M  RAD  1   8   2
M  END
>  <reaction>  (6) 
rmg_rxn_1476

>  <mol_properties>  (6) 
{"0": {"label": "*3", "atom_type": "N3d"}, "1": {"label": "*4", "atom_type": "N3d"}, "3": {"label": "*2", "atom_type": "H0"}, "7": {"label": "*1", "atom_type": "Cs"}, "8": {"label": "*0", "atom_type": "O2s"}}

>  <type>  (6) 
unop_2

>  <geom_source>  (6) 
Heuristics

$$$$

     RDKit          3D

 22 20  0  0  0  0  0  0  0  0999 V2000
    1.0290   -1.5617   -0.7494 N   0  0  0  0  0  0  0  0  0  0  0  0
    0.3314   -2.4112   -0.1236 N   0  0  0  0  0  0  0  0  0  0  0  0
   -0.3600   -2.1107    0.8374 O   0  0  0  0  0  0  0  0  0  0  0  0
    0.8212   -0.3522   -0.7224 H   0  0  0  0  0  0  0  0  0  0  0  0
    1.4782   -1.9411   -1.5769 H   0  0  0  0  0  0  0  0  0  0  0  0
    2.7631    1.3488    0.3980 C   0  0  0  0  0  0  0  0  0  0  0  0
    1.2523    1.4478    0.5682 C   0  0  0  0  0  0  0  0  0  0  0  0
    0.5308    0.9324   -0.6652 C   0  0  0  0  0  3  0  0  0  0  0  0
   -0.8438    1.0700   -0.7272 O   0  0  0  0  0  0  0  0  0  0  0  0
   -1.5945    0.7302    0.4220 C   0  0  0  0  0  0  0  0  0  0  0  0
   -3.0673    0.7378    0.0450 C   0  0  0  0  0  0  0  0  0  0  0  0
    3.2669    1.7414    1.2774 H   0  0  0  0  0  0  0  0  0  0  0  0
    3.0638    0.3123    0.2646 H   0  0  0  0  0  0  0  0  0  0  0  0
    3.0913    1.9178   -0.4690 H   0  0  0  0  0  0  0  0  0  0  0  0
    0.9496    0.8726    1.4459 H   0  0  0  0  0  0  0  0  0  0  0  0
    0.9701    2.4932    0.7401 H   0  0  0  0  0  0  0  0  0  0  0  0
    0.9229    1.3601   -1.5904 H   0  0  0  0  0  0  0  0  0  0  0  0
   -1.2986   -0.2711    0.7802 H   0  0  0  0  0  0  0  0  0  0  0  0
   -1.4058    1.4529    1.2269 H   0  0  0  0  0  0  0  0  0  0  0  0
   -3.2528    0.0138   -0.7435 H   0  0  0  0  0  0  0  0  0  0  0  0
   -3.6679    0.4794    0.9120 H   0  0  0  0  0  0  0  0  0  0  0  0
   -3.3586    1.7221   -0.3126 H   0  0  0  0  0  0  0  0  0  0  0  0
  1  2  1  0
  1  4  1  0
  1  5  1  0
  2  3  2  0
  6  7  1  0
  6 12  1  0
  6 13  1  0
  6 14  1  0
  7  8  1  0
  7 15  1  0
  7 16  1  0
  8  9  1  0
  8 17  1  0
  9 10  1  0
 10 11  1  0
 10 18  1  0
 10 19  1  0
 11 20  1  0
 11 21  1  0
 11 22  1  0
M  RAD  1   8   2
M  END
>  <reaction>  (7) 
rmg_rxn_1476

>  <mol_properties>  (7) 
{"0": {"label": "*3", "atom_type": "N3d"}, "1": {"label": "*4", "atom_type": "N3d"}, "3": {"label": "*2", "atom_type": "H0"}, "7": {"label": "*1", "atom_type": "Cs"}, "8": {"label": "*0", "atom_type": "O2s"}}

>  <type>  (7) 
unop_3

>  <geom_source>  (7) 
Heuristics

$$$$

     RDKit          3D

 22 20  0  0  0  0  0  0  0  0999 V2000
   -0.4080   -1.8671   -0.2386 N   0  0  0  0  0  0  0  0  0  0  0  0
    0.7509   -2.3706   -0.2715 N   0  0  0  0  0  0  0  0  0  0  0  0
    1.6977   -1.8916    0.3318 O   0  0  0  0  0  0  0  0  0  0  0  0
   -0.6493   -0.7001    0.0584 H   0  0  0  0  0  0  0  0  0  0  0  0
   -1.0613   -2.3303   -0.8628 H   0  0  0  0  0  0  0  0  0  0  0  0
   -3.3152    0.1564    0.2427 C   0  0  0  0  0  0  0  0  0  0  0  0
   -2.1571    0.9783   -0.3089 C   0  0  0  0  0  0  0  0  0  0  0  0
   -0.8340    0.5799    0.3135 C   0  0  0  0  0  3  0  0  0  0  0  0
    0.2168    1.2827   -0.2474 O   0  0  0  0  0  0  0  0  0  0  0  0
    1.4442    1.2136    0.4459 C   0  0  0  0  0  0  0  0  0  0  0  0
    2.4630    2.0747   -0.2809 C   0  0  0  0  0  0  0  0  0  0  0  0
   -3.3920    0.2815    1.3203 H   0  0  0  0  0  0  0  0  0  0  0  0
   -4.2514    0.4770   -0.2067 H   0  0  0  0  0  0  0  0  0  0  0  0
   -3.1771   -0.9015    0.0326 H   0  0  0  0  0  0  0  0  0  0  0  0
   -2.0870    0.8599   -1.3919 H   0  0  0  0  0  0  0  0  0  0  0  0
   -2.3386    2.0400   -0.1117 H   0  0  0  0  0  0  0  0  0  0  0  0
   -0.8410    0.6355    1.4097 H   0  0  0  0  0  0  0  0  0  0  0  0
    1.3076    1.5624    1.4804 H   0  0  0  0  0  0  0  0  0  0  0  0
    1.7893    0.1650    0.4869 H   0  0  0  0  0  0  0  0  0  0  0  0
    2.5872    1.7190   -1.2998 H   0  0  0  0  0  0  0  0  0  0  0  0
    2.1291    3.1088   -0.3126 H   0  0  0  0  0  0  0  0  0  0  0  0
    3.4185    2.0221    0.2325 H   0  0  0  0  0  0  0  0  0  0  0  0
  1  2  1  0
  1  4  1  0
  1  5  1  0
  2  3  2  0
  6  7  1  0
  6 12  1  0
  6 13  1  0
  6 14  1  0
  7  8  1  0
  7 15  1  0
  7 16  1  0
  8  9  1  0
  8 17  1  0
  9 10  1  0
 10 11  1  0
 10 18  1  0
 10 19  1  0
 11 20  1  0
 11 21  1  0
 11 22  1  0
M  RAD  1   8   2
M  END
>  <reaction>  (8) 
rmg_rxn_1476

>  <mol_properties>  (8) 
{"0": {"label": "*3", "atom_type": "N3d"}, "1": {"label": "*4", "atom_type": "N3d"}, "3": {"label": "*2", "atom_type": "H0"}, "7": {"label": "*1", "atom_type": "Cs"}, "8": {"label": "*0", "atom_type": "O2s"}}

>  <type>  (8) 
unop_4

>  <geom_source>  (8) 
Heuristics

$$$$

     RDKit          3D

 22 20  0  0  0  0  0  0  0  0999 V2000
   -0.6204   -1.3404    1.5122 N   0  0  0  0  0  0  0  0  0  0  0  0
   -0.6204   -2.5432    0.9674 N   0  0  0  0  0  0  0  0  0  0  0  0
   -0.6204   -2.5432   -0.2371 O   0  0  0  0  0  0  0  0  0  0  0  0
   -0.6204   -0.3578    0.7970 H   0  0  0  0  0  0  0  0  0  0  0  0
   -0.6204   -1.2941    2.5143 H   0  0  0  0  0  0  0  0  0  0  0  0
   -0.4976   -0.4377   -2.2379 C   0  0  0  0  0  0  0  0  0  0  0  0
   -1.3319    0.4060   -1.2832 C   0  0  0  0  0  0  0  0  0  0  0  0
   -0.6204    0.7110    0.0191 C   0  0  0  0  0  3  0  0  0  0  0  0
    0.5257    1.4800   -0.2455 O   0  0  0  0  0  0  0  0  0  0  0  0
    1.2711    1.7817    0.9065 C   0  0  0  0  0  0  0  0  0  0  0  0
    2.4744    2.6057    0.5107 C   0  0  0  0  0  0  0  0  0  0  0  0
   -0.2368   -1.3970   -1.7837 H   0  0  0  0  0  0  0  0  0  0  0  0
   -1.0429   -0.6416   -3.1606 H   0  0  0  0  0  0  0  0  0  0  0  0
    0.4296    0.0739   -2.4956 H   0  0  0  0  0  0  0  0  0  0  0  0
   -1.6054    1.3513   -1.7590 H   0  0  0  0  0  0  0  0  0  0  0  0
   -2.2658   -0.1098   -1.0433 H   0  0  0  0  0  0  0  0  0  0  0  0
   -1.2895    1.2569    0.7003 H   0  0  0  0  0  0  0  0  0  0  0  0
    0.6460    2.3341    1.6238 H   0  0  0  0  0  0  0  0  0  0  0  0
    1.5877    0.8521    1.4020 H   0  0  0  0  0  0  0  0  0  0  0  0
    2.1612    3.5340    0.0318 H   0  0  0  0  0  0  0  0  0  0  0  0
    3.0694    2.8530    1.3912 H   0  0  0  0  0  0  0  0  0  0  0  0
    3.1029    2.0528   -0.1884 H   0  0  0  0  0  0  0  0  0  0  0  0
  1  2  1  0
  1  4  1  0
  1  5  1  0
  2  3  2  0
  6  7  1  0
  6 12  1  0
  6 13  1  0
  6 14  1  0
  7  8  1  0
  7 15  1  0
  7 16  1  0
  8  9  1  0
  8 17  1  0
  9 10  1  0
 10 11  1  0
 10 18  1  0
 10 19  1  0
 11 20  1  0
 11 21  1  0
 11 22  1  0
M  RAD  1   8   2
M  END
>  <reaction>  (9) 
rmg_rxn_1476

>  <mol_properties>  (9) 
{"0": {"label": "*3", "atom_type": "N3d"}, "1": {"label": "*4", "atom_type": "N3d"}, "3": {"label": "*2", "atom_type": "H0"}, "7": {"label": "*1", "atom_type": "Cs"}, "8": {"label": "*0", "atom_type": "O2s"}}

>  <type>  (9) 
unop_5

>  <geom_source>  (9) 
Heuristics

$$$$

     RDKit          3D

 22 20  0  0  0  0  0  0  0  0999 V2000
   -1.0304    1.5610   -0.7489 N   0  0  0  0  0  0  0  0  0  0  0  0
   -0.3333    2.4110   -0.1238 N   0  0  0  0  0  0  0  0  0  0  0  0
    0.3592    2.1116    0.8369 O   0  0  0  0  0  0  0  0  0  0  0  0
   -0.8216    0.3515   -0.7217 H   0  0  0  0  0  0  0  0  0  0  0  0
   -1.4810    1.9397   -1.5760 H   0  0  0  0  0  0  0  0  0  0  0  0
   -2.7622   -1.3502    0.3982 C   0  0  0  0  0  0  0  0  0  0  0  0
   -1.2514   -1.4488    0.5681 C   0  0  0  0  0  0  0  0  0  0  0  0
   -0.5302   -0.9327   -0.6653 C   0  0  0  0  0  3  0  0  0  0  0  0
    0.8446   -1.0696   -0.7272 O   0  0  0  0  0  0  0  0  0  0  0  0
    1.5950   -0.7292    0.4219 C   0  0  0  0  0  0  0  0  0  0  0  0
    3.0679   -0.7364    0.0451 C   0  0  0  0  0  0  0  0  0  0  0  0
   -3.0904   -1.9185   -0.4692 H   0  0  0  0  0  0  0  0  0  0  0  0
   -3.2659   -1.7438    1.2773 H   0  0  0  0  0  0  0  0  0  0  0  0
   -3.0632   -0.3137    0.2658 H   0  0  0  0  0  0  0  0  0  0  0  0
   -0.9487   -0.8741    1.4460 H   0  0  0  0  0  0  0  0  0  0  0  0
   -0.9689   -2.4943    0.7393 H   0  0  0  0  0  0  0  0  0  0  0  0
   -0.9219   -1.3606   -1.5905 H   0  0  0  0  0  0  0  0  0  0  0  0
    1.2988    0.2722    0.7797 H   0  0  0  0  0  0  0  0  0  0  0  0
    1.4065   -1.4516    1.2271 H   0  0  0  0  0  0  0  0  0  0  0  0
    3.3595   -1.7209   -0.3118 H   0  0  0  0  0  0  0  0  0  0  0  0
    3.2533   -0.0128   -0.7439 H   0  0  0  0  0  0  0  0  0  0  0  0
    3.6684   -0.4771    0.9120 H   0  0  0  0  0  0  0  0  0  0  0  0
  1  2  1  0
  1  4  1  0
  1  5  1  0
  2  3  2  0
  6  7  1  0
  6 12  1  0
  6 13  1  0
  6 14  1  0
  7  8  1  0
  7 15  1  0
  7 16  1  0
  8  9  1  0
  8 17  1  0
  9 10  1  0
 10 11  1  0
 10 18  1  0
 10 19  1  0
 11 20  1  0
 11 21  1  0
 11 22  1  0
M  RAD  1   8   2
M  END
>  <reaction>  (10) 
rmg_rxn_1476

>  <mol_properties>  (10) 
{"0": {"label": "*3", "atom_type": "N3d"}, "1": {"label": "*4", "atom_type": "N3d"}, "3": {"label": "*2", "atom_type": "H0"}, "7": {"label": "*1", "atom_type": "Cs"}, "8": {"label": "*0", "atom_type": "O2s"}}

>  <type>  (10) 
unop_6

>  <geom_source>  (10) 
Heuristics

$$$$

     RDKit          3D

 22 20  0  0  0  0  0  0  0  0999 V2000
    0.2781   -1.1589    1.9074 N   0  0  0  0  0  0  0  0  0  0  0  0
    0.2781   -2.3617    1.3626 N   0  0  0  0  0  0  0  0  0  0  0  0
    0.2781   -2.3617    0.1581 O   0  0  0  0  0  0  0  0  0  0  0  0
    0.2781   -0.1763    1.1922 H   0  0  0  0  0  0  0  0  0  0  0  0
    0.2781   -1.1126    2.9095 H   0  0  0  0  0  0  0  0  0  0  0  0
   -1.9422    2.0163    0.8993 C   0  0  0  0  0  0  0  0  0  0  0  0
   -0.4334    2.0379    1.1048 C   0  0  0  0  0  0  0  0  0  0  0  0
    0.2781    0.8924    0.4143 C   0  0  0  0  0  3  0  0  0  0  0  0
    0.0947    1.0000   -0.9749 O   0  0  0  0  0  0  0  0  0  0  0  0
    0.6935   -0.0454   -1.6975 C   0  0  0  0  0  0  0  0  0  0  0  0
    0.4362    0.1664   -3.1714 C   0  0  0  0  0  0  0  0  0  0  0  0
   -2.3751    1.0908    1.2871 H   0  0  0  0  0  0  0  0  0  0  0  0
   -2.4206    2.8508    1.4141 H   0  0  0  0  0  0  0  0  0  0  0  0
   -2.1885    2.0830   -0.1604 H   0  0  0  0  0  0  0  0  0  0  0  0
   -0.0177    2.9786    0.7344 H   0  0  0  0  0  0  0  0  0  0  0  0
   -0.1981    1.9857    2.1714 H   0  0  0  0  0  0  0  0  0  0  0  0
    1.3516    0.9108    0.6535 H   0  0  0  0  0  0  0  0  0  0  0  0
    1.7747   -0.0698   -1.4957 H   0  0  0  0  0  0  0  0  0  0  0  0
    0.2813   -1.0113   -1.3701 H   0  0  0  0  0  0  0  0  0  0  0  0
    0.8566    1.1175   -3.5000 H   0  0  0  0  0  0  0  0  0  0  0  0
    0.8934   -0.6349   -3.7540 H   0  0  0  0  0  0  0  0  0  0  0  0
   -0.6352    0.1752   -3.3749 H   0  0  0  0  0  0  0  0  0  0  0  0
  1  2  1  0
  1  4  1  0
  1  5  1  0
  2  3  2  0
  6  7  1  0
  6 12  1  0
  6 13  1  0
  6 14  1  0
  7  8  1  0
  7 15  1  0
  7 16  1  0
  8  9  1  0
  8 17  1  0
  9 10  1  0
 10 11  1  0
 10 18  1  0
 10 19  1  0
 11 20  1  0
 11 21  1  0
 11 22  1  0
M  RAD  1   8   2
M  END
>  <reaction>  (11) 
rmg_rxn_1476

>  <mol_properties>  (11) 
{"0": {"label": "*3", "atom_type": "N3d"}, "1": {"label": "*4", "atom_type": "N3d"}, "3": {"label": "*2", "atom_type": "H0"}, "7": {"label": "*1", "atom_type": "Cs"}, "8": {"label": "*0", "atom_type": "O2s"}}

>  <type>  (11) 
unop_7

>  <geom_source>  (11) 
Heuristics

$$$$

     RDKit          3D

 22 20  0  0  0  0  0  0  0  0999 V2000
   -0.3039   -1.3064    0.6242 N   0  0  0  0  0  0  0  0  0  0  0  0
   -0.3039   -2.5093    0.0794 N   0  0  0  0  0  0  0  0  0  0  0  0
   -0.3039   -2.5093   -1.1251 O   0  0  0  0  0  0  0  0  0  0  0  0
   -0.3039   -0.3238   -0.0910 H   0  0  0  0  0  0  0  0  0  0  0  0
   -0.3039   -1.2601    1.6263 H   0  0  0  0  0  0  0  0  0  0  0  0
    2.0975   -0.0197   -1.1456 C   0  0  0  0  0  0  0  0  0  0  0  0
    0.9285    0.7465   -1.7501 C   0  0  0  0  0  0  0  0  0  0  0  0
   -0.3039    0.7449   -0.8689 C   0  0  0  0  0  3  0  0  0  0  0  0
   -0.0151    1.4064    0.3369 O   0  0  0  0  0  0  0  0  0  0  0  0
   -1.0953    1.4226    1.2349 C   0  0  0  0  0  0  0  0  0  0  0  0
   -0.6788    2.1528    2.4907 C   0  0  0  0  0  0  0  0  0  0  0  0
    1.8301   -1.0650   -0.9716 H   0  0  0  0  0  0  0  0  0  0  0  0
    2.9637   -0.0018   -1.8087 H   0  0  0  0  0  0  0  0  0  0  0  0
    2.3908    0.4145   -0.1898 H   0  0  0  0  0  0  0  0  0  0  0  0
    1.2176    1.7832   -1.9407 H   0  0  0  0  0  0  0  0  0  0  0  0
    0.6524    0.3120   -2.7149 H   0  0  0  0  0  0  0  0  0  0  0  0
   -1.1391    1.2454   -1.3806 H   0  0  0  0  0  0  0  0  0  0  0  0
   -1.9612    1.9181    0.7714 H   0  0  0  0  0  0  0  0  0  0  0  0
   -1.4007    0.3928    1.4723 H   0  0  0  0  0  0  0  0  0  0  0  0
   -0.3890    3.1781    2.2582 H   0  0  0  0  0  0  0  0  0  0  0  0
   -1.5038    2.1786    3.2043 H   0  0  0  0  0  0  0  0  0  0  0  0
    0.1698    1.6533    2.9595 H   0  0  0  0  0  0  0  0  0  0  0  0
  1  2  1  0
  1  4  1  0
  1  5  1  0
  2  3  2  0
  6  7  1  0
  6 12  1  0
  6 13  1  0
  6 14  1  0
  7  8  1  0
  7 15  1  0
  7 16  1  0
  8  9  1  0
  8 17  1  0
  9 10  1  0
 10 11  1  0
 10 18  1  0
 10 19  1  0
 11 20  1  0
 11 21  1  0
 11 22  1  0
M  RAD  1   8   2
M  END
>  <reaction>  (12) 
rmg_rxn_1476

>  <mol_properties>  (12) 
{"0": {"label": "*3", "atom_type": "N3d"}, "1": {"label": "*4", "atom_type": "N3d"}, "3": {"label": "*2", "atom_type": "H0"}, "7": {"label": "*1", "atom_type": "Cs"}, "8": {"label": "*0", "atom_type": "O2s"}}

>  <type>  (12) 
unop_8

>  <geom_source>  (12) 
Heuristics

$$$$

     RDKit          3D

 22 20  0  0  0  0  0  0  0  0999 V2000
    1.0305   -1.5600   -0.7503 N   0  0  0  0  0  0  0  0  0  0  0  0
    0.3347   -2.4103   -0.1239 N   0  0  0  0  0  0  0  0  0  0  0  0
   -0.3563   -2.1109    0.8379 O   0  0  0  0  0  0  0  0  0  0  0  0
    0.8213   -0.3507   -0.7228 H   0  0  0  0  0  0  0  0  0  0  0  0
    1.4799   -1.9387   -1.5780 H   0  0  0  0  0  0  0  0  0  0  0  0
    2.7613    1.3507    0.3982 C   0  0  0  0  0  0  0  0  0  0  0  0
    1.2504    1.4492    0.5682 C   0  0  0  0  0  0  0  0  0  0  0  0
    0.5294    0.9335   -0.6654 C   0  0  0  0  0  3  0  0  0  0  0  0
   -0.8454    1.0696   -0.7271 O   0  0  0  0  0  0  0  0  0  0  0  0
   -1.5955    0.7284    0.4221 C   0  0  0  0  0  0  0  0  0  0  0  0
   -3.0684    0.7332    0.0452 C   0  0  0  0  0  0  0  0  0  0  0  0
    3.0625    0.3143    0.2653 H   0  0  0  0  0  0  0  0  0  0  0  0
    3.0893    1.9195   -0.4689 H   0  0  0  0  0  0  0  0  0  0  0  0
    3.2650    1.7439    1.2775 H   0  0  0  0  0  0  0  0  0  0  0  0
    0.9479    0.8741    1.4459 H   0  0  0  0  0  0  0  0  0  0  0  0
    0.9678    2.4945    0.7398 H   0  0  0  0  0  0  0  0  0  0  0  0
    0.9209    1.3620   -1.5904 H   0  0  0  0  0  0  0  0  0  0  0  0
   -1.2978   -0.2724    0.7803 H   0  0  0  0  0  0  0  0  0  0  0  0
   -1.4082    1.4515    1.2271 H   0  0  0  0  0  0  0  0  0  0  0  0
   -3.3617    1.7171   -0.3121 H   0  0  0  0  0  0  0  0  0  0  0  0
   -3.2524    0.0090   -0.7435 H   0  0  0  0  0  0  0  0  0  0  0  0
   -3.6685    0.4734    0.9122 H   0  0  0  0  0  0  0  0  0  0  0  0
  1  2  1  0
  1  4  1  0
  1  5  1  0
  2  3  2  0
  6  7  1  0
  6 12  1  0
  6 13  1  0
  6 14  1  0
  7  8  1  0
  7 15  1  0
  7 16  1  0
  8  9  1  0
  8 17  1  0
  9 10  1  0
 10 11  1  0
 10 18  1  0
 10 19  1  0
 11 20  1  0
 11 21  1  0
 11 22  1  0
M  RAD  1   8   2
M  END
>  <reaction>  (13) 
rmg_rxn_1476

>  <mol_properties>  (13) 
{"0": {"label": "*3", "atom_type": "N3d"}, "1": {"label": "*4", "atom_type": "N3d"}, "3": {"label": "*2", "atom_type": "H0"}, "7": {"label": "*1", "atom_type": "Cs"}, "8": {"label": "*0", "atom_type": "O2s"}}

>  <type>  (13) 
unop_9

>  <geom_source>  (13) 
Heuristics

$$$$

     RDKit          3D

 22 20  0  0  0  0  0  0  0  0999 V2000
    0.6760   -1.1185    1.5022 N   0  0  0  0  0  0  0  0  0  0  0  0
    0.6760   -2.3213    0.9574 N   0  0  0  0  0  0  0  0  0  0  0  0
    0.6760   -2.3213   -0.2471 O   0  0  0  0  0  0  0  0  0  0  0  0
    0.6760   -0.1359    0.7870 H   0  0  0  0  0  0  0  0  0  0  0  0
    0.6760   -1.0722    2.5043 H   0  0  0  0  0  0  0  0  0  0  0  0
   -0.5071    2.2699    1.8094 C   0  0  0  0  0  0  0  0  0  0  0  0
    0.6760    2.1906    0.8537 C   0  0  0  0  0  0  0  0  0  0  0  0
    0.6760    0.9329    0.0091 C   0  0  0  0  0  3  0  0  0  0  0  0
   -0.4628    0.9249   -0.8144 O   0  0  0  0  0  0  0  0  0  0  0  0
   -0.5648   -0.2275   -1.6113 C   0  0  0  0  0  0  0  0  0  0  0  0
   -1.8174   -0.1340   -2.4514 C   0  0  0  0  0  0  0  0  0  0  0  0
   -0.5087    1.4217    2.4986 H   0  0  0  0  0  0  0  0  0  0  0  0
   -0.4712    3.1840    2.4037 H   0  0  0  0  0  0  0  0  0  0  0  0
   -1.4485    2.2570    1.2602 H   0  0  0  0  0  0  0  0  0  0  0  0
    0.6785    3.0566    0.1869 H   0  0  0  0  0  0  0  0  0  0  0  0
    1.6148    2.2193    1.4139 H   0  0  0  0  0  0  0  0  0  0  0  0
    1.5854    0.8880   -0.6080 H   0  0  0  0  0  0  0  0  0  0  0  0
    0.3233   -0.3188   -2.2542 H   0  0  0  0  0  0  0  0  0  0  0  0
   -0.5957   -1.1229   -0.9731 H   0  0  0  0  0  0  0  0  0  0  0  0
   -1.7814    0.7460   -3.0946 H   0  0  0  0  0  0  0  0  0  0  0  0
   -1.9176   -1.0199   -3.0806 H   0  0  0  0  0  0  0  0  0  0  0  0
   -2.6997   -0.0591   -1.8149 H   0  0  0  0  0  0  0  0  0  0  0  0
  1  2  1  0
  1  4  1  0
  1  5  1  0
  2  3  2  0
  6  7  1  0
  6 12  1  0
  6 13  1  0
  6 14  1  0
  7  8  1  0
  7 15  1  0
  7 16  1  0
  8  9  1  0
  8 17  1  0
  9 10  1  0
 10 11  1  0
 10 18  1  0
 10 19  1  0
 11 20  1  0
 11 21  1  0
 11 22  1  0
M  RAD  1   8   2
M  END
>  <reaction>  (14) 
rmg_rxn_1476

>  <mol_properties>  (14) 
{"0": {"label": "*3", "atom_type": "N3d"}, "1": {"label": "*4", "atom_type": "N3d"}, "3": {"label": "*2", "atom_type": "H0"}, "7": {"label": "*1", "atom_type": "Cs"}, "8": {"label": "*0", "atom_type": "O2s"}}

>  <type>  (14) 
unop_10

>  <geom_source>  (14) 
Heuristics

$$$$

     RDKit          3D

 22 20  0  0  0  0  0  0  0  0999 V2000
    1.0303   -1.5610   -0.7488 N   0  0  0  0  0  0  0  0  0  0  0  0
    0.3329   -2.4111   -0.1239 N   0  0  0  0  0  0  0  0  0  0  0  0
   -0.3594   -2.1118    0.8369 O   0  0  0  0  0  0  0  0  0  0  0  0
    0.8217   -0.3516   -0.7215 H   0  0  0  0  0  0  0  0  0  0  0  0
    1.4807   -1.9397   -1.5760 H   0  0  0  0  0  0  0  0  0  0  0  0
    2.7624    1.3500    0.3982 C   0  0  0  0  0  0  0  0  0  0  0  0
    1.2516    1.4486    0.5681 C   0  0  0  0  0  0  0  0  0  0  0  0
    0.5303    0.9327   -0.6652 C   0  0  0  0  0  3  0  0  0  0  0  0
   -0.8444    1.0697   -0.7272 O   0  0  0  0  0  0  0  0  0  0  0  0
   -1.5949    0.7292    0.4219 C   0  0  0  0  0  0  0  0  0  0  0  0
   -3.0678    0.7370    0.0452 C   0  0  0  0  0  0  0  0  0  0  0  0
    3.0904    1.9185   -0.4692 H   0  0  0  0  0  0  0  0  0  0  0  0
    3.2662    1.7435    1.2773 H   0  0  0  0  0  0  0  0  0  0  0  0
    3.0634    0.3135    0.2656 H   0  0  0  0  0  0  0  0  0  0  0  0
    0.9490    0.8739    1.4461 H   0  0  0  0  0  0  0  0  0  0  0  0
    0.9691    2.4941    0.7394 H   0  0  0  0  0  0  0  0  0  0  0  0
    0.9222    1.3605   -1.5905 H   0  0  0  0  0  0  0  0  0  0  0  0
   -1.2989   -0.2724    0.7794 H   0  0  0  0  0  0  0  0  0  0  0  0
   -1.4062    1.4514    1.2273 H   0  0  0  0  0  0  0  0  0  0  0  0
   -3.6683    0.4773    0.9119 H   0  0  0  0  0  0  0  0  0  0  0  0
   -3.3595    1.7217   -0.3111 H   0  0  0  0  0  0  0  0  0  0  0  0
   -3.2532    0.0140   -0.7443 H   0  0  0  0  0  0  0  0  0  0  0  0
  1  2  1  0
  1  4  1  0
  1  5  1  0
  2  3  2  0
  6  7  1  0
  6 12  1  0
  6 13  1  0
  6 14  1  0
  7  8  1  0
  7 15  1  0
  7 16  1  0
  8  9  1  0
  8 17  1  0
  9 10  1  0
 10 11  1  0
 10 18  1  0
 10 19  1  0
 11 20  1  0
 11 21  1  0
 11 22  1  0
M  RAD  1   8   2
M  END
>  <reaction>  (15) 
rmg_rxn_1476

>  <mol_properties>  (15) 
{"0": {"label": "*3", "atom_type": "N3d"}, "1": {"label": "*4", "atom_type": "N3d"}, "3": {"label": "*2", "atom_type": "H0"}, "7": {"label": "*1", "atom_type": "Cs"}, "8": {"label": "*0", "atom_type": "O2s"}}

>  <type>  (15) 
unop_11

>  <geom_source>  (15) 
Heuristics

$$$$

     RDKit          3D

 22 20  0  0  0  0  0  0  0  0999 V2000
    0.0233   -1.2641    0.5413 N   0  0  0  0  0  0  0  0  0  0  0  0
    0.0233   -2.4669   -0.0034 N   0  0  0  0  0  0  0  0  0  0  0  0
    0.0233   -2.4669   -1.2079 O   0  0  0  0  0  0  0  0  0  0  0  0
    0.0233   -0.2815   -0.1739 H   0  0  0  0  0  0  0  0  0  0  0  0
    0.0233   -1.2178    1.5434 H   0  0  0  0  0  0  0  0  0  0  0  0
    2.4634    0.6327   -0.2808 C   0  0  0  0  0  0  0  0  0  0  0  0
    1.4463    1.2075   -1.2577 C   0  0  0  0  0  0  0  0  0  0  0  0
    0.0233    0.7873   -0.9518 C   0  0  0  0  0  3  0  0  0  0  0  0
   -0.3505    1.2899    0.3062 O   0  0  0  0  0  0  0  0  0  0  0  0
   -1.6497    0.9178    0.6901 C   0  0  0  0  0  0  0  0  0  0  0  0
   -1.9475    1.5068    2.0495 C   0  0  0  0  0  0  0  0  0  0  0  0
    2.4426   -0.4599   -0.2947 H   0  0  0  0  0  0  0  0  0  0  0  0
    3.4754    0.9514   -0.5347 H   0  0  0  0  0  0  0  0  0  0  0  0
    2.2484    0.9588    0.7368 H   0  0  0  0  0  0  0  0  0  0  0  0
    1.4949    2.2995   -1.2507 H   0  0  0  0  0  0  0  0  0  0  0  0
    1.6800    0.8864   -2.2765 H   0  0  0  0  0  0  0  0  0  0  0  0
   -0.6608    1.1660   -1.7254 H   0  0  0  0  0  0  0  0  0  0  0  0
   -2.3777    1.2771   -0.0523 H   0  0  0  0  0  0  0  0  0  0  0  0
   -1.7320   -0.1787    0.7197 H   0  0  0  0  0  0  0  0  0  0  0  0
   -1.8796    2.5947    2.0178 H   0  0  0  0  0  0  0  0  0  0  0  0
   -2.9537    1.2309    2.3689 H   0  0  0  0  0  0  0  0  0  0  0  0
   -1.2358    1.1390    2.7895 H   0  0  0  0  0  0  0  0  0  0  0  0
  1  2  1  0
  1  4  1  0
  1  5  1  0
  2  3  2  0
  6  7  1  0
  6 12  1  0
  6 13  1  0
  6 14  1  0
  7  8  1  0
  7 15  1  0
  7 16  1  0
  8  9  1  0
  8 17  1  0
  9 10  1  0
 10 11  1  0
 10 18  1  0
 10 19  1  0
 11 20  1  0
 11 21  1  0
 11 22  1  0
M  RAD  1   8   2
M  END
>  <reaction>  (16) 
rmg_rxn_1476

>  <mol_properties>  (16) 
{"0": {"label": "*3", "atom_type": "N3d"}, "1": {"label": "*4", "atom_type": "N3d"}, "3": {"label": "*2", "atom_type": "H0"}, "7": {"label": "*1", "atom_type": "Cs"}, "8": {"label": "*0", "atom_type": "O2s"}}

>  <type>  (16) 
unop_12

>  <geom_source>  (16) 
Heuristics

$$$$

     RDKit          3D

 22 20  0  0  0  0  0  0  0  0999 V2000
   -1.0276    1.5632   -0.7484 N   0  0  0  0  0  0  0  0  0  0  0  0
   -0.3285    2.4119   -0.1236 N   0  0  0  0  0  0  0  0  0  0  0  0
    0.3639    2.1113    0.8367 O   0  0  0  0  0  0  0  0  0  0  0  0
   -0.8211    0.3534   -0.7216 H   0  0  0  0  0  0  0  0  0  0  0  0
   -1.4778    1.9428   -1.5752 H   0  0  0  0  0  0  0  0  0  0  0  0
   -2.7648   -1.3466    0.3980 C   0  0  0  0  0  0  0  0  0  0  0  0
   -1.2541   -1.4467    0.5681 C   0  0  0  0  0  0  0  0  0  0  0  0
   -0.5322   -0.9315   -0.6651 C   0  0  0  0  0  3  0  0  0  0  0  0
    0.8423   -1.0708   -0.7273 O   0  0  0  0  0  0  0  0  0  0  0  0
    1.5935   -0.7319    0.4218 C   0  0  0  0  0  0  0  0  0  0  0  0
    3.0663   -0.7423    0.0449 C   0  0  0  0  0  0  0  0  0  0  0  0
   -3.0648   -0.3098    0.2651 H   0  0  0  0  0  0  0  0  0  0  0  0
   -3.0933   -1.9148   -0.4694 H   0  0  0  0  0  0  0  0  0  0  0  0
   -3.2692   -1.7394    1.2770 H   0  0  0  0  0  0  0  0  0  0  0  0
   -0.9511   -0.8722    1.4461 H   0  0  0  0  0  0  0  0  0  0  0  0
   -0.9727   -2.4924    0.7395 H   0  0  0  0  0  0  0  0  0  0  0  0
   -0.9248   -1.3584   -1.5904 H   0  0  0  0  0  0  0  0  0  0  0  0
    1.2992    0.2700    0.7797 H   0  0  0  0  0  0  0  0  0  0  0  0
    1.4036   -1.4541    1.2270 H   0  0  0  0  0  0  0  0  0  0  0  0
    3.6673   -0.4843    0.9118 H   0  0  0  0  0  0  0  0  0  0  0  0
    3.3561   -1.7272   -0.3121 H   0  0  0  0  0  0  0  0  0  0  0  0
    3.2529   -0.0189   -0.7440 H   0  0  0  0  0  0  0  0  0  0  0  0
  1  2  1  0
  1  4  1  0
  1  5  1  0
  2  3  2  0
  6  7  1  0
  6 12  1  0
  6 13  1  0
  6 14  1  0
  7  8  1  0
  7 15  1  0
  7 16  1  0
  8  9  1  0
  8 17  1  0
  9 10  1  0
 10 11  1  0
 10 18  1  0
 10 19  1  0
 11 20  1  0
 11 21  1  0
 11 22  1  0
M  RAD  1   8   2
M  END
>  <reaction>  (17) 
rmg_rxn_1476

>  <mol_properties>  (17) 
{"0": {"label": "*3", "atom_type": "N3d"}, "1": {"label": "*4", "atom_type": "N3d"}, "3": {"label": "*2", "atom_type": "H0"}, "7": {"label": "*1", "atom_type": "Cs"}, "8": {"label": "*0", "atom_type": "O2s"}}

>  <type>  (17) 
unop_13

>  <geom_source>  (17) 
Heuristics

$$$$

     RDKit          3D

 22 20  0  0  0  0  0  0  0  0999 V2000
    0.3573   -1.2026    0.6232 N   0  0  0  0  0  0  0  0  0  0  0  0
    0.3573   -2.4055    0.0785 N   0  0  0  0  0  0  0  0  0  0  0  0
    0.3573   -2.4055   -1.1260 O   0  0  0  0  0  0  0  0  0  0  0  0
    0.3573   -0.2200   -0.0920 H   0  0  0  0  0  0  0  0  0  0  0  0
    0.3573   -1.1563    1.6253 H   0  0  0  0  0  0  0  0  0  0  0  0
    2.2466    1.3742    0.7372 C   0  0  0  0  0  0  0  0  0  0  0  0
    1.5897    1.6877   -0.6005 C   0  0  0  0  0  0  0  0  0  0  0  0
    0.3573    0.8487   -0.8699 C   0  0  0  0  0  3  0  0  0  0  0  0
   -0.6218    1.1356    0.0966 O   0  0  0  0  0  0  0  0  0  0  0  0
   -1.7924    0.3739   -0.0545 C   0  0  0  0  0  0  0  0  0  0  0  0
   -2.7719    0.7587    1.0300 C   0  0  0  0  0  0  0  0  0  0  0  0
    2.5562    0.3271    0.7833 H   0  0  0  0  0  0  0  0  0  0  0  0
    3.1319    1.9922    0.8943 H   0  0  0  0  0  0  0  0  0  0  0  0
    1.5541    1.5552    1.5592 H   0  0  0  0  0  0  0  0  0  0  0  0
    1.3071    2.7428   -0.6417 H   0  0  0  0  0  0  0  0  0  0  0  0
    2.2974    1.5171   -1.4165 H   0  0  0  0  0  0  0  0  0  0  0  0
   -0.0352    1.0597   -1.8755 H   0  0  0  0  0  0  0  0  0  0  0  0
   -2.2299    0.5513   -1.0482 H   0  0  0  0  0  0  0  0  0  0  0  0
   -1.5526   -0.6979    0.0067 H   0  0  0  0  0  0  0  0  0  0  0  0
   -3.0210    1.8182    0.9615 H   0  0  0  0  0  0  0  0  0  0  0  0
   -3.6912    0.1790    0.9322 H   0  0  0  0  0  0  0  0  0  0  0  0
   -2.3452    0.5685    2.0154 H   0  0  0  0  0  0  0  0  0  0  0  0
  1  2  1  0
  1  4  1  0
  1  5  1  0
  2  3  2  0
  6  7  1  0
  6 12  1  0
  6 13  1  0
  6 14  1  0
  7  8  1  0
  7 15  1  0
  7 16  1  0
  8  9  1  0
  8 17  1  0
  9 10  1  0
 10 11  1  0
 10 18  1  0
 10 19  1  0
 11 20  1  0
 11 21  1  0
 11 22  1  0
M  RAD  1   8   2
M  END
>  <reaction>  (18) 
rmg_rxn_1476

>  <mol_properties>  (18) 
{"0": {"label": "*3", "atom_type": "N3d"}, "1": {"label": "*4", "atom_type": "N3d"}, "3": {"label": "*2", "atom_type": "H0"}, "7": {"label": "*1", "atom_type": "Cs"}, "8": {"label": "*0", "atom_type": "O2s"}}

>  <type>  (18) 
unop_14

>  <geom_source>  (18) 
Heuristics

$$$$

     RDKit          3D

 22 20  0  0  0  0  0  0  0  0999 V2000
    1.0295   -1.5610   -0.7499 N   0  0  0  0  0  0  0  0  0  0  0  0
    0.3328   -2.4108   -0.1238 N   0  0  0  0  0  0  0  0  0  0  0  0
   -0.3584   -2.1109    0.8377 O   0  0  0  0  0  0  0  0  0  0  0  0
    0.8213   -0.3515   -0.7225 H   0  0  0  0  0  0  0  0  0  0  0  0
    1.4789   -1.9400   -1.5774 H   0  0  0  0  0  0  0  0  0  0  0  0
    2.7624    1.3495    0.3981 C   0  0  0  0  0  0  0  0  0  0  0  0
    1.2515    1.4483    0.5682 C   0  0  0  0  0  0  0  0  0  0  0  0
    0.5303    0.9328   -0.6653 C   0  0  0  0  0  3  0  0  0  0  0  0
   -0.8445    1.0699   -0.7272 O   0  0  0  0  0  0  0  0  0  0  0  0
   -1.5949    0.7295    0.4220 C   0  0  0  0  0  0  0  0  0  0  0  0
   -3.0677    0.7359    0.0451 C   0  0  0  0  0  0  0  0  0  0  0  0
    3.2662    1.7424    1.2774 H   0  0  0  0  0  0  0  0  0  0  0  0
    3.0633    0.3131    0.2649 H   0  0  0  0  0  0  0  0  0  0  0  0
    3.0905    1.9184   -0.4690 H   0  0  0  0  0  0  0  0  0  0  0  0
    0.9489    0.8732    1.4460 H   0  0  0  0  0  0  0  0  0  0  0  0
    0.9692    2.4937    0.7399 H   0  0  0  0  0  0  0  0  0  0  0  0
    0.9221    1.3609   -1.5904 H   0  0  0  0  0  0  0  0  0  0  0  0
   -1.2982   -0.2716    0.7801 H   0  0  0  0  0  0  0  0  0  0  0  0
   -1.4068    1.4523    1.2270 H   0  0  0  0  0  0  0  0  0  0  0  0
   -3.6681    0.4768    0.9121 H   0  0  0  0  0  0  0  0  0  0  0  0
   -3.3600    1.7201   -0.3122 H   0  0  0  0  0  0  0  0  0  0  0  0
   -3.2526    0.0119   -0.7436 H   0  0  0  0  0  0  0  0  0  0  0  0
  1  2  1  0
  1  4  1  0
  1  5  1  0
  2  3  2  0
  6  7  1  0
  6 12  1  0
  6 13  1  0
  6 14  1  0
  7  8  1  0
  7 15  1  0
  7 16  1  0
  8  9  1  0
  8 17  1  0
  9 10  1  0
 10 11  1  0
 10 18  1  0
 10 19  1  0
 11 20  1  0
 11 21  1  0
 11 22  1  0
M  RAD  1   8   2
M  END
>  <reaction>  (19) 
rmg_rxn_1476

>  <mol_properties>  (19) 
{"0": {"label": "*3", "atom_type": "N3d"}, "1": {"label": "*4", "atom_type": "N3d"}, "3": {"label": "*2", "atom_type": "H0"}, "7": {"label": "*1", "atom_type": "Cs"}, "8": {"label": "*0", "atom_type": "O2s"}}

>  <type>  (19) 
unop_15

>  <geom_source>  (19) 
Heuristics

$$$$

     RDKit          3D

 22 20  0  0  0  0  0  0  0  0999 V2000
   -0.3142   -1.2885    1.8615 N   0  0  0  0  0  0  0  0  0  0  0  0
   -0.3142   -2.4913    1.3167 N   0  0  0  0  0  0  0  0  0  0  0  0
   -0.3142   -2.4913    0.1122 O   0  0  0  0  0  0  0  0  0  0  0  0
   -0.3142   -0.3059    1.1463 H   0  0  0  0  0  0  0  0  0  0  0  0
   -0.3142   -1.2422    2.8636 H   0  0  0  0  0  0  0  0  0  0  0  0
   -2.2451    0.6510   -1.2710 C   0  0  0  0  0  0  0  0  0  0  0  0
   -1.7373    1.1831    0.0625 C   0  0  0  0  0  0  0  0  0  0  0  0
   -0.3142    0.7629    0.3684 C   0  0  0  0  0  3  0  0  0  0  0  0
    0.5497    1.3066   -0.5975 O   0  0  0  0  0  0  0  0  0  0  0  0
    1.8927    0.9382   -0.4127 C   0  0  0  0  0  0  0  0  0  0  0  0
    2.7297    1.5723   -1.4994 C   0  0  0  0  0  0  0  0  0  0  0  0
   -2.2237   -0.4416   -1.2881 H   0  0  0  0  0  0  0  0  0  0  0  0
   -3.2726    0.9684   -1.4548 H   0  0  0  0  0  0  0  0  0  0  0  0
   -1.6250    1.0111   -2.0918 H   0  0  0  0  0  0  0  0  0  0  0  0
   -1.7870    2.2750    0.0742 H   0  0  0  0  0  0  0  0  0  0  0  0
   -2.3751    0.8282    0.8768 H   0  0  0  0  0  0  0  0  0  0  0  0
   -0.0216    1.1088    1.3706 H   0  0  0  0  0  0  0  0  0  0  0  0
    2.2385    1.2654    0.5791 H   0  0  0  0  0  0  0  0  0  0  0  0
    1.9884   -0.1572   -0.4436 H   0  0  0  0  0  0  0  0  0  0  0  0
    2.6463    2.6590   -1.4609 H   0  0  0  0  0  0  0  0  0  0  0  0
    3.7791    1.3001   -1.3758 H   0  0  0  0  0  0  0  0  0  0  0  0
    2.3977    1.2365   -2.4825 H   0  0  0  0  0  0  0  0  0  0  0  0
  1  2  1  0
  1  4  1  0
  1  5  1  0
  2  3  2  0
  6  7  1  0
  6 12  1  0
  6 13  1  0
  6 14  1  0
  7  8  1  0
  7 15  1  0
  7 16  1  0
  8  9  1  0
  8 17  1  0
  9 10  1  0
 10 11  1  0
 10 18  1  0
 10 19  1  0
 11 20  1  0
 11 21  1  0
 11 22  1  0
M  RAD  1   8   2
M  END
>  <reaction>  (20) 
rmg_rxn_1476

>  <mol_properties>  (20) 
{"0": {"label": "*3", "atom_type": "N3d"}, "1": {"label": "*4", "atom_type": "N3d"}, "3": {"label": "*2", "atom_type": "H0"}, "7": {"label": "*1", "atom_type": "Cs"}, "8": {"label": "*0", "atom_type": "O2s"}}

>  <type>  (20) 
unop_16

>  <geom_source>  (20) 
Heuristics

$$$$

     RDKit          3D

 22 20  0  0  0  0  0  0  0  0999 V2000
   -1.0294   -1.5608    0.7502 N   0  0  0  0  0  0  0  0  0  0  0  0
   -0.3329   -2.4105    0.1239 N   0  0  0  0  0  0  0  0  0  0  0  0
    0.3578   -2.1107   -0.8379 O   0  0  0  0  0  0  0  0  0  0  0  0
   -0.8212   -0.3513    0.7226 H   0  0  0  0  0  0  0  0  0  0  0  0
   -1.4783   -1.9398    1.5780 H   0  0  0  0  0  0  0  0  0  0  0  0
   -2.7623    1.3493   -0.3982 C   0  0  0  0  0  0  0  0  0  0  0  0
   -1.2515    1.4484   -0.5681 C   0  0  0  0  0  0  0  0  0  0  0  0
   -0.5301    0.9330    0.6653 C   0  0  0  0  0  3  0  0  0  0  0  0
    0.8447    1.0700    0.7271 O   0  0  0  0  0  0  0  0  0  0  0  0
    1.5950    0.7295   -0.4221 C   0  0  0  0  0  0  0  0  0  0  0  0
    3.0678    0.7352   -0.0452 C   0  0  0  0  0  0  0  0  0  0  0  0
   -3.0905    1.9180    0.4690 H   0  0  0  0  0  0  0  0  0  0  0  0
   -3.2662    1.7422   -1.2774 H   0  0  0  0  0  0  0  0  0  0  0  0
   -3.0630    0.3128   -0.2651 H   0  0  0  0  0  0  0  0  0  0  0  0
   -0.9487    0.8734   -1.4459 H   0  0  0  0  0  0  0  0  0  0  0  0
   -0.9693    2.4938   -0.7398 H   0  0  0  0  0  0  0  0  0  0  0  0
   -0.9219    1.3613    1.5904 H   0  0  0  0  0  0  0  0  0  0  0  0
    1.2979   -0.2714   -0.7805 H   0  0  0  0  0  0  0  0  0  0  0  0
    1.4072    1.4525   -1.2270 H   0  0  0  0  0  0  0  0  0  0  0  0
    3.2523    0.0110    0.7434 H   0  0  0  0  0  0  0  0  0  0  0  0
    3.6682    0.4759   -0.9122 H   0  0  0  0  0  0  0  0  0  0  0  0
    3.3605    1.7191    0.3124 H   0  0  0  0  0  0  0  0  0  0  0  0
  1  2  1  0
  1  4  1  0
  1  5  1  0
  2  3  2  0
  6  7  1  0
  6 12  1  0
  6 13  1  0
  6 14  1  0
  7  8  1  0
  7 15  1  0
  7 16  1  0
  8  9  1  0
  8 17  1  0
  9 10  1  0
 10 11  1  0
 10 18  1  0
 10 19  1  0
 11 20  1  0
 11 21  1  0
 11 22  1  0
M  RAD  1   8   2
M  END
>  <reaction>  (21) 
rmg_rxn_1476

>  <mol_properties>  (21) 
{"0": {"label": "*3", "atom_type": "N3d"}, "1": {"label": "*4", "atom_type": "N3d"}, "3": {"label": "*2", "atom_type": "H0"}, "7": {"label": "*1", "atom_type": "Cs"}, "8": {"label": "*0", "atom_type": "O2s"}}

>  <type>  (21) 
unop_17

>  <geom_source>  (21) 
Heuristics

$$$$

     RDKit          3D

 22 20  0  0  0  0  0  0  0  0999 V2000
   -0.5649   -1.3284    0.8618 N   0  0  0  0  0  0  0  0  0  0  0  0
   -0.5649   -2.5312    0.3170 N   0  0  0  0  0  0  0  0  0  0  0  0
   -0.5649   -2.5312   -0.8875 O   0  0  0  0  0  0  0  0  0  0  0  0
   -0.5649   -0.3458    0.1465 H   0  0  0  0  0  0  0  0  0  0  0  0
   -0.5649   -1.2821    1.8639 H   0  0  0  0  0  0  0  0  0  0  0  0
    1.3867   -0.4468   -1.7500 C   0  0  0  0  0  0  0  0  0  0  0  0
    0.1466    0.4180   -1.9336 C   0  0  0  0  0  0  0  0  0  0  0  0
   -0.5649    0.7230   -0.6313 C   0  0  0  0  0  3  0  0  0  0  0  0
    0.2857    1.4718    0.1998 O   0  0  0  0  0  0  0  0  0  0  0  0
   -0.2809    1.7717    1.4498 C   0  0  0  0  0  0  0  0  0  0  0  0
    0.7119    2.5733    2.2592 C   0  0  0  0  0  0  0  0  0  0  0  0
    1.1287   -1.4060   -1.2943 H   0  0  0  0  0  0  0  0  0  0  0  0
    1.8689   -0.6500   -2.7073 H   0  0  0  0  0  0  0  0  0  0  0  0
    2.1100    0.0482   -1.1020 H   0  0  0  0  0  0  0  0  0  0  0  0
    0.4158    1.3633   -2.4118 H   0  0  0  0  0  0  0  0  0  0  0  0
   -0.5653   -0.0811   -2.5968 H   0  0  0  0  0  0  0  0  0  0  0  0
   -1.4903    1.2851   -0.8250 H   0  0  0  0  0  0  0  0  0  0  0  0
   -1.2130    2.3398    1.3127 H   0  0  0  0  0  0  0  0  0  0  0  0
   -0.5433    0.8415    1.9751 H   0  0  0  0  0  0  0  0  0  0  0  0
    0.9622    3.5023    1.7456 H   0  0  0  0  0  0  0  0  0  0  0  0
    0.2927    2.8189    3.2362 H   0  0  0  0  0  0  0  0  0  0  0  0
    1.6305    2.0048    2.4090 H   0  0  0  0  0  0  0  0  0  0  0  0
  1  2  1  0
  1  4  1  0
  1  5  1  0
  2  3  2  0
  6  7  1  0
  6 12  1  0
  6 13  1  0
  6 14  1  0
  7  8  1  0
  7 15  1  0
  7 16  1  0
  8  9  1  0
  8 17  1  0
  9 10  1  0
 10 11  1  0
 10 18  1  0
 10 19  1  0
 11 20  1  0
 11 21  1  0
 11 22  1  0
M  RAD  1   8   2
M  END
>  <reaction>  (22) 
rmg_rxn_1476

>  <mol_properties>  (22) 
{"0": {"label": "*3", "atom_type": "N3d"}, "1": {"label": "*4", "atom_type": "N3d"}, "3": {"label": "*2", "atom_type": "H0"}, "7": {"label": "*1", "atom_type": "Cs"}, "8": {"label": "*0", "atom_type": "O2s"}}

>  <type>  (22) 
unop_18

>  <geom_source>  (22) 
Heuristics

$$$$

     RDKit          3D

 22 20  0  0  0  0  0  0  0  0999 V2000
   -0.4824   -1.3268    1.7239 N   0  0  0  0  0  0  0  0  0  0  0  0
   -0.4824   -2.5296    1.1792 N   0  0  0  0  0  0  0  0  0  0  0  0
   -0.4824   -2.5296   -0.0253 O   0  0  0  0  0  0  0  0  0  0  0  0
   -0.4824   -0.3441    1.0087 H   0  0  0  0  0  0  0  0  0  0  0  0
   -0.4824   -1.2804    2.7260 H   0  0  0  0  0  0  0  0  0  0  0  0
   -1.5077   -0.0045   -1.9704 C   0  0  0  0  0  0  0  0  0  0  0  0
   -1.7148    0.7262   -0.6504 C   0  0  0  0  0  0  0  0  0  0  0  0
   -0.4824    0.7246    0.2308 C   0  0  0  0  0  3  0  0  0  0  0  0
    0.5534    1.4203   -0.4159 O   0  0  0  0  0  0  0  0  0  0  0  0
    1.7522    1.4396    0.3163 C   0  0  0  0  0  0  0  0  0  0  0  0
    2.7926    2.2074   -0.4656 C   0  0  0  0  0  0  0  0  0  0  0  0
   -1.2384   -1.0497   -1.7992 H   0  0  0  0  0  0  0  0  0  0  0  0
   -2.4157    0.0123   -2.5751 H   0  0  0  0  0  0  0  0  0  0  0  0
   -0.7060    0.4580   -2.5460 H   0  0  0  0  0  0  0  0  0  0  0  0
   -2.0068    1.7628   -0.8370 H   0  0  0  0  0  0  0  0  0  0  0  0
   -2.5306    0.2634   -0.0881 H   0  0  0  0  0  0  0  0  0  0  0  0
   -0.7050    1.1978    1.1985 H   0  0  0  0  0  0  0  0  0  0  0  0
    1.5851    1.9084    1.2974 H   0  0  0  0  0  0  0  0  0  0  0  0
    2.0935    0.4107    0.5033 H   0  0  0  0  0  0  0  0  0  0  0  0
    2.4610    3.2316   -0.6396 H   0  0  0  0  0  0  0  0  0  0  0  0
    3.7342    2.2362    0.0849 H   0  0  0  0  0  0  0  0  0  0  0  0
    2.9704    1.7344   -1.4321 H   0  0  0  0  0  0  0  0  0  0  0  0
  1  2  1  0
  1  4  1  0
  1  5  1  0
  2  3  2  0
  6  7  1  0
  6 12  1  0
  6 13  1  0
  6 14  1  0
  7  8  1  0
  7 15  1  0
  7 16  1  0
  8  9  1  0
  8 17  1  0
  9 10  1  0
 10 11  1  0
 10 18  1  0
 10 19  1  0
 11 20  1  0
 11 21  1  0
 11 22  1  0
M  RAD  1   8   2
M  END
>  <reaction>  (23) 
rmg_rxn_1476

>  <mol_properties>  (23) 
{"0": {"label": "*3", "atom_type": "N3d"}, "1": {"label": "*4", "atom_type": "N3d"}, "3": {"label": "*2", "atom_type": "H0"}, "7": {"label": "*1", "atom_type": "Cs"}, "8": {"label": "*0", "atom_type": "O2s"}}

>  <type>  (23) 
unop_19

>  <geom_source>  (23) 
Heuristics

$$$$

     RDKit          3D

 22 20  0  0  0  0  0  0  0  0999 V2000
    0.6482   -1.1407    0.9227 N   0  0  0  0  0  0  0  0  0  0  0  0
    0.6482   -2.3435    0.3779 N   0  0  0  0  0  0  0  0  0  0  0  0
    0.6482   -2.3435   -0.8266 O   0  0  0  0  0  0  0  0  0  0  0  0
    0.6482   -0.1581    0.2075 H   0  0  0  0  0  0  0  0  0  0  0  0
    0.6482   -1.0944    1.9248 H   0  0  0  0  0  0  0  0  0  0  0  0
    1.2474    2.0027    1.6379 C   0  0  0  0  0  0  0  0  0  0  0  0
    1.3598    2.0561    0.1201 C   0  0  0  0  0  0  0  0  0  0  0  0
    0.6482    0.9106   -0.5704 C   0  0  0  0  0  3  0  0  0  0  0  0
   -0.7289    0.9876   -0.3008 O   0  0  0  0  0  0  0  0  0  0  0  0
   -1.4674   -0.0606   -0.8749 C   0  0  0  0  0  0  0  0  0  0  0  0
   -2.9264    0.1175   -0.5243 C   0  0  0  0  0  0  0  0  0  0  0  0
    1.6780    1.0771    2.0281 H   0  0  0  0  0  0  0  0  0  0  0  0
    1.7750    2.8382    2.1004 H   0  0  0  0  0  0  0  0  0  0  0  0
    0.2037    2.0440    1.9495 H   0  0  0  0  0  0  0  0  0  0  0  0
    0.9474    2.9968   -0.2538 H   0  0  0  0  0  0  0  0  0  0  0  0
    2.4108    2.0292   -0.1806 H   0  0  0  0  0  0  0  0  0  0  0  0
    0.8209    0.9535   -1.6559 H   0  0  0  0  0  0  0  0  0  0  0  0
   -1.3316   -0.0611   -1.9666 H   0  0  0  0  0  0  0  0  0  0  0  0
   -1.0976   -1.0273   -0.5024 H   0  0  0  0  0  0  0  0  0  0  0  0
   -3.2975    1.0696   -0.9052 H   0  0  0  0  0  0  0  0  0  0  0  0
   -3.5210   -0.6865   -0.9609 H   0  0  0  0  0  0  0  0  0  0  0  0
   -3.0641    0.1025    0.5575 H   0  0  0  0  0  0  0  0  0  0  0  0
  1  2  1  0
  1  4  1  0
  1  5  1  0
  2  3  2  0
  6  7  1  0
  6 12  1  0
  6 13  1  0
  6 14  1  0
  7  8  1  0
  7 15  1  0
  7 16  1  0
  8  9  1  0
  8 17  1  0
  9 10  1  0
 10 11  1  0
 10 18  1  0
 10 19  1  0
 11 20  1  0
 11 21  1  0
 11 22  1  0
M  RAD  1   8   2
M  END
>  <reaction>  (24) 
rmg_rxn_1476

>  <mol_properties>  (24) 
{"0": {"label": "*3", "atom_type": "N3d"}, "1": {"label": "*4", "atom_type": "N3d"}, "3": {"label": "*2", "atom_type": "H0"}, "7": {"label": "*1", "atom_type": "Cs"}, "8": {"label": "*0", "atom_type": "O2s"}}

>  <type>  (24) 
unop_20

>  <geom_source>  (24) 
Heuristics

$$$$

     RDKit          3D

 22 20  0  0  0  0  0  0  0  0999 V2000
   -0.6760   -1.3384    1.2001 N   0  0  0  0  0  0  0  0  0  0  0  0
   -0.6760   -2.5412    0.6553 N   0  0  0  0  0  0  0  0  0  0  0  0
   -0.6760   -2.5412   -0.5492 O   0  0  0  0  0  0  0  0  0  0  0  0
   -0.6760   -0.3558    0.4849 H   0  0  0  0  0  0  0  0  0  0  0  0
   -0.6760   -1.2920    2.2022 H   0  0  0  0  0  0  0  0  0  0  0  0
    0.5071   -0.5892   -2.1187 C   0  0  0  0  0  0  0  0  0  0  0  0
   -0.6760    0.2958   -1.7495 C   0  0  0  0  0  0  0  0  0  0  0  0
   -0.6760    0.7130   -0.2930 C   0  0  0  0  0  3  0  0  0  0  0  0
    0.4628    1.4941   -0.0323 O   0  0  0  0  0  0  0  0  0  0  0  0
    0.5648    1.8983    1.3092 C   0  0  0  0  0  0  0  0  0  0  0  0
    1.8174    2.7264    1.4786 C   0  0  0  0  0  0  0  0  0  0  0  0
    0.5087   -1.5058   -1.5235 H   0  0  0  0  0  0  0  0  0  0  0  0
    0.4712   -0.8738   -3.1713 H   0  0  0  0  0  0  0  0  0  0  0  0
    1.4485   -0.0705   -1.9376 H   0  0  0  0  0  0  0  0  0  0  0  0
   -0.6785    1.1966   -2.3686 H   0  0  0  0  0  0  0  0  0  0  0  0
   -1.6148   -0.2284   -1.9490 H   0  0  0  0  0  0  0  0  0  0  0  0
   -1.5854    1.2864   -0.0607 H   0  0  0  0  0  0  0  0  0  0  0  0
   -0.3233    2.4819    1.5938 H   0  0  0  0  0  0  0  0  0  0  0  0
    0.5957    1.0157    1.9651 H   0  0  0  0  0  0  0  0  0  0  0  0
    1.7814    3.6089    0.8389 H   0  0  0  0  0  0  0  0  0  0  0  0
    1.9176    3.0528    2.5149 H   0  0  0  0  0  0  0  0  0  0  0  0
    2.6997    2.1437    1.2116 H   0  0  0  0  0  0  0  0  0  0  0  0
  1  2  1  0
  1  4  1  0
  1  5  1  0
  2  3  2  0
  6  7  1  0
  6 12  1  0
  6 13  1  0
  6 14  1  0
  7  8  1  0
  7 15  1  0
  7 16  1  0
  8  9  1  0
  8 17  1  0
  9 10  1  0
 10 11  1  0
 10 18  1  0
 10 19  1  0
 11 20  1  0
 11 21  1  0
 11 22  1  0
M  RAD  1   8   2
M  END
>  <reaction>  (25) 
rmg_rxn_1476

>  <mol_properties>  (25) 
{"0": {"label": "*3", "atom_type": "N3d"}, "1": {"label": "*4", "atom_type": "N3d"}, "3": {"label": "*2", "atom_type": "H0"}, "7": {"label": "*1", "atom_type": "Cs"}, "8": {"label": "*0", "atom_type": "O2s"}}

>  <type>  (25) 
unop_21

>  <geom_source>  (25) 
Heuristics

$$$$

     RDKit          3D

 22 20  0  0  0  0  0  0  0  0999 V2000
   -0.6204   -1.3404    1.5122 N   0  0  0  0  0  0  0  0  0  0  0  0
   -0.6204   -2.5432    0.9674 N   0  0  0  0  0  0  0  0  0  0  0  0
   -0.6204   -2.5432   -0.2371 O   0  0  0  0  0  0  0  0  0  0  0  0
   -0.6204   -0.3578    0.7970 H   0  0  0  0  0  0  0  0  0  0  0  0
   -0.6204   -1.2941    2.5143 H   0  0  0  0  0  0  0  0  0  0  0  0
   -0.4976   -0.4377   -2.2379 C   0  0  0  0  0  0  0  0  0  0  0  0
   -1.3319    0.4060   -1.2832 C   0  0  0  0  0  0  0  0  0  0  0  0
   -0.6204    0.7110    0.0191 C   0  0  0  0  0  3  0  0  0  0  0  0
    0.5257    1.4800   -0.2455 O   0  0  0  0  0  0  0  0  0  0  0  0
    1.2711    1.7817    0.9065 C   0  0  0  0  0  0  0  0  0  0  0  0
    2.4744    2.6056    0.5107 C   0  0  0  0  0  0  0  0  0  0  0  0
   -0.2368   -1.3970   -1.7837 H   0  0  0  0  0  0  0  0  0  0  0  0
   -1.0429   -0.6416   -3.1606 H   0  0  0  0  0  0  0  0  0  0  0  0
    0.4296    0.0739   -2.4956 H   0  0  0  0  0  0  0  0  0  0  0  0
   -1.6054    1.3513   -1.7590 H   0  0  0  0  0  0  0  0  0  0  0  0
   -2.2658   -0.1098   -1.0433 H   0  0  0  0  0  0  0  0  0  0  0  0
   -1.2895    1.2569    0.7003 H   0  0  0  0  0  0  0  0  0  0  0  0
    0.6461    2.3341    1.6238 H   0  0  0  0  0  0  0  0  0  0  0  0
    1.5877    0.8521    1.4020 H   0  0  0  0  0  0  0  0  0  0  0  0
    2.1612    3.5340    0.0318 H   0  0  0  0  0  0  0  0  0  0  0  0
    3.0694    2.8530    1.3913 H   0  0  0  0  0  0  0  0  0  0  0  0
    3.1029    2.0528   -0.1884 H   0  0  0  0  0  0  0  0  0  0  0  0
  1  2  1  0
  1  4  1  0
  1  5  1  0
  2  3  2  0
  6  7  1  0
  6 12  1  0
  6 13  1  0
  6 14  1  0
  7  8  1  0
  7 15  1  0
  7 16  1  0
  8  9  1  0
  8 17  1  0
  9 10  1  0
 10 11  1  0
 10 18  1  0
 10 19  1  0
 11 20  1  0
 11 21  1  0
 11 22  1  0
M  RAD  1   8   2
M  END
>  <reaction>  (26) 
rmg_rxn_1476

>  <mol_properties>  (26) 
{"0": {"label": "*3", "atom_type": "N3d"}, "1": {"label": "*4", "atom_type": "N3d"}, "3": {"label": "*2", "atom_type": "H0"}, "7": {"label": "*1", "atom_type": "Cs"}, "8": {"label": "*0", "atom_type": "O2s"}}

>  <type>  (26) 
unop_22

>  <geom_source>  (26) 
gaussian_log

$$$$
