
     RDKit          3D

 18 17  0  0  0  0  0  0  0  0999 V2000
    2.2026   -0.7213   -0.2612 C   0  0  0  0  0  0  0  0  0  0  0  0
    1.5384    0.2638    0.6915 C   0  0  0  0  0  0  0  0  0  0  0  0
    2.2584    1.5946    0.7694 C   0  0  0  0  0  0  0  0  0  0  0  0
    2.2212    2.2185   -0.4893 O   0  0  0  0  0  0  0  0  0  0  0  0
    2.8988    3.4488   -0.5204 C   0  0  0  0  0  0  0  0  0  0  0  0
    2.7981    4.0296   -1.9118 C   0  0  0  0  0  0  0  0  0  0  0  0
    3.2294   -0.9309    0.0486 H   0  0  0  0  0  0  0  0  0  0  0  0
    2.2338   -0.3181   -1.2734 H   0  0  0  0  0  0  0  0  0  0  0  0
    1.6610   -1.6680   -0.2875 H   0  0  0  0  0  0  0  0  0  0  0  0
    1.4990   -0.1566    1.7002 H   0  0  0  0  0  0  0  0  0  0  0  0
    0.5055    0.4455    0.3835 H   0  0  0  0  0  0  0  0  0  0  0  0
    3.3038    1.4410    1.0808 H   0  0  0  0  0  0  0  0  0  0  0  0
    1.7844    2.2410    1.5226 H   0  0  0  0  0  0  0  0  0  0  0  0
    2.4596    4.1376    0.2164 H   0  0  0  0  0  0  0  0  0  0  0  0
    3.9524    3.3035   -0.2397 H   0  0  0  0  0  0  0  0  0  0  0  0
    1.7543    4.1869   -2.1856 H   0  0  0  0  0  0  0  0  0  0  0  0
    3.2472    3.3545   -2.6411 H   0  0  0  0  0  0  0  0  0  0  0  0
    3.3178    4.9878   -1.9600 H   0  0  0  0  0  0  0  0  0  0  0  0
  1  2  1  0
  1  7  1  0
  1  8  1  0
  1  9  1  0
  2  3  1  0
  2 10  1  0
  2 11  1  0
  3  4  1  0
  3 12  1  0
  3 13  1  0
  4  5  1  0
  5  6  1  0
  5 14  1  0
  5 15  1  0
  6 16  1  0
  6 17  1  0
  6 18  1  0
M  END
>  <reaction>  (1) 
rmg_rxn_15424

>  <mol_properties>  (1) 
{"4": {"label": "donator", "atom_type": "Cs"}, "13": {"label": "d_hydrogen", "atom_type": "H0"}}

>  <type>  (1) 
r1h

$$$$

     RDKit          3D

  5  4  0  0  0  0  0  0  0  0999 V2000
    0.8934    0.3742    0.4948 O   0  0  0  0  0  0  0  0  0  0  0  0
    0.1582   -0.1610   -0.5904 N   0  0  0  0  0  0  0  0  0  0  0  0
   -1.0297   -0.3739   -0.4689 C   0  0  0  0  0  3  0  0  0  0  0  0
    1.7804    0.4382    0.1306 H   0  0  0  0  0  0  0  0  0  0  0  0
   -1.8023   -0.2775    0.2859 H   0  0  0  0  0  0  0  0  0  0  0  0
  1  2  1  0
  1  4  1  0
  2  3  2  3
  3  5  1  0
M  RAD  1   3   2
M  END
>  <reaction>  (2) 
rmg_rxn_15424

>  <mol_properties>  (2) 
{"2": {"label": "acceptor", "atom_type": "Cd"}}

>  <type>  (2) 
r2

$$$$

     RDKit          3D

  6  5  0  0  0  0  0  0  0  0999 V2000
    1.2314    0.0428    0.5088 O   0  0  0  0  0  0  0  0  0  0  0  0
    0.2987    0.2341   -0.4915 N   0  0  0  0  0  0  0  0  0  0  0  0
   -0.8599   -0.1122   -0.1290 C   0  0  0  0  0  0  0  0  0  0  0  0
    2.0507    0.3401    0.1082 H   0  0  0  0  0  0  0  0  0  0  0  0
   -1.0700   -0.5112    0.8610 H   0  0  0  0  0  0  0  0  0  0  0  0
   -1.6509    0.0064   -0.8574 H   0  0  0  0  0  0  0  0  0  0  0  0
  1  2  1  0
  1  4  1  0
  2  3  2  3
  3  5  1  0
  3  6  1  0
M  END
>  <reaction>  (3) 
rmg_rxn_15424

>  <mol_properties>  (3) 
{"2": {"label": "acceptor", "atom_type": "Cd"}, "5": {"label": "a_hydrogen", "atom_type": "H0"}}

>  <type>  (3) 
r2h

$$$$

     RDKit          3D

 23 21  0  0  0  0  0  0  0  0999 V2000
    3.5634    0.2787   -0.0845 O   0  0  0  0  0  0  0  0  0  0  0  0
    2.2045    0.3655   -0.4396 N   0  0  0  0  0  0  0  0  0  0  0  0
    1.4749    0.8520    0.4390 C   0  0  0  0  0  3  0  0  0  0  0  0
    3.9603   -0.1110   -0.8668 H   0  0  0  0  0  0  0  0  0  0  0  0
    1.7619    1.2137    1.4267 H   0  0  0  0  0  0  0  0  0  0  0  0
   -0.2889   -2.1838    0.9767 C   0  0  0  0  0  0  0  0  0  0  0  0
   -0.6556   -1.8518   -0.4623 C   0  0  0  0  0  0  0  0  0  0  0  0
   -1.9562   -1.0726   -0.5823 C   0  0  0  0  0  0  0  0  0  0  0  0
   -1.9712    0.1412    0.1472 O   0  0  0  0  0  0  0  0  0  0  0  0
   -1.1433    1.1355   -0.3304 C   0  0  0  0  0  0  0  0  0  0  0  0
   -1.5256    2.4712    0.2463 C   0  0  0  0  0  0  0  0  0  0  0  0
   -1.0630   -2.7918    1.4510 H   0  0  0  0  0  0  0  0  0  0  0  0
   -0.1739   -1.2741    1.5676 H   0  0  0  0  0  0  0  0  0  0  0  0
    0.6516   -2.7338    1.0229 H   0  0  0  0  0  0  0  0  0  0  0  0
   -0.7749   -2.7709   -1.0436 H   0  0  0  0  0  0  0  0  0  0  0  0
    0.1563   -1.2922   -0.9332 H   0  0  0  0  0  0  0  0  0  0  0  0
   -2.7847   -1.6557   -0.1757 H   0  0  0  0  0  0  0  0  0  0  0  0
   -2.1734   -0.8628   -1.6379 H   0  0  0  0  0  0  0  0  0  0  0  0
    0.0213    0.9401    0.0210 H   0  0  0  0  0  0  0  0  0  0  0  0
   -1.0812    1.1334   -1.4269 H   0  0  0  0  0  0  0  0  0  0  0  0
   -1.5162    2.4297    1.3365 H   0  0  0  0  0  0  0  0  0  0  0  0
   -2.5277    2.7611   -0.0760 H   0  0  0  0  0  0  0  0  0  0  0  0
   -0.8185    3.2354   -0.0791 H   0  0  0  0  0  0  0  0  0  0  0  0
  1  2  1  0
  1  4  1  0
  2  3  2  3
  3  5  1  0
  6  7  1  0
  6 12  1  0
  6 13  1  0
  6 14  1  0
  7  8  1  0
  7 15  1  0
  7 16  1  0
  8  9  1  0
  8 17  1  0
  8 18  1  0
  9 10  1  0
 10 11  1  0
 10 19  1  0
 10 20  1  0
 11 21  1  0
 11 22  1  0
 11 23  1  0
M  RAD  1   3   2
M  END
>  <reaction>  (4) 
rmg_rxn_15424

>  <mol_properties>  (4) 
{"1": {"label": "*4", "atom_type": "N3d"}, "2": {"label": "*3", "atom_type": "Cd"}, "8": {"label": "*0", "atom_type": "O2s"}, "9": {"label": "*1", "atom_type": "Cs"}, "18": {"label": "*2", "atom_type": "H0"}}

>  <type>  (4) 
ts

$$$$

     RDKit          3D

 23 21  0  0  0  0  0  0  0  0999 V2000
    3.4681    0.1109   -0.0819 O   0  0  0  0  0  0  0  0  0  0  0  0
    2.0814    0.2292   -0.3384 N   0  0  0  0  0  0  0  0  0  0  0  0
    1.4089    1.0165    0.3459 C   0  0  0  0  0  0  0  0  0  0  0  0
    3.7738   -0.5485   -0.7190 H   0  0  0  0  0  0  0  0  0  0  0  0
    1.7482    1.6598    1.1500 H   0  0  0  0  0  0  0  0  0  0  0  0
   -0.2619   -2.2674    0.9489 C   0  0  0  0  0  0  0  0  0  0  0  0
   -0.5677   -1.8479   -0.4829 C   0  0  0  0  0  0  0  0  0  0  0  0
   -1.8753   -1.0547   -0.5665 C   0  0  0  0  0  0  0  0  0  0  0  0
   -1.8675    0.1331    0.1902 O   0  0  0  0  0  0  0  0  0  0  0  0
   -1.1476    1.1967   -0.3245 C   0  0  0  0  0  3  0  0  0  0  0  0
   -1.5868    2.5043    0.2856 C   0  0  0  0  0  0  0  0  0  0  0  0
   -0.2064   -1.3906    1.5889 H   0  0  0  0  0  0  0  0  0  0  0  0
    0.6901   -2.7895    0.9962 H   0  0  0  0  0  0  0  0  0  0  0  0
   -1.0396   -2.9247    1.3319 H   0  0  0  0  0  0  0  0  0  0  0  0
   -0.6680   -2.7289   -1.1196 H   0  0  0  0  0  0  0  0  0  0  0  0
    0.2521   -1.2370   -0.8646 H   0  0  0  0  0  0  0  0  0  0  0  0
   -2.6952   -1.6461   -0.1486 H   0  0  0  0  0  0  0  0  0  0  0  0
   -2.1017   -0.8261   -1.6187 H   0  0  0  0  0  0  0  0  0  0  0  0
    0.1614    1.0746    0.0258 H   0  0  0  0  0  0  0  0  0  0  0  0
   -1.1192    1.2023   -1.4192 H   0  0  0  0  0  0  0  0  0  0  0  0
   -1.5769    2.4265    1.3699 H   0  0  0  0  0  0  0  0  0  0  0  0
   -2.6021    2.7575   -0.0248 H   0  0  0  0  0  0  0  0  0  0  0  0
   -0.9184    3.3033   -0.0244 H   0  0  0  0  0  0  0  0  0  0  0  0
  1  2  1  0
  1  4  1  0
  2  3  2  3
  3  5  1  0
  3 19  1  0
  6  7  1  0
  6 12  1  0
  6 13  1  0
  6 14  1  0
  7  8  1  0
  7 15  1  0
  7 16  1  0
  8  9  1  0
  8 17  1  0
  8 18  1  0
  9 10  1  0
 10 11  1  0
 10 20  1  0
 11 21  1  0
 11 22  1  0
 11 23  1  0
M  RAD  1  10   2
M  END
>  <reaction>  (5) 
rmg_rxn_15424

>  <mol_properties>  (5) 
{"1": {"label": "*4", "atom_type": "N3d"}, "2": {"label": "*3", "atom_type": "Cd"}, "8": {"label": "*0", "atom_type": "O2s"}, "9": {"label": "*1", "atom_type": "Cs"}, "18": {"label": "*2", "atom_type": "H0"}}

>  <type>  (5) 
unop_1

>  <geom_source>  (5) 
crest_best.xyz

$$$$

     RDKit          3D

 23 21  0  0  0  0  0  0  0  0999 V2000
    0.2304    2.1747    3.5229 O   0  0  0  0  0  0  0  0  0  0  0  0
    0.6209    1.4312    2.4267 N   0  0  0  0  0  0  0  0  0  0  0  0
   -0.3438    0.7930    1.9213 C   0  0  0  0  0  0  0  0  0  0  0  0
    1.0429    2.6004    3.8034 H   0  0  0  0  0  0  0  0  0  0  0  0
   -1.3538    0.8415    2.3228 H   0  0  0  0  0  0  0  0  0  0  0  0
    0.7498   -2.5886   -2.9239 C   0  0  0  0  0  0  0  0  0  0  0  0
    0.7498   -2.5886   -1.4010 C   0  0  0  0  0  0  0  0  0  0  0  0
    0.7498   -1.1955   -0.8054 C   0  0  0  0  0  0  0  0  0  0  0  0
   -0.4332   -0.5319   -1.1730 O   0  0  0  0  0  0  0  0  0  0  0  0
   -0.5039    0.7862   -0.6922 C   0  0  0  0  0  3  0  0  0  0  0  0
   -1.8072    1.4039   -1.1430 C   0  0  0  0  0  0  0  0  0  0  0  0
    1.6319   -2.0742   -3.3135 H   0  0  0  0  0  0  0  0  0  0  0  0
   -0.1329   -2.0789   -3.3099 H   0  0  0  0  0  0  0  0  0  0  0  0
    0.7553   -3.6064   -3.3165 H   0  0  0  0  0  0  0  0  0  0  0  0
    1.6314   -3.1150   -1.0247 H   0  0  0  0  0  0  0  0  0  0  0  0
   -0.1245   -3.1265   -1.0257 H   0  0  0  0  0  0  0  0  0  0  0  0
    1.6240   -0.6304   -1.1658 H   0  0  0  0  0  0  0  0  0  0  0  0
    0.8246   -1.2494    0.2906 H   0  0  0  0  0  0  0  0  0  0  0  0
   -0.4232    0.7896    0.6255 H   0  0  0  0  0  0  0  0  0  0  0  0
    0.3490    1.3691   -1.0700 H   0  0  0  0  0  0  0  0  0  0  0  0
   -2.6536    0.8345   -0.7573 H   0  0  0  0  0  0  0  0  0  0  0  0
   -1.8680    1.4158   -2.2318 H   0  0  0  0  0  0  0  0  0  0  0  0
   -1.8848    2.4300   -0.7799 H   0  0  0  0  0  0  0  0  0  0  0  0
  1  2  1  0
  1  4  1  0
  2  3  2  3
  3  5  1  0
  3 19  1  0
  6  7  1  0
  6 12  1  0
  6 13  1  0
  6 14  1  0
  7  8  1  0
  7 15  1  0
  7 16  1  0
  8  9  1  0
  8 17  1  0
  8 18  1  0
  9 10  1  0
 10 11  1  0
 10 20  1  0
 11 21  1  0
 11 22  1  0
 11 23  1  0
M  RAD  1  10   2
M  END
>  <reaction>  (6) 
rmg_rxn_15424

>  <mol_properties>  (6) 
{"1": {"label": "*4", "atom_type": "N3d"}, "2": {"label": "*3", "atom_type": "Cd"}, "8": {"label": "*0", "atom_type": "O2s"}, "9": {"label": "*1", "atom_type": "Cs"}, "18": {"label": "*2", "atom_type": "H0"}}

>  <type>  (6) 
unop_2

>  <geom_source>  (6) 
Heuristics

$$$$

     RDKit          3D

 23 21  0  0  0  0  0  0  0  0999 V2000
    3.4679   -0.1116    0.0807 O   0  0  0  0  0  0  0  0  0  0  0  0
    2.0812   -0.2289    0.3376 N   0  0  0  0  0  0  0  0  0  0  0  0
    1.4090   -1.0196   -0.3432 C   0  0  0  0  0  0  0  0  0  0  0  0
    3.7735    0.5512    0.7144 H   0  0  0  0  0  0  0  0  0  0  0  0
    1.7491   -1.6665   -1.1442 H   0  0  0  0  0  0  0  0  0  0  0  0
   -0.2594    2.2705   -0.9459 C   0  0  0  0  0  0  0  0  0  0  0  0
   -0.5685    1.8479    0.4844 C   0  0  0  0  0  0  0  0  0  0  0  0
   -1.8764    1.0549    0.5635 C   0  0  0  0  0  0  0  0  0  0  0  0
   -1.8663   -0.1329   -0.1930 O   0  0  0  0  0  0  0  0  0  0  0  0
   -1.1483   -1.1966    0.3244 C   0  0  0  0  0  3  0  0  0  0  0  0
   -1.5877   -2.5048   -0.2844 C   0  0  0  0  0  0  0  0  0  0  0  0
    0.6925    2.7929   -0.9897 H   0  0  0  0  0  0  0  0  0  0  0  0
   -1.0364    2.9286   -1.3291 H   0  0  0  0  0  0  0  0  0  0  0  0
   -0.2024    1.3951   -1.5876 H   0  0  0  0  0  0  0  0  0  0  0  0
   -0.6699    2.7275    1.1227 H   0  0  0  0  0  0  0  0  0  0  0  0
    0.2504    1.2360    0.8664 H   0  0  0  0  0  0  0  0  0  0  0  0
   -2.6948    1.6465    0.1430 H   0  0  0  0  0  0  0  0  0  0  0  0
   -2.1063    0.8263    1.6150 H   0  0  0  0  0  0  0  0  0  0  0  0
    0.1613   -1.0761   -0.0242 H   0  0  0  0  0  0  0  0  0  0  0  0
   -1.1218   -1.2007    1.4192 H   0  0  0  0  0  0  0  0  0  0  0  0
   -0.9208   -3.3038    0.0285 H   0  0  0  0  0  0  0  0  0  0  0  0
   -1.5756   -2.4290   -1.3689 H   0  0  0  0  0  0  0  0  0  0  0  0
   -2.6040   -2.7563    0.0244 H   0  0  0  0  0  0  0  0  0  0  0  0
  1  2  1  0
  1  4  1  0
  2  3  2  3
  3  5  1  0
  3 19  1  0
  6  7  1  0
  6 12  1  0
  6 13  1  0
  6 14  1  0
  7  8  1  0
  7 15  1  0
  7 16  1  0
  8  9  1  0
  8 17  1  0
  8 18  1  0
  9 10  1  0
 10 11  1  0
 10 20  1  0
 11 21  1  0
 11 22  1  0
 11 23  1  0
M  RAD  1  10   2
M  END
>  <reaction>  (7) 
rmg_rxn_15424

>  <mol_properties>  (7) 
{"1": {"label": "*4", "atom_type": "N3d"}, "2": {"label": "*3", "atom_type": "Cd"}, "8": {"label": "*0", "atom_type": "O2s"}, "9": {"label": "*1", "atom_type": "Cs"}, "18": {"label": "*2", "atom_type": "H0"}}

>  <type>  (7) 
unop_3

>  <geom_source>  (7) 
Heuristics

$$$$

     RDKit          3D

 23 21  0  0  0  0  0  0  0  0999 V2000
    3.4687    0.1089   -0.0813 O   0  0  0  0  0  0  0  0  0  0  0  0
    2.0822    0.2281   -0.3388 N   0  0  0  0  0  0  0  0  0  0  0  0
    1.4096    1.0152    0.3458 C   0  0  0  0  0  0  0  0  0  0  0  0
    3.7747   -0.5499   -0.7190 H   0  0  0  0  0  0  0  0  0  0  0  0
    1.7492    1.6577    1.1505 H   0  0  0  0  0  0  0  0  0  0  0  0
   -0.2661   -2.2688    0.9494 C   0  0  0  0  0  0  0  0  0  0  0  0
   -0.5689   -1.8473   -0.4826 C   0  0  0  0  0  0  0  0  0  0  0  0
   -1.8757   -1.0531   -0.5676 C   0  0  0  0  0  0  0  0  0  0  0  0
   -1.8677    0.1346    0.1893 O   0  0  0  0  0  0  0  0  0  0  0  0
   -1.1466    1.1979   -0.3247 C   0  0  0  0  0  3  0  0  0  0  0  0
   -1.5841    2.5055    0.2867 C   0  0  0  0  0  0  0  0  0  0  0  0
    0.6855   -2.7915    0.9978 H   0  0  0  0  0  0  0  0  0  0  0  0
   -1.0449   -2.9261    1.3300 H   0  0  0  0  0  0  0  0  0  0  0  0
   -0.2114   -1.3927    1.5905 H   0  0  0  0  0  0  0  0  0  0  0  0
   -0.6687   -2.7275   -1.1205 H   0  0  0  0  0  0  0  0  0  0  0  0
    0.2520   -1.2366   -0.8622 H   0  0  0  0  0  0  0  0  0  0  0  0
   -2.6965   -1.6438   -0.1507 H   0  0  0  0  0  0  0  0  0  0  0  0
   -2.1007   -0.8241   -1.6200 H   0  0  0  0  0  0  0  0  0  0  0  0
    0.1624    1.0743    0.0254 H   0  0  0  0  0  0  0  0  0  0  0  0
   -1.1184    1.2044   -1.4194 H   0  0  0  0  0  0  0  0  0  0  0  0
   -1.5738    2.4267    1.3709 H   0  0  0  0  0  0  0  0  0  0  0  0
   -2.5993    2.7601   -0.0230 H   0  0  0  0  0  0  0  0  0  0  0  0
   -0.9149    3.3039   -0.0229 H   0  0  0  0  0  0  0  0  0  0  0  0
  1  2  1  0
  1  4  1  0
  2  3  2  3
  3  5  1  0
  3 19  1  0
  6  7  1  0
  6 12  1  0
  6 13  1  0
  6 14  1  0
  7  8  1  0
  7 15  1  0
  7 16  1  0
  8  9  1  0
  8 17  1  0
  8 18  1  0
  9 10  1  0
 10 11  1  0
 10 20  1  0
 11 21  1  0
 11 22  1  0
 11 23  1  0
M  RAD  1  10   2
M  END
>  <reaction>  (8) 
rmg_rxn_15424

>  <mol_properties>  (8) 
{"1": {"label": "*4", "atom_type": "N3d"}, "2": {"label": "*3", "atom_type": "Cd"}, "8": {"label": "*0", "atom_type": "O2s"}, "9": {"label": "*1", "atom_type": "Cs"}, "18": {"label": "*2", "atom_type": "H0"}}

>  <type>  (8) 
unop_4

>  <geom_source>  (8) 
Heuristics

$$$$

     RDKit          3D

 23 21  0  0  0  0  0  0  0  0999 V2000
    0.6537    0.5856    3.7172 O   0  0  0  0  0  0  0  0  0  0  0  0
    0.2959    0.2909    2.4163 N   0  0  0  0  0  0  0  0  0  0  0  0
   -0.3744    1.2215    1.8888 C   0  0  0  0  0  0  0  0  0  0  0  0
    1.1480   -0.1890    3.9924 H   0  0  0  0  0  0  0  0  0  0  0  0
   -0.6261    2.1370    2.4199 H   0  0  0  0  0  0  0  0  0  0  0  0
    0.7193   -2.1600   -2.9563 C   0  0  0  0  0  0  0  0  0  0  0  0
    0.7193   -2.1600   -1.4334 C   0  0  0  0  0  0  0  0  0  0  0  0
    0.7193   -0.7670   -0.8379 C   0  0  0  0  0  0  0  0  0  0  0  0
   -0.4637   -0.1034   -1.2055 O   0  0  0  0  0  0  0  0  0  0  0  0
   -0.5344    1.2147   -0.7246 C   0  0  0  0  0  3  0  0  0  0  0  0
   -1.8378    1.8325   -1.1754 C   0  0  0  0  0  0  0  0  0  0  0  0
    1.6013   -1.6457   -3.3460 H   0  0  0  0  0  0  0  0  0  0  0  0
   -0.1635   -1.6503   -3.3424 H   0  0  0  0  0  0  0  0  0  0  0  0
    0.7247   -3.1779   -3.3490 H   0  0  0  0  0  0  0  0  0  0  0  0
    1.6008   -2.6865   -1.0572 H   0  0  0  0  0  0  0  0  0  0  0  0
   -0.1551   -2.6980   -1.0582 H   0  0  0  0  0  0  0  0  0  0  0  0
    1.5935   -0.2019   -1.1983 H   0  0  0  0  0  0  0  0  0  0  0  0
    0.7941   -0.8209    0.2581 H   0  0  0  0  0  0  0  0  0  0  0  0
   -0.4537    1.2181    0.5931 H   0  0  0  0  0  0  0  0  0  0  0  0
    0.3184    1.7977   -1.1025 H   0  0  0  0  0  0  0  0  0  0  0  0
   -2.6841    1.2631   -0.7898 H   0  0  0  0  0  0  0  0  0  0  0  0
   -1.8986    1.8443   -2.2643 H   0  0  0  0  0  0  0  0  0  0  0  0
   -1.9154    2.8585   -0.8124 H   0  0  0  0  0  0  0  0  0  0  0  0
  1  2  1  0
  1  4  1  0
  2  3  2  3
  3  5  1  0
  3 19  1  0
  6  7  1  0
  6 12  1  0
  6 13  1  0
  6 14  1  0
  7  8  1  0
  7 15  1  0
  7 16  1  0
  8  9  1  0
  8 17  1  0
  8 18  1  0
  9 10  1  0
 10 11  1  0
 10 20  1  0
 11 21  1  0
 11 22  1  0
 11 23  1  0
M  RAD  1  10   2
M  END
>  <reaction>  (9) 
rmg_rxn_15424

>  <mol_properties>  (9) 
{"1": {"label": "*4", "atom_type": "N3d"}, "2": {"label": "*3", "atom_type": "Cd"}, "8": {"label": "*0", "atom_type": "O2s"}, "9": {"label": "*1", "atom_type": "Cs"}, "18": {"label": "*2", "atom_type": "H0"}}

>  <type>  (9) 
unop_5

>  <geom_source>  (9) 
Heuristics

$$$$

     RDKit          3D

 23 21  0  0  0  0  0  0  0  0999 V2000
    3.4449   -1.5124    0.0230 O   0  0  0  0  0  0  0  0  0  0  0  0
    2.2154   -0.8360   -0.1636 N   0  0  0  0  0  0  0  0  0  0  0  0
    2.1717    0.3870    0.0465 C   0  0  0  0  0  0  0  0  0  0  0  0
    3.2471   -2.4329   -0.1955 H   0  0  0  0  0  0  0  0  0  0  0  0
    2.9777    1.0363    0.3706 H   0  0  0  0  0  0  0  0  0  0  0  0
   -2.9265   -2.1401   -0.2723 C   0  0  0  0  0  0  0  0  0  0  0  0
   -2.5311   -0.6709   -0.3207 C   0  0  0  0  0  0  0  0  0  0  0  0
   -1.3659   -0.3831    0.6306 C   0  0  0  0  0  0  0  0  0  0  0  0
   -1.0208    0.9859    0.6865 O   0  0  0  0  0  0  0  0  0  0  0  0
   -0.2220    1.4519   -0.3445 C   0  0  0  0  0  3  0  0  0  0  0  0
   -0.0797    2.9501   -0.2995 C   0  0  0  0  0  0  0  0  0  0  0  0
   -3.2365   -2.4195    0.7319 H   0  0  0  0  0  0  0  0  0  0  0  0
   -2.0873   -2.7694   -0.5595 H   0  0  0  0  0  0  0  0  0  0  0  0
   -3.7514   -2.3332   -0.9534 H   0  0  0  0  0  0  0  0  0  0  0  0
   -3.3786   -0.0445   -0.0353 H   0  0  0  0  0  0  0  0  0  0  0  0
   -2.2453   -0.4044   -1.3402 H   0  0  0  0  0  0  0  0  0  0  0  0
   -0.4887   -0.9778    0.3455 H   0  0  0  0  0  0  0  0  0  0  0  0
   -1.6546   -0.6456    1.6523 H   0  0  0  0  0  0  0  0  0  0  0  0
    1.0168    0.9244   -0.1503 H   0  0  0  0  0  0  0  0  0  0  0  0
   -0.4980    1.0597   -1.3270 H   0  0  0  0  0  0  0  0  0  0  0  0
    0.6684    3.2752   -1.0179 H   0  0  0  0  0  0  0  0  0  0  0  0
    0.2181    3.2621    0.6984 H   0  0  0  0  0  0  0  0  0  0  0  0
   -1.0266    3.4388   -0.5365 H   0  0  0  0  0  0  0  0  0  0  0  0
  1  2  1  0
  1  4  1  0
  2  3  2  3
  3  5  1  0
  3 19  1  0
  6  7  1  0
  6 12  1  0
  6 13  1  0
  6 14  1  0
  7  8  1  0
  7 15  1  0
  7 16  1  0
  8  9  1  0
  8 17  1  0
  8 18  1  0
  9 10  1  0
 10 11  1  0
 10 20  1  0
 11 21  1  0
 11 22  1  0
 11 23  1  0
M  RAD  1  10   2
M  END
>  <reaction>  (10) 
rmg_rxn_15424

>  <mol_properties>  (10) 
{"1": {"label": "*4", "atom_type": "N3d"}, "2": {"label": "*3", "atom_type": "Cd"}, "8": {"label": "*0", "atom_type": "O2s"}, "9": {"label": "*1", "atom_type": "Cs"}, "18": {"label": "*2", "atom_type": "H0"}}

>  <type>  (10) 
unop_6

>  <geom_source>  (10) 
Heuristics

$$$$

     RDKit          3D

 23 21  0  0  0  0  0  0  0  0999 V2000
   -0.2562    2.0698    3.6578 O   0  0  0  0  0  0  0  0  0  0  0  0
    0.3052    1.7834    2.4290 N   0  0  0  0  0  0  0  0  0  0  0  0
   -0.2171    0.7644    1.8975 C   0  0  0  0  0  0  0  0  0  0  0  0
    0.2227    2.8500    3.9442 H   0  0  0  0  0  0  0  0  0  0  0  0
   -1.0141    0.1977    2.3740 H   0  0  0  0  0  0  0  0  0  0  0  0
    0.8766   -2.6171   -2.9477 C   0  0  0  0  0  0  0  0  0  0  0  0
    0.8766   -2.6171   -1.4248 C   0  0  0  0  0  0  0  0  0  0  0  0
    0.8766   -1.2240   -0.8292 C   0  0  0  0  0  0  0  0  0  0  0  0
   -0.3064   -0.5604   -1.1968 O   0  0  0  0  0  0  0  0  0  0  0  0
   -0.3771    0.7576   -0.7160 C   0  0  0  0  0  3  0  0  0  0  0  0
   -1.6804    1.3754   -1.1668 C   0  0  0  0  0  0  0  0  0  0  0  0
    1.7587   -2.1028   -3.3373 H   0  0  0  0  0  0  0  0  0  0  0  0
   -0.0061   -2.1074   -3.3337 H   0  0  0  0  0  0  0  0  0  0  0  0
    0.8821   -3.6350   -3.3403 H   0  0  0  0  0  0  0  0  0  0  0  0
    1.7581   -3.1436   -1.0485 H   0  0  0  0  0  0  0  0  0  0  0  0
    0.0022   -3.1551   -1.0495 H   0  0  0  0  0  0  0  0  0  0  0  0
    1.7508   -0.6590   -1.1896 H   0  0  0  0  0  0  0  0  0  0  0  0
    0.9514   -1.2780    0.2668 H   0  0  0  0  0  0  0  0  0  0  0  0
   -0.2964    0.7611    0.6017 H   0  0  0  0  0  0  0  0  0  0  0  0
    0.4758    1.3406   -1.0938 H   0  0  0  0  0  0  0  0  0  0  0  0
   -2.5268    0.8060   -0.7811 H   0  0  0  0  0  0  0  0  0  0  0  0
   -1.7412    1.3873   -2.2556 H   0  0  0  0  0  0  0  0  0  0  0  0
   -1.7580    2.4014   -0.8037 H   0  0  0  0  0  0  0  0  0  0  0  0
  1  2  1  0
  1  4  1  0
  2  3  2  3
  3  5  1  0
  3 19  1  0
  6  7  1  0
  6 12  1  0
  6 13  1  0
  6 14  1  0
  7  8  1  0
  7 15  1  0
  7 16  1  0
  8  9  1  0
  8 17  1  0
  8 18  1  0
  9 10  1  0
 10 11  1  0
 10 20  1  0
 11 21  1  0
 11 22  1  0
 11 23  1  0
M  RAD  1  10   2
M  END
>  <reaction>  (11) 
rmg_rxn_15424

>  <mol_properties>  (11) 
{"1": {"label": "*4", "atom_type": "N3d"}, "2": {"label": "*3", "atom_type": "Cd"}, "8": {"label": "*0", "atom_type": "O2s"}, "9": {"label": "*1", "atom_type": "Cs"}, "18": {"label": "*2", "atom_type": "H0"}}

>  <type>  (11) 
unop_7

>  <geom_source>  (11) 
Heuristics

$$$$

     RDKit          3D

 23 21  0  0  0  0  0  0  0  0999 V2000
   -1.1047    1.0567    3.7204 O   0  0  0  0  0  0  0  0  0  0  0  0
   -0.8158    0.4791    2.4998 N   0  0  0  0  0  0  0  0  0  0  0  0
    0.0798    1.1144    1.8772 C   0  0  0  0  0  0  0  0  0  0  0  0
   -1.7863    0.4858    4.0804 H   0  0  0  0  0  0  0  0  0  0  0  0
    0.5515    2.0087    2.2788 H   0  0  0  0  0  0  0  0  0  0  0  0
    1.1735   -2.2671   -2.9680 C   0  0  0  0  0  0  0  0  0  0  0  0
    1.1735   -2.2671   -1.4451 C   0  0  0  0  0  0  0  0  0  0  0  0
    1.1735   -0.8741   -0.8496 C   0  0  0  0  0  0  0  0  0  0  0  0
   -0.0095   -0.2105   -1.2172 O   0  0  0  0  0  0  0  0  0  0  0  0
   -0.0802    1.1076   -0.7363 C   0  0  0  0  0  3  0  0  0  0  0  0
   -1.3835    1.7254   -1.1871 C   0  0  0  0  0  0  0  0  0  0  0  0
    2.0556   -1.7528   -3.3576 H   0  0  0  0  0  0  0  0  0  0  0  0
    0.2908   -1.7574   -3.3541 H   0  0  0  0  0  0  0  0  0  0  0  0
    1.1790   -3.2850   -3.3607 H   0  0  0  0  0  0  0  0  0  0  0  0
    2.0550   -2.7936   -1.0688 H   0  0  0  0  0  0  0  0  0  0  0  0
    0.2991   -2.8051   -1.0698 H   0  0  0  0  0  0  0  0  0  0  0  0
    2.0477   -0.3090   -1.2100 H   0  0  0  0  0  0  0  0  0  0  0  0
    1.2483   -0.9280    0.2465 H   0  0  0  0  0  0  0  0  0  0  0  0
    0.0005    1.1110    0.5814 H   0  0  0  0  0  0  0  0  0  0  0  0
    0.7727    1.6906   -1.1142 H   0  0  0  0  0  0  0  0  0  0  0  0
   -2.2299    1.1560   -0.8014 H   0  0  0  0  0  0  0  0  0  0  0  0
   -1.4443    1.7372   -2.2759 H   0  0  0  0  0  0  0  0  0  0  0  0
   -1.4611    2.7514   -0.8241 H   0  0  0  0  0  0  0  0  0  0  0  0
  1  2  1  0
  1  4  1  0
  2  3  2  3
  3  5  1  0
  3 19  1  0
  6  7  1  0
  6 12  1  0
  6 13  1  0
  6 14  1  0
  7  8  1  0
  7 15  1  0
  7 16  1  0
  8  9  1  0
  8 17  1  0
  8 18  1  0
  9 10  1  0
 10 11  1  0
 10 20  1  0
 11 21  1  0
 11 22  1  0
 11 23  1  0
M  RAD  1  10   2
M  END
>  <reaction>  (12) 
rmg_rxn_15424

>  <mol_properties>  (12) 
{"1": {"label": "*4", "atom_type": "N3d"}, "2": {"label": "*3", "atom_type": "Cd"}, "8": {"label": "*0", "atom_type": "O2s"}, "9": {"label": "*1", "atom_type": "Cs"}, "18": {"label": "*2", "atom_type": "H0"}}

>  <type>  (12) 
unop_8

>  <geom_source>  (12) 
Heuristics

$$$$

     RDKit          3D

 23 21  0  0  0  0  0  0  0  0999 V2000
    3.4675    0.1122   -0.0808 O   0  0  0  0  0  0  0  0  0  0  0  0
    2.0807    0.2297   -0.3373 N   0  0  0  0  0  0  0  0  0  0  0  0
    1.4087    1.0209    0.3430 C   0  0  0  0  0  0  0  0  0  0  0  0
    3.7726   -0.5508   -0.7145 H   0  0  0  0  0  0  0  0  0  0  0  0
    1.7485    1.6685    1.1435 H   0  0  0  0  0  0  0  0  0  0  0  0
   -0.2599   -2.2710    0.9470 C   0  0  0  0  0  0  0  0  0  0  0  0
   -0.5663   -1.8479   -0.4837 C   0  0  0  0  0  0  0  0  0  0  0  0
   -1.8746   -1.0556   -0.5650 C   0  0  0  0  0  0  0  0  0  0  0  0
   -1.8664    0.1321    0.1918 O   0  0  0  0  0  0  0  0  0  0  0  0
   -1.1488    1.1967   -0.3245 C   0  0  0  0  0  3  0  0  0  0  0  0
   -1.5892    2.5040    0.2855 C   0  0  0  0  0  0  0  0  0  0  0  0
   -0.2029   -1.3957    1.5890 H   0  0  0  0  0  0  0  0  0  0  0  0
    0.6915   -2.7943    0.9923 H   0  0  0  0  0  0  0  0  0  0  0  0
   -1.0380   -2.9283    1.3290 H   0  0  0  0  0  0  0  0  0  0  0  0
   -0.6660   -2.7273   -1.1227 H   0  0  0  0  0  0  0  0  0  0  0  0
    0.2529   -1.2353   -0.8640 H   0  0  0  0  0  0  0  0  0  0  0  0
   -2.6933   -1.6476   -0.1459 H   0  0  0  0  0  0  0  0  0  0  0  0
   -2.1028   -0.8270   -1.6168 H   0  0  0  0  0  0  0  0  0  0  0  0
    0.1608    1.0769    0.0241 H   0  0  0  0  0  0  0  0  0  0  0  0
   -1.1221    1.2018   -1.4192 H   0  0  0  0  0  0  0  0  0  0  0  0
   -0.9230    3.3039   -0.0266 H   0  0  0  0  0  0  0  0  0  0  0  0
   -1.5769    2.4271    1.3698 H   0  0  0  0  0  0  0  0  0  0  0  0
   -2.6057    2.7549   -0.0229 H   0  0  0  0  0  0  0  0  0  0  0  0
  1  2  1  0
  1  4  1  0
  2  3  2  3
  3  5  1  0
  3 19  1  0
  6  7  1  0
  6 12  1  0
  6 13  1  0
  6 14  1  0
  7  8  1  0
  7 15  1  0
  7 16  1  0
  8  9  1  0
  8 17  1  0
  8 18  1  0
  9 10  1  0
 10 11  1  0
 10 20  1  0
 11 21  1  0
 11 22  1  0
 11 23  1  0
M  RAD  1  10   2
M  END
>  <reaction>  (13) 
rmg_rxn_15424

>  <mol_properties>  (13) 
{"1": {"label": "*4", "atom_type": "N3d"}, "2": {"label": "*3", "atom_type": "Cd"}, "8": {"label": "*0", "atom_type": "O2s"}, "9": {"label": "*1", "atom_type": "Cs"}, "18": {"label": "*2", "atom_type": "H0"}}

>  <type>  (13) 
unop_9

>  <geom_source>  (13) 
Heuristics

$$$$

     RDKit          3D

 23 21  0  0  0  0  0  0  0  0999 V2000
   -0.1279    1.8109    3.8100 O   0  0  0  0  0  0  0  0  0  0  0  0
   -0.2205    1.9186    2.4363 N   0  0  0  0  0  0  0  0  0  0  0  0
   -0.1695    0.7916    1.8700 C   0  0  0  0  0  0  0  0  0  0  0  0
   -0.1788    2.7212    4.1080 H   0  0  0  0  0  0  0  0  0  0  0  0
   -0.0647   -0.1390    2.4237 H   0  0  0  0  0  0  0  0  0  0  0  0
    0.9241   -2.5899   -2.9752 C   0  0  0  0  0  0  0  0  0  0  0  0
    0.9241   -2.5899   -1.4523 C   0  0  0  0  0  0  0  0  0  0  0  0
    0.9241   -1.1969   -0.8567 C   0  0  0  0  0  0  0  0  0  0  0  0
   -0.2589   -0.5333   -1.2243 O   0  0  0  0  0  0  0  0  0  0  0  0
   -0.3296    0.7848   -0.7435 C   0  0  0  0  0  3  0  0  0  0  0  0
   -1.6329    1.4026   -1.1943 C   0  0  0  0  0  0  0  0  0  0  0  0
    1.8062   -2.0756   -3.3648 H   0  0  0  0  0  0  0  0  0  0  0  0
    0.0414   -2.0803   -3.3612 H   0  0  0  0  0  0  0  0  0  0  0  0
    0.9296   -3.6078   -3.3678 H   0  0  0  0  0  0  0  0  0  0  0  0
    1.8056   -3.1164   -1.0760 H   0  0  0  0  0  0  0  0  0  0  0  0
    0.0497   -3.1279   -1.0770 H   0  0  0  0  0  0  0  0  0  0  0  0
    1.7983   -0.6318   -1.2171 H   0  0  0  0  0  0  0  0  0  0  0  0
    0.9989   -1.2508    0.2393 H   0  0  0  0  0  0  0  0  0  0  0  0
   -0.2489    0.7882    0.5742 H   0  0  0  0  0  0  0  0  0  0  0  0
    0.5233    1.3678   -1.1213 H   0  0  0  0  0  0  0  0  0  0  0  0
   -2.4793    0.8332   -0.8086 H   0  0  0  0  0  0  0  0  0  0  0  0
   -1.6937    1.4144   -2.2831 H   0  0  0  0  0  0  0  0  0  0  0  0
   -1.7105    2.4286   -0.8312 H   0  0  0  0  0  0  0  0  0  0  0  0
  1  2  1  0
  1  4  1  0
  2  3  2  3
  3  5  1  0
  3 19  1  0
  6  7  1  0
  6 12  1  0
  6 13  1  0
  6 14  1  0
  7  8  1  0
  7 15  1  0
  7 16  1  0
  8  9  1  0
  8 17  1  0
  8 18  1  0
  9 10  1  0
 10 11  1  0
 10 20  1  0
 11 21  1  0
 11 22  1  0
 11 23  1  0
M  RAD  1  10   2
M  END
>  <reaction>  (14) 
rmg_rxn_15424

>  <mol_properties>  (14) 
{"1": {"label": "*4", "atom_type": "N3d"}, "2": {"label": "*3", "atom_type": "Cd"}, "8": {"label": "*0", "atom_type": "O2s"}, "9": {"label": "*1", "atom_type": "Cs"}, "18": {"label": "*2", "atom_type": "H0"}}

>  <type>  (14) 
unop_10

>  <geom_source>  (14) 
Heuristics

$$$$

     RDKit          3D

 23 21  0  0  0  0  0  0  0  0999 V2000
   -3.4687    0.1092    0.0820 O   0  0  0  0  0  0  0  0  0  0  0  0
   -2.0824    0.2291    0.3395 N   0  0  0  0  0  0  0  0  0  0  0  0
   -1.4093    1.0131   -0.3481 C   0  0  0  0  0  0  0  0  0  0  0  0
   -3.7750   -0.5469    0.7223 H   0  0  0  0  0  0  0  0  0  0  0  0
   -1.7480    1.6519   -1.1561 H   0  0  0  0  0  0  0  0  0  0  0  0
    0.2639   -2.2674   -0.9484 C   0  0  0  0  0  0  0  0  0  0  0  0
    0.5698   -1.8471    0.4832 C   0  0  0  0  0  0  0  0  0  0  0  0
    1.8771   -1.0534    0.5659 C   0  0  0  0  0  0  0  0  0  0  0  0
    1.8682    0.1347   -0.1903 O   0  0  0  0  0  0  0  0  0  0  0  0
    1.1463    1.1971    0.3244 C   0  0  0  0  0  3  0  0  0  0  0  0
    1.5838    2.5057   -0.2849 C   0  0  0  0  0  0  0  0  0  0  0  0
    1.0412   -2.9253   -1.3310 H   0  0  0  0  0  0  0  0  0  0  0  0
    0.2087   -1.3910   -1.5890 H   0  0  0  0  0  0  0  0  0  0  0  0
   -0.6883   -2.7892   -0.9952 H   0  0  0  0  0  0  0  0  0  0  0  0
    0.6707   -2.7278    1.1203 H   0  0  0  0  0  0  0  0  0  0  0  0
   -0.2501   -1.2364    0.8650 H   0  0  0  0  0  0  0  0  0  0  0  0
    2.6969   -1.6442    0.1472 H   0  0  0  0  0  0  0  0  0  0  0  0
    2.1042   -0.8250    1.6180 H   0  0  0  0  0  0  0  0  0  0  0  0
   -0.1622    1.0730   -0.0269 H   0  0  0  0  0  0  0  0  0  0  0  0
    1.1171    1.2022    1.4191 H   0  0  0  0  0  0  0  0  0  0  0  0
    0.9133    3.3032    0.0242 H   0  0  0  0  0  0  0  0  0  0  0  0
    1.5756    2.4279   -1.3692 H   0  0  0  0  0  0  0  0  0  0  0  0
    2.5981    2.7609    0.0270 H   0  0  0  0  0  0  0  0  0  0  0  0
  1  2  1  0
  1  4  1  0
  2  3  2  3
  3  5  1  0
  3 19  1  0
  6  7  1  0
  6 12  1  0
  6 13  1  0
  6 14  1  0
  7  8  1  0
  7 15  1  0
  7 16  1  0
  8  9  1  0
  8 17  1  0
  8 18  1  0
  9 10  1  0
 10 11  1  0
 10 20  1  0
 11 21  1  0
 11 22  1  0
 11 23  1  0
M  RAD  1  10   2
M  END
>  <reaction>  (15) 
rmg_rxn_15424

>  <mol_properties>  (15) 
{"1": {"label": "*4", "atom_type": "N3d"}, "2": {"label": "*3", "atom_type": "Cd"}, "8": {"label": "*0", "atom_type": "O2s"}, "9": {"label": "*1", "atom_type": "Cs"}, "18": {"label": "*2", "atom_type": "H0"}}

>  <type>  (15) 
unop_11

>  <geom_source>  (15) 
Heuristics

$$$$

     RDKit          3D

 23 21  0  0  0  0  0  0  0  0999 V2000
   -1.0224    1.7009    3.6240 O   0  0  0  0  0  0  0  0  0  0  0  0
   -0.9990    0.8666    2.5238 N   0  0  0  0  0  0  0  0  0  0  0  0
    0.0899    0.9506    1.8908 C   0  0  0  0  0  0  0  0  0  0  0  0
   -1.8877    1.5408    4.0057 H   0  0  0  0  0  0  0  0  0  0  0  0
    0.8978    1.6110    2.1984 H   0  0  0  0  0  0  0  0  0  0  0  0
    1.1835   -2.4309   -2.9544 C   0  0  0  0  0  0  0  0  0  0  0  0
    1.1835   -2.4309   -1.4315 C   0  0  0  0  0  0  0  0  0  0  0  0
    1.1835   -1.0379   -0.8360 C   0  0  0  0  0  0  0  0  0  0  0  0
    0.0005   -0.3743   -1.2036 O   0  0  0  0  0  0  0  0  0  0  0  0
   -0.0702    0.9438   -0.7227 C   0  0  0  0  0  3  0  0  0  0  0  0
   -1.3735    1.5616   -1.1735 C   0  0  0  0  0  0  0  0  0  0  0  0
    2.0656   -1.9166   -3.3440 H   0  0  0  0  0  0  0  0  0  0  0  0
    0.3008   -1.9212   -3.3405 H   0  0  0  0  0  0  0  0  0  0  0  0
    1.1890   -3.4488   -3.3471 H   0  0  0  0  0  0  0  0  0  0  0  0
    2.0650   -2.9574   -1.0552 H   0  0  0  0  0  0  0  0  0  0  0  0
    0.3091   -2.9689   -1.0562 H   0  0  0  0  0  0  0  0  0  0  0  0
    2.0577   -0.4728   -1.1964 H   0  0  0  0  0  0  0  0  0  0  0  0
    1.2583   -1.0918    0.2601 H   0  0  0  0  0  0  0  0  0  0  0  0
    0.0105    0.9472    0.5950 H   0  0  0  0  0  0  0  0  0  0  0  0
    0.7827    1.5268   -1.1006 H   0  0  0  0  0  0  0  0  0  0  0  0
   -2.2199    0.9922   -0.7878 H   0  0  0  0  0  0  0  0  0  0  0  0
   -1.4343    1.5734   -2.2623 H   0  0  0  0  0  0  0  0  0  0  0  0
   -1.4511    2.5876   -0.8105 H   0  0  0  0  0  0  0  0  0  0  0  0
  1  2  1  0
  1  4  1  0
  2  3  2  3
  3  5  1  0
  3 19  1  0
  6  7  1  0
  6 12  1  0
  6 13  1  0
  6 14  1  0
  7  8  1  0
  7 15  1  0
  7 16  1  0
  8  9  1  0
  8 17  1  0
  8 18  1  0
  9 10  1  0
 10 11  1  0
 10 20  1  0
 11 21  1  0
 11 22  1  0
 11 23  1  0
M  RAD  1  10   2
M  END
>  <reaction>  (16) 
rmg_rxn_15424

>  <mol_properties>  (16) 
{"1": {"label": "*4", "atom_type": "N3d"}, "2": {"label": "*3", "atom_type": "Cd"}, "8": {"label": "*0", "atom_type": "O2s"}, "9": {"label": "*1", "atom_type": "Cs"}, "18": {"label": "*2", "atom_type": "H0"}}

>  <type>  (16) 
unop_12

>  <geom_source>  (16) 
Heuristics

$$$$

     RDKit          3D

 23 21  0  0  0  0  0  0  0  0999 V2000
    3.4692    0.1075   -0.0815 O   0  0  0  0  0  0  0  0  0  0  0  0
    2.0825    0.2266   -0.3378 N   0  0  0  0  0  0  0  0  0  0  0  0
    1.4109    1.0155    0.3455 C   0  0  0  0  0  0  0  0  0  0  0  0
    3.7741   -0.5532   -0.7177 H   0  0  0  0  0  0  0  0  0  0  0  0
    1.7510    1.6599    1.1485 H   0  0  0  0  0  0  0  0  0  0  0  0
   -0.2681   -2.2707    0.9482 C   0  0  0  0  0  0  0  0  0  0  0  0
   -0.5711   -1.8476   -0.4832 C   0  0  0  0  0  0  0  0  0  0  0  0
   -1.8769   -1.0515   -0.5669 C   0  0  0  0  0  0  0  0  0  0  0  0
   -1.8668    0.1359    0.1903 O   0  0  0  0  0  0  0  0  0  0  0  0
   -1.1455    1.1987   -0.3244 C   0  0  0  0  0  3  0  0  0  0  0  0
   -1.5826    2.5069    0.2860 C   0  0  0  0  0  0  0  0  0  0  0  0
   -1.0479   -2.9270    1.3288 H   0  0  0  0  0  0  0  0  0  0  0  0
   -0.2114   -1.3954    1.5901 H   0  0  0  0  0  0  0  0  0  0  0  0
    0.6825   -2.7953    0.9956 H   0  0  0  0  0  0  0  0  0  0  0  0
   -0.6725   -2.7271   -1.1218 H   0  0  0  0  0  0  0  0  0  0  0  0
    0.2505   -1.2377   -0.8626 H   0  0  0  0  0  0  0  0  0  0  0  0
   -2.6982   -1.6413   -0.1497 H   0  0  0  0  0  0  0  0  0  0  0  0
   -2.1022   -0.8218   -1.6191 H   0  0  0  0  0  0  0  0  0  0  0  0
    0.1634    1.0748    0.0255 H   0  0  0  0  0  0  0  0  0  0  0  0
   -1.1175    1.2044   -1.4191 H   0  0  0  0  0  0  0  0  0  0  0  0
   -1.5710    2.4296    1.3703 H   0  0  0  0  0  0  0  0  0  0  0  0
   -2.5983    2.7606   -0.0228 H   0  0  0  0  0  0  0  0  0  0  0  0
   -0.9142    3.3051   -0.0255 H   0  0  0  0  0  0  0  0  0  0  0  0
  1  2  1  0
  1  4  1  0
  2  3  2  3
  3  5  1  0
  3 19  1  0
  6  7  1  0
  6 12  1  0
  6 13  1  0
  6 14  1  0
  7  8  1  0
  7 15  1  0
  7 16  1  0
  8  9  1  0
  8 17  1  0
  8 18  1  0
  9 10  1  0
 10 11  1  0
 10 20  1  0
 11 21  1  0
 11 22  1  0
 11 23  1  0
M  RAD  1  10   2
M  END
>  <reaction>  (17) 
rmg_rxn_15424

>  <mol_properties>  (17) 
{"1": {"label": "*4", "atom_type": "N3d"}, "2": {"label": "*3", "atom_type": "Cd"}, "8": {"label": "*0", "atom_type": "O2s"}, "9": {"label": "*1", "atom_type": "Cs"}, "18": {"label": "*2", "atom_type": "H0"}}

>  <type>  (17) 
unop_13

>  <geom_source>  (17) 
Heuristics

$$$$

     RDKit          3D

 23 21  0  0  0  0  0  0  0  0999 V2000
   -0.5691    2.1139    3.5721 O   0  0  0  0  0  0  0  0  0  0  0  0
   -0.9736    1.3099    2.5247 N   0  0  0  0  0  0  0  0  0  0  0  0
    0.0075    0.8197    1.8997 C   0  0  0  0  0  0  0  0  0  0  0  0
   -1.3963    2.4149    3.9532 H   0  0  0  0  0  0  0  0  0  0  0  0
    1.0399    1.0235    2.1757 H   0  0  0  0  0  0  0  0  0  0  0  0
    1.1011   -2.5618   -2.9455 C   0  0  0  0  0  0  0  0  0  0  0  0
    1.1011   -2.5618   -1.4226 C   0  0  0  0  0  0  0  0  0  0  0  0
    1.1011   -1.1688   -0.8270 C   0  0  0  0  0  0  0  0  0  0  0  0
   -0.0819   -0.5052   -1.1946 O   0  0  0  0  0  0  0  0  0  0  0  0
   -0.1526    0.8129   -0.7137 C   0  0  0  0  0  3  0  0  0  0  0  0
   -1.4559    1.4307   -1.1646 C   0  0  0  0  0  0  0  0  0  0  0  0
    1.9832   -2.0475   -3.3351 H   0  0  0  0  0  0  0  0  0  0  0  0
    0.2184   -2.0521   -3.3315 H   0  0  0  0  0  0  0  0  0  0  0  0
    1.1066   -3.5797   -3.3381 H   0  0  0  0  0  0  0  0  0  0  0  0
    1.9827   -3.0883   -1.0463 H   0  0  0  0  0  0  0  0  0  0  0  0
    0.2268   -3.0998   -1.0473 H   0  0  0  0  0  0  0  0  0  0  0  0
    1.9753   -0.6037   -1.1874 H   0  0  0  0  0  0  0  0  0  0  0  0
    1.1759   -1.2227    0.2690 H   0  0  0  0  0  0  0  0  0  0  0  0
   -0.0719    0.8163    0.6040 H   0  0  0  0  0  0  0  0  0  0  0  0
    0.7003    1.3959   -1.0916 H   0  0  0  0  0  0  0  0  0  0  0  0
   -2.3023    0.8613   -0.7789 H   0  0  0  0  0  0  0  0  0  0  0  0
   -1.5167    1.4425   -2.2534 H   0  0  0  0  0  0  0  0  0  0  0  0
   -1.5335    2.4567   -0.8015 H   0  0  0  0  0  0  0  0  0  0  0  0
  1  2  1  0
  1  4  1  0
  2  3  2  3
  3  5  1  0
  3 19  1  0
  6  7  1  0
  6 12  1  0
  6 13  1  0
  6 14  1  0
  7  8  1  0
  7 15  1  0
  7 16  1  0
  8  9  1  0
  8 17  1  0
  8 18  1  0
  9 10  1  0
 10 11  1  0
 10 20  1  0
 11 21  1  0
 11 22  1  0
 11 23  1  0
M  RAD  1  10   2
M  END
>  <reaction>  (18) 
rmg_rxn_15424

>  <mol_properties>  (18) 
{"1": {"label": "*4", "atom_type": "N3d"}, "2": {"label": "*3", "atom_type": "Cd"}, "8": {"label": "*0", "atom_type": "O2s"}, "9": {"label": "*1", "atom_type": "Cs"}, "18": {"label": "*2", "atom_type": "H0"}}

>  <type>  (18) 
unop_14

>  <geom_source>  (18) 
Heuristics

$$$$

     RDKit          3D

 23 21  0  0  0  0  0  0  0  0999 V2000
    3.4685   -0.1093    0.0811 O   0  0  0  0  0  0  0  0  0  0  0  0
    2.0821   -0.2287    0.3390 N   0  0  0  0  0  0  0  0  0  0  0  0
    1.4093   -1.0158   -0.3453 C   0  0  0  0  0  0  0  0  0  0  0  0
    3.7744    0.5499    0.7182 H   0  0  0  0  0  0  0  0  0  0  0  0
    1.7483   -1.6581   -1.1504 H   0  0  0  0  0  0  0  0  0  0  0  0
   -0.2648    2.2684   -0.9493 C   0  0  0  0  0  0  0  0  0  0  0  0
   -0.5686    1.8476    0.4826 C   0  0  0  0  0  0  0  0  0  0  0  0
   -1.8755    1.0536    0.5673 C   0  0  0  0  0  0  0  0  0  0  0  0
   -1.8676   -0.1341   -0.1895 O   0  0  0  0  0  0  0  0  0  0  0  0
   -1.1471   -1.1976    0.3248 C   0  0  0  0  0  3  0  0  0  0  0  0
   -1.5848   -2.5051   -0.2867 C   0  0  0  0  0  0  0  0  0  0  0  0
   -0.2090    1.3920   -1.5900 H   0  0  0  0  0  0  0  0  0  0  0  0
    0.6864    2.7918   -0.9973 H   0  0  0  0  0  0  0  0  0  0  0  0
   -1.0438    2.9250   -1.3310 H   0  0  0  0  0  0  0  0  0  0  0  0
   -0.6686    2.7281    1.1200 H   0  0  0  0  0  0  0  0  0  0  0  0
    0.2520    1.2370    0.8630 H   0  0  0  0  0  0  0  0  0  0  0  0
   -2.6961    1.6445    0.1501 H   0  0  0  0  0  0  0  0  0  0  0  0
   -2.1009    0.8247    1.6197 H   0  0  0  0  0  0  0  0  0  0  0  0
    0.1620   -1.0745   -0.0248 H   0  0  0  0  0  0  0  0  0  0  0  0
   -1.1194   -1.2041    1.4195 H   0  0  0  0  0  0  0  0  0  0  0  0
   -2.5997   -2.7599    0.0235 H   0  0  0  0  0  0  0  0  0  0  0  0
   -0.9153   -3.3035    0.0222 H   0  0  0  0  0  0  0  0  0  0  0  0
   -1.5752   -2.4258   -1.3709 H   0  0  0  0  0  0  0  0  0  0  0  0
  1  2  1  0
  1  4  1  0
  2  3  2  3
  3  5  1  0
  3 19  1  0
  6  7  1  0
  6 12  1  0
  6 13  1  0
  6 14  1  0
  7  8  1  0
  7 15  1  0
  7 16  1  0
  8  9  1  0
  8 17  1  0
  8 18  1  0
  9 10  1  0
 10 11  1  0
 10 20  1  0
 11 21  1  0
 11 22  1  0
 11 23  1  0
M  RAD  1  10   2
M  END
>  <reaction>  (19) 
rmg_rxn_15424

>  <mol_properties>  (19) 
{"1": {"label": "*4", "atom_type": "N3d"}, "2": {"label": "*3", "atom_type": "Cd"}, "8": {"label": "*0", "atom_type": "O2s"}, "9": {"label": "*1", "atom_type": "Cs"}, "18": {"label": "*2", "atom_type": "H0"}}

>  <type>  (19) 
unop_15

>  <geom_source>  (19) 
Heuristics

$$$$

     RDKit          3D

 23 21  0  0  0  0  0  0  0  0999 V2000
    0.7436    1.8352    3.5155 O   0  0  0  0  0  0  0  0  0  0  0  0
    0.7125    0.9968    2.4187 N   0  0  0  0  0  0  0  0  0  0  0  0
   -0.4454    0.9099    1.9237 C   0  0  0  0  0  0  0  0  0  0  0  0
    1.6631    1.8109    3.7876 H   0  0  0  0  0  0  0  0  0  0  0  0
   -1.3002    1.4438    2.3334 H   0  0  0  0  0  0  0  0  0  0  0  0
    0.6482   -2.4716   -2.9215 C   0  0  0  0  0  0  0  0  0  0  0  0
    0.6482   -2.4716   -1.3986 C   0  0  0  0  0  0  0  0  0  0  0  0
    0.6482   -1.0786   -0.8031 C   0  0  0  0  0  0  0  0  0  0  0  0
   -0.5348   -0.4150   -1.1707 O   0  0  0  0  0  0  0  0  0  0  0  0
   -0.6055    0.9031   -0.6898 C   0  0  0  0  0  3  0  0  0  0  0  0
   -1.9088    1.5209   -1.1406 C   0  0  0  0  0  0  0  0  0  0  0  0
    1.5303   -1.9573   -3.3111 H   0  0  0  0  0  0  0  0  0  0  0  0
   -0.2345   -1.9620   -3.3076 H   0  0  0  0  0  0  0  0  0  0  0  0
    0.6537   -3.4895   -3.3142 H   0  0  0  0  0  0  0  0  0  0  0  0
    1.5297   -2.9981   -1.0223 H   0  0  0  0  0  0  0  0  0  0  0  0
   -0.2262   -3.0096   -1.0233 H   0  0  0  0  0  0  0  0  0  0  0  0
    1.5224   -0.5135   -1.1635 H   0  0  0  0  0  0  0  0  0  0  0  0
    0.7230   -1.1325    0.2930 H   0  0  0  0  0  0  0  0  0  0  0  0
   -0.5248    0.9065    0.6279 H   0  0  0  0  0  0  0  0  0  0  0  0
    0.2474    1.4861   -1.0677 H   0  0  0  0  0  0  0  0  0  0  0  0
   -2.7552    0.9515   -0.7549 H   0  0  0  0  0  0  0  0  0  0  0  0
   -1.9696    1.5327   -2.2294 H   0  0  0  0  0  0  0  0  0  0  0  0
   -1.9864    2.5469   -0.7776 H   0  0  0  0  0  0  0  0  0  0  0  0
  1  2  1  0
  1  4  1  0
  2  3  2  3
  3  5  1  0
  3 19  1  0
  6  7  1  0
  6 12  1  0
  6 13  1  0
  6 14  1  0
  7  8  1  0
  7 15  1  0
  7 16  1  0
  8  9  1  0
  8 17  1  0
  8 18  1  0
  9 10  1  0
 10 11  1  0
 10 20  1  0
 11 21  1  0
 11 22  1  0
 11 23  1  0
M  RAD  1  10   2
M  END
>  <reaction>  (20) 
rmg_rxn_15424

>  <mol_properties>  (20) 
{"1": {"label": "*4", "atom_type": "N3d"}, "2": {"label": "*3", "atom_type": "Cd"}, "8": {"label": "*0", "atom_type": "O2s"}, "9": {"label": "*1", "atom_type": "Cs"}, "18": {"label": "*2", "atom_type": "H0"}}

>  <type>  (20) 
unop_16

>  <geom_source>  (20) 
Heuristics

$$$$

     RDKit          3D

 23 21  0  0  0  0  0  0  0  0999 V2000
    3.4681    0.1109   -0.0819 O   0  0  0  0  0  0  0  0  0  0  0  0
    2.0814    0.2292   -0.3384 N   0  0  0  0  0  0  0  0  0  0  0  0
    1.4089    1.0165    0.3459 C   0  0  0  0  0  0  0  0  0  0  0  0
    3.7738   -0.5485   -0.7190 H   0  0  0  0  0  0  0  0  0  0  0  0
    1.7482    1.6598    1.1500 H   0  0  0  0  0  0  0  0  0  0  0  0
   -0.2619   -2.2674    0.9489 C   0  0  0  0  0  0  0  0  0  0  0  0
   -0.5677   -1.8479   -0.4829 C   0  0  0  0  0  0  0  0  0  0  0  0
   -1.8753   -1.0547   -0.5665 C   0  0  0  0  0  0  0  0  0  0  0  0
   -1.8675    0.1331    0.1902 O   0  0  0  0  0  0  0  0  0  0  0  0
   -1.1476    1.1967   -0.3245 C   0  0  0  0  0  3  0  0  0  0  0  0
   -1.5868    2.5043    0.2856 C   0  0  0  0  0  0  0  0  0  0  0  0
   -0.2064   -1.3906    1.5889 H   0  0  0  0  0  0  0  0  0  0  0  0
    0.6901   -2.7895    0.9962 H   0  0  0  0  0  0  0  0  0  0  0  0
   -1.0396   -2.9247    1.3319 H   0  0  0  0  0  0  0  0  0  0  0  0
   -0.6680   -2.7289   -1.1196 H   0  0  0  0  0  0  0  0  0  0  0  0
    0.2521   -1.2370   -0.8646 H   0  0  0  0  0  0  0  0  0  0  0  0
   -2.6952   -1.6461   -0.1486 H   0  0  0  0  0  0  0  0  0  0  0  0
   -2.1017   -0.8261   -1.6187 H   0  0  0  0  0  0  0  0  0  0  0  0
    0.1614    1.0746    0.0258 H   0  0  0  0  0  0  0  0  0  0  0  0
   -1.1192    1.2023   -1.4192 H   0  0  0  0  0  0  0  0  0  0  0  0
   -1.5769    2.4265    1.3699 H   0  0  0  0  0  0  0  0  0  0  0  0
   -2.6021    2.7575   -0.0248 H   0  0  0  0  0  0  0  0  0  0  0  0
   -0.9184    3.3033   -0.0244 H   0  0  0  0  0  0  0  0  0  0  0  0
  1  2  1  0
  1  4  1  0
  2  3  2  3
  3  5  1  0
  3 19  1  0
  6  7  1  0
  6 12  1  0
  6 13  1  0
  6 14  1  0
  7  8  1  0
  7 15  1  0
  7 16  1  0
  8  9  1  0
  8 17  1  0
  8 18  1  0
  9 10  1  0
 10 11  1  0
 10 20  1  0
 11 21  1  0
 11 22  1  0
 11 23  1  0
M  RAD  1  10   2
M  END
>  <reaction>  (21) 
rmg_rxn_15424

>  <mol_properties>  (21) 
{"1": {"label": "*4", "atom_type": "N3d"}, "2": {"label": "*3", "atom_type": "Cd"}, "8": {"label": "*0", "atom_type": "O2s"}, "9": {"label": "*1", "atom_type": "Cs"}, "18": {"label": "*2", "atom_type": "H0"}}

>  <type>  (21) 
unop_17

>  <geom_source>  (21) 
Heuristics

$$$$

     RDKit          3D

 23 21  0  0  0  0  0  0  0  0999 V2000
   -0.7213    0.4810    3.8017 O   0  0  0  0  0  0  0  0  0  0  0  0
   -0.4842    0.2316    2.4643 N   0  0  0  0  0  0  0  0  0  0  0  0
   -0.0311    1.2476    1.8677 C   0  0  0  0  0  0  0  0  0  0  0  0
   -1.0560   -0.3566    4.1278 H   0  0  0  0  0  0  0  0  0  0  0  0
    0.1425    2.1955    2.3727 H   0  0  0  0  0  0  0  0  0  0  0  0
    1.0626   -2.1339   -2.9774 C   0  0  0  0  0  0  0  0  0  0  0  0
    1.0626   -2.1339   -1.4545 C   0  0  0  0  0  0  0  0  0  0  0  0
    1.0626   -0.7409   -0.8590 C   0  0  0  0  0  0  0  0  0  0  0  0
   -0.1204   -0.0773   -1.2266 O   0  0  0  0  0  0  0  0  0  0  0  0
   -0.1911    1.2408   -0.7457 C   0  0  0  0  0  3  0  0  0  0  0  0
   -1.4944    1.8586   -1.1965 C   0  0  0  0  0  0  0  0  0  0  0  0
    1.9447   -1.6196   -3.3671 H   0  0  0  0  0  0  0  0  0  0  0  0
    0.1799   -1.6242   -3.3635 H   0  0  0  0  0  0  0  0  0  0  0  0
    1.0681   -3.1518   -3.3701 H   0  0  0  0  0  0  0  0  0  0  0  0
    1.9441   -2.6604   -1.0783 H   0  0  0  0  0  0  0  0  0  0  0  0
    0.1882   -2.6719   -1.0793 H   0  0  0  0  0  0  0  0  0  0  0  0
    1.9368   -0.1758   -1.2194 H   0  0  0  0  0  0  0  0  0  0  0  0
    1.1374   -0.7948    0.2370 H   0  0  0  0  0  0  0  0  0  0  0  0
   -0.1104    1.2442    0.5720 H   0  0  0  0  0  0  0  0  0  0  0  0
    0.6617    1.8238   -1.1236 H   0  0  0  0  0  0  0  0  0  0  0  0
   -2.3408    1.2892   -0.8109 H   0  0  0  0  0  0  0  0  0  0  0  0
   -1.5552    1.8704   -2.2854 H   0  0  0  0  0  0  0  0  0  0  0  0
   -1.5720    2.8846   -0.8335 H   0  0  0  0  0  0  0  0  0  0  0  0
  1  2  1  0
  1  4  1  0
  2  3  2  3
  3  5  1  0
  3 19  1  0
  6  7  1  0
  6 12  1  0
  6 13  1  0
  6 14  1  0
  7  8  1  0
  7 15  1  0
  7 16  1  0
  8  9  1  0
  8 17  1  0
  8 18  1  0
  9 10  1  0
 10 11  1  0
 10 20  1  0
 11 21  1  0
 11 22  1  0
 11 23  1  0
M  RAD  1  10   2
M  END
>  <reaction>  (22) 
rmg_rxn_15424

>  <mol_properties>  (22) 
{"1": {"label": "*4", "atom_type": "N3d"}, "2": {"label": "*3", "atom_type": "Cd"}, "8": {"label": "*0", "atom_type": "O2s"}, "9": {"label": "*1", "atom_type": "Cs"}, "18": {"label": "*2", "atom_type": "H0"}}

>  <type>  (22) 
unop_18

>  <geom_source>  (22) 
Heuristics

$$$$

     RDKit          3D

 23 21  0  0  0  0  0  0  0  0999 V2000
    0.9332    1.2117    3.5952 O   0  0  0  0  0  0  0  0  0  0  0  0
    0.5882    0.5859    2.4135 N   0  0  0  0  0  0  0  0  0  0  0  0
   -0.4620    1.0732    1.9105 C   0  0  0  0  0  0  0  0  0  0  0  0
    1.7318    0.7535    3.8643 H   0  0  0  0  0  0  0  0  0  0  0  0
   -1.0105    1.8899    2.3748 H   0  0  0  0  0  0  0  0  0  0  0  0
    0.6317   -2.3084   -2.9347 C   0  0  0  0  0  0  0  0  0  0  0  0
    0.6317   -2.3084   -1.4118 C   0  0  0  0  0  0  0  0  0  0  0  0
    0.6317   -0.9153   -0.8163 C   0  0  0  0  0  0  0  0  0  0  0  0
   -0.5513   -0.2517   -1.1839 O   0  0  0  0  0  0  0  0  0  0  0  0
   -0.6220    1.0664   -0.7030 C   0  0  0  0  0  3  0  0  0  0  0  0
   -1.9253    1.6841   -1.1538 C   0  0  0  0  0  0  0  0  0  0  0  0
    1.5138   -1.7940   -3.3243 H   0  0  0  0  0  0  0  0  0  0  0  0
   -0.2510   -1.7987   -3.3208 H   0  0  0  0  0  0  0  0  0  0  0  0
    0.6372   -3.3262   -3.3274 H   0  0  0  0  0  0  0  0  0  0  0  0
    1.5132   -2.8348   -1.0355 H   0  0  0  0  0  0  0  0  0  0  0  0
   -0.2427   -2.8463   -1.0365 H   0  0  0  0  0  0  0  0  0  0  0  0
    1.5059   -0.3502   -1.1767 H   0  0  0  0  0  0  0  0  0  0  0  0
    0.7065   -0.9692    0.2798 H   0  0  0  0  0  0  0  0  0  0  0  0
   -0.5413    1.0698    0.6147 H   0  0  0  0  0  0  0  0  0  0  0  0
    0.2308    1.6493   -1.0809 H   0  0  0  0  0  0  0  0  0  0  0  0
   -2.7717    1.1147   -0.7681 H   0  0  0  0  0  0  0  0  0  0  0  0
   -1.9862    1.6960   -2.2426 H   0  0  0  0  0  0  0  0  0  0  0  0
   -2.0030    2.7102   -0.7908 H   0  0  0  0  0  0  0  0  0  0  0  0
  1  2  1  0
  1  4  1  0
  2  3  2  3
  3  5  1  0
  3 19  1  0
  6  7  1  0
  6 12  1  0
  6 13  1  0
  6 14  1  0
  7  8  1  0
  7 15  1  0
  7 16  1  0
  8  9  1  0
  8 17  1  0
  8 18  1  0
  9 10  1  0
 10 11  1  0
 10 20  1  0
 11 21  1  0
 11 22  1  0
 11 23  1  0
M  RAD  1  10   2
M  END
>  <reaction>  (23) 
rmg_rxn_15424

>  <mol_properties>  (23) 
{"1": {"label": "*4", "atom_type": "N3d"}, "2": {"label": "*3", "atom_type": "Cd"}, "8": {"label": "*0", "atom_type": "O2s"}, "9": {"label": "*1", "atom_type": "Cs"}, "18": {"label": "*2", "atom_type": "H0"}}

>  <type>  (23) 
unop_19

>  <geom_source>  (23) 
Heuristics

$$$$

     RDKit          3D

 23 21  0  0  0  0  0  0  0  0999 V2000
   -0.0595    2.0848    3.6457 O   0  0  0  0  0  0  0  0  0  0  0  0
   -0.7167    1.7056    2.4918 N   0  0  0  0  0  0  0  0  0  0  0  0
   -0.1155    0.7721    1.8913 C   0  0  0  0  0  0  0  0  0  0  0  0
   -0.6121    2.7865    3.9955 H   0  0  0  0  0  0  0  0  0  0  0  0
    0.8099    0.3364    2.2619 H   0  0  0  0  0  0  0  0  0  0  0  0
    0.9782   -2.6094   -2.9539 C   0  0  0  0  0  0  0  0  0  0  0  0
    0.9782   -2.6094   -1.4310 C   0  0  0  0  0  0  0  0  0  0  0  0
    0.9782   -1.2163   -0.8355 C   0  0  0  0  0  0  0  0  0  0  0  0
   -0.2048   -0.5527   -1.2031 O   0  0  0  0  0  0  0  0  0  0  0  0
   -0.2755    0.7654   -0.7222 C   0  0  0  0  0  3  0  0  0  0  0  0
   -1.5789    1.3831   -1.1730 C   0  0  0  0  0  0  0  0  0  0  0  0
    1.8603   -2.0950   -3.3435 H   0  0  0  0  0  0  0  0  0  0  0  0
    0.0955   -2.0997   -3.3400 H   0  0  0  0  0  0  0  0  0  0  0  0
    0.9837   -3.6272   -3.3466 H   0  0  0  0  0  0  0  0  0  0  0  0
    1.8597   -3.1358   -1.0547 H   0  0  0  0  0  0  0  0  0  0  0  0
    0.1038   -3.1473   -1.0557 H   0  0  0  0  0  0  0  0  0  0  0  0
    1.8524   -0.6512   -1.1959 H   0  0  0  0  0  0  0  0  0  0  0  0
    1.0530   -1.2702    0.2606 H   0  0  0  0  0  0  0  0  0  0  0  0
   -0.1948    0.7688    0.5955 H   0  0  0  0  0  0  0  0  0  0  0  0
    0.5773    1.3483   -1.1001 H   0  0  0  0  0  0  0  0  0  0  0  0
   -2.4252    0.8137   -0.7873 H   0  0  0  0  0  0  0  0  0  0  0  0
   -1.6397    1.3950   -2.2618 H   0  0  0  0  0  0  0  0  0  0  0  0
   -1.6565    2.4092   -0.8100 H   0  0  0  0  0  0  0  0  0  0  0  0
  1  2  1  0
  1  4  1  0
  2  3  2  3
  3  5  1  0
  3 19  1  0
  6  7  1  0
  6 12  1  0
  6 13  1  0
  6 14  1  0
  7  8  1  0
  7 15  1  0
  7 16  1  0
  8  9  1  0
  8 17  1  0
  8 18  1  0
  9 10  1  0
 10 11  1  0
 10 20  1  0
 11 21  1  0
 11 22  1  0
 11 23  1  0
M  RAD  1  10   2
M  END
>  <reaction>  (24) 
rmg_rxn_15424

>  <mol_properties>  (24) 
{"1": {"label": "*4", "atom_type": "N3d"}, "2": {"label": "*3", "atom_type": "Cd"}, "8": {"label": "*0", "atom_type": "O2s"}, "9": {"label": "*1", "atom_type": "Cs"}, "18": {"label": "*2", "atom_type": "H0"}}

>  <type>  (24) 
unop_20

>  <geom_source>  (24) 
Heuristics

$$$$

     RDKit          3D

 23 21  0  0  0  0  0  0  0  0999 V2000
   -0.0117    0.2817    3.8068 O   0  0  0  0  0  0  0  0  0  0  0  0
   -0.0874    0.1669    2.4327 N   0  0  0  0  0  0  0  0  0  0  0  0
   -0.2075    1.2909    1.8710 C   0  0  0  0  0  0  0  0  0  0  0  0
    0.0755   -0.6270    4.1011 H   0  0  0  0  0  0  0  0  0  0  0  0
   -0.2442    2.2244    2.4286 H   0  0  0  0  0  0  0  0  0  0  0  0
    0.8862   -2.0906   -2.9741 C   0  0  0  0  0  0  0  0  0  0  0  0
    0.8862   -2.0906   -1.4512 C   0  0  0  0  0  0  0  0  0  0  0  0
    0.8862   -0.6975   -0.8557 C   0  0  0  0  0  0  0  0  0  0  0  0
   -0.2968   -0.0339   -1.2233 O   0  0  0  0  0  0  0  0  0  0  0  0
   -0.3675    1.2841   -0.7424 C   0  0  0  0  0  3  0  0  0  0  0  0
   -1.6708    1.9019   -1.1933 C   0  0  0  0  0  0  0  0  0  0  0  0
    1.7683   -1.5762   -3.3638 H   0  0  0  0  0  0  0  0  0  0  0  0
    0.0035   -1.5809   -3.3602 H   0  0  0  0  0  0  0  0  0  0  0  0
    0.8917   -3.1084   -3.3668 H   0  0  0  0  0  0  0  0  0  0  0  0
    1.7677   -2.6170   -1.0750 H   0  0  0  0  0  0  0  0  0  0  0  0
    0.0118   -2.6285   -1.0760 H   0  0  0  0  0  0  0  0  0  0  0  0
    1.7604   -0.1324   -1.2161 H   0  0  0  0  0  0  0  0  0  0  0  0
    0.9610   -0.7514    0.2403 H   0  0  0  0  0  0  0  0  0  0  0  0
   -0.2868    1.2876    0.5753 H   0  0  0  0  0  0  0  0  0  0  0  0
    0.4853    1.8671   -1.1203 H   0  0  0  0  0  0  0  0  0  0  0  0
   -2.5172    1.3325   -0.8076 H   0  0  0  0  0  0  0  0  0  0  0  0
   -1.7316    1.9138   -2.2821 H   0  0  0  0  0  0  0  0  0  0  0  0
   -1.7485    2.9280   -0.8302 H   0  0  0  0  0  0  0  0  0  0  0  0
  1  2  1  0
  1  4  1  0
  2  3  2  3
  3  5  1  0
  3 19  1  0
  6  7  1  0
  6 12  1  0
  6 13  1  0
  6 14  1  0
  7  8  1  0
  7 15  1  0
  7 16  1  0
  8  9  1  0
  8 17  1  0
  8 18  1  0
  9 10  1  0
 10 11  1  0
 10 20  1  0
 11 21  1  0
 11 22  1  0
 11 23  1  0
M  RAD  1  10   2
M  END
>  <reaction>  (25) 
rmg_rxn_15424

>  <mol_properties>  (25) 
{"1": {"label": "*4", "atom_type": "N3d"}, "2": {"label": "*3", "atom_type": "Cd"}, "8": {"label": "*0", "atom_type": "O2s"}, "9": {"label": "*1", "atom_type": "Cs"}, "18": {"label": "*2", "atom_type": "H0"}}

>  <type>  (25) 
unop_21

>  <geom_source>  (25) 
Heuristics

$$$$

     RDKit          3D

 23 21  0  0  0  0  0  0  0  0999 V2000
   -0.3716    1.3145    0.0065 O   0  0  0  0  0  0  0  0  0  0  0  0
    2.3521   -2.0749    0.1057 O   0  0  0  0  0  0  0  0  0  0  0  0
    3.3254   -1.1064    0.0500 N   0  0  0  0  0  0  0  0  0  0  0  0
   -2.2466   -0.1515    0.4208 C   0  0  0  0  0  0  0  0  0  0  0  0
   -0.9049    0.3840    0.9295 C   0  0  0  0  0  0  0  0  0  0  0  0
    0.5728    0.6874   -0.8348 C   0  0  0  0  0  0  0  0  0  0  0  0
   -2.8883   -1.0942    1.4348 C   0  0  0  0  0  0  0  0  0  0  0  0
    1.0559    1.6843   -1.8755 C   0  0  0  0  0  0  0  0  0  0  0  0
    2.9997    0.1242   -0.1612 C   0  0  0  0  0  3  0  0  0  0  0  0
   -2.0951   -0.6991   -0.5339 H   0  0  0  0  0  0  0  0  0  0  0  0
   -2.9355    0.6998    0.2297 H   0  0  0  0  0  0  0  0  0  0  0  0
   -1.0783    0.9214    1.8864 H   0  0  0  0  0  0  0  0  0  0  0  0
   -0.2133   -0.4609    1.1641 H   0  0  0  0  0  0  0  0  0  0  0  0
    1.5576    0.3081   -0.1713 H   0  0  0  0  0  0  0  0  0  0  0  0
    0.1235   -0.1826   -1.3653 H   0  0  0  0  0  0  0  0  0  0  0  0
   -2.2261   -1.9659    1.6237 H   0  0  0  0  0  0  0  0  0  0  0  0
   -3.0769   -0.5621    2.3915 H   0  0  0  0  0  0  0  0  0  0  0  0
   -3.8570   -1.4638    1.0374 H   0  0  0  0  0  0  0  0  0  0  0  0
    0.2011    2.0348   -2.4922 H   0  0  0  0  0  0  0  0  0  0  0  0
    1.8049    1.2007   -2.5372 H   0  0  0  0  0  0  0  0  0  0  0  0
    1.5275    2.5561   -1.3747 H   0  0  0  0  0  0  0  0  0  0  0  0
    2.6075   -3.0402    0.2713 H   0  0  0  0  0  0  0  0  0  0  0  0
    3.7656    0.8863   -0.2051 H   0  0  0  0  0  0  0  0  0  0  0  0
  1  6  1  0
  1  5  1  0
  2  3  1  0
  2 22  1  0
  3  9  2  3
  4  7  1  0
  4  5  1  0
  4 10  1  0
  4 11  1  0
  5 12  1  0
  5 13  1  0
  6  8  1  0
  6 14  1  0
  6 15  1  0
  7 16  1  0
  7 17  1  0
  7 18  1  0
  8 19  1  0
  8 20  1  0
  8 21  1  0
  9 23  1  0
M  RAD  1   9   2
M  END
>  <reaction>  (26) 
rmg_rxn_15424

>  <mol_properties>  (26) 
{"1": {"label": "*4", "atom_type": "N3d"}, "2": {"label": "*3", "atom_type": "Cd"}, "8": {"label": "*0", "atom_type": "O2s"}, "9": {"label": "*1", "atom_type": "Cs"}, "18": {"label": "*2", "atom_type": "H0"}}

>  <type>  (26) 
unop_22

>  <geom_source>  (26) 
AutoTST

$$$$

     RDKit          3D

 23 21  0  0  0  0  0  0  0  0999 V2000
    0.6537    0.5856    3.7172 O   0  0  0  0  0  0  0  0  0  0  0  0
    0.2959    0.2909    2.4163 N   0  0  0  0  0  0  0  0  0  0  0  0
   -0.3744    1.2215    1.8888 C   0  0  0  0  0  0  0  0  0  0  0  0
    1.1480   -0.1890    3.9924 H   0  0  0  0  0  0  0  0  0  0  0  0
   -0.6261    2.1370    2.4199 H   0  0  0  0  0  0  0  0  0  0  0  0
    0.7193   -2.1600   -2.9563 C   0  0  0  0  0  0  0  0  0  0  0  0
    0.7193   -2.1600   -1.4334 C   0  0  0  0  0  0  0  0  0  0  0  0
    0.7193   -0.7670   -0.8379 C   0  0  0  0  0  0  0  0  0  0  0  0
   -0.4637   -0.1034   -1.2055 O   0  0  0  0  0  0  0  0  0  0  0  0
   -0.5344    1.2147   -0.7246 C   0  0  0  0  0  3  0  0  0  0  0  0
   -1.8378    1.8325   -1.1755 C   0  0  0  0  0  0  0  0  0  0  0  0
    1.6013   -1.6457   -3.3460 H   0  0  0  0  0  0  0  0  0  0  0  0
   -0.1635   -1.6503   -3.3424 H   0  0  0  0  0  0  0  0  0  0  0  0
    0.7247   -3.1779   -3.3490 H   0  0  0  0  0  0  0  0  0  0  0  0
    1.6008   -2.6865   -1.0572 H   0  0  0  0  0  0  0  0  0  0  0  0
   -0.1551   -2.6980   -1.0582 H   0  0  0  0  0  0  0  0  0  0  0  0
    1.5935   -0.2019   -1.1983 H   0  0  0  0  0  0  0  0  0  0  0  0
    0.7941   -0.8209    0.2581 H   0  0  0  0  0  0  0  0  0  0  0  0
   -0.4537    1.2181    0.5931 H   0  0  0  0  0  0  0  0  0  0  0  0
    0.3184    1.7977   -1.1025 H   0  0  0  0  0  0  0  0  0  0  0  0
   -2.6841    1.2631   -0.7898 H   0  0  0  0  0  0  0  0  0  0  0  0
   -1.8986    1.8443   -2.2643 H   0  0  0  0  0  0  0  0  0  0  0  0
   -1.9154    2.8585   -0.8124 H   0  0  0  0  0  0  0  0  0  0  0  0
  1  2  1  0
  1  4  1  0
  2  3  2  3
  3  5  1  0
  3 19  1  0
  6  7  1  0
  6 12  1  0
  6 13  1  0
  6 14  1  0
  7  8  1  0
  7 15  1  0
  7 16  1  0
  8  9  1  0
  8 17  1  0
  8 18  1  0
  9 10  1  0
 10 11  1  0
 10 20  1  0
 11 21  1  0
 11 22  1  0
 11 23  1  0
M  RAD  1  10   2
M  END
>  <reaction>  (27) 
rmg_rxn_15424

>  <mol_properties>  (27) 
{"1": {"label": "*4", "atom_type": "N3d"}, "2": {"label": "*3", "atom_type": "Cd"}, "8": {"label": "*0", "atom_type": "O2s"}, "9": {"label": "*1", "atom_type": "Cs"}, "18": {"label": "*2", "atom_type": "H0"}}

>  <type>  (27) 
unop_23

>  <geom_source>  (27) 
gaussian_log

$$$$
