
     RDKit          3D

 18 17  0  0  0  0  0  0  0  0999 V2000
    2.2026   -0.7213   -0.2612 C   0  0  0  0  0  0  0  0  0  0  0  0
    1.5384    0.2638    0.6915 C   0  0  0  0  0  0  0  0  0  0  0  0
    2.2584    1.5946    0.7694 C   0  0  0  0  0  0  0  0  0  0  0  0
    2.2212    2.2185   -0.4893 O   0  0  0  0  0  0  0  0  0  0  0  0
    2.8988    3.4488   -0.5204 C   0  0  0  0  0  0  0  0  0  0  0  0
    2.7981    4.0296   -1.9118 C   0  0  0  0  0  0  0  0  0  0  0  0
    3.2294   -0.9309    0.0486 H   0  0  0  0  0  0  0  0  0  0  0  0
    2.2338   -0.3181   -1.2734 H   0  0  0  0  0  0  0  0  0  0  0  0
    1.6610   -1.6680   -0.2875 H   0  0  0  0  0  0  0  0  0  0  0  0
    1.4990   -0.1566    1.7002 H   0  0  0  0  0  0  0  0  0  0  0  0
    0.5055    0.4455    0.3835 H   0  0  0  0  0  0  0  0  0  0  0  0
    3.3038    1.4410    1.0808 H   0  0  0  0  0  0  0  0  0  0  0  0
    1.7844    2.2410    1.5226 H   0  0  0  0  0  0  0  0  0  0  0  0
    2.4596    4.1376    0.2164 H   0  0  0  0  0  0  0  0  0  0  0  0
    3.9524    3.3035   -0.2397 H   0  0  0  0  0  0  0  0  0  0  0  0
    1.7543    4.1869   -2.1856 H   0  0  0  0  0  0  0  0  0  0  0  0
    3.2472    3.3545   -2.6411 H   0  0  0  0  0  0  0  0  0  0  0  0
    3.3178    4.9878   -1.9600 H   0  0  0  0  0  0  0  0  0  0  0  0
  1  2  1  0
  1  7  1  0
  1  8  1  0
  1  9  1  0
  2  3  1  0
  2 10  1  0
  2 11  1  0
  3  4  1  0
  3 12  1  0
  3 13  1  0
  4  5  1  0
  5  6  1  0
  5 14  1  0
  5 15  1  0
  6 16  1  0
  6 17  1  0
  6 18  1  0
M  END
>  <reaction>  (1) 
rmg_rxn_278

>  <mol_properties>  (1) 
{"4": {"label": "donator", "atom_type": "Cs"}, "13": {"label": "d_hydrogen", "atom_type": "H0"}}

>  <type>  (1) 
r1h

$$$$

     RDKit          3D

 13 12  0  0  0  0  0  0  0  0999 V2000
    1.9060    0.2628    0.3980 C   0  0  0  0  0  0  0  0  0  0  0  0
    0.6330   -0.4250    0.0685 C   0  0  0  0  0  3  0  0  0  0  0  0
   -0.2610   -0.9325    1.1416 C   0  0  0  0  0  0  0  0  0  0  0  0
   -1.4364   -1.7546    0.6268 C   0  0  0  0  0  0  0  0  0  0  0  0
    2.4899   -0.3070    1.1292 H   0  0  0  0  0  0  0  0  0  0  0  0
    1.7297    1.2496    0.8515 H   0  0  0  0  0  0  0  0  0  0  0  0
    2.5269    0.4197   -0.4845 H   0  0  0  0  0  0  0  0  0  0  0  0
    0.2597   -0.3936   -0.9489 H   0  0  0  0  0  0  0  0  0  0  0  0
   -0.6439   -0.0868    1.7356 H   0  0  0  0  0  0  0  0  0  0  0  0
    0.3260   -1.5277    1.8536 H   0  0  0  0  0  0  0  0  0  0  0  0
   -1.0872   -2.6320    0.0792 H   0  0  0  0  0  0  0  0  0  0  0  0
   -2.0701   -2.0976    1.4459 H   0  0  0  0  0  0  0  0  0  0  0  0
   -2.0561   -1.1637   -0.0512 H   0  0  0  0  0  0  0  0  0  0  0  0
  1  2  1  0
  1  5  1  0
  1  6  1  0
  1  7  1  0
  2  3  1  0
  2  8  1  0
  3  4  1  0
  3  9  1  0
  3 10  1  0
  4 11  1  0
  4 12  1  0
  4 13  1  0
M  RAD  1   2   2
M  END
>  <reaction>  (2) 
rmg_rxn_278

>  <mol_properties>  (2) 
{"1": {"label": "acceptor", "atom_type": "Cs"}}

>  <type>  (2) 
r2

$$$$

     RDKit          3D

 14 13  0  0  0  0  0  0  0  0999 V2000
    1.8106   -0.5953    0.5577 C   0  0  0  0  0  0  0  0  0  0  0  0
    0.5197    0.2064    0.6554 C   0  0  0  0  0  0  0  0  0  0  0  0
   -0.5206   -0.2080   -0.3788 C   0  0  0  0  0  0  0  0  0  0  0  0
   -1.8114    0.5937   -0.2812 C   0  0  0  0  0  0  0  0  0  0  0  0
    2.2725   -0.4752   -0.4251 H   0  0  0  0  0  0  0  0  0  0  0  0
    1.6214   -1.6612    0.7052 H   0  0  0  0  0  0  0  0  0  0  0  0
    2.5364   -0.2784    1.3084 H   0  0  0  0  0  0  0  0  0  0  0  0
    0.0930    0.0950    1.6574 H   0  0  0  0  0  0  0  0  0  0  0  0
    0.7393    1.2723    0.5354 H   0  0  0  0  0  0  0  0  0  0  0  0
   -0.7402   -1.2739   -0.2588 H   0  0  0  0  0  0  0  0  0  0  0  0
   -0.0938   -0.0965   -1.3808 H   0  0  0  0  0  0  0  0  0  0  0  0
   -1.6222    1.6596   -0.4287 H   0  0  0  0  0  0  0  0  0  0  0  0
   -2.2734    0.4736    0.7017 H   0  0  0  0  0  0  0  0  0  0  0  0
   -2.5373    0.2768   -1.0318 H   0  0  0  0  0  0  0  0  0  0  0  0
  1  2  1  0
  1  5  1  0
  1  6  1  0
  1  7  1  0
  2  3  1  0
  2  8  1  0
  2  9  1  0
  3  4  1  0
  3 10  1  0
  3 11  1  0
  4 12  1  0
  4 13  1  0
  4 14  1  0
M  END
>  <reaction>  (3) 
rmg_rxn_278

>  <mol_properties>  (3) 
{"1": {"label": "acceptor", "atom_type": "Cs"}, "13": {"label": "a_hydrogen", "atom_type": "H0"}}

>  <type>  (3) 
r2h

$$$$

     RDKit          3D

 31 29  0  0  0  0  0  0  0  0999 V2000
   -0.2906    2.7441    2.0636 C   0  0  0  0  0  0  0  0  0  0  0  0
    0.2504    1.3690    1.7740 C   0  0  0  0  0  3  0  0  0  0  0  0
   -0.2853    0.2491    2.6291 C   0  0  0  0  0  0  0  0  0  0  0  0
    0.2570   -1.1210    2.2400 C   0  0  0  0  0  0  0  0  0  0  0  0
   -0.0030    3.0885    3.0638 H   0  0  0  0  0  0  0  0  0  0  0  0
   -1.3833    2.7509    2.0230 H   0  0  0  0  0  0  0  0  0  0  0  0
    0.0766    3.4801    1.3455 H   0  0  0  0  0  0  0  0  0  0  0  0
    1.3386    1.3470    1.6822 H   0  0  0  0  0  0  0  0  0  0  0  0
   -1.3793    0.2435    2.5668 H   0  0  0  0  0  0  0  0  0  0  0  0
   -0.0506    0.4506    3.6834 H   0  0  0  0  0  0  0  0  0  0  0  0
    1.3482   -1.1375    2.3013 H   0  0  0  0  0  0  0  0  0  0  0  0
   -0.1246   -1.9015    2.9001 H   0  0  0  0  0  0  0  0  0  0  0  0
   -0.0250   -1.3738    1.2162 H   0  0  0  0  0  0  0  0  0  0  0  0
    0.9562   -2.2530   -3.0942 C   0  0  0  0  0  0  0  0  0  0  0  0
    1.5752   -1.8383   -1.7661 C   0  0  0  0  0  0  0  0  0  0  0  0
    1.1723   -0.4467   -1.3269 C   0  0  0  0  0  0  0  0  0  0  0  0
   -0.2230   -0.4107   -1.1236 O   0  0  0  0  0  0  0  0  0  0  0  0
   -0.6995    0.8208   -0.7098 C   0  0  0  0  0  0  0  0  0  0  0  0
   -2.1869    0.7863   -0.5244 C   0  0  0  0  0  0  0  0  0  0  0  0
    1.2523   -1.5685   -3.8929 H   0  0  0  0  0  0  0  0  0  0  0  0
   -0.1321   -2.2453   -3.0329 H   0  0  0  0  0  0  0  0  0  0  0  0
    1.2743   -3.2570   -3.3786 H   0  0  0  0  0  0  0  0  0  0  0  0
    2.6662   -1.8644   -1.8343 H   0  0  0  0  0  0  0  0  0  0  0  0
    1.2911   -2.5446   -0.9814 H   0  0  0  0  0  0  0  0  0  0  0  0
    1.4521    0.2945   -2.0904 H   0  0  0  0  0  0  0  0  0  0  0  0
    1.6853   -0.1755   -0.3957 H   0  0  0  0  0  0  0  0  0  0  0  0
   -0.1735    1.0952    0.4863 H   0  0  0  0  0  0  0  0  0  0  0  0
   -0.3449    1.6389   -1.3508 H   0  0  0  0  0  0  0  0  0  0  0  0
   -2.4610    0.0222    0.2056 H   0  0  0  0  0  0  0  0  0  0  0  0
   -2.7023    0.5593   -1.4618 H   0  0  0  0  0  0  0  0  0  0  0  0
   -2.5410    1.7526   -0.1625 H   0  0  0  0  0  0  0  0  0  0  0  0
  1  2  1  0
  1  5  1  0
  1  6  1  0
  1  7  1  0
  2  3  1  0
  2  8  1  0
  3  4  1  0
  3  9  1  0
  3 10  1  0
  4 11  1  0
  4 12  1  0
  4 13  1  0
 14 15  1  0
 14 20  1  0
 14 21  1  0
 14 22  1  0
 15 16  1  0
 15 23  1  0
 15 24  1  0
 16 17  1  0
 16 25  1  0
 16 26  1  0
 17 18  1  0
 18 19  1  0
 18 27  1  0
 18 28  1  0
 19 29  1  0
 19 30  1  0
 19 31  1  0
M  RAD  1   2   2
M  END
>  <reaction>  (4) 
rmg_rxn_278

>  <mol_properties>  (4) 
{"1": {"label": "*3", "atom_type": "Cs"}, "2": {"label": "*4", "atom_type": "Cs"}, "16": {"label": "*0", "atom_type": "O2s"}, "17": {"label": "*1", "atom_type": "Cs"}, "26": {"label": "*2", "atom_type": "H0"}}

>  <type>  (4) 
ts

$$$$

     RDKit          3D

 31 29  0  0  0  0  0  0  0  0999 V2000
   -0.0042   -0.4814    2.8374 C   0  0  0  0  0  0  0  0  0  0  0  0
   -0.2815    0.6867    1.9007 C   0  0  0  0  0  0  0  0  0  0  0  0
    0.3713    1.9863    2.3571 C   0  0  0  0  0  0  0  0  0  0  0  0
    0.0940    3.1544    1.4205 C   0  0  0  0  0  0  0  0  0  0  0  0
   -0.3768   -0.2735    3.8432 H   0  0  0  0  0  0  0  0  0  0  0  0
    1.0684   -0.6738    2.9161 H   0  0  0  0  0  0  0  0  0  0  0  0
   -0.4826   -1.3976    2.4873 H   0  0  0  0  0  0  0  0  0  0  0  0
   -1.3621    0.8396    1.8142 H   0  0  0  0  0  0  0  0  0  0  0  0
    1.4519    1.8334    2.4436 H   0  0  0  0  0  0  0  0  0  0  0  0
    0.0174    2.2308    3.3639 H   0  0  0  0  0  0  0  0  0  0  0  0
   -0.9786    3.3468    1.3417 H   0  0  0  0  0  0  0  0  0  0  0  0
    0.5724    4.0706    1.7706 H   0  0  0  0  0  0  0  0  0  0  0  0
    0.4666    2.9465    0.4146 H   0  0  0  0  0  0  0  0  0  0  0  0
    0.8112   -2.6949   -2.9600 C   0  0  0  0  0  0  0  0  0  0  0  0
    0.8112   -2.6949   -1.4371 C   0  0  0  0  0  0  0  0  0  0  0  0
    0.8112   -1.3018   -0.8416 C   0  0  0  0  0  0  0  0  0  0  0  0
   -0.3718   -0.6382   -1.2092 O   0  0  0  0  0  0  0  0  0  0  0  0
   -0.4425    0.6798   -0.7283 C   0  0  0  0  0  3  0  0  0  0  0  0
   -1.7458    1.2976   -1.1791 C   0  0  0  0  0  0  0  0  0  0  0  0
    1.6933   -2.1805   -3.3496 H   0  0  0  0  0  0  0  0  0  0  0  0
   -0.0715   -2.1852   -3.3461 H   0  0  0  0  0  0  0  0  0  0  0  0
    0.8167   -3.7127   -3.3527 H   0  0  0  0  0  0  0  0  0  0  0  0
    1.6927   -3.2213   -1.0608 H   0  0  0  0  0  0  0  0  0  0  0  0
   -0.0632   -3.2328   -1.0618 H   0  0  0  0  0  0  0  0  0  0  0  0
    1.6854   -0.7367   -1.2020 H   0  0  0  0  0  0  0  0  0  0  0  0
    0.8860   -1.3557    0.2545 H   0  0  0  0  0  0  0  0  0  0  0  0
   -0.3618    0.6833    0.5894 H   0  0  0  0  0  0  0  0  0  0  0  0
    0.4103    1.2628   -1.1062 H   0  0  0  0  0  0  0  0  0  0  0  0
   -2.5922    0.7282   -0.7934 H   0  0  0  0  0  0  0  0  0  0  0  0
   -1.8066    1.3095   -2.2679 H   0  0  0  0  0  0  0  0  0  0  0  0
   -1.8234    2.3237   -0.8161 H   0  0  0  0  0  0  0  0  0  0  0  0
  1  2  1  0
  1  5  1  0
  1  6  1  0
  1  7  1  0
  2  3  1  0
  2  8  1  0
  2 27  1  0
  3  4  1  0
  3  9  1  0
  3 10  1  0
  4 11  1  0
  4 12  1  0
  4 13  1  0
 14 15  1  0
 14 20  1  0
 14 21  1  0
 14 22  1  0
 15 16  1  0
 15 23  1  0
 15 24  1  0
 16 17  1  0
 16 25  1  0
 16 26  1  0
 17 18  1  0
 18 19  1  0
 18 28  1  0
 19 29  1  0
 19 30  1  0
 19 31  1  0
M  RAD  1  18   2
M  END
>  <reaction>  (5) 
rmg_rxn_278

>  <mol_properties>  (5) 
{"1": {"label": "*3", "atom_type": "Cs"}, "2": {"label": "*4", "atom_type": "Cs"}, "16": {"label": "*0", "atom_type": "O2s"}, "17": {"label": "*1", "atom_type": "Cs"}, "26": {"label": "*2", "atom_type": "H0"}}

>  <type>  (5) 
unop_1

>  <geom_source>  (5) 
Heuristics

$$$$

     RDKit          3D

 31 29  0  0  0  0  0  0  0  0999 V2000
   -1.5045    0.9388    2.9704 C   0  0  0  0  0  0  0  0  0  0  0  0
   -0.4211    1.0696    1.9085 C   0  0  0  0  0  0  0  0  0  0  0  0
    0.9054    0.4472    2.3287 C   0  0  0  0  0  0  0  0  0  0  0  0
    1.9889    0.5781    1.2667 C   0  0  0  0  0  0  0  0  0  0  0  0
   -1.2028    1.4280    3.8997 H   0  0  0  0  0  0  0  0  0  0  0  0
   -1.7031   -0.1109    3.1997 H   0  0  0  0  0  0  0  0  0  0  0  0
   -2.4419    1.3921    2.6440 H   0  0  0  0  0  0  0  0  0  0  0  0
   -0.2623    2.1272    1.6741 H   0  0  0  0  0  0  0  0  0  0  0  0
    0.7467   -0.6103    2.5631 H   0  0  0  0  0  0  0  0  0  0  0  0
    1.2433    0.9172    3.2579 H   0  0  0  0  0  0  0  0  0  0  0  0
    2.1875    1.6277    1.0375 H   0  0  0  0  0  0  0  0  0  0  0  0
    2.9263    0.1248    1.5932 H   0  0  0  0  0  0  0  0  0  0  0  0
    1.6872    0.0889    0.3375 H   0  0  0  0  0  0  0  0  0  0  0  0
    0.6716   -2.3119   -2.9522 C   0  0  0  0  0  0  0  0  0  0  0  0
    0.6716   -2.3119   -1.4293 C   0  0  0  0  0  0  0  0  0  0  0  0
    0.6716   -0.9189   -0.8338 C   0  0  0  0  0  0  0  0  0  0  0  0
   -0.5114   -0.2553   -1.2014 O   0  0  0  0  0  0  0  0  0  0  0  0
   -0.5821    1.0628   -0.7205 C   0  0  0  0  0  3  0  0  0  0  0  0
   -1.8854    1.6806   -1.1713 C   0  0  0  0  0  0  0  0  0  0  0  0
    1.5537   -1.7976   -3.3418 H   0  0  0  0  0  0  0  0  0  0  0  0
   -0.2111   -1.8023   -3.3383 H   0  0  0  0  0  0  0  0  0  0  0  0
    0.6771   -3.3298   -3.3449 H   0  0  0  0  0  0  0  0  0  0  0  0
    1.5531   -2.8384   -1.0530 H   0  0  0  0  0  0  0  0  0  0  0  0
   -0.2028   -2.8499   -1.0540 H   0  0  0  0  0  0  0  0  0  0  0  0
    1.5458   -0.3538   -1.1942 H   0  0  0  0  0  0  0  0  0  0  0  0
    0.7464   -0.9728    0.2623 H   0  0  0  0  0  0  0  0  0  0  0  0
   -0.5014    1.0662    0.5972 H   0  0  0  0  0  0  0  0  0  0  0  0
    0.2708    1.6458   -1.0984 H   0  0  0  0  0  0  0  0  0  0  0  0
   -2.7318    1.1112   -0.7856 H   0  0  0  0  0  0  0  0  0  0  0  0
   -1.9462    1.6924   -2.2601 H   0  0  0  0  0  0  0  0  0  0  0  0
   -1.9630    2.7066   -0.8083 H   0  0  0  0  0  0  0  0  0  0  0  0
  1  2  1  0
  1  5  1  0
  1  6  1  0
  1  7  1  0
  2  3  1  0
  2  8  1  0
  2 27  1  0
  3  4  1  0
  3  9  1  0
  3 10  1  0
  4 11  1  0
  4 12  1  0
  4 13  1  0
 14 15  1  0
 14 20  1  0
 14 21  1  0
 14 22  1  0
 15 16  1  0
 15 23  1  0
 15 24  1  0
 16 17  1  0
 16 25  1  0
 16 26  1  0
 17 18  1  0
 18 19  1  0
 18 28  1  0
 19 29  1  0
 19 30  1  0
 19 31  1  0
M  RAD  1  18   2
M  END
>  <reaction>  (6) 
rmg_rxn_278

>  <mol_properties>  (6) 
{"1": {"label": "*3", "atom_type": "Cs"}, "2": {"label": "*4", "atom_type": "Cs"}, "16": {"label": "*0", "atom_type": "O2s"}, "17": {"label": "*1", "atom_type": "Cs"}, "26": {"label": "*2", "atom_type": "H0"}}

>  <type>  (6) 
unop_2

>  <geom_source>  (6) 
Heuristics

$$$$

     RDKit          3D

 31 29  0  0  0  0  0  0  0  0999 V2000
    1.1336   -0.0543    2.3270 C   0  0  0  0  0  0  0  0  0  0  0  0
   -0.1381    0.6608    1.8912 C   0  0  0  0  0  0  0  0  0  0  0  0
   -0.2167    2.0983    2.3921 C   0  0  0  0  0  0  0  0  0  0  0  0
   -1.4884    2.8134    1.9563 C   0  0  0  0  0  0  0  0  0  0  0  0
    1.2079   -0.0916    3.4165 H   0  0  0  0  0  0  0  0  0  0  0  0
    2.0208    0.4625    1.9535 H   0  0  0  0  0  0  0  0  0  0  0  0
    1.1638   -1.0798    1.9553 H   0  0  0  0  0  0  0  0  0  0  0  0
   -1.0120    0.1079    2.2507 H   0  0  0  0  0  0  0  0  0  0  0  0
    0.6572    2.6512    2.0326 H   0  0  0  0  0  0  0  0  0  0  0  0
   -0.1498    2.1011    3.4848 H   0  0  0  0  0  0  0  0  0  0  0  0
   -2.3756    2.2966    2.3298 H   0  0  0  0  0  0  0  0  0  0  0  0
   -1.5186    3.8389    2.3280 H   0  0  0  0  0  0  0  0  0  0  0  0
   -1.5627    2.8507    0.8668 H   0  0  0  0  0  0  0  0  0  0  0  0
    0.9546   -2.7208   -2.9695 C   0  0  0  0  0  0  0  0  0  0  0  0
    0.9546   -2.7208   -1.4466 C   0  0  0  0  0  0  0  0  0  0  0  0
    0.9546   -1.3277   -0.8511 C   0  0  0  0  0  0  0  0  0  0  0  0
   -0.2284   -0.6641   -1.2187 O   0  0  0  0  0  0  0  0  0  0  0  0
   -0.2991    0.6539   -0.7378 C   0  0  0  0  0  3  0  0  0  0  0  0
   -1.6024    1.2717   -1.1886 C   0  0  0  0  0  0  0  0  0  0  0  0
    1.8367   -2.2065   -3.3591 H   0  0  0  0  0  0  0  0  0  0  0  0
    0.0719   -2.2111   -3.3556 H   0  0  0  0  0  0  0  0  0  0  0  0
    0.9601   -3.7386   -3.3622 H   0  0  0  0  0  0  0  0  0  0  0  0
    1.8361   -3.2473   -1.0703 H   0  0  0  0  0  0  0  0  0  0  0  0
    0.0802   -3.2588   -1.0713 H   0  0  0  0  0  0  0  0  0  0  0  0
    1.8288   -0.7626   -1.2115 H   0  0  0  0  0  0  0  0  0  0  0  0
    1.0294   -1.3816    0.2450 H   0  0  0  0  0  0  0  0  0  0  0  0
   -0.2184    0.6574    0.5799 H   0  0  0  0  0  0  0  0  0  0  0  0
    0.5537    1.2369   -1.1157 H   0  0  0  0  0  0  0  0  0  0  0  0
   -2.4488    0.7023   -0.8029 H   0  0  0  0  0  0  0  0  0  0  0  0
   -1.6633    1.2836   -2.2774 H   0  0  0  0  0  0  0  0  0  0  0  0
   -1.6801    2.2977   -0.8255 H   0  0  0  0  0  0  0  0  0  0  0  0
  1  2  1  0
  1  5  1  0
  1  6  1  0
  1  7  1  0
  2  3  1  0
  2  8  1  0
  2 27  1  0
  3  4  1  0
  3  9  1  0
  3 10  1  0
  4 11  1  0
  4 12  1  0
  4 13  1  0
 14 15  1  0
 14 20  1  0
 14 21  1  0
 14 22  1  0
 15 16  1  0
 15 23  1  0
 15 24  1  0
 16 17  1  0
 16 25  1  0
 16 26  1  0
 17 18  1  0
 18 19  1  0
 18 28  1  0
 19 29  1  0
 19 30  1  0
 19 31  1  0
M  RAD  1  18   2
M  END
>  <reaction>  (7) 
rmg_rxn_278

>  <mol_properties>  (7) 
{"1": {"label": "*3", "atom_type": "Cs"}, "2": {"label": "*4", "atom_type": "Cs"}, "16": {"label": "*0", "atom_type": "O2s"}, "17": {"label": "*1", "atom_type": "Cs"}, "26": {"label": "*2", "atom_type": "H0"}}

>  <type>  (7) 
unop_3

>  <geom_source>  (7) 
Heuristics

$$$$

     RDKit          3D

 31 29  0  0  0  0  0  0  0  0999 V2000
   -0.9564    2.4045    2.0642 C   0  0  0  0  0  0  0  0  0  0  0  0
   -0.0334    1.2070    1.8837 C   0  0  0  0  0  0  0  0  0  0  0  0
   -0.6252   -0.0901    2.4231 C   0  0  0  0  0  0  0  0  0  0  0  0
    0.2979   -1.2876    2.2426 C   0  0  0  0  0  0  0  0  0  0  0  0
   -1.1795    2.5709    3.1208 H   0  0  0  0  0  0  0  0  0  0  0  0
   -1.9061    2.2480    1.5472 H   0  0  0  0  0  0  0  0  0  0  0  0
   -0.5086    3.3181    1.6700 H   0  0  0  0  0  0  0  0  0  0  0  0
    0.9212    1.4003    2.3837 H   0  0  0  0  0  0  0  0  0  0  0  0
   -1.5798   -0.2835    1.9232 H   0  0  0  0  0  0  0  0  0  0  0  0
   -0.8585    0.0370    3.4852 H   0  0  0  0  0  0  0  0  0  0  0  0
    1.2476   -1.1311    2.7597 H   0  0  0  0  0  0  0  0  0  0  0  0
   -0.1499   -2.2013    2.6368 H   0  0  0  0  0  0  0  0  0  0  0  0
    0.5210   -1.4540    1.1861 H   0  0  0  0  0  0  0  0  0  0  0  0
    1.0594   -2.1746   -2.9770 C   0  0  0  0  0  0  0  0  0  0  0  0
    1.0594   -2.1746   -1.4541 C   0  0  0  0  0  0  0  0  0  0  0  0
    1.0594   -0.7815   -0.8586 C   0  0  0  0  0  0  0  0  0  0  0  0
   -0.1236   -0.1179   -1.2262 O   0  0  0  0  0  0  0  0  0  0  0  0
   -0.1944    1.2001   -0.7453 C   0  0  0  0  0  3  0  0  0  0  0  0
   -1.4977    1.8179   -1.1961 C   0  0  0  0  0  0  0  0  0  0  0  0
    1.9414   -1.6603   -3.3666 H   0  0  0  0  0  0  0  0  0  0  0  0
    0.1766   -1.6649   -3.3631 H   0  0  0  0  0  0  0  0  0  0  0  0
    1.0648   -3.1925   -3.3697 H   0  0  0  0  0  0  0  0  0  0  0  0
    1.9409   -2.7011   -1.0778 H   0  0  0  0  0  0  0  0  0  0  0  0
    0.1850   -2.7126   -1.0788 H   0  0  0  0  0  0  0  0  0  0  0  0
    1.9335   -0.2165   -1.2190 H   0  0  0  0  0  0  0  0  0  0  0  0
    1.1341   -0.8355    0.2375 H   0  0  0  0  0  0  0  0  0  0  0  0
   -0.1137    1.2036    0.5724 H   0  0  0  0  0  0  0  0  0  0  0  0
    0.6585    1.7831   -1.1231 H   0  0  0  0  0  0  0  0  0  0  0  0
   -2.3440    1.2485   -0.8104 H   0  0  0  0  0  0  0  0  0  0  0  0
   -1.5585    1.8298   -2.2849 H   0  0  0  0  0  0  0  0  0  0  0  0
   -1.5753    2.8439   -0.8330 H   0  0  0  0  0  0  0  0  0  0  0  0
  1  2  1  0
  1  5  1  0
  1  6  1  0
  1  7  1  0
  2  3  1  0
  2  8  1  0
  2 27  1  0
  3  4  1  0
  3  9  1  0
  3 10  1  0
  4 11  1  0
  4 12  1  0
  4 13  1  0
 14 15  1  0
 14 20  1  0
 14 21  1  0
 14 22  1  0
 15 16  1  0
 15 23  1  0
 15 24  1  0
 16 17  1  0
 16 25  1  0
 16 26  1  0
 17 18  1  0
 18 19  1  0
 18 28  1  0
 19 29  1  0
 19 30  1  0
 19 31  1  0
M  RAD  1  18   2
M  END
>  <reaction>  (8) 
rmg_rxn_278

>  <mol_properties>  (8) 
{"1": {"label": "*3", "atom_type": "Cs"}, "2": {"label": "*4", "atom_type": "Cs"}, "16": {"label": "*0", "atom_type": "O2s"}, "17": {"label": "*1", "atom_type": "Cs"}, "26": {"label": "*2", "atom_type": "H0"}}

>  <type>  (8) 
unop_4

>  <geom_source>  (8) 
Heuristics

$$$$

     RDKit          3D

 31 29  0  0  0  0  0  0  0  0999 V2000
    1.4837    0.9990    1.7043 C   0  0  0  0  0  0  0  0  0  0  0  0
   -0.0002    0.7081    1.8834 C   0  0  0  0  0  0  0  0  0  0  0  0
   -0.7809    1.8987    2.4279 C   0  0  0  0  0  0  0  0  0  0  0  0
   -2.2648    1.6077    2.6070 C   0  0  0  0  0  0  0  0  0  0  0  0
    1.9458    1.2756    2.6550 H   0  0  0  0  0  0  0  0  0  0  0  0
    1.6389    1.8272    1.0088 H   0  0  0  0  0  0  0  0  0  0  0  0
    2.0176    0.1311    1.3140 H   0  0  0  0  0  0  0  0  0  0  0  0
   -0.1285   -0.1438    2.5591 H   0  0  0  0  0  0  0  0  0  0  0  0
   -0.6526    2.7505    1.7523 H   0  0  0  0  0  0  0  0  0  0  0  0
   -0.3480    2.2030    3.3863 H   0  0  0  0  0  0  0  0  0  0  0  0
   -2.4200    0.7795    3.3026 H   0  0  0  0  0  0  0  0  0  0  0  0
   -2.7987    2.4756    2.9974 H   0  0  0  0  0  0  0  0  0  0  0  0
   -2.7269    1.3311    1.6564 H   0  0  0  0  0  0  0  0  0  0  0  0
    1.0925   -2.6735   -2.9773 C   0  0  0  0  0  0  0  0  0  0  0  0
    1.0925   -2.6735   -1.4544 C   0  0  0  0  0  0  0  0  0  0  0  0
    1.0925   -1.2804   -0.8589 C   0  0  0  0  0  0  0  0  0  0  0  0
   -0.0905   -0.6168   -1.2265 O   0  0  0  0  0  0  0  0  0  0  0  0
   -0.1612    0.7012   -0.7456 C   0  0  0  0  0  3  0  0  0  0  0  0
   -1.4645    1.3190   -1.1964 C   0  0  0  0  0  0  0  0  0  0  0  0
    1.9746   -2.1591   -3.3669 H   0  0  0  0  0  0  0  0  0  0  0  0
    0.2098   -2.1638   -3.3634 H   0  0  0  0  0  0  0  0  0  0  0  0
    1.0980   -3.6913   -3.3700 H   0  0  0  0  0  0  0  0  0  0  0  0
    1.9740   -3.1999   -1.0781 H   0  0  0  0  0  0  0  0  0  0  0  0
    0.2181   -3.2114   -1.0791 H   0  0  0  0  0  0  0  0  0  0  0  0
    1.9667   -0.7153   -1.2193 H   0  0  0  0  0  0  0  0  0  0  0  0
    1.1673   -1.3343    0.2372 H   0  0  0  0  0  0  0  0  0  0  0  0
   -0.0805    0.7047    0.5721 H   0  0  0  0  0  0  0  0  0  0  0  0
    0.6917    1.2842   -1.1234 H   0  0  0  0  0  0  0  0  0  0  0  0
   -2.3109    0.7496   -0.8107 H   0  0  0  0  0  0  0  0  0  0  0  0
   -1.5253    1.3309   -2.2852 H   0  0  0  0  0  0  0  0  0  0  0  0
   -1.5421    2.3451   -0.8333 H   0  0  0  0  0  0  0  0  0  0  0  0
  1  2  1  0
  1  5  1  0
  1  6  1  0
  1  7  1  0
  2  3  1  0
  2  8  1  0
  2 27  1  0
  3  4  1  0
  3  9  1  0
  3 10  1  0
  4 11  1  0
  4 12  1  0
  4 13  1  0
 14 15  1  0
 14 20  1  0
 14 21  1  0
 14 22  1  0
 15 16  1  0
 15 23  1  0
 15 24  1  0
 16 17  1  0
 16 25  1  0
 16 26  1  0
 17 18  1  0
 18 19  1  0
 18 28  1  0
 19 29  1  0
 19 30  1  0
 19 31  1  0
M  RAD  1  18   2
M  END
>  <reaction>  (9) 
rmg_rxn_278

>  <mol_properties>  (9) 
{"1": {"label": "*3", "atom_type": "Cs"}, "2": {"label": "*4", "atom_type": "Cs"}, "16": {"label": "*0", "atom_type": "O2s"}, "17": {"label": "*1", "atom_type": "Cs"}, "26": {"label": "*2", "atom_type": "H0"}}

>  <type>  (9) 
unop_5

>  <geom_source>  (9) 
Heuristics

$$$$

     RDKit          3D

 31 29  0  0  0  0  0  0  0  0999 V2000
   -0.2515    2.5847    1.7122 C   0  0  0  0  0  0  0  0  0  0  0  0
    0.0800    1.1077    1.8777 C   0  0  0  0  0  0  0  0  0  0  0  0
   -1.0765    0.2965    2.4504 C   0  0  0  0  0  0  0  0  0  0  0  0
   -0.7450   -1.1805    2.6159 C   0  0  0  0  0  0  0  0  0  0  0  0
   -0.5139    3.0368    2.6716 H   0  0  0  0  0  0  0  0  0  0  0  0
   -1.1014    2.7220    1.0394 H   0  0  0  0  0  0  0  0  0  0  0  0
    0.5926    3.1408    1.3011 H   0  0  0  0  0  0  0  0  0  0  0  0
    0.9523    0.9979    2.5301 H   0  0  0  0  0  0  0  0  0  0  0  0
   -1.9488    0.4063    1.7980 H   0  0  0  0  0  0  0  0  0  0  0  0
   -1.3656    0.7187    3.4182 H   0  0  0  0  0  0  0  0  0  0  0  0
    0.1049   -1.3178    3.2887 H   0  0  0  0  0  0  0  0  0  0  0  0
   -1.5890   -1.7366    3.0270 H   0  0  0  0  0  0  0  0  0  0  0  0
   -0.4826   -1.6326    1.6565 H   0  0  0  0  0  0  0  0  0  0  0  0
    1.1727   -2.2738   -2.9830 C   0  0  0  0  0  0  0  0  0  0  0  0
    1.1727   -2.2738   -1.4601 C   0  0  0  0  0  0  0  0  0  0  0  0
    1.1727   -0.8808   -0.8646 C   0  0  0  0  0  0  0  0  0  0  0  0
   -0.0103   -0.2172   -1.2322 O   0  0  0  0  0  0  0  0  0  0  0  0
   -0.0810    1.1009   -0.7513 C   0  0  0  0  0  3  0  0  0  0  0  0
   -1.3843    1.7187   -1.2021 C   0  0  0  0  0  0  0  0  0  0  0  0
    2.0548   -1.7595   -3.3726 H   0  0  0  0  0  0  0  0  0  0  0  0
    0.2900   -1.7641   -3.3691 H   0  0  0  0  0  0  0  0  0  0  0  0
    1.1782   -3.2917   -3.3757 H   0  0  0  0  0  0  0  0  0  0  0  0
    2.0542   -2.8003   -1.0838 H   0  0  0  0  0  0  0  0  0  0  0  0
    0.2983   -2.8118   -1.0848 H   0  0  0  0  0  0  0  0  0  0  0  0
    2.0469   -0.3157   -1.2250 H   0  0  0  0  0  0  0  0  0  0  0  0
    1.2475   -0.9347    0.2315 H   0  0  0  0  0  0  0  0  0  0  0  0
   -0.0003    1.1043    0.5664 H   0  0  0  0  0  0  0  0  0  0  0  0
    0.7718    1.6839   -1.1292 H   0  0  0  0  0  0  0  0  0  0  0  0
   -2.2307    1.1493   -0.8164 H   0  0  0  0  0  0  0  0  0  0  0  0
   -1.4452    1.7305   -2.2909 H   0  0  0  0  0  0  0  0  0  0  0  0
   -1.4620    2.7447   -0.8391 H   0  0  0  0  0  0  0  0  0  0  0  0
  1  2  1  0
  1  5  1  0
  1  6  1  0
  1  7  1  0
  2  3  1  0
  2  8  1  0
  2 27  1  0
  3  4  1  0
  3  9  1  0
  3 10  1  0
  4 11  1  0
  4 12  1  0
  4 13  1  0
 14 15  1  0
 14 20  1  0
 14 21  1  0
 14 22  1  0
 15 16  1  0
 15 23  1  0
 15 24  1  0
 16 17  1  0
 16 25  1  0
 16 26  1  0
 17 18  1  0
 18 19  1  0
 18 28  1  0
 19 29  1  0
 19 30  1  0
 19 31  1  0
M  RAD  1  18   2
M  END
>  <reaction>  (10) 
rmg_rxn_278

>  <mol_properties>  (10) 
{"1": {"label": "*3", "atom_type": "Cs"}, "2": {"label": "*4", "atom_type": "Cs"}, "16": {"label": "*0", "atom_type": "O2s"}, "17": {"label": "*1", "atom_type": "Cs"}, "26": {"label": "*2", "atom_type": "H0"}}

>  <type>  (10) 
unop_6

>  <geom_source>  (10) 
Heuristics

$$$$

     RDKit          3D

 31 29  0  0  0  0  0  0  0  0999 V2000
    0.5098    2.3908    1.5002 C   0  0  0  0  0  0  0  0  0  0  0  0
    0.1278    0.9655    1.8757 C   0  0  0  0  0  0  0  0  0  0  0  0
   -1.2753    0.8577    2.4616 C   0  0  0  0  0  0  0  0  0  0  0  0
   -1.6573   -0.5677    2.8371 C   0  0  0  0  0  0  0  0  0  0  0  0
    0.4774    3.0475    2.3728 H   0  0  0  0  0  0  0  0  0  0  0  0
   -0.1788    2.7973    0.7556 H   0  0  0  0  0  0  0  0  0  0  0  0
    1.5174    2.4388    1.0839 H   0  0  0  0  0  0  0  0  0  0  0  0
    0.8491    0.5701    2.5981 H   0  0  0  0  0  0  0  0  0  0  0  0
   -1.9966    1.2531    1.7392 H   0  0  0  0  0  0  0  0  0  0  0  0
   -1.3452    1.5014    3.3444 H   0  0  0  0  0  0  0  0  0  0  0  0
   -0.9686   -0.9742    3.5817 H   0  0  0  0  0  0  0  0  0  0  0  0
   -2.6648   -0.6157    3.2534 H   0  0  0  0  0  0  0  0  0  0  0  0
   -1.6248   -1.2243    1.9645 H   0  0  0  0  0  0  0  0  0  0  0  0
    1.2205   -2.4161   -2.9851 C   0  0  0  0  0  0  0  0  0  0  0  0
    1.2205   -2.4161   -1.4622 C   0  0  0  0  0  0  0  0  0  0  0  0
    1.2205   -1.0230   -0.8666 C   0  0  0  0  0  0  0  0  0  0  0  0
    0.0375   -0.3594   -1.2342 O   0  0  0  0  0  0  0  0  0  0  0  0
   -0.0332    0.9586   -0.7533 C   0  0  0  0  0  3  0  0  0  0  0  0
   -1.3365    1.5764   -1.2042 C   0  0  0  0  0  0  0  0  0  0  0  0
    2.1026   -1.9018   -3.3747 H   0  0  0  0  0  0  0  0  0  0  0  0
    0.3378   -1.9064   -3.3711 H   0  0  0  0  0  0  0  0  0  0  0  0
    1.2260   -3.4340   -3.3777 H   0  0  0  0  0  0  0  0  0  0  0  0
    2.1020   -2.9426   -1.0859 H   0  0  0  0  0  0  0  0  0  0  0  0
    0.3461   -2.9541   -1.0869 H   0  0  0  0  0  0  0  0  0  0  0  0
    2.0947   -0.4580   -1.2270 H   0  0  0  0  0  0  0  0  0  0  0  0
    1.2953   -1.0770    0.2294 H   0  0  0  0  0  0  0  0  0  0  0  0
    0.0475    0.9620    0.5644 H   0  0  0  0  0  0  0  0  0  0  0  0
    0.8197    1.5416   -1.1312 H   0  0  0  0  0  0  0  0  0  0  0  0
   -2.1829    1.0070   -0.8185 H   0  0  0  0  0  0  0  0  0  0  0  0
   -1.3973    1.5883   -2.2930 H   0  0  0  0  0  0  0  0  0  0  0  0
   -1.4141    2.6024   -0.8411 H   0  0  0  0  0  0  0  0  0  0  0  0
  1  2  1  0
  1  5  1  0
  1  6  1  0
  1  7  1  0
  2  3  1  0
  2  8  1  0
  2 27  1  0
  3  4  1  0
  3  9  1  0
  3 10  1  0
  4 11  1  0
  4 12  1  0
  4 13  1  0
 14 15  1  0
 14 20  1  0
 14 21  1  0
 14 22  1  0
 15 16  1  0
 15 23  1  0
 15 24  1  0
 16 17  1  0
 16 25  1  0
 16 26  1  0
 17 18  1  0
 18 19  1  0
 18 28  1  0
 19 29  1  0
 19 30  1  0
 19 31  1  0
M  RAD  1  18   2
M  END
>  <reaction>  (11) 
rmg_rxn_278

>  <mol_properties>  (11) 
{"1": {"label": "*3", "atom_type": "Cs"}, "2": {"label": "*4", "atom_type": "Cs"}, "16": {"label": "*0", "atom_type": "O2s"}, "17": {"label": "*1", "atom_type": "Cs"}, "26": {"label": "*2", "atom_type": "H0"}}

>  <type>  (11) 
unop_7

>  <geom_source>  (11) 
Heuristics

$$$$

     RDKit          3D

 31 29  0  0  0  0  0  0  0  0999 V2000
   -0.8959   -0.1546    2.9998 C   0  0  0  0  0  0  0  0  0  0  0  0
   -0.3952    0.7815    1.9082 C   0  0  0  0  0  0  0  0  0  0  0  0
    0.8223    1.5954    2.3312 C   0  0  0  0  0  0  0  0  0  0  0  0
    1.3230    2.5315    1.2396 C   0  0  0  0  0  0  0  0  0  0  0  0
   -1.1811    0.4044    3.8942 H   0  0  0  0  0  0  0  0  0  0  0  0
   -0.1206   -0.8678    3.2897 H   0  0  0  0  0  0  0  0  0  0  0  0
   -1.7666   -0.7240    2.6705 H   0  0  0  0  0  0  0  0  0  0  0  0
   -1.1982    1.4649    1.6135 H   0  0  0  0  0  0  0  0  0  0  0  0
    1.6252    0.9120    2.6259 H   0  0  0  0  0  0  0  0  0  0  0  0
    0.5726    2.1748    3.2260 H   0  0  0  0  0  0  0  0  0  0  0  0
    0.5477    3.2447    0.9497 H   0  0  0  0  0  0  0  0  0  0  0  0
    2.1937    3.1009    1.5689 H   0  0  0  0  0  0  0  0  0  0  0  0
    1.6082    1.9726    0.3452 H   0  0  0  0  0  0  0  0  0  0  0  0
    0.6975   -2.6000   -2.9526 C   0  0  0  0  0  0  0  0  0  0  0  0
    0.6975   -2.6000   -1.4297 C   0  0  0  0  0  0  0  0  0  0  0  0
    0.6975   -1.2070   -0.8341 C   0  0  0  0  0  0  0  0  0  0  0  0
   -0.4855   -0.5434   -1.2017 O   0  0  0  0  0  0  0  0  0  0  0  0
   -0.5562    0.7747   -0.7208 C   0  0  0  0  0  3  0  0  0  0  0  0
   -1.8595    1.3925   -1.1717 C   0  0  0  0  0  0  0  0  0  0  0  0
    1.5796   -2.0857   -3.3422 H   0  0  0  0  0  0  0  0  0  0  0  0
   -0.1852   -2.0903   -3.3386 H   0  0  0  0  0  0  0  0  0  0  0  0
    0.7030   -3.6179   -3.3452 H   0  0  0  0  0  0  0  0  0  0  0  0
    1.5790   -3.1265   -1.0534 H   0  0  0  0  0  0  0  0  0  0  0  0
   -0.1769   -3.1380   -1.0544 H   0  0  0  0  0  0  0  0  0  0  0  0
    1.5717   -0.6419   -1.1945 H   0  0  0  0  0  0  0  0  0  0  0  0
    0.7723   -1.2609    0.2619 H   0  0  0  0  0  0  0  0  0  0  0  0
   -0.4755    0.7781    0.5969 H   0  0  0  0  0  0  0  0  0  0  0  0
    0.2967    1.3577   -1.0987 H   0  0  0  0  0  0  0  0  0  0  0  0
   -2.7059    0.8231   -0.7860 H   0  0  0  0  0  0  0  0  0  0  0  0
   -1.9203    1.4043   -2.2605 H   0  0  0  0  0  0  0  0  0  0  0  0
   -1.9371    2.4185   -0.8086 H   0  0  0  0  0  0  0  0  0  0  0  0
  1  2  1  0
  1  5  1  0
  1  6  1  0
  1  7  1  0
  2  3  1  0
  2  8  1  0
  2 27  1  0
  3  4  1  0
  3  9  1  0
  3 10  1  0
  4 11  1  0
  4 12  1  0
  4 13  1  0
 14 15  1  0
 14 20  1  0
 14 21  1  0
 14 22  1  0
 15 16  1  0
 15 23  1  0
 15 24  1  0
 16 17  1  0
 16 25  1  0
 16 26  1  0
 17 18  1  0
 18 19  1  0
 18 28  1  0
 19 29  1  0
 19 30  1  0
 19 31  1  0
M  RAD  1  18   2
M  END
>  <reaction>  (12) 
rmg_rxn_278

>  <mol_properties>  (12) 
{"1": {"label": "*3", "atom_type": "Cs"}, "2": {"label": "*4", "atom_type": "Cs"}, "16": {"label": "*0", "atom_type": "O2s"}, "17": {"label": "*1", "atom_type": "Cs"}, "26": {"label": "*2", "atom_type": "H0"}}

>  <type>  (12) 
unop_8

>  <geom_source>  (12) 
Heuristics

$$$$

     RDKit          3D

 31 29  0  0  0  0  0  0  0  0999 V2000
   -1.3406    0.3963    3.0261 C   0  0  0  0  0  0  0  0  0  0  0  0
   -0.4468    0.9217    1.9110 C   0  0  0  0  0  0  0  0  0  0  0  0
    1.0172    1.0321    2.3208 C   0  0  0  0  0  0  0  0  0  0  0  0
    1.9111    1.5576    1.2056 C   0  0  0  0  0  0  0  0  0  0  0  0
   -1.3025    1.0513    3.8997 H   0  0  0  0  0  0  0  0  0  0  0  0
   -1.0231   -0.5990    3.3460 H   0  0  0  0  0  0  0  0  0  0  0  0
   -2.3816    0.3275    2.7060 H   0  0  0  0  0  0  0  0  0  0  0  0
   -0.8032    1.9049    1.5870 H   0  0  0  0  0  0  0  0  0  0  0  0
    1.3737    0.0489    2.6448 H   0  0  0  0  0  0  0  0  0  0  0  0
    1.0963    1.6872    3.1944 H   0  0  0  0  0  0  0  0  0  0  0  0
    1.5936    2.5529    0.8857 H   0  0  0  0  0  0  0  0  0  0  0  0
    2.9520    1.6264    1.5257 H   0  0  0  0  0  0  0  0  0  0  0  0
    1.8730    0.9025    0.3320 H   0  0  0  0  0  0  0  0  0  0  0  0
    0.6459   -2.4598   -2.9498 C   0  0  0  0  0  0  0  0  0  0  0  0
    0.6459   -2.4598   -1.4269 C   0  0  0  0  0  0  0  0  0  0  0  0
    0.6459   -1.0668   -0.8313 C   0  0  0  0  0  0  0  0  0  0  0  0
   -0.5371   -0.4032   -1.1989 O   0  0  0  0  0  0  0  0  0  0  0  0
   -0.6078    0.9149   -0.7180 C   0  0  0  0  0  3  0  0  0  0  0  0
   -1.9111    1.5327   -1.1689 C   0  0  0  0  0  0  0  0  0  0  0  0
    1.5280   -1.9455   -3.3394 H   0  0  0  0  0  0  0  0  0  0  0  0
   -0.2368   -1.9501   -3.3358 H   0  0  0  0  0  0  0  0  0  0  0  0
    0.6514   -3.4777   -3.3424 H   0  0  0  0  0  0  0  0  0  0  0  0
    1.5274   -2.9863   -1.0506 H   0  0  0  0  0  0  0  0  0  0  0  0
   -0.2285   -2.9978   -1.0516 H   0  0  0  0  0  0  0  0  0  0  0  0
    1.5201   -0.5017   -1.1917 H   0  0  0  0  0  0  0  0  0  0  0  0
    0.7207   -1.1207    0.2647 H   0  0  0  0  0  0  0  0  0  0  0  0
   -0.5271    0.9183    0.5997 H   0  0  0  0  0  0  0  0  0  0  0  0
    0.2451    1.4979   -1.0959 H   0  0  0  0  0  0  0  0  0  0  0  0
   -2.7575    0.9633   -0.7832 H   0  0  0  0  0  0  0  0  0  0  0  0
   -1.9719    1.5445   -2.2577 H   0  0  0  0  0  0  0  0  0  0  0  0
   -1.9887    2.5587   -0.8058 H   0  0  0  0  0  0  0  0  0  0  0  0
  1  2  1  0
  1  5  1  0
  1  6  1  0
  1  7  1  0
  2  3  1  0
  2  8  1  0
  2 27  1  0
  3  4  1  0
  3  9  1  0
  3 10  1  0
  4 11  1  0
  4 12  1  0
  4 13  1  0
 14 15  1  0
 14 20  1  0
 14 21  1  0
 14 22  1  0
 15 16  1  0
 15 23  1  0
 15 24  1  0
 16 17  1  0
 16 25  1  0
 16 26  1  0
 17 18  1  0
 18 19  1  0
 18 28  1  0
 19 29  1  0
 19 30  1  0
 19 31  1  0
M  RAD  1  18   2
M  END
>  <reaction>  (13) 
rmg_rxn_278

>  <mol_properties>  (13) 
{"1": {"label": "*3", "atom_type": "Cs"}, "2": {"label": "*4", "atom_type": "Cs"}, "16": {"label": "*0", "atom_type": "O2s"}, "17": {"label": "*1", "atom_type": "Cs"}, "26": {"label": "*2", "atom_type": "H0"}}

>  <type>  (13) 
unop_9

>  <geom_source>  (13) 
Heuristics

$$$$

     RDKit          3D

 31 29  0  0  0  0  0  0  0  0999 V2000
    1.1385    1.8511    1.4647 C   0  0  0  0  0  0  0  0  0  0  0  0
    0.0979    0.8191    1.8779 C   0  0  0  0  0  0  0  0  0  0  0  0
   -1.1676    1.4440    2.4535 C   0  0  0  0  0  0  0  0  0  0  0  0
   -2.2081    0.4119    2.8667 C   0  0  0  0  0  0  0  0  0  0  0  0
    1.4439    2.4620    2.3175 H   0  0  0  0  0  0  0  0  0  0  0  0
    0.7402    2.5248    0.7022 H   0  0  0  0  0  0  0  0  0  0  0  0
    2.0326    1.3770    1.0567 H   0  0  0  0  0  0  0  0  0  0  0  0
    0.5299    0.1380    2.6183 H   0  0  0  0  0  0  0  0  0  0  0  0
   -1.5996    2.1250    1.7131 H   0  0  0  0  0  0  0  0  0  0  0  0
   -0.9010    2.0627    3.3165 H   0  0  0  0  0  0  0  0  0  0  0  0
   -1.8098   -0.2617    3.6292 H   0  0  0  0  0  0  0  0  0  0  0  0
   -3.1022    0.8860    3.2747 H   0  0  0  0  0  0  0  0  0  0  0  0
   -2.5136   -0.1989    2.0139 H   0  0  0  0  0  0  0  0  0  0  0  0
    1.1907   -2.5625   -2.9829 C   0  0  0  0  0  0  0  0  0  0  0  0
    1.1907   -2.5625   -1.4600 C   0  0  0  0  0  0  0  0  0  0  0  0
    1.1907   -1.1695   -0.8644 C   0  0  0  0  0  0  0  0  0  0  0  0
    0.0077   -0.5059   -1.2320 O   0  0  0  0  0  0  0  0  0  0  0  0
   -0.0631    0.8122   -0.7511 C   0  0  0  0  0  3  0  0  0  0  0  0
   -1.3664    1.4300   -1.2020 C   0  0  0  0  0  0  0  0  0  0  0  0
    2.0727   -2.0482   -3.3725 H   0  0  0  0  0  0  0  0  0  0  0  0
    0.3079   -2.0528   -3.3689 H   0  0  0  0  0  0  0  0  0  0  0  0
    1.1961   -3.5804   -3.3755 H   0  0  0  0  0  0  0  0  0  0  0  0
    2.0722   -3.0890   -1.0837 H   0  0  0  0  0  0  0  0  0  0  0  0
    0.3163   -3.1005   -1.0847 H   0  0  0  0  0  0  0  0  0  0  0  0
    2.0649   -0.6044   -1.2248 H   0  0  0  0  0  0  0  0  0  0  0  0
    1.2654   -1.2234    0.2316 H   0  0  0  0  0  0  0  0  0  0  0  0
    0.0176    0.8156    0.5666 H   0  0  0  0  0  0  0  0  0  0  0  0
    0.7898    1.3952   -1.1290 H   0  0  0  0  0  0  0  0  0  0  0  0
   -2.2127    0.8606   -0.8163 H   0  0  0  0  0  0  0  0  0  0  0  0
   -1.4272    1.4418   -2.2908 H   0  0  0  0  0  0  0  0  0  0  0  0
   -1.4440    2.4560   -0.8389 H   0  0  0  0  0  0  0  0  0  0  0  0
  1  2  1  0
  1  5  1  0
  1  6  1  0
  1  7  1  0
  2  3  1  0
  2  8  1  0
  2 27  1  0
  3  4  1  0
  3  9  1  0
  3 10  1  0
  4 11  1  0
  4 12  1  0
  4 13  1  0
 14 15  1  0
 14 20  1  0
 14 21  1  0
 14 22  1  0
 15 16  1  0
 15 23  1  0
 15 24  1  0
 16 17  1  0
 16 25  1  0
 16 26  1  0
 17 18  1  0
 18 19  1  0
 18 28  1  0
 19 29  1  0
 19 30  1  0
 19 31  1  0
M  RAD  1  18   2
M  END
>  <reaction>  (14) 
rmg_rxn_278

>  <mol_properties>  (14) 
{"1": {"label": "*3", "atom_type": "Cs"}, "2": {"label": "*4", "atom_type": "Cs"}, "16": {"label": "*0", "atom_type": "O2s"}, "17": {"label": "*1", "atom_type": "Cs"}, "26": {"label": "*2", "atom_type": "H0"}}

>  <type>  (14) 
unop_10

>  <geom_source>  (14) 
Heuristics

$$$$

     RDKit          3D

 31 29  0  0  0  0  0  0  0  0999 V2000
   -1.5262    1.4404    2.8007 C   0  0  0  0  0  0  0  0  0  0  0  0
   -0.3241    1.1848    1.9016 C   0  0  0  0  0  0  0  0  0  0  0  0
    0.5176   -0.0032    2.3529 C   0  0  0  0  0  0  0  0  0  0  0  0
    1.7197   -0.2587    1.4538 C   0  0  0  0  0  0  0  0  0  0  0  0
   -1.2111    1.6442    3.8268 H   0  0  0  0  0  0  0  0  0  0  0  0
   -2.1882    0.5715    2.8254 H   0  0  0  0  0  0  0  0  0  0  0  0
   -2.1102    2.2949    2.4551 H   0  0  0  0  0  0  0  0  0  0  0  0
    0.3067    2.0790    1.8688 H   0  0  0  0  0  0  0  0  0  0  0  0
   -0.1132   -0.8973    2.3857 H   0  0  0  0  0  0  0  0  0  0  0  0
    0.8567    0.1675    3.3798 H   0  0  0  0  0  0  0  0  0  0  0  0
    2.3817    0.6102    1.4291 H   0  0  0  0  0  0  0  0  0  0  0  0
    2.3037   -1.1132    1.7994 H   0  0  0  0  0  0  0  0  0  0  0  0
    1.4046   -0.4625    0.4277 H   0  0  0  0  0  0  0  0  0  0  0  0
    0.7686   -2.1967   -2.9591 C   0  0  0  0  0  0  0  0  0  0  0  0
    0.7686   -2.1967   -1.4362 C   0  0  0  0  0  0  0  0  0  0  0  0
    0.7686   -0.8037   -0.8407 C   0  0  0  0  0  0  0  0  0  0  0  0
   -0.4144   -0.1401   -1.2083 O   0  0  0  0  0  0  0  0  0  0  0  0
   -0.4851    1.1780   -0.7274 C   0  0  0  0  0  3  0  0  0  0  0  0
   -1.7884    1.7958   -1.1782 C   0  0  0  0  0  0  0  0  0  0  0  0
    1.6507   -1.6824   -3.3487 H   0  0  0  0  0  0  0  0  0  0  0  0
   -0.1141   -1.6870   -3.3452 H   0  0  0  0  0  0  0  0  0  0  0  0
    0.7741   -3.2146   -3.3518 H   0  0  0  0  0  0  0  0  0  0  0  0
    1.6501   -2.7232   -1.0599 H   0  0  0  0  0  0  0  0  0  0  0  0
   -0.1058   -2.7347   -1.0609 H   0  0  0  0  0  0  0  0  0  0  0  0
    1.6428   -0.2386   -1.2011 H   0  0  0  0  0  0  0  0  0  0  0  0
    0.8434   -0.8576    0.2554 H   0  0  0  0  0  0  0  0  0  0  0  0
   -0.4044    1.1814    0.5903 H   0  0  0  0  0  0  0  0  0  0  0  0
    0.3677    1.7610   -1.1053 H   0  0  0  0  0  0  0  0  0  0  0  0
   -2.6348    1.2264   -0.7925 H   0  0  0  0  0  0  0  0  0  0  0  0
   -1.8492    1.8076   -2.2671 H   0  0  0  0  0  0  0  0  0  0  0  0
   -1.8661    2.8218   -0.8152 H   0  0  0  0  0  0  0  0  0  0  0  0
  1  2  1  0
  1  5  1  0
  1  6  1  0
  1  7  1  0
  2  3  1  0
  2  8  1  0
  2 27  1  0
  3  4  1  0
  3  9  1  0
  3 10  1  0
  4 11  1  0
  4 12  1  0
  4 13  1  0
 14 15  1  0
 14 20  1  0
 14 21  1  0
 14 22  1  0
 15 16  1  0
 15 23  1  0
 15 24  1  0
 16 17  1  0
 16 25  1  0
 16 26  1  0
 17 18  1  0
 18 19  1  0
 18 28  1  0
 19 29  1  0
 19 30  1  0
 19 31  1  0
M  RAD  1  18   2
M  END
>  <reaction>  (15) 
rmg_rxn_278

>  <mol_properties>  (15) 
{"1": {"label": "*3", "atom_type": "Cs"}, "2": {"label": "*4", "atom_type": "Cs"}, "16": {"label": "*0", "atom_type": "O2s"}, "17": {"label": "*1", "atom_type": "Cs"}, "26": {"label": "*2", "atom_type": "H0"}}

>  <type>  (15) 
unop_11

>  <geom_source>  (15) 
Heuristics

$$$$

     RDKit          3D

 31 29  0  0  0  0  0  0  0  0999 V2000
    0.9267    0.1378   -0.2497 O   0  0  0  0  0  0  0  0  0  0  0  0
   -2.8204    0.5329    0.7082 C   0  0  0  0  0  0  0  0  0  0  0  0
   -2.1630   -0.8240    0.4205 C   0  0  0  0  0  0  0  0  0  0  0  0
    2.9228    1.4277   -0.5424 C   0  0  0  0  0  0  0  0  0  0  0  0
    2.3286    0.0294   -0.3808 C   0  0  0  0  0  0  0  0  0  0  0  0
   -2.7019    1.5024   -0.4665 C   0  0  0  0  0  0  0  0  0  0  0  0
   -2.9388   -1.6507   -0.6033 C   0  0  0  0  0  0  0  0  0  0  0  0
    4.4403    1.3733   -0.6959 C   0  0  0  0  0  0  0  0  0  0  0  0
    0.1497   -1.3223    1.5213 C   0  0  0  0  0  0  0  0  0  0  0  0
    0.3641   -1.1293    0.0268 C   0  0  0  0  0  3  0  0  0  0  0  0
   -2.3142    0.9872    1.5871 H   0  0  0  0  0  0  0  0  0  0  0  0
   -3.8915    0.3926    0.9708 H   0  0  0  0  0  0  0  0  0  0  0  0
   -2.1138   -1.4001    1.3699 H   0  0  0  0  0  0  0  0  0  0  0  0
   -0.9322   -0.6461   -0.0038 H   0  0  0  0  0  0  0  0  0  0  0  0
    2.4839    1.9147   -1.4403 H   0  0  0  0  0  0  0  0  0  0  0  0
    2.6694    2.0419    0.3490 H   0  0  0  0  0  0  0  0  0  0  0  0
    2.7776   -0.4458    0.5218 H   0  0  0  0  0  0  0  0  0  0  0  0
    2.5824   -0.5732   -1.2829 H   0  0  0  0  0  0  0  0  0  0  0  0
   -3.2944    1.1438   -1.3335 H   0  0  0  0  0  0  0  0  0  0  0  0
   -1.6394    1.6215   -0.7673 H   0  0  0  0  0  0  0  0  0  0  0  0
   -3.0966    2.4958   -0.1657 H   0  0  0  0  0  0  0  0  0  0  0  0
   -2.4758   -2.6559   -0.6897 H   0  0  0  0  0  0  0  0  0  0  0  0
   -3.9958   -1.7733   -0.2847 H   0  0  0  0  0  0  0  0  0  0  0  0
   -2.9049   -1.1682   -1.6017 H   0  0  0  0  0  0  0  0  0  0  0  0
    4.9029    0.9120    0.2026 H   0  0  0  0  0  0  0  0  0  0  0  0
    4.7164    0.7828   -1.5954 H   0  0  0  0  0  0  0  0  0  0  0  0
    4.8391    2.4032   -0.8112 H   0  0  0  0  0  0  0  0  0  0  0  0
   -0.4028   -2.2690    1.6945 H   0  0  0  0  0  0  0  0  0  0  0  0
   -0.4465   -0.4789    1.9281 H   0  0  0  0  0  0  0  0  0  0  0  0
    1.1249   -1.3722    2.0488 H   0  0  0  0  0  0  0  0  0  0  0  0
    0.9032   -1.9901   -0.4346 H   0  0  0  0  0  0  0  0  0  0  0  0
  1 10  1  0
  1  5  1  0
  2  6  1  0
  2  3  1  0
  2 11  1  0
  2 12  1  0
  3  7  1  0
  3 13  1  0
  3 14  1  0
  4  8  1  0
  4  5  1  0
  4 15  1  0
  4 16  1  0
  5 17  1  0
  5 18  1  0
  6 19  1  0
  6 20  1  0
  6 21  1  0
  7 22  1  0
  7 23  1  0
  7 24  1  0
  8 25  1  0
  8 26  1  0
  8 27  1  0
  9 10  1  0
  9 28  1  0
  9 29  1  0
  9 30  1  0
 10 31  1  0
M  RAD  1  10   2
M  END
>  <reaction>  (16) 
rmg_rxn_278

>  <mol_properties>  (16) 
{"1": {"label": "*3", "atom_type": "Cs"}, "2": {"label": "*4", "atom_type": "Cs"}, "16": {"label": "*0", "atom_type": "O2s"}, "17": {"label": "*1", "atom_type": "Cs"}, "26": {"label": "*2", "atom_type": "H0"}}

>  <type>  (16) 
unop_12

>  <geom_source>  (16) 
AutoTST

$$$$

     RDKit          3D

 31 29  0  0  0  0  0  0  0  0999 V2000
   -1.5045    0.9388    2.9704 C   0  0  0  0  0  0  0  0  0  0  0  0
   -0.4211    1.0696    1.9085 C   0  0  0  0  0  0  0  0  0  0  0  0
    0.9054    0.4472    2.3287 C   0  0  0  0  0  0  0  0  0  0  0  0
    1.9889    0.5780    1.2667 C   0  0  0  0  0  0  0  0  0  0  0  0
   -1.2028    1.4280    3.8997 H   0  0  0  0  0  0  0  0  0  0  0  0
   -1.7031   -0.1109    3.1997 H   0  0  0  0  0  0  0  0  0  0  0  0
   -2.4419    1.3921    2.6440 H   0  0  0  0  0  0  0  0  0  0  0  0
   -0.2623    2.1272    1.6741 H   0  0  0  0  0  0  0  0  0  0  0  0
    0.7467   -0.6103    2.5631 H   0  0  0  0  0  0  0  0  0  0  0  0
    1.2433    0.9172    3.2580 H   0  0  0  0  0  0  0  0  0  0  0  0
    2.1875    1.6277    1.0375 H   0  0  0  0  0  0  0  0  0  0  0  0
    2.9263    0.1248    1.5932 H   0  0  0  0  0  0  0  0  0  0  0  0
    1.6872    0.0889    0.3375 H   0  0  0  0  0  0  0  0  0  0  0  0
    0.6716   -2.3119   -2.9522 C   0  0  0  0  0  0  0  0  0  0  0  0
    0.6716   -2.3119   -1.4293 C   0  0  0  0  0  0  0  0  0  0  0  0
    0.6716   -0.9189   -0.8338 C   0  0  0  0  0  0  0  0  0  0  0  0
   -0.5114   -0.2553   -1.2014 O   0  0  0  0  0  0  0  0  0  0  0  0
   -0.5821    1.0628   -0.7205 C   0  0  0  0  0  3  0  0  0  0  0  0
   -1.8854    1.6806   -1.1713 C   0  0  0  0  0  0  0  0  0  0  0  0
    1.5537   -1.7976   -3.3418 H   0  0  0  0  0  0  0  0  0  0  0  0
   -0.2111   -1.8022   -3.3383 H   0  0  0  0  0  0  0  0  0  0  0  0
    0.6771   -3.3298   -3.3449 H   0  0  0  0  0  0  0  0  0  0  0  0
    1.5531   -2.8384   -1.0530 H   0  0  0  0  0  0  0  0  0  0  0  0
   -0.2028   -2.8499   -1.0540 H   0  0  0  0  0  0  0  0  0  0  0  0
    1.5458   -0.3538   -1.1942 H   0  0  0  0  0  0  0  0  0  0  0  0
    0.7464   -0.9728    0.2623 H   0  0  0  0  0  0  0  0  0  0  0  0
   -0.5014    1.0662    0.5972 H   0  0  0  0  0  0  0  0  0  0  0  0
    0.2708    1.6458   -1.0984 H   0  0  0  0  0  0  0  0  0  0  0  0
   -2.7318    1.1112   -0.7856 H   0  0  0  0  0  0  0  0  0  0  0  0
   -1.9462    1.6924   -2.2601 H   0  0  0  0  0  0  0  0  0  0  0  0
   -1.9630    2.7066   -0.8083 H   0  0  0  0  0  0  0  0  0  0  0  0
  1  2  1  0
  1  5  1  0
  1  6  1  0
  1  7  1  0
  2  3  1  0
  2  8  1  0
  2 27  1  0
  3  4  1  0
  3  9  1  0
  3 10  1  0
  4 11  1  0
  4 12  1  0
  4 13  1  0
 14 15  1  0
 14 20  1  0
 14 21  1  0
 14 22  1  0
 15 16  1  0
 15 23  1  0
 15 24  1  0
 16 17  1  0
 16 25  1  0
 16 26  1  0
 17 18  1  0
 18 19  1  0
 18 28  1  0
 19 29  1  0
 19 30  1  0
 19 31  1  0
M  RAD  1  18   2
M  END
>  <reaction>  (17) 
rmg_rxn_278

>  <mol_properties>  (17) 
{"1": {"label": "*3", "atom_type": "Cs"}, "2": {"label": "*4", "atom_type": "Cs"}, "16": {"label": "*0", "atom_type": "O2s"}, "17": {"label": "*1", "atom_type": "Cs"}, "26": {"label": "*2", "atom_type": "H0"}}

>  <type>  (17) 
unop_13

>  <geom_source>  (17) 
gaussian_log

$$$$
