
     RDKit          3D

  3  2  0  0  0  0  0  0  0  0999 V2000
    0.9943   -0.1797    0.0000 O   0  0  0  0  0  1  0  0  0  0  0  0
   -0.1595    0.4394    0.0000 O   0  0  0  0  0  0  0  0  0  0  0  0
   -0.8348   -0.2597    0.0000 H   0  0  0  0  0  0  0  0  0  0  0  0
  1  2  1  0
  2  3  1  0
M  RAD  1   1   2
M  END
>  <reaction>  (1) 
rmg_rxn_614

>  <mol_properties>  (1) 
{"1": {"label": "donator", "atom_type": "O2s"}, "2": {"label": "d_hydrogen", "atom_type": "H0"}}

>  <type>  (1) 
r1h

$$$$

     RDKit          3D

  5  4  0  0  0  0  0  0  0  0999 V2000
   -0.4986    0.0189   -0.0212 C   0  0  0  0  0  0  0  0  0  0  0  0
    0.6799   -0.4410    0.1054 N   0  0  0  0  0  0  0  0  0  0  0  0
    1.7950    0.0236    0.0595 O   0  0  0  0  0  1  0  0  0  0  0  0
   -1.3180   -0.6753    0.0776 H   0  0  0  0  0  0  0  0  0  0  0  0
   -0.6584    1.0737   -0.2213 H   0  0  0  0  0  0  0  0  0  0  0  0
  1  2  2  3
  1  4  1  0
  1  5  1  0
  2  3  1  0
M  RAD  1   3   2
M  END
>  <reaction>  (2) 
rmg_rxn_614

>  <mol_properties>  (2) 
{"0": {"label": "acceptor", "atom_type": "Cs"}}

>  <type>  (2) 
r2

$$$$

     RDKit          3D

  6  5  0  0  0  0  0  0  0  0999 V2000
   -0.4547   -0.0097   -0.0070 C   0  0  0  0  0  0  0  0  0  0  0  0
    0.8695   -0.1987   -0.6218 N   0  0  0  0  0  0  0  0  0  0  0  0
    1.0322   -1.2809   -1.0969 O   0  0  0  0  0  0  0  0  0  0  0  0
   -0.2820    0.2687    1.0347 H   0  0  0  0  0  0  0  0  0  0  0  0
   -1.0716   -0.9051   -0.0916 H   0  0  0  0  0  0  0  0  0  0  0  0
   -0.9130    0.8487   -0.5026 H   0  0  0  0  0  0  0  0  0  0  0  0
  1  2  1  0
  1  4  1  0
  1  5  1  0
  1  6  1  0
  2  3  2  0
M  END
>  <reaction>  (3) 
rmg_rxn_614

>  <mol_properties>  (3) 
{"0": {"label": "a_hydrogen", "atom_type": "H0"}, "1": {"label": "acceptor", "atom_type": "Cs"}}

>  <type>  (3) 
r2h

$$$$

     RDKit          3D

  8  6  0  0  0  0  0  0  0  0999 V2000
    0.2652   -1.1427   -0.9357 O   0  0  0  0  0  1  0  0  0  0  0  0
    0.1328   -1.7256    0.1682 O   0  0  0  0  0  0  0  0  0  0  0  0
    0.1303   -0.7175    0.9384 H   0  0  0  0  0  0  0  0  0  0  0  0
    0.2248    0.5900    1.1646 C   0  0  0  0  0  0  0  0  0  0  0  0
    0.1041    0.9927   -0.1178 N   0  0  0  0  0  0  0  0  0  0  0  0
   -0.8187    1.4916   -0.6759 O   0  0  0  0  0  1  0  0  0  0  0  0
    1.2423    0.6635    1.5317 H   0  0  0  0  0  0  0  0  0  0  0  0
   -0.5859    0.8819    1.8269 H   0  0  0  0  0  0  0  0  0  0  0  0
  1  2  1  0
  2  3  1  0
  4  5  2  3
  4  7  1  0
  4  8  1  0
  5  6  1  0
M  RAD  2   1   2   6   2
M  END
>  <reaction>  (4) 
rmg_rxn_614

>  <mol_properties>  (4) 
{"0": {"label": "*0", "atom_type": "O2s"}, "1": {"label": "*1", "atom_type": "O2s"}, "2": {"label": "*2", "atom_type": "H0"}, "3": {"label": "*3", "atom_type": "Cd"}, "4": {"label": "*4", "atom_type": "N3d"}}

>  <type>  (4) 
ts

$$$$

     RDKit          3D

  8  6  0  0  0  0  0  0  0  0999 V2000
    0.4372   -1.4107   -1.9776 O   0  0  0  0  0  1  0  0  0  0  0  0
    0.4372   -1.4107   -0.6682 O   0  0  0  0  0  0  0  0  0  0  0  0
    0.4372   -0.2882   -0.3508 H   0  0  0  0  0  0  0  0  0  0  0  0
    0.4372    0.9728    0.0058 C   0  0  0  0  0  0  0  0  0  0  0  0
   -0.7834    1.1902    0.7996 N   0  0  0  0  0  0  0  0  0  0  0  0
   -0.6665    0.9092    1.9532 O   0  0  0  0  0  1  0  0  0  0  0  0
    0.6904    1.9311   -0.4523 H   0  0  0  0  0  0  0  0  0  0  0  0
    1.2536    0.5858    0.6166 H   0  0  0  0  0  0  0  0  0  0  0  0
  1  2  1  0
  2  3  1  0
  4  5  2  3
  4  7  1  0
  4  8  1  0
  5  6  1  0
M  RAD  2   1   2   6   2
M  END
>  <reaction>  (5) 
rmg_rxn_614

>  <mol_properties>  (5) 
{"0": {"label": "*0", "atom_type": "O2s"}, "1": {"label": "*1", "atom_type": "O2s"}, "2": {"label": "*2", "atom_type": "H0"}, "3": {"label": "*3", "atom_type": "Cd"}, "4": {"label": "*4", "atom_type": "N3d"}}

>  <type>  (5) 
unop_1

>  <geom_source>  (5) 
Heuristics

$$$$

     RDKit          3D

  8  6  0  0  0  0  0  0  0  0999 V2000
    0.5008   -1.7397   -1.0902 O   0  0  0  0  0  1  0  0  0  0  0  0
    0.5008   -1.7397    0.2192 O   0  0  0  0  0  0  0  0  0  0  0  0
    0.5008   -0.6172    0.5366 H   0  0  0  0  0  0  0  0  0  0  0  0
    0.5008    0.6438    0.8932 C   0  0  0  0  0  0  0  0  0  0  0  0
   -0.2040    1.3850   -0.1657 N   0  0  0  0  0  0  0  0  0  0  0  0
   -1.3119    1.7145    0.1299 O   0  0  0  0  0  1  0  0  0  0  0  0
    1.4166    1.1976    1.1099 H   0  0  0  0  0  0  0  0  0  0  0  0
   -0.1194    0.5198    1.7817 H   0  0  0  0  0  0  0  0  0  0  0  0
  1  2  1  0
  2  3  1  0
  4  5  2  3
  4  7  1  0
  4  8  1  0
  5  6  1  0
M  RAD  2   1   2   6   2
M  END
>  <reaction>  (6) 
rmg_rxn_614

>  <mol_properties>  (6) 
{"0": {"label": "*0", "atom_type": "O2s"}, "1": {"label": "*1", "atom_type": "O2s"}, "2": {"label": "*2", "atom_type": "H0"}, "3": {"label": "*3", "atom_type": "Cd"}, "4": {"label": "*4", "atom_type": "N3d"}}

>  <type>  (6) 
unop_2

>  <geom_source>  (6) 
Heuristics

$$$$

     RDKit          3D

  8  6  0  0  0  0  0  0  0  0999 V2000
    0.1138   -1.4166   -2.1204 O   0  0  0  0  0  1  0  0  0  0  0  0
    0.1138   -1.4166   -0.8110 O   0  0  0  0  0  0  0  0  0  0  0  0
    0.1138   -0.2941   -0.4936 H   0  0  0  0  0  0  0  0  0  0  0  0
    0.1138    0.9669   -0.1371 C   0  0  0  0  0  0  0  0  0  0  0  0
   -0.5909    1.0439    1.1532 N   0  0  0  0  0  0  0  0  0  0  0  0
    0.1336    1.0384    2.1011 O   0  0  0  0  0  1  0  0  0  0  0  0
   -0.1861    1.8447   -0.7131 H   0  0  0  0  0  0  0  0  0  0  0  0
    1.1953    0.9171   -0.0051 H   0  0  0  0  0  0  0  0  0  0  0  0
  1  2  1  0
  2  3  1  0
  4  5  2  3
  4  7  1  0
  4  8  1  0
  5  6  1  0
M  RAD  2   1   2   6   2
M  END
>  <reaction>  (7) 
rmg_rxn_614

>  <mol_properties>  (7) 
{"0": {"label": "*0", "atom_type": "O2s"}, "1": {"label": "*1", "atom_type": "O2s"}, "2": {"label": "*2", "atom_type": "H0"}, "3": {"label": "*3", "atom_type": "Cd"}, "4": {"label": "*4", "atom_type": "N3d"}}

>  <type>  (7) 
unop_3

>  <geom_source>  (7) 
Heuristics

$$$$

     RDKit          3D

  8  6  0  0  0  0  0  0  0  0999 V2000
   -0.4523   -1.8586   -1.1837 O   0  0  0  0  0  1  0  0  0  0  0  0
   -0.4523   -1.8586    0.1257 O   0  0  0  0  0  0  0  0  0  0  0  0
   -0.4523   -0.7361    0.4431 H   0  0  0  0  0  0  0  0  0  0  0  0
   -0.4523    0.5249    0.7996 C   0  0  0  0  0  0  0  0  0  0  0  0
    0.7683    1.1258    0.2372 N   0  0  0  0  0  0  0  0  0  0  0  0
    0.6879    2.3019    0.0532 O   0  0  0  0  0  1  0  0  0  0  0  0
   -0.1627    0.0376    1.7330 H   0  0  0  0  0  0  0  0  0  0  0  0
   -1.2348    1.2685    0.9550 H   0  0  0  0  0  0  0  0  0  0  0  0
  1  2  1  0
  2  3  1  0
  4  5  2  3
  4  7  1  0
  4  8  1  0
  5  6  1  0
M  RAD  2   1   2   6   2
M  END
>  <reaction>  (8) 
rmg_rxn_614

>  <mol_properties>  (8) 
{"0": {"label": "*0", "atom_type": "O2s"}, "1": {"label": "*1", "atom_type": "O2s"}, "2": {"label": "*2", "atom_type": "H0"}, "3": {"label": "*3", "atom_type": "Cd"}, "4": {"label": "*4", "atom_type": "N3d"}}

>  <type>  (8) 
unop_4

>  <geom_source>  (8) 
Heuristics

$$$$

     RDKit          3D

  8  6  0  0  0  0  0  0  0  0999 V2000
   -0.1894   -1.5236   -2.0888 O   0  0  0  0  0  1  0  0  0  0  0  0
   -0.1894   -1.5236   -0.7794 O   0  0  0  0  0  0  0  0  0  0  0  0
   -0.1894   -0.4011   -0.4620 H   0  0  0  0  0  0  0  0  0  0  0  0
   -0.1894    0.8598   -0.1054 C   0  0  0  0  0  0  0  0  0  0  0  0
   -0.1894    0.8855    1.3665 N   0  0  0  0  0  0  0  0  0  0  0  0
    0.7287    1.4827    1.8398 O   0  0  0  0  0  1  0  0  0  0  0  0
   -1.1396    1.2903   -0.4284 H   0  0  0  0  0  0  0  0  0  0  0  0
    0.6631    1.3995   -0.5196 H   0  0  0  0  0  0  0  0  0  0  0  0
  1  2  1  0
  2  3  1  0
  4  5  2  3
  4  7  1  0
  4  8  1  0
  5  6  1  0
M  RAD  2   1   2   6   2
M  END
>  <reaction>  (9) 
rmg_rxn_614

>  <mol_properties>  (9) 
{"0": {"label": "*0", "atom_type": "O2s"}, "1": {"label": "*1", "atom_type": "O2s"}, "2": {"label": "*2", "atom_type": "H0"}, "3": {"label": "*3", "atom_type": "Cd"}, "4": {"label": "*4", "atom_type": "N3d"}}

>  <type>  (9) 
unop_5

>  <geom_source>  (9) 
Heuristics

$$$$

     RDKit          3D

  8  6  0  0  0  0  0  0  0  0999 V2000
   -0.5715   -1.7851   -1.4758 O   0  0  0  0  0  1  0  0  0  0  0  0
   -0.5715   -1.7851   -0.1664 O   0  0  0  0  0  0  0  0  0  0  0  0
   -0.5715   -0.6626    0.1510 H   0  0  0  0  0  0  0  0  0  0  0  0
   -0.5715    0.5984    0.5075 C   0  0  0  0  0  0  0  0  0  0  0  0
    0.8379    1.0075    0.6232 N   0  0  0  0  0  0  0  0  0  0  0  0
    1.0027    2.1888    0.5926 O   0  0  0  0  0  1  0  0  0  0  0  0
   -0.8009    0.0031    1.3938 H   0  0  0  0  0  0  0  0  0  0  0  0
   -1.2359    1.4580    0.4120 H   0  0  0  0  0  0  0  0  0  0  0  0
  1  2  1  0
  2  3  1  0
  4  5  2  3
  4  7  1  0
  4  8  1  0
  5  6  1  0
M  RAD  2   1   2   6   2
M  END
>  <reaction>  (10) 
rmg_rxn_614

>  <mol_properties>  (10) 
{"0": {"label": "*0", "atom_type": "O2s"}, "1": {"label": "*1", "atom_type": "O2s"}, "2": {"label": "*2", "atom_type": "H0"}, "3": {"label": "*3", "atom_type": "Cd"}, "4": {"label": "*4", "atom_type": "N3d"}}

>  <type>  (10) 
unop_6

>  <geom_source>  (10) 
Heuristics

$$$$

     RDKit          3D

  8  6  0  0  0  0  0  0  0  0999 V2000
   -0.5282   -1.7049   -1.7570 O   0  0  0  0  0  1  0  0  0  0  0  0
   -0.5282   -1.7049   -0.4476 O   0  0  0  0  0  0  0  0  0  0  0  0
   -0.5282   -0.5824   -0.1302 H   0  0  0  0  0  0  0  0  0  0  0  0
   -0.5282    0.6786    0.2263 C   0  0  0  0  0  0  0  0  0  0  0  0
    0.6924    0.8960    1.0201 N   0  0  0  0  0  0  0  0  0  0  0  0
    1.0169    2.0410    1.1046 O   0  0  0  0  0  1  0  0  0  0  0  0
   -1.2382    0.1611    0.8749 H   0  0  0  0  0  0  0  0  0  0  0  0
   -0.9348    1.6157   -0.1556 H   0  0  0  0  0  0  0  0  0  0  0  0
  1  2  1  0
  2  3  1  0
  4  5  2  3
  4  7  1  0
  4  8  1  0
  5  6  1  0
M  RAD  2   1   2   6   2
M  END
>  <reaction>  (11) 
rmg_rxn_614

>  <mol_properties>  (11) 
{"0": {"label": "*0", "atom_type": "O2s"}, "1": {"label": "*1", "atom_type": "O2s"}, "2": {"label": "*2", "atom_type": "H0"}, "3": {"label": "*3", "atom_type": "Cd"}, "4": {"label": "*4", "atom_type": "N3d"}}

>  <type>  (11) 
unop_7

>  <geom_source>  (11) 
Heuristics

$$$$

     RDKit          3D

  8  6  0  0  0  0  0  0  0  0999 V2000
    0.6397   -1.4869   -1.6994 O   0  0  0  0  0  1  0  0  0  0  0  0
    0.6397   -1.4869   -0.3900 O   0  0  0  0  0  0  0  0  0  0  0  0
    0.6397   -0.3645   -0.0726 H   0  0  0  0  0  0  0  0  0  0  0  0
    0.6397    0.8965    0.2840 C   0  0  0  0  0  0  0  0  0  0  0  0
   -0.7697    1.3057    0.3997 N   0  0  0  0  0  0  0  0  0  0  0  0
   -1.2650    1.0419    1.4526 O   0  0  0  0  0  1  0  0  0  0  0  0
    1.2112    1.7968    0.0488 H   0  0  0  0  0  0  0  0  0  0  0  0
    0.9972    0.4143    1.1946 H   0  0  0  0  0  0  0  0  0  0  0  0
  1  2  1  0
  2  3  1  0
  4  5  2  3
  4  7  1  0
  4  8  1  0
  5  6  1  0
M  RAD  2   1   2   6   2
M  END
>  <reaction>  (12) 
rmg_rxn_614

>  <mol_properties>  (12) 
{"0": {"label": "*0", "atom_type": "O2s"}, "1": {"label": "*1", "atom_type": "O2s"}, "2": {"label": "*2", "atom_type": "H0"}, "3": {"label": "*3", "atom_type": "Cd"}, "4": {"label": "*4", "atom_type": "N3d"}}

>  <type>  (12) 
unop_8

>  <geom_source>  (12) 
Heuristics

$$$$

     RDKit          3D

  8  6  0  0  0  0  0  0  0  0999 V2000
   -0.1722   -1.8905   -0.9771 O   0  0  0  0  0  1  0  0  0  0  0  0
   -0.1722   -1.8905    0.3323 O   0  0  0  0  0  0  0  0  0  0  0  0
   -0.1722   -0.7680    0.6497 H   0  0  0  0  0  0  0  0  0  0  0  0
   -0.1722    0.4929    1.0063 C   0  0  0  0  0  0  0  0  0  0  0  0
    0.5325    1.2342   -0.0526 N   0  0  0  0  0  0  0  0  0  0  0  0
    0.0479    2.2948   -0.3052 O   0  0  0  0  0  1  0  0  0  0  0  0
    0.5603    0.2901    1.7903 H   0  0  0  0  0  0  0  0  0  0  0  0
   -1.0309    1.0479    1.3858 H   0  0  0  0  0  0  0  0  0  0  0  0
  1  2  1  0
  2  3  1  0
  4  5  2  3
  4  7  1  0
  4  8  1  0
  5  6  1  0
M  RAD  2   1   2   6   2
M  END
>  <reaction>  (13) 
rmg_rxn_614

>  <mol_properties>  (13) 
{"0": {"label": "*0", "atom_type": "O2s"}, "1": {"label": "*1", "atom_type": "O2s"}, "2": {"label": "*2", "atom_type": "H0"}, "3": {"label": "*3", "atom_type": "Cd"}, "4": {"label": "*4", "atom_type": "N3d"}}

>  <type>  (13) 
unop_9

>  <geom_source>  (13) 
Heuristics

$$$$

     RDKit          3D

  8  6  0  0  0  0  0  0  0  0999 V2000
    0.6632   -1.6068   -1.3725 O   0  0  0  0  0  1  0  0  0  0  0  0
    0.6632   -1.6068   -0.0631 O   0  0  0  0  0  0  0  0  0  0  0  0
    0.6632   -0.4843    0.2543 H   0  0  0  0  0  0  0  0  0  0  0  0
    0.6632    0.7766    0.6109 C   0  0  0  0  0  0  0  0  0  0  0  0
   -0.5574    1.3775    0.0484 N   0  0  0  0  0  0  0  0  0  0  0  0
   -1.4993    1.3333    0.7794 O   0  0  0  0  0  1  0  0  0  0  0  0
    1.4317    1.5523    0.5972 H   0  0  0  0  0  0  0  0  0  0  0  0
    0.4964    0.3871    1.6158 H   0  0  0  0  0  0  0  0  0  0  0  0
  1  2  1  0
  2  3  1  0
  4  5  2  3
  4  7  1  0
  4  8  1  0
  5  6  1  0
M  RAD  2   1   2   6   2
M  END
>  <reaction>  (14) 
rmg_rxn_614

>  <mol_properties>  (14) 
{"0": {"label": "*0", "atom_type": "O2s"}, "1": {"label": "*1", "atom_type": "O2s"}, "2": {"label": "*2", "atom_type": "H0"}, "3": {"label": "*3", "atom_type": "Cd"}, "4": {"label": "*4", "atom_type": "N3d"}}

>  <type>  (14) 
unop_10

>  <geom_source>  (14) 
Heuristics

$$$$

     RDKit          3D

  8  6  0  0  0  0  0  0  0  0999 V2000
   -0.3831   -1.6297   -1.9606 O   0  0  0  0  0  1  0  0  0  0  0  0
   -0.3831   -1.6297   -0.6512 O   0  0  0  0  0  0  0  0  0  0  0  0
   -0.3831   -0.5072   -0.3338 H   0  0  0  0  0  0  0  0  0  0  0  0
   -0.3831    0.7537    0.0227 C   0  0  0  0  0  0  0  0  0  0  0  0
    0.3216    0.8307    1.3130 N   0  0  0  0  0  0  0  0  0  0  0  0
    0.9025    1.8584    1.4863 O   0  0  0  0  0  1  0  0  0  0  0  0
   -1.4342    0.5623    0.2484 H   0  0  0  0  0  0  0  0  0  0  0  0
   -0.2524    1.6633   -0.5646 H   0  0  0  0  0  0  0  0  0  0  0  0
  1  2  1  0
  2  3  1  0
  4  5  2  3
  4  7  1  0
  4  8  1  0
  5  6  1  0
M  RAD  2   1   2   6   2
M  END
>  <reaction>  (15) 
rmg_rxn_614

>  <mol_properties>  (15) 
{"0": {"label": "*0", "atom_type": "O2s"}, "1": {"label": "*1", "atom_type": "O2s"}, "2": {"label": "*2", "atom_type": "H0"}, "3": {"label": "*3", "atom_type": "Cd"}, "4": {"label": "*4", "atom_type": "N3d"}}

>  <type>  (15) 
unop_11

>  <geom_source>  (15) 
Heuristics

$$$$

     RDKit          3D

  8  6  0  0  0  0  0  0  0  0999 V2000
    0.1894   -1.8485   -0.9396 O   0  0  0  0  0  1  0  0  0  0  0  0
    0.1894   -1.8485    0.3698 O   0  0  0  0  0  0  0  0  0  0  0  0
    0.1894   -0.7261    0.6872 H   0  0  0  0  0  0  0  0  0  0  0  0
    0.1894    0.5349    1.0437 C   0  0  0  0  0  0  0  0  0  0  0  0
    0.1894    1.3275   -0.1968 N   0  0  0  0  0  0  0  0  0  0  0  0
   -0.7287    2.0842   -0.2874 O   0  0  0  0  0  1  0  0  0  0  0  0
    1.1396    0.7325    1.5443 H   0  0  0  0  0  0  0  0  0  0  0  0
   -0.6631    0.7778    1.6791 H   0  0  0  0  0  0  0  0  0  0  0  0
  1  2  1  0
  2  3  1  0
  4  5  2  3
  4  7  1  0
  4  8  1  0
  5  6  1  0
M  RAD  2   1   2   6   2
M  END
>  <reaction>  (16) 
rmg_rxn_614

>  <mol_properties>  (16) 
{"0": {"label": "*0", "atom_type": "O2s"}, "1": {"label": "*1", "atom_type": "O2s"}, "2": {"label": "*2", "atom_type": "H0"}, "3": {"label": "*3", "atom_type": "Cd"}, "4": {"label": "*4", "atom_type": "N3d"}}

>  <type>  (16) 
unop_12

>  <geom_source>  (16) 
Heuristics

$$$$

     RDKit          3D

  8  6  0  0  0  0  0  0  0  0999 V2000
   -1.6600    1.4530   -0.3255 O   0  0  0  0  0  0  0  0  0  0  0  0
    1.7334    0.1599   -0.3677 O   0  0  0  0  0  0  0  0  0  0  0  0
    2.8695    0.6524    0.0778 O   0  0  0  0  0  0  0  0  0  0  0  0
   -1.6720    0.2599   -0.3472 N   0  0  0  0  0  0  0  0  0  0  0  0
   -0.5493   -0.4874    0.1529 C   0  0  0  0  0  0  0  0  0  0  0  0
   -0.7501   -1.5725    0.0382 H   0  0  0  0  0  0  0  0  0  0  0  0
   -0.3925   -0.2582    1.2282 H   0  0  0  0  0  0  0  0  0  0  0  0
    0.4210   -0.2071   -0.4566 H   0  0  0  0  0  0  0  0  0  0  0  0
  1  4  2  0
  2  3  2  0
  4  5  1  0
  5  6  1  0
  5  7  1  0
  5  8  1  0
M  END
>  <reaction>  (17) 
rmg_rxn_614

>  <mol_properties>  (17) 
{"0": {"label": "*0", "atom_type": "O2s"}, "1": {"label": "*1", "atom_type": "O2s"}, "2": {"label": "*2", "atom_type": "H0"}, "3": {"label": "*3", "atom_type": "Cd"}, "4": {"label": "*4", "atom_type": "N3d"}}

>  <type>  (17) 
unop_13

>  <geom_source>  (17) 
AutoTST

$$$$

     RDKit          3D

  8  6  0  0  0  0  0  0  0  0999 V2000
    0.5008   -1.7397   -1.0902 O   0  0  0  0  0  1  0  0  0  0  0  0
    0.5008   -1.7397    0.2192 O   0  0  0  0  0  0  0  0  0  0  0  0
    0.5008   -0.6172    0.5366 H   0  0  0  0  0  0  0  0  0  0  0  0
    0.5008    0.6438    0.8932 C   0  0  0  0  0  0  0  0  0  0  0  0
   -0.2040    1.3850   -0.1657 N   0  0  0  0  0  0  0  0  0  0  0  0
   -1.3119    1.7145    0.1299 O   0  0  0  0  0  1  0  0  0  0  0  0
    1.4166    1.1976    1.1099 H   0  0  0  0  0  0  0  0  0  0  0  0
   -0.1194    0.5198    1.7817 H   0  0  0  0  0  0  0  0  0  0  0  0
  1  2  1  0
  2  3  1  0
  4  5  2  3
  4  7  1  0
  4  8  1  0
  5  6  1  0
M  RAD  2   1   2   6   2
M  END
>  <reaction>  (18) 
rmg_rxn_614

>  <mol_properties>  (18) 
{"0": {"label": "*0", "atom_type": "O2s"}, "1": {"label": "*1", "atom_type": "O2s"}, "2": {"label": "*2", "atom_type": "H0"}, "3": {"label": "*3", "atom_type": "Cd"}, "4": {"label": "*4", "atom_type": "N3d"}}

>  <type>  (18) 
unop_14

>  <geom_source>  (18) 
gaussian_log

$$$$
