
     RDKit          3D

  3  2  0  0  0  0  0  0  0  0999 V2000
   -0.0007    0.6157    0.0000 S   0  0  0  0  0  0  0  0  0  0  0  0
   -0.9686   -0.3090    0.0000 H   0  0  0  0  0  0  0  0  0  0  0  0
    0.9693   -0.3067    0.0000 H   0  0  0  0  0  0  0  0  0  0  0  0
  1  2  1  0
  1  3  1  0
M  END
>  <reaction>  (1) 
rmg_rxn_86

>  <mol_properties>  (1) 
{"0": {"label": "donator", "atom_type": "S2s"}, "1": {"label": "d_hydrogen", "atom_type": "H0"}}

>  <type>  (1) 
r1h

$$$$

     RDKit          3D

 13 13  0  0  0  0  0  0  0  0999 V2000
    0.5794    1.5990    0.2108 C   0  0  0  0  0  3  0  0  0  0  0  0
    1.4528    0.6621   -0.2496 O   0  0  0  0  0  0  0  0  0  0  0  0
    1.0751   -0.6763    0.0423 C   0  0  0  0  0  0  0  0  0  0  0  0
   -0.3579   -0.9282   -0.3924 C   0  0  0  0  0  0  0  0  0  0  0  0
   -1.2426    0.1393    0.2269 C   0  0  0  0  0  0  0  0  0  0  0  0
   -0.7410    1.4341   -0.0749 O   0  0  0  0  0  0  0  0  0  0  0  0
    0.9183    2.6078    0.0084 H   0  0  0  0  0  0  0  0  0  0  0  0
    1.1839   -0.8508    1.1199 H   0  0  0  0  0  0  0  0  0  0  0  0
    1.7816   -1.3130   -0.4874 H   0  0  0  0  0  0  0  0  0  0  0  0
   -0.6818   -1.9210   -0.0736 H   0  0  0  0  0  0  0  0  0  0  0  0
   -0.4271   -0.8785   -1.4810 H   0  0  0  0  0  0  0  0  0  0  0  0
   -1.2832    0.0173    1.3164 H   0  0  0  0  0  0  0  0  0  0  0  0
   -2.2575    0.1083   -0.1657 H   0  0  0  0  0  0  0  0  0  0  0  0
  1  2  1  0
  1  6  1  0
  1  7  1  0
  2  3  1  0
  3  4  1  0
  3  8  1  0
  3  9  1  0
  4  5  1  0
  4 10  1  0
  4 11  1  0
  5  6  1  0
  5 12  1  0
  5 13  1  0
M  RAD  1   1   2
M  END
>  <reaction>  (2) 
rmg_rxn_86

>  <mol_properties>  (2) 
{"0": {"label": "acceptor", "atom_type": "Cs"}}

>  <type>  (2) 
r2

$$$$

     RDKit          3D

 14 14  0  0  0  0  0  0  0  0999 V2000
   -1.1778    0.2241    0.1818 C   0  0  0  0  0  0  0  0  0  0  0  0
   -0.5633   -1.1636    0.0678 C   0  0  0  0  0  0  0  0  0  0  0  0
    0.6943   -1.1996    0.7146 O   0  0  0  0  0  0  0  0  0  0  0  0
    1.5547   -0.2288    0.2011 C   0  0  0  0  0  0  0  0  0  0  0  0
    1.0729    1.0696    0.3698 O   0  0  0  0  0  0  0  0  0  0  0  0
   -0.1607    1.2493   -0.2989 C   0  0  0  0  0  0  0  0  0  0  0  0
   -2.0927    0.2866   -0.4117 H   0  0  0  0  0  0  0  0  0  0  0  0
   -1.4303    0.4248    1.2248 H   0  0  0  0  0  0  0  0  0  0  0  0
   -1.1822   -1.9235    0.5431 H   0  0  0  0  0  0  0  0  0  0  0  0
   -0.4389   -1.4347   -0.9919 H   0  0  0  0  0  0  0  0  0  0  0  0
    1.7250   -0.4207   -0.8742 H   0  0  0  0  0  0  0  0  0  0  0  0
    2.4896   -0.3010    0.7524 H   0  0  0  0  0  0  0  0  0  0  0  0
   -0.0080    1.1481   -1.3844 H   0  0  0  0  0  0  0  0  0  0  0  0
   -0.4826    2.2695   -0.0942 H   0  0  0  0  0  0  0  0  0  0  0  0
  1  2  1  0
  1  6  1  0
  1  7  1  0
  1  8  1  0
  2  3  1  0
  2  9  1  0
  2 10  1  0
  3  4  1  0
  4  5  1  0
  4 11  1  0
  4 12  1  0
  5  6  1  0
  6 13  1  0
  6 14  1  0
M  END
>  <reaction>  (3) 
rmg_rxn_86

>  <mol_properties>  (3) 
{"0": {"label": "a_hydrogen", "atom_type": "H0"}, "1": {"label": "acceptor", "atom_type": "Cs"}}

>  <type>  (3) 
r2h

$$$$

     RDKit          3D

 16 15  0  0  0  0  0  0  0  0999 V2000
   -1.3371   -1.6446   -0.7196 S   0  0  0  0  0  1  0  0  0  0  0  0
   -0.3195   -0.8891    0.1407 H   0  0  0  0  0  0  0  0  0  0  0  0
   -0.4205   -1.7567   -1.6900 H   0  0  0  0  0  0  0  0  0  0  0  0
    0.6504   -0.0933    0.8954 C   0  0  0  0  0  0  0  0  0  0  0  0
    1.5815    0.3652    0.0153 O   0  0  0  0  0  0  0  0  0  0  0  0
    1.3321    1.6734   -0.4949 C   0  0  0  0  0  0  0  0  0  0  0  0
   -0.1589    1.9223   -0.6106 C   0  0  0  0  0  0  0  0  0  0  0  0
   -0.7879    1.7753    0.7687 C   0  0  0  0  0  0  0  0  0  0  0  0
   -0.0693    0.8293    1.5747 O   0  0  0  0  0  0  0  0  0  0  0  0
    1.0684   -0.8448    1.5609 H   0  0  0  0  0  0  0  0  0  0  0  0
    1.7965    2.4041    0.1762 H   0  0  0  0  0  0  0  0  0  0  0  0
    1.8317    1.7222   -1.4605 H   0  0  0  0  0  0  0  0  0  0  0  0
   -0.3451    2.9216   -1.0051 H   0  0  0  0  0  0  0  0  0  0  0  0
   -0.5921    1.1995   -1.3037 H   0  0  0  0  0  0  0  0  0  0  0  0
   -1.8271    1.4475    0.6999 H   0  0  0  0  0  0  0  0  0  0  0  0
   -0.7473    2.7110    1.3263 H   0  0  0  0  0  0  0  0  0  0  0  0
  1  3  1  0
  2  4  1  0
  4  5  1  0
  4  9  1  0
  4 10  1  0
  5  6  1  0
  6  7  1  0
  6 11  1  0
  6 12  1  0
  7  8  1  0
  7 13  1  0
  7 14  1  0
  8  9  1  0
  8 15  1  0
  8 16  1  0
M  RAD  1   1   2
M  END
>  <reaction>  (4) 
rmg_rxn_86

>  <mol_properties>  (4) 
{"0": {"label": "*3", "atom_type": "S2s"}, "1": {"label": "*2", "atom_type": "H0"}, "2": {"label": "*4", "atom_type": "H0"}, "3": {"label": "*1", "atom_type": "Cs"}, "4": {"label": "*0", "atom_type": "O2s"}}

>  <type>  (4) 
ts

$$$$

     RDKit          3D

 16 15  0  0  0  0  0  0  0  0999 V2000
   -0.0759   -2.4910   -0.9708 S   0  0  0  0  0  1  0  0  0  0  0  0
   -0.0759   -0.8865   -0.8937 H   0  0  0  0  0  0  0  0  0  0  0  0
   -0.0759   -2.4910   -2.3094 H   0  0  0  0  0  0  0  0  0  0  0  0
   -0.0759    0.4173   -0.8311 C   0  0  0  0  0  0  0  0  0  0  0  0
   -1.2295    0.7997   -0.1459 O   0  0  0  0  0  0  0  0  0  0  0  0
   -0.9730    1.8862    0.7231 C   0  0  0  0  0  0  0  0  0  0  0  0
    0.1459    1.5353    1.6935 C   0  0  0  0  0  0  0  0  0  0  0  0
    1.3419    1.0320    0.8981 C   0  0  0  0  0  0  0  0  0  0  0  0
    0.9475   -0.0036    0.0186 O   0  0  0  0  0  0  0  0  0  0  0  0
    0.2825    1.2623   -1.4472 H   0  0  0  0  0  0  0  0  0  0  0  0
   -0.6945    2.7717    0.1314 H   0  0  0  0  0  0  0  0  0  0  0  0
   -1.9073    2.1019    1.2395 H   0  0  0  0  0  0  0  0  0  0  0  0
    0.4231    2.4083    2.2886 H   0  0  0  0  0  0  0  0  0  0  0  0
   -0.1949    0.7509    2.3721 H   0  0  0  0  0  0  0  0  0  0  0  0
    2.1152    0.6176    1.5435 H   0  0  0  0  0  0  0  0  0  0  0  0
    1.7833    1.8574    0.3186 H   0  0  0  0  0  0  0  0  0  0  0  0
  1  3  1  0
  2  4  1  0
  4  5  1  0
  4  9  1  0
  4 10  1  0
  5  6  1  0
  6  7  1  0
  6 11  1  0
  6 12  1  0
  7  8  1  0
  7 13  1  0
  7 14  1  0
  8  9  1  0
  8 15  1  0
  8 16  1  0
M  RAD  1   1   2
M  END
>  <reaction>  (5) 
rmg_rxn_86

>  <mol_properties>  (5) 
{"0": {"label": "*3", "atom_type": "S2s"}, "1": {"label": "*2", "atom_type": "H0"}, "2": {"label": "*4", "atom_type": "H0"}, "3": {"label": "*1", "atom_type": "Cs"}, "4": {"label": "*0", "atom_type": "O2s"}}

>  <type>  (5) 
unop_1

>  <geom_source>  (5) 
Heuristics

$$$$

     RDKit          3D

 16 15  0  0  0  0  0  0  0  0999 V2000
    0.6955   -2.7663   -0.1874 S   0  0  0  0  0  1  0  0  0  0  0  0
    0.6955   -1.1618   -0.1103 H   0  0  0  0  0  0  0  0  0  0  0  0
    0.6955   -2.7663   -1.5260 H   0  0  0  0  0  0  0  0  0  0  0  0
    0.6955    0.1420   -0.0477 C   0  0  0  0  0  0  0  0  0  0  0  0
    0.0294    0.6117   -1.1800 O   0  0  0  0  0  0  0  0  0  0  0  0
   -0.4095    1.9445   -1.0004 C   0  0  0  0  0  0  0  0  0  0  0  0
   -1.2937    2.0489    0.2341 C   0  0  0  0  0  0  0  0  0  0  0  0
   -0.5572    1.4335    1.4154 C   0  0  0  0  0  0  0  0  0  0  0  0
   -0.1094    0.1311    1.0918 O   0  0  0  0  0  0  0  0  0  0  0  0
    1.5881    0.7669    0.1391 H   0  0  0  0  0  0  0  0  0  0  0  0
    0.4631    2.6074   -0.8959 H   0  0  0  0  0  0  0  0  0  0  0  0
   -0.9427    2.2240   -1.9080 H   0  0  0  0  0  0  0  0  0  0  0  0
   -1.5406    3.0929    0.4399 H   0  0  0  0  0  0  0  0  0  0  0  0
   -2.2235    1.5033    0.0619 H   0  0  0  0  0  0  0  0  0  0  0  0
   -1.1993    1.3360    2.2898 H   0  0  0  0  0  0  0  0  0  0  0  0
    0.3050    2.0604    1.6899 H   0  0  0  0  0  0  0  0  0  0  0  0
  1  3  1  0
  2  4  1  0
  4  5  1  0
  4  9  1  0
  4 10  1  0
  5  6  1  0
  6  7  1  0
  6 11  1  0
  6 12  1  0
  7  8  1  0
  7 13  1  0
  7 14  1  0
  8  9  1  0
  8 15  1  0
  8 16  1  0
M  RAD  1   1   2
M  END
>  <reaction>  (6) 
rmg_rxn_86

>  <mol_properties>  (6) 
{"0": {"label": "*3", "atom_type": "S2s"}, "1": {"label": "*2", "atom_type": "H0"}, "2": {"label": "*4", "atom_type": "H0"}, "3": {"label": "*1", "atom_type": "Cs"}, "4": {"label": "*0", "atom_type": "O2s"}}

>  <type>  (6) 
unop_2

>  <geom_source>  (6) 
Heuristics

$$$$

     RDKit          3D

 16 15  0  0  0  0  0  0  0  0999 V2000
   -0.4535   -2.6446   -0.7485 S   0  0  0  0  0  1  0  0  0  0  0  0
   -0.4535   -1.0401   -0.6714 H   0  0  0  0  0  0  0  0  0  0  0  0
   -0.4535   -2.6446   -2.0871 H   0  0  0  0  0  0  0  0  0  0  0  0
   -0.4535    0.2636   -0.6087 C   0  0  0  0  0  0  0  0  0  0  0  0
   -1.1195    0.6226    0.5634 O   0  0  0  0  0  0  0  0  0  0  0  0
   -0.6577    1.8662    1.0549 C   0  0  0  0  0  0  0  0  0  0  0  0
    0.8477    1.8223    1.2753 C   0  0  0  0  0  0  0  0  0  0  0  0
    1.5139    1.3309   -0.0018 C   0  0  0  0  0  0  0  0  0  0  0  0
    0.9226    0.1192   -0.4304 O   0  0  0  0  0  0  0  0  0  0  0  0
   -0.6451    1.0243   -1.3878 H   0  0  0  0  0  0  0  0  0  0  0  0
   -0.9103    2.6614    0.3368 H   0  0  0  0  0  0  0  0  0  0  0  0
   -1.1994    2.0584    1.9801 H   0  0  0  0  0  0  0  0  0  0  0  0
    1.2231    2.8120    1.5454 H   0  0  0  0  0  0  0  0  0  0  0  0
    1.0751    1.1339    2.0915 H   0  0  0  0  0  0  0  0  0  0  0  0
    2.5740    1.1281    0.1437 H   0  0  0  0  0  0  0  0  0  0  0  0
    1.4141    2.0884   -0.7943 H   0  0  0  0  0  0  0  0  0  0  0  0
  1  3  1  0
  2  4  1  0
  4  5  1  0
  4  9  1  0
  4 10  1  0
  5  6  1  0
  6  7  1  0
  6 11  1  0
  6 12  1  0
  7  8  1  0
  7 13  1  0
  7 14  1  0
  8  9  1  0
  8 15  1  0
  8 16  1  0
M  RAD  1   1   2
M  END
>  <reaction>  (7) 
rmg_rxn_86

>  <mol_properties>  (7) 
{"0": {"label": "*3", "atom_type": "S2s"}, "1": {"label": "*2", "atom_type": "H0"}, "2": {"label": "*4", "atom_type": "H0"}, "3": {"label": "*1", "atom_type": "Cs"}, "4": {"label": "*0", "atom_type": "O2s"}}

>  <type>  (7) 
unop_3

>  <geom_source>  (7) 
Heuristics

$$$$

     RDKit          3D

 16 15  0  0  0  0  0  0  0  0999 V2000
   -0.1849   -3.0507   -0.0464 S   0  0  0  0  0  1  0  0  0  0  0  0
   -0.1849   -1.4462    0.0307 H   0  0  0  0  0  0  0  0  0  0  0  0
   -0.1849   -3.0507   -1.3850 H   0  0  0  0  0  0  0  0  0  0  0  0
   -0.1849   -0.1424    0.0934 C   0  0  0  0  0  0  0  0  0  0  0  0
    0.9687    0.3039   -0.5520 O   0  0  0  0  0  0  0  0  0  0  0  0
    1.4388    1.5115    0.0155 C   0  0  0  0  0  0  0  0  0  0  0  0
    0.3488    2.5732   -0.0210 C   0  0  0  0  0  0  0  0  0  0  0  0
   -0.9135    1.9986    0.6061 C   0  0  0  0  0  0  0  0  0  0  0  0
   -1.2434    0.7620    0.0034 O   0  0  0  0  0  0  0  0  0  0  0  0
    0.0418   -0.3379    1.1576 H   0  0  0  0  0  0  0  0  0  0  0  0
    1.7537    1.3305    1.0547 H   0  0  0  0  0  0  0  0  0  0  0  0
    2.3153    1.8077   -0.5591 H   0  0  0  0  0  0  0  0  0  0  0  0
    0.6692    3.4681    0.5171 H   0  0  0  0  0  0  0  0  0  0  0  0
    0.1458    2.8495   -1.0574 H   0  0  0  0  0  0  0  0  0  0  0  0
   -1.7721    2.6541    0.4671 H   0  0  0  0  0  0  0  0  0  0  0  0
   -0.7640    1.8519    1.6869 H   0  0  0  0  0  0  0  0  0  0  0  0
  1  3  1  0
  2  4  1  0
  4  5  1  0
  4  9  1  0
  4 10  1  0
  5  6  1  0
  6  7  1  0
  6 11  1  0
  6 12  1  0
  7  8  1  0
  7 13  1  0
  7 14  1  0
  8  9  1  0
  8 15  1  0
  8 16  1  0
M  RAD  1   1   2
M  END
>  <reaction>  (8) 
rmg_rxn_86

>  <mol_properties>  (8) 
{"0": {"label": "*3", "atom_type": "S2s"}, "1": {"label": "*2", "atom_type": "H0"}, "2": {"label": "*4", "atom_type": "H0"}, "3": {"label": "*1", "atom_type": "Cs"}, "4": {"label": "*0", "atom_type": "O2s"}}

>  <type>  (8) 
unop_4

>  <geom_source>  (8) 
Heuristics

$$$$

     RDKit          3D

 16 15  0  0  0  0  0  0  0  0999 V2000
   -0.4295   -2.9223   -0.3692 S   0  0  0  0  0  1  0  0  0  0  0  0
   -0.4295   -1.3178   -0.2922 H   0  0  0  0  0  0  0  0  0  0  0  0
   -0.4295   -2.9223   -1.7079 H   0  0  0  0  0  0  0  0  0  0  0  0
   -0.4295   -0.0141   -0.2295 C   0  0  0  0  0  0  0  0  0  0  0  0
   -0.4295    0.3364    1.1209 O   0  0  0  0  0  0  0  0  0  0  0  0
   -0.4064    1.7413    1.2858 C   0  0  0  0  0  0  0  0  0  0  0  0
    0.7953    2.3389    0.5679 C   0  0  0  0  0  0  0  0  0  0  0  0
    0.7992    1.8449   -0.8717 C   0  0  0  0  0  0  0  0  0  0  0  0
    0.7042    0.4339   -0.9081 O   0  0  0  0  0  0  0  0  0  0  0  0
   -1.3341    0.3957   -0.7153 H   0  0  0  0  0  0  0  0  0  0  0  0
   -1.3369    2.1731    0.8863 H   0  0  0  0  0  0  0  0  0  0  0  0
   -0.3760    1.9306    2.3579 H   0  0  0  0  0  0  0  0  0  0  0  0
    0.7538    3.4301    0.5971 H   0  0  0  0  0  0  0  0  0  0  0  0
    1.7123    2.0164    1.0648 H   0  0  0  0  0  0  0  0  0  0  0  0
    1.7189    2.1107   -1.3911 H   0  0  0  0  0  0  0  0  0  0  0  0
   -0.0465    2.2840   -1.4230 H   0  0  0  0  0  0  0  0  0  0  0  0
  1  3  1  0
  2  4  1  0
  4  5  1  0
  4  9  1  0
  4 10  1  0
  5  6  1  0
  6  7  1  0
  6 11  1  0
  6 12  1  0
  7  8  1  0
  7 13  1  0
  7 14  1  0
  8  9  1  0
  8 15  1  0
  8 16  1  0
M  RAD  1   1   2
M  END
>  <reaction>  (9) 
rmg_rxn_86

>  <mol_properties>  (9) 
{"0": {"label": "*3", "atom_type": "S2s"}, "1": {"label": "*2", "atom_type": "H0"}, "2": {"label": "*4", "atom_type": "H0"}, "3": {"label": "*1", "atom_type": "Cs"}, "4": {"label": "*0", "atom_type": "O2s"}}

>  <type>  (9) 
unop_5

>  <geom_source>  (9) 
Heuristics

$$$$

     RDKit          3D

 16 15  0  0  0  0  0  0  0  0999 V2000
   -0.2070   -3.0333   -0.2510 S   0  0  0  0  0  1  0  0  0  0  0  0
   -0.2070   -1.4288   -0.1739 H   0  0  0  0  0  0  0  0  0  0  0  0
   -0.2070   -3.0333   -1.5896 H   0  0  0  0  0  0  0  0  0  0  0  0
   -0.2070   -0.1250   -0.1113 C   0  0  0  0  0  0  0  0  0  0  0  0
    1.1251    0.2893   -0.0913 O   0  0  0  0  0  0  0  0  0  0  0  0
    1.3043    1.3973    0.7699 C   0  0  0  0  0  0  0  0  0  0  0  0
    0.3846    2.5393    0.3619 C   0  0  0  0  0  0  0  0  0  0  0  0
   -1.0380    2.0079    0.2603 C   0  0  0  0  0  0  0  0  0  0  0  0
   -1.0777    0.8636   -0.5706 O   0  0  0  0  0  0  0  0  0  0  0  0
   -0.5096   -0.4377    0.9050 H   0  0  0  0  0  0  0  0  0  0  0  0
    1.0917    1.0944    1.8067 H   0  0  0  0  0  0  0  0  0  0  0  0
    2.3549    1.6775    0.7058 H   0  0  0  0  0  0  0  0  0  0  0  0
    0.4378    3.3514    1.0905 H   0  0  0  0  0  0  0  0  0  0  0  0
    0.6972    2.9278   -0.6093 H   0  0  0  0  0  0  0  0  0  0  0  0
   -1.7153    2.7385   -0.1798 H   0  0  0  0  0  0  0  0  0  0  0  0
   -1.4154    1.7480    1.2612 H   0  0  0  0  0  0  0  0  0  0  0  0
  1  3  1  0
  2  4  1  0
  4  5  1  0
  4  9  1  0
  4 10  1  0
  5  6  1  0
  6  7  1  0
  6 11  1  0
  6 12  1  0
  7  8  1  0
  7 13  1  0
  7 14  1  0
  8  9  1  0
  8 15  1  0
  8 16  1  0
M  RAD  1   1   2
M  END
>  <reaction>  (10) 
rmg_rxn_86

>  <mol_properties>  (10) 
{"0": {"label": "*3", "atom_type": "S2s"}, "1": {"label": "*2", "atom_type": "H0"}, "2": {"label": "*4", "atom_type": "H0"}, "3": {"label": "*1", "atom_type": "Cs"}, "4": {"label": "*0", "atom_type": "O2s"}}

>  <type>  (10) 
unop_6

>  <geom_source>  (10) 
Heuristics

$$$$

     RDKit          3D

 16 15  0  0  0  0  0  0  0  0999 V2000
   -0.1243   -3.0302   -0.3328 S   0  0  0  0  0  1  0  0  0  0  0  0
   -0.1243   -1.4257   -0.2557 H   0  0  0  0  0  0  0  0  0  0  0  0
   -0.1243   -3.0302   -1.6714 H   0  0  0  0  0  0  0  0  0  0  0  0
   -0.1243   -0.1220   -0.1931 C   0  0  0  0  0  0  0  0  0  0  0  0
    1.0293    0.2604    0.4921 O   0  0  0  0  0  0  0  0  0  0  0  0
    0.7836    1.3759    1.3268 C   0  0  0  0  0  0  0  0  0  0  0  0
    0.2248    2.5338    0.5122 C   0  0  0  0  0  0  0  0  0  0  0  0
   -0.9695    2.0354   -0.2890 C   0  0  0  0  0  0  0  0  0  0  0  0
   -0.6193    0.8806   -1.0274 O   0  0  0  0  0  0  0  0  0  0  0  0
   -0.9042   -0.4127    0.5345 H   0  0  0  0  0  0  0  0  0  0  0  0
    0.0715    1.0931    2.1172 H   0  0  0  0  0  0  0  0  0  0  0  0
    1.7321    1.6298    1.7981 H   0  0  0  0  0  0  0  0  0  0  0  0
   -0.0718    3.3547    1.1690 H   0  0  0  0  0  0  0  0  0  0  0  0
    0.9928    2.9008   -0.1714 H   0  0  0  0  0  0  0  0  0  0  0  0
   -1.3141    2.7758   -1.0097 H   0  0  0  0  0  0  0  0  0  0  0  0
   -1.8049    1.7990    0.3877 H   0  0  0  0  0  0  0  0  0  0  0  0
  1  3  1  0
  2  4  1  0
  4  5  1  0
  4  9  1  0
  4 10  1  0
  5  6  1  0
  6  7  1  0
  6 11  1  0
  6 12  1  0
  7  8  1  0
  7 13  1  0
  7 14  1  0
  8  9  1  0
  8 15  1  0
  8 16  1  0
M  RAD  1   1   2
M  END
>  <reaction>  (11) 
rmg_rxn_86

>  <mol_properties>  (11) 
{"0": {"label": "*3", "atom_type": "S2s"}, "1": {"label": "*2", "atom_type": "H0"}, "2": {"label": "*4", "atom_type": "H0"}, "3": {"label": "*1", "atom_type": "Cs"}, "4": {"label": "*0", "atom_type": "O2s"}}

>  <type>  (11) 
unop_7

>  <geom_source>  (11) 
Heuristics

$$$$

     RDKit          3D

 16 15  0  0  0  0  0  0  0  0999 V2000
    0.3668   -2.4884   -0.8955 S   0  0  0  0  0  1  0  0  0  0  0  0
    0.3668   -0.8839   -0.8185 H   0  0  0  0  0  0  0  0  0  0  0  0
    0.3668   -2.4884   -2.2342 H   0  0  0  0  0  0  0  0  0  0  0  0
    0.3668    0.4198   -0.7558 C   0  0  0  0  0  0  0  0  0  0  0  0
   -0.9652    0.8342   -0.7359 O   0  0  0  0  0  0  0  0  0  0  0  0
   -1.1531    1.9128    0.1600 C   0  0  0  0  0  0  0  0  0  0  0  0
   -0.6806    1.5304    1.5554 C   0  0  0  0  0  0  0  0  0  0  0  0
    0.7405    0.9941    1.4597 C   0  0  0  0  0  0  0  0  0  0  0  0
    0.8156   -0.0298    0.4863 O   0  0  0  0  0  0  0  0  0  0  0  0
    1.0061    1.2547   -1.0971 H   0  0  0  0  0  0  0  0  0  0  0  0
   -0.5941    2.7903   -0.1997 H   0  0  0  0  0  0  0  0  0  0  0  0
   -2.2149    2.1545    0.1415 H   0  0  0  0  0  0  0  0  0  0  0  0
   -0.7183    2.3952    2.2217 H   0  0  0  0  0  0  0  0  0  0  0  0
   -1.3345    0.7557    1.9605 H   0  0  0  0  0  0  0  0  0  0  0  0
    1.0756    0.5580    2.3998 H   0  0  0  0  0  0  0  0  0  0  0  0
    1.4327    1.8069    1.1914 H   0  0  0  0  0  0  0  0  0  0  0  0
  1  3  1  0
  2  4  1  0
  4  5  1  0
  4  9  1  0
  4 10  1  0
  5  6  1  0
  6  7  1  0
  6 11  1  0
  6 12  1  0
  7  8  1  0
  7 13  1  0
  7 14  1  0
  8  9  1  0
  8 15  1  0
  8 16  1  0
M  RAD  1   1   2
M  END
>  <reaction>  (12) 
rmg_rxn_86

>  <mol_properties>  (12) 
{"0": {"label": "*3", "atom_type": "S2s"}, "1": {"label": "*2", "atom_type": "H0"}, "2": {"label": "*4", "atom_type": "H0"}, "3": {"label": "*1", "atom_type": "Cs"}, "4": {"label": "*0", "atom_type": "O2s"}}

>  <type>  (12) 
unop_8

>  <geom_source>  (12) 
Heuristics

$$$$

     RDKit          3D

 16 15  0  0  0  0  0  0  0  0999 V2000
    0.0508   -3.0410    0.1376 S   0  0  0  0  0  1  0  0  0  0  0  0
    0.0508   -1.4365    0.2147 H   0  0  0  0  0  0  0  0  0  0  0  0
    0.0508   -3.0410   -1.2010 H   0  0  0  0  0  0  0  0  0  0  0  0
    0.0508   -0.1327    0.2773 C   0  0  0  0  0  0  0  0  0  0  0  0
    0.7168    0.3370   -0.8550 O   0  0  0  0  0  0  0  0  0  0  0  0
    1.1156    1.6846   -0.6929 C   0  0  0  0  0  0  0  0  0  0  0  0
   -0.0881    2.5575   -0.3676 C   0  0  0  0  0  0  0  0  0  0  0  0
   -0.8313    1.9446    0.8108 C   0  0  0  0  0  0  0  0  0  0  0  0
   -1.1141    0.5815    0.5590 O   0  0  0  0  0  0  0  0  0  0  0  0
    0.7298   -0.0864    1.1485 H   0  0  0  0  0  0  0  0  0  0  0  0
    1.8596    1.7524    0.1156 H   0  0  0  0  0  0  0  0  0  0  0  0
    1.5960    1.9835   -1.6235 H   0  0  0  0  0  0  0  0  0  0  0  0
    0.2310    3.5749   -0.1304 H   0  0  0  0  0  0  0  0  0  0  0  0
   -0.7515    2.5984   -1.2337 H   0  0  0  0  0  0  0  0  0  0  0  0
   -1.7871    2.4353    0.9893 H   0  0  0  0  0  0  0  0  0  0  0  0
   -0.2242    2.0307    1.7250 H   0  0  0  0  0  0  0  0  0  0  0  0
  1  3  1  0
  2  4  1  0
  4  5  1  0
  4  9  1  0
  4 10  1  0
  5  6  1  0
  6  7  1  0
  6 11  1  0
  6 12  1  0
  7  8  1  0
  7 13  1  0
  7 14  1  0
  8  9  1  0
  8 15  1  0
  8 16  1  0
M  RAD  1   1   2
M  END
>  <reaction>  (13) 
rmg_rxn_86

>  <mol_properties>  (13) 
{"0": {"label": "*3", "atom_type": "S2s"}, "1": {"label": "*2", "atom_type": "H0"}, "2": {"label": "*4", "atom_type": "H0"}, "3": {"label": "*1", "atom_type": "Cs"}, "4": {"label": "*0", "atom_type": "O2s"}}

>  <type>  (13) 
unop_9

>  <geom_source>  (13) 
Heuristics

$$$$

     RDKit          3D

 16 15  0  0  0  0  0  0  0  0999 V2000
    0.6665   -2.5915   -0.5896 S   0  0  0  0  0  1  0  0  0  0  0  0
    0.6665   -0.9870   -0.5125 H   0  0  0  0  0  0  0  0  0  0  0  0
    0.6665   -2.5915   -1.9282 H   0  0  0  0  0  0  0  0  0  0  0  0
    0.6665    0.3168   -0.4499 C   0  0  0  0  0  0  0  0  0  0  0  0
   -0.4871    0.7631   -1.0952 O   0  0  0  0  0  0  0  0  0  0  0  0
   -0.9831    1.9460   -0.4985 C   0  0  0  0  0  0  0  0  0  0  0  0
   -1.2405    1.7229    0.9850 C   0  0  0  0  0  0  0  0  0  0  0  0
    0.0174    1.1442    1.6170 C   0  0  0  0  0  0  0  0  0  0  0  0
    0.4538    0.0090    0.8942 O   0  0  0  0  0  0  0  0  0  0  0  0
    1.4540    1.0885   -0.5298 H   0  0  0  0  0  0  0  0  0  0  0  0
   -0.2547    2.7598   -0.6362 H   0  0  0  0  0  0  0  0  0  0  0  0
   -1.8937    2.2097   -1.0347 H   0  0  0  0  0  0  0  0  0  0  0  0
   -1.5144    2.6623    1.4705 H   0  0  0  0  0  0  0  0  0  0  0  0
   -2.0657    1.0188    1.1084 H   0  0  0  0  0  0  0  0  0  0  0  0
   -0.1552    0.8164    2.6412 H   0  0  0  0  0  0  0  0  0  0  0  0
    0.8161    1.9016    1.6281 H   0  0  0  0  0  0  0  0  0  0  0  0
  1  3  1  0
  2  4  1  0
  4  5  1  0
  4  9  1  0
  4 10  1  0
  5  6  1  0
  6  7  1  0
  6 11  1  0
  6 12  1  0
  7  8  1  0
  7 13  1  0
  7 14  1  0
  8  9  1  0
  8 15  1  0
  8 16  1  0
M  RAD  1   1   2
M  END
>  <reaction>  (14) 
rmg_rxn_86

>  <mol_properties>  (14) 
{"0": {"label": "*3", "atom_type": "S2s"}, "1": {"label": "*2", "atom_type": "H0"}, "2": {"label": "*4", "atom_type": "H0"}, "3": {"label": "*1", "atom_type": "Cs"}, "4": {"label": "*0", "atom_type": "O2s"}}

>  <type>  (14) 
unop_10

>  <geom_source>  (14) 
Heuristics

$$$$

     RDKit          3D

 16 15  0  0  0  0  0  0  0  0999 V2000
   -0.1527   -3.0375   -0.2837 S   0  0  0  0  0  1  0  0  0  0  0  0
   -0.1527   -1.4330   -0.2066 H   0  0  0  0  0  0  0  0  0  0  0  0
   -0.1527   -3.0375   -1.6223 H   0  0  0  0  0  0  0  0  0  0  0  0
   -0.1527   -0.1293   -0.1440 C   0  0  0  0  0  0  0  0  0  0  0  0
    0.5133    0.2297    1.0282 O   0  0  0  0  0  0  0  0  0  0  0  0
    0.0841    1.4945    1.4947 C   0  0  0  0  0  0  0  0  0  0  0  0
    0.2749    2.5498    0.4147 C   0  0  0  0  0  0  0  0  0  0  0  0
   -0.3858    2.0619   -0.8667 C   0  0  0  0  0  0  0  0  0  0  0  0
    0.0714    0.7634   -1.1925 O   0  0  0  0  0  0  0  0  0  0  0  0
   -1.2380   -0.1961    0.0559 H   0  0  0  0  0  0  0  0  0  0  0  0
   -0.9767    1.4385    1.7835 H   0  0  0  0  0  0  0  0  0  0  0  0
    0.6687    1.7144    2.3870 H   0  0  0  0  0  0  0  0  0  0  0  0
   -0.1592    3.5014    0.7297 H   0  0  0  0  0  0  0  0  0  0  0  0
    1.3417    2.7002    0.2385 H   0  0  0  0  0  0  0  0  0  0  0  0
   -0.1479    2.7004   -1.7163 H   0  0  0  0  0  0  0  0  0  0  0  0
   -1.4797    2.0458   -0.7440 H   0  0  0  0  0  0  0  0  0  0  0  0
  1  3  1  0
  2  4  1  0
  4  5  1  0
  4  9  1  0
  4 10  1  0
  5  6  1  0
  6  7  1  0
  6 11  1  0
  6 12  1  0
  7  8  1  0
  7 13  1  0
  7 14  1  0
  8  9  1  0
  8 15  1  0
  8 16  1  0
M  RAD  1   1   2
M  END
>  <reaction>  (15) 
rmg_rxn_86

>  <mol_properties>  (15) 
{"0": {"label": "*3", "atom_type": "S2s"}, "1": {"label": "*2", "atom_type": "H0"}, "2": {"label": "*4", "atom_type": "H0"}, "3": {"label": "*1", "atom_type": "Cs"}, "4": {"label": "*0", "atom_type": "O2s"}}

>  <type>  (15) 
unop_11

>  <geom_source>  (15) 
Heuristics

$$$$

     RDKit          3D

 16 15  0  0  0  0  0  0  0  0999 V2000
    0.4295   -2.9453    0.1096 S   0  0  0  0  0  1  0  0  0  0  0  0
    0.4295   -1.3408    0.1867 H   0  0  0  0  0  0  0  0  0  0  0  0
    0.4295   -2.9453   -1.2290 H   0  0  0  0  0  0  0  0  0  0  0  0
    0.4295   -0.0371    0.2494 C   0  0  0  0  0  0  0  0  0  0  0  0
    0.4295    0.4412   -1.0612 O   0  0  0  0  0  0  0  0  0  0  0  0
    0.4064    1.8554   -1.0907 C   0  0  0  0  0  0  0  0  0  0  0  0
   -0.7953    2.3815   -0.3188 C   0  0  0  0  0  0  0  0  0  0  0  0
   -0.7992    1.7518    1.0668 C   0  0  0  0  0  0  0  0  0  0  0  0
   -0.7042    0.3437    0.9677 O   0  0  0  0  0  0  0  0  0  0  0  0
    1.3341    0.3242    0.7722 H   0  0  0  0  0  0  0  0  0  0  0  0
    1.3369    2.2470   -0.6517 H   0  0  0  0  0  0  0  0  0  0  0  0
    0.3760    2.1467   -2.1397 H   0  0  0  0  0  0  0  0  0  0  0  0
   -0.7538    3.4704   -0.2433 H   0  0  0  0  0  0  0  0  0  0  0  0
   -1.7123    2.1081   -0.8444 H   0  0  0  0  0  0  0  0  0  0  0  0
   -1.7189    1.9666    1.6093 H   0  0  0  0  0  0  0  0  0  0  0  0
    0.0465    2.1360    1.6576 H   0  0  0  0  0  0  0  0  0  0  0  0
  1  3  1  0
  2  4  1  0
  4  5  1  0
  4  9  1  0
  4 10  1  0
  5  6  1  0
  6  7  1  0
  6 11  1  0
  6 12  1  0
  7  8  1  0
  7 13  1  0
  7 14  1  0
  8  9  1  0
  8 15  1  0
  8 16  1  0
M  RAD  1   1   2
M  END
>  <reaction>  (16) 
rmg_rxn_86

>  <mol_properties>  (16) 
{"0": {"label": "*3", "atom_type": "S2s"}, "1": {"label": "*2", "atom_type": "H0"}, "2": {"label": "*4", "atom_type": "H0"}, "3": {"label": "*1", "atom_type": "Cs"}, "4": {"label": "*0", "atom_type": "O2s"}}

>  <type>  (16) 
unop_12

>  <geom_source>  (16) 
Heuristics

$$$$

     RDKit          3D

 16 15  0  0  0  0  0  0  0  0999 V2000
    0.6955   -2.7663   -0.1874 S   0  0  0  0  0  1  0  0  0  0  0  0
    0.6955   -1.1618   -0.1103 H   0  0  0  0  0  0  0  0  0  0  0  0
    0.6955   -2.7663   -1.5260 H   0  0  0  0  0  0  0  0  0  0  0  0
    0.6955    0.1419   -0.0476 C   0  0  0  0  0  0  0  0  0  0  0  0
    0.0294    0.6117   -1.1800 O   0  0  0  0  0  0  0  0  0  0  0  0
   -0.4096    1.9445   -1.0004 C   0  0  0  0  0  0  0  0  0  0  0  0
   -1.2937    2.0489    0.2341 C   0  0  0  0  0  0  0  0  0  0  0  0
   -0.5572    1.4335    1.4154 C   0  0  0  0  0  0  0  0  0  0  0  0
   -0.1094    0.1311    1.0918 O   0  0  0  0  0  0  0  0  0  0  0  0
    1.5881    0.7669    0.1391 H   0  0  0  0  0  0  0  0  0  0  0  0
    0.4631    2.6074   -0.8959 H   0  0  0  0  0  0  0  0  0  0  0  0
   -0.9427    2.2240   -1.9080 H   0  0  0  0  0  0  0  0  0  0  0  0
   -1.5406    3.0929    0.4399 H   0  0  0  0  0  0  0  0  0  0  0  0
   -2.2235    1.5033    0.0619 H   0  0  0  0  0  0  0  0  0  0  0  0
   -1.1993    1.3360    2.2898 H   0  0  0  0  0  0  0  0  0  0  0  0
    0.3050    2.0604    1.6899 H   0  0  0  0  0  0  0  0  0  0  0  0
  1  3  1  0
  2  4  1  0
  4  5  1  0
  4  9  1  0
  4 10  1  0
  5  6  1  0
  6  7  1  0
  6 11  1  0
  6 12  1  0
  7  8  1  0
  7 13  1  0
  7 14  1  0
  8  9  1  0
  8 15  1  0
  8 16  1  0
M  RAD  1   1   2
M  END
>  <reaction>  (17) 
rmg_rxn_86

>  <mol_properties>  (17) 
{"0": {"label": "*3", "atom_type": "S2s"}, "1": {"label": "*2", "atom_type": "H0"}, "2": {"label": "*4", "atom_type": "H0"}, "3": {"label": "*1", "atom_type": "Cs"}, "4": {"label": "*0", "atom_type": "O2s"}}

>  <type>  (17) 
unop_13

>  <geom_source>  (17) 
gaussian_log

$$$$
