
     RDKit          3D

 14 13  0  0  0  0  0  0  0  0999 V2000
    1.8106   -0.5953    0.5577 C   0  0  0  0  0  0  0  0  0  0  0  0
    0.5197    0.2064    0.6554 C   0  0  0  0  0  0  0  0  0  0  0  0
   -0.5206   -0.2080   -0.3788 C   0  0  0  0  0  0  0  0  0  0  0  0
   -1.8114    0.5937   -0.2812 C   0  0  0  0  0  0  0  0  0  0  0  0
    2.2725   -0.4752   -0.4251 H   0  0  0  0  0  0  0  0  0  0  0  0
    1.6214   -1.6612    0.7052 H   0  0  0  0  0  0  0  0  0  0  0  0
    2.5364   -0.2784    1.3084 H   0  0  0  0  0  0  0  0  0  0  0  0
    0.0930    0.0950    1.6574 H   0  0  0  0  0  0  0  0  0  0  0  0
    0.7393    1.2723    0.5354 H   0  0  0  0  0  0  0  0  0  0  0  0
   -0.7402   -1.2739   -0.2588 H   0  0  0  0  0  0  0  0  0  0  0  0
   -0.0938   -0.0965   -1.3808 H   0  0  0  0  0  0  0  0  0  0  0  0
   -1.6222    1.6596   -0.4287 H   0  0  0  0  0  0  0  0  0  0  0  0
   -2.2734    0.4736    0.7017 H   0  0  0  0  0  0  0  0  0  0  0  0
   -2.5373    0.2768   -1.0318 H   0  0  0  0  0  0  0  0  0  0  0  0
  1  2  1  0
  1  5  1  0
  1  6  1  0
  1  7  1  0
  2  3  1  0
  2  8  1  0
  2  9  1  0
  3  4  1  0
  3 10  1  0
  3 11  1  0
  4 12  1  0
  4 13  1  0
  4 14  1  0
M  END
>  <reaction>  (1) 
rmg_rxn_196

>  <mol_properties>  (1) 
{"2": {"label": "donator", "atom_type": "Cs"}, "10": {"label": "d_hydrogen", "atom_type": "H0"}}

>  <type>  (1) 
r1h

$$$$

     RDKit          3D

 13 13  0  0  0  0  0  0  0  0999 V2000
   -1.1371    0.3608    0.3110 C   0  0  0  0  0  3  0  0  0  0  0  0
   -0.0045    1.3224    0.2943 C   0  0  0  0  0  0  0  0  0  0  0  0
    1.2245    0.6965    0.6137 O   0  0  0  0  0  0  0  0  0  0  0  0
    1.3926   -0.4921   -0.0955 C   0  0  0  0  0  0  0  0  0  0  0  0
    0.4387   -1.4537    0.2351 O   0  0  0  0  0  0  0  0  0  0  0  0
   -0.8659   -1.0349   -0.1206 C   0  0  0  0  0  0  0  0  0  0  0  0
   -2.1544    0.7285    0.3341 H   0  0  0  0  0  0  0  0  0  0  0  0
   -0.1488    2.1272    1.0165 H   0  0  0  0  0  0  0  0  0  0  0  0
    0.0825    1.7949   -0.7036 H   0  0  0  0  0  0  0  0  0  0  0  0
    1.3549   -0.2872   -1.1815 H   0  0  0  0  0  0  0  0  0  0  0  0
    2.3646   -0.8956    0.1787 H   0  0  0  0  0  0  0  0  0  0  0  0
   -1.5620   -1.7401    0.3358 H   0  0  0  0  0  0  0  0  0  0  0  0
   -0.9852   -1.1268   -1.2179 H   0  0  0  0  0  0  0  0  0  0  0  0
  1  2  1  0
  1  6  1  0
  1  7  1  0
  2  3  1  0
  2  8  1  0
  2  9  1  0
  3  4  1  0
  4  5  1  0
  4 10  1  0
  4 11  1  0
  5  6  1  0
  6 12  1  0
  6 13  1  0
M  RAD  1   1   2
M  END
>  <reaction>  (2) 
rmg_rxn_196

>  <mol_properties>  (2) 
{"0": {"label": "acceptor", "atom_type": "Cs"}}

>  <type>  (2) 
r2

$$$$

     RDKit          3D

 14 14  0  0  0  0  0  0  0  0999 V2000
   -1.1778    0.2241    0.1818 C   0  0  0  0  0  0  0  0  0  0  0  0
   -0.5633   -1.1636    0.0678 C   0  0  0  0  0  0  0  0  0  0  0  0
    0.6943   -1.1996    0.7146 O   0  0  0  0  0  0  0  0  0  0  0  0
    1.5547   -0.2288    0.2011 C   0  0  0  0  0  0  0  0  0  0  0  0
    1.0729    1.0696    0.3698 O   0  0  0  0  0  0  0  0  0  0  0  0
   -0.1607    1.2493   -0.2989 C   0  0  0  0  0  0  0  0  0  0  0  0
   -2.0927    0.2866   -0.4117 H   0  0  0  0  0  0  0  0  0  0  0  0
   -1.4303    0.4248    1.2248 H   0  0  0  0  0  0  0  0  0  0  0  0
   -1.1822   -1.9235    0.5431 H   0  0  0  0  0  0  0  0  0  0  0  0
   -0.4389   -1.4347   -0.9919 H   0  0  0  0  0  0  0  0  0  0  0  0
    1.7250   -0.4207   -0.8742 H   0  0  0  0  0  0  0  0  0  0  0  0
    2.4896   -0.3010    0.7524 H   0  0  0  0  0  0  0  0  0  0  0  0
   -0.0080    1.1481   -1.3844 H   0  0  0  0  0  0  0  0  0  0  0  0
   -0.4826    2.2695   -0.0942 H   0  0  0  0  0  0  0  0  0  0  0  0
  1  2  1  0
  1  6  1  0
  1  7  1  0
  1  8  1  0
  2  3  1  0
  2  9  1  0
  2 10  1  0
  3  4  1  0
  4  5  1  0
  4 11  1  0
  4 12  1  0
  5  6  1  0
  6 13  1  0
  6 14  1  0
M  END
>  <reaction>  (3) 
rmg_rxn_196

>  <mol_properties>  (3) 
{"0": {"label": "acceptor", "atom_type": "Cs"}, "13": {"label": "a_hydrogen", "atom_type": "H0"}}

>  <type>  (3) 
r2h

$$$$

     RDKit          3D

 27 26  0  0  0  0  0  0  0  0999 V2000
   -0.0344    0.5363   -0.5528 C   0  0  0  0  0  3  0  0  0  0  0  0
    0.0987    1.7783    0.2882 C   0  0  0  0  0  0  0  0  0  0  0  0
    1.3719    2.3793    0.0776 O   0  0  0  0  0  0  0  0  0  0  0  0
    2.3998    1.4699    0.3283 C   0  0  0  0  0  0  0  0  0  0  0  0
    2.3630    0.3543   -0.5098 O   0  0  0  0  0  0  0  0  0  0  0  0
    1.1500   -0.3696   -0.3407 C   0  0  0  0  0  0  0  0  0  0  0  0
   -0.2436    0.7410   -1.6014 H   0  0  0  0  0  0  0  0  0  0  0  0
   -0.6467    2.5315    0.0380 H   0  0  0  0  0  0  0  0  0  0  0  0
   -0.0057    1.5274    1.3549 H   0  0  0  0  0  0  0  0  0  0  0  0
    2.3474    1.1384    1.3819 H   0  0  0  0  0  0  0  0  0  0  0  0
    3.3397    1.9843    0.1391 H   0  0  0  0  0  0  0  0  0  0  0  0
    1.1244   -0.7933    0.6758 H   0  0  0  0  0  0  0  0  0  0  0  0
    1.1758   -1.1933   -1.0528 H   0  0  0  0  0  0  0  0  0  0  0  0
   -1.8459   -2.4502   -1.5576 C   0  0  0  0  0  0  0  0  0  0  0  0
   -1.7899   -2.3001   -0.0429 C   0  0  0  0  0  0  0  0  0  0  0  0
   -2.0890   -0.8979    0.4291 C   0  0  0  0  0  0  0  0  0  0  0  0
   -2.0147   -0.6728    1.9174 C   0  0  0  0  0  0  0  0  0  0  0  0
   -1.1250   -1.7901   -2.0446 H   0  0  0  0  0  0  0  0  0  0  0  0
   -2.8369   -2.1935   -1.9383 H   0  0  0  0  0  0  0  0  0  0  0  0
   -1.6239   -3.4731   -1.8643 H   0  0  0  0  0  0  0  0  0  0  0  0
   -2.5001   -2.9963    0.4209 H   0  0  0  0  0  0  0  0  0  0  0  0
   -0.8013   -2.5980    0.3236 H   0  0  0  0  0  0  0  0  0  0  0  0
   -2.9953   -0.4876   -0.0217 H   0  0  0  0  0  0  0  0  0  0  0  0
   -1.1394   -0.1540   -0.0963 H   0  0  0  0  0  0  0  0  0  0  0  0
   -1.0310   -0.9485    2.3072 H   0  0  0  0  0  0  0  0  0  0  0  0
   -2.7554   -1.2807    2.4478 H   0  0  0  0  0  0  0  0  0  0  0  0
   -2.1993    0.3710    2.1767 H   0  0  0  0  0  0  0  0  0  0  0  0
  1  2  1  0
  1  6  1  0
  1  7  1  0
  2  3  1  0
  2  8  1  0
  2  9  1  0
  3  4  1  0
  4  5  1  0
  4 10  1  0
  4 11  1  0
  5  6  1  0
  6 12  1  0
  6 13  1  0
 14 15  1  0
 14 18  1  0
 14 19  1  0
 14 20  1  0
 15 16  1  0
 15 21  1  0
 15 22  1  0
 16 17  1  0
 16 23  1  0
 16 24  1  0
 17 25  1  0
 17 26  1  0
 17 27  1  0
M  RAD  1   1   2
M  END
>  <reaction>  (4) 
rmg_rxn_196

>  <mol_properties>  (4) 
{"0": {"label": "*3", "atom_type": "Cs"}, "1": {"label": "*4", "atom_type": "Cs"}, "14": {"label": "*0", "atom_type": "Cs"}, "15": {"label": "*1", "atom_type": "Cs"}, "23": {"label": "*2", "atom_type": "H0"}}

>  <type>  (4) 
ts

$$$$

     RDKit          3D

 27 26  0  0  0  0  0  0  0  0999 V2000
    0.7453   -0.0186   -0.5577 C   0  0  0  0  0  0  0  0  0  0  0  0
    0.3144    1.2272   -1.3187 C   0  0  0  0  0  0  0  0  0  0  0  0
    1.0864    2.3419   -0.9152 O   0  0  0  0  0  0  0  0  0  0  0  0
    1.0008    2.5439    0.4626 C   0  0  0  0  0  0  0  0  0  0  0  0
    1.4752    1.4601    1.2021 O   0  0  0  0  0  0  0  0  0  0  0  0
    0.7278    0.2895    0.9327 C   0  0  0  0  0  0  0  0  0  0  0  0
    1.7571   -0.2963   -0.8591 H   0  0  0  0  0  0  0  0  0  0  0  0
    0.4583    1.1184   -2.3928 H   0  0  0  0  0  0  0  0  0  0  0  0
   -0.7512    1.4322   -1.1332 H   0  0  0  0  0  0  0  0  0  0  0  0
   -0.0502    2.7457    0.7397 H   0  0  0  0  0  0  0  0  0  0  0  0
    1.6281    3.3992    0.7037 H   0  0  0  0  0  0  0  0  0  0  0  0
   -0.3087    0.4285    1.2766 H   0  0  0  0  0  0  0  0  0  0  0  0
    1.1766   -0.5109    1.5194 H   0  0  0  0  0  0  0  0  0  0  0  0
   -1.3525   -2.7296   -1.7972 C   0  0  0  0  0  0  0  0  0  0  0  0
   -1.3525   -2.7296   -0.2745 C   0  0  0  0  0  0  0  0  0  0  0  0
   -1.3525   -1.3272    0.3229 C   0  0  0  0  0  3  0  0  0  0  0  0
   -1.3525   -1.3272    1.8456 C   0  0  0  0  0  0  0  0  0  0  0  0
   -0.4709   -2.2163   -2.1886 H   0  0  0  0  0  0  0  0  0  0  0  0
   -2.2340   -2.2163   -2.1886 H   0  0  0  0  0  0  0  0  0  0  0  0
   -1.3525   -3.7447   -2.1976 H   0  0  0  0  0  0  0  0  0  0  0  0
   -2.2275   -3.2755    0.0928 H   0  0  0  0  0  0  0  0  0  0  0  0
   -0.4774   -3.2755    0.0928 H   0  0  0  0  0  0  0  0  0  0  0  0
   -2.2275   -0.7813   -0.0444 H   0  0  0  0  0  0  0  0  0  0  0  0
   -0.3024   -0.6722   -0.1179 H   0  0  0  0  0  0  0  0  0  0  0  0
   -0.4709   -1.8406    2.2369 H   0  0  0  0  0  0  0  0  0  0  0  0
   -2.2340   -1.8406    2.2369 H   0  0  0  0  0  0  0  0  0  0  0  0
   -1.3525   -0.3121    2.2459 H   0  0  0  0  0  0  0  0  0  0  0  0
  1  2  1  0
  1  6  1  0
  1  7  1  0
  1 24  1  0
  2  3  1  0
  2  8  1  0
  2  9  1  0
  3  4  1  0
  4  5  1  0
  4 10  1  0
  4 11  1  0
  5  6  1  0
  6 12  1  0
  6 13  1  0
 14 15  1  0
 14 18  1  0
 14 19  1  0
 14 20  1  0
 15 16  1  0
 15 21  1  0
 15 22  1  0
 16 17  1  0
 16 23  1  0
 17 25  1  0
 17 26  1  0
 17 27  1  0
M  RAD  1  16   2
M  END
>  <reaction>  (5) 
rmg_rxn_196

>  <mol_properties>  (5) 
{"0": {"label": "*3", "atom_type": "Cs"}, "1": {"label": "*4", "atom_type": "Cs"}, "14": {"label": "*0", "atom_type": "Cs"}, "15": {"label": "*1", "atom_type": "Cs"}, "23": {"label": "*2", "atom_type": "H0"}}

>  <type>  (5) 
unop_1

>  <geom_source>  (5) 
Heuristics

$$$$

     RDKit          3D

 27 26  0  0  0  0  0  0  0  0999 V2000
    0.7139    0.2547    0.4559 C   0  0  0  0  0  0  0  0  0  0  0  0
    1.1007   -0.2328   -0.9331 C   0  0  0  0  0  0  0  0  0  0  0  0
    1.8103    0.7745   -1.6282 O   0  0  0  0  0  0  0  0  0  0  0  0
    1.0705    1.9551   -1.7014 C   0  0  0  0  0  0  0  0  0  0  0  0
    0.7736    2.4899   -0.4476 O   0  0  0  0  0  0  0  0  0  0  0  0
   -0.0018    1.5913    0.3224 C   0  0  0  0  0  0  0  0  0  0  0  0
    1.6146    0.3838    1.0591 H   0  0  0  0  0  0  0  0  0  0  0  0
    1.7528   -1.1042   -0.8921 H   0  0  0  0  0  0  0  0  0  0  0  0
    0.1982   -0.5049   -1.5017 H   0  0  0  0  0  0  0  0  0  0  0  0
    0.1307    1.7660   -2.2520 H   0  0  0  0  0  0  0  0  0  0  0  0
    1.6792    2.6860   -2.2290 H   0  0  0  0  0  0  0  0  0  0  0  0
   -0.9818    1.4476   -0.1579 H   0  0  0  0  0  0  0  0  0  0  0  0
   -0.1629    2.0655    1.2896 H   0  0  0  0  0  0  0  0  0  0  0  0
   -1.3838   -2.4563   -0.7836 C   0  0  0  0  0  0  0  0  0  0  0  0
   -1.3838   -2.4563    0.7391 C   0  0  0  0  0  0  0  0  0  0  0  0
   -1.3838   -1.0540    1.3365 C   0  0  0  0  0  3  0  0  0  0  0  0
   -1.3838   -1.0540    2.8592 C   0  0  0  0  0  0  0  0  0  0  0  0
   -0.5023   -1.9430   -1.1750 H   0  0  0  0  0  0  0  0  0  0  0  0
   -2.2653   -1.9430   -1.1750 H   0  0  0  0  0  0  0  0  0  0  0  0
   -1.3838   -3.4714   -1.1840 H   0  0  0  0  0  0  0  0  0  0  0  0
   -2.2588   -3.0022    1.1064 H   0  0  0  0  0  0  0  0  0  0  0  0
   -0.5088   -3.0022    1.1064 H   0  0  0  0  0  0  0  0  0  0  0  0
   -2.2588   -0.5081    0.9691 H   0  0  0  0  0  0  0  0  0  0  0  0
   -0.3338   -0.3989    0.8957 H   0  0  0  0  0  0  0  0  0  0  0  0
   -0.5023   -1.5673    3.2505 H   0  0  0  0  0  0  0  0  0  0  0  0
   -2.2653   -1.5673    3.2505 H   0  0  0  0  0  0  0  0  0  0  0  0
   -1.3838   -0.0389    3.2595 H   0  0  0  0  0  0  0  0  0  0  0  0
  1  2  1  0
  1  6  1  0
  1  7  1  0
  1 24  1  0
  2  3  1  0
  2  8  1  0
  2  9  1  0
  3  4  1  0
  4  5  1  0
  4 10  1  0
  4 11  1  0
  5  6  1  0
  6 12  1  0
  6 13  1  0
 14 15  1  0
 14 18  1  0
 14 19  1  0
 14 20  1  0
 15 16  1  0
 15 21  1  0
 15 22  1  0
 16 17  1  0
 16 23  1  0
 17 25  1  0
 17 26  1  0
 17 27  1  0
M  RAD  1  16   2
M  END
>  <reaction>  (6) 
rmg_rxn_196

>  <mol_properties>  (6) 
{"0": {"label": "*3", "atom_type": "Cs"}, "1": {"label": "*4", "atom_type": "Cs"}, "14": {"label": "*0", "atom_type": "Cs"}, "15": {"label": "*1", "atom_type": "Cs"}, "23": {"label": "*2", "atom_type": "H0"}}

>  <type>  (6) 
unop_2

>  <geom_source>  (6) 
Heuristics

$$$$

     RDKit          3D

 27 26  0  0  0  0  0  0  0  0999 V2000
    0.3938    0.1963   -0.7057 C   0  0  0  0  0  0  0  0  0  0  0  0
    0.0969    1.6871   -0.7834 C   0  0  0  0  0  0  0  0  0  0  0  0
    1.2542    2.4365   -0.4664 O   0  0  0  0  0  0  0  0  0  0  0  0
    1.7513    2.0912    0.7906 C   0  0  0  0  0  0  0  0  0  0  0  0
    2.1260    0.7502    0.8782 O   0  0  0  0  0  0  0  0  0  0  0  0
    1.0239   -0.1061    0.6463 C   0  0  0  0  0  0  0  0  0  0  0  0
    1.0908   -0.0769   -1.5003 H   0  0  0  0  0  0  0  0  0  0  0  0
   -0.2084    1.9900   -1.7841 H   0  0  0  0  0  0  0  0  0  0  0  0
   -0.7119    1.9471   -0.0834 H   0  0  0  0  0  0  0  0  0  0  0  0
    0.9884    2.3104    1.5601 H   0  0  0  0  0  0  0  0  0  0  0  0
    2.6444    2.6884    0.9604 H   0  0  0  0  0  0  0  0  0  0  0  0
    0.2803    0.0278    1.4469 H   0  0  0  0  0  0  0  0  0  0  0  0
    1.4025   -1.1259    0.7004 H   0  0  0  0  0  0  0  0  0  0  0  0
   -1.7039   -2.5147   -1.9453 C   0  0  0  0  0  0  0  0  0  0  0  0
   -1.7039   -2.5147   -0.4226 C   0  0  0  0  0  0  0  0  0  0  0  0
   -1.7039   -1.1123    0.1748 C   0  0  0  0  0  3  0  0  0  0  0  0
   -1.7039   -1.1123    1.6975 C   0  0  0  0  0  0  0  0  0  0  0  0
   -0.8224   -2.0014   -2.3366 H   0  0  0  0  0  0  0  0  0  0  0  0
   -2.5855   -2.0014   -2.3366 H   0  0  0  0  0  0  0  0  0  0  0  0
   -1.7039   -3.5298   -2.3456 H   0  0  0  0  0  0  0  0  0  0  0  0
   -2.5790   -3.0606   -0.0553 H   0  0  0  0  0  0  0  0  0  0  0  0
   -0.8289   -3.0606   -0.0553 H   0  0  0  0  0  0  0  0  0  0  0  0
   -2.5790   -0.5664   -0.1925 H   0  0  0  0  0  0  0  0  0  0  0  0
   -0.6539   -0.4573   -0.2660 H   0  0  0  0  0  0  0  0  0  0  0  0
   -0.8224   -1.6257    2.0889 H   0  0  0  0  0  0  0  0  0  0  0  0
   -2.5855   -1.6257    2.0889 H   0  0  0  0  0  0  0  0  0  0  0  0
   -1.7039   -0.0972    2.0979 H   0  0  0  0  0  0  0  0  0  0  0  0
  1  2  1  0
  1  6  1  0
  1  7  1  0
  1 24  1  0
  2  3  1  0
  2  8  1  0
  2  9  1  0
  3  4  1  0
  4  5  1  0
  4 10  1  0
  4 11  1  0
  5  6  1  0
  6 12  1  0
  6 13  1  0
 14 15  1  0
 14 18  1  0
 14 19  1  0
 14 20  1  0
 15 16  1  0
 15 21  1  0
 15 22  1  0
 16 17  1  0
 16 23  1  0
 17 25  1  0
 17 26  1  0
 17 27  1  0
M  RAD  1  16   2
M  END
>  <reaction>  (7) 
rmg_rxn_196

>  <mol_properties>  (7) 
{"0": {"label": "*3", "atom_type": "Cs"}, "1": {"label": "*4", "atom_type": "Cs"}, "14": {"label": "*0", "atom_type": "Cs"}, "15": {"label": "*1", "atom_type": "Cs"}, "23": {"label": "*2", "atom_type": "H0"}}

>  <type>  (7) 
unop_3

>  <geom_source>  (7) 
Heuristics

$$$$

     RDKit          3D

 27 26  0  0  0  0  0  0  0  0999 V2000
    0.0297    0.5155   -0.0008 C   0  0  0  0  0  0  0  0  0  0  0  0
    1.3111   -0.1997    0.4032 C   0  0  0  0  0  0  0  0  0  0  0  0
    2.3872    0.7166    0.4658 O   0  0  0  0  0  0  0  0  0  0  0  0
    2.5508    1.3877   -0.7463 C   0  0  0  0  0  0  0  0  0  0  0  0
    1.4304    2.1352   -1.1101 O   0  0  0  0  0  0  0  0  0  0  0  0
    0.2936    1.3089   -1.2725 C   0  0  0  0  0  0  0  0  0  0  0  0
   -0.2722    1.1975    0.7965 H   0  0  0  0  0  0  0  0  0  0  0  0
    1.2298   -0.6556    1.3890 H   0  0  0  0  0  0  0  0  0  0  0  0
    1.5456   -0.9921   -0.3241 H   0  0  0  0  0  0  0  0  0  0  0  0
    2.7789    0.6563   -1.5432 H   0  0  0  0  0  0  0  0  0  0  0  0
    3.3774    2.0837   -0.6217 H   0  0  0  0  0  0  0  0  0  0  0  0
    0.4566    0.6226   -2.1177 H   0  0  0  0  0  0  0  0  0  0  0  0
   -0.5383    1.9657   -1.5229 H   0  0  0  0  0  0  0  0  0  0  0  0
   -2.0680   -2.1956   -1.2403 C   0  0  0  0  0  0  0  0  0  0  0  0
   -2.0680   -2.1956    0.2824 C   0  0  0  0  0  0  0  0  0  0  0  0
   -2.0680   -0.7932    0.8798 C   0  0  0  0  0  3  0  0  0  0  0  0
   -2.0680   -0.7932    2.4025 C   0  0  0  0  0  0  0  0  0  0  0  0
   -1.1865   -1.6822   -1.6316 H   0  0  0  0  0  0  0  0  0  0  0  0
   -2.9495   -1.6822   -1.6316 H   0  0  0  0  0  0  0  0  0  0  0  0
   -2.0680   -3.2107   -1.6406 H   0  0  0  0  0  0  0  0  0  0  0  0
   -2.9431   -2.7414    0.6497 H   0  0  0  0  0  0  0  0  0  0  0  0
   -1.1930   -2.7414    0.6497 H   0  0  0  0  0  0  0  0  0  0  0  0
   -2.9431   -0.2473    0.5125 H   0  0  0  0  0  0  0  0  0  0  0  0
   -1.0180   -0.1381    0.4390 H   0  0  0  0  0  0  0  0  0  0  0  0
   -1.1865   -1.3065    2.7939 H   0  0  0  0  0  0  0  0  0  0  0  0
   -2.9495   -1.3065    2.7939 H   0  0  0  0  0  0  0  0  0  0  0  0
   -2.0680    0.2219    2.8029 H   0  0  0  0  0  0  0  0  0  0  0  0
  1  2  1  0
  1  6  1  0
  1  7  1  0
  1 24  1  0
  2  3  1  0
  2  8  1  0
  2  9  1  0
  3  4  1  0
  4  5  1  0
  4 10  1  0
  4 11  1  0
  5  6  1  0
  6 12  1  0
  6 13  1  0
 14 15  1  0
 14 18  1  0
 14 19  1  0
 14 20  1  0
 15 16  1  0
 15 21  1  0
 15 22  1  0
 16 17  1  0
 16 23  1  0
 17 25  1  0
 17 26  1  0
 17 27  1  0
M  RAD  1  16   2
M  END
>  <reaction>  (8) 
rmg_rxn_196

>  <mol_properties>  (8) 
{"0": {"label": "*3", "atom_type": "Cs"}, "1": {"label": "*4", "atom_type": "Cs"}, "14": {"label": "*0", "atom_type": "Cs"}, "15": {"label": "*1", "atom_type": "Cs"}, "23": {"label": "*2", "atom_type": "H0"}}

>  <type>  (8) 
unop_4

>  <geom_source>  (8) 
Heuristics

$$$$

     RDKit          3D

 27 26  0  0  0  0  0  0  0  0999 V2000
    0.0831    0.3758   -0.4249 C   0  0  0  0  0  0  0  0  0  0  0  0
    0.1136    1.7832    0.1537 C   0  0  0  0  0  0  0  0  0  0  0  0
    1.3173    2.4357   -0.2025 O   0  0  0  0  0  0  0  0  0  0  0  0
    2.4306    1.7024    0.2089 C   0  0  0  0  0  0  0  0  0  0  0  0
    2.4934    0.4359   -0.3728 O   0  0  0  0  0  0  0  0  0  0  0  0
    1.3642   -0.3433   -0.0273 C   0  0  0  0  0  0  0  0  0  0  0  0
    0.0211    0.4320   -1.5134 H   0  0  0  0  0  0  0  0  0  0  0  0
   -0.7008    2.3980   -0.2271 H   0  0  0  0  0  0  0  0  0  0  0  0
    0.0294    1.7416    1.2505 H   0  0  0  0  0  0  0  0  0  0  0  0
    2.4172    1.6008    1.3096 H   0  0  0  0  0  0  0  0  0  0  0  0
    3.3145    2.2495   -0.1112 H   0  0  0  0  0  0  0  0  0  0  0  0
    1.3681   -0.5346    1.0568 H   0  0  0  0  0  0  0  0  0  0  0  0
    1.4723   -1.2972   -0.5417 H   0  0  0  0  0  0  0  0  0  0  0  0
   -2.0147   -2.3352   -1.6644 C   0  0  0  0  0  0  0  0  0  0  0  0
   -2.0147   -2.3352   -0.1417 C   0  0  0  0  0  0  0  0  0  0  0  0
   -2.0147   -0.9328    0.4557 C   0  0  0  0  0  3  0  0  0  0  0  0
   -2.0147   -0.9328    1.9784 C   0  0  0  0  0  0  0  0  0  0  0  0
   -1.1332   -1.8219   -2.0557 H   0  0  0  0  0  0  0  0  0  0  0  0
   -2.8962   -1.8219   -2.0557 H   0  0  0  0  0  0  0  0  0  0  0  0
   -2.0147   -3.3503   -2.0647 H   0  0  0  0  0  0  0  0  0  0  0  0
   -2.8897   -2.8811    0.2256 H   0  0  0  0  0  0  0  0  0  0  0  0
   -1.1396   -2.8811    0.2256 H   0  0  0  0  0  0  0  0  0  0  0  0
   -2.8897   -0.3870    0.0884 H   0  0  0  0  0  0  0  0  0  0  0  0
   -0.9646   -0.2778    0.0149 H   0  0  0  0  0  0  0  0  0  0  0  0
   -1.1332   -1.4462    2.3698 H   0  0  0  0  0  0  0  0  0  0  0  0
   -2.8962   -1.4462    2.3698 H   0  0  0  0  0  0  0  0  0  0  0  0
   -2.0147    0.0823    2.3788 H   0  0  0  0  0  0  0  0  0  0  0  0
  1  2  1  0
  1  6  1  0
  1  7  1  0
  1 24  1  0
  2  3  1  0
  2  8  1  0
  2  9  1  0
  3  4  1  0
  4  5  1  0
  4 10  1  0
  4 11  1  0
  5  6  1  0
  6 12  1  0
  6 13  1  0
 14 15  1  0
 14 18  1  0
 14 19  1  0
 14 20  1  0
 15 16  1  0
 15 21  1  0
 15 22  1  0
 16 17  1  0
 16 23  1  0
 17 25  1  0
 17 26  1  0
 17 27  1  0
M  RAD  1  16   2
M  END
>  <reaction>  (9) 
rmg_rxn_196

>  <mol_properties>  (9) 
{"0": {"label": "*3", "atom_type": "Cs"}, "1": {"label": "*4", "atom_type": "Cs"}, "14": {"label": "*0", "atom_type": "Cs"}, "15": {"label": "*1", "atom_type": "Cs"}, "23": {"label": "*2", "atom_type": "H0"}}

>  <type>  (9) 
unop_5

>  <geom_source>  (9) 
Heuristics

$$$$

     RDKit          3D

 27 26  0  0  0  0  0  0  0  0999 V2000
    0.0645    0.3772   -0.1328 C   0  0  0  0  0  0  0  0  0  0  0  0
    1.2505    0.1699    0.7984 C   0  0  0  0  0  0  0  0  0  0  0  0
    2.0629    1.3277    0.8258 O   0  0  0  0  0  0  0  0  0  0  0  0
    2.4895    1.6763   -0.4559 C   0  0  0  0  0  0  0  0  0  0  0  0
    1.4339    1.9680   -1.3203 O   0  0  0  0  0  0  0  0  0  0  0  0
    0.5816    0.8508   -1.4837 C   0  0  0  0  0  0  0  0  0  0  0  0
   -0.5991    1.1352    0.2879 H   0  0  0  0  0  0  0  0  0  0  0  0
    0.9353   -0.0163    1.8242 H   0  0  0  0  0  0  0  0  0  0  0  0
    1.8486   -0.6904    0.4607 H   0  0  0  0  0  0  0  0  0  0  0  0
    3.0935    0.8526   -0.8788 H   0  0  0  0  0  0  0  0  0  0  0  0
    3.0900    2.5784   -0.3628 H   0  0  0  0  0  0  0  0  0  0  0  0
    1.1327    0.0384   -1.9819 H   0  0  0  0  0  0  0  0  0  0  0  0
   -0.2270    1.1668   -2.1413 H   0  0  0  0  0  0  0  0  0  0  0  0
   -2.0332   -2.3338   -1.3723 C   0  0  0  0  0  0  0  0  0  0  0  0
   -2.0332   -2.3338    0.1504 C   0  0  0  0  0  0  0  0  0  0  0  0
   -2.0332   -0.9314    0.7478 C   0  0  0  0  0  3  0  0  0  0  0  0
   -2.0332   -0.9314    2.2705 C   0  0  0  0  0  0  0  0  0  0  0  0
   -1.1517   -1.8204   -1.7636 H   0  0  0  0  0  0  0  0  0  0  0  0
   -2.9148   -1.8204   -1.7636 H   0  0  0  0  0  0  0  0  0  0  0  0
   -2.0332   -3.3489   -1.7726 H   0  0  0  0  0  0  0  0  0  0  0  0
   -2.9083   -2.8797    0.5177 H   0  0  0  0  0  0  0  0  0  0  0  0
   -1.1582   -2.8797    0.5177 H   0  0  0  0  0  0  0  0  0  0  0  0
   -2.9083   -0.3855    0.3805 H   0  0  0  0  0  0  0  0  0  0  0  0
   -0.9832   -0.2763    0.3070 H   0  0  0  0  0  0  0  0  0  0  0  0
   -1.1517   -1.4448    2.6619 H   0  0  0  0  0  0  0  0  0  0  0  0
   -2.9148   -1.4448    2.6619 H   0  0  0  0  0  0  0  0  0  0  0  0
   -2.0332    0.0837    2.6709 H   0  0  0  0  0  0  0  0  0  0  0  0
  1  2  1  0
  1  6  1  0
  1  7  1  0
  1 24  1  0
  2  3  1  0
  2  8  1  0
  2  9  1  0
  3  4  1  0
  4  5  1  0
  4 10  1  0
  4 11  1  0
  5  6  1  0
  6 12  1  0
  6 13  1  0
 14 15  1  0
 14 18  1  0
 14 19  1  0
 14 20  1  0
 15 16  1  0
 15 21  1  0
 15 22  1  0
 16 17  1  0
 16 23  1  0
 17 25  1  0
 17 26  1  0
 17 27  1  0
M  RAD  1  16   2
M  END
>  <reaction>  (10) 
rmg_rxn_196

>  <mol_properties>  (10) 
{"0": {"label": "*3", "atom_type": "Cs"}, "1": {"label": "*4", "atom_type": "Cs"}, "14": {"label": "*0", "atom_type": "Cs"}, "15": {"label": "*1", "atom_type": "Cs"}, "23": {"label": "*2", "atom_type": "H0"}}

>  <type>  (10) 
unop_6

>  <geom_source>  (10) 
Heuristics

$$$$

     RDKit          3D

 27 26  0  0  0  0  0  0  0  0999 V2000
    0.1243    0.2837   -0.1303 C   0  0  0  0  0  0  0  0  0  0  0  0
    1.0110    0.7108    1.0308 C   0  0  0  0  0  0  0  0  0  0  0  0
    1.6391    1.9451    0.7422 O   0  0  0  0  0  0  0  0  0  0  0  0
    2.3694    1.8754   -0.4444 C   0  0  0  0  0  0  0  0  0  0  0  0
    1.5777    1.5785   -1.5541 O   0  0  0  0  0  0  0  0  0  0  0  0
    0.9457    0.3209   -1.4111 C   0  0  0  0  0  0  0  0  0  0  0  0
   -0.7165    0.9745   -0.2181 H   0  0  0  0  0  0  0  0  0  0  0  0
    0.4405    0.8559    1.9471 H   0  0  0  0  0  0  0  0  0  0  0  0
    1.7780   -0.0557    1.2208 H   0  0  0  0  0  0  0  0  0  0  0  0
    3.1619    1.1112   -0.3436 H   0  0  0  0  0  0  0  0  0  0  0  0
    2.8073    2.8567   -0.6128 H   0  0  0  0  0  0  0  0  0  0  0  0
    1.7081   -0.4731   -1.3929 H   0  0  0  0  0  0  0  0  0  0  0  0
    0.3270    0.1784   -2.2960 H   0  0  0  0  0  0  0  0  0  0  0  0
   -1.9734   -2.4273   -1.3698 C   0  0  0  0  0  0  0  0  0  0  0  0
   -1.9734   -2.4273    0.1529 C   0  0  0  0  0  0  0  0  0  0  0  0
   -1.9734   -1.0249    0.7503 C   0  0  0  0  0  3  0  0  0  0  0  0
   -1.9734   -1.0249    2.2730 C   0  0  0  0  0  0  0  0  0  0  0  0
   -1.0919   -1.9139   -1.7611 H   0  0  0  0  0  0  0  0  0  0  0  0
   -2.8549   -1.9139   -1.7611 H   0  0  0  0  0  0  0  0  0  0  0  0
   -1.9734   -3.4424   -1.7701 H   0  0  0  0  0  0  0  0  0  0  0  0
   -2.8485   -2.9732    0.5202 H   0  0  0  0  0  0  0  0  0  0  0  0
   -1.0984   -2.9732    0.5202 H   0  0  0  0  0  0  0  0  0  0  0  0
   -2.8485   -0.4790    0.3830 H   0  0  0  0  0  0  0  0  0  0  0  0
   -0.9234   -0.3699    0.3095 H   0  0  0  0  0  0  0  0  0  0  0  0
   -1.0919   -1.5383    2.6644 H   0  0  0  0  0  0  0  0  0  0  0  0
   -2.8549   -1.5383    2.6644 H   0  0  0  0  0  0  0  0  0  0  0  0
   -1.9734   -0.0098    2.6734 H   0  0  0  0  0  0  0  0  0  0  0  0
  1  2  1  0
  1  6  1  0
  1  7  1  0
  1 24  1  0
  2  3  1  0
  2  8  1  0
  2  9  1  0
  3  4  1  0
  4  5  1  0
  4 10  1  0
  4 11  1  0
  5  6  1  0
  6 12  1  0
  6 13  1  0
 14 15  1  0
 14 18  1  0
 14 19  1  0
 14 20  1  0
 15 16  1  0
 15 21  1  0
 15 22  1  0
 16 17  1  0
 16 23  1  0
 17 25  1  0
 17 26  1  0
 17 27  1  0
M  RAD  1  16   2
M  END
>  <reaction>  (11) 
rmg_rxn_196

>  <mol_properties>  (11) 
{"0": {"label": "*3", "atom_type": "Cs"}, "1": {"label": "*4", "atom_type": "Cs"}, "14": {"label": "*0", "atom_type": "Cs"}, "15": {"label": "*1", "atom_type": "Cs"}, "23": {"label": "*2", "atom_type": "H0"}}

>  <type>  (11) 
unop_7

>  <geom_source>  (11) 
Heuristics

$$$$

     RDKit          3D

 27 26  0  0  0  0  0  0  0  0999 V2000
    0.9331   -0.0795   -0.1912 C   0  0  0  0  0  0  0  0  0  0  0  0
    0.5977    0.6585   -1.4794 C   0  0  0  0  0  0  0  0  0  0  0  0
    1.0952    1.9820   -1.4321 O   0  0  0  0  0  0  0  0  0  0  0  0
    0.6030    2.6676   -0.3212 C   0  0  0  0  0  0  0  0  0  0  0  0
    0.9678    2.0766    0.8887 O   0  0  0  0  0  0  0  0  0  0  0  0
    0.4622    0.7591    0.9885 C   0  0  0  0  0  0  0  0  0  0  0  0
    2.0133   -0.2235   -0.1260 H   0  0  0  0  0  0  0  0  0  0  0  0
    1.0495    0.1847   -2.3498 H   0  0  0  0  0  0  0  0  0  0  0  0
   -0.4929    0.6815   -1.6274 H   0  0  0  0  0  0  0  0  0  0  0  0
   -0.4992    2.7256   -0.3841 H   0  0  0  0  0  0  0  0  0  0  0  0
    1.0373    3.6648   -0.3380 H   0  0  0  0  0  0  0  0  0  0  0  0
   -0.6379    0.7891    1.0141 H   0  0  0  0  0  0  0  0  0  0  0  0
    0.8141    0.3594    1.9386 H   0  0  0  0  0  0  0  0  0  0  0  0
   -1.1646   -2.7905   -1.4307 C   0  0  0  0  0  0  0  0  0  0  0  0
   -1.1646   -2.7905    0.0920 C   0  0  0  0  0  0  0  0  0  0  0  0
   -1.1646   -1.3881    0.6894 C   0  0  0  0  0  3  0  0  0  0  0  0
   -1.1646   -1.3881    2.2121 C   0  0  0  0  0  0  0  0  0  0  0  0
   -0.2831   -2.2771   -1.8221 H   0  0  0  0  0  0  0  0  0  0  0  0
   -2.0461   -2.2771   -1.8221 H   0  0  0  0  0  0  0  0  0  0  0  0
   -1.1646   -3.8056   -1.8311 H   0  0  0  0  0  0  0  0  0  0  0  0
   -2.0396   -3.3364    0.4593 H   0  0  0  0  0  0  0  0  0  0  0  0
   -0.2896   -3.3364    0.4593 H   0  0  0  0  0  0  0  0  0  0  0  0
   -2.0396   -0.8422    0.3221 H   0  0  0  0  0  0  0  0  0  0  0  0
   -0.1146   -0.7330    0.2486 H   0  0  0  0  0  0  0  0  0  0  0  0
   -0.2831   -1.9015    2.6034 H   0  0  0  0  0  0  0  0  0  0  0  0
   -2.0461   -1.9015    2.6034 H   0  0  0  0  0  0  0  0  0  0  0  0
   -1.1646   -0.3730    2.6124 H   0  0  0  0  0  0  0  0  0  0  0  0
  1  2  1  0
  1  6  1  0
  1  7  1  0
  1 24  1  0
  2  3  1  0
  2  8  1  0
  2  9  1  0
  3  4  1  0
  4  5  1  0
  4 10  1  0
  4 11  1  0
  5  6  1  0
  6 12  1  0
  6 13  1  0
 14 15  1  0
 14 18  1  0
 14 19  1  0
 14 20  1  0
 15 16  1  0
 15 21  1  0
 15 22  1  0
 16 17  1  0
 16 23  1  0
 17 25  1  0
 17 26  1  0
 17 27  1  0
M  RAD  1  16   2
M  END
>  <reaction>  (12) 
rmg_rxn_196

>  <mol_properties>  (12) 
{"0": {"label": "*3", "atom_type": "Cs"}, "1": {"label": "*4", "atom_type": "Cs"}, "14": {"label": "*0", "atom_type": "Cs"}, "15": {"label": "*1", "atom_type": "Cs"}, "23": {"label": "*2", "atom_type": "H0"}}

>  <type>  (12) 
unop_8

>  <geom_source>  (12) 
Heuristics

$$$$

     RDKit          3D

 27 26  0  0  0  0  0  0  0  0999 V2000
    0.1261    0.5791    0.2501 C   0  0  0  0  0  0  0  0  0  0  0  0
    1.2735   -0.3810   -0.0292 C   0  0  0  0  0  0  0  0  0  0  0  0
    2.4740    0.3360   -0.2440 O   0  0  0  0  0  0  0  0  0  0  0  0
    2.3325    1.2598   -1.2799 C   0  0  0  0  0  0  0  0  0  0  0  0
    1.3525    2.2192   -1.0235 O   0  0  0  0  0  0  0  0  0  0  0  0
    0.0810    1.6214   -0.8581 C   0  0  0  0  0  0  0  0  0  0  0  0
    0.2928    1.0751    1.2083 H   0  0  0  0  0  0  0  0  0  0  0  0
    1.4553   -1.0531    0.8083 H   0  0  0  0  0  0  0  0  0  0  0  0
    1.0466   -0.9911   -0.9169 H   0  0  0  0  0  0  0  0  0  0  0  0
    2.0881    0.7264   -2.2168 H   0  0  0  0  0  0  0  0  0  0  0  0
    3.2805    1.7840   -1.3775 H   0  0  0  0  0  0  0  0  0  0  0  0
   -0.2299    1.1522   -1.8042 H   0  0  0  0  0  0  0  0  0  0  0  0
   -0.6169    2.4265   -0.6320 H   0  0  0  0  0  0  0  0  0  0  0  0
   -1.9717   -2.1319   -0.9894 C   0  0  0  0  0  0  0  0  0  0  0  0
   -1.9717   -2.1319    0.5333 C   0  0  0  0  0  0  0  0  0  0  0  0
   -1.9717   -0.7295    1.1307 C   0  0  0  0  0  3  0  0  0  0  0  0
   -1.9717   -0.7295    2.6534 C   0  0  0  0  0  0  0  0  0  0  0  0
   -1.0901   -1.6185   -1.3807 H   0  0  0  0  0  0  0  0  0  0  0  0
   -2.8532   -1.6185   -1.3807 H   0  0  0  0  0  0  0  0  0  0  0  0
   -1.9717   -3.1470   -1.3897 H   0  0  0  0  0  0  0  0  0  0  0  0
   -2.8467   -2.6778    0.9006 H   0  0  0  0  0  0  0  0  0  0  0  0
   -1.0966   -2.6778    0.9006 H   0  0  0  0  0  0  0  0  0  0  0  0
   -2.8467   -0.1836    0.7634 H   0  0  0  0  0  0  0  0  0  0  0  0
   -0.9216   -0.0744    0.6899 H   0  0  0  0  0  0  0  0  0  0  0  0
   -1.0901   -1.2429    3.0448 H   0  0  0  0  0  0  0  0  0  0  0  0
   -2.8532   -1.2429    3.0448 H   0  0  0  0  0  0  0  0  0  0  0  0
   -1.9717    0.2856    3.0538 H   0  0  0  0  0  0  0  0  0  0  0  0
  1  2  1  0
  1  6  1  0
  1  7  1  0
  1 24  1  0
  2  3  1  0
  2  8  1  0
  2  9  1  0
  3  4  1  0
  4  5  1  0
  4 10  1  0
  4 11  1  0
  5  6  1  0
  6 12  1  0
  6 13  1  0
 14 15  1  0
 14 18  1  0
 14 19  1  0
 14 20  1  0
 15 16  1  0
 15 21  1  0
 15 22  1  0
 16 17  1  0
 16 23  1  0
 17 25  1  0
 17 26  1  0
 17 27  1  0
M  RAD  1  16   2
M  END
>  <reaction>  (13) 
rmg_rxn_196

>  <mol_properties>  (13) 
{"0": {"label": "*3", "atom_type": "Cs"}, "1": {"label": "*4", "atom_type": "Cs"}, "14": {"label": "*0", "atom_type": "Cs"}, "15": {"label": "*1", "atom_type": "Cs"}, "23": {"label": "*2", "atom_type": "H0"}}

>  <type>  (13) 
unop_9

>  <geom_source>  (13) 
Heuristics

$$$$

     RDKit          3D

 27 26  0  0  0  0  0  0  0  0999 V2000
    0.9219    0.0301    0.1981 C   0  0  0  0  0  0  0  0  0  0  0  0
    0.8858    0.1337   -1.3200 C   0  0  0  0  0  0  0  0  0  0  0  0
    1.3589    1.3997   -1.7383 O   0  0  0  0  0  0  0  0  0  0  0  0
    0.6280    2.4321   -1.1498 C   0  0  0  0  0  0  0  0  0  0  0  0
    0.7103    2.4321    0.2429 O   0  0  0  0  0  0  0  0  0  0  0  0
    0.1961    1.2315    0.7867 C   0  0  0  0  0  0  0  0  0  0  0  0
    1.9596    0.0309    0.5374 H   0  0  0  0  0  0  0  0  0  0  0  0
    1.5229   -0.6114   -1.7944 H   0  0  0  0  0  0  0  0  0  0  0  0
   -0.1432   -0.0119   -1.6832 H   0  0  0  0  0  0  0  0  0  0  0  0
   -0.4316    2.3523   -1.4551 H   0  0  0  0  0  0  0  0  0  0  0  0
    1.0542    3.3699   -1.4990 H   0  0  0  0  0  0  0  0  0  0  0  0
   -0.8813    1.1631    0.5718 H   0  0  0  0  0  0  0  0  0  0  0  0
    0.3245    1.2961    1.8663 H   0  0  0  0  0  0  0  0  0  0  0  0
   -1.1758   -2.6809   -1.0415 C   0  0  0  0  0  0  0  0  0  0  0  0
   -1.1758   -2.6809    0.4812 C   0  0  0  0  0  0  0  0  0  0  0  0
   -1.1758   -1.2785    1.0786 C   0  0  0  0  0  3  0  0  0  0  0  0
   -1.1758   -1.2785    2.6013 C   0  0  0  0  0  0  0  0  0  0  0  0
   -0.2943   -2.1675   -1.4328 H   0  0  0  0  0  0  0  0  0  0  0  0
   -2.0573   -2.1675   -1.4328 H   0  0  0  0  0  0  0  0  0  0  0  0
   -1.1758   -3.6960   -1.4418 H   0  0  0  0  0  0  0  0  0  0  0  0
   -2.0508   -3.2268    0.8485 H   0  0  0  0  0  0  0  0  0  0  0  0
   -0.3008   -3.2268    0.8485 H   0  0  0  0  0  0  0  0  0  0  0  0
   -2.0508   -0.7326    0.7113 H   0  0  0  0  0  0  0  0  0  0  0  0
   -0.1257   -0.6234    0.6378 H   0  0  0  0  0  0  0  0  0  0  0  0
   -0.2943   -1.7919    2.9927 H   0  0  0  0  0  0  0  0  0  0  0  0
   -2.0573   -1.7919    2.9927 H   0  0  0  0  0  0  0  0  0  0  0  0
   -1.1758   -0.2634    3.0017 H   0  0  0  0  0  0  0  0  0  0  0  0
  1  2  1  0
  1  6  1  0
  1  7  1  0
  1 24  1  0
  2  3  1  0
  2  8  1  0
  2  9  1  0
  3  4  1  0
  4  5  1  0
  4 10  1  0
  4 11  1  0
  5  6  1  0
  6 12  1  0
  6 13  1  0
 14 15  1  0
 14 18  1  0
 14 19  1  0
 14 20  1  0
 15 16  1  0
 15 21  1  0
 15 22  1  0
 16 17  1  0
 16 23  1  0
 17 25  1  0
 17 26  1  0
 17 27  1  0
M  RAD  1  16   2
M  END
>  <reaction>  (14) 
rmg_rxn_196

>  <mol_properties>  (14) 
{"0": {"label": "*3", "atom_type": "Cs"}, "1": {"label": "*4", "atom_type": "Cs"}, "14": {"label": "*0", "atom_type": "Cs"}, "15": {"label": "*1", "atom_type": "Cs"}, "23": {"label": "*2", "atom_type": "H0"}}

>  <type>  (14) 
unop_10

>  <geom_source>  (14) 
Heuristics

$$$$

     RDKit          3D

 27 26  0  0  0  0  0  0  0  0999 V2000
    0.1021    0.3150   -0.1332 C   0  0  0  0  0  0  0  0  0  0  0  0
    0.5659    1.3331    0.8987 C   0  0  0  0  0  0  0  0  0  0  0  0
    1.3278    2.3509    0.2781 O   0  0  0  0  0  0  0  0  0  0  0  0
    2.4120    1.8168   -0.4188 C   0  0  0  0  0  0  0  0  0  0  0  0
    2.0278    0.9475   -1.4401 O   0  0  0  0  0  0  0  0  0  0  0  0
    1.3103   -0.1591   -0.9283 C   0  0  0  0  0  0  0  0  0  0  0  0
   -0.6157    0.7842   -0.8089 H   0  0  0  0  0  0  0  0  0  0  0  0
   -0.2720    1.8248    1.3910 H   0  0  0  0  0  0  0  0  0  0  0  0
    1.1752    0.8371    1.6699 H   0  0  0  0  0  0  0  0  0  0  0  0
    3.0757    1.2840    0.2868 H   0  0  0  0  0  0  0  0  0  0  0  0
    2.9394    2.6475   -0.8824 H   0  0  0  0  0  0  0  0  0  0  0  0
    1.9719   -0.7601   -0.2857 H   0  0  0  0  0  0  0  0  0  0  0  0
    1.0214   -0.7682   -1.7838 H   0  0  0  0  0  0  0  0  0  0  0  0
   -1.9956   -2.3960   -1.3728 C   0  0  0  0  0  0  0  0  0  0  0  0
   -1.9956   -2.3960    0.1499 C   0  0  0  0  0  0  0  0  0  0  0  0
   -1.9956   -0.9936    0.7473 C   0  0  0  0  0  3  0  0  0  0  0  0
   -1.9956   -0.9936    2.2700 C   0  0  0  0  0  0  0  0  0  0  0  0
   -1.1141   -1.8826   -1.7641 H   0  0  0  0  0  0  0  0  0  0  0  0
   -2.8771   -1.8826   -1.7641 H   0  0  0  0  0  0  0  0  0  0  0  0
   -1.9956   -3.4111   -1.7731 H   0  0  0  0  0  0  0  0  0  0  0  0
   -2.8706   -2.9419    0.5173 H   0  0  0  0  0  0  0  0  0  0  0  0
   -1.1206   -2.9419    0.5173 H   0  0  0  0  0  0  0  0  0  0  0  0
   -2.8706   -0.4477    0.3800 H   0  0  0  0  0  0  0  0  0  0  0  0
   -0.9456   -0.3386    0.3065 H   0  0  0  0  0  0  0  0  0  0  0  0
   -1.1141   -1.5070    2.6614 H   0  0  0  0  0  0  0  0  0  0  0  0
   -2.8771   -1.5070    2.6614 H   0  0  0  0  0  0  0  0  0  0  0  0
   -1.9956    0.0215    2.6704 H   0  0  0  0  0  0  0  0  0  0  0  0
  1  2  1  0
  1  6  1  0
  1  7  1  0
  1 24  1  0
  2  3  1  0
  2  8  1  0
  2  9  1  0
  3  4  1  0
  4  5  1  0
  4 10  1  0
  4 11  1  0
  5  6  1  0
  6 12  1  0
  6 13  1  0
 14 15  1  0
 14 18  1  0
 14 19  1  0
 14 20  1  0
 15 16  1  0
 15 21  1  0
 15 22  1  0
 16 17  1  0
 16 23  1  0
 17 25  1  0
 17 26  1  0
 17 27  1  0
M  RAD  1  16   2
M  END
>  <reaction>  (15) 
rmg_rxn_196

>  <mol_properties>  (15) 
{"0": {"label": "*3", "atom_type": "Cs"}, "1": {"label": "*4", "atom_type": "Cs"}, "14": {"label": "*0", "atom_type": "Cs"}, "15": {"label": "*1", "atom_type": "Cs"}, "23": {"label": "*2", "atom_type": "H0"}}

>  <type>  (15) 
unop_11

>  <geom_source>  (15) 
Heuristics

$$$$

     RDKit          3D

 27 26  0  0  0  0  0  0  0  0999 V2000
    0.3909    0.4811    0.4650 C   0  0  0  0  0  0  0  0  0  0  0  0
    1.2109   -0.3957   -0.4706 C   0  0  0  0  0  0  0  0  0  0  0  0
    2.2562    0.3548   -1.0584 O   0  0  0  0  0  0  0  0  0  0  0  0
    1.7602    1.4732   -1.7289 C   0  0  0  0  0  0  0  0  0  0  0  0
    1.0801    2.3546   -0.8882 O   0  0  0  0  0  0  0  0  0  0  0  0
   -0.0397    1.7308   -0.2896 C   0  0  0  0  0  0  0  0  0  0  0  0
    1.0023    0.7676    1.3228 H   0  0  0  0  0  0  0  0  0  0  0  0
    1.6790   -1.2265    0.0556 H   0  0  0  0  0  0  0  0  0  0  0  0
    0.5661   -0.8089   -1.2614 H   0  0  0  0  0  0  0  0  0  0  0  0
    1.0851    1.1453   -2.5407 H   0  0  0  0  0  0  0  0  0  0  0  0
    2.6133    2.0097   -2.1380 H   0  0  0  0  0  0  0  0  0  0  0  0
   -0.7725    1.4673   -1.0677 H   0  0  0  0  0  0  0  0  0  0  0  0
   -0.4942    2.4687    0.3702 H   0  0  0  0  0  0  0  0  0  0  0  0
   -1.7068   -2.2299   -0.7745 C   0  0  0  0  0  0  0  0  0  0  0  0
   -1.7068   -2.2299    0.7482 C   0  0  0  0  0  0  0  0  0  0  0  0
   -1.7068   -0.8276    1.3455 C   0  0  0  0  0  3  0  0  0  0  0  0
   -1.7068   -0.8276    2.8682 C   0  0  0  0  0  0  0  0  0  0  0  0
   -0.8253   -1.7166   -1.1659 H   0  0  0  0  0  0  0  0  0  0  0  0
   -2.5884   -1.7166   -1.1659 H   0  0  0  0  0  0  0  0  0  0  0  0
   -1.7068   -3.2450   -1.1749 H   0  0  0  0  0  0  0  0  0  0  0  0
   -2.5819   -2.7758    1.1155 H   0  0  0  0  0  0  0  0  0  0  0  0
   -0.8318   -2.7758    1.1155 H   0  0  0  0  0  0  0  0  0  0  0  0
   -2.5819   -0.2817    0.9782 H   0  0  0  0  0  0  0  0  0  0  0  0
   -0.6568   -0.1725    0.9048 H   0  0  0  0  0  0  0  0  0  0  0  0
   -0.8253   -1.3409    3.2596 H   0  0  0  0  0  0  0  0  0  0  0  0
   -2.5884   -1.3409    3.2596 H   0  0  0  0  0  0  0  0  0  0  0  0
   -1.7068    0.1875    3.2686 H   0  0  0  0  0  0  0  0  0  0  0  0
  1  2  1  0
  1  6  1  0
  1  7  1  0
  1 24  1  0
  2  3  1  0
  2  8  1  0
  2  9  1  0
  3  4  1  0
  4  5  1  0
  4 10  1  0
  4 11  1  0
  5  6  1  0
  6 12  1  0
  6 13  1  0
 14 15  1  0
 14 18  1  0
 14 19  1  0
 14 20  1  0
 15 16  1  0
 15 21  1  0
 15 22  1  0
 16 17  1  0
 16 23  1  0
 17 25  1  0
 17 26  1  0
 17 27  1  0
M  RAD  1  16   2
M  END
>  <reaction>  (16) 
rmg_rxn_196

>  <mol_properties>  (16) 
{"0": {"label": "*3", "atom_type": "Cs"}, "1": {"label": "*4", "atom_type": "Cs"}, "14": {"label": "*0", "atom_type": "Cs"}, "15": {"label": "*1", "atom_type": "Cs"}, "23": {"label": "*2", "atom_type": "H0"}}

>  <type>  (16) 
unop_12

>  <geom_source>  (16) 
Heuristics

$$$$

     RDKit          3D

 27 26  0  0  0  0  0  0  0  0999 V2000
    2.1734    1.3483    0.7987 O   0  0  0  0  0  0  0  0  0  0  0  0
    3.0730   -0.7882    0.1839 O   0  0  0  0  0  0  0  0  0  0  0  0
    0.9890   -0.0457   -0.7645 C   0  0  0  0  0  0  0  0  0  0  0  0
   -2.4461   -0.1914    0.6055 C   0  0  0  0  0  0  0  0  0  0  0  0
    1.6630    1.3033   -0.5156 C   0  0  0  0  0  0  0  0  0  0  0  0
    1.7075   -1.1180    0.0543 C   0  0  0  0  0  0  0  0  0  0  0  0
   -2.2167    1.0155    1.5074 C   0  0  0  0  0  0  0  0  0  0  0  0
    3.2256    0.4003    0.9548 C   0  0  0  0  0  0  0  0  0  0  0  0
   -1.7275   -1.3289   -1.5315 C   0  0  0  0  0  0  0  0  0  0  0  0
   -1.5895   -0.0890   -0.6567 C   0  0  0  0  0  3  0  0  0  0  0  0
    1.0357   -0.2895   -1.8481 H   0  0  0  0  0  0  0  0  0  0  0  0
   -0.2831    0.0073   -0.3934 H   0  0  0  0  0  0  0  0  0  0  0  0
   -3.5216   -0.2429    0.3284 H   0  0  0  0  0  0  0  0  0  0  0  0
   -2.1775   -1.1129    1.1661 H   0  0  0  0  0  0  0  0  0  0  0  0
    0.9138    2.1124   -0.6416 H   0  0  0  0  0  0  0  0  0  0  0  0
    2.4752    1.4806   -1.2581 H   0  0  0  0  0  0  0  0  0  0  0  0
    1.6174   -2.0976   -0.4607 H   0  0  0  0  0  0  0  0  0  0  0  0
    1.2321   -1.2237    1.0563 H   0  0  0  0  0  0  0  0  0  0  0  0
   -2.8333    0.9162    2.4256 H   0  0  0  0  0  0  0  0  0  0  0  0
   -2.5085    1.9504    0.9831 H   0  0  0  0  0  0  0  0  0  0  0  0
   -1.1471    1.0779    1.8015 H   0  0  0  0  0  0  0  0  0  0  0  0
    4.1868    0.8820    0.6765 H   0  0  0  0  0  0  0  0  0  0  0  0
    3.2977    0.1249    2.0284 H   0  0  0  0  0  0  0  0  0  0  0  0
   -2.7811   -1.4543   -1.8605 H   0  0  0  0  0  0  0  0  0  0  0  0
   -1.0818   -1.2194   -2.4275 H   0  0  0  0  0  0  0  0  0  0  0  0
   -1.4045   -2.2309   -0.9703 H   0  0  0  0  0  0  0  0  0  0  0  0
   -1.8718    0.8133   -1.2420 H   0  0  0  0  0  0  0  0  0  0  0  0
  1  5  1  0
  1  8  1  0
  2  6  1  0
  2  8  1  0
  3  5  1  0
  3  6  1  0
  3 11  1  0
  3 12  1  0
  4  7  1  0
  4 10  1  0
  4 13  1  0
  4 14  1  0
  5 15  1  0
  5 16  1  0
  6 17  1  0
  6 18  1  0
  7 19  1  0
  7 20  1  0
  7 21  1  0
  8 22  1  0
  8 23  1  0
  9 10  1  0
  9 24  1  0
  9 25  1  0
  9 26  1  0
 10 27  1  0
M  RAD  1  10   2
M  END
>  <reaction>  (17) 
rmg_rxn_196

>  <mol_properties>  (17) 
{"0": {"label": "*3", "atom_type": "Cs"}, "1": {"label": "*4", "atom_type": "Cs"}, "14": {"label": "*0", "atom_type": "Cs"}, "15": {"label": "*1", "atom_type": "Cs"}, "23": {"label": "*2", "atom_type": "H0"}}

>  <type>  (17) 
unop_13

>  <geom_source>  (17) 
AutoTST

$$$$

     RDKit          3D

 27 26  0  0  0  0  0  0  0  0999 V2000
    0.7139    0.2547    0.4559 C   0  0  0  0  0  0  0  0  0  0  0  0
    1.1007   -0.2328   -0.9331 C   0  0  0  0  0  0  0  0  0  0  0  0
    1.8103    0.7745   -1.6282 O   0  0  0  0  0  0  0  0  0  0  0  0
    1.0705    1.9551   -1.7014 C   0  0  0  0  0  0  0  0  0  0  0  0
    0.7736    2.4899   -0.4476 O   0  0  0  0  0  0  0  0  0  0  0  0
   -0.0018    1.5913    0.3224 C   0  0  0  0  0  0  0  0  0  0  0  0
    1.6146    0.3838    1.0592 H   0  0  0  0  0  0  0  0  0  0  0  0
    1.7528   -1.1042   -0.8921 H   0  0  0  0  0  0  0  0  0  0  0  0
    0.1982   -0.5049   -1.5017 H   0  0  0  0  0  0  0  0  0  0  0  0
    0.1307    1.7660   -2.2520 H   0  0  0  0  0  0  0  0  0  0  0  0
    1.6792    2.6860   -2.2290 H   0  0  0  0  0  0  0  0  0  0  0  0
   -0.9818    1.4476   -0.1579 H   0  0  0  0  0  0  0  0  0  0  0  0
   -0.1629    2.0655    1.2896 H   0  0  0  0  0  0  0  0  0  0  0  0
   -1.3838   -2.4563   -0.7836 C   0  0  0  0  0  0  0  0  0  0  0  0
   -1.3838   -2.4563    0.7391 C   0  0  0  0  0  0  0  0  0  0  0  0
   -1.3838   -1.0540    1.3365 C   0  0  0  0  0  3  0  0  0  0  0  0
   -1.3838   -1.0540    2.8592 C   0  0  0  0  0  0  0  0  0  0  0  0
   -0.5023   -1.9430   -1.1750 H   0  0  0  0  0  0  0  0  0  0  0  0
   -2.2653   -1.9430   -1.1750 H   0  0  0  0  0  0  0  0  0  0  0  0
   -1.3838   -3.4714   -1.1840 H   0  0  0  0  0  0  0  0  0  0  0  0
   -2.2588   -3.0022    1.1064 H   0  0  0  0  0  0  0  0  0  0  0  0
   -0.5088   -3.0022    1.1064 H   0  0  0  0  0  0  0  0  0  0  0  0
   -2.2588   -0.5081    0.9691 H   0  0  0  0  0  0  0  0  0  0  0  0
   -0.3338   -0.3989    0.8957 H   0  0  0  0  0  0  0  0  0  0  0  0
   -0.5023   -1.5673    3.2505 H   0  0  0  0  0  0  0  0  0  0  0  0
   -2.2653   -1.5673    3.2505 H   0  0  0  0  0  0  0  0  0  0  0  0
   -1.3838   -0.0389    3.2595 H   0  0  0  0  0  0  0  0  0  0  0  0
  1  2  1  0
  1  6  1  0
  1  7  1  0
  1 24  1  0
  2  3  1  0
  2  8  1  0
  2  9  1  0
  3  4  1  0
  4  5  1  0
  4 10  1  0
  4 11  1  0
  5  6  1  0
  6 12  1  0
  6 13  1  0
 14 15  1  0
 14 18  1  0
 14 19  1  0
 14 20  1  0
 15 16  1  0
 15 21  1  0
 15 22  1  0
 16 17  1  0
 16 23  1  0
 17 25  1  0
 17 26  1  0
 17 27  1  0
M  RAD  1  16   2
M  END
>  <reaction>  (18) 
rmg_rxn_196

>  <mol_properties>  (18) 
{"0": {"label": "*3", "atom_type": "Cs"}, "1": {"label": "*4", "atom_type": "Cs"}, "14": {"label": "*0", "atom_type": "Cs"}, "15": {"label": "*1", "atom_type": "Cs"}, "23": {"label": "*2", "atom_type": "H0"}}

>  <type>  (18) 
unop_14

>  <geom_source>  (18) 
gaussian_log

$$$$
