
     RDKit          3D

 19 18  0  0  0  0  0  0  0  0999 V2000
    2.2140    2.6197   -0.4907 C   0  0  0  0  0  0  0  0  0  0  0  0
    1.3414    1.4165   -0.6456 C   0  0  0  0  0  0  0  0  0  0  0  0
    0.0112    1.4393   -0.6052 C   0  0  0  0  0  0  0  0  0  0  0  0
   -0.8851    0.2871   -0.7518 C   0  0  0  0  0  0  0  0  0  0  0  0
   -0.2520   -1.0567   -0.9696 C   0  0  0  0  0  0  0  0  0  0  0  0
   -2.2050    0.4946   -0.6842 C   0  0  0  0  0  0  0  0  0  0  0  0
   -3.3155   -0.4974   -0.8010 C   0  0  0  0  0  0  0  0  0  0  0  0
    2.8901    2.5072    0.3614 H   0  0  0  0  0  0  0  0  0  0  0  0
    1.6236    3.5244   -0.3395 H   0  0  0  0  0  0  0  0  0  0  0  0
    2.8418    2.7656   -1.3740 H   0  0  0  0  0  0  0  0  0  0  0  0
    1.8563    0.4729   -0.8004 H   0  0  0  0  0  0  0  0  0  0  0  0
   -0.4825    2.3961   -0.4489 H   0  0  0  0  0  0  0  0  0  0  0  0
   -0.9854   -1.8530   -1.0677 H   0  0  0  0  0  0  0  0  0  0  0  0
    0.3604   -1.0504   -1.8747 H   0  0  0  0  0  0  0  0  0  0  0  0
    0.4088   -1.3092   -0.1365 H   0  0  0  0  0  0  0  0  0  0  0  0
   -2.5310    1.5194   -0.5225 H   0  0  0  0  0  0  0  0  0  0  0  0
   -3.9297   -0.4912    0.1038 H   0  0  0  0  0  0  0  0  0  0  0  0
   -2.9703   -1.5168   -0.9624 H   0  0  0  0  0  0  0  0  0  0  0  0
   -3.9779   -0.2330   -1.6300 H   0  0  0  0  0  0  0  0  0  0  0  0
  1  2  1  0
  1  8  1  0
  1  9  1  0
  1 10  1  0
  2  3  2  3
  2 11  1  0
  3  4  1  0
  3 12  1  0
  4  5  1  0
  4  6  2  3
  5 13  1  0
  5 14  1  0
  5 15  1  0
  6  7  1  0
  6 16  1  0
  7 17  1  0
  7 18  1  0
  7 19  1  0
M  END
>  <reaction>  (1) 
rmg_rxn_15493

>  <mol_properties>  (1) 
{"5": {"label": "donator", "atom_type": "Cd"}, "15": {"label": "d_hydrogen", "atom_type": "H0"}}

>  <type>  (1) 
r1h

$$$$

     RDKit          3D

  5  4  0  0  0  0  0  0  0  0999 V2000
    0.8934    0.3742    0.4948 O   0  0  0  0  0  0  0  0  0  0  0  0
    0.1582   -0.1610   -0.5904 N   0  0  0  0  0  0  0  0  0  0  0  0
   -1.0297   -0.3739   -0.4689 C   0  0  0  0  0  3  0  0  0  0  0  0
    1.7805    0.4382    0.1306 H   0  0  0  0  0  0  0  0  0  0  0  0
   -1.8023   -0.2775    0.2859 H   0  0  0  0  0  0  0  0  0  0  0  0
  1  2  1  0
  1  4  1  0
  2  3  2  3
  3  5  1  0
M  RAD  1   3   2
M  END
>  <reaction>  (2) 
rmg_rxn_15493

>  <mol_properties>  (2) 
{"2": {"label": "acceptor", "atom_type": "Cd"}}

>  <type>  (2) 
r2

$$$$

     RDKit          3D

  6  5  0  0  0  0  0  0  0  0999 V2000
    1.2314    0.0428    0.5088 O   0  0  0  0  0  0  0  0  0  0  0  0
    0.2987    0.2341   -0.4915 N   0  0  0  0  0  0  0  0  0  0  0  0
   -0.8599   -0.1122   -0.1290 C   0  0  0  0  0  0  0  0  0  0  0  0
    2.0507    0.3401    0.1082 H   0  0  0  0  0  0  0  0  0  0  0  0
   -1.0700   -0.5112    0.8610 H   0  0  0  0  0  0  0  0  0  0  0  0
   -1.6509    0.0064   -0.8574 H   0  0  0  0  0  0  0  0  0  0  0  0
  1  2  1  0
  1  4  1  0
  2  3  2  3
  3  5  1  0
  3  6  1  0
M  END
>  <reaction>  (3) 
rmg_rxn_15493

>  <mol_properties>  (3) 
{"2": {"label": "acceptor", "atom_type": "Cd"}, "5": {"label": "a_hydrogen", "atom_type": "H0"}}

>  <type>  (3) 
r2h

$$$$

     RDKit          3D

 24 22  0  0  0  0  0  0  0  0999 V2000
   -1.7967   -1.3668   -1.2346 O   0  0  0  0  0  0  0  0  0  0  0  0
   -2.4056   -1.5760   -0.0263 N   0  0  0  0  0  0  0  0  0  0  0  0
   -2.1810   -0.7678    0.9032 C   0  0  0  0  0  0  0  0  0  0  0  0
   -1.2308   -0.5788   -1.1624 H   0  0  0  0  0  0  0  0  0  0  0  0
   -2.6523   -0.9148    1.8695 H   0  0  0  0  0  0  0  0  0  0  0  0
    2.9586   -2.0142    0.3444 C   0  0  0  0  0  0  0  0  0  0  0  0
    2.4399   -0.6419    0.0661 C   0  0  0  0  0  0  0  0  0  0  0  0
    1.1816   -0.2595    0.2689 C   0  0  0  0  0  0  0  0  0  0  0  0
    0.6345    1.0775   -0.0001 C   0  0  0  0  0  0  0  0  0  0  0  0
    1.5812    2.1271   -0.5262 C   0  0  0  0  0  0  0  0  0  0  0  0
   -0.6523    1.3302    0.2272 C   0  0  0  0  0  3  0  0  0  0  0  0
   -1.5087    2.5278    0.0588 C   0  0  0  0  0  0  0  0  0  0  0  0
    3.3649   -2.4675   -0.5636 H   0  0  0  0  0  0  0  0  0  0  0  0
    2.1757   -2.6673    0.7308 H   0  0  0  0  0  0  0  0  0  0  0  0
    3.7727   -1.9831    1.0734 H   0  0  0  0  0  0  0  0  0  0  0  0
    3.1607    0.0682   -0.3283 H   0  0  0  0  0  0  0  0  0  0  0  0
    0.4816   -0.9882    0.6690 H   0  0  0  0  0  0  0  0  0  0  0  0
    2.3980    2.2892    0.1806 H   0  0  0  0  0  0  0  0  0  0  0  0
    2.0244    1.8037   -1.4707 H   0  0  0  0  0  0  0  0  0  0  0  0
    1.0848    3.0801   -0.6930 H   0  0  0  0  0  0  0  0  0  0  0  0
   -1.3949    0.2797    0.6897 H   0  0  0  0  0  0  0  0  0  0  0  0
   -0.9904    3.3464   -0.4451 H   0  0  0  0  0  0  0  0  0  0  0  0
   -1.8558    2.8947    1.0282 H   0  0  0  0  0  0  0  0  0  0  0  0
   -2.3984    2.2835   -0.5273 H   0  0  0  0  0  0  0  0  0  0  0  0
  1  2  1  0
  1  4  1  0
  2  3  2  3
  3  5  1  0
  3 21  1  0
  6  7  1  0
  6 13  1  0
  6 14  1  0
  6 15  1  0
  7  8  2  3
  7 16  1  0
  8  9  1  0
  8 17  1  0
  9 10  1  0
  9 11  2  3
 10 18  1  0
 10 19  1  0
 10 20  1  0
 11 12  1  0
 12 22  1  0
 12 23  1  0
 12 24  1  0
M  RAD  1  11   2
M  END
>  <reaction>  (4) 
rmg_rxn_15493

>  <mol_properties>  (4) 
{"1": {"label": "*0", "atom_type": "N3d"}, "2": {"label": "*1", "atom_type": "Cd"}, "8": {"label": "*4", "atom_type": "Cd"}, "10": {"label": "*3", "atom_type": "Cd"}, "20": {"label": "*2", "atom_type": "H0"}}

>  <type>  (4) 
ts

$$$$

     RDKit          3D

 24 22  0  0  0  0  0  0  0  0999 V2000
   -1.6917   -1.7145   -1.0853 O   0  0  0  0  0  0  0  0  0  0  0  0
   -2.3748   -1.6258    0.0835 N   0  0  0  0  0  0  0  0  0  0  0  0
   -2.1984   -0.6933    0.8865 C   0  0  0  0  0  3  0  0  0  0  0  0
   -1.0561   -0.9786   -1.1875 H   0  0  0  0  0  0  0  0  0  0  0  0
   -2.7732   -0.6771    1.7948 H   0  0  0  0  0  0  0  0  0  0  0  0
    2.9147   -2.0015    0.2833 C   0  0  0  0  0  0  0  0  0  0  0  0
    2.4183   -0.6227    0.0119 C   0  0  0  0  0  0  0  0  0  0  0  0
    1.1740   -0.2217    0.2617 C   0  0  0  0  0  0  0  0  0  0  0  0
    0.6244    1.1086    0.0177 C   0  0  0  0  0  0  0  0  0  0  0  0
    1.5939    2.1632   -0.4630 C   0  0  0  0  0  0  0  0  0  0  0  0
   -0.6689    1.3387    0.2217 C   0  0  0  0  0  0  0  0  0  0  0  0
   -1.4980    2.5550    0.0567 C   0  0  0  0  0  0  0  0  0  0  0  0
    3.2743   -2.4609   -0.6378 H   0  0  0  0  0  0  0  0  0  0  0  0
    2.1304   -2.6265    0.7035 H   0  0  0  0  0  0  0  0  0  0  0  0
    3.7521   -1.9706    0.9810 H   0  0  0  0  0  0  0  0  0  0  0  0
    3.1468    0.0506   -0.4173 H   0  0  0  0  0  0  0  0  0  0  0  0
    0.4864   -0.9374    0.6981 H   0  0  0  0  0  0  0  0  0  0  0  0
    2.4204    2.2520    0.2396 H   0  0  0  0  0  0  0  0  0  0  0  0
    1.9951    1.8820   -1.4358 H   0  0  0  0  0  0  0  0  0  0  0  0
    1.1125    3.1316   -0.5550 H   0  0  0  0  0  0  0  0  0  0  0  0
   -1.4023    0.3325    0.6176 H   0  0  0  0  0  0  0  0  0  0  0  0
   -0.9293    3.4087   -0.3129 H   0  0  0  0  0  0  0  0  0  0  0  0
   -1.9462    2.8304    1.0126 H   0  0  0  0  0  0  0  0  0  0  0  0
   -2.3124    2.3595   -0.6431 H   0  0  0  0  0  0  0  0  0  0  0  0
  1  2  1  0
  1  4  1  0
  2  3  2  3
  3  5  1  0
  6  7  1  0
  6 13  1  0
  6 14  1  0
  6 15  1  0
  7  8  2  3
  7 16  1  0
  8  9  1  0
  8 17  1  0
  9 10  1  0
  9 11  2  3
 10 18  1  0
 10 19  1  0
 10 20  1  0
 11 12  1  0
 11 21  1  0
 12 22  1  0
 12 23  1  0
 12 24  1  0
M  RAD  1   3   2
M  END
>  <reaction>  (5) 
rmg_rxn_15493

>  <mol_properties>  (5) 
{"1": {"label": "*0", "atom_type": "N3d"}, "2": {"label": "*1", "atom_type": "Cd"}, "8": {"label": "*4", "atom_type": "Cd"}, "10": {"label": "*3", "atom_type": "Cd"}, "20": {"label": "*2", "atom_type": "H0"}}

>  <type>  (5) 
unop_1

>  <geom_source>  (5) 
crest_best.xyz

$$$$

     RDKit          3D

 24 22  0  0  0  0  0  0  0  0999 V2000
   -0.4117    4.1204   -0.2043 O   0  0  0  0  0  0  0  0  0  0  0  0
   -0.8112    2.7987   -0.1811 N   0  0  0  0  0  0  0  0  0  0  0  0
    0.1664    2.0081   -0.2945 C   0  0  0  0  0  0  0  0  0  0  0  0
   -1.2355    4.6029   -0.1114 H   0  0  0  0  0  0  0  0  0  0  0  0
    1.1925    2.3549   -0.3970 H   0  0  0  0  0  0  0  0  0  0  0  0
    0.1664   -2.4197   -3.0465 C   0  0  0  0  0  0  0  0  0  0  0  0
    0.1664   -2.4197   -1.5522 C   0  0  0  0  0  0  0  0  0  0  0  0
    0.1664   -1.3230   -0.7980 C   0  0  0  0  0  0  0  0  0  0  0  0
    0.1664   -1.2736    0.6683 C   0  0  0  0  0  0  0  0  0  0  0  0
    0.1664   -2.5829    1.4031 C   0  0  0  0  0  0  0  0  0  0  0  0
    0.1664   -0.0762    1.2650 C   0  0  0  0  0  3  0  0  0  0  0  0
    0.1664    0.2422    2.7243 C   0  0  0  0  0  0  0  0  0  0  0  0
    1.0440   -2.9407   -3.4391 H   0  0  0  0  0  0  0  0  0  0  0  0
    0.1664   -1.4046   -3.4459 H   0  0  0  0  0  0  0  0  0  0  0  0
   -0.7112   -2.9407   -3.4391 H   0  0  0  0  0  0  0  0  0  0  0  0
    0.1664   -3.3963   -1.0771 H   0  0  0  0  0  0  0  0  0  0  0  0
    0.1664   -0.3559   -1.2963 H   0  0  0  0  0  0  0  0  0  0  0  0
    0.1664   -2.4559    2.4827 H   0  0  0  0  0  0  0  0  0  0  0  0
   -0.7126   -3.1740    1.1342 H   0  0  0  0  0  0  0  0  0  0  0  0
    1.0454   -3.1740    1.1342 H   0  0  0  0  0  0  0  0  0  0  0  0
    0.1664    0.9686    0.4833 H   0  0  0  0  0  0  0  0  0  0  0  0
    1.0432    0.8419    2.9841 H   0  0  0  0  0  0  0  0  0  0  0  0
    0.1664   -0.6410    3.3602 H   0  0  0  0  0  0  0  0  0  0  0  0
   -0.7104    0.8419    2.9841 H   0  0  0  0  0  0  0  0  0  0  0  0
  1  2  1  0
  1  4  1  0
  2  3  2  3
  3  5  1  0
  3 21  1  0
  6  7  1  0
  6 13  1  0
  6 14  1  0
  6 15  1  0
  7  8  2  3
  7 16  1  0
  8  9  1  0
  8 17  1  0
  9 10  1  0
  9 11  2  3
 10 18  1  0
 10 19  1  0
 10 20  1  0
 11 12  1  0
 12 22  1  0
 12 23  1  0
 12 24  1  0
M  RAD  1  11   2
M  END
>  <reaction>  (6) 
rmg_rxn_15493

>  <mol_properties>  (6) 
{"1": {"label": "*0", "atom_type": "N3d"}, "2": {"label": "*1", "atom_type": "Cd"}, "8": {"label": "*4", "atom_type": "Cd"}, "10": {"label": "*3", "atom_type": "Cd"}, "20": {"label": "*2", "atom_type": "H0"}}

>  <type>  (6) 
unop_2

>  <geom_source>  (6) 
Heuristics

$$$$

     RDKit          3D

 24 22  0  0  0  0  0  0  0  0999 V2000
   -3.7274   -0.8916    0.0027 O   0  0  0  0  0  0  0  0  0  0  0  0
   -2.3939   -0.4187    0.0025 N   0  0  0  0  0  0  0  0  0  0  0  0
   -2.1709    0.7973   -0.0058 C   0  0  0  0  0  3  0  0  0  0  0  0
   -3.6397   -1.8544    0.0102 H   0  0  0  0  0  0  0  0  0  0  0  0
   -2.8669    1.6275   -0.0134 H   0  0  0  0  0  0  0  0  0  0  0  0
    1.4970   -3.1756   -0.0020 C   0  0  0  0  0  0  0  0  0  0  0  0
    1.8798   -1.7342   -0.0003 C   0  0  0  0  0  0  0  0  0  0  0  0
    0.9980   -0.7373   -0.0010 C   0  0  0  0  0  0  0  0  0  0  0  0
    1.3099    0.6876    0.0005 C   0  0  0  0  0  0  0  0  0  0  0  0
    2.7720    1.0715    0.0032 C   0  0  0  0  0  0  0  0  0  0  0  0
    0.3270    1.5783   -0.0007 C   0  0  0  0  0  0  0  0  0  0  0  0
    0.3056    3.0580   -0.0001 C   0  0  0  0  0  0  0  0  0  0  0  0
    0.4162   -3.2911   -0.0065 H   0  0  0  0  0  0  0  0  0  0  0  0
    1.9015   -3.6757    0.8786 H   0  0  0  0  0  0  0  0  0  0  0  0
    1.9089   -3.6756   -0.8791 H   0  0  0  0  0  0  0  0  0  0  0  0
    2.9446   -1.5459    0.0018 H   0  0  0  0  0  0  0  0  0  0  0  0
   -0.0578   -0.9723   -0.0029 H   0  0  0  0  0  0  0  0  0  0  0  0
    3.2576    0.6624    0.8874 H   0  0  0  0  0  0  0  0  0  0  0  0
    3.2602    0.6643   -0.8805 H   0  0  0  0  0  0  0  0  0  0  0  0
    2.9010    2.1491    0.0044 H   0  0  0  0  0  0  0  0  0  0  0  0
   -0.8966    1.1267   -0.0036 H   0  0  0  0  0  0  0  0  0  0  0  0
   -0.2305    3.4244    0.8766 H   0  0  0  0  0  0  0  0  0  0  0  0
   -0.2154    3.4253   -0.8855 H   0  0  0  0  0  0  0  0  0  0  0  0
    1.3069    3.4897    0.0088 H   0  0  0  0  0  0  0  0  0  0  0  0
  1  2  1  0
  1  4  1  0
  2  3  2  3
  3  5  1  0
  6  7  1  0
  6 13  1  0
  6 14  1  0
  6 15  1  0
  7  8  2  3
  7 16  1  0
  8  9  1  0
  8 17  1  0
  9 10  1  0
  9 11  2  3
 10 18  1  0
 10 19  1  0
 10 20  1  0
 11 12  1  0
 11 21  1  0
 12 22  1  0
 12 23  1  0
 12 24  1  0
M  RAD  1   3   2
M  END
>  <reaction>  (7) 
rmg_rxn_15493

>  <mol_properties>  (7) 
{"1": {"label": "*0", "atom_type": "N3d"}, "2": {"label": "*1", "atom_type": "Cd"}, "8": {"label": "*4", "atom_type": "Cd"}, "10": {"label": "*3", "atom_type": "Cd"}, "20": {"label": "*2", "atom_type": "H0"}}

>  <type>  (7) 
unop_3

>  <geom_source>  (7) 
Heuristics

$$$$

     RDKit          3D

 24 22  0  0  0  0  0  0  0  0999 V2000
   -3.7273   -0.8902    0.0003 O   0  0  0  0  0  0  0  0  0  0  0  0
   -2.3936   -0.4176    0.0014 N   0  0  0  0  0  0  0  0  0  0  0  0
   -2.1703    0.7983   -0.0022 C   0  0  0  0  0  3  0  0  0  0  0  0
   -3.6398   -1.8531    0.0037 H   0  0  0  0  0  0  0  0  0  0  0  0
   -2.8663    1.6286   -0.0064 H   0  0  0  0  0  0  0  0  0  0  0  0
    1.4946   -3.1763   -0.0006 C   0  0  0  0  0  0  0  0  0  0  0  0
    1.8785   -1.7352   -0.0005 C   0  0  0  0  0  0  0  0  0  0  0  0
    0.9974   -0.7376    0.0006 C   0  0  0  0  0  0  0  0  0  0  0  0
    1.3102    0.6871    0.0004 C   0  0  0  0  0  0  0  0  0  0  0  0
    2.7726    1.0700    0.0005 C   0  0  0  0  0  0  0  0  0  0  0  0
    0.3279    1.5784    0.0001 C   0  0  0  0  0  0  0  0  0  0  0  0
    0.3073    3.0581    0.0001 C   0  0  0  0  0  0  0  0  0  0  0  0
    1.8983   -3.6754   -0.8821 H   0  0  0  0  0  0  0  0  0  0  0  0
    0.4136   -3.2909    0.0043 H   0  0  0  0  0  0  0  0  0  0  0  0
    1.9066   -3.6778    0.8757 H   0  0  0  0  0  0  0  0  0  0  0  0
    2.9434   -1.5476   -0.0020 H   0  0  0  0  0  0  0  0  0  0  0  0
   -0.0586   -0.9719    0.0016 H   0  0  0  0  0  0  0  0  0  0  0  0
    2.9022    2.1476    0.0030 H   0  0  0  0  0  0  0  0  0  0  0  0
    3.2598    0.6593    0.8830 H   0  0  0  0  0  0  0  0  0  0  0  0
    3.2586    0.6638   -0.8848 H   0  0  0  0  0  0  0  0  0  0  0  0
   -0.8961    1.1274   -0.0007 H   0  0  0  0  0  0  0  0  0  0  0  0
    1.3089    3.4893    0.0035 H   0  0  0  0  0  0  0  0  0  0  0  0
   -0.2241    3.4252    0.8794 H   0  0  0  0  0  0  0  0  0  0  0  0
   -0.2180    3.4252   -0.8829 H   0  0  0  0  0  0  0  0  0  0  0  0
  1  2  1  0
  1  4  1  0
  2  3  2  3
  3  5  1  0
  6  7  1  0
  6 13  1  0
  6 14  1  0
  6 15  1  0
  7  8  2  3
  7 16  1  0
  8  9  1  0
  8 17  1  0
  9 10  1  0
  9 11  2  3
 10 18  1  0
 10 19  1  0
 10 20  1  0
 11 12  1  0
 11 21  1  0
 12 22  1  0
 12 23  1  0
 12 24  1  0
M  RAD  1   3   2
M  END
>  <reaction>  (8) 
rmg_rxn_15493

>  <mol_properties>  (8) 
{"1": {"label": "*0", "atom_type": "N3d"}, "2": {"label": "*1", "atom_type": "Cd"}, "8": {"label": "*4", "atom_type": "Cd"}, "10": {"label": "*3", "atom_type": "Cd"}, "20": {"label": "*2", "atom_type": "H0"}}

>  <type>  (8) 
unop_4

>  <geom_source>  (8) 
Heuristics

$$$$

     RDKit          3D

 24 22  0  0  0  0  0  0  0  0999 V2000
   -3.7274   -0.8909    0.0006 O   0  0  0  0  0  0  0  0  0  0  0  0
   -2.3938   -0.4182   -0.0010 N   0  0  0  0  0  0  0  0  0  0  0  0
   -2.1706    0.7978    0.0006 C   0  0  0  0  0  3  0  0  0  0  0  0
   -3.6398   -1.8537   -0.0012 H   0  0  0  0  0  0  0  0  0  0  0  0
   -2.8666    1.6280    0.0034 H   0  0  0  0  0  0  0  0  0  0  0  0
    1.4957   -3.1759   -0.0001 C   0  0  0  0  0  0  0  0  0  0  0  0
    1.8791   -1.7347    0.0007 C   0  0  0  0  0  0  0  0  0  0  0  0
    0.9977   -0.7375   -0.0008 C   0  0  0  0  0  0  0  0  0  0  0  0
    1.3101    0.6873   -0.0002 C   0  0  0  0  0  0  0  0  0  0  0  0
    2.7723    1.0707    0.0004 C   0  0  0  0  0  0  0  0  0  0  0  0
    0.3275    1.5783   -0.0003 C   0  0  0  0  0  0  0  0  0  0  0  0
    0.3065    3.0580   -0.0001 C   0  0  0  0  0  0  0  0  0  0  0  0
    1.9080   -3.6769   -0.8766 H   0  0  0  0  0  0  0  0  0  0  0  0
    0.4149   -3.2910   -0.0052 H   0  0  0  0  0  0  0  0  0  0  0  0
    1.8994   -3.6754    0.8812 H   0  0  0  0  0  0  0  0  0  0  0  0
    2.9440   -1.5468    0.0028 H   0  0  0  0  0  0  0  0  0  0  0  0
   -0.0582   -0.9721   -0.0027 H   0  0  0  0  0  0  0  0  0  0  0  0
    3.2593    0.6628   -0.8836 H   0  0  0  0  0  0  0  0  0  0  0  0
    2.9016    2.1483    0.0009 H   0  0  0  0  0  0  0  0  0  0  0  0
    3.2588    0.6620    0.8842 H   0  0  0  0  0  0  0  0  0  0  0  0
   -0.8963    1.1270   -0.0005 H   0  0  0  0  0  0  0  0  0  0  0  0
   -0.2181    3.4252   -0.8835 H   0  0  0  0  0  0  0  0  0  0  0  0
    1.3079    3.4895    0.0045 H   0  0  0  0  0  0  0  0  0  0  0  0
   -0.2259    3.4249    0.8787 H   0  0  0  0  0  0  0  0  0  0  0  0
  1  2  1  0
  1  4  1  0
  2  3  2  3
  3  5  1  0
  6  7  1  0
  6 13  1  0
  6 14  1  0
  6 15  1  0
  7  8  2  3
  7 16  1  0
  8  9  1  0
  8 17  1  0
  9 10  1  0
  9 11  2  3
 10 18  1  0
 10 19  1  0
 10 20  1  0
 11 12  1  0
 11 21  1  0
 12 22  1  0
 12 23  1  0
 12 24  1  0
M  RAD  1   3   2
M  END
>  <reaction>  (9) 
rmg_rxn_15493

>  <mol_properties>  (9) 
{"1": {"label": "*0", "atom_type": "N3d"}, "2": {"label": "*1", "atom_type": "Cd"}, "8": {"label": "*4", "atom_type": "Cd"}, "10": {"label": "*3", "atom_type": "Cd"}, "20": {"label": "*2", "atom_type": "H0"}}

>  <type>  (9) 
unop_5

>  <geom_source>  (9) 
Heuristics

$$$$

     RDKit          3D

 24 22  0  0  0  0  0  0  0  0999 V2000
   -3.7273   -0.8905   -0.0011 O   0  0  0  0  0  0  0  0  0  0  0  0
   -2.3937   -0.4177   -0.0024 N   0  0  0  0  0  0  0  0  0  0  0  0
   -2.1705    0.7982    0.0042 C   0  0  0  0  0  3  0  0  0  0  0  0
   -3.6397   -1.8533   -0.0072 H   0  0  0  0  0  0  0  0  0  0  0  0
   -2.8663    1.6285    0.0112 H   0  0  0  0  0  0  0  0  0  0  0  0
    1.4950   -3.1762    0.0012 C   0  0  0  0  0  0  0  0  0  0  0  0
    1.8787   -1.7350    0.0009 C   0  0  0  0  0  0  0  0  0  0  0  0
    0.9974   -0.7376   -0.0004 C   0  0  0  0  0  0  0  0  0  0  0  0
    1.3101    0.6871   -0.0006 C   0  0  0  0  0  0  0  0  0  0  0  0
    2.7725    1.0702   -0.0016 C   0  0  0  0  0  0  0  0  0  0  0  0
    0.3277    1.5784    0.0001 C   0  0  0  0  0  0  0  0  0  0  0  0
    0.3071    3.0581    0.0000 C   0  0  0  0  0  0  0  0  0  0  0  0
    1.9056   -3.6773   -0.8760 H   0  0  0  0  0  0  0  0  0  0  0  0
    0.4141   -3.2910   -0.0020 H   0  0  0  0  0  0  0  0  0  0  0  0
    1.9002   -3.6756    0.8819 H   0  0  0  0  0  0  0  0  0  0  0  0
    2.9436   -1.5473    0.0023 H   0  0  0  0  0  0  0  0  0  0  0  0
   -0.0585   -0.9719   -0.0012 H   0  0  0  0  0  0  0  0  0  0  0  0
    2.9020    2.1478   -0.0045 H   0  0  0  0  0  0  0  0  0  0  0  0
    3.2591    0.6642    0.8834 H   0  0  0  0  0  0  0  0  0  0  0  0
    3.2592    0.6595   -0.8844 H   0  0  0  0  0  0  0  0  0  0  0  0
   -0.8961    1.1273    0.0018 H   0  0  0  0  0  0  0  0  0  0  0  0
   -0.2245    3.4251   -0.8792 H   0  0  0  0  0  0  0  0  0  0  0  0
    1.3086    3.4893   -0.0036 H   0  0  0  0  0  0  0  0  0  0  0  0
   -0.2182    3.4253    0.8830 H   0  0  0  0  0  0  0  0  0  0  0  0
  1  2  1  0
  1  4  1  0
  2  3  2  3
  3  5  1  0
  6  7  1  0
  6 13  1  0
  6 14  1  0
  6 15  1  0
  7  8  2  3
  7 16  1  0
  8  9  1  0
  8 17  1  0
  9 10  1  0
  9 11  2  3
 10 18  1  0
 10 19  1  0
 10 20  1  0
 11 12  1  0
 11 21  1  0
 12 22  1  0
 12 23  1  0
 12 24  1  0
M  RAD  1   3   2
M  END
>  <reaction>  (10) 
rmg_rxn_15493

>  <mol_properties>  (10) 
{"1": {"label": "*0", "atom_type": "N3d"}, "2": {"label": "*1", "atom_type": "Cd"}, "8": {"label": "*4", "atom_type": "Cd"}, "10": {"label": "*3", "atom_type": "Cd"}, "20": {"label": "*2", "atom_type": "H0"}}

>  <type>  (10) 
unop_6

>  <geom_source>  (10) 
Heuristics

$$$$

     RDKit          3D

 24 22  0  0  0  0  0  0  0  0999 V2000
   -0.7006    3.3117   -1.6484 O   0  0  0  0  0  0  0  0  0  0  0  0
   -0.4018    2.0925   -1.0727 N   0  0  0  0  0  0  0  0  0  0  0  0
    0.1626    2.2257    0.0486 C   0  0  0  0  0  0  0  0  0  0  0  0
   -1.1171    3.0694   -2.4778 H   0  0  0  0  0  0  0  0  0  0  0  0
    0.3763    3.1987    0.4859 H   0  0  0  0  0  0  0  0  0  0  0  0
    0.1626   -2.2021   -2.7035 C   0  0  0  0  0  0  0  0  0  0  0  0
    0.1626   -2.2021   -1.2091 C   0  0  0  0  0  0  0  0  0  0  0  0
    0.1626   -1.1054   -0.4549 C   0  0  0  0  0  0  0  0  0  0  0  0
    0.1626   -1.0560    1.0113 C   0  0  0  0  0  0  0  0  0  0  0  0
    0.1626   -2.3653    1.7462 C   0  0  0  0  0  0  0  0  0  0  0  0
    0.1626    0.1414    1.6080 C   0  0  0  0  0  3  0  0  0  0  0  0
    0.1626    0.4598    3.0673 C   0  0  0  0  0  0  0  0  0  0  0  0
    1.0402   -2.7231   -3.0961 H   0  0  0  0  0  0  0  0  0  0  0  0
    0.1626   -1.1870   -3.1029 H   0  0  0  0  0  0  0  0  0  0  0  0
   -0.7150   -2.7231   -3.0961 H   0  0  0  0  0  0  0  0  0  0  0  0
    0.1626   -3.1788   -0.7341 H   0  0  0  0  0  0  0  0  0  0  0  0
    0.1626   -0.1383   -0.9532 H   0  0  0  0  0  0  0  0  0  0  0  0
    0.1626   -2.2384    2.8257 H   0  0  0  0  0  0  0  0  0  0  0  0
   -0.7164   -2.9564    1.4773 H   0  0  0  0  0  0  0  0  0  0  0  0
    1.0416   -2.9564    1.4773 H   0  0  0  0  0  0  0  0  0  0  0  0
    0.1626    1.1862    0.8263 H   0  0  0  0  0  0  0  0  0  0  0  0
    1.0394    1.0595    3.3271 H   0  0  0  0  0  0  0  0  0  0  0  0
    0.1626   -0.4234    3.7033 H   0  0  0  0  0  0  0  0  0  0  0  0
   -0.7141    1.0595    3.3271 H   0  0  0  0  0  0  0  0  0  0  0  0
  1  2  1  0
  1  4  1  0
  2  3  2  3
  3  5  1  0
  3 21  1  0
  6  7  1  0
  6 13  1  0
  6 14  1  0
  6 15  1  0
  7  8  2  3
  7 16  1  0
  8  9  1  0
  8 17  1  0
  9 10  1  0
  9 11  2  3
 10 18  1  0
 10 19  1  0
 10 20  1  0
 11 12  1  0
 12 22  1  0
 12 23  1  0
 12 24  1  0
M  RAD  1  11   2
M  END
>  <reaction>  (11) 
rmg_rxn_15493

>  <mol_properties>  (11) 
{"1": {"label": "*0", "atom_type": "N3d"}, "2": {"label": "*1", "atom_type": "Cd"}, "8": {"label": "*4", "atom_type": "Cd"}, "10": {"label": "*3", "atom_type": "Cd"}, "20": {"label": "*2", "atom_type": "H0"}}

>  <type>  (11) 
unop_7

>  <geom_source>  (11) 
Heuristics

$$$$

     RDKit          3D

 24 22  0  0  0  0  0  0  0  0999 V2000
   -3.7269   -0.8893   -0.0002 O   0  0  0  0  0  0  0  0  0  0  0  0
   -2.3933   -0.4166   -0.0014 N   0  0  0  0  0  0  0  0  0  0  0  0
   -2.1700    0.7993    0.0005 C   0  0  0  0  0  3  0  0  0  0  0  0
   -3.6393   -1.8521   -0.0021 H   0  0  0  0  0  0  0  0  0  0  0  0
   -2.8659    1.6296    0.0031 H   0  0  0  0  0  0  0  0  0  0  0  0
    1.4926   -3.1768    0.0015 C   0  0  0  0  0  0  0  0  0  0  0  0
    1.8774   -1.7359    0.0007 C   0  0  0  0  0  0  0  0  0  0  0  0
    0.9968   -0.7379   -0.0009 C   0  0  0  0  0  0  0  0  0  0  0  0
    1.3104    0.6866   -0.0008 C   0  0  0  0  0  0  0  0  0  0  0  0
    2.7730    1.0688   -0.0020 C   0  0  0  0  0  0  0  0  0  0  0  0
    0.3286    1.5785    0.0003 C   0  0  0  0  0  0  0  0  0  0  0  0
    0.3088    3.0582    0.0020 C   0  0  0  0  0  0  0  0  0  0  0  0
    0.4116   -3.2908   -0.0017 H   0  0  0  0  0  0  0  0  0  0  0  0
    1.8972   -3.6761    0.8824 H   0  0  0  0  0  0  0  0  0  0  0  0
    1.9029   -3.6787   -0.8753 H   0  0  0  0  0  0  0  0  0  0  0  0
    2.9424   -1.5490    0.0019 H   0  0  0  0  0  0  0  0  0  0  0  0
   -0.0593   -0.9715   -0.0020 H   0  0  0  0  0  0  0  0  0  0  0  0
    3.2603    0.6602    0.8814 H   0  0  0  0  0  0  0  0  0  0  0  0
    3.2584    0.6600   -0.8864 H   0  0  0  0  0  0  0  0  0  0  0  0
    2.9032    2.1463   -0.0024 H   0  0  0  0  0  0  0  0  0  0  0  0
   -0.8957    1.1281    0.0001 H   0  0  0  0  0  0  0  0  0  0  0  0
   -0.2267    3.4244    0.8791 H   0  0  0  0  0  0  0  0  0  0  0  0
   -0.2121    3.4268   -0.8830 H   0  0  0  0  0  0  0  0  0  0  0  0
    1.3105    3.4888    0.0110 H   0  0  0  0  0  0  0  0  0  0  0  0
  1  2  1  0
  1  4  1  0
  2  3  2  3
  3  5  1  0
  6  7  1  0
  6 13  1  0
  6 14  1  0
  6 15  1  0
  7  8  2  3
  7 16  1  0
  8  9  1  0
  8 17  1  0
  9 10  1  0
  9 11  2  3
 10 18  1  0
 10 19  1  0
 10 20  1  0
 11 12  1  0
 11 21  1  0
 12 22  1  0
 12 23  1  0
 12 24  1  0
M  RAD  1   3   2
M  END
>  <reaction>  (12) 
rmg_rxn_15493

>  <mol_properties>  (12) 
{"1": {"label": "*0", "atom_type": "N3d"}, "2": {"label": "*1", "atom_type": "Cd"}, "8": {"label": "*4", "atom_type": "Cd"}, "10": {"label": "*3", "atom_type": "Cd"}, "20": {"label": "*2", "atom_type": "H0"}}

>  <type>  (12) 
unop_8

>  <geom_source>  (12) 
Heuristics

$$$$

     RDKit          3D

 24 22  0  0  0  0  0  0  0  0999 V2000
    0.0959    4.1657   -0.3198 O   0  0  0  0  0  0  0  0  0  0  0  0
   -0.5163    3.0125    0.1301 N   0  0  0  0  0  0  0  0  0  0  0  0
    0.0481    1.9744   -0.3141 C   0  0  0  0  0  0  0  0  0  0  0  0
   -0.4223    4.8644    0.0845 H   0  0  0  0  0  0  0  0  0  0  0  0
    0.9135    2.0132   -0.9724 H   0  0  0  0  0  0  0  0  0  0  0  0
    0.0481   -2.4533   -3.0662 C   0  0  0  0  0  0  0  0  0  0  0  0
    0.0481   -2.4533   -1.5718 C   0  0  0  0  0  0  0  0  0  0  0  0
    0.0481   -1.3567   -0.8176 C   0  0  0  0  0  0  0  0  0  0  0  0
    0.0481   -1.3073    0.6486 C   0  0  0  0  0  0  0  0  0  0  0  0
    0.0481   -2.6166    1.3835 C   0  0  0  0  0  0  0  0  0  0  0  0
    0.0481   -0.1099    1.2453 C   0  0  0  0  0  3  0  0  0  0  0  0
    0.0481    0.2085    2.7046 C   0  0  0  0  0  0  0  0  0  0  0  0
    0.9257   -2.9744   -3.4588 H   0  0  0  0  0  0  0  0  0  0  0  0
    0.0481   -1.4382   -3.4656 H   0  0  0  0  0  0  0  0  0  0  0  0
   -0.8295   -2.9744   -3.4588 H   0  0  0  0  0  0  0  0  0  0  0  0
    0.0481   -3.4300   -1.0968 H   0  0  0  0  0  0  0  0  0  0  0  0
    0.0481   -0.3895   -1.3159 H   0  0  0  0  0  0  0  0  0  0  0  0
    0.0481   -2.4896    2.4630 H   0  0  0  0  0  0  0  0  0  0  0  0
   -0.8309   -3.2077    1.1146 H   0  0  0  0  0  0  0  0  0  0  0  0
    0.9271   -3.2077    1.1146 H   0  0  0  0  0  0  0  0  0  0  0  0
    0.0481    0.9350    0.4636 H   0  0  0  0  0  0  0  0  0  0  0  0
    0.9249    0.8082    2.9644 H   0  0  0  0  0  0  0  0  0  0  0  0
    0.0481   -0.6747    3.3406 H   0  0  0  0  0  0  0  0  0  0  0  0
   -0.8287    0.8082    2.9644 H   0  0  0  0  0  0  0  0  0  0  0  0
  1  2  1  0
  1  4  1  0
  2  3  2  3
  3  5  1  0
  3 21  1  0
  6  7  1  0
  6 13  1  0
  6 14  1  0
  6 15  1  0
  7  8  2  3
  7 16  1  0
  8  9  1  0
  8 17  1  0
  9 10  1  0
  9 11  2  3
 10 18  1  0
 10 19  1  0
 10 20  1  0
 11 12  1  0
 12 22  1  0
 12 23  1  0
 12 24  1  0
M  RAD  1  11   2
M  END
>  <reaction>  (13) 
rmg_rxn_15493

>  <mol_properties>  (13) 
{"1": {"label": "*0", "atom_type": "N3d"}, "2": {"label": "*1", "atom_type": "Cd"}, "8": {"label": "*4", "atom_type": "Cd"}, "10": {"label": "*3", "atom_type": "Cd"}, "20": {"label": "*2", "atom_type": "H0"}}

>  <type>  (13) 
unop_9

>  <geom_source>  (13) 
Heuristics

$$$$

     RDKit          3D

 24 22  0  0  0  0  0  0  0  0999 V2000
    1.0394    3.5944   -1.0969 O   0  0  0  0  0  0  0  0  0  0  0  0
    0.7209    2.2722   -0.8574 N   0  0  0  0  0  0  0  0  0  0  0  0
   -0.2566    2.1579   -0.0670 C   0  0  0  0  0  0  0  0  0  0  0  0
    1.7830    3.5380   -1.7002 H   0  0  0  0  0  0  0  0  0  0  0  0
   -0.7692    3.0171    0.3603 H   0  0  0  0  0  0  0  0  0  0  0  0
   -0.2566   -2.2699   -2.8191 C   0  0  0  0  0  0  0  0  0  0  0  0
   -0.2566   -2.2699   -1.3247 C   0  0  0  0  0  0  0  0  0  0  0  0
   -0.2566   -1.1732   -0.5705 C   0  0  0  0  0  0  0  0  0  0  0  0
   -0.2566   -1.1238    0.8958 C   0  0  0  0  0  0  0  0  0  0  0  0
   -0.2566   -2.4331    1.6306 C   0  0  0  0  0  0  0  0  0  0  0  0
   -0.2566    0.0736    1.4924 C   0  0  0  0  0  3  0  0  0  0  0  0
   -0.2566    0.3920    2.9518 C   0  0  0  0  0  0  0  0  0  0  0  0
    0.6209   -2.7909   -3.2116 H   0  0  0  0  0  0  0  0  0  0  0  0
   -0.2566   -1.2548   -3.2185 H   0  0  0  0  0  0  0  0  0  0  0  0
   -1.1342   -2.7909   -3.2116 H   0  0  0  0  0  0  0  0  0  0  0  0
   -0.2566   -3.2466   -0.8496 H   0  0  0  0  0  0  0  0  0  0  0  0
   -0.2566   -0.2061   -1.0688 H   0  0  0  0  0  0  0  0  0  0  0  0
   -0.2566   -2.3062    2.7102 H   0  0  0  0  0  0  0  0  0  0  0  0
   -1.1356   -3.0242    1.3617 H   0  0  0  0  0  0  0  0  0  0  0  0
    0.6223   -3.0242    1.3617 H   0  0  0  0  0  0  0  0  0  0  0  0
   -0.2566    1.1184    0.7107 H   0  0  0  0  0  0  0  0  0  0  0  0
    0.6201    0.9917    3.2116 H   0  0  0  0  0  0  0  0  0  0  0  0
   -0.2566   -0.4912    3.5877 H   0  0  0  0  0  0  0  0  0  0  0  0
   -1.1334    0.9917    3.2116 H   0  0  0  0  0  0  0  0  0  0  0  0
  1  2  1  0
  1  4  1  0
  2  3  2  3
  3  5  1  0
  3 21  1  0
  6  7  1  0
  6 13  1  0
  6 14  1  0
  6 15  1  0
  7  8  2  3
  7 16  1  0
  8  9  1  0
  8 17  1  0
  9 10  1  0
  9 11  2  3
 10 18  1  0
 10 19  1  0
 10 20  1  0
 11 12  1  0
 12 22  1  0
 12 23  1  0
 12 24  1  0
M  RAD  1  11   2
M  END
>  <reaction>  (14) 
rmg_rxn_15493

>  <mol_properties>  (14) 
{"1": {"label": "*0", "atom_type": "N3d"}, "2": {"label": "*1", "atom_type": "Cd"}, "8": {"label": "*4", "atom_type": "Cd"}, "10": {"label": "*3", "atom_type": "Cd"}, "20": {"label": "*2", "atom_type": "H0"}}

>  <type>  (14) 
unop_10

>  <geom_source>  (14) 
Heuristics

$$$$

     RDKit          3D

 24 22  0  0  0  0  0  0  0  0999 V2000
   -3.7277   -0.8933   -0.0047 O   0  0  0  0  0  0  0  0  0  0  0  0
   -2.3942   -0.4201   -0.0033 N   0  0  0  0  0  0  0  0  0  0  0  0
   -2.1715    0.7960    0.0094 C   0  0  0  0  0  3  0  0  0  0  0  0
   -3.6397   -1.8560   -0.0156 H   0  0  0  0  0  0  0  0  0  0  0  0
   -2.8677    1.6259    0.0206 H   0  0  0  0  0  0  0  0  0  0  0  0
    1.5001   -3.1748    0.0026 C   0  0  0  0  0  0  0  0  0  0  0  0
    1.8815   -1.7330    0.0003 C   0  0  0  0  0  0  0  0  0  0  0  0
    0.9988   -0.7369    0.0021 C   0  0  0  0  0  0  0  0  0  0  0  0
    1.3095    0.6883   -0.0005 C   0  0  0  0  0  0  0  0  0  0  0  0
    2.7714    1.0733   -0.0049 C   0  0  0  0  0  0  0  0  0  0  0  0
    0.3260    1.5782    0.0015 C   0  0  0  0  0  0  0  0  0  0  0  0
    0.3034    3.0579   -0.0006 C   0  0  0  0  0  0  0  0  0  0  0  0
    1.9134   -3.6743    0.8794 H   0  0  0  0  0  0  0  0  0  0  0  0
    1.9041   -3.6746   -0.8784 H   0  0  0  0  0  0  0  0  0  0  0  0
    0.4194   -3.2914    0.0083 H   0  0  0  0  0  0  0  0  0  0  0  0
    2.9461   -1.5438   -0.0032 H   0  0  0  0  0  0  0  0  0  0  0  0
   -0.0568   -0.9727    0.0055 H   0  0  0  0  0  0  0  0  0  0  0  0
    3.2565    0.6634   -0.8889 H   0  0  0  0  0  0  0  0  0  0  0  0
    2.8994    2.1511   -0.0077 H   0  0  0  0  0  0  0  0  0  0  0  0
    3.2606    0.6677    0.8789 H   0  0  0  0  0  0  0  0  0  0  0  0
   -0.8974    1.1258    0.0062 H   0  0  0  0  0  0  0  0  0  0  0  0
   -0.2161    3.4258    0.8855 H   0  0  0  0  0  0  0  0  0  0  0  0
   -0.2348    3.4228   -0.8766 H   0  0  0  0  0  0  0  0  0  0  0  0
    1.3043    3.4904   -0.0121 H   0  0  0  0  0  0  0  0  0  0  0  0
  1  2  1  0
  1  4  1  0
  2  3  2  3
  3  5  1  0
  6  7  1  0
  6 13  1  0
  6 14  1  0
  6 15  1  0
  7  8  2  3
  7 16  1  0
  8  9  1  0
  8 17  1  0
  9 10  1  0
  9 11  2  3
 10 18  1  0
 10 19  1  0
 10 20  1  0
 11 12  1  0
 11 21  1  0
 12 22  1  0
 12 23  1  0
 12 24  1  0
M  RAD  1   3   2
M  END
>  <reaction>  (15) 
rmg_rxn_15493

>  <mol_properties>  (15) 
{"1": {"label": "*0", "atom_type": "N3d"}, "2": {"label": "*1", "atom_type": "Cd"}, "8": {"label": "*4", "atom_type": "Cd"}, "10": {"label": "*3", "atom_type": "Cd"}, "20": {"label": "*2", "atom_type": "H0"}}

>  <type>  (15) 
unop_11

>  <geom_source>  (15) 
Heuristics

$$$$

     RDKit          3D

 24 22  0  0  0  0  0  0  0  0999 V2000
    0.0000    4.1331   -0.6313 O   0  0  0  0  0  0  0  0  0  0  0  0
    0.0000    3.0979    0.2827 N   0  0  0  0  0  0  0  0  0  0  0  0
    0.0000    1.9692   -0.2826 C   0  0  0  0  0  0  0  0  0  0  0  0
    0.0000    4.9171   -0.0787 H   0  0  0  0  0  0  0  0  0  0  0  0
   -0.0000    1.8550   -1.3646 H   0  0  0  0  0  0  0  0  0  0  0  0
   -0.0000   -2.4586   -3.0347 C   0  0  0  0  0  0  0  0  0  0  0  0
   -0.0000   -2.4586   -1.5403 C   0  0  0  0  0  0  0  0  0  0  0  0
   -0.0000   -1.3619   -0.7861 C   0  0  0  0  0  0  0  0  0  0  0  0
   -0.0000   -1.3125    0.6801 C   0  0  0  0  0  0  0  0  0  0  0  0
   -0.0000   -2.6218    1.4150 C   0  0  0  0  0  0  0  0  0  0  0  0
    0.0000   -0.1151    1.2768 C   0  0  0  0  0  3  0  0  0  0  0  0
    0.0000    0.2033    2.7361 C   0  0  0  0  0  0  0  0  0  0  0  0
    0.8776   -2.9796   -3.4273 H   0  0  0  0  0  0  0  0  0  0  0  0
   -0.0000   -1.4435   -3.4341 H   0  0  0  0  0  0  0  0  0  0  0  0
   -0.8776   -2.9796   -3.4273 H   0  0  0  0  0  0  0  0  0  0  0  0
   -0.0000   -3.4352   -1.0653 H   0  0  0  0  0  0  0  0  0  0  0  0
   -0.0000   -0.3948   -1.2844 H   0  0  0  0  0  0  0  0  0  0  0  0
   -0.0000   -2.4949    2.4945 H   0  0  0  0  0  0  0  0  0  0  0  0
   -0.8790   -3.2129    1.1461 H   0  0  0  0  0  0  0  0  0  0  0  0
    0.8790   -3.2129    1.1461 H   0  0  0  0  0  0  0  0  0  0  0  0
    0.0000    0.9297    0.4951 H   0  0  0  0  0  0  0  0  0  0  0  0
    0.8768    0.8030    2.9959 H   0  0  0  0  0  0  0  0  0  0  0  0
   -0.0000   -0.6799    3.3721 H   0  0  0  0  0  0  0  0  0  0  0  0
   -0.8768    0.8030    2.9959 H   0  0  0  0  0  0  0  0  0  0  0  0
  1  2  1  0
  1  4  1  0
  2  3  2  3
  3  5  1  0
  3 21  1  0
  6  7  1  0
  6 13  1  0
  6 14  1  0
  6 15  1  0
  7  8  2  3
  7 16  1  0
  8  9  1  0
  8 17  1  0
  9 10  1  0
  9 11  2  3
 10 18  1  0
 10 19  1  0
 10 20  1  0
 11 12  1  0
 12 22  1  0
 12 23  1  0
 12 24  1  0
M  RAD  1  11   2
M  END
>  <reaction>  (16) 
rmg_rxn_15493

>  <mol_properties>  (16) 
{"1": {"label": "*0", "atom_type": "N3d"}, "2": {"label": "*1", "atom_type": "Cd"}, "8": {"label": "*4", "atom_type": "Cd"}, "10": {"label": "*3", "atom_type": "Cd"}, "20": {"label": "*2", "atom_type": "H0"}}

>  <type>  (16) 
unop_12

>  <geom_source>  (16) 
Heuristics

$$$$

     RDKit          3D

 24 22  0  0  0  0  0  0  0  0999 V2000
   -3.7271   -0.8890    0.0024 O   0  0  0  0  0  0  0  0  0  0  0  0
   -2.3933   -0.4166    0.0022 N   0  0  0  0  0  0  0  0  0  0  0  0
   -2.1698    0.7993   -0.0050 C   0  0  0  0  0  3  0  0  0  0  0  0
   -3.6397   -1.8518    0.0087 H   0  0  0  0  0  0  0  0  0  0  0  0
   -2.8657    1.6296   -0.0118 H   0  0  0  0  0  0  0  0  0  0  0  0
    1.4923   -3.1769   -0.0018 C   0  0  0  0  0  0  0  0  0  0  0  0
    1.8772   -1.7360   -0.0010 C   0  0  0  0  0  0  0  0  0  0  0  0
    0.9967   -0.7379   -0.0002 C   0  0  0  0  0  0  0  0  0  0  0  0
    1.3104    0.6866    0.0006 C   0  0  0  0  0  0  0  0  0  0  0  0
    2.7731    1.0686    0.0034 C   0  0  0  0  0  0  0  0  0  0  0  0
    0.3287    1.5785   -0.0010 C   0  0  0  0  0  0  0  0  0  0  0  0
    0.3090    3.0582   -0.0005 C   0  0  0  0  0  0  0  0  0  0  0  0
    1.8975   -3.6764   -0.8824 H   0  0  0  0  0  0  0  0  0  0  0  0
    0.4113   -3.2908    0.0007 H   0  0  0  0  0  0  0  0  0  0  0  0
    1.9020   -3.6786    0.8754 H   0  0  0  0  0  0  0  0  0  0  0  0
    2.9423   -1.5492   -0.0013 H   0  0  0  0  0  0  0  0  0  0  0  0
   -0.0594   -0.9715   -0.0001 H   0  0  0  0  0  0  0  0  0  0  0  0
    2.9034    2.1461    0.0076 H   0  0  0  0  0  0  0  0  0  0  0  0
    3.2586    0.6565    0.8862 H   0  0  0  0  0  0  0  0  0  0  0  0
    3.2603    0.6631   -0.8816 H   0  0  0  0  0  0  0  0  0  0  0  0
   -0.8955    1.1281   -0.0032 H   0  0  0  0  0  0  0  0  0  0  0  0
    1.3109    3.4888   -0.0011 H   0  0  0  0  0  0  0  0  0  0  0  0
   -0.2185    3.4253    0.8811 H   0  0  0  0  0  0  0  0  0  0  0  0
   -0.2198    3.4260   -0.8811 H   0  0  0  0  0  0  0  0  0  0  0  0
  1  2  1  0
  1  4  1  0
  2  3  2  3
  3  5  1  0
  6  7  1  0
  6 13  1  0
  6 14  1  0
  6 15  1  0
  7  8  2  3
  7 16  1  0
  8  9  1  0
  8 17  1  0
  9 10  1  0
  9 11  2  3
 10 18  1  0
 10 19  1  0
 10 20  1  0
 11 12  1  0
 11 21  1  0
 12 22  1  0
 12 23  1  0
 12 24  1  0
M  RAD  1   3   2
M  END
>  <reaction>  (17) 
rmg_rxn_15493

>  <mol_properties>  (17) 
{"1": {"label": "*0", "atom_type": "N3d"}, "2": {"label": "*1", "atom_type": "Cd"}, "8": {"label": "*4", "atom_type": "Cd"}, "10": {"label": "*3", "atom_type": "Cd"}, "20": {"label": "*2", "atom_type": "H0"}}

>  <type>  (17) 
unop_13

>  <geom_source>  (17) 
Heuristics

$$$$

     RDKit          3D

 24 22  0  0  0  0  0  0  0  0999 V2000
   -3.7274   -0.8902   -0.0019 O   0  0  0  0  0  0  0  0  0  0  0  0
   -2.3937   -0.4177   -0.0019 N   0  0  0  0  0  0  0  0  0  0  0  0
   -2.1703    0.7983    0.0044 C   0  0  0  0  0  3  0  0  0  0  0  0
   -3.6399   -1.8530   -0.0077 H   0  0  0  0  0  0  0  0  0  0  0  0
   -2.8661    1.6286    0.0102 H   0  0  0  0  0  0  0  0  0  0  0  0
    1.4946   -3.1762    0.0013 C   0  0  0  0  0  0  0  0  0  0  0  0
    1.8786   -1.7352   -0.0003 C   0  0  0  0  0  0  0  0  0  0  0  0
    0.9975   -0.7376    0.0012 C   0  0  0  0  0  0  0  0  0  0  0  0
    1.3102    0.6871   -0.0001 C   0  0  0  0  0  0  0  0  0  0  0  0
    2.7726    1.0701   -0.0019 C   0  0  0  0  0  0  0  0  0  0  0  0
    0.3279    1.5783    0.0004 C   0  0  0  0  0  0  0  0  0  0  0  0
    0.3072    3.0580   -0.0005 C   0  0  0  0  0  0  0  0  0  0  0  0
    1.8987   -3.6766   -0.8792 H   0  0  0  0  0  0  0  0  0  0  0  0
    0.4137   -3.2908    0.0058 H   0  0  0  0  0  0  0  0  0  0  0  0
    1.9061   -3.6766    0.8785 H   0  0  0  0  0  0  0  0  0  0  0  0
    2.9435   -1.5477   -0.0030 H   0  0  0  0  0  0  0  0  0  0  0  0
   -0.0585   -0.9719    0.0034 H   0  0  0  0  0  0  0  0  0  0  0  0
    2.9022    2.1477   -0.0007 H   0  0  0  0  0  0  0  0  0  0  0  0
    3.2606    0.6606    0.8808 H   0  0  0  0  0  0  0  0  0  0  0  0
    3.2579    0.6627   -0.8870 H   0  0  0  0  0  0  0  0  0  0  0  0
   -0.8960    1.1273    0.0028 H   0  0  0  0  0  0  0  0  0  0  0  0
   -0.2134    3.4258    0.8850 H   0  0  0  0  0  0  0  0  0  0  0  0
   -0.2289    3.4245   -0.8771 H   0  0  0  0  0  0  0  0  0  0  0  0
    1.3087    3.4893   -0.0097 H   0  0  0  0  0  0  0  0  0  0  0  0
  1  2  1  0
  1  4  1  0
  2  3  2  3
  3  5  1  0
  6  7  1  0
  6 13  1  0
  6 14  1  0
  6 15  1  0
  7  8  2  3
  7 16  1  0
  8  9  1  0
  8 17  1  0
  9 10  1  0
  9 11  2  3
 10 18  1  0
 10 19  1  0
 10 20  1  0
 11 12  1  0
 11 21  1  0
 12 22  1  0
 12 23  1  0
 12 24  1  0
M  RAD  1   3   2
M  END
>  <reaction>  (18) 
rmg_rxn_15493

>  <mol_properties>  (18) 
{"1": {"label": "*0", "atom_type": "N3d"}, "2": {"label": "*1", "atom_type": "Cd"}, "8": {"label": "*4", "atom_type": "Cd"}, "10": {"label": "*3", "atom_type": "Cd"}, "20": {"label": "*2", "atom_type": "H0"}}

>  <type>  (18) 
unop_14

>  <geom_source>  (18) 
Heuristics

$$$$

     RDKit          3D

 24 22  0  0  0  0  0  0  0  0999 V2000
    0.9026    3.9087   -0.5261 O   0  0  0  0  0  0  0  0  0  0  0  0
    0.8752    2.5281   -0.5372 N   0  0  0  0  0  0  0  0  0  0  0  0
   -0.2536    2.0756   -0.1986 C   0  0  0  0  0  0  0  0  0  0  0  0
    1.7992    4.1152   -0.7972 H   0  0  0  0  0  0  0  0  0  0  0  0
   -1.0889    2.7206    0.0656 H   0  0  0  0  0  0  0  0  0  0  0  0
   -0.2536   -2.3522   -2.9507 C   0  0  0  0  0  0  0  0  0  0  0  0
   -0.2536   -2.3522   -1.4563 C   0  0  0  0  0  0  0  0  0  0  0  0
   -0.2536   -1.2555   -0.7021 C   0  0  0  0  0  0  0  0  0  0  0  0
   -0.2536   -1.2061    0.7642 C   0  0  0  0  0  0  0  0  0  0  0  0
   -0.2536   -2.5154    1.4990 C   0  0  0  0  0  0  0  0  0  0  0  0
   -0.2536   -0.0087    1.3608 C   0  0  0  0  0  3  0  0  0  0  0  0
   -0.2536    0.3097    2.8202 C   0  0  0  0  0  0  0  0  0  0  0  0
    0.6240   -2.8732   -3.3432 H   0  0  0  0  0  0  0  0  0  0  0  0
   -0.2536   -1.3370   -3.3501 H   0  0  0  0  0  0  0  0  0  0  0  0
   -1.1311   -2.8732   -3.3432 H   0  0  0  0  0  0  0  0  0  0  0  0
   -0.2536   -3.3288   -0.9812 H   0  0  0  0  0  0  0  0  0  0  0  0
   -0.2536   -0.2883   -1.2004 H   0  0  0  0  0  0  0  0  0  0  0  0
   -0.2536   -2.3884    2.5785 H   0  0  0  0  0  0  0  0  0  0  0  0
   -1.1326   -3.1065    1.2301 H   0  0  0  0  0  0  0  0  0  0  0  0
    0.6254   -3.1065    1.2301 H   0  0  0  0  0  0  0  0  0  0  0  0
   -0.2536    1.0362    0.5791 H   0  0  0  0  0  0  0  0  0  0  0  0
    0.6232    0.9094    3.0799 H   0  0  0  0  0  0  0  0  0  0  0  0
   -0.2536   -0.5735    3.4561 H   0  0  0  0  0  0  0  0  0  0  0  0
   -1.1303    0.9094    3.0799 H   0  0  0  0  0  0  0  0  0  0  0  0
  1  2  1  0
  1  4  1  0
  2  3  2  3
  3  5  1  0
  3 21  1  0
  6  7  1  0
  6 13  1  0
  6 14  1  0
  6 15  1  0
  7  8  2  3
  7 16  1  0
  8  9  1  0
  8 17  1  0
  9 10  1  0
  9 11  2  3
 10 18  1  0
 10 19  1  0
 10 20  1  0
 11 12  1  0
 12 22  1  0
 12 23  1  0
 12 24  1  0
M  RAD  1  11   2
M  END
>  <reaction>  (19) 
rmg_rxn_15493

>  <mol_properties>  (19) 
{"1": {"label": "*0", "atom_type": "N3d"}, "2": {"label": "*1", "atom_type": "Cd"}, "8": {"label": "*4", "atom_type": "Cd"}, "10": {"label": "*3", "atom_type": "Cd"}, "20": {"label": "*2", "atom_type": "H0"}}

>  <type>  (19) 
unop_15

>  <geom_source>  (19) 
Heuristics

$$$$

     RDKit          3D

 24 22  0  0  0  0  0  0  0  0999 V2000
   -3.7275   -0.8911   -0.0012 O   0  0  0  0  0  0  0  0  0  0  0  0
   -2.3938   -0.4188   -0.0022 N   0  0  0  0  0  0  0  0  0  0  0  0
   -2.1706    0.7973    0.0039 C   0  0  0  0  0  3  0  0  0  0  0  0
   -3.6403   -1.8539   -0.0069 H   0  0  0  0  0  0  0  0  0  0  0  0
   -2.8671    1.6270    0.0099 H   0  0  0  0  0  0  0  0  0  0  0  0
    1.4966   -3.1757    0.0015 C   0  0  0  0  0  0  0  0  0  0  0  0
    1.8796   -1.7344    0.0019 C   0  0  0  0  0  0  0  0  0  0  0  0
    0.9978   -0.7373   -0.0012 C   0  0  0  0  0  0  0  0  0  0  0  0
    1.3099    0.6875   -0.0012 C   0  0  0  0  0  0  0  0  0  0  0  0
    2.7722    1.0712   -0.0023 C   0  0  0  0  0  0  0  0  0  0  0  0
    0.3273    1.5784   -0.0001 C   0  0  0  0  0  0  0  0  0  0  0  0
    0.3059    3.0581    0.0012 C   0  0  0  0  0  0  0  0  0  0  0  0
    0.4157   -3.2912   -0.0007 H   0  0  0  0  0  0  0  0  0  0  0  0
    1.9030   -3.6756    0.8814 H   0  0  0  0  0  0  0  0  0  0  0  0
    1.9065   -3.6760   -0.8764 H   0  0  0  0  0  0  0  0  0  0  0  0
    2.9444   -1.5462    0.0047 H   0  0  0  0  0  0  0  0  0  0  0  0
   -0.0580   -0.9722   -0.0040 H   0  0  0  0  0  0  0  0  0  0  0  0
    3.2586    0.6617   -0.8859 H   0  0  0  0  0  0  0  0  0  0  0  0
    2.9013    2.1488   -0.0038 H   0  0  0  0  0  0  0  0  0  0  0  0
    3.2594    0.6642    0.8819 H   0  0  0  0  0  0  0  0  0  0  0  0
   -0.8966    1.1268    0.0011 H   0  0  0  0  0  0  0  0  0  0  0  0
   -0.2122    3.4242    0.8888 H   0  0  0  0  0  0  0  0  0  0  0  0
   -0.2330    3.4256   -0.8733 H   0  0  0  0  0  0  0  0  0  0  0  0
    1.3072    3.4897   -0.0104 H   0  0  0  0  0  0  0  0  0  0  0  0
  1  2  1  0
  1  4  1  0
  2  3  2  3
  3  5  1  0
  6  7  1  0
  6 13  1  0
  6 14  1  0
  6 15  1  0
  7  8  2  3
  7 16  1  0
  8  9  1  0
  8 17  1  0
  9 10  1  0
  9 11  2  3
 10 18  1  0
 10 19  1  0
 10 20  1  0
 11 12  1  0
 11 21  1  0
 12 22  1  0
 12 23  1  0
 12 24  1  0
M  RAD  1   3   2
M  END
>  <reaction>  (20) 
rmg_rxn_15493

>  <mol_properties>  (20) 
{"1": {"label": "*0", "atom_type": "N3d"}, "2": {"label": "*1", "atom_type": "Cd"}, "8": {"label": "*4", "atom_type": "Cd"}, "10": {"label": "*3", "atom_type": "Cd"}, "20": {"label": "*2", "atom_type": "H0"}}

>  <type>  (20) 
unop_16

>  <geom_source>  (20) 
Heuristics

$$$$

     RDKit          3D

 24 22  0  0  0  0  0  0  0  0999 V2000
    0.4117    4.1204   -0.2043 O   0  0  0  0  0  0  0  0  0  0  0  0
    0.8112    2.7987   -0.1811 N   0  0  0  0  0  0  0  0  0  0  0  0
   -0.1664    2.0081   -0.2945 C   0  0  0  0  0  0  0  0  0  0  0  0
    1.2355    4.6029   -0.1114 H   0  0  0  0  0  0  0  0  0  0  0  0
   -1.1925    2.3549   -0.3970 H   0  0  0  0  0  0  0  0  0  0  0  0
   -0.1664   -2.4197   -3.0465 C   0  0  0  0  0  0  0  0  0  0  0  0
   -0.1664   -2.4197   -1.5522 C   0  0  0  0  0  0  0  0  0  0  0  0
   -0.1664   -1.3230   -0.7980 C   0  0  0  0  0  0  0  0  0  0  0  0
   -0.1664   -1.2736    0.6683 C   0  0  0  0  0  0  0  0  0  0  0  0
   -0.1664   -2.5829    1.4031 C   0  0  0  0  0  0  0  0  0  0  0  0
   -0.1664   -0.0762    1.2650 C   0  0  0  0  0  3  0  0  0  0  0  0
   -0.1664    0.2422    2.7243 C   0  0  0  0  0  0  0  0  0  0  0  0
    0.7112   -2.9407   -3.4391 H   0  0  0  0  0  0  0  0  0  0  0  0
   -0.1664   -1.4046   -3.4459 H   0  0  0  0  0  0  0  0  0  0  0  0
   -1.0440   -2.9407   -3.4391 H   0  0  0  0  0  0  0  0  0  0  0  0
   -0.1664   -3.3963   -1.0771 H   0  0  0  0  0  0  0  0  0  0  0  0
   -0.1664   -0.3559   -1.2963 H   0  0  0  0  0  0  0  0  0  0  0  0
   -0.1664   -2.4559    2.4827 H   0  0  0  0  0  0  0  0  0  0  0  0
   -1.0454   -3.1740    1.1342 H   0  0  0  0  0  0  0  0  0  0  0  0
    0.7126   -3.1740    1.1342 H   0  0  0  0  0  0  0  0  0  0  0  0
   -0.1664    0.9686    0.4833 H   0  0  0  0  0  0  0  0  0  0  0  0
    0.7104    0.8419    2.9841 H   0  0  0  0  0  0  0  0  0  0  0  0
   -0.1664   -0.6410    3.3602 H   0  0  0  0  0  0  0  0  0  0  0  0
   -1.0432    0.8419    2.9841 H   0  0  0  0  0  0  0  0  0  0  0  0
  1  2  1  0
  1  4  1  0
  2  3  2  3
  3  5  1  0
  3 21  1  0
  6  7  1  0
  6 13  1  0
  6 14  1  0
  6 15  1  0
  7  8  2  3
  7 16  1  0
  8  9  1  0
  8 17  1  0
  9 10  1  0
  9 11  2  3
 10 18  1  0
 10 19  1  0
 10 20  1  0
 11 12  1  0
 12 22  1  0
 12 23  1  0
 12 24  1  0
M  RAD  1  11   2
M  END
>  <reaction>  (21) 
rmg_rxn_15493

>  <mol_properties>  (21) 
{"1": {"label": "*0", "atom_type": "N3d"}, "2": {"label": "*1", "atom_type": "Cd"}, "8": {"label": "*4", "atom_type": "Cd"}, "10": {"label": "*3", "atom_type": "Cd"}, "20": {"label": "*2", "atom_type": "H0"}}

>  <type>  (21) 
unop_17

>  <geom_source>  (21) 
Heuristics

$$$$

     RDKit          3D

 24 22  0  0  0  0  0  0  0  0999 V2000
   -3.7278   -0.8918   -0.0040 O   0  0  0  0  0  0  0  0  0  0  0  0
   -2.3941   -0.4192   -0.0055 N   0  0  0  0  0  0  0  0  0  0  0  0
   -2.1709    0.7967    0.0110 C   0  0  0  0  0  3  0  0  0  0  0  0
   -3.6404   -1.8545   -0.0192 H   0  0  0  0  0  0  0  0  0  0  0  0
   -2.8670    1.6266    0.0276 H   0  0  0  0  0  0  0  0  0  0  0  0
    1.4978   -3.1754    0.0033 C   0  0  0  0  0  0  0  0  0  0  0  0
    1.8804   -1.7339    0.0014 C   0  0  0  0  0  0  0  0  0  0  0  0
    0.9983   -0.7372    0.0008 C   0  0  0  0  0  0  0  0  0  0  0  0
    1.3099    0.6878   -0.0011 C   0  0  0  0  0  0  0  0  0  0  0  0
    2.7719    1.0720   -0.0052 C   0  0  0  0  0  0  0  0  0  0  0  0
    0.3268    1.5782    0.0011 C   0  0  0  0  0  0  0  0  0  0  0  0
    0.3049    3.0579   -0.0001 C   0  0  0  0  0  0  0  0  0  0  0  0
    1.9054   -3.6739    0.8833 H   0  0  0  0  0  0  0  0  0  0  0  0
    1.9068   -3.6767   -0.8745 H   0  0  0  0  0  0  0  0  0  0  0  0
    0.4170   -3.2910    0.0026 H   0  0  0  0  0  0  0  0  0  0  0  0
    2.9452   -1.5454    0.0006 H   0  0  0  0  0  0  0  0  0  0  0  0
   -0.0574   -0.9724    0.0014 H   0  0  0  0  0  0  0  0  0  0  0  0
    3.2605    0.6674    0.8795 H   0  0  0  0  0  0  0  0  0  0  0  0
    3.2573    0.6606   -0.8884 H   0  0  0  0  0  0  0  0  0  0  0  0
    2.9006    2.1498   -0.0095 H   0  0  0  0  0  0  0  0  0  0  0  0
   -0.8968    1.1263    0.0056 H   0  0  0  0  0  0  0  0  0  0  0  0
    1.3061    3.4900   -0.0039 H   0  0  0  0  0  0  0  0  0  0  0  0
   -0.2207    3.4254    0.8825 H   0  0  0  0  0  0  0  0  0  0  0  0
   -0.2268    3.4238   -0.8797 H   0  0  0  0  0  0  0  0  0  0  0  0
  1  2  1  0
  1  4  1  0
  2  3  2  3
  3  5  1  0
  6  7  1  0
  6 13  1  0
  6 14  1  0
  6 15  1  0
  7  8  2  3
  7 16  1  0
  8  9  1  0
  8 17  1  0
  9 10  1  0
  9 11  2  3
 10 18  1  0
 10 19  1  0
 10 20  1  0
 11 12  1  0
 11 21  1  0
 12 22  1  0
 12 23  1  0
 12 24  1  0
M  RAD  1   3   2
M  END
>  <reaction>  (22) 
rmg_rxn_15493

>  <mol_properties>  (22) 
{"1": {"label": "*0", "atom_type": "N3d"}, "2": {"label": "*1", "atom_type": "Cd"}, "8": {"label": "*4", "atom_type": "Cd"}, "10": {"label": "*3", "atom_type": "Cd"}, "20": {"label": "*2", "atom_type": "H0"}}

>  <type>  (22) 
unop_18

>  <geom_source>  (22) 
Heuristics

$$$$

     RDKit          3D

 24 22  0  0  0  0  0  0  0  0999 V2000
   -0.9026    3.9087   -0.5261 O   0  0  0  0  0  0  0  0  0  0  0  0
   -0.8752    2.5281   -0.5372 N   0  0  0  0  0  0  0  0  0  0  0  0
    0.2536    2.0756   -0.1986 C   0  0  0  0  0  0  0  0  0  0  0  0
   -1.7992    4.1152   -0.7972 H   0  0  0  0  0  0  0  0  0  0  0  0
    1.0889    2.7206    0.0656 H   0  0  0  0  0  0  0  0  0  0  0  0
    0.2536   -2.3522   -2.9507 C   0  0  0  0  0  0  0  0  0  0  0  0
    0.2536   -2.3522   -1.4563 C   0  0  0  0  0  0  0  0  0  0  0  0
    0.2536   -1.2555   -0.7021 C   0  0  0  0  0  0  0  0  0  0  0  0
    0.2536   -1.2061    0.7642 C   0  0  0  0  0  0  0  0  0  0  0  0
    0.2536   -2.5154    1.4990 C   0  0  0  0  0  0  0  0  0  0  0  0
    0.2536   -0.0087    1.3608 C   0  0  0  0  0  3  0  0  0  0  0  0
    0.2536    0.3097    2.8202 C   0  0  0  0  0  0  0  0  0  0  0  0
    1.1311   -2.8732   -3.3432 H   0  0  0  0  0  0  0  0  0  0  0  0
    0.2536   -1.3370   -3.3501 H   0  0  0  0  0  0  0  0  0  0  0  0
   -0.6240   -2.8732   -3.3432 H   0  0  0  0  0  0  0  0  0  0  0  0
    0.2536   -3.3288   -0.9812 H   0  0  0  0  0  0  0  0  0  0  0  0
    0.2536   -0.2883   -1.2004 H   0  0  0  0  0  0  0  0  0  0  0  0
    0.2536   -2.3884    2.5785 H   0  0  0  0  0  0  0  0  0  0  0  0
   -0.6254   -3.1065    1.2301 H   0  0  0  0  0  0  0  0  0  0  0  0
    1.1326   -3.1065    1.2301 H   0  0  0  0  0  0  0  0  0  0  0  0
    0.2536    1.0362    0.5791 H   0  0  0  0  0  0  0  0  0  0  0  0
    1.1303    0.9094    3.0799 H   0  0  0  0  0  0  0  0  0  0  0  0
    0.2536   -0.5735    3.4561 H   0  0  0  0  0  0  0  0  0  0  0  0
   -0.6232    0.9094    3.0799 H   0  0  0  0  0  0  0  0  0  0  0  0
  1  2  1  0
  1  4  1  0
  2  3  2  3
  3  5  1  0
  3 21  1  0
  6  7  1  0
  6 13  1  0
  6 14  1  0
  6 15  1  0
  7  8  2  3
  7 16  1  0
  8  9  1  0
  8 17  1  0
  9 10  1  0
  9 11  2  3
 10 18  1  0
 10 19  1  0
 10 20  1  0
 11 12  1  0
 12 22  1  0
 12 23  1  0
 12 24  1  0
M  RAD  1  11   2
M  END
>  <reaction>  (23) 
rmg_rxn_15493

>  <mol_properties>  (23) 
{"1": {"label": "*0", "atom_type": "N3d"}, "2": {"label": "*1", "atom_type": "Cd"}, "8": {"label": "*4", "atom_type": "Cd"}, "10": {"label": "*3", "atom_type": "Cd"}, "20": {"label": "*2", "atom_type": "H0"}}

>  <type>  (23) 
unop_19

>  <geom_source>  (23) 
Heuristics

$$$$

     RDKit          3D

 24 22  0  0  0  0  0  0  0  0999 V2000
   -1.6917   -1.7145   -1.0853 O   0  0  0  0  0  0  0  0  0  0  0  0
   -2.3748   -1.6258    0.0835 N   0  0  0  0  0  0  0  0  0  0  0  0
   -2.1984   -0.6933    0.8865 C   0  0  0  0  0  3  0  0  0  0  0  0
   -1.0561   -0.9786   -1.1875 H   0  0  0  0  0  0  0  0  0  0  0  0
   -2.7732   -0.6771    1.7948 H   0  0  0  0  0  0  0  0  0  0  0  0
    2.9147   -2.0015    0.2833 C   0  0  0  0  0  0  0  0  0  0  0  0
    2.4183   -0.6227    0.0119 C   0  0  0  0  0  0  0  0  0  0  0  0
    1.1740   -0.2217    0.2617 C   0  0  0  0  0  0  0  0  0  0  0  0
    0.6244    1.1086    0.0177 C   0  0  0  0  0  0  0  0  0  0  0  0
    1.5939    2.1632   -0.4630 C   0  0  0  0  0  0  0  0  0  0  0  0
   -0.6689    1.3387    0.2217 C   0  0  0  0  0  0  0  0  0  0  0  0
   -1.4980    2.5550    0.0567 C   0  0  0  0  0  0  0  0  0  0  0  0
    3.2743   -2.4609   -0.6378 H   0  0  0  0  0  0  0  0  0  0  0  0
    2.1304   -2.6265    0.7035 H   0  0  0  0  0  0  0  0  0  0  0  0
    3.7521   -1.9706    0.9810 H   0  0  0  0  0  0  0  0  0  0  0  0
    3.1468    0.0506   -0.4173 H   0  0  0  0  0  0  0  0  0  0  0  0
    0.4864   -0.9374    0.6981 H   0  0  0  0  0  0  0  0  0  0  0  0
    2.4204    2.2520    0.2396 H   0  0  0  0  0  0  0  0  0  0  0  0
    1.9951    1.8820   -1.4358 H   0  0  0  0  0  0  0  0  0  0  0  0
    1.1125    3.1316   -0.5550 H   0  0  0  0  0  0  0  0  0  0  0  0
   -1.4023    0.3325    0.6176 H   0  0  0  0  0  0  0  0  0  0  0  0
   -0.9293    3.4087   -0.3129 H   0  0  0  0  0  0  0  0  0  0  0  0
   -1.9462    2.8304    1.0126 H   0  0  0  0  0  0  0  0  0  0  0  0
   -2.3124    2.3595   -0.6431 H   0  0  0  0  0  0  0  0  0  0  0  0
  1  2  1  0
  1  4  1  0
  2  3  2  3
  3  5  1  0
  6  7  1  0
  6 13  1  0
  6 14  1  0
  6 15  1  0
  7  8  2  3
  7 16  1  0
  8  9  1  0
  8 17  1  0
  9 10  1  0
  9 11  2  3
 10 18  1  0
 10 19  1  0
 10 20  1  0
 11 12  1  0
 11 21  1  0
 12 22  1  0
 12 23  1  0
 12 24  1  0
M  RAD  1   3   2
M  END
>  <reaction>  (24) 
rmg_rxn_15493

>  <mol_properties>  (24) 
{"1": {"label": "*0", "atom_type": "N3d"}, "2": {"label": "*1", "atom_type": "Cd"}, "8": {"label": "*4", "atom_type": "Cd"}, "10": {"label": "*3", "atom_type": "Cd"}, "20": {"label": "*2", "atom_type": "H0"}}

>  <type>  (24) 
unop_20

>  <geom_source>  (24) 
Heuristics

$$$$

     RDKit          3D

 24 22  0  0  0  0  0  0  0  0999 V2000
    0.7006    3.3117   -1.6484 O   0  0  0  0  0  0  0  0  0  0  0  0
    0.4018    2.0925   -1.0727 N   0  0  0  0  0  0  0  0  0  0  0  0
   -0.1626    2.2257    0.0486 C   0  0  0  0  0  0  0  0  0  0  0  0
    1.1171    3.0694   -2.4778 H   0  0  0  0  0  0  0  0  0  0  0  0
   -0.3763    3.1987    0.4859 H   0  0  0  0  0  0  0  0  0  0  0  0
   -0.1626   -2.2021   -2.7035 C   0  0  0  0  0  0  0  0  0  0  0  0
   -0.1626   -2.2021   -1.2091 C   0  0  0  0  0  0  0  0  0  0  0  0
   -0.1626   -1.1054   -0.4549 C   0  0  0  0  0  0  0  0  0  0  0  0
   -0.1626   -1.0560    1.0113 C   0  0  0  0  0  0  0  0  0  0  0  0
   -0.1626   -2.3653    1.7462 C   0  0  0  0  0  0  0  0  0  0  0  0
   -0.1626    0.1414    1.6080 C   0  0  0  0  0  3  0  0  0  0  0  0
   -0.1626    0.4598    3.0673 C   0  0  0  0  0  0  0  0  0  0  0  0
    0.7149   -2.7231   -3.0961 H   0  0  0  0  0  0  0  0  0  0  0  0
   -0.1626   -1.1870   -3.1029 H   0  0  0  0  0  0  0  0  0  0  0  0
   -1.0402   -2.7231   -3.0961 H   0  0  0  0  0  0  0  0  0  0  0  0
   -0.1626   -3.1788   -0.7341 H   0  0  0  0  0  0  0  0  0  0  0  0
   -0.1626   -0.1383   -0.9532 H   0  0  0  0  0  0  0  0  0  0  0  0
   -0.1626   -2.2384    2.8257 H   0  0  0  0  0  0  0  0  0  0  0  0
   -1.0416   -2.9564    1.4773 H   0  0  0  0  0  0  0  0  0  0  0  0
    0.7164   -2.9564    1.4773 H   0  0  0  0  0  0  0  0  0  0  0  0
   -0.1626    1.1862    0.8263 H   0  0  0  0  0  0  0  0  0  0  0  0
    0.7141    1.0595    3.3271 H   0  0  0  0  0  0  0  0  0  0  0  0
   -0.1626   -0.4234    3.7033 H   0  0  0  0  0  0  0  0  0  0  0  0
   -1.0394    1.0595    3.3271 H   0  0  0  0  0  0  0  0  0  0  0  0
  1  2  1  0
  1  4  1  0
  2  3  2  3
  3  5  1  0
  3 21  1  0
  6  7  1  0
  6 13  1  0
  6 14  1  0
  6 15  1  0
  7  8  2  3
  7 16  1  0
  8  9  1  0
  8 17  1  0
  9 10  1  0
  9 11  2  3
 10 18  1  0
 10 19  1  0
 10 20  1  0
 11 12  1  0
 12 22  1  0
 12 23  1  0
 12 24  1  0
M  RAD  1  11   2
M  END
>  <reaction>  (25) 
rmg_rxn_15493

>  <mol_properties>  (25) 
{"1": {"label": "*0", "atom_type": "N3d"}, "2": {"label": "*1", "atom_type": "Cd"}, "8": {"label": "*4", "atom_type": "Cd"}, "10": {"label": "*3", "atom_type": "Cd"}, "20": {"label": "*2", "atom_type": "H0"}}

>  <type>  (25) 
unop_21

>  <geom_source>  (25) 
Heuristics

$$$$

     RDKit          3D

 24 22  0  0  0  0  0  0  0  0999 V2000
   -1.0394    3.5944   -1.0969 O   0  0  0  0  0  0  0  0  0  0  0  0
   -0.7209    2.2722   -0.8574 N   0  0  0  0  0  0  0  0  0  0  0  0
    0.2566    2.1579   -0.0670 C   0  0  0  0  0  0  0  0  0  0  0  0
   -1.7830    3.5380   -1.7002 H   0  0  0  0  0  0  0  0  0  0  0  0
    0.7692    3.0171    0.3603 H   0  0  0  0  0  0  0  0  0  0  0  0
    0.2566   -2.2699   -2.8191 C   0  0  0  0  0  0  0  0  0  0  0  0
    0.2566   -2.2699   -1.3247 C   0  0  0  0  0  0  0  0  0  0  0  0
    0.2566   -1.1732   -0.5705 C   0  0  0  0  0  0  0  0  0  0  0  0
    0.2566   -1.1238    0.8958 C   0  0  0  0  0  0  0  0  0  0  0  0
    0.2566   -2.4331    1.6306 C   0  0  0  0  0  0  0  0  0  0  0  0
    0.2566    0.0736    1.4924 C   0  0  0  0  0  3  0  0  0  0  0  0
    0.2566    0.3920    2.9518 C   0  0  0  0  0  0  0  0  0  0  0  0
    1.1342   -2.7909   -3.2116 H   0  0  0  0  0  0  0  0  0  0  0  0
    0.2566   -1.2548   -3.2185 H   0  0  0  0  0  0  0  0  0  0  0  0
   -0.6209   -2.7909   -3.2116 H   0  0  0  0  0  0  0  0  0  0  0  0
    0.2566   -3.2466   -0.8496 H   0  0  0  0  0  0  0  0  0  0  0  0
    0.2566   -0.2061   -1.0688 H   0  0  0  0  0  0  0  0  0  0  0  0
    0.2566   -2.3062    2.7102 H   0  0  0  0  0  0  0  0  0  0  0  0
   -0.6224   -3.0242    1.3617 H   0  0  0  0  0  0  0  0  0  0  0  0
    1.1356   -3.0242    1.3617 H   0  0  0  0  0  0  0  0  0  0  0  0
    0.2566    1.1184    0.7107 H   0  0  0  0  0  0  0  0  0  0  0  0
    1.1334    0.9917    3.2116 H   0  0  0  0  0  0  0  0  0  0  0  0
    0.2566   -0.4912    3.5877 H   0  0  0  0  0  0  0  0  0  0  0  0
   -0.6201    0.9917    3.2116 H   0  0  0  0  0  0  0  0  0  0  0  0
  1  2  1  0
  1  4  1  0
  2  3  2  3
  3  5  1  0
  3 21  1  0
  6  7  1  0
  6 13  1  0
  6 14  1  0
  6 15  1  0
  7  8  2  3
  7 16  1  0
  8  9  1  0
  8 17  1  0
  9 10  1  0
  9 11  2  3
 10 18  1  0
 10 19  1  0
 10 20  1  0
 11 12  1  0
 12 22  1  0
 12 23  1  0
 12 24  1  0
M  RAD  1  11   2
M  END
>  <reaction>  (26) 
rmg_rxn_15493

>  <mol_properties>  (26) 
{"1": {"label": "*0", "atom_type": "N3d"}, "2": {"label": "*1", "atom_type": "Cd"}, "8": {"label": "*4", "atom_type": "Cd"}, "10": {"label": "*3", "atom_type": "Cd"}, "20": {"label": "*2", "atom_type": "H0"}}

>  <type>  (26) 
unop_22

>  <geom_source>  (26) 
Heuristics

$$$$

     RDKit          3D

 24 22  0  0  0  0  0  0  0  0999 V2000
   -0.0959    4.1657   -0.3198 O   0  0  0  0  0  0  0  0  0  0  0  0
    0.5163    3.0125    0.1301 N   0  0  0  0  0  0  0  0  0  0  0  0
   -0.0481    1.9744   -0.3141 C   0  0  0  0  0  0  0  0  0  0  0  0
    0.4223    4.8644    0.0845 H   0  0  0  0  0  0  0  0  0  0  0  0
   -0.9135    2.0132   -0.9724 H   0  0  0  0  0  0  0  0  0  0  0  0
   -0.0481   -2.4533   -3.0662 C   0  0  0  0  0  0  0  0  0  0  0  0
   -0.0481   -2.4533   -1.5718 C   0  0  0  0  0  0  0  0  0  0  0  0
   -0.0481   -1.3567   -0.8176 C   0  0  0  0  0  0  0  0  0  0  0  0
   -0.0481   -1.3073    0.6486 C   0  0  0  0  0  0  0  0  0  0  0  0
   -0.0481   -2.6166    1.3835 C   0  0  0  0  0  0  0  0  0  0  0  0
   -0.0481   -0.1099    1.2453 C   0  0  0  0  0  3  0  0  0  0  0  0
   -0.0481    0.2085    2.7046 C   0  0  0  0  0  0  0  0  0  0  0  0
    0.8295   -2.9744   -3.4588 H   0  0  0  0  0  0  0  0  0  0  0  0
   -0.0481   -1.4382   -3.4656 H   0  0  0  0  0  0  0  0  0  0  0  0
   -0.9257   -2.9744   -3.4588 H   0  0  0  0  0  0  0  0  0  0  0  0
   -0.0481   -3.4300   -1.0968 H   0  0  0  0  0  0  0  0  0  0  0  0
   -0.0481   -0.3895   -1.3159 H   0  0  0  0  0  0  0  0  0  0  0  0
   -0.0481   -2.4896    2.4630 H   0  0  0  0  0  0  0  0  0  0  0  0
   -0.9271   -3.2077    1.1146 H   0  0  0  0  0  0  0  0  0  0  0  0
    0.8309   -3.2077    1.1146 H   0  0  0  0  0  0  0  0  0  0  0  0
   -0.0481    0.9350    0.4636 H   0  0  0  0  0  0  0  0  0  0  0  0
    0.8287    0.8082    2.9644 H   0  0  0  0  0  0  0  0  0  0  0  0
   -0.0481   -0.6747    3.3406 H   0  0  0  0  0  0  0  0  0  0  0  0
   -0.9249    0.8082    2.9644 H   0  0  0  0  0  0  0  0  0  0  0  0
  1  2  1  0
  1  4  1  0
  2  3  2  3
  3  5  1  0
  3 21  1  0
  6  7  1  0
  6 13  1  0
  6 14  1  0
  6 15  1  0
  7  8  2  3
  7 16  1  0
  8  9  1  0
  8 17  1  0
  9 10  1  0
  9 11  2  3
 10 18  1  0
 10 19  1  0
 10 20  1  0
 11 12  1  0
 12 22  1  0
 12 23  1  0
 12 24  1  0
M  RAD  1  11   2
M  END
>  <reaction>  (27) 
rmg_rxn_15493

>  <mol_properties>  (27) 
{"1": {"label": "*0", "atom_type": "N3d"}, "2": {"label": "*1", "atom_type": "Cd"}, "8": {"label": "*4", "atom_type": "Cd"}, "10": {"label": "*3", "atom_type": "Cd"}, "20": {"label": "*2", "atom_type": "H0"}}

>  <type>  (27) 
unop_23

>  <geom_source>  (27) 
Heuristics

$$$$

     RDKit          3D

 24 22  0  0  0  0  0  0  0  0999 V2000
   -0.0000    3.1973   -1.8821 O   0  0  0  0  0  0  0  0  0  0  0  0
    0.0000    2.0283   -1.1469 N   0  0  0  0  0  0  0  0  0  0  0  0
    0.0000    2.2521    0.0954 C   0  0  0  0  0  0  0  0  0  0  0  0
   -0.0000    2.8884   -2.7902 H   0  0  0  0  0  0  0  0  0  0  0  0
    0.0000    3.2578    0.5104 H   0  0  0  0  0  0  0  0  0  0  0  0
   -0.0000   -2.1757   -2.6566 C   0  0  0  0  0  0  0  0  0  0  0  0
   -0.0000   -2.1757   -1.1623 C   0  0  0  0  0  0  0  0  0  0  0  0
   -0.0000   -1.0790   -0.4081 C   0  0  0  0  0  0  0  0  0  0  0  0
    0.0000   -1.0296    1.0582 C   0  0  0  0  0  0  0  0  0  0  0  0
   -0.0000   -2.3389    1.7930 C   0  0  0  0  0  0  0  0  0  0  0  0
    0.0000    0.1678    1.6549 C   0  0  0  0  0  3  0  0  0  0  0  0
    0.0000    0.4861    3.1142 C   0  0  0  0  0  0  0  0  0  0  0  0
    0.8776   -2.6967   -3.0492 H   0  0  0  0  0  0  0  0  0  0  0  0
    0.0000   -1.1606   -3.0560 H   0  0  0  0  0  0  0  0  0  0  0  0
   -0.8776   -2.6967   -3.0492 H   0  0  0  0  0  0  0  0  0  0  0  0
   -0.0000   -3.1524   -0.6872 H   0  0  0  0  0  0  0  0  0  0  0  0
    0.0000   -0.1119   -0.9064 H   0  0  0  0  0  0  0  0  0  0  0  0
   -0.0000   -2.2120    2.8726 H   0  0  0  0  0  0  0  0  0  0  0  0
   -0.8790   -2.9300    1.5241 H   0  0  0  0  0  0  0  0  0  0  0  0
    0.8790   -2.9300    1.5241 H   0  0  0  0  0  0  0  0  0  0  0  0
    0.0000    1.2126    0.8732 H   0  0  0  0  0  0  0  0  0  0  0  0
    0.8768    1.0858    3.3740 H   0  0  0  0  0  0  0  0  0  0  0  0
   -0.0000   -0.3970    3.7502 H   0  0  0  0  0  0  0  0  0  0  0  0
   -0.8768    1.0858    3.3740 H   0  0  0  0  0  0  0  0  0  0  0  0
  1  2  1  0
  1  4  1  0
  2  3  2  3
  3  5  1  0
  3 21  1  0
  6  7  1  0
  6 13  1  0
  6 14  1  0
  6 15  1  0
  7  8  2  3
  7 16  1  0
  8  9  1  0
  8 17  1  0
  9 10  1  0
  9 11  2  3
 10 18  1  0
 10 19  1  0
 10 20  1  0
 11 12  1  0
 12 22  1  0
 12 23  1  0
 12 24  1  0
M  RAD  1  11   2
M  END
>  <reaction>  (28) 
rmg_rxn_15493

>  <mol_properties>  (28) 
{"1": {"label": "*0", "atom_type": "N3d"}, "2": {"label": "*1", "atom_type": "Cd"}, "8": {"label": "*4", "atom_type": "Cd"}, "10": {"label": "*3", "atom_type": "Cd"}, "20": {"label": "*2", "atom_type": "H0"}}

>  <type>  (28) 
unop_24

>  <geom_source>  (28) 
Heuristics

$$$$

     RDKit          3D

 24 22  0  0  0  0  0  0  0  0999 V2000
   -3.7274   -0.8903    0.0007 O   0  0  0  0  0  0  0  0  0  0  0  0
   -2.3937   -0.4177    0.0017 N   0  0  0  0  0  0  0  0  0  0  0  0
   -2.1704    0.7983   -0.0023 C   0  0  0  0  0  3  0  0  0  0  0  0
   -3.6399   -1.8531    0.0045 H   0  0  0  0  0  0  0  0  0  0  0  0
   -2.8662    1.6286   -0.0066 H   0  0  0  0  0  0  0  0  0  0  0  0
    1.4947   -3.1762   -0.0011 C   0  0  0  0  0  0  0  0  0  0  0  0
    1.8787   -1.7351   -0.0015 C   0  0  0  0  0  0  0  0  0  0  0  0
    0.9975   -0.7376    0.0009 C   0  0  0  0  0  0  0  0  0  0  0  0
    1.3102    0.6871    0.0008 C   0  0  0  0  0  0  0  0  0  0  0  0
    2.7726    1.0702    0.0022 C   0  0  0  0  0  0  0  0  0  0  0  0
    0.3278    1.5783   -0.0006 C   0  0  0  0  0  0  0  0  0  0  0  0
    0.3072    3.0580   -0.0011 C   0  0  0  0  0  0  0  0  0  0  0  0
    0.4138   -3.2909    0.0026 H   0  0  0  0  0  0  0  0  0  0  0  0
    1.9057   -3.6771    0.8760 H   0  0  0  0  0  0  0  0  0  0  0  0
    1.8995   -3.6760   -0.8817 H   0  0  0  0  0  0  0  0  0  0  0  0
    2.9436   -1.5476   -0.0041 H   0  0  0  0  0  0  0  0  0  0  0  0
   -0.0584   -0.9719    0.0028 H   0  0  0  0  0  0  0  0  0  0  0  0
    2.9021    2.1478    0.0076 H   0  0  0  0  0  0  0  0  0  0  0  0
    3.2594    0.6574    0.8839 H   0  0  0  0  0  0  0  0  0  0  0  0
    3.2590    0.6661   -0.8839 H   0  0  0  0  0  0  0  0  0  0  0  0
   -0.8961    1.1273   -0.0009 H   0  0  0  0  0  0  0  0  0  0  0  0
   -0.2305    3.4247   -0.8767 H   0  0  0  0  0  0  0  0  0  0  0  0
    1.3087    3.4893   -0.0120 H   0  0  0  0  0  0  0  0  0  0  0  0
   -0.2119    3.4256    0.8854 H   0  0  0  0  0  0  0  0  0  0  0  0
  1  2  1  0
  1  4  1  0
  2  3  2  3
  3  5  1  0
  6  7  1  0
  6 13  1  0
  6 14  1  0
  6 15  1  0
  7  8  2  3
  7 16  1  0
  8  9  1  0
  8 17  1  0
  9 10  1  0
  9 11  2  3
 10 18  1  0
 10 19  1  0
 10 20  1  0
 11 12  1  0
 11 21  1  0
 12 22  1  0
 12 23  1  0
 12 24  1  0
M  RAD  1   3   2
M  END
>  <reaction>  (29) 
rmg_rxn_15493

>  <mol_properties>  (29) 
{"1": {"label": "*0", "atom_type": "N3d"}, "2": {"label": "*1", "atom_type": "Cd"}, "8": {"label": "*4", "atom_type": "Cd"}, "10": {"label": "*3", "atom_type": "Cd"}, "20": {"label": "*2", "atom_type": "H0"}}

>  <type>  (29) 
unop_25

>  <geom_source>  (29) 
Heuristics

$$$$

     RDKit          3D

 24 22  0  0  0  0  0  0  0  0999 V2000
    4.5930   -1.3617   -1.1941 O   0  0  0  0  0  0  0  0  0  0  0  0
    3.2535   -1.0546   -1.0822 N   0  0  0  0  0  0  0  0  0  0  0  0
   -1.3839   -0.0263    1.6012 C   0  0  0  0  0  0  0  0  0  0  0  0
   -3.2844   -0.4188   -0.8998 C   0  0  0  0  0  0  0  0  0  0  0  0
    0.9626    1.7750    1.1977 C   0  0  0  0  0  0  0  0  0  0  0  0
   -0.5452   -0.0475    0.3488 C   0  0  0  0  0  0  0  0  0  0  0  0
   -2.0545   -1.1817   -1.2901 C   0  0  0  0  0  0  0  0  0  0  0  0
   -0.8424   -0.9904   -0.7499 C   0  0  0  0  0  0  0  0  0  0  0  0
    2.8522    0.0948   -0.6430 C   0  0  0  0  0  0  0  0  0  0  0  0
    0.5095    0.7621    0.1939 C   0  0  0  0  0  3  0  0  0  0  0  0
   -1.9564   -0.9715    1.7031 H   0  0  0  0  0  0  0  0  0  0  0  0
   -0.7452    0.0592    2.5049 H   0  0  0  0  0  0  0  0  0  0  0  0
   -2.0872    0.8319    1.5697 H   0  0  0  0  0  0  0  0  0  0  0  0
   -3.6439   -0.7441    0.0969 H   0  0  0  0  0  0  0  0  0  0  0  0
   -3.0777    0.6723   -0.8952 H   0  0  0  0  0  0  0  0  0  0  0  0
   -4.0913   -0.6188   -1.6355 H   0  0  0  0  0  0  0  0  0  0  0  0
    1.8118    2.3487    0.7733 H   0  0  0  0  0  0  0  0  0  0  0  0
    1.3042    1.2696    2.1250 H   0  0  0  0  0  0  0  0  0  0  0  0
    0.1364    2.4787    1.4324 H   0  0  0  0  0  0  0  0  0  0  0  0
   -2.1383   -1.8736   -2.1196 H   0  0  0  0  0  0  0  0  0  0  0  0
   -0.0053   -1.5100   -1.2018 H   0  0  0  0  0  0  0  0  0  0  0  0
    3.5635    0.8558   -0.3479 H   0  0  0  0  0  0  0  0  0  0  0  0
    1.5556    0.3473   -0.5519 H   0  0  0  0  0  0  0  0  0  0  0  0
    5.3135   -0.6964   -0.9356 H   0  0  0  0  0  0  0  0  0  0  0  0
  1  2  1  0
  1 24  1  0
  2  9  2  3
  3  6  1  0
  3 11  1  0
  3 12  1  0
  3 13  1  0
  4  7  1  0
  4 14  1  0
  4 15  1  0
  4 16  1  0
  5 10  1  0
  5 17  1  0
  5 18  1  0
  5 19  1  0
  6 10  2  3
  6  8  1  0
  7  8  2  3
  7 20  1  0
  8 21  1  0
  9 22  1  0
  9 23  1  0
M  RAD  1  10   2
M  END
>  <reaction>  (30) 
rmg_rxn_15493

>  <mol_properties>  (30) 
{"1": {"label": "*0", "atom_type": "N3d"}, "2": {"label": "*1", "atom_type": "Cd"}, "8": {"label": "*4", "atom_type": "Cd"}, "10": {"label": "*3", "atom_type": "Cd"}, "20": {"label": "*2", "atom_type": "H0"}}

>  <type>  (30) 
unop_26

>  <geom_source>  (30) 
AutoTST

$$$$

     RDKit          3D

 24 22  0  0  0  0  0  0  0  0999 V2000
   -0.7006    3.3117   -1.6484 O   0  0  0  0  0  0  0  0  0  0  0  0
   -0.4018    2.0925   -1.0727 N   0  0  0  0  0  0  0  0  0  0  0  0
    0.1626    2.2257    0.0486 C   0  0  0  0  0  0  0  0  0  0  0  0
   -1.1171    3.0694   -2.4778 H   0  0  0  0  0  0  0  0  0  0  0  0
    0.3763    3.1987    0.4859 H   0  0  0  0  0  0  0  0  0  0  0  0
    0.1626   -2.2021   -2.7035 C   0  0  0  0  0  0  0  0  0  0  0  0
    0.1626   -2.2021   -1.2091 C   0  0  0  0  0  0  0  0  0  0  0  0
    0.1626   -1.1054   -0.4549 C   0  0  0  0  0  0  0  0  0  0  0  0
    0.1626   -1.0560    1.0113 C   0  0  0  0  0  0  0  0  0  0  0  0
    0.1626   -2.3653    1.7462 C   0  0  0  0  0  0  0  0  0  0  0  0
    0.1626    0.1414    1.6080 C   0  0  0  0  0  3  0  0  0  0  0  0
    0.1626    0.4598    3.0673 C   0  0  0  0  0  0  0  0  0  0  0  0
    1.0402   -2.7231   -3.0961 H   0  0  0  0  0  0  0  0  0  0  0  0
    0.1626   -1.1870   -3.1029 H   0  0  0  0  0  0  0  0  0  0  0  0
   -0.7149   -2.7231   -3.0961 H   0  0  0  0  0  0  0  0  0  0  0  0
    0.1626   -3.1787   -0.7341 H   0  0  0  0  0  0  0  0  0  0  0  0
    0.1626   -0.1383   -0.9532 H   0  0  0  0  0  0  0  0  0  0  0  0
    0.1626   -2.2384    2.8257 H   0  0  0  0  0  0  0  0  0  0  0  0
   -0.7164   -2.9564    1.4773 H   0  0  0  0  0  0  0  0  0  0  0  0
    1.0416   -2.9564    1.4773 H   0  0  0  0  0  0  0  0  0  0  0  0
    0.1626    1.1862    0.8263 H   0  0  0  0  0  0  0  0  0  0  0  0
    1.0394    1.0595    3.3271 H   0  0  0  0  0  0  0  0  0  0  0  0
    0.1626   -0.4234    3.7033 H   0  0  0  0  0  0  0  0  0  0  0  0
   -0.7141    1.0595    3.3271 H   0  0  0  0  0  0  0  0  0  0  0  0
  1  2  1  0
  1  4  1  0
  2  3  2  3
  3  5  1  0
  3 21  1  0
  6  7  1  0
  6 13  1  0
  6 14  1  0
  6 15  1  0
  7  8  2  3
  7 16  1  0
  8  9  1  0
  8 17  1  0
  9 10  1  0
  9 11  2  3
 10 18  1  0
 10 19  1  0
 10 20  1  0
 11 12  1  0
 12 22  1  0
 12 23  1  0
 12 24  1  0
M  RAD  1  11   2
M  END
>  <reaction>  (31) 
rmg_rxn_15493

>  <mol_properties>  (31) 
{"1": {"label": "*0", "atom_type": "N3d"}, "2": {"label": "*1", "atom_type": "Cd"}, "8": {"label": "*4", "atom_type": "Cd"}, "10": {"label": "*3", "atom_type": "Cd"}, "20": {"label": "*2", "atom_type": "H0"}}

>  <type>  (31) 
unop_27

>  <geom_source>  (31) 
gaussian_log

$$$$
