
     RDKit          3D

 18 17  0  0  0  0  0  0  0  0999 V2000
    2.2026   -0.7213   -0.2612 C   0  0  0  0  0  0  0  0  0  0  0  0
    1.5384    0.2638    0.6915 C   0  0  0  0  0  0  0  0  0  0  0  0
    2.2584    1.5946    0.7694 C   0  0  0  0  0  0  0  0  0  0  0  0
    2.2212    2.2185   -0.4893 O   0  0  0  0  0  0  0  0  0  0  0  0
    2.8988    3.4488   -0.5204 C   0  0  0  0  0  0  0  0  0  0  0  0
    2.7981    4.0296   -1.9118 C   0  0  0  0  0  0  0  0  0  0  0  0
    3.2294   -0.9309    0.0486 H   0  0  0  0  0  0  0  0  0  0  0  0
    2.2338   -0.3181   -1.2734 H   0  0  0  0  0  0  0  0  0  0  0  0
    1.6610   -1.6680   -0.2875 H   0  0  0  0  0  0  0  0  0  0  0  0
    1.4990   -0.1566    1.7002 H   0  0  0  0  0  0  0  0  0  0  0  0
    0.5055    0.4455    0.3835 H   0  0  0  0  0  0  0  0  0  0  0  0
    3.3038    1.4410    1.0808 H   0  0  0  0  0  0  0  0  0  0  0  0
    1.7844    2.2410    1.5226 H   0  0  0  0  0  0  0  0  0  0  0  0
    2.4596    4.1376    0.2164 H   0  0  0  0  0  0  0  0  0  0  0  0
    3.9524    3.3035   -0.2397 H   0  0  0  0  0  0  0  0  0  0  0  0
    1.7543    4.1869   -2.1856 H   0  0  0  0  0  0  0  0  0  0  0  0
    3.2472    3.3545   -2.6411 H   0  0  0  0  0  0  0  0  0  0  0  0
    3.3178    4.9878   -1.9600 H   0  0  0  0  0  0  0  0  0  0  0  0
  1  2  1  0
  1  7  1  0
  1  8  1  0
  1  9  1  0
  2  3  1  0
  2 10  1  0
  2 11  1  0
  3  4  1  0
  3 12  1  0
  3 13  1  0
  4  5  1  0
  5  6  1  0
  5 14  1  0
  5 15  1  0
  6 16  1  0
  6 17  1  0
  6 18  1  0
M  END
>  <reaction>  (1) 
rmg_rxn_288

>  <mol_properties>  (1) 
{"4": {"label": "donator", "atom_type": "Cs"}, "13": {"label": "d_hydrogen", "atom_type": "H0"}}

>  <type>  (1) 
r1h

$$$$

     RDKit          3D

  8  7  0  0  0  0  0  0  0  0999 V2000
   -1.0336    0.3440   -0.0356 C   0  0  0  0  0  3  0  0  0  0  0  0
    0.1991   -0.4326   -0.0698 C   0  0  0  0  0  0  0  0  0  0  0  0
    0.9631   -0.0368    1.2269 N   0  0  0  0  0  0  0  0  0  0  0  0
    0.8138   -0.8074    2.1160 O   0  0  0  0  0  0  0  0  0  0  0  0
   -1.0668    1.3490   -0.4321 H   0  0  0  0  0  0  0  0  0  0  0  0
   -1.8598    0.0102    0.5774 H   0  0  0  0  0  0  0  0  0  0  0  0
    0.0447   -1.5108   -0.0264 H   0  0  0  0  0  0  0  0  0  0  0  0
    0.8639   -0.1518   -0.8851 H   0  0  0  0  0  0  0  0  0  0  0  0
  1  2  1  0
  1  5  1  0
  1  6  1  0
  2  3  1  0
  2  7  1  0
  2  8  1  0
  3  4  2  0
M  RAD  1   1   2
M  END
>  <reaction>  (2) 
rmg_rxn_288

>  <mol_properties>  (2) 
{"0": {"label": "acceptor", "atom_type": "Cs"}}

>  <type>  (2) 
r2

$$$$

     RDKit          3D

  9  8  0  0  0  0  0  0  0  0999 V2000
   -1.0314    0.2323   -0.1227 C   0  0  0  0  0  0  0  0  0  0  0  0
    0.3094   -0.4511    0.0063 C   0  0  0  0  0  0  0  0  0  0  0  0
    0.3197   -1.7698    0.6841 N   0  0  0  0  0  0  0  0  0  0  0  0
   -0.7498   -2.1455    1.0557 O   0  0  0  0  0  0  0  0  0  0  0  0
   -1.4744    0.4198    0.8552 H   0  0  0  0  0  0  0  0  0  0  0  0
   -0.9073    1.1865   -0.6350 H   0  0  0  0  0  0  0  0  0  0  0  0
   -1.7319   -0.3778   -0.6927 H   0  0  0  0  0  0  0  0  0  0  0  0
    1.0375    0.1401    0.5713 H   0  0  0  0  0  0  0  0  0  0  0  0
    0.7826   -0.6494   -0.9609 H   0  0  0  0  0  0  0  0  0  0  0  0
  1  2  1  0
  1  5  1  0
  1  6  1  0
  1  7  1  0
  2  3  1  0
  2  8  1  0
  2  9  1  0
  3  4  2  0
M  END
>  <reaction>  (3) 
rmg_rxn_288

>  <mol_properties>  (3) 
{"0": {"label": "acceptor", "atom_type": "Cs"}, "8": {"label": "a_hydrogen", "atom_type": "H0"}}

>  <type>  (3) 
r2h

$$$$

     RDKit          3D

 26 24  0  0  0  0  0  0  0  0999 V2000
    0.1430    0.6624    1.5012 C   0  0  0  0  0  3  0  0  0  0  0  0
   -0.6803    1.8151    1.9611 C   0  0  0  0  0  0  0  0  0  0  0  0
   -0.8284    2.0167    3.4404 N   0  0  0  0  0  0  0  0  0  0  0  0
   -0.2605    1.2158    4.1138 O   0  0  0  0  0  0  0  0  0  0  0  0
    1.2023    0.7263    1.7359 H   0  0  0  0  0  0  0  0  0  0  0  0
   -0.2696   -0.3189    1.7210 H   0  0  0  0  0  0  0  0  0  0  0  0
   -0.2963    2.7814    1.6165 H   0  0  0  0  0  0  0  0  0  0  0  0
   -1.7168    1.7666    1.6108 H   0  0  0  0  0  0  0  0  0  0  0  0
    0.6166   -2.9093   -3.3512 C   0  0  0  0  0  0  0  0  0  0  0  0
    0.8870   -2.8162   -1.8555 C   0  0  0  0  0  0  0  0  0  0  0  0
    1.0775   -1.3948   -1.3707 C   0  0  0  0  0  0  0  0  0  0  0  0
   -0.1167   -0.6689   -1.5770 O   0  0  0  0  0  0  0  0  0  0  0  0
   -0.0398    0.6584   -1.2107 C   0  0  0  0  0  0  0  0  0  0  0  0
   -1.3118    1.3844   -1.5380 C   0  0  0  0  0  0  0  0  0  0  0  0
    1.4437   -2.4834   -3.9244 H   0  0  0  0  0  0  0  0  0  0  0  0
   -0.2902   -2.3654   -3.6159 H   0  0  0  0  0  0  0  0  0  0  0  0
    0.4935   -3.9474   -3.6627 H   0  0  0  0  0  0  0  0  0  0  0  0
    1.7891   -3.3785   -1.6001 H   0  0  0  0  0  0  0  0  0  0  0  0
    0.0644   -3.2677   -1.2951 H   0  0  0  0  0  0  0  0  0  0  0  0
    1.8994   -0.9102   -1.9179 H   0  0  0  0  0  0  0  0  0  0  0  0
    1.3344   -1.3818   -0.3041 H   0  0  0  0  0  0  0  0  0  0  0  0
    0.1001    0.7049    0.0734 H   0  0  0  0  0  0  0  0  0  0  0  0
    0.8649    1.1463   -1.5976 H   0  0  0  0  0  0  0  0  0  0  0  0
   -2.1606    0.9055   -1.0467 H   0  0  0  0  0  0  0  0  0  0  0  0
   -1.4994    1.3846   -2.6145 H   0  0  0  0  0  0  0  0  0  0  0  0
   -1.2523    2.4199   -1.1996 H   0  0  0  0  0  0  0  0  0  0  0  0
  1  2  1  0
  1  5  1  0
  1  6  1  0
  2  3  1  0
  2  7  1  0
  2  8  1  0
  3  4  2  0
  9 10  1  0
  9 15  1  0
  9 16  1  0
  9 17  1  0
 10 11  1  0
 10 18  1  0
 10 19  1  0
 11 12  1  0
 11 20  1  0
 11 21  1  0
 12 13  1  0
 13 14  1  0
 13 22  1  0
 13 23  1  0
 14 24  1  0
 14 25  1  0
 14 26  1  0
M  RAD  1   1   2
M  END
>  <reaction>  (4) 
rmg_rxn_288

>  <mol_properties>  (4) 
{"0": {"label": "*3", "atom_type": "Cs"}, "1": {"label": "*4", "atom_type": "Cs"}, "11": {"label": "*0", "atom_type": "O2s"}, "12": {"label": "*1", "atom_type": "Cs"}, "21": {"label": "*2", "atom_type": "H0"}}

>  <type>  (4) 
ts

$$$$

     RDKit          3D

 26 24  0  0  0  0  0  0  0  0999 V2000
   -0.3626    0.5300    1.5514 C   0  0  0  0  0  0  0  0  0  0  0  0
    0.8411    1.3342    1.9827 C   0  0  0  0  0  0  0  0  0  0  0  0
    0.6740    2.1863    3.1846 N   0  0  0  0  0  0  0  0  0  0  0  0
   -0.4097    2.1378    3.6809 O   0  0  0  0  0  0  0  0  0  0  0  0
   -0.6800   -0.1566    2.3360 H   0  0  0  0  0  0  0  0  0  0  0  0
   -1.2065    1.1783    1.3165 H   0  0  0  0  0  0  0  0  0  0  0  0
    1.7084    0.7101    2.2219 H   0  0  0  0  0  0  0  0  0  0  0  0
    1.1872    2.0314    1.2127 H   0  0  0  0  0  0  0  0  0  0  0  0
    0.7305   -2.8515   -3.3037 C   0  0  0  0  0  0  0  0  0  0  0  0
    0.7305   -2.8515   -1.7808 C   0  0  0  0  0  0  0  0  0  0  0  0
    0.7305   -1.4584   -1.1853 C   0  0  0  0  0  0  0  0  0  0  0  0
   -0.4525   -0.7948   -1.5529 O   0  0  0  0  0  0  0  0  0  0  0  0
   -0.5232    0.5232   -1.0720 C   0  0  0  0  0  3  0  0  0  0  0  0
   -1.8266    1.1410   -1.5228 C   0  0  0  0  0  0  0  0  0  0  0  0
    1.6126   -2.3372   -3.6934 H   0  0  0  0  0  0  0  0  0  0  0  0
   -0.1522   -2.3418   -3.6898 H   0  0  0  0  0  0  0  0  0  0  0  0
    0.7360   -3.8694   -3.6964 H   0  0  0  0  0  0  0  0  0  0  0  0
    1.6120   -3.3780   -1.4045 H   0  0  0  0  0  0  0  0  0  0  0  0
   -0.1439   -3.3895   -1.4055 H   0  0  0  0  0  0  0  0  0  0  0  0
    1.6047   -0.8934   -1.5457 H   0  0  0  0  0  0  0  0  0  0  0  0
    0.8053   -1.5124   -0.0893 H   0  0  0  0  0  0  0  0  0  0  0  0
   -0.4425    0.5266    0.2457 H   0  0  0  0  0  0  0  0  0  0  0  0
    0.3296    1.1062   -1.4499 H   0  0  0  0  0  0  0  0  0  0  0  0
   -2.6729    0.5716   -1.1372 H   0  0  0  0  0  0  0  0  0  0  0  0
   -1.8874    1.1529   -2.6117 H   0  0  0  0  0  0  0  0  0  0  0  0
   -1.9042    2.1670   -1.1598 H   0  0  0  0  0  0  0  0  0  0  0  0
  1  2  1  0
  1  5  1  0
  1  6  1  0
  1 22  1  0
  2  3  1  0
  2  7  1  0
  2  8  1  0
  3  4  2  0
  9 10  1  0
  9 15  1  0
  9 16  1  0
  9 17  1  0
 10 11  1  0
 10 18  1  0
 10 19  1  0
 11 12  1  0
 11 20  1  0
 11 21  1  0
 12 13  1  0
 13 14  1  0
 13 23  1  0
 14 24  1  0
 14 25  1  0
 14 26  1  0
M  RAD  1  13   2
M  END
>  <reaction>  (5) 
rmg_rxn_288

>  <mol_properties>  (5) 
{"0": {"label": "*3", "atom_type": "Cs"}, "1": {"label": "*4", "atom_type": "Cs"}, "11": {"label": "*0", "atom_type": "O2s"}, "12": {"label": "*1", "atom_type": "Cs"}, "21": {"label": "*2", "atom_type": "H0"}}

>  <type>  (5) 
unop_1

>  <geom_source>  (5) 
Heuristics

$$$$

     RDKit          3D

 26 24  0  0  0  0  0  0  0  0999 V2000
   -0.4831    1.1733    1.4956 C   0  0  0  0  0  0  0  0  0  0  0  0
    0.3494   -0.0004    1.9548 C   0  0  0  0  0  0  0  0  0  0  0  0
    0.8908    0.0689    3.3334 N   0  0  0  0  0  0  0  0  0  0  0  0
    0.6019    1.0600    3.9312 O   0  0  0  0  0  0  0  0  0  0  0  0
   -1.3584    1.3086    2.1307 H   0  0  0  0  0  0  0  0  0  0  0  0
    0.0918    2.0988    1.5215 H   0  0  0  0  0  0  0  0  0  0  0  0
   -0.2001   -0.9473    1.9358 H   0  0  0  0  0  0  0  0  0  0  0  0
    1.2353   -0.1651    1.3328 H   0  0  0  0  0  0  0  0  0  0  0  0
    0.6099   -2.2082   -3.3595 C   0  0  0  0  0  0  0  0  0  0  0  0
    0.6099   -2.2082   -1.8366 C   0  0  0  0  0  0  0  0  0  0  0  0
    0.6099   -0.8152   -1.2411 C   0  0  0  0  0  0  0  0  0  0  0  0
   -0.5731   -0.1516   -1.6087 O   0  0  0  0  0  0  0  0  0  0  0  0
   -0.6438    1.1665   -1.1278 C   0  0  0  0  0  3  0  0  0  0  0  0
   -1.9471    1.7843   -1.5786 C   0  0  0  0  0  0  0  0  0  0  0  0
    1.4920   -1.6939   -3.7491 H   0  0  0  0  0  0  0  0  0  0  0  0
   -0.2728   -1.6985   -3.7456 H   0  0  0  0  0  0  0  0  0  0  0  0
    0.6154   -3.2261   -3.7522 H   0  0  0  0  0  0  0  0  0  0  0  0
    1.4915   -2.7347   -1.4603 H   0  0  0  0  0  0  0  0  0  0  0  0
   -0.2644   -2.7462   -1.4613 H   0  0  0  0  0  0  0  0  0  0  0  0
    1.4841   -0.2501   -1.6015 H   0  0  0  0  0  0  0  0  0  0  0  0
    0.6847   -0.8691   -0.1451 H   0  0  0  0  0  0  0  0  0  0  0  0
   -0.5631    1.1699    0.1899 H   0  0  0  0  0  0  0  0  0  0  0  0
    0.2091    1.7495   -1.5057 H   0  0  0  0  0  0  0  0  0  0  0  0
   -2.7935    1.2149   -1.1930 H   0  0  0  0  0  0  0  0  0  0  0  0
   -2.0079    1.7961   -2.6675 H   0  0  0  0  0  0  0  0  0  0  0  0
   -2.0247    2.8103   -1.2156 H   0  0  0  0  0  0  0  0  0  0  0  0
  1  2  1  0
  1  5  1  0
  1  6  1  0
  1 22  1  0
  2  3  1  0
  2  7  1  0
  2  8  1  0
  3  4  2  0
  9 10  1  0
  9 15  1  0
  9 16  1  0
  9 17  1  0
 10 11  1  0
 10 18  1  0
 10 19  1  0
 11 12  1  0
 11 20  1  0
 11 21  1  0
 12 13  1  0
 13 14  1  0
 13 23  1  0
 14 24  1  0
 14 25  1  0
 14 26  1  0
M  RAD  1  13   2
M  END
>  <reaction>  (6) 
rmg_rxn_288

>  <mol_properties>  (6) 
{"0": {"label": "*3", "atom_type": "Cs"}, "1": {"label": "*4", "atom_type": "Cs"}, "11": {"label": "*0", "atom_type": "O2s"}, "12": {"label": "*1", "atom_type": "Cs"}, "21": {"label": "*2", "atom_type": "H0"}}

>  <type>  (6) 
unop_2

>  <geom_source>  (6) 
Heuristics

$$$$

     RDKit          3D

 26 24  0  0  0  0  0  0  0  0999 V2000
   -0.1840    0.5318    1.5026 C   0  0  0  0  0  0  0  0  0  0  0  0
    0.4618    1.8159    1.9667 C   0  0  0  0  0  0  0  0  0  0  0  0
    0.0842    2.2983    3.3170 N   0  0  0  0  0  0  0  0  0  0  0  0
   -0.6990    1.6053    3.8909 O   0  0  0  0  0  0  0  0  0  0  0  0
    0.0579   -0.2951    2.1699 H   0  0  0  0  0  0  0  0  0  0  0  0
   -1.2693    0.6253    1.4701 H   0  0  0  0  0  0  0  0  0  0  0  0
    1.5543    1.7548    2.0058 H   0  0  0  0  0  0  0  0  0  0  0  0
    0.2405    2.6659    1.3130 H   0  0  0  0  0  0  0  0  0  0  0  0
    0.9090   -2.8498   -3.3526 C   0  0  0  0  0  0  0  0  0  0  0  0
    0.9090   -2.8498   -1.8297 C   0  0  0  0  0  0  0  0  0  0  0  0
    0.9090   -1.4567   -1.2342 C   0  0  0  0  0  0  0  0  0  0  0  0
   -0.2740   -0.7931   -1.6018 O   0  0  0  0  0  0  0  0  0  0  0  0
   -0.3447    0.5250   -1.1209 C   0  0  0  0  0  3  0  0  0  0  0  0
   -1.6480    1.1427   -1.5717 C   0  0  0  0  0  0  0  0  0  0  0  0
    1.7911   -2.3354   -3.7422 H   0  0  0  0  0  0  0  0  0  0  0  0
    0.0263   -2.3401   -3.7387 H   0  0  0  0  0  0  0  0  0  0  0  0
    0.9145   -3.8676   -3.7453 H   0  0  0  0  0  0  0  0  0  0  0  0
    1.7905   -3.3762   -1.4534 H   0  0  0  0  0  0  0  0  0  0  0  0
    0.0346   -3.3877   -1.4544 H   0  0  0  0  0  0  0  0  0  0  0  0
    1.7832   -0.8916   -1.5946 H   0  0  0  0  0  0  0  0  0  0  0  0
    0.9838   -1.5106   -0.1381 H   0  0  0  0  0  0  0  0  0  0  0  0
   -0.2640    0.5284    0.1968 H   0  0  0  0  0  0  0  0  0  0  0  0
    0.5082    1.1079   -1.4988 H   0  0  0  0  0  0  0  0  0  0  0  0
   -2.4944    0.5733   -1.1860 H   0  0  0  0  0  0  0  0  0  0  0  0
   -1.7088    1.1546   -2.6605 H   0  0  0  0  0  0  0  0  0  0  0  0
   -1.7256    2.1688   -1.2087 H   0  0  0  0  0  0  0  0  0  0  0  0
  1  2  1  0
  1  5  1  0
  1  6  1  0
  1 22  1  0
  2  3  1  0
  2  7  1  0
  2  8  1  0
  3  4  2  0
  9 10  1  0
  9 15  1  0
  9 16  1  0
  9 17  1  0
 10 11  1  0
 10 18  1  0
 10 19  1  0
 11 12  1  0
 11 20  1  0
 11 21  1  0
 12 13  1  0
 13 14  1  0
 13 23  1  0
 14 24  1  0
 14 25  1  0
 14 26  1  0
M  RAD  1  13   2
M  END
>  <reaction>  (7) 
rmg_rxn_288

>  <mol_properties>  (7) 
{"0": {"label": "*3", "atom_type": "Cs"}, "1": {"label": "*4", "atom_type": "Cs"}, "11": {"label": "*0", "atom_type": "O2s"}, "12": {"label": "*1", "atom_type": "Cs"}, "21": {"label": "*2", "atom_type": "H0"}}

>  <type>  (7) 
unop_3

>  <geom_source>  (7) 
Heuristics

$$$$

     RDKit          3D

 26 24  0  0  0  0  0  0  0  0999 V2000
    0.2375    0.9894    1.4872 C   0  0  0  0  0  0  0  0  0  0  0  0
   -0.9043    0.1878    2.0662 C   0  0  0  0  0  0  0  0  0  0  0  0
   -1.4225    0.6275    3.3841 N   0  0  0  0  0  0  0  0  0  0  0  0
   -0.8689    1.5794    3.8429 O   0  0  0  0  0  0  0  0  0  0  0  0
   -0.0467    2.0311    1.3397 H   0  0  0  0  0  0  0  0  0  0  0  0
    1.1054    0.9723    2.1460 H   0  0  0  0  0  0  0  0  0  0  0  0
   -1.7911    0.1822    1.4241 H   0  0  0  0  0  0  0  0  0  0  0  0
   -0.6507   -0.8658    2.2222 H   0  0  0  0  0  0  0  0  0  0  0  0
    1.3305   -2.3922   -3.3680 C   0  0  0  0  0  0  0  0  0  0  0  0
    1.3305   -2.3922   -1.8451 C   0  0  0  0  0  0  0  0  0  0  0  0
    1.3305   -0.9991   -1.2496 C   0  0  0  0  0  0  0  0  0  0  0  0
    0.1475   -0.3355   -1.6172 O   0  0  0  0  0  0  0  0  0  0  0  0
    0.0768    0.9825   -1.1363 C   0  0  0  0  0  3  0  0  0  0  0  0
   -1.2265    1.6003   -1.5871 C   0  0  0  0  0  0  0  0  0  0  0  0
    2.2126   -1.8779   -3.7576 H   0  0  0  0  0  0  0  0  0  0  0  0
    0.4478   -1.8825   -3.7541 H   0  0  0  0  0  0  0  0  0  0  0  0
    1.3360   -3.4101   -3.7607 H   0  0  0  0  0  0  0  0  0  0  0  0
    2.2121   -2.9187   -1.4688 H   0  0  0  0  0  0  0  0  0  0  0  0
    0.4562   -2.9302   -1.4698 H   0  0  0  0  0  0  0  0  0  0  0  0
    2.2047   -0.4341   -1.6100 H   0  0  0  0  0  0  0  0  0  0  0  0
    1.4053   -1.0530   -0.1535 H   0  0  0  0  0  0  0  0  0  0  0  0
    0.1575    0.9860    0.1814 H   0  0  0  0  0  0  0  0  0  0  0  0
    0.9297    1.5655   -1.5142 H   0  0  0  0  0  0  0  0  0  0  0  0
   -2.0729    1.0309   -1.2014 H   0  0  0  0  0  0  0  0  0  0  0  0
   -1.2873    1.6122   -2.6759 H   0  0  0  0  0  0  0  0  0  0  0  0
   -1.3041    2.6263   -1.2241 H   0  0  0  0  0  0  0  0  0  0  0  0
  1  2  1  0
  1  5  1  0
  1  6  1  0
  1 22  1  0
  2  3  1  0
  2  7  1  0
  2  8  1  0
  3  4  2  0
  9 10  1  0
  9 15  1  0
  9 16  1  0
  9 17  1  0
 10 11  1  0
 10 18  1  0
 10 19  1  0
 11 12  1  0
 11 20  1  0
 11 21  1  0
 12 13  1  0
 13 14  1  0
 13 23  1  0
 14 24  1  0
 14 25  1  0
 14 26  1  0
M  RAD  1  13   2
M  END
>  <reaction>  (8) 
rmg_rxn_288

>  <mol_properties>  (8) 
{"0": {"label": "*3", "atom_type": "Cs"}, "1": {"label": "*4", "atom_type": "Cs"}, "11": {"label": "*0", "atom_type": "O2s"}, "12": {"label": "*1", "atom_type": "Cs"}, "21": {"label": "*2", "atom_type": "H0"}}

>  <type>  (8) 
unop_4

>  <geom_source>  (8) 
Heuristics

$$$$

     RDKit          3D

 26 24  0  0  0  0  0  0  0  0999 V2000
   -0.1577    0.5868    1.4596 C   0  0  0  0  0  0  0  0  0  0  0  0
   -0.2345    2.0071    1.9677 C   0  0  0  0  0  0  0  0  0  0  0  0
   -0.1582    2.1914    3.4370 N   0  0  0  0  0  0  0  0  0  0  0  0
   -0.0431    1.1800    4.0590 O   0  0  0  0  0  0  0  0  0  0  0  0
    0.7805    0.1142    1.7499 H   0  0  0  0  0  0  0  0  0  0  0  0
   -0.9715   -0.0191    1.8576 H   0  0  0  0  0  0  0  0  0  0  0  0
    0.5687    2.6430    1.5813 H   0  0  0  0  0  0  0  0  0  0  0  0
   -1.1654    2.5111    1.6879 H   0  0  0  0  0  0  0  0  0  0  0  0
    0.9354   -2.7948   -3.3955 C   0  0  0  0  0  0  0  0  0  0  0  0
    0.9354   -2.7948   -1.8726 C   0  0  0  0  0  0  0  0  0  0  0  0
    0.9354   -1.4017   -1.2771 C   0  0  0  0  0  0  0  0  0  0  0  0
   -0.2476   -0.7381   -1.6447 O   0  0  0  0  0  0  0  0  0  0  0  0
   -0.3183    0.5799   -1.1638 C   0  0  0  0  0  3  0  0  0  0  0  0
   -1.6217    1.1977   -1.6147 C   0  0  0  0  0  0  0  0  0  0  0  0
    1.8175   -2.2805   -3.7852 H   0  0  0  0  0  0  0  0  0  0  0  0
    0.0527   -2.2851   -3.7816 H   0  0  0  0  0  0  0  0  0  0  0  0
    0.9409   -3.8127   -3.7882 H   0  0  0  0  0  0  0  0  0  0  0  0
    1.8169   -3.3213   -1.4964 H   0  0  0  0  0  0  0  0  0  0  0  0
    0.0610   -3.3328   -1.4974 H   0  0  0  0  0  0  0  0  0  0  0  0
    1.8096   -0.8366   -1.6375 H   0  0  0  0  0  0  0  0  0  0  0  0
    1.0102   -1.4556   -0.1811 H   0  0  0  0  0  0  0  0  0  0  0  0
   -0.2376    0.5834    0.1539 H   0  0  0  0  0  0  0  0  0  0  0  0
    0.5345    1.1629   -1.5417 H   0  0  0  0  0  0  0  0  0  0  0  0
   -2.4680    0.6283   -1.2290 H   0  0  0  0  0  0  0  0  0  0  0  0
   -1.6825    1.2096   -2.7035 H   0  0  0  0  0  0  0  0  0  0  0  0
   -1.6993    2.2237   -1.2516 H   0  0  0  0  0  0  0  0  0  0  0  0
  1  2  1  0
  1  5  1  0
  1  6  1  0
  1 22  1  0
  2  3  1  0
  2  7  1  0
  2  8  1  0
  3  4  2  0
  9 10  1  0
  9 15  1  0
  9 16  1  0
  9 17  1  0
 10 11  1  0
 10 18  1  0
 10 19  1  0
 11 12  1  0
 11 20  1  0
 11 21  1  0
 12 13  1  0
 13 14  1  0
 13 23  1  0
 14 24  1  0
 14 25  1  0
 14 26  1  0
M  RAD  1  13   2
M  END
>  <reaction>  (9) 
rmg_rxn_288

>  <mol_properties>  (9) 
{"0": {"label": "*3", "atom_type": "Cs"}, "1": {"label": "*4", "atom_type": "Cs"}, "11": {"label": "*0", "atom_type": "O2s"}, "12": {"label": "*1", "atom_type": "Cs"}, "21": {"label": "*2", "atom_type": "H0"}}

>  <type>  (9) 
unop_5

>  <geom_source>  (9) 
Heuristics

$$$$

     RDKit          3D

 26 24  0  0  0  0  0  0  0  0999 V2000
    0.2193    0.7350    1.5150 C   0  0  0  0  0  0  0  0  0  0  0  0
   -1.1661    0.6286    2.1072 C   0  0  0  0  0  0  0  0  0  0  0  0
   -1.4354    1.4435    3.3163 N   0  0  0  0  0  0  0  0  0  0  0  0
   -0.5116    2.1002    3.6885 O   0  0  0  0  0  0  0  0  0  0  0  0
    0.4424    1.7586    1.2148 H   0  0  0  0  0  0  0  0  0  0  0  0
    0.9797    0.4264    2.2322 H   0  0  0  0  0  0  0  0  0  0  0  0
   -1.9537    0.9282    1.4080 H   0  0  0  0  0  0  0  0  0  0  0  0
   -1.4219   -0.3905    2.4152 H   0  0  0  0  0  0  0  0  0  0  0  0
    1.3124   -2.6465   -3.3401 C   0  0  0  0  0  0  0  0  0  0  0  0
    1.3124   -2.6465   -1.8172 C   0  0  0  0  0  0  0  0  0  0  0  0
    1.3124   -1.2534   -1.2217 C   0  0  0  0  0  0  0  0  0  0  0  0
    0.1294   -0.5898   -1.5893 O   0  0  0  0  0  0  0  0  0  0  0  0
    0.0587    0.7282   -1.1084 C   0  0  0  0  0  3  0  0  0  0  0  0
   -1.2447    1.3460   -1.5593 C   0  0  0  0  0  0  0  0  0  0  0  0
    2.1945   -2.1322   -3.7298 H   0  0  0  0  0  0  0  0  0  0  0  0
    0.4297   -2.1368   -3.7262 H   0  0  0  0  0  0  0  0  0  0  0  0
    1.3179   -3.6644   -3.7328 H   0  0  0  0  0  0  0  0  0  0  0  0
    2.1939   -3.1730   -1.4410 H   0  0  0  0  0  0  0  0  0  0  0  0
    0.4380   -3.1845   -1.4420 H   0  0  0  0  0  0  0  0  0  0  0  0
    2.1866   -0.6884   -1.5821 H   0  0  0  0  0  0  0  0  0  0  0  0
    1.3872   -1.3074   -0.1257 H   0  0  0  0  0  0  0  0  0  0  0  0
    0.1394    0.7317    0.2093 H   0  0  0  0  0  0  0  0  0  0  0  0
    0.9115    1.3112   -1.4863 H   0  0  0  0  0  0  0  0  0  0  0  0
   -2.0910    0.7766   -1.1736 H   0  0  0  0  0  0  0  0  0  0  0  0
   -1.3055    1.3579   -2.6481 H   0  0  0  0  0  0  0  0  0  0  0  0
   -1.3223    2.3720   -1.1962 H   0  0  0  0  0  0  0  0  0  0  0  0
  1  2  1  0
  1  5  1  0
  1  6  1  0
  1 22  1  0
  2  3  1  0
  2  7  1  0
  2  8  1  0
  3  4  2  0
  9 10  1  0
  9 15  1  0
  9 16  1  0
  9 17  1  0
 10 11  1  0
 10 18  1  0
 10 19  1  0
 11 12  1  0
 11 20  1  0
 11 21  1  0
 12 13  1  0
 13 14  1  0
 13 23  1  0
 14 24  1  0
 14 25  1  0
 14 26  1  0
M  RAD  1  13   2
M  END
>  <reaction>  (10) 
rmg_rxn_288

>  <mol_properties>  (10) 
{"0": {"label": "*3", "atom_type": "Cs"}, "1": {"label": "*4", "atom_type": "Cs"}, "11": {"label": "*0", "atom_type": "O2s"}, "12": {"label": "*1", "atom_type": "Cs"}, "21": {"label": "*2", "atom_type": "H0"}}

>  <type>  (10) 
unop_6

>  <geom_source>  (10) 
Heuristics

$$$$

     RDKit          3D

 26 24  0  0  0  0  0  0  0  0999 V2000
    0.0631    0.5624    1.5253 C   0  0  0  0  0  0  0  0  0  0  0  0
   -1.1865    1.1800    2.1073 C   0  0  0  0  0  0  0  0  0  0  0  0
   -1.0047    2.0586    3.2877 N   0  0  0  0  0  0  0  0  0  0  0  0
    0.1262    2.1786    3.6480 O   0  0  0  0  0  0  0  0  0  0  0  0
    0.7647    1.3283    1.1953 H   0  0  0  0  0  0  0  0  0  0  0  0
    0.5734   -0.0612    2.2590 H   0  0  0  0  0  0  0  0  0  0  0  0
   -1.7248    1.8099    1.3916 H   0  0  0  0  0  0  0  0  0  0  0  0
   -1.9142    0.4346    2.4444 H   0  0  0  0  0  0  0  0  0  0  0  0
    1.1561   -2.8191   -3.3299 C   0  0  0  0  0  0  0  0  0  0  0  0
    1.1561   -2.8191   -1.8070 C   0  0  0  0  0  0  0  0  0  0  0  0
    1.1561   -1.4261   -1.2115 C   0  0  0  0  0  0  0  0  0  0  0  0
   -0.0269   -0.7625   -1.5791 O   0  0  0  0  0  0  0  0  0  0  0  0
   -0.0976    0.5556   -1.0982 C   0  0  0  0  0  3  0  0  0  0  0  0
   -1.4009    1.1734   -1.5490 C   0  0  0  0  0  0  0  0  0  0  0  0
    2.0382   -2.3048   -3.7195 H   0  0  0  0  0  0  0  0  0  0  0  0
    0.2734   -2.3094   -3.7160 H   0  0  0  0  0  0  0  0  0  0  0  0
    1.1616   -3.8370   -3.7225 H   0  0  0  0  0  0  0  0  0  0  0  0
    2.0376   -3.3456   -1.4307 H   0  0  0  0  0  0  0  0  0  0  0  0
    0.2817   -3.3571   -1.4317 H   0  0  0  0  0  0  0  0  0  0  0  0
    2.0303   -0.8610   -1.5718 H   0  0  0  0  0  0  0  0  0  0  0  0
    1.2309   -1.4800   -0.1154 H   0  0  0  0  0  0  0  0  0  0  0  0
   -0.0169    0.5590    0.2195 H   0  0  0  0  0  0  0  0  0  0  0  0
    0.7553    1.1386   -1.4760 H   0  0  0  0  0  0  0  0  0  0  0  0
   -2.2473    0.6040   -1.1633 H   0  0  0  0  0  0  0  0  0  0  0  0
   -1.4617    1.1852   -2.6378 H   0  0  0  0  0  0  0  0  0  0  0  0
   -1.4785    2.1994   -1.1859 H   0  0  0  0  0  0  0  0  0  0  0  0
  1  2  1  0
  1  5  1  0
  1  6  1  0
  1 22  1  0
  2  3  1  0
  2  7  1  0
  2  8  1  0
  3  4  2  0
  9 10  1  0
  9 15  1  0
  9 16  1  0
  9 17  1  0
 10 11  1  0
 10 18  1  0
 10 19  1  0
 11 12  1  0
 11 20  1  0
 11 21  1  0
 12 13  1  0
 13 14  1  0
 13 23  1  0
 14 24  1  0
 14 25  1  0
 14 26  1  0
M  RAD  1  13   2
M  END
>  <reaction>  (11) 
rmg_rxn_288

>  <mol_properties>  (11) 
{"0": {"label": "*3", "atom_type": "Cs"}, "1": {"label": "*4", "atom_type": "Cs"}, "11": {"label": "*0", "atom_type": "O2s"}, "12": {"label": "*1", "atom_type": "Cs"}, "21": {"label": "*2", "atom_type": "H0"}}

>  <type>  (11) 
unop_7

>  <geom_source>  (11) 
Heuristics

$$$$

     RDKit          3D

 26 24  0  0  0  0  0  0  0  0999 V2000
   -0.5431    0.6770    1.5619 C   0  0  0  0  0  0  0  0  0  0  0  0
    0.9042    0.7861    1.9800 C   0  0  0  0  0  0  0  0  0  0  0  0
    1.1928    1.6434    3.1549 N   0  0  0  0  0  0  0  0  0  0  0  0
    0.2328    2.1568    3.6427 O   0  0  0  0  0  0  0  0  0  0  0  0
   -1.1552    0.2640    2.3634 H   0  0  0  0  0  0  0  0  0  0  0  0
   -0.9528    1.6525    1.3005 H   0  0  0  0  0  0  0  0  0  0  0  0
    1.3462   -0.1799    2.2451 H   0  0  0  0  0  0  0  0  0  0  0  0
    1.5466    1.1945    1.1930 H   0  0  0  0  0  0  0  0  0  0  0  0
    0.5499   -2.7045   -3.2933 C   0  0  0  0  0  0  0  0  0  0  0  0
    0.5499   -2.7045   -1.7704 C   0  0  0  0  0  0  0  0  0  0  0  0
    0.5499   -1.3114   -1.1749 C   0  0  0  0  0  0  0  0  0  0  0  0
   -0.6331   -0.6478   -1.5425 O   0  0  0  0  0  0  0  0  0  0  0  0
   -0.7038    0.6702   -1.0616 C   0  0  0  0  0  3  0  0  0  0  0  0
   -2.0071    1.2880   -1.5124 C   0  0  0  0  0  0  0  0  0  0  0  0
    1.4320   -2.1902   -3.6829 H   0  0  0  0  0  0  0  0  0  0  0  0
   -0.3328   -2.1948   -3.6794 H   0  0  0  0  0  0  0  0  0  0  0  0
    0.5554   -3.7224   -3.6860 H   0  0  0  0  0  0  0  0  0  0  0  0
    1.4314   -3.2310   -1.3941 H   0  0  0  0  0  0  0  0  0  0  0  0
   -0.3245   -3.2425   -1.3951 H   0  0  0  0  0  0  0  0  0  0  0  0
    1.4241   -0.7464   -1.5353 H   0  0  0  0  0  0  0  0  0  0  0  0
    0.6247   -1.3654   -0.0788 H   0  0  0  0  0  0  0  0  0  0  0  0
   -0.6231    0.6737    0.2561 H   0  0  0  0  0  0  0  0  0  0  0  0
    0.1491    1.2532   -1.4395 H   0  0  0  0  0  0  0  0  0  0  0  0
   -2.8535    0.7186   -1.1267 H   0  0  0  0  0  0  0  0  0  0  0  0
   -2.0679    1.2999   -2.6012 H   0  0  0  0  0  0  0  0  0  0  0  0
   -2.0847    2.3140   -1.1494 H   0  0  0  0  0  0  0  0  0  0  0  0
  1  2  1  0
  1  5  1  0
  1  6  1  0
  1 22  1  0
  2  3  1  0
  2  7  1  0
  2  8  1  0
  3  4  2  0
  9 10  1  0
  9 15  1  0
  9 16  1  0
  9 17  1  0
 10 11  1  0
 10 18  1  0
 10 19  1  0
 11 12  1  0
 11 20  1  0
 11 21  1  0
 12 13  1  0
 13 14  1  0
 13 23  1  0
 14 24  1  0
 14 25  1  0
 14 26  1  0
M  RAD  1  13   2
M  END
>  <reaction>  (12) 
rmg_rxn_288

>  <mol_properties>  (12) 
{"0": {"label": "*3", "atom_type": "Cs"}, "1": {"label": "*4", "atom_type": "Cs"}, "11": {"label": "*0", "atom_type": "O2s"}, "12": {"label": "*1", "atom_type": "Cs"}, "21": {"label": "*2", "atom_type": "H0"}}

>  <type>  (12) 
unop_8

>  <geom_source>  (12) 
Heuristics

$$$$

     RDKit          3D

 26 24  0  0  0  0  0  0  0  0999 V2000
    0.0776    1.2160    1.4612 C   0  0  0  0  0  0  0  0  0  0  0  0
   -0.5063   -0.0655    2.0073 C   0  0  0  0  0  0  0  0  0  0  0  0
   -0.8801   -0.0659    3.4422 N   0  0  0  0  0  0  0  0  0  0  0  0
   -0.6733    0.9630    4.0095 O   0  0  0  0  0  0  0  0  0  0  0  0
   -0.6227    2.0445    1.5654 H   0  0  0  0  0  0  0  0  0  0  0  0
    0.9932    1.4875    1.9862 H   0  0  0  0  0  0  0  0  0  0  0  0
   -1.4264   -0.3676    1.4963 H   0  0  0  0  0  0  0  0  0  0  0  0
    0.1732   -0.9189    1.9129 H   0  0  0  0  0  0  0  0  0  0  0  0
    1.1706   -2.1656   -3.3940 C   0  0  0  0  0  0  0  0  0  0  0  0
    1.1706   -2.1656   -1.8711 C   0  0  0  0  0  0  0  0  0  0  0  0
    1.1706   -0.7725   -1.2755 C   0  0  0  0  0  0  0  0  0  0  0  0
   -0.0124   -0.1089   -1.6431 O   0  0  0  0  0  0  0  0  0  0  0  0
   -0.0831    1.2092   -1.1623 C   0  0  0  0  0  3  0  0  0  0  0  0
   -1.3864    1.8269   -1.6131 C   0  0  0  0  0  0  0  0  0  0  0  0
    2.0527   -1.6512   -3.7836 H   0  0  0  0  0  0  0  0  0  0  0  0
    0.2879   -1.6559   -3.7800 H   0  0  0  0  0  0  0  0  0  0  0  0
    1.1761   -3.1834   -3.7866 H   0  0  0  0  0  0  0  0  0  0  0  0
    2.0522   -2.6920   -1.4948 H   0  0  0  0  0  0  0  0  0  0  0  0
    0.2963   -2.7035   -1.4958 H   0  0  0  0  0  0  0  0  0  0  0  0
    2.0448   -0.2074   -1.6359 H   0  0  0  0  0  0  0  0  0  0  0  0
    1.2454   -0.8264   -0.1795 H   0  0  0  0  0  0  0  0  0  0  0  0
   -0.0024    1.2126    0.1554 H   0  0  0  0  0  0  0  0  0  0  0  0
    0.7698    1.7921   -1.5401 H   0  0  0  0  0  0  0  0  0  0  0  0
   -2.2328    1.2575   -1.2274 H   0  0  0  0  0  0  0  0  0  0  0  0
   -1.4472    1.8388   -2.7019 H   0  0  0  0  0  0  0  0  0  0  0  0
   -1.4640    2.8530   -1.2500 H   0  0  0  0  0  0  0  0  0  0  0  0
  1  2  1  0
  1  5  1  0
  1  6  1  0
  1 22  1  0
  2  3  1  0
  2  7  1  0
  2  8  1  0
  3  4  2  0
  9 10  1  0
  9 15  1  0
  9 16  1  0
  9 17  1  0
 10 11  1  0
 10 18  1  0
 10 19  1  0
 11 12  1  0
 11 20  1  0
 11 21  1  0
 12 13  1  0
 13 14  1  0
 13 23  1  0
 14 24  1  0
 14 25  1  0
 14 26  1  0
M  RAD  1  13   2
M  END
>  <reaction>  (13) 
rmg_rxn_288

>  <mol_properties>  (13) 
{"0": {"label": "*3", "atom_type": "Cs"}, "1": {"label": "*4", "atom_type": "Cs"}, "11": {"label": "*0", "atom_type": "O2s"}, "12": {"label": "*1", "atom_type": "Cs"}, "21": {"label": "*2", "atom_type": "H0"}}

>  <type>  (13) 
unop_9

>  <geom_source>  (13) 
Heuristics

$$$$

     RDKit          3D

 26 24  0  0  0  0  0  0  0  0999 V2000
   -0.6026    0.9254    1.5388 C   0  0  0  0  0  0  0  0  0  0  0  0
    0.7088    0.3105    1.9671 C   0  0  0  0  0  0  0  0  0  0  0  0
    1.3113    0.8355    3.2161 N   0  0  0  0  0  0  0  0  0  0  0  0
    0.6806    1.6973    3.7477 O   0  0  0  0  0  0  0  0  0  0  0  0
   -1.3714    0.7839    2.2982 H   0  0  0  0  0  0  0  0  0  0  0  0
   -0.4988    1.9967    1.3675 H   0  0  0  0  0  0  0  0  0  0  0  0
    0.6377   -0.7678    2.1430 H   0  0  0  0  0  0  0  0  0  0  0  0
    1.5015    0.4327    1.2218 H   0  0  0  0  0  0  0  0  0  0  0  0
    0.4904   -2.4561   -3.3164 C   0  0  0  0  0  0  0  0  0  0  0  0
    0.4904   -2.4561   -1.7935 C   0  0  0  0  0  0  0  0  0  0  0  0
    0.4904   -1.0630   -1.1980 C   0  0  0  0  0  0  0  0  0  0  0  0
   -0.6926   -0.3994   -1.5656 O   0  0  0  0  0  0  0  0  0  0  0  0
   -0.7633    0.9186   -1.0847 C   0  0  0  0  0  3  0  0  0  0  0  0
   -2.0666    1.5364   -1.5355 C   0  0  0  0  0  0  0  0  0  0  0  0
    1.3725   -1.9418   -3.7060 H   0  0  0  0  0  0  0  0  0  0  0  0
   -0.3923   -1.9464   -3.7025 H   0  0  0  0  0  0  0  0  0  0  0  0
    0.4959   -3.4740   -3.7091 H   0  0  0  0  0  0  0  0  0  0  0  0
    1.3719   -2.9826   -1.4172 H   0  0  0  0  0  0  0  0  0  0  0  0
   -0.3840   -2.9941   -1.4182 H   0  0  0  0  0  0  0  0  0  0  0  0
    1.3646   -0.4980   -1.5584 H   0  0  0  0  0  0  0  0  0  0  0  0
    0.5652   -1.1170   -0.1019 H   0  0  0  0  0  0  0  0  0  0  0  0
   -0.6826    0.9220    0.2330 H   0  0  0  0  0  0  0  0  0  0  0  0
    0.0895    1.5016   -1.4625 H   0  0  0  0  0  0  0  0  0  0  0  0
   -2.9130    0.9670   -1.1498 H   0  0  0  0  0  0  0  0  0  0  0  0
   -2.1274    1.5483   -2.6243 H   0  0  0  0  0  0  0  0  0  0  0  0
   -2.1443    2.5624   -1.1724 H   0  0  0  0  0  0  0  0  0  0  0  0
  1  2  1  0
  1  5  1  0
  1  6  1  0
  1 22  1  0
  2  3  1  0
  2  7  1  0
  2  8  1  0
  3  4  2  0
  9 10  1  0
  9 15  1  0
  9 16  1  0
  9 17  1  0
 10 11  1  0
 10 18  1  0
 10 19  1  0
 11 12  1  0
 11 20  1  0
 11 21  1  0
 12 13  1  0
 13 14  1  0
 13 23  1  0
 14 24  1  0
 14 25  1  0
 14 26  1  0
M  RAD  1  13   2
M  END
>  <reaction>  (14) 
rmg_rxn_288

>  <mol_properties>  (14) 
{"0": {"label": "*3", "atom_type": "Cs"}, "1": {"label": "*4", "atom_type": "Cs"}, "11": {"label": "*0", "atom_type": "O2s"}, "12": {"label": "*1", "atom_type": "Cs"}, "21": {"label": "*2", "atom_type": "H0"}}

>  <type>  (14) 
unop_10

>  <geom_source>  (14) 
Heuristics

$$$$

     RDKit          3D

 26 24  0  0  0  0  0  0  0  0999 V2000
   -0.1183    0.5368    1.4985 C   0  0  0  0  0  0  0  0  0  0  0  0
   -0.8889    1.7132    2.0497 C   0  0  0  0  0  0  0  0  0  0  0  0
   -0.4268    2.2594    3.3484 N   0  0  0  0  0  0  0  0  0  0  0  0
    0.5159    1.6977    3.8163 O   0  0  0  0  0  0  0  0  0  0  0  0
    0.9284    0.7925    1.3350 H   0  0  0  0  0  0  0  0  0  0  0  0
   -0.1498   -0.3109    2.1827 H   0  0  0  0  0  0  0  0  0  0  0  0
   -0.8795    2.5807    1.3818 H   0  0  0  0  0  0  0  0  0  0  0  0
   -1.9467    1.4885    2.2209 H   0  0  0  0  0  0  0  0  0  0  0  0
    0.9748   -2.8448   -3.3567 C   0  0  0  0  0  0  0  0  0  0  0  0
    0.9748   -2.8448   -1.8338 C   0  0  0  0  0  0  0  0  0  0  0  0
    0.9748   -1.4517   -1.2382 C   0  0  0  0  0  0  0  0  0  0  0  0
   -0.2082   -0.7881   -1.6058 O   0  0  0  0  0  0  0  0  0  0  0  0
   -0.2789    0.5300   -1.1249 C   0  0  0  0  0  3  0  0  0  0  0  0
   -1.5823    1.1477   -1.5758 C   0  0  0  0  0  0  0  0  0  0  0  0
    1.8568   -2.3304   -3.7463 H   0  0  0  0  0  0  0  0  0  0  0  0
    0.0921   -2.3351   -3.7427 H   0  0  0  0  0  0  0  0  0  0  0  0
    0.9803   -3.8626   -3.7493 H   0  0  0  0  0  0  0  0  0  0  0  0
    1.8563   -3.3712   -1.4575 H   0  0  0  0  0  0  0  0  0  0  0  0
    0.1004   -3.3827   -1.4585 H   0  0  0  0  0  0  0  0  0  0  0  0
    1.8490   -0.8866   -1.5986 H   0  0  0  0  0  0  0  0  0  0  0  0
    1.0496   -1.5056   -0.1422 H   0  0  0  0  0  0  0  0  0  0  0  0
   -0.1982    0.5334    0.1928 H   0  0  0  0  0  0  0  0  0  0  0  0
    0.5739    1.1129   -1.5028 H   0  0  0  0  0  0  0  0  0  0  0  0
   -2.4286    0.5783   -1.1901 H   0  0  0  0  0  0  0  0  0  0  0  0
   -1.6431    1.1596   -2.6646 H   0  0  0  0  0  0  0  0  0  0  0  0
   -1.6599    2.1738   -1.2127 H   0  0  0  0  0  0  0  0  0  0  0  0
  1  2  1  0
  1  5  1  0
  1  6  1  0
  1 22  1  0
  2  3  1  0
  2  7  1  0
  2  8  1  0
  3  4  2  0
  9 10  1  0
  9 15  1  0
  9 16  1  0
  9 17  1  0
 10 11  1  0
 10 18  1  0
 10 19  1  0
 11 12  1  0
 11 20  1  0
 11 21  1  0
 12 13  1  0
 13 14  1  0
 13 23  1  0
 14 24  1  0
 14 25  1  0
 14 26  1  0
M  RAD  1  13   2
M  END
>  <reaction>  (15) 
rmg_rxn_288

>  <mol_properties>  (15) 
{"0": {"label": "*3", "atom_type": "Cs"}, "1": {"label": "*4", "atom_type": "Cs"}, "11": {"label": "*0", "atom_type": "O2s"}, "12": {"label": "*1", "atom_type": "Cs"}, "21": {"label": "*2", "atom_type": "H0"}}

>  <type>  (15) 
unop_11

>  <geom_source>  (15) 
Heuristics

$$$$

     RDKit          3D

 26 24  0  0  0  0  0  0  0  0999 V2000
   -0.2114    1.2948    1.4611 C   0  0  0  0  0  0  0  0  0  0  0  0
   -0.0727   -0.1230    1.9633 C   0  0  0  0  0  0  0  0  0  0  0  0
    0.0309   -0.2996    3.4318 N   0  0  0  0  0  0  0  0  0  0  0  0
   -0.0078    0.7151    4.0580 O   0  0  0  0  0  0  0  0  0  0  0  0
   -1.1073    1.7692    1.8612 H   0  0  0  0  0  0  0  0  0  0  0  0
    0.6446    1.9025    1.7536 H   0  0  0  0  0  0  0  0  0  0  0  0
   -0.9169   -0.7606    1.6812 H   0  0  0  0  0  0  0  0  0  0  0  0
    0.8172   -0.6287    1.5746 H   0  0  0  0  0  0  0  0  0  0  0  0
    0.8816   -2.0867   -3.3941 C   0  0  0  0  0  0  0  0  0  0  0  0
    0.8816   -2.0867   -1.8712 C   0  0  0  0  0  0  0  0  0  0  0  0
    0.8816   -0.6937   -1.2757 C   0  0  0  0  0  0  0  0  0  0  0  0
   -0.3014   -0.0301   -1.6433 O   0  0  0  0  0  0  0  0  0  0  0  0
   -0.3721    1.2880   -1.1624 C   0  0  0  0  0  3  0  0  0  0  0  0
   -1.6754    1.9058   -1.6132 C   0  0  0  0  0  0  0  0  0  0  0  0
    1.7637   -1.5724   -3.7837 H   0  0  0  0  0  0  0  0  0  0  0  0
   -0.0011   -1.5770   -3.7802 H   0  0  0  0  0  0  0  0  0  0  0  0
    0.8871   -3.1046   -3.7868 H   0  0  0  0  0  0  0  0  0  0  0  0
    1.7631   -2.6132   -1.4949 H   0  0  0  0  0  0  0  0  0  0  0  0
    0.0072   -2.6247   -1.4959 H   0  0  0  0  0  0  0  0  0  0  0  0
    1.7558   -0.1286   -1.6361 H   0  0  0  0  0  0  0  0  0  0  0  0
    0.9564   -0.7476   -0.1796 H   0  0  0  0  0  0  0  0  0  0  0  0
   -0.2914    1.2914    0.1553 H   0  0  0  0  0  0  0  0  0  0  0  0
    0.4808    1.8710   -1.5403 H   0  0  0  0  0  0  0  0  0  0  0  0
   -2.5218    1.3364   -1.2275 H   0  0  0  0  0  0  0  0  0  0  0  0
   -1.7362    1.9176   -2.7020 H   0  0  0  0  0  0  0  0  0  0  0  0
   -1.7530    2.9318   -1.2502 H   0  0  0  0  0  0  0  0  0  0  0  0
  1  2  1  0
  1  5  1  0
  1  6  1  0
  1 22  1  0
  2  3  1  0
  2  7  1  0
  2  8  1  0
  3  4  2  0
  9 10  1  0
  9 15  1  0
  9 16  1  0
  9 17  1  0
 10 11  1  0
 10 18  1  0
 10 19  1  0
 11 12  1  0
 11 20  1  0
 11 21  1  0
 12 13  1  0
 13 14  1  0
 13 23  1  0
 14 24  1  0
 14 25  1  0
 14 26  1  0
M  RAD  1  13   2
M  END
>  <reaction>  (16) 
rmg_rxn_288

>  <mol_properties>  (16) 
{"0": {"label": "*3", "atom_type": "Cs"}, "1": {"label": "*4", "atom_type": "Cs"}, "11": {"label": "*0", "atom_type": "O2s"}, "12": {"label": "*1", "atom_type": "Cs"}, "21": {"label": "*2", "atom_type": "H0"}}

>  <type>  (16) 
unop_12

>  <geom_source>  (16) 
Heuristics

$$$$

     RDKit          3D

 26 24  0  0  0  0  0  0  0  0999 V2000
   -0.4972   -0.5869    0.0840 O   0  0  0  0  0  0  0  0  0  0  0  0
    3.4578    3.0307    0.8551 O   0  0  0  0  0  0  0  0  0  0  0  0
    3.8149    2.0319    0.3070 N   0  0  0  0  0  0  0  0  0  0  0  0
   -2.7410   -0.1389    0.8301 C   0  0  0  0  0  0  0  0  0  0  0  0
   -1.8514   -0.6176   -0.3180 C   0  0  0  0  0  0  0  0  0  0  0  0
    2.9346    1.3310   -0.5952 C   0  0  0  0  0  0  0  0  0  0  0  0
   -2.4820    1.3252    1.1796 C   0  0  0  0  0  0  0  0  0  0  0  0
    1.7705    0.7077    0.1653 C   0  0  0  0  0  0  0  0  0  0  0  0
    0.6241   -2.6077   -0.6449 C   0  0  0  0  0  0  0  0  0  0  0  0
    0.3229   -1.1421   -0.9247 C   0  0  0  0  0  3  0  0  0  0  0  0
   -3.8065   -0.2544    0.5353 H   0  0  0  0  0  0  0  0  0  0  0  0
   -2.5607   -0.7700    1.7274 H   0  0  0  0  0  0  0  0  0  0  0  0
    3.5061    0.5269   -1.1042 H   0  0  0  0  0  0  0  0  0  0  0  0
    2.5492    2.0320   -1.3668 H   0  0  0  0  0  0  0  0  0  0  0  0
   -2.0138    0.0424   -1.2008 H   0  0  0  0  0  0  0  0  0  0  0  0
   -2.1632   -1.6542   -0.5807 H   0  0  0  0  0  0  0  0  0  0  0  0
    2.1503    0.0069    0.9390 H   0  0  0  0  0  0  0  0  0  0  0  0
    1.1612    1.4980    0.6530 H   0  0  0  0  0  0  0  0  0  0  0  0
    1.0230    0.0559   -0.6562 H   0  0  0  0  0  0  0  0  0  0  0  0
   -3.1634    1.6367    1.9992 H   0  0  0  0  0  0  0  0  0  0  0  0
   -1.4340    1.4645    1.5201 H   0  0  0  0  0  0  0  0  0  0  0  0
   -2.6705    1.9724    0.2967 H   0  0  0  0  0  0  0  0  0  0  0  0
    1.3657   -2.9781   -1.3826 H   0  0  0  0  0  0  0  0  0  0  0  0
   -0.3009   -3.2153   -0.7272 H   0  0  0  0  0  0  0  0  0  0  0  0
    1.0473   -2.7169    0.3755 H   0  0  0  0  0  0  0  0  0  0  0  0
   -0.0431   -0.9800   -1.9659 H   0  0  0  0  0  0  0  0  0  0  0  0
  1 10  1  0
  1  5  1  0
  2  3  2  0
  3  6  1  0
  4  7  1  0
  4  5  1  0
  4 11  1  0
  4 12  1  0
  5 15  1  0
  5 16  1  0
  6  8  1  0
  6 13  1  0
  6 14  1  0
  7 20  1  0
  7 21  1  0
  7 22  1  0
  8 17  1  0
  8 18  1  0
  8 19  1  0
  9 10  1  0
  9 23  1  0
  9 24  1  0
  9 25  1  0
 10 26  1  0
M  RAD  1  10   2
M  END
>  <reaction>  (17) 
rmg_rxn_288

>  <mol_properties>  (17) 
{"0": {"label": "*3", "atom_type": "Cs"}, "1": {"label": "*4", "atom_type": "Cs"}, "11": {"label": "*0", "atom_type": "O2s"}, "12": {"label": "*1", "atom_type": "Cs"}, "21": {"label": "*2", "atom_type": "H0"}}

>  <type>  (17) 
unop_13

>  <geom_source>  (17) 
AutoTST

$$$$

     RDKit          3D

 26 24  0  0  0  0  0  0  0  0999 V2000
   -0.4831    1.1733    1.4956 C   0  0  0  0  0  0  0  0  0  0  0  0
    0.3494   -0.0004    1.9548 C   0  0  0  0  0  0  0  0  0  0  0  0
    0.8908    0.0689    3.3334 N   0  0  0  0  0  0  0  0  0  0  0  0
    0.6019    1.0600    3.9312 O   0  0  0  0  0  0  0  0  0  0  0  0
   -1.3584    1.3086    2.1307 H   0  0  0  0  0  0  0  0  0  0  0  0
    0.0918    2.0988    1.5215 H   0  0  0  0  0  0  0  0  0  0  0  0
   -0.2001   -0.9473    1.9358 H   0  0  0  0  0  0  0  0  0  0  0  0
    1.2353   -0.1651    1.3328 H   0  0  0  0  0  0  0  0  0  0  0  0
    0.6099   -2.2082   -3.3595 C   0  0  0  0  0  0  0  0  0  0  0  0
    0.6099   -2.2082   -1.8366 C   0  0  0  0  0  0  0  0  0  0  0  0
    0.6099   -0.8152   -1.2411 C   0  0  0  0  0  0  0  0  0  0  0  0
   -0.5730   -0.1515   -1.6087 O   0  0  0  0  0  0  0  0  0  0  0  0
   -0.6438    1.1665   -1.1278 C   0  0  0  0  0  3  0  0  0  0  0  0
   -1.9471    1.7843   -1.5786 C   0  0  0  0  0  0  0  0  0  0  0  0
    1.4920   -1.6939   -3.7491 H   0  0  0  0  0  0  0  0  0  0  0  0
   -0.2728   -1.6985   -3.7456 H   0  0  0  0  0  0  0  0  0  0  0  0
    0.6154   -3.2261   -3.7522 H   0  0  0  0  0  0  0  0  0  0  0  0
    1.4915   -2.7347   -1.4603 H   0  0  0  0  0  0  0  0  0  0  0  0
   -0.2644   -2.7462   -1.4613 H   0  0  0  0  0  0  0  0  0  0  0  0
    1.4841   -0.2501   -1.6015 H   0  0  0  0  0  0  0  0  0  0  0  0
    0.6847   -0.8691   -0.1451 H   0  0  0  0  0  0  0  0  0  0  0  0
   -0.5631    1.1699    0.1899 H   0  0  0  0  0  0  0  0  0  0  0  0
    0.2091    1.7495   -1.5057 H   0  0  0  0  0  0  0  0  0  0  0  0
   -2.7934    1.2149   -1.1929 H   0  0  0  0  0  0  0  0  0  0  0  0
   -2.0079    1.7961   -2.6675 H   0  0  0  0  0  0  0  0  0  0  0  0
   -2.0247    2.8103   -1.2156 H   0  0  0  0  0  0  0  0  0  0  0  0
  1  2  1  0
  1  5  1  0
  1  6  1  0
  1 22  1  0
  2  3  1  0
  2  7  1  0
  2  8  1  0
  3  4  2  0
  9 10  1  0
  9 15  1  0
  9 16  1  0
  9 17  1  0
 10 11  1  0
 10 18  1  0
 10 19  1  0
 11 12  1  0
 11 20  1  0
 11 21  1  0
 12 13  1  0
 13 14  1  0
 13 23  1  0
 14 24  1  0
 14 25  1  0
 14 26  1  0
M  RAD  1  13   2
M  END
>  <reaction>  (18) 
rmg_rxn_288

>  <mol_properties>  (18) 
{"0": {"label": "*3", "atom_type": "Cs"}, "1": {"label": "*4", "atom_type": "Cs"}, "11": {"label": "*0", "atom_type": "O2s"}, "12": {"label": "*1", "atom_type": "Cs"}, "21": {"label": "*2", "atom_type": "H0"}}

>  <type>  (18) 
unop_14

>  <geom_source>  (18) 
gaussian_log

$$$$
