
     RDKit          3D

 10  9  0  0  0  0  0  0  0  0999 V2000
   -1.1906   -0.0419   -0.0385 C   0  0  0  0  0  0  0  0  0  0  0  0
    0.2513    0.4500    0.0348 C   0  0  0  0  0  0  0  0  0  0  0  0
    1.2500   -0.5694    0.3278 N   0  0  0  0  0  0  0  0  0  0  0  0
   -1.4965   -0.4905    0.9100 H   0  0  0  0  0  0  0  0  0  0  0  0
   -1.3035   -0.7985   -0.8190 H   0  0  0  0  0  0  0  0  0  0  0  0
   -1.8789    0.7769   -0.2612 H   0  0  0  0  0  0  0  0  0  0  0  0
    0.3352    1.2278    0.7979 H   0  0  0  0  0  0  0  0  0  0  0  0
    0.5259    0.9233   -0.9113 H   0  0  0  0  0  0  0  0  0  0  0  0
    1.2298   -1.2971   -0.3752 H   0  0  0  0  0  0  0  0  0  0  0  0
    1.0523   -1.0138    1.2153 H   0  0  0  0  0  0  0  0  0  0  0  0
  1  2  1  0
  1  4  1  0
  1  5  1  0
  1  6  1  0
  2  3  1  0
  2  7  1  0
  2  8  1  0
  3  9  1  0
  3 10  1  0
M  END
>  <reaction>  (1) 
rmg_rxn_15478

>  <mol_properties>  (1) 
{"0": {"label": "donator", "atom_type": "Cs"}, "3": {"label": "d_hydrogen", "atom_type": "H0"}}

>  <type>  (1) 
r1h

$$$$

     RDKit          3D

  5  4  0  0  0  0  0  0  0  0999 V2000
    0.8934    0.3742    0.4948 O   0  0  0  0  0  0  0  0  0  0  0  0
    0.1582   -0.1610   -0.5904 N   0  0  0  0  0  0  0  0  0  0  0  0
   -1.0297   -0.3739   -0.4689 C   0  0  0  0  0  3  0  0  0  0  0  0
    1.7805    0.4382    0.1306 H   0  0  0  0  0  0  0  0  0  0  0  0
   -1.8023   -0.2775    0.2859 H   0  0  0  0  0  0  0  0  0  0  0  0
  1  2  1  0
  1  4  1  0
  2  3  2  3
  3  5  1  0
M  RAD  1   3   2
M  END
>  <reaction>  (2) 
rmg_rxn_15478

>  <mol_properties>  (2) 
{"2": {"label": "acceptor", "atom_type": "Cd"}}

>  <type>  (2) 
r2

$$$$

     RDKit          3D

  6  5  0  0  0  0  0  0  0  0999 V2000
    1.2314    0.0428    0.5088 O   0  0  0  0  0  0  0  0  0  0  0  0
    0.2987    0.2341   -0.4915 N   0  0  0  0  0  0  0  0  0  0  0  0
   -0.8599   -0.1122   -0.1290 C   0  0  0  0  0  0  0  0  0  0  0  0
    2.0507    0.3401    0.1082 H   0  0  0  0  0  0  0  0  0  0  0  0
   -1.0700   -0.5112    0.8610 H   0  0  0  0  0  0  0  0  0  0  0  0
   -1.6509    0.0064   -0.8574 H   0  0  0  0  0  0  0  0  0  0  0  0
  1  2  1  0
  1  4  1  0
  2  3  2  3
  3  5  1  0
  3  6  1  0
M  END
>  <reaction>  (3) 
rmg_rxn_15478

>  <mol_properties>  (3) 
{"2": {"label": "acceptor", "atom_type": "Cd"}, "5": {"label": "a_hydrogen", "atom_type": "H0"}}

>  <type>  (3) 
r2h

$$$$

     RDKit          3D

 15 13  0  0  0  0  0  0  0  0999 V2000
   -2.7710   -0.3249   -0.1797 O   0  0  0  0  0  0  0  0  0  0  0  0
   -1.3886   -0.1688   -0.0378 N   0  0  0  0  0  0  0  0  0  0  0  0
   -1.0177    1.0160    0.0634 C   0  0  0  0  0  3  0  0  0  0  0  0
   -2.8741   -1.2768   -0.2506 H   0  0  0  0  0  0  0  0  0  0  0  0
   -1.6448    1.9073    0.0504 H   0  0  0  0  0  0  0  0  0  0  0  0
    1.6561    1.1618    0.1976 C   0  0  0  0  0  0  0  0  0  0  0  0
    2.1085   -0.1424   -0.4222 C   0  0  0  0  0  0  0  0  0  0  0  0
    1.6909   -1.3499    0.2710 N   0  0  0  0  0  0  0  0  0  0  0  0
    0.3779    1.1578    0.1700 H   0  0  0  0  0  0  0  0  0  0  0  0
    1.9357    2.0551   -0.3622 H   0  0  0  0  0  0  0  0  0  0  0  0
    1.8962    1.2606    1.2571 H   0  0  0  0  0  0  0  0  0  0  0  0
    3.2022   -0.1437   -0.4920 H   0  0  0  0  0  0  0  0  0  0  0  0
    1.7429   -0.2001   -1.4506 H   0  0  0  0  0  0  0  0  0  0  0  0
    0.6790   -1.3952    0.2998 H   0  0  0  0  0  0  0  0  0  0  0  0
    2.0210   -1.3440    1.2274 H   0  0  0  0  0  0  0  0  0  0  0  0
  1  2  1  0
  1  4  1  0
  2  3  2  3
  3  5  1  0
  6  7  1  0
  6  9  1  0
  6 10  1  0
  6 11  1  0
  7  8  1  0
  7 12  1  0
  7 13  1  0
  8 14  1  0
  8 15  1  0
M  RAD  1   3   2
M  END
>  <reaction>  (4) 
rmg_rxn_15478

>  <mol_properties>  (4) 
{"1": {"label": "*4", "atom_type": "N3d"}, "2": {"label": "*3", "atom_type": "Cd"}, "5": {"label": "*1", "atom_type": "Cs"}, "6": {"label": "*0", "atom_type": "Cs"}, "8": {"label": "*2", "atom_type": "H0"}}

>  <type>  (4) 
ts

$$$$

     RDKit          3D

 15 13  0  0  0  0  0  0  0  0999 V2000
   -2.7777   -0.3990   -0.0703 O   0  0  0  0  0  0  0  0  0  0  0  0
   -1.3982   -0.1290    0.0352 N   0  0  0  0  0  0  0  0  0  0  0  0
   -0.9855    1.0367    0.0184 C   0  0  0  0  0  3  0  0  0  0  0  0
   -2.8397   -1.3639   -0.0411 H   0  0  0  0  0  0  0  0  0  0  0  0
   -1.5293    1.9684   -0.0697 H   0  0  0  0  0  0  0  0  0  0  0  0
    1.6313    1.1602    0.2039 C   0  0  0  0  0  0  0  0  0  0  0  0
    2.1426   -0.1189   -0.4216 C   0  0  0  0  0  0  0  0  0  0  0  0
    1.6510   -1.3414    0.1881 N   0  0  0  0  0  0  0  0  0  0  0  0
    0.3240    1.1279    0.1123 H   0  0  0  0  0  0  0  0  0  0  0  0
    1.9416    2.0560   -0.3215 H   0  0  0  0  0  0  0  0  0  0  0  0
    1.8304    1.2289    1.2690 H   0  0  0  0  0  0  0  0  0  0  0  0
    3.2402   -0.1408   -0.3612 H   0  0  0  0  0  0  0  0  0  0  0  0
    1.8723   -0.1471   -1.4812 H   0  0  0  0  0  0  0  0  0  0  0  0
    0.6397   -1.3772    0.1021 H   0  0  0  0  0  0  0  0  0  0  0  0
    1.8713   -1.3479    1.1793 H   0  0  0  0  0  0  0  0  0  0  0  0
  1  2  1  0
  1  4  1  0
  2  3  2  3
  3  5  1  0
  6  7  1  0
  6  9  1  0
  6 10  1  0
  6 11  1  0
  7  8  1  0
  7 12  1  0
  7 13  1  0
  8 14  1  0
  8 15  1  0
M  RAD  1   3   2
M  END
>  <reaction>  (5) 
rmg_rxn_15478

>  <mol_properties>  (5) 
{"1": {"label": "*4", "atom_type": "N3d"}, "2": {"label": "*3", "atom_type": "Cd"}, "5": {"label": "*1", "atom_type": "Cs"}, "6": {"label": "*0", "atom_type": "Cs"}, "8": {"label": "*2", "atom_type": "H0"}}

>  <type>  (5) 
unop_1

>  <geom_source>  (5) 
crest_best.xyz

$$$$

     RDKit          3D

 15 13  0  0  0  0  0  0  0  0999 V2000
   -1.9134    2.4243    0.5964 O   0  0  0  0  0  0  0  0  0  0  0  0
   -1.4848    1.1218    0.7607 N   0  0  0  0  0  0  0  0  0  0  0  0
   -0.7104    0.7591   -0.1679 C   0  0  0  0  0  0  0  0  0  0  0  0
   -2.4828    2.5680    1.3548 H   0  0  0  0  0  0  0  0  0  0  0  0
   -0.4305    1.4160   -0.9886 H   0  0  0  0  0  0  0  0  0  0  0  0
    1.3990   -0.6064    0.5367 C   0  0  0  0  0  3  0  0  0  0  0  0
    1.3990   -1.9820   -0.1223 C   0  0  0  0  0  0  0  0  0  0  0  0
    1.3990   -1.9820   -1.5792 N   0  0  0  0  0  0  0  0  0  0  0  0
    0.3389    0.0798    0.1826 H   0  0  0  0  0  0  0  0  0  0  0  0
    2.2824   -0.0346    0.2416 H   0  0  0  0  0  0  0  0  0  0  0  0
    1.3990   -0.6878    1.6262 H   0  0  0  0  0  0  0  0  0  0  0  0
    0.5257   -2.5483    0.2109 H   0  0  0  0  0  0  0  0  0  0  0  0
    2.2723   -2.5483    0.2109 H   0  0  0  0  0  0  0  0  0  0  0  0
    2.2116   -1.4935   -1.9332 H   0  0  0  0  0  0  0  0  0  0  0  0
    0.5864   -1.4935   -1.9332 H   0  0  0  0  0  0  0  0  0  0  0  0
  1  2  1  0
  1  4  1  0
  2  3  2  3
  3  5  1  0
  3  9  1  0
  6  7  1  0
  6 10  1  0
  6 11  1  0
  7  8  1  0
  7 12  1  0
  7 13  1  0
  8 14  1  0
  8 15  1  0
M  RAD  1   6   2
M  END
>  <reaction>  (6) 
rmg_rxn_15478

>  <mol_properties>  (6) 
{"1": {"label": "*4", "atom_type": "N3d"}, "2": {"label": "*3", "atom_type": "Cd"}, "5": {"label": "*1", "atom_type": "Cs"}, "6": {"label": "*0", "atom_type": "Cs"}, "8": {"label": "*2", "atom_type": "H0"}}

>  <type>  (6) 
unop_2

>  <geom_source>  (6) 
Heuristics

$$$$

     RDKit          3D

 15 13  0  0  0  0  0  0  0  0999 V2000
   -2.6536    1.3410   -0.0261 O   0  0  0  0  0  0  0  0  0  0  0  0
   -1.5185    0.5551   -0.0547 N   0  0  0  0  0  0  0  0  0  0  0  0
   -0.4779    1.2190    0.2099 C   0  0  0  0  0  0  0  0  0  0  0  0
   -3.3562    0.7241   -0.2401 H   0  0  0  0  0  0  0  0  0  0  0  0
   -0.5020    2.2841    0.4307 H   0  0  0  0  0  0  0  0  0  0  0  0
    1.6314   -0.1464    0.9144 C   0  0  0  0  0  3  0  0  0  0  0  0
    1.6314   -1.5220    0.2554 C   0  0  0  0  0  0  0  0  0  0  0  0
    1.6314   -1.5220   -1.2015 N   0  0  0  0  0  0  0  0  0  0  0  0
    0.5714    0.5398    0.5603 H   0  0  0  0  0  0  0  0  0  0  0  0
    2.5148    0.4254    0.6193 H   0  0  0  0  0  0  0  0  0  0  0  0
    1.6315   -0.2278    2.0039 H   0  0  0  0  0  0  0  0  0  0  0  0
    0.7582   -2.0883    0.5886 H   0  0  0  0  0  0  0  0  0  0  0  0
    2.5047   -2.0883    0.5886 H   0  0  0  0  0  0  0  0  0  0  0  0
    2.4440   -1.0335   -1.5555 H   0  0  0  0  0  0  0  0  0  0  0  0
    0.8188   -1.0335   -1.5555 H   0  0  0  0  0  0  0  0  0  0  0  0
  1  2  1  0
  1  4  1  0
  2  3  2  3
  3  5  1  0
  3  9  1  0
  6  7  1  0
  6 10  1  0
  6 11  1  0
  7  8  1  0
  7 12  1  0
  7 13  1  0
  8 14  1  0
  8 15  1  0
M  RAD  1   6   2
M  END
>  <reaction>  (7) 
rmg_rxn_15478

>  <mol_properties>  (7) 
{"1": {"label": "*4", "atom_type": "N3d"}, "2": {"label": "*3", "atom_type": "Cd"}, "5": {"label": "*1", "atom_type": "Cs"}, "6": {"label": "*0", "atom_type": "Cs"}, "8": {"label": "*2", "atom_type": "H0"}}

>  <type>  (7) 
unop_3

>  <geom_source>  (7) 
Heuristics

$$$$

     RDKit          3D

 15 13  0  0  0  0  0  0  0  0999 V2000
   -1.7971    2.5735    0.1788 O   0  0  0  0  0  0  0  0  0  0  0  0
   -1.2419    1.4673    0.7915 N   0  0  0  0  0  0  0  0  0  0  0  0
   -0.8020    0.6338   -0.0482 C   0  0  0  0  0  0  0  0  0  0  0  0
   -2.0857    3.1143    0.9165 H   0  0  0  0  0  0  0  0  0  0  0  0
   -0.8659    0.7938   -1.1224 H   0  0  0  0  0  0  0  0  0  0  0  0
    1.3074   -0.7317    0.6563 C   0  0  0  0  0  3  0  0  0  0  0  0
    1.3074   -2.1072   -0.0027 C   0  0  0  0  0  0  0  0  0  0  0  0
    1.3074   -2.1072   -1.4596 N   0  0  0  0  0  0  0  0  0  0  0  0
    0.2474   -0.0455    0.3022 H   0  0  0  0  0  0  0  0  0  0  0  0
    2.1908   -0.1598    0.3613 H   0  0  0  0  0  0  0  0  0  0  0  0
    1.3074   -0.8131    1.7458 H   0  0  0  0  0  0  0  0  0  0  0  0
    0.4342   -2.6736    0.3305 H   0  0  0  0  0  0  0  0  0  0  0  0
    2.1807   -2.6736    0.3305 H   0  0  0  0  0  0  0  0  0  0  0  0
    2.1200   -1.6188   -1.8136 H   0  0  0  0  0  0  0  0  0  0  0  0
    0.4948   -1.6188   -1.8136 H   0  0  0  0  0  0  0  0  0  0  0  0
  1  2  1  0
  1  4  1  0
  2  3  2  3
  3  5  1  0
  3  9  1  0
  6  7  1  0
  6 10  1  0
  6 11  1  0
  7  8  1  0
  7 12  1  0
  7 13  1  0
  8 14  1  0
  8 15  1  0
M  RAD  1   6   2
M  END
>  <reaction>  (8) 
rmg_rxn_15478

>  <mol_properties>  (8) 
{"1": {"label": "*4", "atom_type": "N3d"}, "2": {"label": "*3", "atom_type": "Cd"}, "5": {"label": "*1", "atom_type": "Cs"}, "6": {"label": "*0", "atom_type": "Cs"}, "8": {"label": "*2", "atom_type": "H0"}}

>  <type>  (8) 
unop_4

>  <geom_source>  (8) 
Heuristics

$$$$

     RDKit          3D

 15 13  0  0  0  0  0  0  0  0999 V2000
   -1.6590    2.2609   -0.8679 O   0  0  0  0  0  0  0  0  0  0  0  0
   -1.0316    1.0531   -0.6341 N   0  0  0  0  0  0  0  0  0  0  0  0
   -0.8925    0.8245    0.5995 C   0  0  0  0  0  0  0  0  0  0  0  0
   -1.6998    2.3083   -1.8251 H   0  0  0  0  0  0  0  0  0  0  0  0
   -1.2360    1.5154    1.3665 H   0  0  0  0  0  0  0  0  0  0  0  0
    1.2168   -0.5409    1.3041 C   0  0  0  0  0  3  0  0  0  0  0  0
    1.2168   -1.9165    0.6451 C   0  0  0  0  0  0  0  0  0  0  0  0
    1.2168   -1.9165   -0.8118 N   0  0  0  0  0  0  0  0  0  0  0  0
    0.1568    0.1453    0.9500 H   0  0  0  0  0  0  0  0  0  0  0  0
    2.1002    0.0309    1.0090 H   0  0  0  0  0  0  0  0  0  0  0  0
    1.2168   -0.6224    2.3936 H   0  0  0  0  0  0  0  0  0  0  0  0
    0.3436   -2.4828    0.9783 H   0  0  0  0  0  0  0  0  0  0  0  0
    2.0901   -2.4828    0.9783 H   0  0  0  0  0  0  0  0  0  0  0  0
    2.0294   -1.4280   -1.1658 H   0  0  0  0  0  0  0  0  0  0  0  0
    0.4042   -1.4280   -1.1658 H   0  0  0  0  0  0  0  0  0  0  0  0
  1  2  1  0
  1  4  1  0
  2  3  2  3
  3  5  1  0
  3  9  1  0
  6  7  1  0
  6 10  1  0
  6 11  1  0
  7  8  1  0
  7 12  1  0
  7 13  1  0
  8 14  1  0
  8 15  1  0
M  RAD  1   6   2
M  END
>  <reaction>  (9) 
rmg_rxn_15478

>  <mol_properties>  (9) 
{"1": {"label": "*4", "atom_type": "N3d"}, "2": {"label": "*3", "atom_type": "Cd"}, "5": {"label": "*1", "atom_type": "Cs"}, "6": {"label": "*0", "atom_type": "Cs"}, "8": {"label": "*2", "atom_type": "H0"}}

>  <type>  (9) 
unop_5

>  <geom_source>  (9) 
Heuristics

$$$$

     RDKit          3D

 15 13  0  0  0  0  0  0  0  0999 V2000
   -2.0568    2.4081    0.0906 O   0  0  0  0  0  0  0  0  0  0  0  0
   -0.9100    1.7734    0.5252 N   0  0  0  0  0  0  0  0  0  0  0  0
   -0.8000    0.6131    0.0402 C   0  0  0  0  0  0  0  0  0  0  0  0
   -2.0165    3.2620    0.5256 H   0  0  0  0  0  0  0  0  0  0  0  0
   -1.5370    0.1885   -0.6380 H   0  0  0  0  0  0  0  0  0  0  0  0
    1.3094   -0.7523    0.7447 C   0  0  0  0  0  3  0  0  0  0  0  0
    1.3094   -2.1279    0.0857 C   0  0  0  0  0  0  0  0  0  0  0  0
    1.3094   -2.1279   -1.3712 N   0  0  0  0  0  0  0  0  0  0  0  0
    0.2494   -0.0661    0.3907 H   0  0  0  0  0  0  0  0  0  0  0  0
    2.1928   -0.1805    0.4497 H   0  0  0  0  0  0  0  0  0  0  0  0
    1.3094   -0.8338    1.8342 H   0  0  0  0  0  0  0  0  0  0  0  0
    0.4361   -2.6942    0.4189 H   0  0  0  0  0  0  0  0  0  0  0  0
    2.1827   -2.6942    0.4189 H   0  0  0  0  0  0  0  0  0  0  0  0
    2.1220   -1.6394   -1.7251 H   0  0  0  0  0  0  0  0  0  0  0  0
    0.4968   -1.6394   -1.7251 H   0  0  0  0  0  0  0  0  0  0  0  0
  1  2  1  0
  1  4  1  0
  2  3  2  3
  3  5  1  0
  3  9  1  0
  6  7  1  0
  6 10  1  0
  6 11  1  0
  7  8  1  0
  7 12  1  0
  7 13  1  0
  8 14  1  0
  8 15  1  0
M  RAD  1   6   2
M  END
>  <reaction>  (10) 
rmg_rxn_15478

>  <mol_properties>  (10) 
{"1": {"label": "*4", "atom_type": "N3d"}, "2": {"label": "*3", "atom_type": "Cd"}, "5": {"label": "*1", "atom_type": "Cs"}, "6": {"label": "*0", "atom_type": "Cs"}, "8": {"label": "*2", "atom_type": "H0"}}

>  <type>  (10) 
unop_6

>  <geom_source>  (10) 
Heuristics

$$$$

     RDKit          3D

 15 13  0  0  0  0  0  0  0  0999 V2000
   -2.7787    0.3987    0.0688 O   0  0  0  0  0  0  0  0  0  0  0  0
   -1.3986    0.1295   -0.0317 N   0  0  0  0  0  0  0  0  0  0  0  0
   -0.9859   -1.0361   -0.0195 C   0  0  0  0  0  3  0  0  0  0  0  0
   -2.8408    1.3637    0.0450 H   0  0  0  0  0  0  0  0  0  0  0  0
   -1.5300   -1.9684    0.0607 H   0  0  0  0  0  0  0  0  0  0  0  0
    1.6310   -1.1605   -0.2027 C   0  0  0  0  0  0  0  0  0  0  0  0
    2.1440    0.1188    0.4208 C   0  0  0  0  0  0  0  0  0  0  0  0
    1.6518    1.3412   -0.1889 N   0  0  0  0  0  0  0  0  0  0  0  0
    0.3238   -1.1272   -0.1108 H   0  0  0  0  0  0  0  0  0  0  0  0
    1.9408   -2.0558    0.3238 H   0  0  0  0  0  0  0  0  0  0  0  0
    1.8296   -1.2309   -1.2679 H   0  0  0  0  0  0  0  0  0  0  0  0
    3.2415    0.1401    0.3582 H   0  0  0  0  0  0  0  0  0  0  0  0
    1.8757    0.1480    1.4809 H   0  0  0  0  0  0  0  0  0  0  0  0
    1.8703    1.3470   -1.1805 H   0  0  0  0  0  0  0  0  0  0  0  0
    0.6408    1.3775   -0.1010 H   0  0  0  0  0  0  0  0  0  0  0  0
  1  2  1  0
  1  4  1  0
  2  3  2  3
  3  5  1  0
  6  7  1  0
  6  9  1  0
  6 10  1  0
  6 11  1  0
  7  8  1  0
  7 12  1  0
  7 13  1  0
  8 14  1  0
  8 15  1  0
M  RAD  1   3   2
M  END
>  <reaction>  (11) 
rmg_rxn_15478

>  <mol_properties>  (11) 
{"1": {"label": "*4", "atom_type": "N3d"}, "2": {"label": "*3", "atom_type": "Cd"}, "5": {"label": "*1", "atom_type": "Cs"}, "6": {"label": "*0", "atom_type": "Cs"}, "8": {"label": "*2", "atom_type": "H0"}}

>  <type>  (11) 
unop_7

>  <geom_source>  (11) 
Heuristics

$$$$

     RDKit          3D

 15 13  0  0  0  0  0  0  0  0999 V2000
   -1.4888    2.5935   -0.4258 O   0  0  0  0  0  0  0  0  0  0  0  0
   -0.8711    1.3681   -0.5800 N   0  0  0  0  0  0  0  0  0  0  0  0
   -0.9814    0.6507    0.4528 C   0  0  0  0  0  0  0  0  0  0  0  0
   -1.3320    3.0284   -1.2662 H   0  0  0  0  0  0  0  0  0  0  0  0
   -1.5067    0.9840    1.3453 H   0  0  0  0  0  0  0  0  0  0  0  0
    1.1280   -0.7148    1.1574 C   0  0  0  0  0  3  0  0  0  0  0  0
    1.1280   -2.0903    0.4984 C   0  0  0  0  0  0  0  0  0  0  0  0
    1.1280   -2.0903   -0.9585 N   0  0  0  0  0  0  0  0  0  0  0  0
    0.0680   -0.0286    0.8033 H   0  0  0  0  0  0  0  0  0  0  0  0
    2.0114   -0.1429    0.8623 H   0  0  0  0  0  0  0  0  0  0  0  0
    1.1280   -0.7962    2.2469 H   0  0  0  0  0  0  0  0  0  0  0  0
    0.2548   -2.6567    0.8316 H   0  0  0  0  0  0  0  0  0  0  0  0
    2.0013   -2.6567    0.8316 H   0  0  0  0  0  0  0  0  0  0  0  0
    1.9406   -1.6019   -1.3125 H   0  0  0  0  0  0  0  0  0  0  0  0
    0.3154   -1.6019   -1.3125 H   0  0  0  0  0  0  0  0  0  0  0  0
  1  2  1  0
  1  4  1  0
  2  3  2  3
  3  5  1  0
  3  9  1  0
  6  7  1  0
  6 10  1  0
  6 11  1  0
  7  8  1  0
  7 12  1  0
  7 13  1  0
  8 14  1  0
  8 15  1  0
M  RAD  1   6   2
M  END
>  <reaction>  (12) 
rmg_rxn_15478

>  <mol_properties>  (12) 
{"1": {"label": "*4", "atom_type": "N3d"}, "2": {"label": "*3", "atom_type": "Cd"}, "5": {"label": "*1", "atom_type": "Cs"}, "6": {"label": "*0", "atom_type": "Cs"}, "8": {"label": "*2", "atom_type": "H0"}}

>  <type>  (12) 
unop_8

>  <geom_source>  (12) 
Heuristics

$$$$

     RDKit          3D

 15 13  0  0  0  0  0  0  0  0999 V2000
   -2.7770    0.3988   -0.0682 O   0  0  0  0  0  0  0  0  0  0  0  0
   -1.3974    0.1283    0.0336 N   0  0  0  0  0  0  0  0  0  0  0  0
   -0.9849   -1.0374    0.0157 C   0  0  0  0  0  3  0  0  0  0  0  0
   -2.8384    1.3637   -0.0402 H   0  0  0  0  0  0  0  0  0  0  0  0
   -1.5290   -1.9691   -0.0707 H   0  0  0  0  0  0  0  0  0  0  0  0
    1.6317   -1.1597    0.2050 C   0  0  0  0  0  0  0  0  0  0  0  0
    2.1435    0.1194   -0.4197 C   0  0  0  0  0  0  0  0  0  0  0  0
    1.6477    1.3419    0.1867 N   0  0  0  0  0  0  0  0  0  0  0  0
    0.3246   -1.1284    0.1102 H   0  0  0  0  0  0  0  0  0  0  0  0
    1.8280   -1.2276    1.2708 H   0  0  0  0  0  0  0  0  0  0  0  0
    1.9441   -2.0556   -0.3190 H   0  0  0  0  0  0  0  0  0  0  0  0
    1.8774    0.1461   -1.4804 H   0  0  0  0  0  0  0  0  0  0  0  0
    3.2409    0.1430   -0.3550 H   0  0  0  0  0  0  0  0  0  0  0  0
    1.8654    1.3505    1.1784 H   0  0  0  0  0  0  0  0  0  0  0  0
    0.6367    1.3753    0.0979 H   0  0  0  0  0  0  0  0  0  0  0  0
  1  2  1  0
  1  4  1  0
  2  3  2  3
  3  5  1  0
  6  7  1  0
  6  9  1  0
  6 10  1  0
  6 11  1  0
  7  8  1  0
  7 12  1  0
  7 13  1  0
  8 14  1  0
  8 15  1  0
M  RAD  1   3   2
M  END
>  <reaction>  (13) 
rmg_rxn_15478

>  <mol_properties>  (13) 
{"1": {"label": "*4", "atom_type": "N3d"}, "2": {"label": "*3", "atom_type": "Cd"}, "5": {"label": "*1", "atom_type": "Cs"}, "6": {"label": "*0", "atom_type": "Cs"}, "8": {"label": "*2", "atom_type": "H0"}}

>  <type>  (13) 
unop_9

>  <geom_source>  (13) 
Heuristics

$$$$

     RDKit          3D

 15 13  0  0  0  0  0  0  0  0999 V2000
   -1.5956    2.6606    0.1030 O   0  0  0  0  0  0  0  0  0  0  0  0
   -0.7657    1.6566   -0.3557 N   0  0  0  0  0  0  0  0  0  0  0  0
   -0.9734    0.5635    0.2404 C   0  0  0  0  0  0  0  0  0  0  0  0
   -1.3374    3.4198   -0.4234 H   0  0  0  0  0  0  0  0  0  0  0  0
   -1.7242    0.4538    1.0200 H   0  0  0  0  0  0  0  0  0  0  0  0
    1.1360   -0.8020    0.9449 C   0  0  0  0  0  3  0  0  0  0  0  0
    1.1360   -2.1775    0.2859 C   0  0  0  0  0  0  0  0  0  0  0  0
    1.1360   -2.1775   -1.1710 N   0  0  0  0  0  0  0  0  0  0  0  0
    0.0760   -0.1158    0.5909 H   0  0  0  0  0  0  0  0  0  0  0  0
    2.0194   -0.2301    0.6499 H   0  0  0  0  0  0  0  0  0  0  0  0
    1.1360   -0.8834    2.0344 H   0  0  0  0  0  0  0  0  0  0  0  0
    0.2627   -2.7439    0.6191 H   0  0  0  0  0  0  0  0  0  0  0  0
    2.0093   -2.7439    0.6191 H   0  0  0  0  0  0  0  0  0  0  0  0
    1.9486   -1.6891   -1.5249 H   0  0  0  0  0  0  0  0  0  0  0  0
    0.3234   -1.6891   -1.5249 H   0  0  0  0  0  0  0  0  0  0  0  0
  1  2  1  0
  1  4  1  0
  2  3  2  3
  3  5  1  0
  3  9  1  0
  6  7  1  0
  6 10  1  0
  6 11  1  0
  7  8  1  0
  7 12  1  0
  7 13  1  0
  8 14  1  0
  8 15  1  0
M  RAD  1   6   2
M  END
>  <reaction>  (14) 
rmg_rxn_15478

>  <mol_properties>  (14) 
{"1": {"label": "*4", "atom_type": "N3d"}, "2": {"label": "*3", "atom_type": "Cd"}, "5": {"label": "*1", "atom_type": "Cs"}, "6": {"label": "*0", "atom_type": "Cs"}, "8": {"label": "*2", "atom_type": "H0"}}

>  <type>  (14) 
unop_10

>  <geom_source>  (14) 
Heuristics

$$$$

     RDKit          3D

 15 13  0  0  0  0  0  0  0  0999 V2000
   -2.2496    2.0277    0.7553 O   0  0  0  0  0  0  0  0  0  0  0  0
   -1.6044    0.8226    0.5585 N   0  0  0  0  0  0  0  0  0  0  0  0
   -0.5807    0.9487   -0.1692 C   0  0  0  0  0  0  0  0  0  0  0  0
   -2.9935    1.7926    1.3133 H   0  0  0  0  0  0  0  0  0  0  0  0
   -0.2669    1.9062   -0.5796 H   0  0  0  0  0  0  0  0  0  0  0  0
    1.5287   -0.4168    0.5353 C   0  0  0  0  0  3  0  0  0  0  0  0
    1.5287   -1.7923   -0.1237 C   0  0  0  0  0  0  0  0  0  0  0  0
    1.5287   -1.7923   -1.5806 N   0  0  0  0  0  0  0  0  0  0  0  0
    0.4687    0.2694    0.1812 H   0  0  0  0  0  0  0  0  0  0  0  0
    2.4121    0.1551    0.2402 H   0  0  0  0  0  0  0  0  0  0  0  0
    1.5287   -0.4982    1.6248 H   0  0  0  0  0  0  0  0  0  0  0  0
    0.6554   -2.3586    0.2095 H   0  0  0  0  0  0  0  0  0  0  0  0
    2.4020   -2.3586    0.2095 H   0  0  0  0  0  0  0  0  0  0  0  0
    2.3413   -1.3038   -1.9346 H   0  0  0  0  0  0  0  0  0  0  0  0
    0.7161   -1.3038   -1.9346 H   0  0  0  0  0  0  0  0  0  0  0  0
  1  2  1  0
  1  4  1  0
  2  3  2  3
  3  5  1  0
  3  9  1  0
  6  7  1  0
  6 10  1  0
  6 11  1  0
  7  8  1  0
  7 12  1  0
  7 13  1  0
  8 14  1  0
  8 15  1  0
M  RAD  1   6   2
M  END
>  <reaction>  (15) 
rmg_rxn_15478

>  <mol_properties>  (15) 
{"1": {"label": "*4", "atom_type": "N3d"}, "2": {"label": "*3", "atom_type": "Cd"}, "5": {"label": "*1", "atom_type": "Cs"}, "6": {"label": "*0", "atom_type": "Cs"}, "8": {"label": "*2", "atom_type": "H0"}}

>  <type>  (15) 
unop_11

>  <geom_source>  (15) 
Heuristics

$$$$

     RDKit          3D

 15 13  0  0  0  0  0  0  0  0999 V2000
   -2.7777   -0.3990   -0.0703 O   0  0  0  0  0  0  0  0  0  0  0  0
   -1.3982   -0.1290    0.0352 N   0  0  0  0  0  0  0  0  0  0  0  0
   -0.9855    1.0367    0.0184 C   0  0  0  0  0  3  0  0  0  0  0  0
   -2.8397   -1.3639   -0.0411 H   0  0  0  0  0  0  0  0  0  0  0  0
   -1.5293    1.9684   -0.0697 H   0  0  0  0  0  0  0  0  0  0  0  0
    1.6313    1.1602    0.2039 C   0  0  0  0  0  0  0  0  0  0  0  0
    2.1426   -0.1189   -0.4216 C   0  0  0  0  0  0  0  0  0  0  0  0
    1.6510   -1.3414    0.1881 N   0  0  0  0  0  0  0  0  0  0  0  0
    0.3240    1.1279    0.1123 H   0  0  0  0  0  0  0  0  0  0  0  0
    1.9416    2.0560   -0.3215 H   0  0  0  0  0  0  0  0  0  0  0  0
    1.8304    1.2289    1.2690 H   0  0  0  0  0  0  0  0  0  0  0  0
    3.2402   -0.1408   -0.3612 H   0  0  0  0  0  0  0  0  0  0  0  0
    1.8723   -0.1471   -1.4812 H   0  0  0  0  0  0  0  0  0  0  0  0
    0.6397   -1.3772    0.1021 H   0  0  0  0  0  0  0  0  0  0  0  0
    1.8713   -1.3479    1.1793 H   0  0  0  0  0  0  0  0  0  0  0  0
  1  2  1  0
  1  4  1  0
  2  3  2  3
  3  5  1  0
  6  7  1  0
  6  9  1  0
  6 10  1  0
  6 11  1  0
  7  8  1  0
  7 12  1  0
  7 13  1  0
  8 14  1  0
  8 15  1  0
M  RAD  1   3   2
M  END
>  <reaction>  (16) 
rmg_rxn_15478

>  <mol_properties>  (16) 
{"1": {"label": "*4", "atom_type": "N3d"}, "2": {"label": "*3", "atom_type": "Cd"}, "5": {"label": "*1", "atom_type": "Cs"}, "6": {"label": "*0", "atom_type": "Cs"}, "8": {"label": "*2", "atom_type": "H0"}}

>  <type>  (16) 
unop_12

>  <geom_source>  (16) 
Heuristics

$$$$

     RDKit          3D

 15 13  0  0  0  0  0  0  0  0999 V2000
   -2.0434    1.7949   -0.9735 O   0  0  0  0  0  0  0  0  0  0  0  0
   -1.2085    0.7857   -0.5360 N   0  0  0  0  0  0  0  0  0  0  0  0
   -0.7349    1.0279    0.6088 C   0  0  0  0  0  0  0  0  0  0  0  0
   -2.3276    1.4891   -1.8371 H   0  0  0  0  0  0  0  0  0  0  0  0
   -0.9736    1.9333    1.1628 H   0  0  0  0  0  0  0  0  0  0  0  0
    1.3745   -0.3376    1.3134 C   0  0  0  0  0  3  0  0  0  0  0  0
    1.3745   -1.7131    0.6544 C   0  0  0  0  0  0  0  0  0  0  0  0
    1.3745   -1.7131   -0.8025 N   0  0  0  0  0  0  0  0  0  0  0  0
    0.3144    0.3486    0.9593 H   0  0  0  0  0  0  0  0  0  0  0  0
    2.2578    0.2343    1.0183 H   0  0  0  0  0  0  0  0  0  0  0  0
    1.3745   -0.4190    2.4029 H   0  0  0  0  0  0  0  0  0  0  0  0
    0.5012   -2.2794    0.9876 H   0  0  0  0  0  0  0  0  0  0  0  0
    2.2477   -2.2794    0.9876 H   0  0  0  0  0  0  0  0  0  0  0  0
    2.1871   -1.2246   -1.1565 H   0  0  0  0  0  0  0  0  0  0  0  0
    0.5619   -1.2246   -1.1565 H   0  0  0  0  0  0  0  0  0  0  0  0
  1  2  1  0
  1  4  1  0
  2  3  2  3
  3  5  1  0
  3  9  1  0
  6  7  1  0
  6 10  1  0
  6 11  1  0
  7  8  1  0
  7 12  1  0
  7 13  1  0
  8 14  1  0
  8 15  1  0
M  RAD  1   6   2
M  END
>  <reaction>  (17) 
rmg_rxn_15478

>  <mol_properties>  (17) 
{"1": {"label": "*4", "atom_type": "N3d"}, "2": {"label": "*3", "atom_type": "Cd"}, "5": {"label": "*1", "atom_type": "Cs"}, "6": {"label": "*0", "atom_type": "Cs"}, "8": {"label": "*2", "atom_type": "H0"}}

>  <type>  (17) 
unop_13

>  <geom_source>  (17) 
Heuristics

$$$$

     RDKit          3D

 15 13  0  0  0  0  0  0  0  0999 V2000
   -2.5554    1.5942    0.5238 O   0  0  0  0  0  0  0  0  0  0  0  0
   -1.6081    0.6243    0.2609 N   0  0  0  0  0  0  0  0  0  0  0  0
   -0.4870    1.1262   -0.0301 C   0  0  0  0  0  0  0  0  0  0  0  0
   -3.3432    1.0859    0.7264 H   0  0  0  0  0  0  0  0  0  0  0  0
   -0.3156    2.2000   -0.0624 H   0  0  0  0  0  0  0  0  0  0  0  0
    1.6224   -0.2393    0.6744 C   0  0  0  0  0  3  0  0  0  0  0  0
    1.6224   -1.6148    0.0154 C   0  0  0  0  0  0  0  0  0  0  0  0
    1.6224   -1.6148   -1.4415 N   0  0  0  0  0  0  0  0  0  0  0  0
    0.5623    0.4469    0.3204 H   0  0  0  0  0  0  0  0  0  0  0  0
    2.5058    0.3325    0.3794 H   0  0  0  0  0  0  0  0  0  0  0  0
    1.6224   -0.3207    1.7639 H   0  0  0  0  0  0  0  0  0  0  0  0
    0.7491   -2.1812    0.3486 H   0  0  0  0  0  0  0  0  0  0  0  0
    2.4957   -2.1812    0.3486 H   0  0  0  0  0  0  0  0  0  0  0  0
    2.4350   -1.1264   -1.7954 H   0  0  0  0  0  0  0  0  0  0  0  0
    0.8098   -1.1264   -1.7954 H   0  0  0  0  0  0  0  0  0  0  0  0
  1  2  1  0
  1  4  1  0
  2  3  2  3
  3  5  1  0
  3  9  1  0
  6  7  1  0
  6 10  1  0
  6 11  1  0
  7  8  1  0
  7 12  1  0
  7 13  1  0
  8 14  1  0
  8 15  1  0
M  RAD  1   6   2
M  END
>  <reaction>  (18) 
rmg_rxn_15478

>  <mol_properties>  (18) 
{"1": {"label": "*4", "atom_type": "N3d"}, "2": {"label": "*3", "atom_type": "Cd"}, "5": {"label": "*1", "atom_type": "Cs"}, "6": {"label": "*0", "atom_type": "Cs"}, "8": {"label": "*2", "atom_type": "H0"}}

>  <type>  (18) 
unop_14

>  <geom_source>  (18) 
Heuristics

$$$$

     RDKit          3D

 15 13  0  0  0  0  0  0  0  0999 V2000
   -1.9211    2.4812    0.3714 O   0  0  0  0  0  0  0  0  0  0  0  0
   -0.7510    1.8325    0.0292 N   0  0  0  0  0  0  0  0  0  0  0  0
   -0.8780    0.5772    0.0698 C   0  0  0  0  0  0  0  0  0  0  0  0
   -1.6892    3.4093    0.3008 H   0  0  0  0  0  0  0  0  0  0  0  0
   -1.8112    0.0906    0.3453 H   0  0  0  0  0  0  0  0  0  0  0  0
    1.2314   -0.7882    0.7743 C   0  0  0  0  0  3  0  0  0  0  0  0
    1.2314   -2.1638    0.1153 C   0  0  0  0  0  0  0  0  0  0  0  0
    1.2314   -2.1638   -1.3416 N   0  0  0  0  0  0  0  0  0  0  0  0
    0.1714   -0.1020    0.4203 H   0  0  0  0  0  0  0  0  0  0  0  0
    2.1148   -0.2164    0.4793 H   0  0  0  0  0  0  0  0  0  0  0  0
    1.2314   -0.8697    1.8638 H   0  0  0  0  0  0  0  0  0  0  0  0
    0.3581   -2.7301    0.4485 H   0  0  0  0  0  0  0  0  0  0  0  0
    2.1047   -2.7301    0.4485 H   0  0  0  0  0  0  0  0  0  0  0  0
    2.0440   -1.6753   -1.6955 H   0  0  0  0  0  0  0  0  0  0  0  0
    0.4188   -1.6753   -1.6955 H   0  0  0  0  0  0  0  0  0  0  0  0
  1  2  1  0
  1  4  1  0
  2  3  2  3
  3  5  1  0
  3  9  1  0
  6  7  1  0
  6 10  1  0
  6 11  1  0
  7  8  1  0
  7 12  1  0
  7 13  1  0
  8 14  1  0
  8 15  1  0
M  RAD  1   6   2
M  END
>  <reaction>  (19) 
rmg_rxn_15478

>  <mol_properties>  (19) 
{"1": {"label": "*4", "atom_type": "N3d"}, "2": {"label": "*3", "atom_type": "Cd"}, "5": {"label": "*1", "atom_type": "Cs"}, "6": {"label": "*0", "atom_type": "Cs"}, "8": {"label": "*2", "atom_type": "H0"}}

>  <type>  (19) 
unop_15

>  <geom_source>  (19) 
Heuristics

$$$$

     RDKit          3D

 15 13  0  0  0  0  0  0  0  0999 V2000
   -2.4536    1.4188   -0.6389 O   0  0  0  0  0  0  0  0  0  0  0  0
   -1.3753    0.6131   -0.3304 N   0  0  0  0  0  0  0  0  0  0  0  0
   -0.5718    1.1820    0.4597 C   0  0  0  0  0  0  0  0  0  0  0  0
   -2.9736    0.8754   -1.2342 H   0  0  0  0  0  0  0  0  0  0  0  0
   -0.7347    2.1892    0.8373 H   0  0  0  0  0  0  0  0  0  0  0  0
    1.5376   -0.1834    1.1642 C   0  0  0  0  0  3  0  0  0  0  0  0
    1.5376   -1.5590    0.5052 C   0  0  0  0  0  0  0  0  0  0  0  0
    1.5376   -1.5590   -0.9517 N   0  0  0  0  0  0  0  0  0  0  0  0
    0.4775    0.5028    0.8102 H   0  0  0  0  0  0  0  0  0  0  0  0
    2.4210    0.3884    0.8692 H   0  0  0  0  0  0  0  0  0  0  0  0
    1.5376   -0.2649    2.2537 H   0  0  0  0  0  0  0  0  0  0  0  0
    0.6643   -2.1253    0.8384 H   0  0  0  0  0  0  0  0  0  0  0  0
    2.4109   -2.1253    0.8384 H   0  0  0  0  0  0  0  0  0  0  0  0
    2.3502   -1.0705   -1.3056 H   0  0  0  0  0  0  0  0  0  0  0  0
    0.7250   -1.0705   -1.3056 H   0  0  0  0  0  0  0  0  0  0  0  0
  1  2  1  0
  1  4  1  0
  2  3  2  3
  3  5  1  0
  3  9  1  0
  6  7  1  0
  6 10  1  0
  6 11  1  0
  7  8  1  0
  7 12  1  0
  7 13  1  0
  8 14  1  0
  8 15  1  0
M  RAD  1   6   2
M  END
>  <reaction>  (20) 
rmg_rxn_15478

>  <mol_properties>  (20) 
{"1": {"label": "*4", "atom_type": "N3d"}, "2": {"label": "*3", "atom_type": "Cd"}, "5": {"label": "*1", "atom_type": "Cs"}, "6": {"label": "*0", "atom_type": "Cs"}, "8": {"label": "*2", "atom_type": "H0"}}

>  <type>  (20) 
unop_16

>  <geom_source>  (20) 
Heuristics

$$$$

     RDKit          3D

 15 13  0  0  0  0  0  0  0  0999 V2000
    2.5326    0.8757    0.4335 O   0  0  0  0  0  0  0  0  0  0  0  0
   -2.0935    1.0688    0.1681 N   0  0  0  0  0  0  0  0  0  0  0  0
    2.6437    0.1524   -0.7303 N   0  0  0  0  0  0  0  0  0  0  0  0
   -1.8285   -0.3659    0.2292 C   0  0  0  0  0  0  0  0  0  0  0  0
   -0.3439   -0.6409    0.4452 C   0  0  0  0  0  3  0  0  0  0  0  0
    1.6107   -0.4379   -1.2323 C   0  0  0  0  0  0  0  0  0  0  0  0
   -2.1516   -0.8374   -0.7234 H   0  0  0  0  0  0  0  0  0  0  0  0
   -2.4156   -0.8164    1.0584 H   0  0  0  0  0  0  0  0  0  0  0  0
   -1.7946    1.5050    1.0709 H   0  0  0  0  0  0  0  0  0  0  0  0
   -1.5101    1.4856   -0.5939 H   0  0  0  0  0  0  0  0  0  0  0  0
   -0.0121   -0.2295    1.4221 H   0  0  0  0  0  0  0  0  0  0  0  0
   -0.1547   -1.7349    0.4275 H   0  0  0  0  0  0  0  0  0  0  0  0
    1.7063   -1.0049   -2.1481 H   0  0  0  0  0  0  0  0  0  0  0  0
    0.4660   -0.3561   -0.6496 H   0  0  0  0  0  0  0  0  0  0  0  0
    3.3454    1.3364    0.8227 H   0  0  0  0  0  0  0  0  0  0  0  0
  1  3  1  0
  1 15  1  0
  2  4  1  0
  2  9  1  0
  2 10  1  0
  3  6  2  3
  4  5  1  0
  4  7  1  0
  4  8  1  0
  5 11  1  0
  5 12  1  0
  6 13  1  0
  6 14  1  0
M  RAD  1   5   2
M  END
>  <reaction>  (21) 
rmg_rxn_15478

>  <mol_properties>  (21) 
{"1": {"label": "*4", "atom_type": "N3d"}, "2": {"label": "*3", "atom_type": "Cd"}, "5": {"label": "*1", "atom_type": "Cs"}, "6": {"label": "*0", "atom_type": "Cs"}, "8": {"label": "*2", "atom_type": "H0"}}

>  <type>  (21) 
unop_17

>  <geom_source>  (21) 
AutoTST

$$$$

     RDKit          3D

 15 13  0  0  0  0  0  0  0  0999 V2000
   -2.6536    1.3410   -0.0261 O   0  0  0  0  0  0  0  0  0  0  0  0
   -1.5185    0.5551   -0.0547 N   0  0  0  0  0  0  0  0  0  0  0  0
   -0.4779    1.2190    0.2099 C   0  0  0  0  0  0  0  0  0  0  0  0
   -3.3562    0.7241   -0.2401 H   0  0  0  0  0  0  0  0  0  0  0  0
   -0.5020    2.2841    0.4307 H   0  0  0  0  0  0  0  0  0  0  0  0
    1.6315   -0.1464    0.9144 C   0  0  0  0  0  3  0  0  0  0  0  0
    1.6315   -1.5220    0.2554 C   0  0  0  0  0  0  0  0  0  0  0  0
    1.6315   -1.5220   -1.2015 N   0  0  0  0  0  0  0  0  0  0  0  0
    0.5714    0.5398    0.5603 H   0  0  0  0  0  0  0  0  0  0  0  0
    2.5148    0.4254    0.6193 H   0  0  0  0  0  0  0  0  0  0  0  0
    1.6315   -0.2278    2.0039 H   0  0  0  0  0  0  0  0  0  0  0  0
    0.7582   -2.0883    0.5886 H   0  0  0  0  0  0  0  0  0  0  0  0
    2.5047   -2.0883    0.5886 H   0  0  0  0  0  0  0  0  0  0  0  0
    2.4440   -1.0335   -1.5555 H   0  0  0  0  0  0  0  0  0  0  0  0
    0.8188   -1.0335   -1.5555 H   0  0  0  0  0  0  0  0  0  0  0  0
  1  2  1  0
  1  4  1  0
  2  3  2  3
  3  5  1  0
  3  9  1  0
  6  7  1  0
  6 10  1  0
  6 11  1  0
  7  8  1  0
  7 12  1  0
  7 13  1  0
  8 14  1  0
  8 15  1  0
M  RAD  1   6   2
M  END
>  <reaction>  (22) 
rmg_rxn_15478

>  <mol_properties>  (22) 
{"1": {"label": "*4", "atom_type": "N3d"}, "2": {"label": "*3", "atom_type": "Cd"}, "5": {"label": "*1", "atom_type": "Cs"}, "6": {"label": "*0", "atom_type": "Cs"}, "8": {"label": "*2", "atom_type": "H0"}}

>  <type>  (22) 
unop_18

>  <geom_source>  (22) 
gaussian_log

$$$$
