
     RDKit          3D

  9  8  0  0  0  0  0  0  0  0999 V2000
   -1.5470   -0.0755   -0.1976 C   0  0  0  0  0  0  0  0  0  0  0  0
   -0.2885    0.4507    0.1749 O   0  0  0  0  0  0  0  0  0  0  0  0
   -0.1502    1.7216   -0.3294 N   0  0  0  0  0  0  0  0  0  0  0  0
    0.9626    2.2353   -0.0219 C   0  0  0  0  0  0  0  0  0  0  0  0
   -1.6392   -0.1356   -1.2844 H   0  0  0  0  0  0  0  0  0  0  0  0
   -2.3597    0.5337    0.2044 H   0  0  0  0  0  0  0  0  0  0  0  0
   -1.5879   -1.0750    0.2318 H   0  0  0  0  0  0  0  0  0  0  0  0
    1.1497    3.2381   -0.3820 H   0  0  0  0  0  0  0  0  0  0  0  0
    1.7060    1.7101    0.5739 H   0  0  0  0  0  0  0  0  0  0  0  0
  1  2  1  0
  1  5  1  0
  1  6  1  0
  1  7  1  0
  2  3  1  0
  3  4  2  3
  4  8  1  0
  4  9  1  0
M  END
>  <reaction>  (1) 
rmg_rxn_15644

>  <mol_properties>  (1) 
{"0": {"label": "donator", "atom_type": "Cs"}, "4": {"label": "d_hydrogen", "atom_type": "H0"}}

>  <type>  (1) 
r1h

$$$$

     RDKit          3D

 13 12  0  0  0  0  0  0  0  0999 V2000
    2.4430   -0.3849    0.0540 C   0  0  0  0  0  0  0  0  0  0  0  0
    1.2567   -0.6322    0.5818 C   0  0  0  0  0  0  0  0  0  0  0  0
    0.0753    0.2775    0.5273 C   0  0  0  0  0  0  0  0  0  0  0  0
    0.3842    1.4616   -0.1714 O   0  0  0  0  0  0  0  0  0  0  0  0
   -0.6866    2.3343   -0.3126 C   0  0  0  0  0  0  0  0  0  0  0  0
   -1.2216    2.8361    0.7984 O   0  0  0  0  0  1  0  0  0  0  0  0
    3.2507   -1.0998    0.1431 H   0  0  0  0  0  0  0  0  0  0  0  0
    2.6411    0.5367   -0.4774 H   0  0  0  0  0  0  0  0  0  0  0  0
    1.0785   -1.5620    1.1139 H   0  0  0  0  0  0  0  0  0  0  0  0
   -0.2540    0.5126    1.5468 H   0  0  0  0  0  0  0  0  0  0  0  0
   -0.7614   -0.2409    0.0324 H   0  0  0  0  0  0  0  0  0  0  0  0
   -1.5299    1.8457   -0.8558 H   0  0  0  0  0  0  0  0  0  0  0  0
   -0.3398    3.1546   -0.9632 H   0  0  0  0  0  0  0  0  0  0  0  0
  1  2  2  3
  1  7  1  0
  1  8  1  0
  2  3  1  0
  2  9  1  0
  3  4  1  0
  3 10  1  0
  3 11  1  0
  4  5  1  0
  5  6  1  0
  5 12  1  0
  5 13  1  0
M  RAD  1   6   2
M  END
>  <reaction>  (2) 
rmg_rxn_15644

>  <mol_properties>  (2) 
{"5": {"label": "acceptor", "atom_type": "O2s"}}

>  <type>  (2) 
r2

$$$$

     RDKit          3D

 14 13  0  0  0  0  0  0  0  0999 V2000
   -2.6591   -0.0450    0.7000 C   0  0  0  0  0  0  0  0  0  0  0  0
   -1.3737    0.0499    0.9953 C   0  0  0  0  0  0  0  0  0  0  0  0
   -0.2409   -0.3751    0.1081 C   0  0  0  0  0  0  0  0  0  0  0  0
   -0.6541   -1.0253   -1.0741 O   0  0  0  0  0  0  0  0  0  0  0  0
   -0.8556   -2.4003   -0.9287 C   0  0  0  0  0  0  0  0  0  0  0  0
    0.3393   -3.1125   -0.7901 O   0  0  0  0  0  0  0  0  0  0  0  0
   -2.9891   -0.4550   -0.2467 H   0  0  0  0  0  0  0  0  0  0  0  0
   -3.4198    0.2910    1.3925 H   0  0  0  0  0  0  0  0  0  0  0  0
   -1.0669    0.4739    1.9478 H   0  0  0  0  0  0  0  0  0  0  0  0
    0.4535   -1.0117    0.6689 H   0  0  0  0  0  0  0  0  0  0  0  0
    0.3247    0.5078   -0.2023 H   0  0  0  0  0  0  0  0  0  0  0  0
   -1.4079   -2.7062   -1.8216 H   0  0  0  0  0  0  0  0  0  0  0  0
   -1.4388   -2.6266   -0.0318 H   0  0  0  0  0  0  0  0  0  0  0  0
    0.8543   -2.9921   -1.5911 H   0  0  0  0  0  0  0  0  0  0  0  0
  1  2  2  3
  1  7  1  0
  1  8  1  0
  2  3  1  0
  2  9  1  0
  3  4  1  0
  3 10  1  0
  3 11  1  0
  4  5  1  0
  5  6  1  0
  5 12  1  0
  5 13  1  0
  6 14  1  0
M  END
>  <reaction>  (3) 
rmg_rxn_15644

>  <mol_properties>  (3) 
{"0": {"label": "a_hydrogen", "atom_type": "H0"}, "6": {"label": "acceptor", "atom_type": "O2s"}}

>  <type>  (3) 
r2h

$$$$

     RDKit          3D

 22 20  0  0  0  0  0  0  0  0999 V2000
   -1.5628    2.0962    0.8862 C   0  0  0  0  0  0  0  0  0  0  0  0
   -1.4440    2.0040   -0.4821 O   0  0  0  0  0  0  0  0  0  0  0  0
   -2.2163    0.9584   -0.9743 N   0  0  0  0  0  0  0  0  0  0  0  0
   -1.8273    0.6113   -2.1230 C   0  0  0  0  0  0  0  0  0  0  0  0
   -0.7647    1.3275    1.4170 H   0  0  0  0  0  0  0  0  0  0  0  0
   -2.5441    1.7906    1.2490 H   0  0  0  0  0  0  0  0  0  0  0  0
   -1.2561    3.0932    1.1961 H   0  0  0  0  0  0  0  0  0  0  0  0
   -2.3904   -0.1794   -2.6012 H   0  0  0  0  0  0  0  0  0  0  0  0
   -0.9717    1.0630   -2.6170 H   0  0  0  0  0  0  0  0  0  0  0  0
    2.8372   -2.2601   -0.4389 C   0  0  0  0  0  0  0  0  0  0  0  0
    1.7168   -2.6545    0.1429 C   0  0  0  0  0  0  0  0  0  0  0  0
    0.4609   -1.8411    0.2572 C   0  0  0  0  0  0  0  0  0  0  0  0
    0.5906   -0.5216   -0.2154 O   0  0  0  0  0  0  0  0  0  0  0  0
    1.0596    0.3928    0.7442 C   0  0  0  0  0  0  0  0  0  0  0  0
    0.2414    0.5642    1.8210 O   0  0  0  0  0  1  0  0  0  0  0  0
    3.7035   -2.9071   -0.4862 H   0  0  0  0  0  0  0  0  0  0  0  0
    2.9180   -1.2792   -0.8916 H   0  0  0  0  0  0  0  0  0  0  0  0
    1.6559   -3.6469    0.5820 H   0  0  0  0  0  0  0  0  0  0  0  0
    0.1108   -1.8390    1.2959 H   0  0  0  0  0  0  0  0  0  0  0  0
   -0.3300   -2.3116   -0.3341 H   0  0  0  0  0  0  0  0  0  0  0  0
    1.2205    1.3237    0.1870 H   0  0  0  0  0  0  0  0  0  0  0  0
    2.0255    0.0568    1.1578 H   0  0  0  0  0  0  0  0  0  0  0  0
  1  2  1  0
  1  5  1  0
  1  6  1  0
  1  7  1  0
  2  3  1  0
  3  4  2  3
  4  8  1  0
  4  9  1  0
 10 11  2  3
 10 16  1  0
 10 17  1  0
 11 12  1  0
 11 18  1  0
 12 13  1  0
 12 19  1  0
 12 20  1  0
 13 14  1  0
 14 15  1  0
 14 21  1  0
 14 22  1  0
M  RAD  1  15   2
M  END
>  <reaction>  (4) 
rmg_rxn_15644

>  <mol_properties>  (4) 
{"0": {"label": "*1", "atom_type": "Cs"}, "1": {"label": "*0", "atom_type": "O2s"}, "4": {"label": "*2", "atom_type": "H0"}, "13": {"label": "*4", "atom_type": "Cs"}, "14": {"label": "*3", "atom_type": "O2s"}}

>  <type>  (4) 
ts

$$$$

     RDKit          3D

 22 20  0  0  0  0  0  0  0  0999 V2000
    1.3596   -1.5400   -0.4055 C   0  0  0  0  0  3  0  0  0  0  0  0
    1.8683   -0.4116   -0.9953 O   0  0  0  0  0  0  0  0  0  0  0  0
    2.5815    0.4929   -0.2900 N   0  0  0  0  0  0  0  0  0  0  0  0
    2.5314    0.5398    0.9693 C   0  0  0  0  0  0  0  0  0  0  0  0
    0.3171   -1.2175    0.3594 H   0  0  0  0  0  0  0  0  0  0  0  0
    2.0270   -2.0329    0.3004 H   0  0  0  0  0  0  0  0  0  0  0  0
    0.9637   -2.1798   -1.1852 H   0  0  0  0  0  0  0  0  0  0  0  0
    3.1418    1.2942    1.4343 H   0  0  0  0  0  0  0  0  0  0  0  0
    1.9024   -0.0793    1.6027 H   0  0  0  0  0  0  0  0  0  0  0  0
   -0.6318    2.3416    0.4140 C   0  0  0  0  0  0  0  0  0  0  0  0
   -0.9538    1.4153   -0.4681 C   0  0  0  0  0  0  0  0  0  0  0  0
   -2.2701    0.6972   -0.5001 C   0  0  0  0  0  0  0  0  0  0  0  0
   -2.1341   -0.7152   -0.5693 O   0  0  0  0  0  0  0  0  0  0  0  0
   -1.7475   -1.3223    0.6289 C   0  0  0  0  0  0  0  0  0  0  0  0
   -0.5282   -0.9579    1.1076 O   0  0  0  0  0  0  0  0  0  0  0  0
    0.3242    2.8365    0.3920 H   0  0  0  0  0  0  0  0  0  0  0  0
   -1.3115    2.6438    1.1941 H   0  0  0  0  0  0  0  0  0  0  0  0
   -0.2592    1.1156   -1.2410 H   0  0  0  0  0  0  0  0  0  0  0  0
   -2.8119    0.9637   -1.4141 H   0  0  0  0  0  0  0  0  0  0  0  0
   -2.8786    0.9715    0.3732 H   0  0  0  0  0  0  0  0  0  0  0  0
   -1.8154   -2.4048    0.4231 H   0  0  0  0  0  0  0  0  0  0  0  0
   -2.4672   -1.0712    1.4339 H   0  0  0  0  0  0  0  0  0  0  0  0
  1  2  1  0
  1  6  1  0
  1  7  1  0
  2  3  1  0
  3  4  2  3
  4  8  1  0
  4  9  1  0
  5 15  1  0
 10 11  2  3
 10 16  1  0
 10 17  1  0
 11 12  1  0
 11 18  1  0
 12 13  1  0
 12 19  1  0
 12 20  1  0
 13 14  1  0
 14 15  1  0
 14 21  1  0
 14 22  1  0
M  RAD  1   1   2
M  END
>  <reaction>  (5) 
rmg_rxn_15644

>  <mol_properties>  (5) 
{"0": {"label": "*1", "atom_type": "Cs"}, "1": {"label": "*0", "atom_type": "O2s"}, "4": {"label": "*2", "atom_type": "H0"}, "13": {"label": "*4", "atom_type": "Cs"}, "14": {"label": "*3", "atom_type": "O2s"}}

>  <type>  (5) 
unop_1

>  <geom_source>  (5) 
crest_best.xyz

$$$$

     RDKit          3D

 22 20  0  0  0  0  0  0  0  0999 V2000
   -2.4461    0.4855   -0.2996 C   0  0  0  0  0  3  0  0  0  0  0  0
   -2.4461    0.5435   -1.7125 O   0  0  0  0  0  0  0  0  0  0  0  0
   -2.4461   -0.7304   -2.2282 N   0  0  0  0  0  0  0  0  0  0  0  0
   -2.4461   -0.7304   -3.4918 C   0  0  0  0  0  0  0  0  0  0  0  0
   -1.3755   -0.1266    0.1445 H   0  0  0  0  0  0  0  0  0  0  0  0
   -3.3382   -0.0246    0.0705 H   0  0  0  0  0  0  0  0  0  0  0  0
   -2.4461    1.5204    0.0382 H   0  0  0  0  0  0  0  0  0  0  0  0
   -2.4461   -1.6975   -3.9767 H   0  0  0  0  0  0  0  0  0  0  0  0
   -2.4461    0.1861   -4.0780 H   0  0  0  0  0  0  0  0  0  0  0  0
    3.2831    0.5012    2.8670 C   0  0  0  0  0  0  0  0  0  0  0  0
    3.3561   -0.2769    1.8002 C   0  0  0  0  0  0  0  0  0  0  0  0
    2.4652   -0.1924    0.5960 C   0  0  0  0  0  0  0  0  0  0  0  0
    1.4136    0.7391    0.7276 O   0  0  0  0  0  0  0  0  0  0  0  0
    0.2713    0.2266    1.3481 C   0  0  0  0  0  0  0  0  0  0  0  0
   -0.4348   -0.6645    0.5347 O   0  0  0  0  0  0  0  0  0  0  0  0
    3.9687    0.3823    3.6957 H   0  0  0  0  0  0  0  0  0  0  0  0
    2.5396    1.2855    2.9401 H   0  0  0  0  0  0  0  0  0  0  0  0
    4.1171   -1.0509    1.7458 H   0  0  0  0  0  0  0  0  0  0  0  0
    2.0657   -1.1851    0.3573 H   0  0  0  0  0  0  0  0  0  0  0  0
    3.0562    0.1235   -0.2682 H   0  0  0  0  0  0  0  0  0  0  0  0
   -0.3313    1.1010    1.6089 H   0  0  0  0  0  0  0  0  0  0  0  0
    0.5248   -0.3363    2.2506 H   0  0  0  0  0  0  0  0  0  0  0  0
  1  2  1  0
  1  6  1  0
  1  7  1  0
  2  3  1  0
  3  4  2  3
  4  8  1  0
  4  9  1  0
  5 15  1  0
 10 11  2  3
 10 16  1  0
 10 17  1  0
 11 12  1  0
 11 18  1  0
 12 13  1  0
 12 19  1  0
 12 20  1  0
 13 14  1  0
 14 15  1  0
 14 21  1  0
 14 22  1  0
M  RAD  1   1   2
M  END
>  <reaction>  (6) 
rmg_rxn_15644

>  <mol_properties>  (6) 
{"0": {"label": "*1", "atom_type": "Cs"}, "1": {"label": "*0", "atom_type": "O2s"}, "4": {"label": "*2", "atom_type": "H0"}, "13": {"label": "*4", "atom_type": "Cs"}, "14": {"label": "*3", "atom_type": "O2s"}}

>  <type>  (6) 
unop_2

>  <geom_source>  (6) 
Heuristics

$$$$

     RDKit          3D

 22 20  0  0  0  0  0  0  0  0999 V2000
    1.3529   -1.5305   -0.4351 C   0  0  0  0  0  3  0  0  0  0  0  0
    1.8665   -0.3921   -1.0007 O   0  0  0  0  0  0  0  0  0  0  0  0
    2.5852    0.4932   -0.2766 N   0  0  0  0  0  0  0  0  0  0  0  0
    2.5377    0.5118    0.9835 C   0  0  0  0  0  0  0  0  0  0  0  0
    0.3160   -1.2173    0.3413 H   0  0  0  0  0  0  0  0  0  0  0  0
    2.0198   -2.0437    0.2566 H   0  0  0  0  0  0  0  0  0  0  0  0
    0.9499   -2.1498   -1.2277 H   0  0  0  0  0  0  0  0  0  0  0  0
    3.1519    1.2530    1.4642 H   0  0  0  0  0  0  0  0  0  0  0  0
    1.9074   -0.1190    1.6040 H   0  0  0  0  0  0  0  0  0  0  0  0
   -0.6243    2.3440    0.4094 C   0  0  0  0  0  0  0  0  0  0  0  0
   -0.9568    1.4161   -0.4670 C   0  0  0  0  0  0  0  0  0  0  0  0
   -2.2747    0.7004   -0.4846 C   0  0  0  0  0  0  0  0  0  0  0  0
   -2.1423   -0.7118   -0.5623 O   0  0  0  0  0  0  0  0  0  0  0  0
   -1.7460   -1.3262    0.6291 C   0  0  0  0  0  0  0  0  0  0  0  0
   -0.5224   -0.9653    1.0996 O   0  0  0  0  0  0  0  0  0  0  0  0
    0.3316    2.8384    0.3753 H   0  0  0  0  0  0  0  0  0  0  0  0
   -1.2956    2.6497    1.1953 H   0  0  0  0  0  0  0  0  0  0  0  0
   -0.2707    1.1141   -1.2467 H   0  0  0  0  0  0  0  0  0  0  0  0
   -2.8283    0.9723   -1.3899 H   0  0  0  0  0  0  0  0  0  0  0  0
   -2.8709    0.9718    0.3980 H   0  0  0  0  0  0  0  0  0  0  0  0
   -1.8162   -2.4074    0.4174 H   0  0  0  0  0  0  0  0  0  0  0  0
   -2.4587   -1.0794    1.4416 H   0  0  0  0  0  0  0  0  0  0  0  0
  1  2  1  0
  1  6  1  0
  1  7  1  0
  2  3  1  0
  3  4  2  3
  4  8  1  0
  4  9  1  0
  5 15  1  0
 10 11  2  3
 10 16  1  0
 10 17  1  0
 11 12  1  0
 11 18  1  0
 12 13  1  0
 12 19  1  0
 12 20  1  0
 13 14  1  0
 14 15  1  0
 14 21  1  0
 14 22  1  0
M  RAD  1   1   2
M  END
>  <reaction>  (7) 
rmg_rxn_15644

>  <mol_properties>  (7) 
{"0": {"label": "*1", "atom_type": "Cs"}, "1": {"label": "*0", "atom_type": "O2s"}, "4": {"label": "*2", "atom_type": "H0"}, "13": {"label": "*4", "atom_type": "Cs"}, "14": {"label": "*3", "atom_type": "O2s"}}

>  <type>  (7) 
unop_3

>  <geom_source>  (7) 
Heuristics

$$$$

     RDKit          3D

 22 20  0  0  0  0  0  0  0  0999 V2000
   -1.3628   -1.5400   -0.4042 C   0  0  0  0  0  3  0  0  0  0  0  0
   -1.8702   -0.4118   -0.9951 O   0  0  0  0  0  0  0  0  0  0  0  0
   -2.5803    0.4956   -0.2902 N   0  0  0  0  0  0  0  0  0  0  0  0
   -2.5275    0.5448    0.9690 C   0  0  0  0  0  0  0  0  0  0  0  0
   -0.3195   -1.2173    0.3597 H   0  0  0  0  0  0  0  0  0  0  0  0
   -0.9684   -2.1816   -1.1832 H   0  0  0  0  0  0  0  0  0  0  0  0
   -2.0303   -2.0309    0.3030 H   0  0  0  0  0  0  0  0  0  0  0  0
   -3.1355    1.3013    1.4337 H   0  0  0  0  0  0  0  0  0  0  0  0
   -1.8986   -0.0745    1.6022 H   0  0  0  0  0  0  0  0  0  0  0  0
    0.6390    2.3413    0.4136 C   0  0  0  0  0  0  0  0  0  0  0  0
    0.9557    1.4135   -0.4687 C   0  0  0  0  0  0  0  0  0  0  0  0
    2.2704    0.6927   -0.5050 C   0  0  0  0  0  0  0  0  0  0  0  0
    2.1317   -0.7196   -0.5686 O   0  0  0  0  0  0  0  0  0  0  0  0
    1.7448   -1.3214    0.6323 C   0  0  0  0  0  0  0  0  0  0  0  0
    0.5248   -0.9557    1.1083 O   0  0  0  0  0  0  0  0  0  0  0  0
   -0.3156    2.8389    0.3944 H   0  0  0  0  0  0  0  0  0  0  0  0
    1.3229    2.6437    1.1901 H   0  0  0  0  0  0  0  0  0  0  0  0
    0.2576    1.1149   -1.2389 H   0  0  0  0  0  0  0  0  0  0  0  0
    2.8838    0.9690    0.3642 H   0  0  0  0  0  0  0  0  0  0  0  0
    2.8081    0.9549   -1.4226 H   0  0  0  0  0  0  0  0  0  0  0  0
    2.4637   -1.0659    1.4366 H   0  0  0  0  0  0  0  0  0  0  0  0
    1.8136   -2.4047    0.4315 H   0  0  0  0  0  0  0  0  0  0  0  0
  1  2  1  0
  1  6  1  0
  1  7  1  0
  2  3  1  0
  3  4  2  3
  4  8  1  0
  4  9  1  0
  5 15  1  0
 10 11  2  3
 10 16  1  0
 10 17  1  0
 11 12  1  0
 11 18  1  0
 12 13  1  0
 12 19  1  0
 12 20  1  0
 13 14  1  0
 14 15  1  0
 14 21  1  0
 14 22  1  0
M  RAD  1   1   2
M  END
>  <reaction>  (8) 
rmg_rxn_15644

>  <mol_properties>  (8) 
{"0": {"label": "*1", "atom_type": "Cs"}, "1": {"label": "*0", "atom_type": "O2s"}, "4": {"label": "*2", "atom_type": "H0"}, "13": {"label": "*4", "atom_type": "Cs"}, "14": {"label": "*3", "atom_type": "O2s"}}

>  <type>  (8) 
unop_4

>  <geom_source>  (8) 
Heuristics

$$$$

     RDKit          3D

 22 20  0  0  0  0  0  0  0  0999 V2000
   -2.1602    1.4842    0.9776 C   0  0  0  0  0  3  0  0  0  0  0  0
   -2.1602    1.5421   -0.4352 O   0  0  0  0  0  0  0  0  0  0  0  0
   -2.1602    0.2683   -0.9510 N   0  0  0  0  0  0  0  0  0  0  0  0
   -2.1602    0.2683   -2.2146 C   0  0  0  0  0  0  0  0  0  0  0  0
   -1.0896    0.8720    1.4218 H   0  0  0  0  0  0  0  0  0  0  0  0
   -3.0523    0.9740    1.3478 H   0  0  0  0  0  0  0  0  0  0  0  0
   -2.1602    2.5191    1.3154 H   0  0  0  0  0  0  0  0  0  0  0  0
   -2.1602   -0.6988   -2.6994 H   0  0  0  0  0  0  0  0  0  0  0  0
   -2.1602    1.1847   -2.8008 H   0  0  0  0  0  0  0  0  0  0  0  0
    3.6055   -1.0289   -0.3484 C   0  0  0  0  0  0  0  0  0  0  0  0
    2.6938   -1.8954    0.0596 C   0  0  0  0  0  0  0  0  0  0  0  0
    1.2160   -1.6436    0.1201 C   0  0  0  0  0  0  0  0  0  0  0  0
    0.8495   -0.3165   -0.1889 O   0  0  0  0  0  0  0  0  0  0  0  0
    0.8891    0.5555    0.9021 C   0  0  0  0  0  0  0  0  0  0  0  0
   -0.1489    0.3342    1.8120 O   0  0  0  0  0  0  0  0  0  0  0  0
    4.6559   -1.2884   -0.3697 H   0  0  0  0  0  0  0  0  0  0  0  0
    3.3277   -0.0359   -0.6803 H   0  0  0  0  0  0  0  0  0  0  0  0
    2.9962   -2.8893    0.3788 H   0  0  0  0  0  0  0  0  0  0  0  0
    0.8300   -1.9242    1.1071 H   0  0  0  0  0  0  0  0  0  0  0  0
    0.7109   -2.2848   -0.6077 H   0  0  0  0  0  0  0  0  0  0  0  0
    0.8417    1.5590    0.4704 H   0  0  0  0  0  0  0  0  0  0  0  0
    1.8129    0.4376    1.4752 H   0  0  0  0  0  0  0  0  0  0  0  0
  1  2  1  0
  1  6  1  0
  1  7  1  0
  2  3  1  0
  3  4  2  3
  4  8  1  0
  4  9  1  0
  5 15  1  0
 10 11  2  3
 10 16  1  0
 10 17  1  0
 11 12  1  0
 11 18  1  0
 12 13  1  0
 12 19  1  0
 12 20  1  0
 13 14  1  0
 14 15  1  0
 14 21  1  0
 14 22  1  0
M  RAD  1   1   2
M  END
>  <reaction>  (9) 
rmg_rxn_15644

>  <mol_properties>  (9) 
{"0": {"label": "*1", "atom_type": "Cs"}, "1": {"label": "*0", "atom_type": "O2s"}, "4": {"label": "*2", "atom_type": "H0"}, "13": {"label": "*4", "atom_type": "Cs"}, "14": {"label": "*3", "atom_type": "O2s"}}

>  <type>  (9) 
unop_5

>  <geom_source>  (9) 
Heuristics

$$$$

     RDKit          3D

 22 20  0  0  0  0  0  0  0  0999 V2000
    1.3600   -1.5336   -0.4146 C   0  0  0  0  0  3  0  0  0  0  0  0
    1.8686   -0.4018   -0.9977 O   0  0  0  0  0  0  0  0  0  0  0  0
    2.5843    0.4971   -0.2878 N   0  0  0  0  0  0  0  0  0  0  0  0
    2.5381    0.5348    0.9720 C   0  0  0  0  0  0  0  0  0  0  0  0
    0.3209   -1.2137    0.3561 H   0  0  0  0  0  0  0  0  0  0  0  0
    2.0288   -2.0329    0.2854 H   0  0  0  0  0  0  0  0  0  0  0  0
    0.9603   -2.1670   -1.1977 H   0  0  0  0  0  0  0  0  0  0  0  0
    3.1498    1.2859    1.4406 H   0  0  0  0  0  0  0  0  0  0  0  0
    1.9113   -0.0892    1.6028 H   0  0  0  0  0  0  0  0  0  0  0  0
   -0.6488    2.3418    0.4147 C   0  0  0  0  0  0  0  0  0  0  0  0
   -0.9611    1.4122   -0.4674 C   0  0  0  0  0  0  0  0  0  0  0  0
   -2.2739    0.6880   -0.5059 C   0  0  0  0  0  0  0  0  0  0  0  0
   -2.1316   -0.7241   -0.5656 O   0  0  0  0  0  0  0  0  0  0  0  0
   -1.7417   -1.3217    0.6364 C   0  0  0  0  0  0  0  0  0  0  0  0
   -0.5207   -0.9539    1.1082 O   0  0  0  0  0  0  0  0  0  0  0  0
    0.3046    2.8417    0.3973 H   0  0  0  0  0  0  0  0  0  0  0  0
   -1.3349    2.6430    1.1895 H   0  0  0  0  0  0  0  0  0  0  0  0
   -0.2604    1.1144   -1.2355 H   0  0  0  0  0  0  0  0  0  0  0  0
   -2.8096    0.9465   -1.4258 H   0  0  0  0  0  0  0  0  0  0  0  0
   -2.8906    0.9649    0.3609 H   0  0  0  0  0  0  0  0  0  0  0  0
   -1.8102   -2.4058    0.4392 H   0  0  0  0  0  0  0  0  0  0  0  0
   -2.4587   -1.0641    1.4416 H   0  0  0  0  0  0  0  0  0  0  0  0
  1  2  1  0
  1  6  1  0
  1  7  1  0
  2  3  1  0
  3  4  2  3
  4  8  1  0
  4  9  1  0
  5 15  1  0
 10 11  2  3
 10 16  1  0
 10 17  1  0
 11 12  1  0
 11 18  1  0
 12 13  1  0
 12 19  1  0
 12 20  1  0
 13 14  1  0
 14 15  1  0
 14 21  1  0
 14 22  1  0
M  RAD  1   1   2
M  END
>  <reaction>  (10) 
rmg_rxn_15644

>  <mol_properties>  (10) 
{"0": {"label": "*1", "atom_type": "Cs"}, "1": {"label": "*0", "atom_type": "O2s"}, "4": {"label": "*2", "atom_type": "H0"}, "13": {"label": "*4", "atom_type": "Cs"}, "14": {"label": "*3", "atom_type": "O2s"}}

>  <type>  (10) 
unop_6

>  <geom_source>  (10) 
Heuristics

$$$$

     RDKit          3D

 22 20  0  0  0  0  0  0  0  0999 V2000
   -2.2011    0.4341   -0.6912 C   0  0  0  0  0  3  0  0  0  0  0  0
   -2.2011    0.4920   -2.1041 O   0  0  0  0  0  0  0  0  0  0  0  0
   -2.2011   -0.7818   -2.6199 N   0  0  0  0  0  0  0  0  0  0  0  0
   -2.2011   -0.7818   -3.8835 C   0  0  0  0  0  0  0  0  0  0  0  0
   -1.1305   -0.1781   -0.2471 H   0  0  0  0  0  0  0  0  0  0  0  0
   -3.0932   -0.0761   -0.3211 H   0  0  0  0  0  0  0  0  0  0  0  0
   -2.2011    1.4690   -0.3534 H   0  0  0  0  0  0  0  0  0  0  0  0
   -2.2011   -1.7489   -4.3683 H   0  0  0  0  0  0  0  0  0  0  0  0
   -2.2011    0.1346   -4.4696 H   0  0  0  0  0  0  0  0  0  0  0  0
    2.7884    0.1325    3.4645 C   0  0  0  0  0  0  0  0  0  0  0  0
    3.1739    0.0347    2.2034 C   0  0  0  0  0  0  0  0  0  0  0  0
    2.3655    0.4489    1.0092 C   0  0  0  0  0  0  0  0  0  0  0  0
    1.0530    0.8611    1.3229 O   0  0  0  0  0  0  0  0  0  0  0  0
    0.1286   -0.1840    1.3961 C   0  0  0  0  0  0  0  0  0  0  0  0
   -0.1898   -0.7159    0.1431 O   0  0  0  0  0  0  0  0  0  0  0  0
    3.4336   -0.1826    4.2740 H   0  0  0  0  0  0  0  0  0  0  0  0
    1.8182    0.5375    3.7253 H   0  0  0  0  0  0  0  0  0  0  0  0
    4.1561   -0.3661    1.9670 H   0  0  0  0  0  0  0  0  0  0  0  0
    2.3428   -0.3641    0.2740 H   0  0  0  0  0  0  0  0  0  0  0  0
    2.8518    1.2985    0.5218 H   0  0  0  0  0  0  0  0  0  0  0  0
   -0.7492    0.2422    1.8897 H   0  0  0  0  0  0  0  0  0  0  0  0
    0.5174   -1.0219    1.9813 H   0  0  0  0  0  0  0  0  0  0  0  0
  1  2  1  0
  1  6  1  0
  1  7  1  0
  2  3  1  0
  3  4  2  3
  4  8  1  0
  4  9  1  0
  5 15  1  0
 10 11  2  3
 10 16  1  0
 10 17  1  0
 11 12  1  0
 11 18  1  0
 12 13  1  0
 12 19  1  0
 12 20  1  0
 13 14  1  0
 14 15  1  0
 14 21  1  0
 14 22  1  0
M  RAD  1   1   2
M  END
>  <reaction>  (11) 
rmg_rxn_15644

>  <mol_properties>  (11) 
{"0": {"label": "*1", "atom_type": "Cs"}, "1": {"label": "*0", "atom_type": "O2s"}, "4": {"label": "*2", "atom_type": "H0"}, "13": {"label": "*4", "atom_type": "Cs"}, "14": {"label": "*3", "atom_type": "O2s"}}

>  <type>  (11) 
unop_7

>  <geom_source>  (11) 
Heuristics

$$$$

     RDKit          3D

 22 20  0  0  0  0  0  0  0  0999 V2000
   -0.6053    2.1715    0.1386 C   0  0  0  0  0  3  0  0  0  0  0  0
   -0.6053    2.2294   -1.2743 O   0  0  0  0  0  0  0  0  0  0  0  0
   -0.6053    0.9555   -1.7900 N   0  0  0  0  0  0  0  0  0  0  0  0
   -0.6053    0.9555   -3.0536 C   0  0  0  0  0  0  0  0  0  0  0  0
    0.4653    1.5593    0.5827 H   0  0  0  0  0  0  0  0  0  0  0  0
   -1.4974    1.6613    0.5088 H   0  0  0  0  0  0  0  0  0  0  0  0
   -0.6053    3.2064    0.4764 H   0  0  0  0  0  0  0  0  0  0  0  0
   -0.6053   -0.0116   -3.5384 H   0  0  0  0  0  0  0  0  0  0  0  0
   -0.6053    1.8720   -3.6398 H   0  0  0  0  0  0  0  0  0  0  0  0
    0.3462   -3.3843    1.2687 C   0  0  0  0  0  0  0  0  0  0  0  0
   -0.3961   -2.4578    1.8511 C   0  0  0  0  0  0  0  0  0  0  0  0
   -0.6276   -1.0701    1.3297 C   0  0  0  0  0  0  0  0  0  0  0  0
    0.1294   -0.7580    0.1805 O   0  0  0  0  0  0  0  0  0  0  0  0
    1.4122   -0.2771    0.4552 C   0  0  0  0  0  0  0  0  0  0  0  0
    1.4060    1.0214    0.9730 O   0  0  0  0  0  0  0  0  0  0  0  0
    0.4594   -4.3681    1.7051 H   0  0  0  0  0  0  0  0  0  0  0  0
    0.8572   -3.1888    0.3338 H   0  0  0  0  0  0  0  0  0  0  0  0
   -0.9069   -2.6808    2.7841 H   0  0  0  0  0  0  0  0  0  0  0  0
   -0.4352   -0.3371    2.1219 H   0  0  0  0  0  0  0  0  0  0  0  0
   -1.6791   -0.9607    1.0503 H   0  0  0  0  0  0  0  0  0  0  0  0
    1.9495   -0.3311   -0.4957 H   0  0  0  0  0  0  0  0  0  0  0  0
    1.9173   -0.8909    1.2061 H   0  0  0  0  0  0  0  0  0  0  0  0
  1  2  1  0
  1  6  1  0
  1  7  1  0
  2  3  1  0
  3  4  2  3
  4  8  1  0
  4  9  1  0
  5 15  1  0
 10 11  2  3
 10 16  1  0
 10 17  1  0
 11 12  1  0
 11 18  1  0
 12 13  1  0
 12 19  1  0
 12 20  1  0
 13 14  1  0
 14 15  1  0
 14 21  1  0
 14 22  1  0
M  RAD  1   1   2
M  END
>  <reaction>  (12) 
rmg_rxn_15644

>  <mol_properties>  (12) 
{"0": {"label": "*1", "atom_type": "Cs"}, "1": {"label": "*0", "atom_type": "O2s"}, "4": {"label": "*2", "atom_type": "H0"}, "13": {"label": "*4", "atom_type": "Cs"}, "14": {"label": "*3", "atom_type": "O2s"}}

>  <type>  (12) 
unop_8

>  <geom_source>  (12) 
Heuristics

$$$$

     RDKit          3D

 22 20  0  0  0  0  0  0  0  0999 V2000
    1.3581   -1.5370   -0.4200 C   0  0  0  0  0  3  0  0  0  0  0  0
    1.8697   -0.4036   -0.9976 O   0  0  0  0  0  0  0  0  0  0  0  0
    2.5830    0.4927   -0.2819 N   0  0  0  0  0  0  0  0  0  0  0  0
    2.5300    0.5274    0.9777 C   0  0  0  0  0  0  0  0  0  0  0  0
    0.3163   -1.2193    0.3479 H   0  0  0  0  0  0  0  0  0  0  0  0
    2.0240   -2.0385    0.2812 H   0  0  0  0  0  0  0  0  0  0  0  0
    0.9616   -2.1680   -1.2065 H   0  0  0  0  0  0  0  0  0  0  0  0
    3.1407    1.2759    1.4515 H   0  0  0  0  0  0  0  0  0  0  0  0
    1.8984   -0.0967    1.6035 H   0  0  0  0  0  0  0  0  0  0  0  0
   -0.6225    2.3420    0.4092 C   0  0  0  0  0  0  0  0  0  0  0  0
   -0.9544    1.4154   -0.4688 C   0  0  0  0  0  0  0  0  0  0  0  0
   -2.2729    0.7011   -0.4894 C   0  0  0  0  0  0  0  0  0  0  0  0
   -2.1416   -0.7114   -0.5649 O   0  0  0  0  0  0  0  0  0  0  0  0
   -1.7479   -1.3242    0.6280 C   0  0  0  0  0  0  0  0  0  0  0  0
   -0.5256   -0.9626    1.1010 O   0  0  0  0  0  0  0  0  0  0  0  0
    0.3343    2.8349    0.3779 H   0  0  0  0  0  0  0  0  0  0  0  0
   -1.2948    2.6475    1.1944 H   0  0  0  0  0  0  0  0  0  0  0  0
   -0.2672    1.1132   -1.2473 H   0  0  0  0  0  0  0  0  0  0  0  0
   -2.8236    0.9723   -1.3967 H   0  0  0  0  0  0  0  0  0  0  0  0
   -2.8715    0.9742    0.3911 H   0  0  0  0  0  0  0  0  0  0  0  0
   -1.8178   -2.4057    0.4175 H   0  0  0  0  0  0  0  0  0  0  0  0
   -2.4627   -1.0766    1.4385 H   0  0  0  0  0  0  0  0  0  0  0  0
  1  2  1  0
  1  6  1  0
  1  7  1  0
  2  3  1  0
  3  4  2  3
  4  8  1  0
  4  9  1  0
  5 15  1  0
 10 11  2  3
 10 16  1  0
 10 17  1  0
 11 12  1  0
 11 18  1  0
 12 13  1  0
 12 19  1  0
 12 20  1  0
 13 14  1  0
 14 15  1  0
 14 21  1  0
 14 22  1  0
M  RAD  1   1   2
M  END
>  <reaction>  (13) 
rmg_rxn_15644

>  <mol_properties>  (13) 
{"0": {"label": "*1", "atom_type": "Cs"}, "1": {"label": "*0", "atom_type": "O2s"}, "4": {"label": "*2", "atom_type": "H0"}, "13": {"label": "*4", "atom_type": "Cs"}, "14": {"label": "*3", "atom_type": "O2s"}}

>  <type>  (13) 
unop_9

>  <geom_source>  (13) 
Heuristics

$$$$

     RDKit          3D

 22 20  0  0  0  0  0  0  0  0999 V2000
   -1.6716    0.3745   -1.0452 C   0  0  0  0  0  3  0  0  0  0  0  0
   -1.6717    0.4324   -2.4581 O   0  0  0  0  0  0  0  0  0  0  0  0
   -1.6717   -0.8415   -2.9738 N   0  0  0  0  0  0  0  0  0  0  0  0
   -1.6717   -0.8415   -4.2374 C   0  0  0  0  0  0  0  0  0  0  0  0
   -0.6010   -0.2377   -0.6011 H   0  0  0  0  0  0  0  0  0  0  0  0
   -2.5638   -0.1357   -0.6751 H   0  0  0  0  0  0  0  0  0  0  0  0
   -1.6717    1.4094   -0.7074 H   0  0  0  0  0  0  0  0  0  0  0  0
   -1.6717   -1.8085   -4.7222 H   0  0  0  0  0  0  0  0  0  0  0  0
   -1.6717    0.0750   -4.8236 H   0  0  0  0  0  0  0  0  0  0  0  0
    2.1565    0.0739    3.8633 C   0  0  0  0  0  0  0  0  0  0  0  0
    2.4587    0.8114    2.8082 C   0  0  0  0  0  0  0  0  0  0  0  0
    1.5292    1.1376    1.6764 C   0  0  0  0  0  0  0  0  0  0  0  0
    0.2842    0.4777    1.7513 O   0  0  0  0  0  0  0  0  0  0  0  0
    0.2804   -0.7999    1.1857 C   0  0  0  0  0  0  0  0  0  0  0  0
    0.3396   -0.7756   -0.2108 O   0  0  0  0  0  0  0  0  0  0  0  0
    2.8822   -0.1113    4.6443 H   0  0  0  0  0  0  0  0  0  0  0  0
    1.1714   -0.3609    3.9810 H   0  0  0  0  0  0  0  0  0  0  0  0
    3.4510    1.2451    2.7170 H   0  0  0  0  0  0  0  0  0  0  0  0
    2.0170    0.9207    0.7189 H   0  0  0  0  0  0  0  0  0  0  0  0
    1.3153    2.2100    1.6832 H   0  0  0  0  0  0  0  0  0  0  0  0
   -0.6396   -1.2703    1.5436 H   0  0  0  0  0  0  0  0  0  0  0  0
    1.1483   -1.3823    1.5069 H   0  0  0  0  0  0  0  0  0  0  0  0
  1  2  1  0
  1  6  1  0
  1  7  1  0
  2  3  1  0
  3  4  2  3
  4  8  1  0
  4  9  1  0
  5 15  1  0
 10 11  2  3
 10 16  1  0
 10 17  1  0
 11 12  1  0
 11 18  1  0
 12 13  1  0
 12 19  1  0
 12 20  1  0
 13 14  1  0
 14 15  1  0
 14 21  1  0
 14 22  1  0
M  RAD  1   1   2
M  END
>  <reaction>  (14) 
rmg_rxn_15644

>  <mol_properties>  (14) 
{"0": {"label": "*1", "atom_type": "Cs"}, "1": {"label": "*0", "atom_type": "O2s"}, "4": {"label": "*2", "atom_type": "H0"}, "13": {"label": "*4", "atom_type": "Cs"}, "14": {"label": "*3", "atom_type": "O2s"}}

>  <type>  (14) 
unop_10

>  <geom_source>  (14) 
Heuristics

$$$$

     RDKit          3D

 22 20  0  0  0  0  0  0  0  0999 V2000
   -1.3630    1.5371   -0.4076 C   0  0  0  0  0  3  0  0  0  0  0  0
   -1.8711    0.4077   -0.9959 O   0  0  0  0  0  0  0  0  0  0  0  0
   -2.5829   -0.4968   -0.2892 N   0  0  0  0  0  0  0  0  0  0  0  0
   -2.5319   -0.5424    0.9702 C   0  0  0  0  0  0  0  0  0  0  0  0
   -0.3210    1.2154    0.3583 H   0  0  0  0  0  0  0  0  0  0  0  0
   -2.0308    2.0309    0.2972 H   0  0  0  0  0  0  0  0  0  0  0  0
   -0.9670    2.1760   -1.1881 H   0  0  0  0  0  0  0  0  0  0  0  0
   -3.1413   -1.2968    1.4363 H   0  0  0  0  0  0  0  0  0  0  0  0
   -1.9031    0.0781    1.6024 H   0  0  0  0  0  0  0  0  0  0  0  0
    0.6453   -2.3426    0.4131 C   0  0  0  0  0  0  0  0  0  0  0  0
    0.9599   -1.4131   -0.4683 C   0  0  0  0  0  0  0  0  0  0  0  0
    2.2731   -0.6898   -0.5043 C   0  0  0  0  0  0  0  0  0  0  0  0
    2.1318    0.7223   -0.5674 O   0  0  0  0  0  0  0  0  0  0  0  0
    1.7427    1.3229    0.6333 C   0  0  0  0  0  0  0  0  0  0  0  0
    0.5228    0.9551    1.1079 O   0  0  0  0  0  0  0  0  0  0  0  0
   -0.3084   -2.8419    0.3936 H   0  0  0  0  0  0  0  0  0  0  0  0
    1.3297   -2.6441    1.1893 H   0  0  0  0  0  0  0  0  0  0  0  0
    0.2610   -1.1152   -1.2381 H   0  0  0  0  0  0  0  0  0  0  0  0
    2.8116   -0.9506   -1.4219 H   0  0  0  0  0  0  0  0  0  0  0  0
    2.8870   -0.9651    0.3650 H   0  0  0  0  0  0  0  0  0  0  0  0
    1.8097    2.4065    0.4330 H   0  0  0  0  0  0  0  0  0  0  0  0
    2.4611    1.0685    1.4382 H   0  0  0  0  0  0  0  0  0  0  0  0
  1  2  1  0
  1  6  1  0
  1  7  1  0
  2  3  1  0
  3  4  2  3
  4  8  1  0
  4  9  1  0
  5 15  1  0
 10 11  2  3
 10 16  1  0
 10 17  1  0
 11 12  1  0
 11 18  1  0
 12 13  1  0
 12 19  1  0
 12 20  1  0
 13 14  1  0
 14 15  1  0
 14 21  1  0
 14 22  1  0
M  RAD  1   1   2
M  END
>  <reaction>  (15) 
rmg_rxn_15644

>  <mol_properties>  (15) 
{"0": {"label": "*1", "atom_type": "Cs"}, "1": {"label": "*0", "atom_type": "O2s"}, "4": {"label": "*2", "atom_type": "H0"}, "13": {"label": "*4", "atom_type": "Cs"}, "14": {"label": "*3", "atom_type": "O2s"}}

>  <type>  (15) 
unop_11

>  <geom_source>  (15) 
Heuristics

$$$$

     RDKit          3D

 22 20  0  0  0  0  0  0  0  0999 V2000
   -0.4121    1.8947   -0.4461 C   0  0  0  0  0  3  0  0  0  0  0  0
   -0.4121    1.9526   -1.8590 O   0  0  0  0  0  0  0  0  0  0  0  0
   -0.4121    0.6787   -2.3748 N   0  0  0  0  0  0  0  0  0  0  0  0
   -0.4121    0.6787   -3.6384 C   0  0  0  0  0  0  0  0  0  0  0  0
    0.6585    1.2825   -0.0020 H   0  0  0  0  0  0  0  0  0  0  0  0
   -1.3043    1.3845   -0.0760 H   0  0  0  0  0  0  0  0  0  0  0  0
   -0.4121    2.9296   -0.1083 H   0  0  0  0  0  0  0  0  0  0  0  0
   -0.4121   -0.2883   -4.1232 H   0  0  0  0  0  0  0  0  0  0  0  0
   -0.4121    1.5952   -4.2245 H   0  0  0  0  0  0  0  0  0  0  0  0
   -0.1236   -2.8027    2.6398 C   0  0  0  0  0  0  0  0  0  0  0  0
   -0.6054   -1.5826    2.8063 C   0  0  0  0  0  0  0  0  0  0  0  0
   -0.6779   -0.5212    1.7484 C   0  0  0  0  0  0  0  0  0  0  0  0
   -0.0601   -0.8833    0.5326 O   0  0  0  0  0  0  0  0  0  0  0  0
    1.3114   -0.6197    0.4884 C   0  0  0  0  0  0  0  0  0  0  0  0
    1.5991    0.7446    0.3882 O   0  0  0  0  0  0  0  0  0  0  0  0
   -0.1119   -3.5167    3.4529 H   0  0  0  0  0  0  0  0  0  0  0  0
    0.2671   -3.1265    1.6828 H   0  0  0  0  0  0  0  0  0  0  0  0
   -1.0008   -1.2840    3.7736 H   0  0  0  0  0  0  0  0  0  0  0  0
   -0.2497    0.4139    2.1283 H   0  0  0  0  0  0  0  0  0  0  0  0
   -1.7263   -0.3142    1.5166 H   0  0  0  0  0  0  0  0  0  0  0  0
    1.6837   -1.1764   -0.3760 H   0  0  0  0  0  0  0  0  0  0  0  0
    1.8137   -0.9604    1.3980 H   0  0  0  0  0  0  0  0  0  0  0  0
  1  2  1  0
  1  6  1  0
  1  7  1  0
  2  3  1  0
  3  4  2  3
  4  8  1  0
  4  9  1  0
  5 15  1  0
 10 11  2  3
 10 16  1  0
 10 17  1  0
 11 12  1  0
 11 18  1  0
 12 13  1  0
 12 19  1  0
 12 20  1  0
 13 14  1  0
 14 15  1  0
 14 21  1  0
 14 22  1  0
M  RAD  1   1   2
M  END
>  <reaction>  (16) 
rmg_rxn_15644

>  <mol_properties>  (16) 
{"0": {"label": "*1", "atom_type": "Cs"}, "1": {"label": "*0", "atom_type": "O2s"}, "4": {"label": "*2", "atom_type": "H0"}, "13": {"label": "*4", "atom_type": "Cs"}, "14": {"label": "*3", "atom_type": "O2s"}}

>  <type>  (16) 
unop_12

>  <geom_source>  (16) 
Heuristics

$$$$

     RDKit          3D

 22 20  0  0  0  0  0  0  0  0999 V2000
   -1.4698    1.2098    1.1827 C   0  0  0  0  0  3  0  0  0  0  0  0
   -2.1094    0.4298    0.2600 O   0  0  0  0  0  0  0  0  0  0  0  0
   -1.8197   -0.9162    0.3978 N   0  0  0  0  0  0  0  0  0  0  0  0
   -2.1858   -1.6526   -0.5578 C   0  0  0  0  0  0  0  0  0  0  0  0
   -0.2783    1.5120    0.6627 H   0  0  0  0  0  0  0  0  0  0  0  0
   -1.2138    0.7047    2.1092 H   0  0  0  0  0  0  0  0  0  0  0  0
   -1.9824    2.1591    1.2802 H   0  0  0  0  0  0  0  0  0  0  0  0
   -1.9804   -2.7036   -0.4580 H   0  0  0  0  0  0  0  0  0  0  0  0
   -2.6840   -1.2914   -1.4511 H   0  0  0  0  0  0  0  0  0  0  0  0
    2.6223   -0.7591    1.4593 C   0  0  0  0  0  0  0  0  0  0  0  0
    1.5886   -0.9513    0.6633 C   0  0  0  0  0  0  0  0  0  0  0  0
    1.6381   -0.8239   -0.8303 C   0  0  0  0  0  0  0  0  0  0  0  0
    0.5645   -0.0625   -1.3611 O   0  0  0  0  0  0  0  0  0  0  0  0
    0.6784    1.3220   -1.1662 C   0  0  0  0  0  0  0  0  0  0  0  0
    0.7191    1.7381    0.1254 O   0  0  0  0  0  0  0  0  0  0  0  0
    2.5466   -0.8715    2.5271 H   0  0  0  0  0  0  0  0  0  0  0  0
    3.5905   -0.4811    1.0759 H   0  0  0  0  0  0  0  0  0  0  0  0
    0.6165   -1.2220    1.0532 H   0  0  0  0  0  0  0  0  0  0  0  0
    1.5223   -1.8131   -1.2880 H   0  0  0  0  0  0  0  0  0  0  0  0
    2.5968   -0.3908   -1.1483 H   0  0  0  0  0  0  0  0  0  0  0  0
   -0.1772    1.7415   -1.7237 H   0  0  0  0  0  0  0  0  0  0  0  0
    1.6153    1.6898   -1.6299 H   0  0  0  0  0  0  0  0  0  0  0  0
  1  2  1  0
  1  6  1  0
  1  7  1  0
  2  3  1  0
  3  4  2  3
  4  8  1  0
  4  9  1  0
  5 15  1  0
 10 11  2  3
 10 16  1  0
 10 17  1  0
 11 12  1  0
 11 18  1  0
 12 13  1  0
 12 19  1  0
 12 20  1  0
 13 14  1  0
 14 15  1  0
 14 21  1  0
 14 22  1  0
M  RAD  1   1   2
M  END
>  <reaction>  (17) 
rmg_rxn_15644

>  <mol_properties>  (17) 
{"0": {"label": "*1", "atom_type": "Cs"}, "1": {"label": "*0", "atom_type": "O2s"}, "4": {"label": "*2", "atom_type": "H0"}, "13": {"label": "*4", "atom_type": "Cs"}, "14": {"label": "*3", "atom_type": "O2s"}}

>  <type>  (17) 
unop_13

>  <geom_source>  (17) 
Heuristics

$$$$

     RDKit          3D

 22 20  0  0  0  0  0  0  0  0999 V2000
   -0.4888    1.3884   -0.9499 C   0  0  0  0  0  3  0  0  0  0  0  0
   -0.4888    1.4463   -2.3628 O   0  0  0  0  0  0  0  0  0  0  0  0
   -0.4888    0.1724   -2.8785 N   0  0  0  0  0  0  0  0  0  0  0  0
   -0.4888    0.1724   -4.1421 C   0  0  0  0  0  0  0  0  0  0  0  0
    0.5818    0.7762   -0.5058 H   0  0  0  0  0  0  0  0  0  0  0  0
   -1.3809    0.8782   -0.5798 H   0  0  0  0  0  0  0  0  0  0  0  0
   -0.4888    2.4233   -0.6121 H   0  0  0  0  0  0  0  0  0  0  0  0
   -0.4888   -0.7947   -4.6270 H   0  0  0  0  0  0  0  0  0  0  0  0
   -0.4888    1.0889   -4.7283 H   0  0  0  0  0  0  0  0  0  0  0  0
    0.0559   -1.6840    3.7283 C   0  0  0  0  0  0  0  0  0  0  0  0
   -0.2172   -0.4221    3.4426 C   0  0  0  0  0  0  0  0  0  0  0  0
   -0.4431    0.1319    2.0667 C   0  0  0  0  0  0  0  0  0  0  0  0
   -0.2182   -0.8002    1.0315 O   0  0  0  0  0  0  0  0  0  0  0  0
    1.1133   -0.8809    0.6154 C   0  0  0  0  0  0  0  0  0  0  0  0
    1.5224    0.2383   -0.1156 O   0  0  0  0  0  0  0  0  0  0  0  0
    0.1994   -2.0091    4.7504 H   0  0  0  0  0  0  0  0  0  0  0  0
    0.1369   -2.4315    2.9485 H   0  0  0  0  0  0  0  0  0  0  0  0
   -0.3030    0.3078    4.2432 H   0  0  0  0  0  0  0  0  0  0  0  0
    0.1777    1.0231    1.9170 H   0  0  0  0  0  0  0  0  0  0  0  0
   -1.4835    0.4559    1.9748 H   0  0  0  0  0  0  0  0  0  0  0  0
    1.1740   -1.7968    0.0211 H   0  0  0  0  0  0  0  0  0  0  0  0
    1.7958   -0.9415    1.4676 H   0  0  0  0  0  0  0  0  0  0  0  0
  1  2  1  0
  1  6  1  0
  1  7  1  0
  2  3  1  0
  3  4  2  3
  4  8  1  0
  4  9  1  0
  5 15  1  0
 10 11  2  3
 10 16  1  0
 10 17  1  0
 11 12  1  0
 11 18  1  0
 12 13  1  0
 12 19  1  0
 12 20  1  0
 13 14  1  0
 14 15  1  0
 14 21  1  0
 14 22  1  0
M  RAD  1   1   2
M  END
>  <reaction>  (18) 
rmg_rxn_15644

>  <mol_properties>  (18) 
{"0": {"label": "*1", "atom_type": "Cs"}, "1": {"label": "*0", "atom_type": "O2s"}, "4": {"label": "*2", "atom_type": "H0"}, "13": {"label": "*4", "atom_type": "Cs"}, "14": {"label": "*3", "atom_type": "O2s"}}

>  <type>  (18) 
unop_14

>  <geom_source>  (18) 
Heuristics

$$$$

     RDKit          3D

 22 20  0  0  0  0  0  0  0  0999 V2000
    1.3536   -1.5383   -0.4234 C   0  0  0  0  0  3  0  0  0  0  0  0
    1.8667   -0.4042   -0.9981 O   0  0  0  0  0  0  0  0  0  0  0  0
    2.5806    0.4896   -0.2801 N   0  0  0  0  0  0  0  0  0  0  0  0
    2.5283    0.5206    0.9796 C   0  0  0  0  0  0  0  0  0  0  0  0
    0.3128   -1.2212    0.3459 H   0  0  0  0  0  0  0  0  0  0  0  0
    2.0190   -2.0430    0.2759 H   0  0  0  0  0  0  0  0  0  0  0  0
    0.9555   -2.1664   -1.2116 H   0  0  0  0  0  0  0  0  0  0  0  0
    3.1393    1.2677    1.4553 H   0  0  0  0  0  0  0  0  0  0  0  0
    1.8965   -0.1048    1.6039 H   0  0  0  0  0  0  0  0  0  0  0  0
   -0.6079    2.3398    0.4099 C   0  0  0  0  0  0  0  0  0  0  0  0
   -0.9488    1.4175   -0.4692 C   0  0  0  0  0  0  0  0  0  0  0  0
   -2.2701    0.7082   -0.4844 C   0  0  0  0  0  0  0  0  0  0  0  0
   -2.1443   -0.7045   -0.5652 O   0  0  0  0  0  0  0  0  0  0  0  0
   -1.7516   -1.3232    0.6251 C   0  0  0  0  0  0  0  0  0  0  0  0
   -0.5288   -0.9657    1.0999 O   0  0  0  0  0  0  0  0  0  0  0  0
    0.3504    2.8294    0.3740 H   0  0  0  0  0  0  0  0  0  0  0  0
   -1.2743    2.6452    1.2001 H   0  0  0  0  0  0  0  0  0  0  0  0
   -0.2674    1.1153   -1.2529 H   0  0  0  0  0  0  0  0  0  0  0  0
   -2.8249    0.9845   -1.3877 H   0  0  0  0  0  0  0  0  0  0  0  0
   -2.8626    0.9807    0.4004 H   0  0  0  0  0  0  0  0  0  0  0  0
   -1.8232   -2.4036    0.4100 H   0  0  0  0  0  0  0  0  0  0  0  0
   -2.4659   -1.0778    1.4367 H   0  0  0  0  0  0  0  0  0  0  0  0
  1  2  1  0
  1  6  1  0
  1  7  1  0
  2  3  1  0
  3  4  2  3
  4  8  1  0
  4  9  1  0
  5 15  1  0
 10 11  2  3
 10 16  1  0
 10 17  1  0
 11 12  1  0
 11 18  1  0
 12 13  1  0
 12 19  1  0
 12 20  1  0
 13 14  1  0
 14 15  1  0
 14 21  1  0
 14 22  1  0
M  RAD  1   1   2
M  END
>  <reaction>  (19) 
rmg_rxn_15644

>  <mol_properties>  (19) 
{"0": {"label": "*1", "atom_type": "Cs"}, "1": {"label": "*0", "atom_type": "O2s"}, "4": {"label": "*2", "atom_type": "H0"}, "13": {"label": "*4", "atom_type": "Cs"}, "14": {"label": "*3", "atom_type": "O2s"}}

>  <type>  (19) 
unop_15

>  <geom_source>  (19) 
Heuristics

$$$$

     RDKit          3D

 22 20  0  0  0  0  0  0  0  0999 V2000
   -2.5619    0.6308    0.1856 C   0  0  0  0  0  3  0  0  0  0  0  0
   -2.5619    0.6887   -1.2272 O   0  0  0  0  0  0  0  0  0  0  0  0
   -2.5619   -0.5852   -1.7430 N   0  0  0  0  0  0  0  0  0  0  0  0
   -2.5619   -0.5852   -3.0066 C   0  0  0  0  0  0  0  0  0  0  0  0
   -1.4913    0.0186    0.6298 H   0  0  0  0  0  0  0  0  0  0  0  0
   -3.4540    0.1206    0.5558 H   0  0  0  0  0  0  0  0  0  0  0  0
   -2.5619    1.6657    0.5235 H   0  0  0  0  0  0  0  0  0  0  0  0
   -2.5619   -1.5523   -3.4914 H   0  0  0  0  0  0  0  0  0  0  0  0
   -2.5619    0.3313   -3.5927 H   0  0  0  0  0  0  0  0  0  0  0  0
    3.7724    0.6075    1.8338 C   0  0  0  0  0  0  0  0  0  0  0  0
    3.4602   -0.5162    1.2106 C   0  0  0  0  0  0  0  0  0  0  0  0
    2.2901   -0.7079    0.2911 C   0  0  0  0  0  0  0  0  0  0  0  0
    1.4302    0.4085    0.2204 O   0  0  0  0  0  0  0  0  0  0  0  0
    0.4495    0.4377    1.2153 C   0  0  0  0  0  0  0  0  0  0  0  0
   -0.5507   -0.5193    1.0200 O   0  0  0  0  0  0  0  0  0  0  0  0
    4.6398    0.6690    2.4779 H   0  0  0  0  0  0  0  0  0  0  0  0
    3.1736    1.5020    1.7127 H   0  0  0  0  0  0  0  0  0  0  0  0
    4.0820   -1.3980    1.3403 H   0  0  0  0  0  0  0  0  0  0  0  0
    1.7281   -1.6023    0.5844 H   0  0  0  0  0  0  0  0  0  0  0  0
    2.6550   -0.8861   -0.7242 H   0  0  0  0  0  0  0  0  0  0  0  0
    0.0470    1.4541    1.1930 H   0  0  0  0  0  0  0  0  0  0  0  0
    0.8728    0.2240    2.2007 H   0  0  0  0  0  0  0  0  0  0  0  0
  1  2  1  0
  1  6  1  0
  1  7  1  0
  2  3  1  0
  3  4  2  3
  4  8  1  0
  4  9  1  0
  5 15  1  0
 10 11  2  3
 10 16  1  0
 10 17  1  0
 11 12  1  0
 11 18  1  0
 12 13  1  0
 12 19  1  0
 12 20  1  0
 13 14  1  0
 14 15  1  0
 14 21  1  0
 14 22  1  0
M  RAD  1   1   2
M  END
>  <reaction>  (20) 
rmg_rxn_15644

>  <mol_properties>  (20) 
{"0": {"label": "*1", "atom_type": "Cs"}, "1": {"label": "*0", "atom_type": "O2s"}, "4": {"label": "*2", "atom_type": "H0"}, "13": {"label": "*4", "atom_type": "Cs"}, "14": {"label": "*3", "atom_type": "O2s"}}

>  <type>  (20) 
unop_16

>  <geom_source>  (20) 
Heuristics

$$$$

     RDKit          3D

 22 20  0  0  0  0  0  0  0  0999 V2000
    1.3596   -1.5400   -0.4055 C   0  0  0  0  0  3  0  0  0  0  0  0
    1.8683   -0.4116   -0.9953 O   0  0  0  0  0  0  0  0  0  0  0  0
    2.5815    0.4929   -0.2900 N   0  0  0  0  0  0  0  0  0  0  0  0
    2.5314    0.5398    0.9693 C   0  0  0  0  0  0  0  0  0  0  0  0
    0.3171   -1.2175    0.3594 H   0  0  0  0  0  0  0  0  0  0  0  0
    2.0270   -2.0329    0.3004 H   0  0  0  0  0  0  0  0  0  0  0  0
    0.9637   -2.1798   -1.1852 H   0  0  0  0  0  0  0  0  0  0  0  0
    3.1418    1.2942    1.4343 H   0  0  0  0  0  0  0  0  0  0  0  0
    1.9024   -0.0793    1.6027 H   0  0  0  0  0  0  0  0  0  0  0  0
   -0.6318    2.3416    0.4140 C   0  0  0  0  0  0  0  0  0  0  0  0
   -0.9538    1.4153   -0.4681 C   0  0  0  0  0  0  0  0  0  0  0  0
   -2.2701    0.6972   -0.5001 C   0  0  0  0  0  0  0  0  0  0  0  0
   -2.1341   -0.7152   -0.5693 O   0  0  0  0  0  0  0  0  0  0  0  0
   -1.7475   -1.3223    0.6289 C   0  0  0  0  0  0  0  0  0  0  0  0
   -0.5282   -0.9579    1.1076 O   0  0  0  0  0  0  0  0  0  0  0  0
    0.3242    2.8365    0.3920 H   0  0  0  0  0  0  0  0  0  0  0  0
   -1.3115    2.6438    1.1941 H   0  0  0  0  0  0  0  0  0  0  0  0
   -0.2592    1.1156   -1.2410 H   0  0  0  0  0  0  0  0  0  0  0  0
   -2.8119    0.9637   -1.4141 H   0  0  0  0  0  0  0  0  0  0  0  0
   -2.8786    0.9715    0.3732 H   0  0  0  0  0  0  0  0  0  0  0  0
   -1.8154   -2.4048    0.4231 H   0  0  0  0  0  0  0  0  0  0  0  0
   -2.4672   -1.0712    1.4339 H   0  0  0  0  0  0  0  0  0  0  0  0
  1  2  1  0
  1  6  1  0
  1  7  1  0
  2  3  1  0
  3  4  2  3
  4  8  1  0
  4  9  1  0
  5 15  1  0
 10 11  2  3
 10 16  1  0
 10 17  1  0
 11 12  1  0
 11 18  1  0
 12 13  1  0
 12 19  1  0
 12 20  1  0
 13 14  1  0
 14 15  1  0
 14 21  1  0
 14 22  1  0
M  RAD  1   1   2
M  END
>  <reaction>  (21) 
rmg_rxn_15644

>  <mol_properties>  (21) 
{"0": {"label": "*1", "atom_type": "Cs"}, "1": {"label": "*0", "atom_type": "O2s"}, "4": {"label": "*2", "atom_type": "H0"}, "13": {"label": "*4", "atom_type": "Cs"}, "14": {"label": "*3", "atom_type": "O2s"}}

>  <type>  (21) 
unop_17

>  <geom_source>  (21) 
Heuristics

$$$$

     RDKit          3D

 22 20  0  0  0  0  0  0  0  0999 V2000
   -1.0263    2.1963    0.6582 C   0  0  0  0  0  3  0  0  0  0  0  0
   -1.0263    2.2543   -0.7547 O   0  0  0  0  0  0  0  0  0  0  0  0
   -1.0263    0.9804   -1.2705 N   0  0  0  0  0  0  0  0  0  0  0  0
   -1.0263    0.9804   -2.5341 C   0  0  0  0  0  0  0  0  0  0  0  0
    0.0443    1.5842    1.1023 H   0  0  0  0  0  0  0  0  0  0  0  0
   -1.9184    1.6862    1.0283 H   0  0  0  0  0  0  0  0  0  0  0  0
   -1.0263    3.2312    0.9960 H   0  0  0  0  0  0  0  0  0  0  0  0
   -1.0263    0.0133   -3.0189 H   0  0  0  0  0  0  0  0  0  0  0  0
   -1.0263    1.8969   -3.1202 H   0  0  0  0  0  0  0  0  0  0  0  0
    1.3559   -3.2413    0.0433 C   0  0  0  0  0  0  0  0  0  0  0  0
    0.3802   -2.8719    0.8557 C   0  0  0  0  0  0  0  0  0  0  0  0
   -0.2864   -1.5278    0.8642 C   0  0  0  0  0  0  0  0  0  0  0  0
    0.3016   -0.5929   -0.0141 O   0  0  0  0  0  0  0  0  0  0  0  0
    1.3790    0.1069    0.5351 C   0  0  0  0  0  0  0  0  0  0  0  0
    0.9850    1.0463    1.4925 O   0  0  0  0  0  0  0  0  0  0  0  0
    1.7821   -4.2346    0.0943 H   0  0  0  0  0  0  0  0  0  0  0  0
    1.7528   -2.5632   -0.7024 H   0  0  0  0  0  0  0  0  0  0  0  0
   -0.0081   -3.5733    1.5895 H   0  0  0  0  0  0  0  0  0  0  0  0
   -0.3079   -1.1285    1.8850 H   0  0  0  0  0  0  0  0  0  0  0  0
   -1.3278   -1.6398    0.5497 H   0  0  0  0  0  0  0  0  0  0  0  0
    1.8780    0.5804   -0.3150 H   0  0  0  0  0  0  0  0  0  0  0  0
    2.0719   -0.5647    1.0495 H   0  0  0  0  0  0  0  0  0  0  0  0
  1  2  1  0
  1  6  1  0
  1  7  1  0
  2  3  1  0
  3  4  2  3
  4  8  1  0
  4  9  1  0
  5 15  1  0
 10 11  2  3
 10 16  1  0
 10 17  1  0
 11 12  1  0
 11 18  1  0
 12 13  1  0
 12 19  1  0
 12 20  1  0
 13 14  1  0
 14 15  1  0
 14 21  1  0
 14 22  1  0
M  RAD  1   1   2
M  END
>  <reaction>  (22) 
rmg_rxn_15644

>  <mol_properties>  (22) 
{"0": {"label": "*1", "atom_type": "Cs"}, "1": {"label": "*0", "atom_type": "O2s"}, "4": {"label": "*2", "atom_type": "H0"}, "13": {"label": "*4", "atom_type": "Cs"}, "14": {"label": "*3", "atom_type": "O2s"}}

>  <type>  (22) 
unop_18

>  <geom_source>  (22) 
Heuristics

$$$$

     RDKit          3D

 22 20  0  0  0  0  0  0  0  0999 V2000
   -2.4894    0.9793    0.6668 C   0  0  0  0  0  3  0  0  0  0  0  0
   -2.4894    1.0372   -0.7461 O   0  0  0  0  0  0  0  0  0  0  0  0
   -2.4894   -0.2367   -1.2618 N   0  0  0  0  0  0  0  0  0  0  0  0
   -2.4894   -0.2367   -2.5255 C   0  0  0  0  0  0  0  0  0  0  0  0
   -1.4188    0.3671    1.1109 H   0  0  0  0  0  0  0  0  0  0  0  0
   -3.3815    0.4691    1.0369 H   0  0  0  0  0  0  0  0  0  0  0  0
   -2.4894    2.0142    1.0046 H   0  0  0  0  0  0  0  0  0  0  0  0
   -2.4894   -1.2038   -3.0103 H   0  0  0  0  0  0  0  0  0  0  0  0
   -2.4894    0.6798   -3.1116 H   0  0  0  0  0  0  0  0  0  0  0  0
    3.9673    0.0936    0.6130 C   0  0  0  0  0  0  0  0  0  0  0  0
    3.3154   -1.0534    0.5249 C   0  0  0  0  0  0  0  0  0  0  0  0
    1.8854   -1.2140    0.1002 C   0  0  0  0  0  0  0  0  0  0  0  0
    1.2072    0.0077   -0.0962 O   0  0  0  0  0  0  0  0  0  0  0  0
    0.6435    0.5410    1.0657 C   0  0  0  0  0  0  0  0  0  0  0  0
   -0.4782   -0.1708    1.5011 O   0  0  0  0  0  0  0  0  0  0  0  0
    5.0040    0.1271    0.9216 H   0  0  0  0  0  0  0  0  0  0  0  0
    3.4855    1.0334    0.3720 H   0  0  0  0  0  0  0  0  0  0  0  0
    3.8232   -1.9844    0.7627 H   0  0  0  0  0  0  0  0  0  0  0  0
    1.3478   -1.8341    0.8271 H   0  0  0  0  0  0  0  0  0  0  0  0
    1.8503   -1.7477   -0.8536 H   0  0  0  0  0  0  0  0  0  0  0  0
    0.3941    1.5760    0.8158 H   0  0  0  0  0  0  0  0  0  0  0  0
    1.3495    0.5170    1.9004 H   0  0  0  0  0  0  0  0  0  0  0  0
  1  2  1  0
  1  6  1  0
  1  7  1  0
  2  3  1  0
  3  4  2  3
  4  8  1  0
  4  9  1  0
  5 15  1  0
 10 11  2  3
 10 16  1  0
 10 17  1  0
 11 12  1  0
 11 18  1  0
 12 13  1  0
 12 19  1  0
 12 20  1  0
 13 14  1  0
 14 15  1  0
 14 21  1  0
 14 22  1  0
M  RAD  1   1   2
M  END
>  <reaction>  (23) 
rmg_rxn_15644

>  <mol_properties>  (23) 
{"0": {"label": "*1", "atom_type": "Cs"}, "1": {"label": "*0", "atom_type": "O2s"}, "4": {"label": "*2", "atom_type": "H0"}, "13": {"label": "*4", "atom_type": "Cs"}, "14": {"label": "*3", "atom_type": "O2s"}}

>  <type>  (23) 
unop_19

>  <geom_source>  (23) 
Heuristics

$$$$

     RDKit          3D

 22 20  0  0  0  0  0  0  0  0999 V2000
   -0.9087    0.7558   -1.2037 C   0  0  0  0  0  3  0  0  0  0  0  0
   -0.9088    0.8138   -2.6166 O   0  0  0  0  0  0  0  0  0  0  0  0
   -0.9088   -0.4601   -3.1323 N   0  0  0  0  0  0  0  0  0  0  0  0
   -0.9088   -0.4601   -4.3959 C   0  0  0  0  0  0  0  0  0  0  0  0
    0.1619    0.1437   -0.7596 H   0  0  0  0  0  0  0  0  0  0  0  0
   -1.8009    0.2456   -0.8336 H   0  0  0  0  0  0  0  0  0  0  0  0
   -0.9088    1.7907   -0.8659 H   0  0  0  0  0  0  0  0  0  0  0  0
   -0.9088   -1.4272   -4.8808 H   0  0  0  0  0  0  0  0  0  0  0  0
   -0.9088    0.4564   -4.9821 H   0  0  0  0  0  0  0  0  0  0  0  0
    0.9251   -0.4485    4.1679 C   0  0  0  0  0  0  0  0  0  0  0  0
    0.8637    0.6856    3.4907 C   0  0  0  0  0  0  0  0  0  0  0  0
    0.2333    0.8629    2.1408 C   0  0  0  0  0  0  0  0  0  0  0  0
   -0.2092   -0.3418    1.5543 O   0  0  0  0  0  0  0  0  0  0  0  0
    0.7769   -1.0229    0.8361 C   0  0  0  0  0  0  0  0  0  0  0  0
    1.1025   -0.3942   -0.3694 O   0  0  0  0  0  0  0  0  0  0  0  0
    1.3923   -0.4948    5.1428 H   0  0  0  0  0  0  0  0  0  0  0  0
    0.5032   -1.3635    3.7703 H   0  0  0  0  0  0  0  0  0  0  0  0
    1.2858    1.5929    3.9148 H   0  0  0  0  0  0  0  0  0  0  0  0
    0.9290    1.3792    1.4691 H   0  0  0  0  0  0  0  0  0  0  0  0
   -0.6462    1.5058    2.2353 H   0  0  0  0  0  0  0  0  0  0  0  0
    0.3732   -2.0260    0.6732 H   0  0  0  0  0  0  0  0  0  0  0  0
    1.7126   -1.0826    1.3989 H   0  0  0  0  0  0  0  0  0  0  0  0
  1  2  1  0
  1  6  1  0
  1  7  1  0
  2  3  1  0
  3  4  2  3
  4  8  1  0
  4  9  1  0
  5 15  1  0
 10 11  2  3
 10 16  1  0
 10 17  1  0
 11 12  1  0
 11 18  1  0
 12 13  1  0
 12 19  1  0
 12 20  1  0
 13 14  1  0
 14 15  1  0
 14 21  1  0
 14 22  1  0
M  RAD  1   1   2
M  END
>  <reaction>  (24) 
rmg_rxn_15644

>  <mol_properties>  (24) 
{"0": {"label": "*1", "atom_type": "Cs"}, "1": {"label": "*0", "atom_type": "O2s"}, "4": {"label": "*2", "atom_type": "H0"}, "13": {"label": "*4", "atom_type": "Cs"}, "14": {"label": "*3", "atom_type": "O2s"}}

>  <type>  (24) 
unop_20

>  <geom_source>  (24) 
Heuristics

$$$$

     RDKit          3D

 22 20  0  0  0  0  0  0  0  0999 V2000
   -1.6069    1.9545    0.9767 C   0  0  0  0  0  3  0  0  0  0  0  0
   -1.6069    2.0124   -0.4362 O   0  0  0  0  0  0  0  0  0  0  0  0
   -1.6069    0.7385   -0.9519 N   0  0  0  0  0  0  0  0  0  0  0  0
   -1.6069    0.7385   -2.2155 C   0  0  0  0  0  0  0  0  0  0  0  0
   -0.5363    1.3423    1.4208 H   0  0  0  0  0  0  0  0  0  0  0  0
   -2.4990    1.4443    1.3468 H   0  0  0  0  0  0  0  0  0  0  0  0
   -1.6069    2.9894    1.3145 H   0  0  0  0  0  0  0  0  0  0  0  0
   -1.6069   -0.2285   -2.7004 H   0  0  0  0  0  0  0  0  0  0  0  0
   -1.6069    1.6550   -2.8017 H   0  0  0  0  0  0  0  0  0  0  0  0
    2.6183   -2.3499   -0.5909 C   0  0  0  0  0  0  0  0  0  0  0  0
    1.5726   -2.6623    0.1558 C   0  0  0  0  0  0  0  0  0  0  0  0
    0.3868   -1.7789    0.4100 C   0  0  0  0  0  0  0  0  0  0  0  0
    0.5157   -0.4809   -0.1279 O   0  0  0  0  0  0  0  0  0  0  0  0
    1.1760    0.4214    0.7101 C   0  0  0  0  0  0  0  0  0  0  0  0
    0.4043    0.8044    1.8110 O   0  0  0  0  0  0  0  0  0  0  0  0
    3.4344   -3.0463   -0.7324 H   0  0  0  0  0  0  0  0  0  0  0  0
    2.6860   -1.3905   -1.0893 H   0  0  0  0  0  0  0  0  0  0  0  0
    1.5229   -3.6350    0.6380 H   0  0  0  0  0  0  0  0  0  0  0  0
    0.1854   -1.7258    1.4864 H   0  0  0  0  0  0  0  0  0  0  0  0
   -0.4990   -2.2225   -0.0530 H   0  0  0  0  0  0  0  0  0  0  0  0
    1.4256    1.2752    0.0741 H   0  0  0  0  0  0  0  0  0  0  0  0
    2.0882   -0.0141    1.1273 H   0  0  0  0  0  0  0  0  0  0  0  0
  1  2  1  0
  1  6  1  0
  1  7  1  0
  2  3  1  0
  3  4  2  3
  4  8  1  0
  4  9  1  0
  5 15  1  0
 10 11  2  3
 10 16  1  0
 10 17  1  0
 11 12  1  0
 11 18  1  0
 12 13  1  0
 12 19  1  0
 12 20  1  0
 13 14  1  0
 14 15  1  0
 14 21  1  0
 14 22  1  0
M  RAD  1   1   2
M  END
>  <reaction>  (25) 
rmg_rxn_15644

>  <mol_properties>  (25) 
{"0": {"label": "*1", "atom_type": "Cs"}, "1": {"label": "*0", "atom_type": "O2s"}, "4": {"label": "*2", "atom_type": "H0"}, "13": {"label": "*4", "atom_type": "Cs"}, "14": {"label": "*3", "atom_type": "O2s"}}

>  <type>  (25) 
unop_21

>  <geom_source>  (25) 
Heuristics

$$$$

     RDKit          3D

 22 20  0  0  0  0  0  0  0  0999 V2000
   -0.9915   -0.0321   -0.7656 O   0  0  0  0  0  0  0  0  0  0  0  0
    2.3034   -1.6071    0.7067 O   0  0  0  0  0  0  0  0  0  0  0  0
    0.2824   -1.7474    0.1157 O   0  0  0  0  0  0  0  0  0  0  0  0
    2.2439   -0.5167    1.5592 N   0  0  0  0  0  0  0  0  0  0  0  0
   -1.7437    0.3047    0.3818 C   0  0  0  0  0  0  0  0  0  0  0  0
   -0.7379   -1.4224   -0.7863 C   0  0  0  0  0  0  0  0  0  0  0  0
   -1.9397    1.7906    0.4266 C   0  0  0  0  0  0  0  0  0  0  0  0
   -2.6349    2.4301   -0.5178 C   0  0  0  0  0  0  0  0  0  0  0  0
    2.4908   -1.4889   -0.6995 C   0  0  0  0  0  3  0  0  0  0  0  0
    2.3015    0.7203    1.1717 C   0  0  0  0  0  0  0  0  0  0  0  0
   -1.2101   -0.0012    1.3102 H   0  0  0  0  0  0  0  0  0  0  0  0
   -2.7447   -0.1834    0.3583 H   0  0  0  0  0  0  0  0  0  0  0  0
   -0.4180   -1.7069   -1.8113 H   0  0  0  0  0  0  0  0  0  0  0  0
   -1.6478   -2.0230   -0.5585 H   0  0  0  0  0  0  0  0  0  0  0  0
   -1.5184    2.3573    1.2518 H   0  0  0  0  0  0  0  0  0  0  0  0
   -2.7681    3.5055   -0.4597 H   0  0  0  0  0  0  0  0  0  0  0  0
   -3.0741    1.8888   -1.3505 H   0  0  0  0  0  0  0  0  0  0  0  0
    3.5048   -1.0890   -0.9104 H   0  0  0  0  0  0  0  0  0  0  0  0
    2.3914   -2.4889   -1.1691 H   0  0  0  0  0  0  0  0  0  0  0  0
    2.3970    0.9851    0.1273 H   0  0  0  0  0  0  0  0  0  0  0  0
    2.2484    1.5120    1.9063 H   0  0  0  0  0  0  0  0  0  0  0  0
    1.2654   -1.1876   -0.2869 H   0  0  0  0  0  0  0  0  0  0  0  0
  1  5  1  0
  1  6  1  0
  2  9  1  0
  2  4  1  0
  3  6  1  0
  3 22  1  0
  4 10  2  3
  5  7  1  0
  5 11  1  0
  5 12  1  0
  6 13  1  0
  6 14  1  0
  7  8  2  3
  7 15  1  0
  8 16  1  0
  8 17  1  0
  9 18  1  0
  9 19  1  0
 10 20  1  0
 10 21  1  0
M  RAD  1   9   2
M  END
>  <reaction>  (26) 
rmg_rxn_15644

>  <mol_properties>  (26) 
{"0": {"label": "*1", "atom_type": "Cs"}, "1": {"label": "*0", "atom_type": "O2s"}, "4": {"label": "*2", "atom_type": "H0"}, "13": {"label": "*4", "atom_type": "Cs"}, "14": {"label": "*3", "atom_type": "O2s"}}

>  <type>  (26) 
unop_22

>  <geom_source>  (26) 
AutoTST

$$$$

     RDKit          3D

 22 20  0  0  0  0  0  0  0  0999 V2000
   -2.1602    1.4842    0.9776 C   0  0  0  0  0  3  0  0  0  0  0  0
   -2.1602    1.5421   -0.4353 O   0  0  0  0  0  0  0  0  0  0  0  0
   -2.1602    0.2683   -0.9510 N   0  0  0  0  0  0  0  0  0  0  0  0
   -2.1602    0.2683   -2.2146 C   0  0  0  0  0  0  0  0  0  0  0  0
   -1.0896    0.8720    1.4218 H   0  0  0  0  0  0  0  0  0  0  0  0
   -3.0523    0.9740    1.3478 H   0  0  0  0  0  0  0  0  0  0  0  0
   -2.1602    2.5191    1.3154 H   0  0  0  0  0  0  0  0  0  0  0  0
   -2.1602   -0.6988   -2.6994 H   0  0  0  0  0  0  0  0  0  0  0  0
   -2.1602    1.1847   -2.8007 H   0  0  0  0  0  0  0  0  0  0  0  0
    3.6055   -1.0289   -0.3484 C   0  0  0  0  0  0  0  0  0  0  0  0
    2.6938   -1.8954    0.0596 C   0  0  0  0  0  0  0  0  0  0  0  0
    1.2160   -1.6436    0.1201 C   0  0  0  0  0  0  0  0  0  0  0  0
    0.8495   -0.3165   -0.1890 O   0  0  0  0  0  0  0  0  0  0  0  0
    0.8891    0.5555    0.9021 C   0  0  0  0  0  0  0  0  0  0  0  0
   -0.1489    0.3342    1.8120 O   0  0  0  0  0  0  0  0  0  0  0  0
    4.6559   -1.2884   -0.3698 H   0  0  0  0  0  0  0  0  0  0  0  0
    3.3277   -0.0359   -0.6803 H   0  0  0  0  0  0  0  0  0  0  0  0
    2.9962   -2.8893    0.3788 H   0  0  0  0  0  0  0  0  0  0  0  0
    0.8300   -1.9242    1.1071 H   0  0  0  0  0  0  0  0  0  0  0  0
    0.7109   -2.2847   -0.6077 H   0  0  0  0  0  0  0  0  0  0  0  0
    0.8417    1.5590    0.4703 H   0  0  0  0  0  0  0  0  0  0  0  0
    1.8129    0.4376    1.4752 H   0  0  0  0  0  0  0  0  0  0  0  0
  1  2  1  0
  1  6  1  0
  1  7  1  0
  2  3  1  0
  3  4  2  3
  4  8  1  0
  4  9  1  0
  5 15  1  0
 10 11  2  3
 10 16  1  0
 10 17  1  0
 11 12  1  0
 11 18  1  0
 12 13  1  0
 12 19  1  0
 12 20  1  0
 13 14  1  0
 14 15  1  0
 14 21  1  0
 14 22  1  0
M  RAD  1   1   2
M  END
>  <reaction>  (27) 
rmg_rxn_15644

>  <mol_properties>  (27) 
{"0": {"label": "*1", "atom_type": "Cs"}, "1": {"label": "*0", "atom_type": "O2s"}, "4": {"label": "*2", "atom_type": "H0"}, "13": {"label": "*4", "atom_type": "Cs"}, "14": {"label": "*3", "atom_type": "O2s"}}

>  <type>  (27) 
unop_23

>  <geom_source>  (27) 
gaussian_log

$$$$
