
     RDKit          3D

 15 14  0  0  0  0  0  0  0  0999 V2000
   -1.2811   -0.4129    1.0228 C   0  0  0  0  0  0  0  0  0  0  0  0
   -1.0023   -0.5809   -0.4650 C   0  0  0  0  0  0  0  0  0  0  0  0
   -2.0576    0.0568   -1.3449 C   0  0  0  0  0  0  0  0  0  0  0  0
   -2.0663    1.4464   -1.1307 O   0  0  0  0  0  0  0  0  0  0  0  0
   -3.0424    2.1072   -1.8849 C   0  0  0  0  0  0  0  0  0  0  0  0
   -2.2382   -0.8657    1.2935 H   0  0  0  0  0  0  0  0  0  0  0  0
   -1.3219    0.6426    1.2914 H   0  0  0  0  0  0  0  0  0  0  0  0
   -0.5042   -0.8881    1.6236 H   0  0  0  0  0  0  0  0  0  0  0  0
   -0.0316   -0.1460   -0.7167 H   0  0  0  0  0  0  0  0  0  0  0  0
   -0.9494   -1.6429   -0.7203 H   0  0  0  0  0  0  0  0  0  0  0  0
   -1.8518   -0.1570   -2.4041 H   0  0  0  0  0  0  0  0  0  0  0  0
   -3.0491   -0.3636   -1.1124 H   0  0  0  0  0  0  0  0  0  0  0  0
   -4.0521    1.7545   -1.6343 H   0  0  0  0  0  0  0  0  0  0  0  0
   -2.8850    1.9634   -2.9626 H   0  0  0  0  0  0  0  0  0  0  0  0
   -2.9730    3.1700   -1.6570 H   0  0  0  0  0  0  0  0  0  0  0  0
  1  2  1  0
  1  6  1  0
  1  7  1  0
  1  8  1  0
  2  3  1  0
  2  9  1  0
  2 10  1  0
  3  4  1  0
  3 11  1  0
  3 12  1  0
  4  5  1  0
  5 13  1  0
  5 14  1  0
  5 15  1  0
M  END
>  <reaction>  (1) 
rmg_rxn_683

>  <mol_properties>  (1) 
{"4": {"label": "donator", "atom_type": "Cs"}, "12": {"label": "d_hydrogen", "atom_type": "H0"}}

>  <type>  (1) 
r1h

$$$$

     RDKit          3D

  8  7  0  0  0  0  0  0  0  0999 V2000
    1.3778   -0.6812    0.2772 C   0  0  0  0  0  3  0  0  0  0  0  0
    0.4890    0.2108   -0.0590 C   0  0  0  0  0  0  0  0  0  0  0  0
   -1.0010    0.0286   -0.0323 C   0  0  0  0  0  0  0  0  0  0  0  0
    2.4535   -0.7507    0.3287 H   0  0  0  0  0  0  0  0  0  0  0  0
    0.8447    1.1899   -0.3945 H   0  0  0  0  0  0  0  0  0  0  0  0
   -1.4635    0.7638    0.6301 H   0  0  0  0  0  0  0  0  0  0  0  0
   -1.2709   -0.9687    0.3117 H   0  0  0  0  0  0  0  0  0  0  0  0
   -1.4218    0.1801   -1.0289 H   0  0  0  0  0  0  0  0  0  0  0  0
  1  2  2  3
  1  4  1  0
  2  3  1  0
  2  5  1  0
  3  6  1  0
  3  7  1  0
  3  8  1  0
M  RAD  1   1   2
M  END
>  <reaction>  (2) 
rmg_rxn_683

>  <mol_properties>  (2) 
{"0": {"label": "acceptor", "atom_type": "Cd"}}

>  <type>  (2) 
r2

$$$$

     RDKit          3D

  9  8  0  0  0  0  0  0  0  0999 V2000
    1.1303   -0.2933   -0.7510 C   0  0  0  0  0  0  0  0  0  0  0  0
    0.2866    0.4560   -0.0588 C   0  0  0  0  0  0  0  0  0  0  0  0
   -0.9719   -0.0331    0.5823 C   0  0  0  0  0  0  0  0  0  0  0  0
    2.0274    0.1230   -1.1916 H   0  0  0  0  0  0  0  0  0  0  0  0
    0.9532   -1.3530   -0.9023 H   0  0  0  0  0  0  0  0  0  0  0  0
    0.5065    1.5132    0.0659 H   0  0  0  0  0  0  0  0  0  0  0  0
   -0.9526    0.1426    1.6610 H   0  0  0  0  0  0  0  0  0  0  0  0
   -1.1182   -1.1002    0.4106 H   0  0  0  0  0  0  0  0  0  0  0  0
   -1.8412    0.5010    0.1901 H   0  0  0  0  0  0  0  0  0  0  0  0
  1  2  2  3
  1  4  1  0
  1  5  1  0
  2  3  1  0
  2  6  1  0
  3  7  1  0
  3  8  1  0
  3  9  1  0
M  END
>  <reaction>  (3) 
rmg_rxn_683

>  <mol_properties>  (3) 
{"0": {"label": "acceptor", "atom_type": "Cd"}, "8": {"label": "a_hydrogen", "atom_type": "H0"}}

>  <type>  (3) 
r2h

$$$$

     RDKit          3D

 23 21  0  0  0  0  0  0  0  0999 V2000
   -0.0309    2.0116   -0.6287 C   0  0  0  0  0  3  0  0  0  0  0  0
    0.9148    2.4717    0.1602 C   0  0  0  0  0  0  0  0  0  0  0  0
    2.0204    3.4032   -0.2475 C   0  0  0  0  0  0  0  0  0  0  0  0
   -0.1765    2.2108   -1.6854 H   0  0  0  0  0  0  0  0  0  0  0  0
    0.9170    2.1653    1.2062 H   0  0  0  0  0  0  0  0  0  0  0  0
    1.9835    4.3246    0.3391 H   0  0  0  0  0  0  0  0  0  0  0  0
    1.9523    3.6639   -1.3038 H   0  0  0  0  0  0  0  0  0  0  0  0
    2.9962    2.9454   -0.0664 H   0  0  0  0  0  0  0  0  0  0  0  0
    0.2657   -2.8493   -1.2751 C   0  0  0  0  0  0  0  0  0  0  0  0
    0.1325   -2.7658    0.2397 C   0  0  0  0  0  0  0  0  0  0  0  0
   -0.1740   -1.3675    0.7320 C   0  0  0  0  0  0  0  0  0  0  0  0
   -1.4369   -0.9677    0.2413 O   0  0  0  0  0  0  0  0  0  0  0  0
   -1.7768    0.3226    0.5823 C   0  0  0  0  0  0  0  0  0  0  0  0
    1.0652   -2.1955   -1.6319 H   0  0  0  0  0  0  0  0  0  0  0  0
   -0.6597   -2.5421   -1.7623 H   0  0  0  0  0  0  0  0  0  0  0  0
    0.4965   -3.8671   -1.5930 H   0  0  0  0  0  0  0  0  0  0  0  0
   -0.6549   -3.4399    0.5868 H   0  0  0  0  0  0  0  0  0  0  0  0
    1.0608   -3.0913    0.7173 H   0  0  0  0  0  0  0  0  0  0  0  0
   -0.1836   -1.3371    1.8307 H   0  0  0  0  0  0  0  0  0  0  0  0
    0.5916   -0.6609    0.3835 H   0  0  0  0  0  0  0  0  0  0  0  0
   -1.0186    1.1316   -0.0030 H   0  0  0  0  0  0  0  0  0  0  0  0
   -1.6576    0.5387    1.6518 H   0  0  0  0  0  0  0  0  0  0  0  0
   -2.7851    0.5368    0.2330 H   0  0  0  0  0  0  0  0  0  0  0  0
  1  2  2  3
  1  4  1  0
  2  3  1  0
  2  5  1  0
  3  6  1  0
  3  7  1  0
  3  8  1  0
  9 10  1  0
  9 14  1  0
  9 15  1  0
  9 16  1  0
 10 11  1  0
 10 17  1  0
 10 18  1  0
 11 12  1  0
 11 19  1  0
 11 20  1  0
 12 13  1  0
 13 21  1  0
 13 22  1  0
 13 23  1  0
M  RAD  1   1   2
M  END
>  <reaction>  (4) 
rmg_rxn_683

>  <mol_properties>  (4) 
{"0": {"label": "*3", "atom_type": "Cd"}, "1": {"label": "*4", "atom_type": "Cd"}, "11": {"label": "*0", "atom_type": "O2s"}, "12": {"label": "*1", "atom_type": "Cs"}, "20": {"label": "*2", "atom_type": "H0"}}

>  <type>  (4) 
ts

$$$$

     RDKit          3D

 23 21  0  0  0  0  0  0  0  0999 V2000
    0.7414    1.7603    0.0068 C   0  0  0  0  0  0  0  0  0  0  0  0
    0.5148    2.8475   -0.7137 C   0  0  0  0  0  0  0  0  0  0  0  0
    1.1971    4.1637   -0.5231 C   0  0  0  0  0  0  0  0  0  0  0  0
    1.4664    1.7571    0.8139 H   0  0  0  0  0  0  0  0  0  0  0  0
   -0.2213    2.8024   -1.5122 H   0  0  0  0  0  0  0  0  0  0  0  0
    1.7241    4.4639   -1.4324 H   0  0  0  0  0  0  0  0  0  0  0  0
    1.9178    4.1245    0.2947 H   0  0  0  0  0  0  0  0  0  0  0  0
    0.4704    4.9503   -0.3041 H   0  0  0  0  0  0  0  0  0  0  0  0
    0.0240   -3.0664   -1.3024 C   0  0  0  0  0  0  0  0  0  0  0  0
    0.0240   -3.0664    0.2205 C   0  0  0  0  0  0  0  0  0  0  0  0
    0.0240   -1.6738    0.8166 C   0  0  0  0  0  0  0  0  0  0  0  0
   -1.1610   -1.0104    0.4524 O   0  0  0  0  0  0  0  0  0  0  0  0
   -1.2218    0.3007    0.9376 C   0  0  0  0  0  3  0  0  0  0  0  0
    0.9064   -2.5528   -1.6921 H   0  0  0  0  0  0  0  0  0  0  0  0
   -0.8584   -2.5565   -1.6888 H   0  0  0  0  0  0  0  0  0  0  0  0
    0.0289   -4.0844   -1.6947 H   0  0  0  0  0  0  0  0  0  0  0  0
   -0.8501   -3.6046    0.5962 H   0  0  0  0  0  0  0  0  0  0  0  0
    0.9057   -3.5926    0.5968 H   0  0  0  0  0  0  0  0  0  0  0  0
    0.1008   -1.7275    1.9126 H   0  0  0  0  0  0  0  0  0  0  0  0
    0.8964   -1.1068    0.4544 H   0  0  0  0  0  0  0  0  0  0  0  0
   -0.2332    1.0358    0.4688 H   0  0  0  0  0  0  0  0  0  0  0  0
   -1.1798    0.3268    2.0351 H   0  0  0  0  0  0  0  0  0  0  0  0
   -2.1675    0.7309    0.6105 H   0  0  0  0  0  0  0  0  0  0  0  0
  1  2  2  3
  1  4  1  0
  1 21  1  0
  2  3  1  0
  2  5  1  0
  3  6  1  0
  3  7  1  0
  3  8  1  0
  9 10  1  0
  9 14  1  0
  9 15  1  0
  9 16  1  0
 10 11  1  0
 10 17  1  0
 10 18  1  0
 11 12  1  0
 11 19  1  0
 11 20  1  0
 12 13  1  0
 13 22  1  0
 13 23  1  0
M  RAD  1  13   2
M  END
>  <reaction>  (5) 
rmg_rxn_683

>  <mol_properties>  (5) 
{"0": {"label": "*3", "atom_type": "Cd"}, "1": {"label": "*4", "atom_type": "Cd"}, "11": {"label": "*0", "atom_type": "O2s"}, "12": {"label": "*1", "atom_type": "Cs"}, "20": {"label": "*2", "atom_type": "H0"}}

>  <type>  (5) 
unop_1

>  <geom_source>  (5) 
Heuristics

$$$$

     RDKit          3D

 23 21  0  0  0  0  0  0  0  0999 V2000
    0.5348    2.1302    0.2528 C   0  0  0  0  0  0  0  0  0  0  0  0
    1.0694    1.8954   -0.9352 C   0  0  0  0  0  0  0  0  0  0  0  0
    1.9060    2.8629   -1.7087 C   0  0  0  0  0  0  0  0  0  0  0  0
    0.6767    3.0787    0.7600 H   0  0  0  0  0  0  0  0  0  0  0  0
    0.8995    0.9296   -1.4042 H   0  0  0  0  0  0  0  0  0  0  0  0
    2.8979    2.4482   -1.9060 H   0  0  0  0  0  0  0  0  0  0  0  0
    2.0279    3.8037   -1.1705 H   0  0  0  0  0  0  0  0  0  0  0  0
    1.4539    3.0781   -2.6802 H   0  0  0  0  0  0  0  0  0  0  0  0
   -0.1826   -2.6966   -1.0563 C   0  0  0  0  0  0  0  0  0  0  0  0
   -0.1826   -2.6966    0.4666 C   0  0  0  0  0  0  0  0  0  0  0  0
   -0.1826   -1.3040    1.0627 C   0  0  0  0  0  0  0  0  0  0  0  0
   -1.3676   -0.6406    0.6985 O   0  0  0  0  0  0  0  0  0  0  0  0
   -1.4284    0.6705    1.1837 C   0  0  0  0  0  3  0  0  0  0  0  0
    0.6998   -2.1829   -1.4460 H   0  0  0  0  0  0  0  0  0  0  0  0
   -1.0650   -2.1867   -1.4427 H   0  0  0  0  0  0  0  0  0  0  0  0
   -0.1777   -3.7146   -1.4486 H   0  0  0  0  0  0  0  0  0  0  0  0
   -1.0567   -3.2347    0.8422 H   0  0  0  0  0  0  0  0  0  0  0  0
    0.6992   -3.2227    0.8429 H   0  0  0  0  0  0  0  0  0  0  0  0
   -0.1058   -1.3577    2.1587 H   0  0  0  0  0  0  0  0  0  0  0  0
    0.6898   -0.7370    0.7005 H   0  0  0  0  0  0  0  0  0  0  0  0
   -0.4397    1.4056    0.7149 H   0  0  0  0  0  0  0  0  0  0  0  0
   -1.3864    0.6966    2.2812 H   0  0  0  0  0  0  0  0  0  0  0  0
   -2.3741    1.1007    0.8565 H   0  0  0  0  0  0  0  0  0  0  0  0
  1  2  2  3
  1  4  1  0
  1 21  1  0
  2  3  1  0
  2  5  1  0
  3  6  1  0
  3  7  1  0
  3  8  1  0
  9 10  1  0
  9 14  1  0
  9 15  1  0
  9 16  1  0
 10 11  1  0
 10 17  1  0
 10 18  1  0
 11 12  1  0
 11 19  1  0
 11 20  1  0
 12 13  1  0
 13 22  1  0
 13 23  1  0
M  RAD  1  13   2
M  END
>  <reaction>  (6) 
rmg_rxn_683

>  <mol_properties>  (6) 
{"0": {"label": "*3", "atom_type": "Cd"}, "1": {"label": "*4", "atom_type": "Cd"}, "11": {"label": "*0", "atom_type": "O2s"}, "12": {"label": "*1", "atom_type": "Cs"}, "20": {"label": "*2", "atom_type": "H0"}}

>  <type>  (6) 
unop_2

>  <geom_source>  (6) 
Heuristics

$$$$

     RDKit          3D

 23 21  0  0  0  0  0  0  0  0999 V2000
    0.6664    1.7483   -0.1316 C   0  0  0  0  0  0  0  0  0  0  0  0
    0.5323    3.0521   -0.3176 C   0  0  0  0  0  0  0  0  0  0  0  0
    1.5969    4.0710   -0.0674 C   0  0  0  0  0  0  0  0  0  0  0  0
    1.5961    1.3207    0.2290 H   0  0  0  0  0  0  0  0  0  0  0  0
   -0.4185    3.4340   -0.6804 H   0  0  0  0  0  0  0  0  0  0  0  0
    1.8268    4.6255   -0.9809 H   0  0  0  0  0  0  0  0  0  0  0  0
    2.5158    3.6072    0.2934 H   0  0  0  0  0  0  0  0  0  0  0  0
    1.2672    4.8040    0.6733 H   0  0  0  0  0  0  0  0  0  0  0  0
   -0.0509   -3.0784   -1.4407 C   0  0  0  0  0  0  0  0  0  0  0  0
   -0.0509   -3.0784    0.0822 C   0  0  0  0  0  0  0  0  0  0  0  0
   -0.0509   -1.6858    0.6782 C   0  0  0  0  0  0  0  0  0  0  0  0
   -1.2360   -1.0224    0.3141 O   0  0  0  0  0  0  0  0  0  0  0  0
   -1.2967    0.2887    0.7993 C   0  0  0  0  0  3  0  0  0  0  0  0
    0.8315   -2.5648   -1.8304 H   0  0  0  0  0  0  0  0  0  0  0  0
   -0.9334   -2.5685   -1.8271 H   0  0  0  0  0  0  0  0  0  0  0  0
   -0.0460   -4.0964   -1.8330 H   0  0  0  0  0  0  0  0  0  0  0  0
   -0.9250   -3.6166    0.4578 H   0  0  0  0  0  0  0  0  0  0  0  0
    0.8308   -3.6046    0.4584 H   0  0  0  0  0  0  0  0  0  0  0  0
    0.0259   -1.7395    1.7743 H   0  0  0  0  0  0  0  0  0  0  0  0
    0.8215   -1.1188    0.3160 H   0  0  0  0  0  0  0  0  0  0  0  0
   -0.3081    1.0238    0.3305 H   0  0  0  0  0  0  0  0  0  0  0  0
   -1.2547    0.3148    1.8967 H   0  0  0  0  0  0  0  0  0  0  0  0
   -2.2424    0.7188    0.4721 H   0  0  0  0  0  0  0  0  0  0  0  0
  1  2  2  3
  1  4  1  0
  1 21  1  0
  2  3  1  0
  2  5  1  0
  3  6  1  0
  3  7  1  0
  3  8  1  0
  9 10  1  0
  9 14  1  0
  9 15  1  0
  9 16  1  0
 10 11  1  0
 10 17  1  0
 10 18  1  0
 11 12  1  0
 11 19  1  0
 11 20  1  0
 12 13  1  0
 13 22  1  0
 13 23  1  0
M  RAD  1  13   2
M  END
>  <reaction>  (7) 
rmg_rxn_683

>  <mol_properties>  (7) 
{"0": {"label": "*3", "atom_type": "Cd"}, "1": {"label": "*4", "atom_type": "Cd"}, "11": {"label": "*0", "atom_type": "O2s"}, "12": {"label": "*1", "atom_type": "Cs"}, "20": {"label": "*2", "atom_type": "H0"}}

>  <type>  (7) 
unop_3

>  <geom_source>  (7) 
Heuristics

$$$$

     RDKit          3D

 23 21  0  0  0  0  0  0  0  0999 V2000
    0.3184    2.1477   -0.2191 C   0  0  0  0  0  0  0  0  0  0  0  0
    1.5838    1.8330    0.0087 C   0  0  0  0  0  0  0  0  0  0  0  0
    2.7005    2.8146    0.1622 C   0  0  0  0  0  0  0  0  0  0  0  0
    0.0000    3.1807   -0.3125 H   0  0  0  0  0  0  0  0  0  0  0  0
    1.8550    0.7838    0.0947 H   0  0  0  0  0  0  0  0  0  0  0  0
    3.1796    2.7091    1.1389 H   0  0  0  0  0  0  0  0  0  0  0  0
    2.3455    3.8411    0.0628 H   0  0  0  0  0  0  0  0  0  0  0  0
    3.4747    2.6437   -0.5903 H   0  0  0  0  0  0  0  0  0  0  0  0
   -0.3990   -2.6790   -1.5283 C   0  0  0  0  0  0  0  0  0  0  0  0
   -0.3990   -2.6790   -0.0054 C   0  0  0  0  0  0  0  0  0  0  0  0
   -0.3990   -1.2865    0.5907 C   0  0  0  0  0  0  0  0  0  0  0  0
   -1.5840   -0.6230    0.2265 O   0  0  0  0  0  0  0  0  0  0  0  0
   -1.6448    0.6881    0.7117 C   0  0  0  0  0  3  0  0  0  0  0  0
    0.4834   -2.1654   -1.9180 H   0  0  0  0  0  0  0  0  0  0  0  0
   -1.2814   -2.1691   -1.9147 H   0  0  0  0  0  0  0  0  0  0  0  0
   -0.3941   -3.6970   -1.9206 H   0  0  0  0  0  0  0  0  0  0  0  0
   -1.2731   -3.2172    0.3702 H   0  0  0  0  0  0  0  0  0  0  0  0
    0.4827   -3.2052    0.3709 H   0  0  0  0  0  0  0  0  0  0  0  0
   -0.3222   -1.3402    1.6867 H   0  0  0  0  0  0  0  0  0  0  0  0
    0.4734   -0.7194    0.2285 H   0  0  0  0  0  0  0  0  0  0  0  0
   -0.6562    1.4232    0.2429 H   0  0  0  0  0  0  0  0  0  0  0  0
   -1.6028    0.7142    1.8092 H   0  0  0  0  0  0  0  0  0  0  0  0
   -2.5905    1.1182    0.3846 H   0  0  0  0  0  0  0  0  0  0  0  0
  1  2  2  3
  1  4  1  0
  1 21  1  0
  2  3  1  0
  2  5  1  0
  3  6  1  0
  3  7  1  0
  3  8  1  0
  9 10  1  0
  9 14  1  0
  9 15  1  0
  9 16  1  0
 10 11  1  0
 10 17  1  0
 10 18  1  0
 11 12  1  0
 11 19  1  0
 11 20  1  0
 12 13  1  0
 13 22  1  0
 13 23  1  0
M  RAD  1  13   2
M  END
>  <reaction>  (8) 
rmg_rxn_683

>  <mol_properties>  (8) 
{"0": {"label": "*3", "atom_type": "Cd"}, "1": {"label": "*4", "atom_type": "Cd"}, "11": {"label": "*0", "atom_type": "O2s"}, "12": {"label": "*1", "atom_type": "Cs"}, "20": {"label": "*2", "atom_type": "H0"}}

>  <type>  (8) 
unop_4

>  <geom_source>  (8) 
Heuristics

$$$$

     RDKit          3D

 23 21  0  0  0  0  0  0  0  0999 V2000
    0.5982    1.7710   -0.1574 C   0  0  0  0  0  0  0  0  0  0  0  0
    0.7316    3.0454    0.1748 C   0  0  0  0  0  0  0  0  0  0  0  0
    1.8184    3.9512   -0.3075 C   0  0  0  0  0  0  0  0  0  0  0  0
    1.2986    1.2847   -0.8283 H   0  0  0  0  0  0  0  0  0  0  0  0
    0.0049    3.4891    0.8505 H   0  0  0  0  0  0  0  0  0  0  0  0
    1.4012    4.8100   -0.8397 H   0  0  0  0  0  0  0  0  0  0  0  0
    2.5028    3.4307   -0.9785 H   0  0  0  0  0  0  0  0  0  0  0  0
    2.3947    4.3485    0.5319 H   0  0  0  0  0  0  0  0  0  0  0  0
   -0.1191   -3.0558   -1.4665 C   0  0  0  0  0  0  0  0  0  0  0  0
   -0.1191   -3.0558    0.0564 C   0  0  0  0  0  0  0  0  0  0  0  0
   -0.1191   -1.6632    0.6524 C   0  0  0  0  0  0  0  0  0  0  0  0
   -1.3042   -0.9997    0.2883 O   0  0  0  0  0  0  0  0  0  0  0  0
   -1.3649    0.3113    0.7734 C   0  0  0  0  0  3  0  0  0  0  0  0
    0.7633   -2.5421   -1.8563 H   0  0  0  0  0  0  0  0  0  0  0  0
   -1.0016   -2.5459   -1.8530 H   0  0  0  0  0  0  0  0  0  0  0  0
   -0.1142   -4.0738   -1.8588 H   0  0  0  0  0  0  0  0  0  0  0  0
   -0.9932   -3.5939    0.4320 H   0  0  0  0  0  0  0  0  0  0  0  0
    0.7626   -3.5819    0.4326 H   0  0  0  0  0  0  0  0  0  0  0  0
   -0.0423   -1.7169    1.7485 H   0  0  0  0  0  0  0  0  0  0  0  0
    0.7533   -1.0962    0.2902 H   0  0  0  0  0  0  0  0  0  0  0  0
   -0.3763    1.0464    0.3047 H   0  0  0  0  0  0  0  0  0  0  0  0
   -1.3230    0.3375    1.8709 H   0  0  0  0  0  0  0  0  0  0  0  0
   -2.3106    0.7415    0.4463 H   0  0  0  0  0  0  0  0  0  0  0  0
  1  2  2  3
  1  4  1  0
  1 21  1  0
  2  3  1  0
  2  5  1  0
  3  6  1  0
  3  7  1  0
  3  8  1  0
  9 10  1  0
  9 14  1  0
  9 15  1  0
  9 16  1  0
 10 11  1  0
 10 17  1  0
 10 18  1  0
 11 12  1  0
 11 19  1  0
 11 20  1  0
 12 13  1  0
 13 22  1  0
 13 23  1  0
M  RAD  1  13   2
M  END
>  <reaction>  (9) 
rmg_rxn_683

>  <mol_properties>  (9) 
{"0": {"label": "*3", "atom_type": "Cd"}, "1": {"label": "*4", "atom_type": "Cd"}, "11": {"label": "*0", "atom_type": "O2s"}, "12": {"label": "*1", "atom_type": "Cs"}, "20": {"label": "*2", "atom_type": "H0"}}

>  <type>  (9) 
unop_5

>  <geom_source>  (9) 
Heuristics

$$$$

     RDKit          3D

 23 21  0  0  0  0  0  0  0  0999 V2000
    0.3902    2.0112   -0.3230 C   0  0  0  0  0  0  0  0  0  0  0  0
    1.5482    2.1008    0.3122 C   0  0  0  0  0  0  0  0  0  0  0  0
    2.3317    3.3598    0.4995 C   0  0  0  0  0  0  0  0  0  0  0  0
   -0.0815    2.8822   -0.7655 H   0  0  0  0  0  0  0  0  0  0  0  0
    1.9821    1.2003    0.7393 H   0  0  0  0  0  0  0  0  0  0  0  0
    2.4770    3.5731    1.5616 H   0  0  0  0  0  0  0  0  0  0  0  0
    1.8293    4.2137    0.0432 H   0  0  0  0  0  0  0  0  0  0  0  0
    3.3266    3.2684    0.0560 H   0  0  0  0  0  0  0  0  0  0  0  0
   -0.3271   -2.8156   -1.6322 C   0  0  0  0  0  0  0  0  0  0  0  0
   -0.3271   -2.8156   -0.1093 C   0  0  0  0  0  0  0  0  0  0  0  0
   -0.3271   -1.4230    0.4868 C   0  0  0  0  0  0  0  0  0  0  0  0
   -1.5122   -0.7595    0.1227 O   0  0  0  0  0  0  0  0  0  0  0  0
   -1.5730    0.5516    0.6078 C   0  0  0  0  0  3  0  0  0  0  0  0
    0.5552   -2.3019   -2.0219 H   0  0  0  0  0  0  0  0  0  0  0  0
   -1.2096   -2.3057   -2.0186 H   0  0  0  0  0  0  0  0  0  0  0  0
   -0.3222   -3.8336   -2.0245 H   0  0  0  0  0  0  0  0  0  0  0  0
   -1.2013   -3.3537    0.2664 H   0  0  0  0  0  0  0  0  0  0  0  0
    0.5546   -3.3417    0.2670 H   0  0  0  0  0  0  0  0  0  0  0  0
   -0.2503   -1.4767    1.5829 H   0  0  0  0  0  0  0  0  0  0  0  0
    0.5452   -0.8560    0.1246 H   0  0  0  0  0  0  0  0  0  0  0  0
   -0.5843    1.2866    0.1391 H   0  0  0  0  0  0  0  0  0  0  0  0
   -1.5310    0.5777    1.7053 H   0  0  0  0  0  0  0  0  0  0  0  0
   -2.5187    0.9817    0.2807 H   0  0  0  0  0  0  0  0  0  0  0  0
  1  2  2  3
  1  4  1  0
  1 21  1  0
  2  3  1  0
  2  5  1  0
  3  6  1  0
  3  7  1  0
  3  8  1  0
  9 10  1  0
  9 14  1  0
  9 15  1  0
  9 16  1  0
 10 11  1  0
 10 17  1  0
 10 18  1  0
 11 12  1  0
 11 19  1  0
 11 20  1  0
 12 13  1  0
 13 22  1  0
 13 23  1  0
M  RAD  1  13   2
M  END
>  <reaction>  (10) 
rmg_rxn_683

>  <mol_properties>  (10) 
{"0": {"label": "*3", "atom_type": "Cd"}, "1": {"label": "*4", "atom_type": "Cd"}, "11": {"label": "*0", "atom_type": "O2s"}, "12": {"label": "*1", "atom_type": "Cs"}, "20": {"label": "*2", "atom_type": "H0"}}

>  <type>  (10) 
unop_6

>  <geom_source>  (10) 
Heuristics

$$$$

     RDKit          3D

 23 21  0  0  0  0  0  0  0  0999 V2000
    0.5013    1.8718   -0.3247 C   0  0  0  0  0  0  0  0  0  0  0  0
    1.3807    2.4453    0.4817 C   0  0  0  0  0  0  0  0  0  0  0  0
    1.8489    3.8609    0.3769 C   0  0  0  0  0  0  0  0  0  0  0  0
    0.0471    2.4164   -1.1458 H   0  0  0  0  0  0  0  0  0  0  0  0
    1.8090    1.8593    1.2908 H   0  0  0  0  0  0  0  0  0  0  0  0
    1.6282    4.4125    1.2945 H   0  0  0  0  0  0  0  0  0  0  0  0
    1.3730    4.3776   -0.4574 H   0  0  0  0  0  0  0  0  0  0  0  0
    2.9319    3.9028    0.2352 H   0  0  0  0  0  0  0  0  0  0  0  0
   -0.2161   -2.9549   -1.6338 C   0  0  0  0  0  0  0  0  0  0  0  0
   -0.2161   -2.9549   -0.1109 C   0  0  0  0  0  0  0  0  0  0  0  0
   -0.2161   -1.5623    0.4851 C   0  0  0  0  0  0  0  0  0  0  0  0
   -1.4011   -0.8989    0.1210 O   0  0  0  0  0  0  0  0  0  0  0  0
   -1.4619    0.4122    0.6062 C   0  0  0  0  0  3  0  0  0  0  0  0
    0.6663   -2.4412   -2.0235 H   0  0  0  0  0  0  0  0  0  0  0  0
   -1.0985   -2.4450   -2.0202 H   0  0  0  0  0  0  0  0  0  0  0  0
   -0.2111   -3.9729   -2.0261 H   0  0  0  0  0  0  0  0  0  0  0  0
   -1.0902   -3.4931    0.2647 H   0  0  0  0  0  0  0  0  0  0  0  0
    0.6657   -3.4810    0.2653 H   0  0  0  0  0  0  0  0  0  0  0  0
   -0.1392   -1.6160    1.5812 H   0  0  0  0  0  0  0  0  0  0  0  0
    0.6563   -0.9953    0.1230 H   0  0  0  0  0  0  0  0  0  0  0  0
   -0.4732    1.1473    0.1374 H   0  0  0  0  0  0  0  0  0  0  0  0
   -1.4199    0.4383    1.7036 H   0  0  0  0  0  0  0  0  0  0  0  0
   -2.4076    0.8424    0.2790 H   0  0  0  0  0  0  0  0  0  0  0  0
  1  2  2  3
  1  4  1  0
  1 21  1  0
  2  3  1  0
  2  5  1  0
  3  6  1  0
  3  7  1  0
  3  8  1  0
  9 10  1  0
  9 14  1  0
  9 15  1  0
  9 16  1  0
 10 11  1  0
 10 17  1  0
 10 18  1  0
 11 12  1  0
 11 19  1  0
 11 20  1  0
 12 13  1  0
 13 22  1  0
 13 23  1  0
M  RAD  1  13   2
M  END
>  <reaction>  (11) 
rmg_rxn_683

>  <mol_properties>  (11) 
{"0": {"label": "*3", "atom_type": "Cd"}, "1": {"label": "*4", "atom_type": "Cd"}, "11": {"label": "*0", "atom_type": "O2s"}, "12": {"label": "*1", "atom_type": "Cs"}, "20": {"label": "*2", "atom_type": "H0"}}

>  <type>  (11) 
unop_7

>  <geom_source>  (11) 
Heuristics

$$$$

     RDKit          3D

 23 21  0  0  0  0  0  0  0  0999 V2000
    0.7414    1.8480    0.1619 C   0  0  0  0  0  0  0  0  0  0  0  0
    0.6224    2.5308   -0.9659 C   0  0  0  0  0  0  0  0  0  0  0  0
    1.1131    3.9259   -1.1830 C   0  0  0  0  0  0  0  0  0  0  0  0
    1.2225    2.2765    1.0349 H   0  0  0  0  0  0  0  0  0  0  0  0
    0.1326    2.0594   -1.8141 H   0  0  0  0  0  0  0  0  0  0  0  0
    1.8356    3.9610   -2.0025 H   0  0  0  0  0  0  0  0  0  0  0  0
    1.5902    4.3248   -0.2870 H   0  0  0  0  0  0  0  0  0  0  0  0
    0.2893    4.5894   -1.4588 H   0  0  0  0  0  0  0  0  0  0  0  0
    0.0241   -2.9787   -1.1472 C   0  0  0  0  0  0  0  0  0  0  0  0
    0.0241   -2.9787    0.3757 C   0  0  0  0  0  0  0  0  0  0  0  0
    0.0241   -1.5861    0.9717 C   0  0  0  0  0  0  0  0  0  0  0  0
   -1.1610   -0.9227    0.6076 O   0  0  0  0  0  0  0  0  0  0  0  0
   -1.2217    0.3884    1.0927 C   0  0  0  0  0  3  0  0  0  0  0  0
    0.9065   -2.4651   -1.5370 H   0  0  0  0  0  0  0  0  0  0  0  0
   -0.8584   -2.4688   -1.5337 H   0  0  0  0  0  0  0  0  0  0  0  0
    0.0290   -3.9967   -1.5395 H   0  0  0  0  0  0  0  0  0  0  0  0
   -0.8500   -3.5169    0.7513 H   0  0  0  0  0  0  0  0  0  0  0  0
    0.9058   -3.5049    0.7519 H   0  0  0  0  0  0  0  0  0  0  0  0
    0.1009   -1.6398    2.0678 H   0  0  0  0  0  0  0  0  0  0  0  0
    0.8965   -1.0191    0.6095 H   0  0  0  0  0  0  0  0  0  0  0  0
   -0.2331    1.1235    0.6240 H   0  0  0  0  0  0  0  0  0  0  0  0
   -1.1798    0.4145    2.1902 H   0  0  0  0  0  0  0  0  0  0  0  0
   -2.1674    0.8185    0.7656 H   0  0  0  0  0  0  0  0  0  0  0  0
  1  2  2  3
  1  4  1  0
  1 21  1  0
  2  3  1  0
  2  5  1  0
  3  6  1  0
  3  7  1  0
  3  8  1  0
  9 10  1  0
  9 14  1  0
  9 15  1  0
  9 16  1  0
 10 11  1  0
 10 17  1  0
 10 18  1  0
 11 12  1  0
 11 19  1  0
 11 20  1  0
 12 13  1  0
 13 22  1  0
 13 23  1  0
M  RAD  1  13   2
M  END
>  <reaction>  (12) 
rmg_rxn_683

>  <mol_properties>  (12) 
{"0": {"label": "*3", "atom_type": "Cd"}, "1": {"label": "*4", "atom_type": "Cd"}, "11": {"label": "*0", "atom_type": "O2s"}, "12": {"label": "*1", "atom_type": "Cs"}, "20": {"label": "*2", "atom_type": "H0"}}

>  <type>  (12) 
unop_8

>  <geom_source>  (12) 
Heuristics

$$$$

     RDKit          3D

 23 21  0  0  0  0  0  0  0  0999 V2000
    0.3195    2.2302   -0.0444 C   0  0  0  0  0  0  0  0  0  0  0  0
    1.4925    1.6989   -0.3510 C   0  0  0  0  0  0  0  0  0  0  0  0
    2.7652    2.4638   -0.5224 C   0  0  0  0  0  0  0  0  0  0  0  0
    0.2042    3.2982    0.1077 H   0  0  0  0  0  0  0  0  0  0  0  0
    1.5588    0.6233   -0.4938 H   0  0  0  0  0  0  0  0  0  0  0  0
    3.5261    2.1154    0.1808 H   0  0  0  0  0  0  0  0  0  0  0  0
    2.6130    3.5319   -0.3627 H   0  0  0  0  0  0  0  0  0  0  0  0
    3.1728    2.3205   -1.5265 H   0  0  0  0  0  0  0  0  0  0  0  0
   -0.3979   -2.5966   -1.3536 C   0  0  0  0  0  0  0  0  0  0  0  0
   -0.3979   -2.5966    0.1693 C   0  0  0  0  0  0  0  0  0  0  0  0
   -0.3979   -1.2040    0.7654 C   0  0  0  0  0  0  0  0  0  0  0  0
   -1.5829   -0.5406    0.4012 O   0  0  0  0  0  0  0  0  0  0  0  0
   -1.6437    0.7705    0.8864 C   0  0  0  0  0  3  0  0  0  0  0  0
    0.4845   -2.0829   -1.7433 H   0  0  0  0  0  0  0  0  0  0  0  0
   -1.2803   -2.0867   -1.7400 H   0  0  0  0  0  0  0  0  0  0  0  0
   -0.3930   -3.6146   -1.7459 H   0  0  0  0  0  0  0  0  0  0  0  0
   -1.2720   -3.1347    0.5450 H   0  0  0  0  0  0  0  0  0  0  0  0
    0.4838   -3.1227    0.5456 H   0  0  0  0  0  0  0  0  0  0  0  0
   -0.3211   -1.2577    1.8615 H   0  0  0  0  0  0  0  0  0  0  0  0
    0.4745   -0.6370    0.4032 H   0  0  0  0  0  0  0  0  0  0  0  0
   -0.6550    1.5056    0.4177 H   0  0  0  0  0  0  0  0  0  0  0  0
   -1.6017    0.7967    1.9839 H   0  0  0  0  0  0  0  0  0  0  0  0
   -2.5894    1.2007    0.5593 H   0  0  0  0  0  0  0  0  0  0  0  0
  1  2  2  3
  1  4  1  0
  1 21  1  0
  2  3  1  0
  2  5  1  0
  3  6  1  0
  3  7  1  0
  3  8  1  0
  9 10  1  0
  9 14  1  0
  9 15  1  0
  9 16  1  0
 10 11  1  0
 10 17  1  0
 10 18  1  0
 11 12  1  0
 11 19  1  0
 11 20  1  0
 12 13  1  0
 13 22  1  0
 13 23  1  0
M  RAD  1  13   2
M  END
>  <reaction>  (13) 
rmg_rxn_683

>  <mol_properties>  (13) 
{"0": {"label": "*3", "atom_type": "Cd"}, "1": {"label": "*4", "atom_type": "Cd"}, "11": {"label": "*0", "atom_type": "O2s"}, "12": {"label": "*1", "atom_type": "Cs"}, "20": {"label": "*2", "atom_type": "H0"}}

>  <type>  (13) 
unop_9

>  <geom_source>  (13) 
Heuristics

$$$$

     RDKit          3D

 23 21  0  0  0  0  0  0  0  0999 V2000
    0.6644    1.9870    0.2586 C   0  0  0  0  0  0  0  0  0  0  0  0
    0.8239    2.1859   -1.0404 C   0  0  0  0  0  0  0  0  0  0  0  0
    1.3817    3.4273   -1.6587 C   0  0  0  0  0  0  0  0  0  0  0  0
    0.9400    2.7440    0.9852 H   0  0  0  0  0  0  0  0  0  0  0  0
    0.5332    1.3979   -1.7303 H   0  0  0  0  0  0  0  0  0  0  0  0
    2.2745    3.2012   -2.2472 H   0  0  0  0  0  0  0  0  0  0  0  0
    1.6475    4.1653   -0.9009 H   0  0  0  0  0  0  0  0  0  0  0  0
    0.6585    3.8802   -2.3418 H   0  0  0  0  0  0  0  0  0  0  0  0
   -0.0530   -2.8398   -1.0506 C   0  0  0  0  0  0  0  0  0  0  0  0
   -0.0530   -2.8398    0.4723 C   0  0  0  0  0  0  0  0  0  0  0  0
   -0.0530   -1.4472    1.0684 C   0  0  0  0  0  0  0  0  0  0  0  0
   -1.2380   -0.7838    0.7042 O   0  0  0  0  0  0  0  0  0  0  0  0
   -1.2988    0.5273    1.1894 C   0  0  0  0  0  3  0  0  0  0  0  0
    0.8294   -2.3261   -1.4403 H   0  0  0  0  0  0  0  0  0  0  0  0
   -0.9354   -2.3299   -1.4370 H   0  0  0  0  0  0  0  0  0  0  0  0
   -0.0481   -3.8578   -1.4429 H   0  0  0  0  0  0  0  0  0  0  0  0
   -0.9271   -3.3779    0.8480 H   0  0  0  0  0  0  0  0  0  0  0  0
    0.8287   -3.3659    0.8486 H   0  0  0  0  0  0  0  0  0  0  0  0
    0.0238   -1.5009    2.1645 H   0  0  0  0  0  0  0  0  0  0  0  0
    0.8194   -0.8802    0.7062 H   0  0  0  0  0  0  0  0  0  0  0  0
   -0.3101    1.2624    0.7207 H   0  0  0  0  0  0  0  0  0  0  0  0
   -1.2568    0.5535    2.2869 H   0  0  0  0  0  0  0  0  0  0  0  0
   -2.2445    0.9575    0.8623 H   0  0  0  0  0  0  0  0  0  0  0  0
  1  2  2  3
  1  4  1  0
  1 21  1  0
  2  3  1  0
  2  5  1  0
  3  6  1  0
  3  7  1  0
  3  8  1  0
  9 10  1  0
  9 14  1  0
  9 15  1  0
  9 16  1  0
 10 11  1  0
 10 17  1  0
 10 18  1  0
 11 12  1  0
 11 19  1  0
 11 20  1  0
 12 13  1  0
 13 22  1  0
 13 23  1  0
M  RAD  1  13   2
M  END
>  <reaction>  (14) 
rmg_rxn_683

>  <mol_properties>  (14) 
{"0": {"label": "*3", "atom_type": "Cd"}, "1": {"label": "*4", "atom_type": "Cd"}, "11": {"label": "*0", "atom_type": "O2s"}, "12": {"label": "*1", "atom_type": "Cs"}, "20": {"label": "*2", "atom_type": "H0"}}

>  <type>  (14) 
unop_10

>  <geom_source>  (14) 
Heuristics

$$$$

     RDKit          3D

 23 21  0  0  0  0  0  0  0  0999 V2000
    0.5932    1.7824   -0.2327 C   0  0  0  0  0  0  0  0  0  0  0  0
    1.0975    2.7895    0.4627 C   0  0  0  0  0  0  0  0  0  0  0  0
    1.5621    4.0872   -0.1155 C   0  0  0  0  0  0  0  0  0  0  0  0
    0.4811    1.8387   -1.3104 H   0  0  0  0  0  0  0  0  0  0  0  0
    1.1904    2.6866    1.5408 H   0  0  0  0  0  0  0  0  0  0  0  0
    1.0065    4.9251    0.3134 H   0  0  0  0  0  0  0  0  0  0  0  0
    1.4351    4.1093   -1.1986 H   0  0  0  0  0  0  0  0  0  0  0  0
    2.6176    4.2582    0.1109 H   0  0  0  0  0  0  0  0  0  0  0  0
   -0.1242   -3.0444   -1.5419 C   0  0  0  0  0  0  0  0  0  0  0  0
   -0.1242   -3.0444   -0.0190 C   0  0  0  0  0  0  0  0  0  0  0  0
   -0.1242   -1.6518    0.5771 C   0  0  0  0  0  0  0  0  0  0  0  0
   -1.3092   -0.9884    0.2129 O   0  0  0  0  0  0  0  0  0  0  0  0
   -1.3700    0.3227    0.6981 C   0  0  0  0  0  3  0  0  0  0  0  0
    0.7582   -2.5307   -1.9316 H   0  0  0  0  0  0  0  0  0  0  0  0
   -1.0066   -2.5345   -1.9283 H   0  0  0  0  0  0  0  0  0  0  0  0
   -0.1193   -4.0624   -1.9342 H   0  0  0  0  0  0  0  0  0  0  0  0
   -0.9983   -3.5825    0.3566 H   0  0  0  0  0  0  0  0  0  0  0  0
    0.7575   -3.5705    0.3573 H   0  0  0  0  0  0  0  0  0  0  0  0
   -0.0474   -1.7055    1.6731 H   0  0  0  0  0  0  0  0  0  0  0  0
    0.7482   -1.0848    0.2149 H   0  0  0  0  0  0  0  0  0  0  0  0
   -0.3813    1.0578    0.2293 H   0  0  0  0  0  0  0  0  0  0  0  0
   -1.3280    0.3489    1.7956 H   0  0  0  0  0  0  0  0  0  0  0  0
   -2.3157    0.7529    0.3710 H   0  0  0  0  0  0  0  0  0  0  0  0
  1  2  2  3
  1  4  1  0
  1 21  1  0
  2  3  1  0
  2  5  1  0
  3  6  1  0
  3  7  1  0
  3  8  1  0
  9 10  1  0
  9 14  1  0
  9 15  1  0
  9 16  1  0
 10 11  1  0
 10 17  1  0
 10 18  1  0
 11 12  1  0
 11 19  1  0
 11 20  1  0
 12 13  1  0
 13 22  1  0
 13 23  1  0
M  RAD  1  13   2
M  END
>  <reaction>  (15) 
rmg_rxn_683

>  <mol_properties>  (15) 
{"0": {"label": "*3", "atom_type": "Cd"}, "1": {"label": "*4", "atom_type": "Cd"}, "11": {"label": "*0", "atom_type": "O2s"}, "12": {"label": "*1", "atom_type": "Cs"}, "20": {"label": "*2", "atom_type": "H0"}}

>  <type>  (15) 
unop_11

>  <geom_source>  (15) 
Heuristics

$$$$

     RDKit          3D

 23 21  0  0  0  0  0  0  0  0999 V2000
    0.4013    2.2240    0.1377 C   0  0  0  0  0  0  0  0  0  0  0  0
    1.3069    1.7220   -0.6871 C   0  0  0  0  0  0  0  0  0  0  0  0
    2.4579    2.4799   -1.2658 C   0  0  0  0  0  0  0  0  0  0  0  0
    0.4400    3.2598    0.4581 H   0  0  0  0  0  0  0  0  0  0  0  0
    1.2267    0.6783   -0.9802 H   0  0  0  0  0  0  0  0  0  0  0  0
    3.4080    2.0174   -0.9863 H   0  0  0  0  0  0  0  0  0  0  0  0
    2.4660    3.5154   -0.9233 H   0  0  0  0  0  0  0  0  0  0  0  0
    2.4145    2.4789   -2.3580 H   0  0  0  0  0  0  0  0  0  0  0  0
   -0.3160   -2.6028   -1.1715 C   0  0  0  0  0  0  0  0  0  0  0  0
   -0.3160   -2.6028    0.3514 C   0  0  0  0  0  0  0  0  0  0  0  0
   -0.3160   -1.2102    0.9475 C   0  0  0  0  0  0  0  0  0  0  0  0
   -1.5011   -0.5467    0.5833 O   0  0  0  0  0  0  0  0  0  0  0  0
   -1.5619    0.7644    1.0685 C   0  0  0  0  0  3  0  0  0  0  0  0
    0.5663   -2.0891   -1.5612 H   0  0  0  0  0  0  0  0  0  0  0  0
   -1.1985   -2.0929   -1.5579 H   0  0  0  0  0  0  0  0  0  0  0  0
   -0.3111   -3.6208   -1.5638 H   0  0  0  0  0  0  0  0  0  0  0  0
   -1.1901   -3.1409    0.7270 H   0  0  0  0  0  0  0  0  0  0  0  0
    0.5657   -3.1289    0.7277 H   0  0  0  0  0  0  0  0  0  0  0  0
   -0.2392   -1.2639    2.0435 H   0  0  0  0  0  0  0  0  0  0  0  0
    0.5563   -0.6432    0.5853 H   0  0  0  0  0  0  0  0  0  0  0  0
   -0.5732    1.4994    0.5997 H   0  0  0  0  0  0  0  0  0  0  0  0
   -1.5199    0.7905    2.1660 H   0  0  0  0  0  0  0  0  0  0  0  0
   -2.5075    1.1945    0.7413 H   0  0  0  0  0  0  0  0  0  0  0  0
  1  2  2  3
  1  4  1  0
  1 21  1  0
  2  3  1  0
  2  5  1  0
  3  6  1  0
  3  7  1  0
  3  8  1  0
  9 10  1  0
  9 14  1  0
  9 15  1  0
  9 16  1  0
 10 11  1  0
 10 17  1  0
 10 18  1  0
 11 12  1  0
 11 19  1  0
 11 20  1  0
 12 13  1  0
 13 22  1  0
 13 23  1  0
M  RAD  1  13   2
M  END
>  <reaction>  (16) 
rmg_rxn_683

>  <mol_properties>  (16) 
{"0": {"label": "*3", "atom_type": "Cd"}, "1": {"label": "*4", "atom_type": "Cd"}, "11": {"label": "*0", "atom_type": "O2s"}, "12": {"label": "*1", "atom_type": "Cs"}, "20": {"label": "*2", "atom_type": "H0"}}

>  <type>  (16) 
unop_12

>  <geom_source>  (16) 
Heuristics

$$$$

     RDKit          3D

 23 21  0  0  0  0  0  0  0  0999 V2000
    0.6389   -1.0746   -0.1136 O   0  0  0  0  0  0  0  0  0  0  0  0
    2.1820    0.6409    0.6086 C   0  0  0  0  0  0  0  0  0  0  0  0
    2.0079   -0.7185   -0.0760 C   0  0  0  0  0  0  0  0  0  0  0  0
    3.6567    1.0094    0.7432 C   0  0  0  0  0  0  0  0  0  0  0  0
   -4.2218    0.3005    0.5621 C   0  0  0  0  0  0  0  0  0  0  0  0
   -3.1465    0.0506   -0.4491 C   0  0  0  0  0  0  0  0  0  0  0  0
   -2.2052   -0.8724   -0.2428 C   0  0  0  0  0  0  0  0  0  0  0  0
    0.0771   -0.7209   -1.3575 C   0  0  0  0  0  3  0  0  0  0  0  0
    1.6673    1.4282    0.0177 H   0  0  0  0  0  0  0  0  0  0  0  0
    1.7226    0.6065    1.6203 H   0  0  0  0  0  0  0  0  0  0  0  0
    2.4959   -0.7139   -1.0807 H   0  0  0  0  0  0  0  0  0  0  0  0
    2.5385   -1.4875    0.5254 H   0  0  0  0  0  0  0  0  0  0  0  0
    4.1316    1.0719   -0.2592 H   0  0  0  0  0  0  0  0  0  0  0  0
    4.1901    0.2514    1.3556 H   0  0  0  0  0  0  0  0  0  0  0  0
    3.7489    1.9972    1.2418 H   0  0  0  0  0  0  0  0  0  0  0  0
   -3.7700    0.6205    1.5248 H   0  0  0  0  0  0  0  0  0  0  0  0
   -4.8150   -0.6247    0.7214 H   0  0  0  0  0  0  0  0  0  0  0  0
   -4.8980    1.1024    0.1988 H   0  0  0  0  0  0  0  0  0  0  0  0
   -3.1312    0.6300   -1.3671 H   0  0  0  0  0  0  0  0  0  0  0  0
   -2.1955   -1.4669    0.6660 H   0  0  0  0  0  0  0  0  0  0  0  0
   -1.3291   -1.0592   -1.0928 H   0  0  0  0  0  0  0  0  0  0  0  0
    0.1629    0.3685   -1.5638 H   0  0  0  0  0  0  0  0  0  0  0  0
    0.4917   -1.3395   -2.1835 H   0  0  0  0  0  0  0  0  0  0  0  0
  1  8  1  0
  1  3  1  0
  2  4  1  0
  2  3  1  0
  2  9  1  0
  2 10  1  0
  3 11  1  0
  3 12  1  0
  4 13  1  0
  4 14  1  0
  4 15  1  0
  5  6  1  0
  5 16  1  0
  5 17  1  0
  5 18  1  0
  6  7  2  3
  6 19  1  0
  7 20  1  0
  7 21  1  0
  8 22  1  0
  8 23  1  0
M  RAD  1   8   2
M  END
>  <reaction>  (17) 
rmg_rxn_683

>  <mol_properties>  (17) 
{"0": {"label": "*3", "atom_type": "Cd"}, "1": {"label": "*4", "atom_type": "Cd"}, "11": {"label": "*0", "atom_type": "O2s"}, "12": {"label": "*1", "atom_type": "Cs"}, "20": {"label": "*2", "atom_type": "H0"}}

>  <type>  (17) 
unop_13

>  <geom_source>  (17) 
AutoTST

$$$$

     RDKit          3D

 23 21  0  0  0  0  0  0  0  0999 V2000
    0.5348    2.1301    0.2529 C   0  0  0  0  0  0  0  0  0  0  0  0
    1.0694    1.8955   -0.9352 C   0  0  0  0  0  0  0  0  0  0  0  0
    1.9061    2.8629   -1.7087 C   0  0  0  0  0  0  0  0  0  0  0  0
    0.6767    3.0787    0.7600 H   0  0  0  0  0  0  0  0  0  0  0  0
    0.8995    0.9296   -1.4042 H   0  0  0  0  0  0  0  0  0  0  0  0
    2.8979    2.4482   -1.9060 H   0  0  0  0  0  0  0  0  0  0  0  0
    2.0279    3.8037   -1.1705 H   0  0  0  0  0  0  0  0  0  0  0  0
    1.4539    3.0781   -2.6802 H   0  0  0  0  0  0  0  0  0  0  0  0
   -0.1826   -2.6966   -1.0563 C   0  0  0  0  0  0  0  0  0  0  0  0
   -0.1826   -2.6966    0.4666 C   0  0  0  0  0  0  0  0  0  0  0  0
   -0.1826   -1.3040    1.0627 C   0  0  0  0  0  0  0  0  0  0  0  0
   -1.3676   -0.6406    0.6985 O   0  0  0  0  0  0  0  0  0  0  0  0
   -1.4284    0.6705    1.1837 C   0  0  0  0  0  3  0  0  0  0  0  0
    0.6998   -2.1829   -1.4460 H   0  0  0  0  0  0  0  0  0  0  0  0
   -1.0650   -2.1867   -1.4427 H   0  0  0  0  0  0  0  0  0  0  0  0
   -0.1777   -3.7146   -1.4486 H   0  0  0  0  0  0  0  0  0  0  0  0
   -1.0567   -3.2348    0.8422 H   0  0  0  0  0  0  0  0  0  0  0  0
    0.6992   -3.2227    0.8428 H   0  0  0  0  0  0  0  0  0  0  0  0
   -0.1057   -1.3577    2.1587 H   0  0  0  0  0  0  0  0  0  0  0  0
    0.6898   -0.7370    0.7005 H   0  0  0  0  0  0  0  0  0  0  0  0
   -0.4397    1.4056    0.7149 H   0  0  0  0  0  0  0  0  0  0  0  0
   -1.3864    0.6966    2.2811 H   0  0  0  0  0  0  0  0  0  0  0  0
   -2.3741    1.1007    0.8565 H   0  0  0  0  0  0  0  0  0  0  0  0
  1  2  2  3
  1  4  1  0
  1 21  1  0
  2  3  1  0
  2  5  1  0
  3  6  1  0
  3  7  1  0
  3  8  1  0
  9 10  1  0
  9 14  1  0
  9 15  1  0
  9 16  1  0
 10 11  1  0
 10 17  1  0
 10 18  1  0
 11 12  1  0
 11 19  1  0
 11 20  1  0
 12 13  1  0
 13 22  1  0
 13 23  1  0
M  RAD  1  13   2
M  END
>  <reaction>  (18) 
rmg_rxn_683

>  <mol_properties>  (18) 
{"0": {"label": "*3", "atom_type": "Cd"}, "1": {"label": "*4", "atom_type": "Cd"}, "11": {"label": "*0", "atom_type": "O2s"}, "12": {"label": "*1", "atom_type": "Cs"}, "20": {"label": "*2", "atom_type": "H0"}}

>  <type>  (18) 
unop_14

>  <geom_source>  (18) 
gaussian_log

$$$$
