
     RDKit          3D

 15 14  0  0  0  0  0  0  0  0999 V2000
   -2.0554    0.0723   -0.4910 C   0  0  0  0  0  0  0  0  0  0  0  0
   -0.7461   -0.6266   -0.8178 C   0  0  0  0  0  0  0  0  0  0  0  0
    0.3249    0.2591   -1.9782 S   0  0  0  0  0  0  0  0  0  0  0  0
   -0.7172    0.3642   -3.4551 C   0  0  0  0  0  0  0  0  0  0  0  0
   -1.1375   -0.9737   -4.0409 C   0  0  0  0  0  0  0  0  0  0  0  0
   -2.7005    0.1427   -1.3684 H   0  0  0  0  0  0  0  0  0  0  0  0
   -2.6016   -0.4848    0.2733 H   0  0  0  0  0  0  0  0  0  0  0  0
   -1.8758    1.0825   -0.1213 H   0  0  0  0  0  0  0  0  0  0  0  0
   -0.1320   -0.7246    0.0789 H   0  0  0  0  0  0  0  0  0  0  0  0
   -0.9254   -1.6374   -1.1879 H   0  0  0  0  0  0  0  0  0  0  0  0
   -1.5873    0.9874   -3.2422 H   0  0  0  0  0  0  0  0  0  0  0  0
   -0.1021    0.9161   -4.1678 H   0  0  0  0  0  0  0  0  0  0  0  0
   -1.7876   -1.5224   -3.3574 H   0  0  0  0  0  0  0  0  0  0  0  0
   -0.2676   -1.5962   -4.2534 H   0  0  0  0  0  0  0  0  0  0  0  0
   -1.6916   -0.8229   -4.9700 H   0  0  0  0  0  0  0  0  0  0  0  0
  1  2  1  0
  1  6  1  0
  1  7  1  0
  1  8  1  0
  2  3  1  0
  2  9  1  0
  2 10  1  0
  3  4  1  0
  4  5  1  0
  4 11  1  0
  4 12  1  0
  5 13  1  0
  5 14  1  0
  5 15  1  0
M  END
>  <reaction>  (1) 
rmg_rxn_199

>  <mol_properties>  (1) 
{"1": {"label": "donator", "atom_type": "Cs"}, "8": {"label": "d_hydrogen", "atom_type": "H0"}}

>  <type>  (1) 
r1h

$$$$

     RDKit          3D

 13 13  0  0  0  0  0  0  0  0999 V2000
   -1.1371    0.3608    0.3110 C   0  0  0  0  0  3  0  0  0  0  0  0
   -0.0045    1.3224    0.2943 C   0  0  0  0  0  0  0  0  0  0  0  0
    1.2245    0.6965    0.6137 O   0  0  0  0  0  0  0  0  0  0  0  0
    1.3926   -0.4921   -0.0955 C   0  0  0  0  0  0  0  0  0  0  0  0
    0.4387   -1.4537    0.2351 O   0  0  0  0  0  0  0  0  0  0  0  0
   -0.8659   -1.0349   -0.1206 C   0  0  0  0  0  0  0  0  0  0  0  0
   -2.1544    0.7285    0.3341 H   0  0  0  0  0  0  0  0  0  0  0  0
   -0.1488    2.1272    1.0165 H   0  0  0  0  0  0  0  0  0  0  0  0
    0.0825    1.7949   -0.7036 H   0  0  0  0  0  0  0  0  0  0  0  0
    1.3549   -0.2872   -1.1815 H   0  0  0  0  0  0  0  0  0  0  0  0
    2.3646   -0.8956    0.1787 H   0  0  0  0  0  0  0  0  0  0  0  0
   -1.5620   -1.7401    0.3358 H   0  0  0  0  0  0  0  0  0  0  0  0
   -0.9852   -1.1268   -1.2179 H   0  0  0  0  0  0  0  0  0  0  0  0
  1  2  1  0
  1  6  1  0
  1  7  1  0
  2  3  1  0
  2  8  1  0
  2  9  1  0
  3  4  1  0
  4  5  1  0
  4 10  1  0
  4 11  1  0
  5  6  1  0
  6 12  1  0
  6 13  1  0
M  RAD  1   1   2
M  END
>  <reaction>  (2) 
rmg_rxn_199

>  <mol_properties>  (2) 
{"0": {"label": "acceptor", "atom_type": "Cs"}}

>  <type>  (2) 
r2

$$$$

     RDKit          3D

 14 14  0  0  0  0  0  0  0  0999 V2000
   -1.1778    0.2241    0.1818 C   0  0  0  0  0  0  0  0  0  0  0  0
   -0.5633   -1.1636    0.0678 C   0  0  0  0  0  0  0  0  0  0  0  0
    0.6943   -1.1996    0.7146 O   0  0  0  0  0  0  0  0  0  0  0  0
    1.5547   -0.2288    0.2011 C   0  0  0  0  0  0  0  0  0  0  0  0
    1.0729    1.0696    0.3698 O   0  0  0  0  0  0  0  0  0  0  0  0
   -0.1607    1.2493   -0.2989 C   0  0  0  0  0  0  0  0  0  0  0  0
   -2.0927    0.2866   -0.4117 H   0  0  0  0  0  0  0  0  0  0  0  0
   -1.4303    0.4248    1.2248 H   0  0  0  0  0  0  0  0  0  0  0  0
   -1.1822   -1.9235    0.5431 H   0  0  0  0  0  0  0  0  0  0  0  0
   -0.4389   -1.4347   -0.9919 H   0  0  0  0  0  0  0  0  0  0  0  0
    1.7250   -0.4207   -0.8742 H   0  0  0  0  0  0  0  0  0  0  0  0
    2.4896   -0.3010    0.7524 H   0  0  0  0  0  0  0  0  0  0  0  0
   -0.0080    1.1481   -1.3844 H   0  0  0  0  0  0  0  0  0  0  0  0
   -0.4826    2.2695   -0.0942 H   0  0  0  0  0  0  0  0  0  0  0  0
  1  2  1  0
  1  6  1  0
  1  7  1  0
  1  8  1  0
  2  3  1  0
  2  9  1  0
  2 10  1  0
  3  4  1  0
  4  5  1  0
  4 11  1  0
  4 12  1  0
  5  6  1  0
  6 13  1  0
  6 14  1  0
M  END
>  <reaction>  (3) 
rmg_rxn_199

>  <mol_properties>  (3) 
{"0": {"label": "acceptor", "atom_type": "Cs"}, "13": {"label": "a_hydrogen", "atom_type": "H0"}}

>  <type>  (3) 
r2h

$$$$

     RDKit          3D

 28 27  0  0  0  0  0  0  0  0999 V2000
   -0.0922   -1.0668   -0.0310 C   0  0  0  0  0  3  0  0  0  0  0  0
    0.0959   -0.4328    1.3205 C   0  0  0  0  0  0  0  0  0  0  0  0
   -0.5144   -1.2366    2.3265 O   0  0  0  0  0  0  0  0  0  0  0  0
   -1.8585   -1.4686    2.0362 C   0  0  0  0  0  0  0  0  0  0  0  0
   -2.0507   -2.1509    0.8331 O   0  0  0  0  0  0  0  0  0  0  0  0
   -1.5423   -1.3971   -0.2626 C   0  0  0  0  0  0  0  0  0  0  0  0
    0.5813   -1.9000   -0.2253 H   0  0  0  0  0  0  0  0  0  0  0  0
    1.1448   -0.3354    1.5917 H   0  0  0  0  0  0  0  0  0  0  0  0
   -0.3546    0.5713    1.3357 H   0  0  0  0  0  0  0  0  0  0  0  0
   -2.3988   -0.5045    2.0001 H   0  0  0  0  0  0  0  0  0  0  0  0
   -2.2570   -2.0970    2.8300 H   0  0  0  0  0  0  0  0  0  0  0  0
   -2.1327   -0.4739   -0.3627 H   0  0  0  0  0  0  0  0  0  0  0  0
   -1.6957   -2.0022   -1.1549 H   0  0  0  0  0  0  0  0  0  0  0  0
   -0.8143    1.5124   -2.0902 C   0  0  0  0  0  0  0  0  0  0  0  0
    0.5325    0.8985   -1.7860 C   0  0  0  0  0  0  0  0  0  0  0  0
    1.6531    2.0508   -1.0292 S   0  0  0  0  0  0  0  0  0  0  0  0
    3.2390    1.2107   -1.2573 C   0  0  0  0  0  0  0  0  0  0  0  0
    3.4254   -0.0495   -0.4290 C   0  0  0  0  0  0  0  0  0  0  0  0
   -0.7321    2.3147   -2.8269 H   0  0  0  0  0  0  0  0  0  0  0  0
   -1.4923    0.7549   -2.4868 H   0  0  0  0  0  0  0  0  0  0  0  0
   -1.2681    1.9304   -1.1888 H   0  0  0  0  0  0  0  0  0  0  0  0
    0.2923   -0.0729   -0.9684 H   0  0  0  0  0  0  0  0  0  0  0  0
    0.9896    0.4130   -2.6502 H   0  0  0  0  0  0  0  0  0  0  0  0
    3.3618    1.0022   -2.3221 H   0  0  0  0  0  0  0  0  0  0  0  0
    3.9855    1.9599   -0.9892 H   0  0  0  0  0  0  0  0  0  0  0  0
    2.6820   -0.8051   -0.6842 H   0  0  0  0  0  0  0  0  0  0  0  0
    3.3371    0.1684    0.6357 H   0  0  0  0  0  0  0  0  0  0  0  0
    4.4139   -0.4772   -0.6102 H   0  0  0  0  0  0  0  0  0  0  0  0
  1  2  1  0
  1  6  1  0
  1  7  1  0
  2  3  1  0
  2  8  1  0
  2  9  1  0
  3  4  1  0
  4  5  1  0
  4 10  1  0
  4 11  1  0
  5  6  1  0
  6 12  1  0
  6 13  1  0
 14 15  1  0
 14 19  1  0
 14 20  1  0
 14 21  1  0
 15 16  1  0
 15 22  1  0
 15 23  1  0
 16 17  1  0
 17 18  1  0
 17 24  1  0
 17 25  1  0
 18 26  1  0
 18 27  1  0
 18 28  1  0
M  RAD  1   1   2
M  END
>  <reaction>  (4) 
rmg_rxn_199

>  <mol_properties>  (4) 
{"0": {"label": "*3", "atom_type": "Cs"}, "1": {"label": "*4", "atom_type": "Cs"}, "14": {"label": "*1", "atom_type": "Cs"}, "15": {"label": "*0", "atom_type": "S2s"}, "21": {"label": "*2", "atom_type": "H0"}}

>  <type>  (4) 
ts

$$$$

     RDKit          3D

 28 27  0  0  0  0  0  0  0  0999 V2000
   -1.4135   -1.1770   -0.3201 C   0  0  0  0  0  3  0  0  0  0  0  0
   -1.0756   -2.3907    0.5339 C   0  0  0  0  0  0  0  0  0  0  0  0
   -1.8253   -2.3726    1.7335 O   0  0  0  0  0  0  0  0  0  0  0  0
   -1.6161   -1.1894    2.4424 C   0  0  0  0  0  0  0  0  0  0  0  0
   -2.0020   -0.0531    1.7309 O   0  0  0  0  0  0  0  0  0  0  0  0
   -1.2635    0.0758    0.5311 C   0  0  0  0  0  0  0  0  0  0  0  0
   -2.4442   -1.2560   -0.6713 H   0  0  0  0  0  0  0  0  0  0  0  0
   -1.3163   -3.3247    0.0278 H   0  0  0  0  0  0  0  0  0  0  0  0
   -0.0010   -2.3959    0.7728 H   0  0  0  0  0  0  0  0  0  0  0  0
   -0.5475   -1.1077    2.7135 H   0  0  0  0  0  0  0  0  0  0  0  0
   -2.2324   -1.2353    3.3375 H   0  0  0  0  0  0  0  0  0  0  0  0
   -0.2021    0.2442    0.7698 H   0  0  0  0  0  0  0  0  0  0  0  0
   -1.6428    0.9613    0.0230 H   0  0  0  0  0  0  0  0  0  0  0  0
    0.7745   -0.0632   -2.7554 C   0  0  0  0  0  0  0  0  0  0  0  0
    0.7745   -0.0632   -1.2356 C   0  0  0  0  0  0  0  0  0  0  0  0
    0.7745    1.5779   -0.4707 S   0  0  0  0  0  0  0  0  0  0  0  0
    2.3150    2.2918   -1.0993 C   0  0  0  0  0  0  0  0  0  0  0  0
    3.5760    1.5329   -0.7201 C   0  0  0  0  0  0  0  0  0  0  0  0
    1.6975    0.3603   -3.1548 H   0  0  0  0  0  0  0  0  0  0  0  0
    0.6919   -1.0844   -3.1340 H   0  0  0  0  0  0  0  0  0  0  0  0
   -0.0613    0.5192   -3.1448 H   0  0  0  0  0  0  0  0  0  0  0  0
   -0.3190   -0.6199   -0.7781 H   0  0  0  0  0  0  0  0  0  0  0  0
    1.6107   -0.6459   -0.8456 H   0  0  0  0  0  0  0  0  0  0  0  0
    2.2439    2.4140   -2.1814 H   0  0  0  0  0  0  0  0  0  0  0  0
    2.3301    3.2950   -0.6701 H   0  0  0  0  0  0  0  0  0  0  0  0
    3.5972    0.5411   -1.1748 H   0  0  0  0  0  0  0  0  0  0  0  0
    3.6466    1.4109    0.3613 H   0  0  0  0  0  0  0  0  0  0  0  0
    4.4607    2.0713   -1.0670 H   0  0  0  0  0  0  0  0  0  0  0  0
  1  2  1  0
  1  6  1  0
  1  7  1  0
  2  3  1  0
  2  8  1  0
  2  9  1  0
  3  4  1  0
  4  5  1  0
  4 10  1  0
  4 11  1  0
  5  6  1  0
  6 12  1  0
  6 13  1  0
 14 15  1  0
 14 19  1  0
 14 20  1  0
 14 21  1  0
 15 16  1  0
 15 22  1  0
 15 23  1  0
 16 17  1  0
 17 18  1  0
 17 24  1  0
 17 25  1  0
 18 26  1  0
 18 27  1  0
 18 28  1  0
M  RAD  1   1   2
M  END
>  <reaction>  (5) 
rmg_rxn_199

>  <mol_properties>  (5) 
{"0": {"label": "*3", "atom_type": "Cs"}, "1": {"label": "*4", "atom_type": "Cs"}, "14": {"label": "*1", "atom_type": "Cs"}, "15": {"label": "*0", "atom_type": "S2s"}, "21": {"label": "*2", "atom_type": "H0"}}

>  <type>  (5) 
unop_1

>  <geom_source>  (5) 
Heuristics

$$$$

     RDKit          3D

 28 27  0  0  0  0  0  0  0  0999 V2000
   -1.3149   -0.5002    0.2023 C   0  0  0  0  0  3  0  0  0  0  0  0
   -1.8203   -1.5575   -0.7689 C   0  0  0  0  0  0  0  0  0  0  0  0
   -2.6077   -2.5153   -0.0877 O   0  0  0  0  0  0  0  0  0  0  0  0
   -1.8975   -3.0996    0.9614 C   0  0  0  0  0  0  0  0  0  0  0  0
   -1.4948   -2.1764    1.9268 O   0  0  0  0  0  0  0  0  0  0  0  0
   -0.6369   -1.1972    1.3732 C   0  0  0  0  0  0  0  0  0  0  0  0
   -2.1580    0.0885    0.5690 H   0  0  0  0  0  0  0  0  0  0  0  0
   -2.4512   -1.1285   -1.5461 H   0  0  0  0  0  0  0  0  0  0  0  0
   -0.9698   -2.0601   -1.2547 H   0  0  0  0  0  0  0  0  0  0  0  0
   -1.0096   -3.6207    0.5586 H   0  0  0  0  0  0  0  0  0  0  0  0
   -2.5644   -3.8073    1.4489 H   0  0  0  0  0  0  0  0  0  0  0  0
    0.2969   -1.6744    1.0382 H   0  0  0  0  0  0  0  0  0  0  0  0
   -0.3949   -0.5023    2.1762 H   0  0  0  0  0  0  0  0  0  0  0  0
    0.8731    0.6136   -2.2330 C   0  0  0  0  0  0  0  0  0  0  0  0
    0.8731    0.6136   -0.7132 C   0  0  0  0  0  0  0  0  0  0  0  0
    0.8731    2.2547    0.0516 S   0  0  0  0  0  0  0  0  0  0  0  0
    2.4137    2.9686   -0.5769 C   0  0  0  0  0  0  0  0  0  0  0  0
    3.6746    2.2098   -0.1977 C   0  0  0  0  0  0  0  0  0  0  0  0
    1.7961    1.0372   -2.6324 H   0  0  0  0  0  0  0  0  0  0  0  0
    0.7905   -0.4076   -2.6116 H   0  0  0  0  0  0  0  0  0  0  0  0
    0.0374    1.1961   -2.6224 H   0  0  0  0  0  0  0  0  0  0  0  0
   -0.2204    0.0570   -0.2557 H   0  0  0  0  0  0  0  0  0  0  0  0
    1.7093    0.0310   -0.3232 H   0  0  0  0  0  0  0  0  0  0  0  0
    2.3425    3.0908   -1.6590 H   0  0  0  0  0  0  0  0  0  0  0  0
    2.4288    3.9718   -0.1477 H   0  0  0  0  0  0  0  0  0  0  0  0
    3.6958    1.2179   -0.6524 H   0  0  0  0  0  0  0  0  0  0  0  0
    3.7453    2.0877    0.8837 H   0  0  0  0  0  0  0  0  0  0  0  0
    4.5593    2.7482   -0.5447 H   0  0  0  0  0  0  0  0  0  0  0  0
  1  2  1  0
  1  6  1  0
  1  7  1  0
  2  3  1  0
  2  8  1  0
  2  9  1  0
  3  4  1  0
  4  5  1  0
  4 10  1  0
  4 11  1  0
  5  6  1  0
  6 12  1  0
  6 13  1  0
 14 15  1  0
 14 19  1  0
 14 20  1  0
 14 21  1  0
 15 16  1  0
 15 22  1  0
 15 23  1  0
 16 17  1  0
 17 18  1  0
 17 24  1  0
 17 25  1  0
 18 26  1  0
 18 27  1  0
 18 28  1  0
M  RAD  1   1   2
M  END
>  <reaction>  (6) 
rmg_rxn_199

>  <mol_properties>  (6) 
{"0": {"label": "*3", "atom_type": "Cs"}, "1": {"label": "*4", "atom_type": "Cs"}, "14": {"label": "*1", "atom_type": "Cs"}, "15": {"label": "*0", "atom_type": "S2s"}, "21": {"label": "*2", "atom_type": "H0"}}

>  <type>  (6) 
unop_2

>  <geom_source>  (6) 
Heuristics

$$$$

     RDKit          3D

 28 27  0  0  0  0  0  0  0  0999 V2000
   -1.1409   -1.3821   -0.2091 C   0  0  0  0  0  3  0  0  0  0  0  0
   -0.8772   -2.0479    1.1339 C   0  0  0  0  0  0  0  0  0  0  0  0
   -2.0125   -1.9351    1.9705 O   0  0  0  0  0  0  0  0  0  0  0  0
   -2.3854   -0.6013    2.1391 C   0  0  0  0  0  0  0  0  0  0  0  0
   -2.7282    0.0238    0.9398 O   0  0  0  0  0  0  0  0  0  0  0  0
   -1.6383    0.0350    0.0379 C   0  0  0  0  0  0  0  0  0  0  0  0
   -1.9037   -1.9455   -0.7500 H   0  0  0  0  0  0  0  0  0  0  0  0
   -0.6708   -3.1120    1.0275 H   0  0  0  0  0  0  0  0  0  0  0  0
   -0.0116   -1.5769    1.6244 H   0  0  0  0  0  0  0  0  0  0  0  0
   -1.5585   -0.0465    2.6192 H   0  0  0  0  0  0  0  0  0  0  0  0
   -3.2688   -0.5902    2.7736 H   0  0  0  0  0  0  0  0  0  0  0  0
   -0.8262    0.6526    0.4513 H   0  0  0  0  0  0  0  0  0  0  0  0
   -1.9933    0.5074   -0.8770 H   0  0  0  0  0  0  0  0  0  0  0  0
    1.0471   -0.2683   -2.6444 C   0  0  0  0  0  0  0  0  0  0  0  0
    1.0471   -0.2683   -1.1247 C   0  0  0  0  0  0  0  0  0  0  0  0
    1.0471    1.3728   -0.3598 S   0  0  0  0  0  0  0  0  0  0  0  0
    2.5876    2.0867   -0.9884 C   0  0  0  0  0  0  0  0  0  0  0  0
    3.8486    1.3279   -0.6091 C   0  0  0  0  0  0  0  0  0  0  0  0
    1.9701    0.1553   -3.0438 H   0  0  0  0  0  0  0  0  0  0  0  0
    0.9645   -1.2895   -3.0231 H   0  0  0  0  0  0  0  0  0  0  0  0
    0.2113    0.3142   -3.0338 H   0  0  0  0  0  0  0  0  0  0  0  0
   -0.0464   -0.8249   -0.6671 H   0  0  0  0  0  0  0  0  0  0  0  0
    1.8833   -0.8509   -0.7346 H   0  0  0  0  0  0  0  0  0  0  0  0
    2.5165    2.2089   -2.0704 H   0  0  0  0  0  0  0  0  0  0  0  0
    2.6027    3.0899   -0.5591 H   0  0  0  0  0  0  0  0  0  0  0  0
    3.8698    0.3360   -1.0638 H   0  0  0  0  0  0  0  0  0  0  0  0
    3.9192    1.2058    0.4723 H   0  0  0  0  0  0  0  0  0  0  0  0
    4.7333    1.8663   -0.9561 H   0  0  0  0  0  0  0  0  0  0  0  0
  1  2  1  0
  1  6  1  0
  1  7  1  0
  2  3  1  0
  2  8  1  0
  2  9  1  0
  3  4  1  0
  4  5  1  0
  4 10  1  0
  4 11  1  0
  5  6  1  0
  6 12  1  0
  6 13  1  0
 14 15  1  0
 14 19  1  0
 14 20  1  0
 14 21  1  0
 15 16  1  0
 15 22  1  0
 15 23  1  0
 16 17  1  0
 17 18  1  0
 17 24  1  0
 17 25  1  0
 18 26  1  0
 18 27  1  0
 18 28  1  0
M  RAD  1   1   2
M  END
>  <reaction>  (7) 
rmg_rxn_199

>  <mol_properties>  (7) 
{"0": {"label": "*3", "atom_type": "Cs"}, "1": {"label": "*4", "atom_type": "Cs"}, "14": {"label": "*1", "atom_type": "Cs"}, "15": {"label": "*0", "atom_type": "S2s"}, "21": {"label": "*2", "atom_type": "H0"}}

>  <type>  (7) 
unop_3

>  <geom_source>  (7) 
Heuristics

$$$$

     RDKit          3D

 28 27  0  0  0  0  0  0  0  0999 V2000
   -0.7948   -0.9773    0.2465 C   0  0  0  0  0  3  0  0  0  0  0  0
   -2.0214   -0.2160   -0.2357 C   0  0  0  0  0  0  0  0  0  0  0  0
   -3.1021   -0.4081    0.6568 O   0  0  0  0  0  0  0  0  0  0  0  0
   -3.3881   -1.7639    0.8198 C   0  0  0  0  0  0  0  0  0  0  0  0
   -2.3186   -2.4858    1.3503 O   0  0  0  0  0  0  0  0  0  0  0  0
   -1.1883   -2.4253    0.5018 C   0  0  0  0  0  0  0  0  0  0  0  0
   -0.4319   -0.5308    1.1742 H   0  0  0  0  0  0  0  0  0  0  0  0
   -1.8417    0.8572   -0.2841 H   0  0  0  0  0  0  0  0  0  0  0  0
   -2.3089   -0.5623   -1.2403 H   0  0  0  0  0  0  0  0  0  0  0  0
   -3.6768   -2.1981   -0.1551 H   0  0  0  0  0  0  0  0  0  0  0  0
   -4.2111   -1.8380    1.5271 H   0  0  0  0  0  0  0  0  0  0  0  0
   -1.4172   -2.9271   -0.4509 H   0  0  0  0  0  0  0  0  0  0  0  0
   -0.3941   -2.9819    0.9974 H   0  0  0  0  0  0  0  0  0  0  0  0
    1.3932    0.1365   -2.1888 C   0  0  0  0  0  0  0  0  0  0  0  0
    1.3932    0.1365   -0.6691 C   0  0  0  0  0  0  0  0  0  0  0  0
    1.3932    1.7776    0.0958 S   0  0  0  0  0  0  0  0  0  0  0  0
    2.9337    2.4915   -0.5328 C   0  0  0  0  0  0  0  0  0  0  0  0
    4.1947    1.7326   -0.1536 C   0  0  0  0  0  0  0  0  0  0  0  0
    2.3162    0.5601   -2.5882 H   0  0  0  0  0  0  0  0  0  0  0  0
    1.3106   -0.8847   -2.5675 H   0  0  0  0  0  0  0  0  0  0  0  0
    0.5574    0.7189   -2.5782 H   0  0  0  0  0  0  0  0  0  0  0  0
    0.2997   -0.4201   -0.2115 H   0  0  0  0  0  0  0  0  0  0  0  0
    2.2294   -0.4462   -0.2791 H   0  0  0  0  0  0  0  0  0  0  0  0
    2.8626    2.6137   -1.6148 H   0  0  0  0  0  0  0  0  0  0  0  0
    2.9488    3.4947   -0.1035 H   0  0  0  0  0  0  0  0  0  0  0  0
    4.2159    0.7408   -0.6083 H   0  0  0  0  0  0  0  0  0  0  0  0
    4.2653    1.6106    0.9278 H   0  0  0  0  0  0  0  0  0  0  0  0
    5.0794    2.2710   -0.5005 H   0  0  0  0  0  0  0  0  0  0  0  0
  1  2  1  0
  1  6  1  0
  1  7  1  0
  2  3  1  0
  2  8  1  0
  2  9  1  0
  3  4  1  0
  4  5  1  0
  4 10  1  0
  4 11  1  0
  5  6  1  0
  6 12  1  0
  6 13  1  0
 14 15  1  0
 14 19  1  0
 14 20  1  0
 14 21  1  0
 15 16  1  0
 15 22  1  0
 15 23  1  0
 16 17  1  0
 17 18  1  0
 17 24  1  0
 17 25  1  0
 18 26  1  0
 18 27  1  0
 18 28  1  0
M  RAD  1   1   2
M  END
>  <reaction>  (8) 
rmg_rxn_199

>  <mol_properties>  (8) 
{"0": {"label": "*3", "atom_type": "Cs"}, "1": {"label": "*4", "atom_type": "Cs"}, "14": {"label": "*1", "atom_type": "Cs"}, "15": {"label": "*0", "atom_type": "S2s"}, "21": {"label": "*2", "atom_type": "H0"}}

>  <type>  (8) 
unop_4

>  <geom_source>  (8) 
Heuristics

$$$$

     RDKit          3D

 28 27  0  0  0  0  0  0  0  0999 V2000
   -0.8686   -1.2496    0.0094 C   0  0  0  0  0  3  0  0  0  0  0  0
   -0.8688   -1.2497    1.5314 C   0  0  0  0  0  0  0  0  0  0  0  0
   -2.1109   -1.7153    2.0232 O   0  0  0  0  0  0  0  0  0  0  0  0
   -3.1691   -0.9556    1.5238 C   0  0  0  0  0  0  0  0  0  0  0  0
   -3.2644   -1.0034    0.1327 O   0  0  0  0  0  0  0  0  0  0  0  0
   -2.0954   -0.4927   -0.4789 C   0  0  0  0  0  0  0  0  0  0  0  0
   -0.9084   -2.2784   -0.3538 H   0  0  0  0  0  0  0  0  0  0  0  0
   -0.1034   -1.9088    1.9388 H   0  0  0  0  0  0  0  0  0  0  0  0
   -0.6829   -0.2323    1.9082 H   0  0  0  0  0  0  0  0  0  0  0  0
   -3.0523    0.0948    1.8481 H   0  0  0  0  0  0  0  0  0  0  0  0
   -4.0878   -1.3772    1.9256 H   0  0  0  0  0  0  0  0  0  0  0  0
   -1.9958    0.5781   -0.2435 H   0  0  0  0  0  0  0  0  0  0  0  0
   -2.2348   -0.5932   -1.5544 H   0  0  0  0  0  0  0  0  0  0  0  0
    1.3194   -0.1358   -2.4259 C   0  0  0  0  0  0  0  0  0  0  0  0
    1.3194   -0.1358   -0.9062 C   0  0  0  0  0  0  0  0  0  0  0  0
    1.3194    1.5053   -0.1413 S   0  0  0  0  0  0  0  0  0  0  0  0
    2.8600    2.2192   -0.7699 C   0  0  0  0  0  0  0  0  0  0  0  0
    4.1209    1.4604   -0.3907 C   0  0  0  0  0  0  0  0  0  0  0  0
    2.2425    0.2878   -2.8254 H   0  0  0  0  0  0  0  0  0  0  0  0
    1.2369   -1.1570   -2.8046 H   0  0  0  0  0  0  0  0  0  0  0  0
    0.4837    0.4467   -2.8153 H   0  0  0  0  0  0  0  0  0  0  0  0
    0.2260   -0.6924   -0.4487 H   0  0  0  0  0  0  0  0  0  0  0  0
    2.1556   -0.7184   -0.5162 H   0  0  0  0  0  0  0  0  0  0  0  0
    2.7889    2.3414   -1.8520 H   0  0  0  0  0  0  0  0  0  0  0  0
    2.8751    3.2224   -0.3406 H   0  0  0  0  0  0  0  0  0  0  0  0
    4.1422    0.4685   -0.8454 H   0  0  0  0  0  0  0  0  0  0  0  0
    4.1916    1.3383    0.6907 H   0  0  0  0  0  0  0  0  0  0  0  0
    5.0057    1.9988   -0.7376 H   0  0  0  0  0  0  0  0  0  0  0  0
  1  2  1  0
  1  6  1  0
  1  7  1  0
  2  3  1  0
  2  8  1  0
  2  9  1  0
  3  4  1  0
  4  5  1  0
  4 10  1  0
  4 11  1  0
  5  6  1  0
  6 12  1  0
  6 13  1  0
 14 15  1  0
 14 19  1  0
 14 20  1  0
 14 21  1  0
 15 16  1  0
 15 22  1  0
 15 23  1  0
 16 17  1  0
 17 18  1  0
 17 24  1  0
 17 25  1  0
 18 26  1  0
 18 27  1  0
 18 28  1  0
M  RAD  1   1   2
M  END
>  <reaction>  (9) 
rmg_rxn_199

>  <mol_properties>  (9) 
{"0": {"label": "*3", "atom_type": "Cs"}, "1": {"label": "*4", "atom_type": "Cs"}, "14": {"label": "*1", "atom_type": "Cs"}, "15": {"label": "*0", "atom_type": "S2s"}, "21": {"label": "*2", "atom_type": "H0"}}

>  <type>  (9) 
unop_5

>  <geom_source>  (9) 
Heuristics

$$$$

     RDKit          3D

 28 27  0  0  0  0  0  0  0  0999 V2000
   -0.8313   -1.0312    0.1012 C   0  0  0  0  0  3  0  0  0  0  0  0
   -1.9225    0.0135    0.2871 C   0  0  0  0  0  0  0  0  0  0  0  0
   -2.7481   -0.3272    1.3843 O   0  0  0  0  0  0  0  0  0  0  0  0
   -3.2970   -1.6002    1.2278 C   0  0  0  0  0  0  0  0  0  0  0  0
   -2.3308   -2.6034    1.1478 O   0  0  0  0  0  0  0  0  0  0  0  0
   -1.4788   -2.4070    0.0356 C   0  0  0  0  0  0  0  0  0  0  0  0
   -0.1443   -0.9933    0.9487 H   0  0  0  0  0  0  0  0  0  0  0  0
   -1.5108    0.9994    0.4987 H   0  0  0  0  0  0  0  0  0  0  0  0
   -2.5350    0.0848   -0.6248 H   0  0  0  0  0  0  0  0  0  0  0  0
   -3.9238   -1.6205    0.3173 H   0  0  0  0  0  0  0  0  0  0  0  0
   -3.9012   -1.8025    2.1093 H   0  0  0  0  0  0  0  0  0  0  0  0
   -2.0601   -2.5060   -0.8940 H   0  0  0  0  0  0  0  0  0  0  0  0
   -0.7398   -3.2067    0.0618 H   0  0  0  0  0  0  0  0  0  0  0  0
    1.3567    0.0826   -2.3341 C   0  0  0  0  0  0  0  0  0  0  0  0
    1.3567    0.0826   -0.8144 C   0  0  0  0  0  0  0  0  0  0  0  0
    1.3567    1.7237   -0.0495 S   0  0  0  0  0  0  0  0  0  0  0  0
    2.8972    2.4377   -0.6781 C   0  0  0  0  0  0  0  0  0  0  0  0
    4.1582    1.6788   -0.2989 C   0  0  0  0  0  0  0  0  0  0  0  0
    2.2797    0.5062   -2.7335 H   0  0  0  0  0  0  0  0  0  0  0  0
    1.2741   -0.9385   -2.7128 H   0  0  0  0  0  0  0  0  0  0  0  0
    0.5209    0.6651   -2.7235 H   0  0  0  0  0  0  0  0  0  0  0  0
    0.2632   -0.4740   -0.3568 H   0  0  0  0  0  0  0  0  0  0  0  0
    2.1929   -0.5000   -0.4244 H   0  0  0  0  0  0  0  0  0  0  0  0
    2.8261    2.5599   -1.7601 H   0  0  0  0  0  0  0  0  0  0  0  0
    2.9123    3.4408   -0.2488 H   0  0  0  0  0  0  0  0  0  0  0  0
    4.1794    0.6870   -0.7536 H   0  0  0  0  0  0  0  0  0  0  0  0
    4.2288    1.5568    0.7825 H   0  0  0  0  0  0  0  0  0  0  0  0
    5.0429    2.2172   -0.6458 H   0  0  0  0  0  0  0  0  0  0  0  0
  1  2  1  0
  1  6  1  0
  1  7  1  0
  2  3  1  0
  2  8  1  0
  2  9  1  0
  3  4  1  0
  4  5  1  0
  4 10  1  0
  4 11  1  0
  5  6  1  0
  6 12  1  0
  6 13  1  0
 14 15  1  0
 14 19  1  0
 14 20  1  0
 14 21  1  0
 15 16  1  0
 15 22  1  0
 15 23  1  0
 16 17  1  0
 17 18  1  0
 17 24  1  0
 17 25  1  0
 18 26  1  0
 18 27  1  0
 18 28  1  0
M  RAD  1   1   2
M  END
>  <reaction>  (10) 
rmg_rxn_199

>  <mol_properties>  (10) 
{"0": {"label": "*3", "atom_type": "Cs"}, "1": {"label": "*4", "atom_type": "Cs"}, "14": {"label": "*1", "atom_type": "Cs"}, "15": {"label": "*0", "atom_type": "S2s"}, "21": {"label": "*2", "atom_type": "H0"}}

>  <type>  (10) 
unop_6

>  <geom_source>  (10) 
Heuristics

$$$$

     RDKit          3D

 28 27  0  0  0  0  0  0  0  0999 V2000
   -0.8786   -0.9956    0.0321 C   0  0  0  0  0  3  0  0  0  0  0  0
   -1.6612   -0.0082    0.8860 C   0  0  0  0  0  0  0  0  0  0  0  0
   -2.3336   -0.6857    1.9302 O   0  0  0  0  0  0  0  0  0  0  0  0
   -3.1692   -1.6842    1.4291 C   0  0  0  0  0  0  0  0  0  0  0  0
   -2.4786   -2.6651    0.7168 O   0  0  0  0  0  0  0  0  0  0  0  0
   -1.8154   -2.1131   -0.4043 C   0  0  0  0  0  0  0  0  0  0  0  0
   -0.0611   -1.4164    0.6207 H   0  0  0  0  0  0  0  0  0  0  0  0
   -1.0109    0.7274    1.3573 H   0  0  0  0  0  0  0  0  0  0  0  0
   -2.3945    0.5286    0.2648 H   0  0  0  0  0  0  0  0  0  0  0  0
   -3.9363   -1.2280    0.7766 H   0  0  0  0  0  0  0  0  0  0  0  0
   -3.6371   -2.1722    2.2812 H   0  0  0  0  0  0  0  0  0  0  0  0
   -2.5596   -1.7243   -1.1163 H   0  0  0  0  0  0  0  0  0  0  0  0
   -1.2789   -2.9301   -0.8848 H   0  0  0  0  0  0  0  0  0  0  0  0
    1.3093    0.1182   -2.4032 C   0  0  0  0  0  0  0  0  0  0  0  0
    1.3093    0.1182   -0.8835 C   0  0  0  0  0  0  0  0  0  0  0  0
    1.3093    1.7593   -0.1186 S   0  0  0  0  0  0  0  0  0  0  0  0
    2.8499    2.4732   -0.7472 C   0  0  0  0  0  0  0  0  0  0  0  0
    4.1108    1.7143   -0.3680 C   0  0  0  0  0  0  0  0  0  0  0  0
    2.2324    0.5417   -2.8026 H   0  0  0  0  0  0  0  0  0  0  0  0
    1.2268   -0.9030   -2.7819 H   0  0  0  0  0  0  0  0  0  0  0  0
    0.4736    0.7006   -2.7926 H   0  0  0  0  0  0  0  0  0  0  0  0
    0.2159   -0.4385   -0.4259 H   0  0  0  0  0  0  0  0  0  0  0  0
    2.1455   -0.4645   -0.4935 H   0  0  0  0  0  0  0  0  0  0  0  0
    2.7788    2.5954   -1.8292 H   0  0  0  0  0  0  0  0  0  0  0  0
    2.8650    3.4764   -0.3179 H   0  0  0  0  0  0  0  0  0  0  0  0
    4.1321    0.7225   -0.8227 H   0  0  0  0  0  0  0  0  0  0  0  0
    4.1815    1.5923    0.7134 H   0  0  0  0  0  0  0  0  0  0  0  0
    4.9956    2.2527   -0.7149 H   0  0  0  0  0  0  0  0  0  0  0  0
  1  2  1  0
  1  6  1  0
  1  7  1  0
  2  3  1  0
  2  8  1  0
  2  9  1  0
  3  4  1  0
  4  5  1  0
  4 10  1  0
  4 11  1  0
  5  6  1  0
  6 12  1  0
  6 13  1  0
 14 15  1  0
 14 19  1  0
 14 20  1  0
 14 21  1  0
 15 16  1  0
 15 22  1  0
 15 23  1  0
 16 17  1  0
 17 18  1  0
 17 24  1  0
 17 25  1  0
 18 26  1  0
 18 27  1  0
 18 28  1  0
M  RAD  1   1   2
M  END
>  <reaction>  (11) 
rmg_rxn_199

>  <mol_properties>  (11) 
{"0": {"label": "*3", "atom_type": "Cs"}, "1": {"label": "*4", "atom_type": "Cs"}, "14": {"label": "*1", "atom_type": "Cs"}, "15": {"label": "*0", "atom_type": "S2s"}, "21": {"label": "*2", "atom_type": "H0"}}

>  <type>  (11) 
unop_7

>  <geom_source>  (11) 
Heuristics

$$$$

     RDKit          3D

 28 27  0  0  0  0  0  0  0  0999 V2000
   -1.5382   -0.8675   -0.2489 C   0  0  0  0  0  3  0  0  0  0  0  0
   -1.3356   -2.3645   -0.0630 C   0  0  0  0  0  0  0  0  0  0  0  0
   -1.8485   -2.7788    1.1887 O   0  0  0  0  0  0  0  0  0  0  0  0
   -1.2671   -2.0625    2.2352 C   0  0  0  0  0  0  0  0  0  0  0  0
   -1.5087   -0.6907    2.1560 O   0  0  0  0  0  0  0  0  0  0  0  0
   -0.9743   -0.1441    0.9656 C   0  0  0  0  0  0  0  0  0  0  0  0
   -2.6052   -0.6537   -0.3358 H   0  0  0  0  0  0  0  0  0  0  0  0
   -1.8580   -2.9438   -0.8231 H   0  0  0  0  0  0  0  0  0  0  0  0
   -0.2639   -2.6095   -0.1198 H   0  0  0  0  0  0  0  0  0  0  0  0
   -0.1765   -2.2435    2.2430 H   0  0  0  0  0  0  0  0  0  0  0  0
   -1.7175   -2.4174    3.1595 H   0  0  0  0  0  0  0  0  0  0  0  0
    0.1229   -0.2329    0.9812 H   0  0  0  0  0  0  0  0  0  0  0  0
   -1.2301    0.9146    0.9643 H   0  0  0  0  0  0  0  0  0  0  0  0
    0.6498    0.2463   -2.6842 C   0  0  0  0  0  0  0  0  0  0  0  0
    0.6498    0.2463   -1.1645 C   0  0  0  0  0  0  0  0  0  0  0  0
    0.6498    1.8874   -0.3996 S   0  0  0  0  0  0  0  0  0  0  0  0
    2.1904    2.6013   -1.0282 C   0  0  0  0  0  0  0  0  0  0  0  0
    3.4513    1.8424   -0.6490 C   0  0  0  0  0  0  0  0  0  0  0  0
    1.5728    0.6699   -3.0836 H   0  0  0  0  0  0  0  0  0  0  0  0
    0.5672   -0.7749   -3.0629 H   0  0  0  0  0  0  0  0  0  0  0  0
   -0.1859    0.8287   -3.0736 H   0  0  0  0  0  0  0  0  0  0  0  0
   -0.4437   -0.3104   -0.7069 H   0  0  0  0  0  0  0  0  0  0  0  0
    1.4860   -0.3364   -0.7744 H   0  0  0  0  0  0  0  0  0  0  0  0
    2.1192    2.7235   -2.1102 H   0  0  0  0  0  0  0  0  0  0  0  0
    2.2054    3.6045   -0.5989 H   0  0  0  0  0  0  0  0  0  0  0  0
    3.4725    0.8506   -1.1037 H   0  0  0  0  0  0  0  0  0  0  0  0
    3.5220    1.7204    0.4324 H   0  0  0  0  0  0  0  0  0  0  0  0
    4.3360    2.3808   -0.9959 H   0  0  0  0  0  0  0  0  0  0  0  0
  1  2  1  0
  1  6  1  0
  1  7  1  0
  2  3  1  0
  2  8  1  0
  2  9  1  0
  3  4  1  0
  4  5  1  0
  4 10  1  0
  4 11  1  0
  5  6  1  0
  6 12  1  0
  6 13  1  0
 14 15  1  0
 14 19  1  0
 14 20  1  0
 14 21  1  0
 15 16  1  0
 15 22  1  0
 15 23  1  0
 16 17  1  0
 17 18  1  0
 17 24  1  0
 17 25  1  0
 18 26  1  0
 18 27  1  0
 18 28  1  0
M  RAD  1   1   2
M  END
>  <reaction>  (12) 
rmg_rxn_199

>  <mol_properties>  (12) 
{"0": {"label": "*3", "atom_type": "Cs"}, "1": {"label": "*4", "atom_type": "Cs"}, "14": {"label": "*1", "atom_type": "Cs"}, "15": {"label": "*0", "atom_type": "S2s"}, "21": {"label": "*2", "atom_type": "H0"}}

>  <type>  (12) 
unop_8

>  <geom_source>  (12) 
Heuristics

$$$$

     RDKit          3D

 28 27  0  0  0  0  0  0  0  0999 V2000
   -0.8553   -0.8007    0.3744 C   0  0  0  0  0  3  0  0  0  0  0  0
   -2.0076   -0.5873   -0.5967 C   0  0  0  0  0  0  0  0  0  0  0  0
   -3.2345   -0.9475    0.0085 O   0  0  0  0  0  0  0  0  0  0  0  0
   -3.2046   -2.2652    0.4660 C   0  0  0  0  0  0  0  0  0  0  0  0
   -2.2212   -2.4841    1.4311 O   0  0  0  0  0  0  0  0  0  0  0  0
   -0.9301   -2.2212    0.9159 C   0  0  0  0  0  0  0  0  0  0  0  0
   -0.9409   -0.0923    1.2007 H   0  0  0  0  0  0  0  0  0  0  0  0
   -2.1000    0.4558   -0.8961 H   0  0  0  0  0  0  0  0  0  0  0  0
   -1.8536   -1.1929   -1.5030 H   0  0  0  0  0  0  0  0  0  0  0  0
   -3.0391   -2.9470   -0.3883 H   0  0  0  0  0  0  0  0  0  0  0  0
   -4.1662   -2.4674    0.9325 H   0  0  0  0  0  0  0  0  0  0  0  0
   -0.7003   -2.9419    0.1161 H   0  0  0  0  0  0  0  0  0  0  0  0
   -0.2278   -2.3834    1.7324 H   0  0  0  0  0  0  0  0  0  0  0  0
    1.3327    0.3131   -2.0608 C   0  0  0  0  0  0  0  0  0  0  0  0
    1.3327    0.3131   -0.5411 C   0  0  0  0  0  0  0  0  0  0  0  0
    1.3327    1.9542    0.2238 S   0  0  0  0  0  0  0  0  0  0  0  0
    2.8733    2.6681   -0.4048 C   0  0  0  0  0  0  0  0  0  0  0  0
    4.1342    1.9092   -0.0256 C   0  0  0  0  0  0  0  0  0  0  0  0
    2.2557    0.7367   -2.4603 H   0  0  0  0  0  0  0  0  0  0  0  0
    1.2502   -0.7081   -2.4395 H   0  0  0  0  0  0  0  0  0  0  0  0
    0.4970    0.8956   -2.4502 H   0  0  0  0  0  0  0  0  0  0  0  0
    0.2393   -0.2435   -0.0836 H   0  0  0  0  0  0  0  0  0  0  0  0
    2.1689   -0.2696   -0.1511 H   0  0  0  0  0  0  0  0  0  0  0  0
    2.8021    2.7903   -1.4869 H   0  0  0  0  0  0  0  0  0  0  0  0
    2.8884    3.6713    0.0245 H   0  0  0  0  0  0  0  0  0  0  0  0
    4.1554    0.9174   -0.4803 H   0  0  0  0  0  0  0  0  0  0  0  0
    4.2049    1.7872    1.0558 H   0  0  0  0  0  0  0  0  0  0  0  0
    5.0190    2.4476   -0.3725 H   0  0  0  0  0  0  0  0  0  0  0  0
  1  2  1  0
  1  6  1  0
  1  7  1  0
  2  3  1  0
  2  8  1  0
  2  9  1  0
  3  4  1  0
  4  5  1  0
  4 10  1  0
  4 11  1  0
  5  6  1  0
  6 12  1  0
  6 13  1  0
 14 15  1  0
 14 19  1  0
 14 20  1  0
 14 21  1  0
 15 16  1  0
 15 22  1  0
 15 23  1  0
 16 17  1  0
 17 18  1  0
 17 24  1  0
 17 25  1  0
 18 26  1  0
 18 27  1  0
 18 28  1  0
M  RAD  1   1   2
M  END
>  <reaction>  (13) 
rmg_rxn_199

>  <mol_properties>  (13) 
{"0": {"label": "*3", "atom_type": "Cs"}, "1": {"label": "*4", "atom_type": "Cs"}, "14": {"label": "*1", "atom_type": "Cs"}, "15": {"label": "*0", "atom_type": "S2s"}, "21": {"label": "*2", "atom_type": "H0"}}

>  <type>  (13) 
unop_9

>  <geom_source>  (13) 
Heuristics

$$$$

     RDKit          3D

 28 27  0  0  0  0  0  0  0  0999 V2000
   -1.5011   -0.6090   -0.0448 C   0  0  0  0  0  3  0  0  0  0  0  0
   -1.6071   -2.0488   -0.5269 C   0  0  0  0  0  0  0  0  0  0  0  0
   -2.1378   -2.8718    0.4941 O   0  0  0  0  0  0  0  0  0  0  0  0
   -1.3728   -2.7901    1.6579 C   0  0  0  0  0  0  0  0  0  0  0  0
   -1.3261   -1.5008    2.1891 O   0  0  0  0  0  0  0  0  0  0  0  0
   -0.7440   -0.5909    1.2755 C   0  0  0  0  0  0  0  0  0  0  0  0
   -2.5028   -0.2018    0.1056 H   0  0  0  0  0  0  0  0  0  0  0  0
   -2.2729   -2.1434   -1.3837 H   0  0  0  0  0  0  0  0  0  0  0  0
   -0.6139   -2.4220   -0.8201 H   0  0  0  0  0  0  0  0  0  0  0  0
   -0.3448   -3.1379    1.4469 H   0  0  0  0  0  0  0  0  0  0  0  0
   -1.8449   -3.4290    2.4008 H   0  0  0  0  0  0  0  0  0  0  0  0
    0.3100   -0.8616    1.1091 H   0  0  0  0  0  0  0  0  0  0  0  0
   -0.7730    0.3898    1.7483 H   0  0  0  0  0  0  0  0  0  0  0  0
    0.6869    0.5048   -2.4801 C   0  0  0  0  0  0  0  0  0  0  0  0
    0.6869    0.5048   -0.9603 C   0  0  0  0  0  0  0  0  0  0  0  0
    0.6869    2.1459   -0.1954 S   0  0  0  0  0  0  0  0  0  0  0  0
    2.2275    2.8598   -0.8240 C   0  0  0  0  0  0  0  0  0  0  0  0
    3.4884    2.1010   -0.4448 C   0  0  0  0  0  0  0  0  0  0  0  0
    1.6099    0.9284   -2.8795 H   0  0  0  0  0  0  0  0  0  0  0  0
    0.6043   -0.5164   -2.8587 H   0  0  0  0  0  0  0  0  0  0  0  0
   -0.1488    1.0873   -2.8695 H   0  0  0  0  0  0  0  0  0  0  0  0
   -0.4065   -0.0518   -0.5028 H   0  0  0  0  0  0  0  0  0  0  0  0
    1.5231   -0.0778   -0.5703 H   0  0  0  0  0  0  0  0  0  0  0  0
    2.1563    2.9820   -1.9061 H   0  0  0  0  0  0  0  0  0  0  0  0
    2.2426    3.8630   -0.3948 H   0  0  0  0  0  0  0  0  0  0  0  0
    3.5096    1.1091   -0.8995 H   0  0  0  0  0  0  0  0  0  0  0  0
    3.5591    1.9789    0.6366 H   0  0  0  0  0  0  0  0  0  0  0  0
    4.3732    2.6394   -0.7918 H   0  0  0  0  0  0  0  0  0  0  0  0
  1  2  1  0
  1  6  1  0
  1  7  1  0
  2  3  1  0
  2  8  1  0
  2  9  1  0
  3  4  1  0
  4  5  1  0
  4 10  1  0
  4 11  1  0
  5  6  1  0
  6 12  1  0
  6 13  1  0
 14 15  1  0
 14 19  1  0
 14 20  1  0
 14 21  1  0
 15 16  1  0
 15 22  1  0
 15 23  1  0
 16 17  1  0
 17 18  1  0
 17 24  1  0
 17 25  1  0
 18 26  1  0
 18 27  1  0
 18 28  1  0
M  RAD  1   1   2
M  END
>  <reaction>  (14) 
rmg_rxn_199

>  <mol_properties>  (14) 
{"0": {"label": "*3", "atom_type": "Cs"}, "1": {"label": "*4", "atom_type": "Cs"}, "14": {"label": "*1", "atom_type": "Cs"}, "15": {"label": "*0", "atom_type": "S2s"}, "21": {"label": "*2", "atom_type": "H0"}}

>  <type>  (14) 
unop_10

>  <geom_source>  (14) 
Heuristics

$$$$

     RDKit          3D

 28 27  0  0  0  0  0  0  0  0999 V2000
   -0.8612   -1.0093    0.0545 C   0  0  0  0  0  3  0  0  0  0  0  0
   -1.2444   -0.4043    1.3975 C   0  0  0  0  0  0  0  0  0  0  0  0
   -2.0771   -1.2927    2.1178 O   0  0  0  0  0  0  0  0  0  0  0  0
   -3.2122   -1.6313    1.3806 C   0  0  0  0  0  0  0  0  0  0  0  0
   -2.9096   -2.2758    0.1808 O   0  0  0  0  0  0  0  0  0  0  0  0
   -2.1297   -1.4497   -0.6622 C   0  0  0  0  0  0  0  0  0  0  0  0
   -0.2168   -1.8754    0.2171 H   0  0  0  0  0  0  0  0  0  0  0  0
   -0.3728   -0.2152    2.0226 H   0  0  0  0  0  0  0  0  0  0  0  0
   -1.7715    0.5499    1.2442 H   0  0  0  0  0  0  0  0  0  0  0  0
   -3.7988   -0.7185    1.1694 H   0  0  0  0  0  0  0  0  0  0  0  0
   -3.7938   -2.3256    1.9829 H   0  0  0  0  0  0  0  0  0  0  0  0
   -2.7190   -0.5691   -0.9604 H   0  0  0  0  0  0  0  0  0  0  0  0
   -1.9111   -2.0318   -1.5565 H   0  0  0  0  0  0  0  0  0  0  0  0
    1.3268    0.1045   -2.3808 C   0  0  0  0  0  0  0  0  0  0  0  0
    1.3268    0.1045   -0.8611 C   0  0  0  0  0  0  0  0  0  0  0  0
    1.3268    1.7456   -0.0962 S   0  0  0  0  0  0  0  0  0  0  0  0
    2.8674    2.4595   -0.7248 C   0  0  0  0  0  0  0  0  0  0  0  0
    4.1283    1.7007   -0.3456 C   0  0  0  0  0  0  0  0  0  0  0  0
    2.2498    0.5281   -2.7802 H   0  0  0  0  0  0  0  0  0  0  0  0
    1.2442   -0.9167   -2.7595 H   0  0  0  0  0  0  0  0  0  0  0  0
    0.4911    0.6870   -2.7702 H   0  0  0  0  0  0  0  0  0  0  0  0
    0.2333   -0.4521   -0.4035 H   0  0  0  0  0  0  0  0  0  0  0  0
    2.1630   -0.4781   -0.4710 H   0  0  0  0  0  0  0  0  0  0  0  0
    2.7962    2.5817   -1.8068 H   0  0  0  0  0  0  0  0  0  0  0  0
    2.8824    3.4627   -0.2955 H   0  0  0  0  0  0  0  0  0  0  0  0
    4.1495    0.7088   -0.8003 H   0  0  0  0  0  0  0  0  0  0  0  0
    4.1989    1.5786    0.7358 H   0  0  0  0  0  0  0  0  0  0  0  0
    5.0130    2.2391   -0.6925 H   0  0  0  0  0  0  0  0  0  0  0  0
  1  2  1  0
  1  6  1  0
  1  7  1  0
  2  3  1  0
  2  8  1  0
  2  9  1  0
  3  4  1  0
  4  5  1  0
  4 10  1  0
  4 11  1  0
  5  6  1  0
  6 12  1  0
  6 13  1  0
 14 15  1  0
 14 19  1  0
 14 20  1  0
 14 21  1  0
 15 16  1  0
 15 22  1  0
 15 23  1  0
 16 17  1  0
 17 18  1  0
 17 24  1  0
 17 25  1  0
 18 26  1  0
 18 27  1  0
 18 28  1  0
M  RAD  1   1   2
M  END
>  <reaction>  (15) 
rmg_rxn_199

>  <mol_properties>  (15) 
{"0": {"label": "*3", "atom_type": "Cs"}, "1": {"label": "*4", "atom_type": "Cs"}, "14": {"label": "*1", "atom_type": "Cs"}, "15": {"label": "*0", "atom_type": "S2s"}, "21": {"label": "*2", "atom_type": "H0"}}

>  <type>  (15) 
unop_11

>  <geom_source>  (15) 
Heuristics

$$$$

     RDKit          3D

 28 27  0  0  0  0  0  0  0  0999 V2000
   -1.0537   -0.5882    0.3714 C   0  0  0  0  0  3  0  0  0  0  0  0
   -1.9421   -1.0404   -0.7788 C   0  0  0  0  0  0  0  0  0  0  0  0
   -3.0495   -1.7709   -0.2875 O   0  0  0  0  0  0  0  0  0  0  0  0
   -2.6362   -2.8589    0.4818 C   0  0  0  0  0  0  0  0  0  0  0  0
   -1.8960   -2.4829    1.6030 O   0  0  0  0  0  0  0  0  0  0  0  0
   -0.7155   -1.7975    1.2315 C   0  0  0  0  0  0  0  0  0  0  0  0
   -1.5879    0.1483    0.9747 H   0  0  0  0  0  0  0  0  0  0  0  0
   -2.3457   -0.1972   -1.3376 H   0  0  0  0  0  0  0  0  0  0  0  0
   -1.3664   -1.6702   -1.4743 H   0  0  0  0  0  0  0  0  0  0  0  0
   -2.0337   -3.5432   -0.1435 H   0  0  0  0  0  0  0  0  0  0  0  0
   -3.5323   -3.3612    0.8394 H   0  0  0  0  0  0  0  0  0  0  0  0
   -0.0534   -2.4806    0.6774 H   0  0  0  0  0  0  0  0  0  0  0  0
   -0.2143   -1.5128    2.1556 H   0  0  0  0  0  0  0  0  0  0  0  0
    1.1342    0.5256   -2.0639 C   0  0  0  0  0  0  0  0  0  0  0  0
    1.1342    0.5256   -0.5441 C   0  0  0  0  0  0  0  0  0  0  0  0
    1.1342    2.1667    0.2208 S   0  0  0  0  0  0  0  0  0  0  0  0
    2.6748    2.8806   -0.4078 C   0  0  0  0  0  0  0  0  0  0  0  0
    3.9358    2.1217   -0.0286 C   0  0  0  0  0  0  0  0  0  0  0  0
    2.0573    0.9492   -2.4633 H   0  0  0  0  0  0  0  0  0  0  0  0
    1.0517   -0.4956   -2.4425 H   0  0  0  0  0  0  0  0  0  0  0  0
    0.2985    1.1081   -2.4533 H   0  0  0  0  0  0  0  0  0  0  0  0
    0.0408   -0.0310   -0.0866 H   0  0  0  0  0  0  0  0  0  0  0  0
    1.9704   -0.0571   -0.1541 H   0  0  0  0  0  0  0  0  0  0  0  0
    2.6037    3.0028   -1.4899 H   0  0  0  0  0  0  0  0  0  0  0  0
    2.6899    3.8838    0.0214 H   0  0  0  0  0  0  0  0  0  0  0  0
    3.9570    1.1299   -0.4833 H   0  0  0  0  0  0  0  0  0  0  0  0
    4.0064    1.9997    1.0528 H   0  0  0  0  0  0  0  0  0  0  0  0
    4.8205    2.6601   -0.3756 H   0  0  0  0  0  0  0  0  0  0  0  0
  1  2  1  0
  1  6  1  0
  1  7  1  0
  2  3  1  0
  2  8  1  0
  2  9  1  0
  3  4  1  0
  4  5  1  0
  4 10  1  0
  4 11  1  0
  5  6  1  0
  6 12  1  0
  6 13  1  0
 14 15  1  0
 14 19  1  0
 14 20  1  0
 14 21  1  0
 15 16  1  0
 15 22  1  0
 15 23  1  0
 16 17  1  0
 17 18  1  0
 17 24  1  0
 17 25  1  0
 18 26  1  0
 18 27  1  0
 18 28  1  0
M  RAD  1   1   2
M  END
>  <reaction>  (16) 
rmg_rxn_199

>  <mol_properties>  (16) 
{"0": {"label": "*3", "atom_type": "Cs"}, "1": {"label": "*4", "atom_type": "Cs"}, "14": {"label": "*1", "atom_type": "Cs"}, "15": {"label": "*0", "atom_type": "S2s"}, "21": {"label": "*2", "atom_type": "H0"}}

>  <type>  (16) 
unop_12

>  <geom_source>  (16) 
Heuristics

$$$$

     RDKit          3D

 28 27  0  0  0  0  0  0  0  0999 V2000
    1.5770    0.3517    1.2408 S   0  0  0  0  0  0  0  0  0  0  0  0
   -3.7524    0.1640   -1.0773 O   0  0  0  0  0  0  0  0  0  0  0  0
   -3.0401    0.7101    1.1467 O   0  0  0  0  0  0  0  0  0  0  0  0
   -1.6860   -0.7298   -0.2256 C   0  0  0  0  0  0  0  0  0  0  0  0
   -2.3620    0.1099   -1.3096 C   0  0  0  0  0  0  0  0  0  0  0  0
   -2.4673   -0.5772    1.0794 C   0  0  0  0  0  0  0  0  0  0  0  0
    2.9639    1.2667    0.4721 C   0  0  0  0  0  0  0  0  0  0  0  0
    4.2915    0.6661    0.9112 C   0  0  0  0  0  0  0  0  0  0  0  0
   -4.0267    0.8678    0.1309 C   0  0  0  0  0  0  0  0  0  0  0  0
    1.7355   -1.5446   -0.7855 C   0  0  0  0  0  0  0  0  0  0  0  0
    0.8983   -0.3734   -0.2942 C   0  0  0  0  0  3  0  0  0  0  0  0
   -1.6654   -1.8010   -0.5223 H   0  0  0  0  0  0  0  0  0  0  0  0
   -0.4704   -0.3196   -0.0651 H   0  0  0  0  0  0  0  0  0  0  0  0
   -1.9276    1.1357   -1.3332 H   0  0  0  0  0  0  0  0  0  0  0  0
   -2.1770   -0.3513   -2.3025 H   0  0  0  0  0  0  0  0  0  0  0  0
   -3.2550   -1.3617    1.1605 H   0  0  0  0  0  0  0  0  0  0  0  0
   -1.7745   -0.7112    1.9362 H   0  0  0  0  0  0  0  0  0  0  0  0
    2.9158    2.3222    0.8134 H   0  0  0  0  0  0  0  0  0  0  0  0
    2.9060    1.2664   -0.6365 H   0  0  0  0  0  0  0  0  0  0  0  0
    4.3608   -0.3936    0.5879 H   0  0  0  0  0  0  0  0  0  0  0  0
    5.1280    1.2351    0.4538 H   0  0  0  0  0  0  0  0  0  0  0  0
    4.3870    0.7171    2.0166 H   0  0  0  0  0  0  0  0  0  0  0  0
   -4.1284    1.9495   -0.0991 H   0  0  0  0  0  0  0  0  0  0  0  0
   -5.0064    0.5248    0.5258 H   0  0  0  0  0  0  0  0  0  0  0  0
    2.7313   -1.1955   -1.1278 H   0  0  0  0  0  0  0  0  0  0  0  0
    1.2173   -2.0316   -1.6372 H   0  0  0  0  0  0  0  0  0  0  0  0
    1.8620   -2.2893    0.0280 H   0  0  0  0  0  0  0  0  0  0  0  0
    0.7646    0.3926   -1.0873 H   0  0  0  0  0  0  0  0  0  0  0  0
  1 11  1  0
  1  7  1  0
  2  5  1  0
  2  9  1  0
  3  6  1  0
  3  9  1  0
  4  5  1  0
  4  6  1  0
  4 12  1  0
  4 13  1  0
  5 14  1  0
  5 15  1  0
  6 16  1  0
  6 17  1  0
  7  8  1  0
  7 18  1  0
  7 19  1  0
  8 20  1  0
  8 21  1  0
  8 22  1  0
  9 23  1  0
  9 24  1  0
 10 11  1  0
 10 25  1  0
 10 26  1  0
 10 27  1  0
 11 28  1  0
M  RAD  1  11   2
M  END
>  <reaction>  (17) 
rmg_rxn_199

>  <mol_properties>  (17) 
{"0": {"label": "*3", "atom_type": "Cs"}, "1": {"label": "*4", "atom_type": "Cs"}, "14": {"label": "*1", "atom_type": "Cs"}, "15": {"label": "*0", "atom_type": "S2s"}, "21": {"label": "*2", "atom_type": "H0"}}

>  <type>  (17) 
unop_13

>  <geom_source>  (17) 
AutoTST

$$$$

     RDKit          3D

 28 27  0  0  0  0  0  0  0  0999 V2000
   -1.3149   -0.5002    0.2023 C   0  0  0  0  0  3  0  0  0  0  0  0
   -1.8203   -1.5575   -0.7689 C   0  0  0  0  0  0  0  0  0  0  0  0
   -2.6077   -2.5153   -0.0877 O   0  0  0  0  0  0  0  0  0  0  0  0
   -1.8975   -3.0996    0.9614 C   0  0  0  0  0  0  0  0  0  0  0  0
   -1.4948   -2.1764    1.9268 O   0  0  0  0  0  0  0  0  0  0  0  0
   -0.6369   -1.1972    1.3732 C   0  0  0  0  0  0  0  0  0  0  0  0
   -2.1580    0.0885    0.5690 H   0  0  0  0  0  0  0  0  0  0  0  0
   -2.4512   -1.1285   -1.5461 H   0  0  0  0  0  0  0  0  0  0  0  0
   -0.9698   -2.0601   -1.2547 H   0  0  0  0  0  0  0  0  0  0  0  0
   -1.0096   -3.6206    0.5586 H   0  0  0  0  0  0  0  0  0  0  0  0
   -2.5644   -3.8073    1.4489 H   0  0  0  0  0  0  0  0  0  0  0  0
    0.2969   -1.6744    1.0382 H   0  0  0  0  0  0  0  0  0  0  0  0
   -0.3949   -0.5023    2.1762 H   0  0  0  0  0  0  0  0  0  0  0  0
    0.8731    0.6136   -2.2330 C   0  0  0  0  0  0  0  0  0  0  0  0
    0.8731    0.6136   -0.7133 C   0  0  0  0  0  0  0  0  0  0  0  0
    0.8731    2.2547    0.0517 S   0  0  0  0  0  0  0  0  0  0  0  0
    2.4137    2.9686   -0.5769 C   0  0  0  0  0  0  0  0  0  0  0  0
    3.6746    2.2098   -0.1977 C   0  0  0  0  0  0  0  0  0  0  0  0
    1.7961    1.0372   -2.6324 H   0  0  0  0  0  0  0  0  0  0  0  0
    0.7905   -0.4076   -2.6117 H   0  0  0  0  0  0  0  0  0  0  0  0
    0.0374    1.1961   -2.6224 H   0  0  0  0  0  0  0  0  0  0  0  0
   -0.2203    0.0570   -0.2557 H   0  0  0  0  0  0  0  0  0  0  0  0
    1.7093    0.0310   -0.3232 H   0  0  0  0  0  0  0  0  0  0  0  0
    2.3425    3.0908   -1.6590 H   0  0  0  0  0  0  0  0  0  0  0  0
    2.4288    3.9718   -0.1477 H   0  0  0  0  0  0  0  0  0  0  0  0
    3.6958    1.2179   -0.6524 H   0  0  0  0  0  0  0  0  0  0  0  0
    3.7453    2.0877    0.8837 H   0  0  0  0  0  0  0  0  0  0  0  0
    4.5594    2.7482   -0.5447 H   0  0  0  0  0  0  0  0  0  0  0  0
  1  2  1  0
  1  6  1  0
  1  7  1  0
  2  3  1  0
  2  8  1  0
  2  9  1  0
  3  4  1  0
  4  5  1  0
  4 10  1  0
  4 11  1  0
  5  6  1  0
  6 12  1  0
  6 13  1  0
 14 15  1  0
 14 19  1  0
 14 20  1  0
 14 21  1  0
 15 16  1  0
 15 22  1  0
 15 23  1  0
 16 17  1  0
 17 18  1  0
 17 24  1  0
 17 25  1  0
 18 26  1  0
 18 27  1  0
 18 28  1  0
M  RAD  1   1   2
M  END
>  <reaction>  (18) 
rmg_rxn_199

>  <mol_properties>  (18) 
{"0": {"label": "*3", "atom_type": "Cs"}, "1": {"label": "*4", "atom_type": "Cs"}, "14": {"label": "*1", "atom_type": "Cs"}, "15": {"label": "*0", "atom_type": "S2s"}, "21": {"label": "*2", "atom_type": "H0"}}

>  <type>  (18) 
unop_14

>  <geom_source>  (18) 
gaussian_log

$$$$
