
     RDKit          3D

  5  4  0  0  0  0  0  0  0  0999 V2000
    0.7361   -0.2872    0.4035 N   0  0  0  0  0  2  0  0  0  0  0  0
   -0.3891   -0.1505   -0.3131 N   0  0  0  0  0  0  0  0  0  0  0  0
    1.4909    0.0686   -0.1831 H   0  0  0  0  0  0  0  0  0  0  0  0
   -1.1819   -0.6340    0.0744 H   0  0  0  0  0  0  0  0  0  0  0  0
   -0.3592   -0.1189   -1.3223 H   0  0  0  0  0  0  0  0  0  0  0  0
  1  2  1  0
  1  3  1  0
  2  4  1  0
  2  5  1  0
M  RAD  1   1   2
M  END
>  <reaction>  (1) 
rmg_rxn_16489

>  <mol_properties>  (1) 
{"0": {"label": "donator", "atom_type": "N3s"}, "2": {"label": "d_hydrogen", "atom_type": "H0"}}

>  <type>  (1) 
r1h

$$$$

     RDKit          3D

  7  6  0  0  0  0  0  0  0  0999 V2000
   -0.6441   -0.1356    0.0624 C   0  0  0  0  0  0  0  0  0  0  0  0
    0.8523    0.0148   -0.0333 C   0  0  0  0  0  0  0  0  0  0  0  0
    1.6700   -0.6077    0.6603 N   0  0  0  0  0  2  0  0  0  0  0  0
   -1.0940    0.8275    0.3091 H   0  0  0  0  0  0  0  0  0  0  0  0
   -0.9104   -0.8656    0.8237 H   0  0  0  0  0  0  0  0  0  0  0  0
   -1.0427   -0.4545   -0.9022 H   0  0  0  0  0  0  0  0  0  0  0  0
    1.2362    0.7308   -0.7748 H   0  0  0  0  0  0  0  0  0  0  0  0
  1  2  1  0
  1  4  1  0
  1  5  1  0
  1  6  1  0
  2  3  2  0
  2  7  1  0
M  RAD  1   3   2
M  END
>  <reaction>  (2) 
rmg_rxn_16489

>  <mol_properties>  (2) 
{"2": {"label": "acceptor", "atom_type": "N3d"}}

>  <type>  (2) 
r2

$$$$

     RDKit          3D

  8  7  0  0  0  0  0  0  0  0999 V2000
    0.9548    0.1194   -0.0790 C   0  0  0  0  0  0  0  0  0  0  0  0
   -0.4838   -0.2649    0.0193 C   0  0  0  0  0  0  0  0  0  0  0  0
   -0.8933   -1.1081    0.8664 N   0  0  0  0  0  0  0  0  0  0  0  0
    1.3360   -0.0983   -1.0800 H   0  0  0  0  0  0  0  0  0  0  0  0
    1.0698    1.1948    0.0786 H   0  0  0  0  0  0  0  0  0  0  0  0
    1.5426   -0.4219    0.6602 H   0  0  0  0  0  0  0  0  0  0  0  0
   -1.1575    0.2324   -0.6905 H   0  0  0  0  0  0  0  0  0  0  0  0
   -1.8989   -1.2455    0.7886 H   0  0  0  0  0  0  0  0  0  0  0  0
  1  2  1  0
  1  4  1  0
  1  5  1  0
  1  6  1  0
  2  3  2  3
  2  7  1  0
  3  8  1  0
M  END
>  <reaction>  (3) 
rmg_rxn_16489

>  <mol_properties>  (3) 
{"0": {"label": "a_hydrogen", "atom_type": "H0"}, "3": {"label": "acceptor", "atom_type": "N3d"}}

>  <type>  (3) 
r2h

$$$$

     RDKit          3D

 12 10  0  0  0  0  0  0  0  0999 V2000
   -0.6267   -1.7374   -0.4798 N   0  0  0  0  0  2  0  0  0  0  0  0
    0.5128   -2.2000   -1.0006 N   0  0  0  0  0  0  0  0  0  0  0  0
   -0.2667   -0.7249    0.0938 H   0  0  0  0  0  0  0  0  0  0  0  0
    0.5078   -3.1900   -1.2007 H   0  0  0  0  0  0  0  0  0  0  0  0
    1.3792   -1.8545   -0.6009 H   0  0  0  0  0  0  0  0  0  0  0  0
   -0.0047    2.7385    0.1303 C   0  0  0  0  0  0  0  0  0  0  0  0
   -0.3455    1.2948   -0.0877 C   0  0  0  0  0  0  0  0  0  0  0  0
    0.2885    0.3594    0.4546 N   0  0  0  0  0  2  0  0  0  0  0  0
    0.2246    3.2123   -0.8268 H   0  0  0  0  0  0  0  0  0  0  0  0
    0.8473    2.8379    0.8000 H   0  0  0  0  0  0  0  0  0  0  0  0
   -0.8651    3.2604    0.5548 H   0  0  0  0  0  0  0  0  0  0  0  0
   -1.1928    1.0876   -0.7552 H   0  0  0  0  0  0  0  0  0  0  0  0
  1  2  1  0
  1  3  1  0
  2  4  1  0
  2  5  1  0
  6  7  1  0
  6  9  1  0
  6 10  1  0
  6 11  1  0
  7  8  2  0
  7 12  1  0
M  RAD  2   1   2   8   2
M  END
>  <reaction>  (4) 
rmg_rxn_16489

>  <mol_properties>  (4) 
{"0": {"label": "*1", "atom_type": "N3s"}, "1": {"label": "*0", "atom_type": "N3s"}, "2": {"label": "*2", "atom_type": "H0"}, "6": {"label": "*4", "atom_type": "Cd"}, "7": {"label": "*3", "atom_type": "N3d"}}

>  <type>  (4) 
ts

$$$$

     RDKit          3D

 12 10  0  0  0  0  0  0  0  0999 V2000
    1.8305   -0.5051   -0.0000 N   0  0  0  0  0  1  0  0  0  0  0  0
    1.9139    0.7245    0.0000 N   0  0  0  0  0  0  0  0  0  0  0  0
    0.6818   -0.9944    0.0000 H   0  0  0  0  0  0  0  0  0  0  0  0
    1.9568    1.2940   -0.8708 H   0  0  0  0  0  0  0  0  0  0  0  0
    1.9568    1.2939    0.8709 H   0  0  0  0  0  0  0  0  0  0  0  0
   -2.4564    0.3964   -0.0000 C   0  0  0  0  0  0  0  0  0  0  0  0
   -0.9860    0.1533    0.0000 C   0  0  0  0  0  0  0  0  0  0  0  0
   -0.4884   -0.9838    0.0000 N   0  0  0  0  0  0  0  0  0  0  0  0
   -2.7299    0.9744    0.8816 H   0  0  0  0  0  0  0  0  0  0  0  0
   -2.9918   -0.5482   -0.0001 H   0  0  0  0  0  0  0  0  0  0  0  0
   -2.7298    0.9745   -0.8816 H   0  0  0  0  0  0  0  0  0  0  0  0
   -0.3689    1.0774    0.0000 H   0  0  0  0  0  0  0  0  0  0  0  0
  1  2  1  0
  2  4  1  0
  2  5  1  0
  3  8  1  0
  6  7  1  0
  6  9  1  0
  6 10  1  0
  6 11  1  0
  7  8  2  3
  7 12  1  0
M  RAD  1   1   3
M  END
>  <reaction>  (5) 
rmg_rxn_16489

>  <mol_properties>  (5) 
{"0": {"label": "*1", "atom_type": "N3s"}, "1": {"label": "*0", "atom_type": "N3s"}, "2": {"label": "*2", "atom_type": "H0"}, "6": {"label": "*4", "atom_type": "Cd"}, "7": {"label": "*3", "atom_type": "N3d"}}

>  <type>  (5) 
unop_1

>  <geom_source>  (5) 
crest_best.xyz

$$$$

     RDKit          3D

 12 10  0  0  0  0  0  0  0  0999 V2000
    0.3814   -1.6502   -0.6148 N   0  0  0  0  0  1  0  0  0  0  0  0
    0.3814   -1.6502   -1.9558 N   0  0  0  0  0  0  0  0  0  0  0  0
    0.3814   -0.4744   -0.2746 H   0  0  0  0  0  0  0  0  0  0  0  0
    0.5694   -2.5502   -2.3647 H   0  0  0  0  0  0  0  0  0  0  0  0
    0.7434   -0.8618   -2.4733 H   0  0  0  0  0  0  0  0  0  0  0  0
   -0.5605    1.8268    1.9772 C   0  0  0  0  0  0  0  0  0  0  0  0
   -0.6398    0.9708    0.7574 C   0  0  0  0  0  0  0  0  0  0  0  0
    0.3814    0.6989    0.0649 N   0  0  0  0  0  0  0  0  0  0  0  0
   -1.2059    2.7020    1.8667 H   0  0  0  0  0  0  0  0  0  0  0  0
    0.4651    2.1497    2.1471 H   0  0  0  0  0  0  0  0  0  0  0  0
   -0.9193    1.2747    2.8497 H   0  0  0  0  0  0  0  0  0  0  0  0
   -1.6401    0.5959    0.5047 H   0  0  0  0  0  0  0  0  0  0  0  0
  1  2  1  0
  2  4  1  0
  2  5  1  0
  3  8  1  0
  6  7  1  0
  6  9  1  0
  6 10  1  0
  6 11  1  0
  7  8  2  3
  7 12  1  0
M  RAD  1   1   3
M  END
>  <reaction>  (6) 
rmg_rxn_16489

>  <mol_properties>  (6) 
{"0": {"label": "*1", "atom_type": "N3s"}, "1": {"label": "*0", "atom_type": "N3s"}, "2": {"label": "*2", "atom_type": "H0"}, "6": {"label": "*4", "atom_type": "Cd"}, "7": {"label": "*3", "atom_type": "N3d"}}

>  <type>  (6) 
unop_2

>  <geom_source>  (6) 
Heuristics

$$$$

     RDKit          3D

 12 10  0  0  0  0  0  0  0  0999 V2000
    0.3315   -1.9321    0.1818 N   0  0  0  0  0  1  0  0  0  0  0  0
    0.3315   -1.9321   -1.1592 N   0  0  0  0  0  0  0  0  0  0  0  0
    0.3315   -0.7563    0.5220 H   0  0  0  0  0  0  0  0  0  0  0  0
    0.5194   -2.8320   -1.5681 H   0  0  0  0  0  0  0  0  0  0  0  0
    0.6935   -1.1437   -1.6767 H   0  0  0  0  0  0  0  0  0  0  0  0
   -0.7686    2.4988    0.3397 C   0  0  0  0  0  0  0  0  0  0  0  0
   -0.2581    1.1366    0.0066 C   0  0  0  0  0  0  0  0  0  0  0  0
    0.3315    0.4171    0.8615 N   0  0  0  0  0  0  0  0  0  0  0  0
   -0.3057    3.2449   -0.3112 H   0  0  0  0  0  0  0  0  0  0  0  0
   -0.5544    2.7396    1.3795 H   0  0  0  0  0  0  0  0  0  0  0  0
   -1.8467    2.5505    0.1670 H   0  0  0  0  0  0  0  0  0  0  0  0
   -0.4291    0.8050   -1.0257 H   0  0  0  0  0  0  0  0  0  0  0  0
  1  2  1  0
  2  4  1  0
  2  5  1  0
  3  8  1  0
  6  7  1  0
  6  9  1  0
  6 10  1  0
  6 11  1  0
  7  8  2  3
  7 12  1  0
M  RAD  1   1   3
M  END
>  <reaction>  (7) 
rmg_rxn_16489

>  <mol_properties>  (7) 
{"0": {"label": "*1", "atom_type": "N3s"}, "1": {"label": "*0", "atom_type": "N3s"}, "2": {"label": "*2", "atom_type": "H0"}, "6": {"label": "*4", "atom_type": "Cd"}, "7": {"label": "*3", "atom_type": "N3d"}}

>  <type>  (7) 
unop_3

>  <geom_source>  (7) 
Heuristics

$$$$

     RDKit          3D

 12 10  0  0  0  0  0  0  0  0999 V2000
    0.1455   -1.6467   -0.7265 N   0  0  0  0  0  1  0  0  0  0  0  0
    0.1455   -1.6467   -2.0675 N   0  0  0  0  0  0  0  0  0  0  0  0
    0.1455   -0.4709   -0.3862 H   0  0  0  0  0  0  0  0  0  0  0  0
    0.3334   -2.5467   -2.4763 H   0  0  0  0  0  0  0  0  0  0  0  0
    0.5075   -0.8583   -2.5850 H   0  0  0  0  0  0  0  0  0  0  0  0
   -0.0508    1.9246    2.0230 C   0  0  0  0  0  0  0  0  0  0  0  0
   -0.4441    0.8543    1.0604 C   0  0  0  0  0  0  0  0  0  0  0  0
    0.1455    0.7024   -0.0467 N   0  0  0  0  0  0  0  0  0  0  0  0
   -0.8995    2.5841    2.2217 H   0  0  0  0  0  0  0  0  0  0  0  0
    0.7775    2.5073    1.6237 H   0  0  0  0  0  0  0  0  0  0  0  0
    0.2403    1.4834    2.9797 H   0  0  0  0  0  0  0  0  0  0  0  0
   -1.2756    0.2122    1.3782 H   0  0  0  0  0  0  0  0  0  0  0  0
  1  2  1  0
  2  4  1  0
  2  5  1  0
  3  8  1  0
  6  7  1  0
  6  9  1  0
  6 10  1  0
  6 11  1  0
  7  8  2  3
  7 12  1  0
M  RAD  1   1   3
M  END
>  <reaction>  (8) 
rmg_rxn_16489

>  <mol_properties>  (8) 
{"0": {"label": "*1", "atom_type": "N3s"}, "1": {"label": "*0", "atom_type": "N3s"}, "2": {"label": "*2", "atom_type": "H0"}, "6": {"label": "*4", "atom_type": "Cd"}, "7": {"label": "*3", "atom_type": "N3d"}}

>  <type>  (8) 
unop_4

>  <geom_source>  (8) 
Heuristics

$$$$

     RDKit          3D

 12 10  0  0  0  0  0  0  0  0999 V2000
   -0.5478   -1.8313   -0.0708 N   0  0  0  0  0  1  0  0  0  0  0  0
   -0.5478   -1.8313   -1.4118 N   0  0  0  0  0  0  0  0  0  0  0  0
   -0.5478   -0.6555    0.2694 H   0  0  0  0  0  0  0  0  0  0  0  0
   -0.3599   -2.7312   -1.8207 H   0  0  0  0  0  0  0  0  0  0  0  0
   -0.1859   -1.0429   -1.9293 H   0  0  0  0  0  0  0  0  0  0  0  0
    1.1291    2.2212    0.9295 C   0  0  0  0  0  0  0  0  0  0  0  0
    0.4734    1.1175    0.1686 C   0  0  0  0  0  0  0  0  0  0  0  0
   -0.5478    0.5179    0.6089 N   0  0  0  0  0  0  0  0  0  0  0  0
    2.1715    1.9678    1.1389 H   0  0  0  0  0  0  0  0  0  0  0  0
    0.6029    2.4005    1.8654 H   0  0  0  0  0  0  0  0  0  0  0  0
    1.1376    3.1373    0.3335 H   0  0  0  0  0  0  0  0  0  0  0  0
    0.9364    0.8641   -0.7937 H   0  0  0  0  0  0  0  0  0  0  0  0
  1  2  1  0
  2  4  1  0
  2  5  1  0
  3  8  1  0
  6  7  1  0
  6  9  1  0
  6 10  1  0
  6 11  1  0
  7  8  2  3
  7 12  1  0
M  RAD  1   1   3
M  END
>  <reaction>  (9) 
rmg_rxn_16489

>  <mol_properties>  (9) 
{"0": {"label": "*1", "atom_type": "N3s"}, "1": {"label": "*0", "atom_type": "N3s"}, "2": {"label": "*2", "atom_type": "H0"}, "6": {"label": "*4", "atom_type": "Cd"}, "7": {"label": "*3", "atom_type": "N3d"}}

>  <type>  (9) 
unop_5

>  <geom_source>  (9) 
Heuristics

$$$$

     RDKit          3D

 12 10  0  0  0  0  0  0  0  0999 V2000
   -0.0076   -1.6826   -0.7280 N   0  0  0  0  0  1  0  0  0  0  0  0
   -0.0076   -1.6826   -2.0690 N   0  0  0  0  0  0  0  0  0  0  0  0
   -0.0076   -0.5068   -0.3878 H   0  0  0  0  0  0  0  0  0  0  0  0
    0.1804   -2.5826   -2.4779 H   0  0  0  0  0  0  0  0  0  0  0  0
    0.3544   -0.8942   -2.5865 H   0  0  0  0  0  0  0  0  0  0  0  0
   -0.0076    2.1041    1.8881 C   0  0  0  0  0  0  0  0  0  0  0  0
   -0.0076    0.7744    1.2106 C   0  0  0  0  0  0  0  0  0  0  0  0
   -0.0076    0.6665   -0.0483 N   0  0  0  0  0  0  0  0  0  0  0  0
   -0.8858    2.1998    2.5316 H   0  0  0  0  0  0  0  0  0  0  0  0
   -0.0076    2.9048    1.1506 H   0  0  0  0  0  0  0  0  0  0  0  0
    0.8707    2.1998    2.5316 H   0  0  0  0  0  0  0  0  0  0  0  0
   -0.0076   -0.0978    1.8769 H   0  0  0  0  0  0  0  0  0  0  0  0
  1  2  1  0
  2  4  1  0
  2  5  1  0
  3  8  1  0
  6  7  1  0
  6  9  1  0
  6 10  1  0
  6 11  1  0
  7  8  2  3
  7 12  1  0
M  RAD  1   1   3
M  END
>  <reaction>  (10) 
rmg_rxn_16489

>  <mol_properties>  (10) 
{"0": {"label": "*1", "atom_type": "N3s"}, "1": {"label": "*0", "atom_type": "N3s"}, "2": {"label": "*2", "atom_type": "H0"}, "6": {"label": "*4", "atom_type": "Cd"}, "7": {"label": "*3", "atom_type": "N3d"}}

>  <type>  (10) 
unop_6

>  <geom_source>  (10) 
Heuristics

$$$$

     RDKit          3D

 12 10  0  0  0  0  0  0  0  0999 V2000
   -0.5567   -1.7230   -0.3712 N   0  0  0  0  0  1  0  0  0  0  0  0
   -0.5567   -1.7230   -1.7122 N   0  0  0  0  0  0  0  0  0  0  0  0
   -0.5567   -0.5472   -0.0310 H   0  0  0  0  0  0  0  0  0  0  0  0
   -0.3688   -2.6230   -2.1211 H   0  0  0  0  0  0  0  0  0  0  0  0
   -0.1947   -0.9346   -2.2297 H   0  0  0  0  0  0  0  0  0  0  0  0
    1.0166    1.9555    1.5629 C   0  0  0  0  0  0  0  0  0  0  0  0
    0.6225    1.0619    0.4346 C   0  0  0  0  0  0  0  0  0  0  0  0
   -0.5567    0.6261    0.3085 N   0  0  0  0  0  0  0  0  0  0  0  0
    1.8198    1.4965    2.1451 H   0  0  0  0  0  0  0  0  0  0  0  0
    0.1623    2.1481    2.2095 H   0  0  0  0  0  0  0  0  0  0  0  0
    1.4039    2.9020    1.1772 H   0  0  0  0  0  0  0  0  0  0  0  0
    1.4225    0.8107   -0.2737 H   0  0  0  0  0  0  0  0  0  0  0  0
  1  2  1  0
  2  4  1  0
  2  5  1  0
  3  8  1  0
  6  7  1  0
  6  9  1  0
  6 10  1  0
  6 11  1  0
  7  8  2  3
  7 12  1  0
M  RAD  1   1   3
M  END
>  <reaction>  (11) 
rmg_rxn_16489

>  <mol_properties>  (11) 
{"0": {"label": "*1", "atom_type": "N3s"}, "1": {"label": "*0", "atom_type": "N3s"}, "2": {"label": "*2", "atom_type": "H0"}, "6": {"label": "*4", "atom_type": "Cd"}, "7": {"label": "*3", "atom_type": "N3d"}}

>  <type>  (11) 
unop_7

>  <geom_source>  (11) 
Heuristics

$$$$

     RDKit          3D

 12 10  0  0  0  0  0  0  0  0999 V2000
   -0.3966   -1.6502   -0.6148 N   0  0  0  0  0  1  0  0  0  0  0  0
   -0.3966   -1.6502   -1.9558 N   0  0  0  0  0  0  0  0  0  0  0  0
   -0.3966   -0.4744   -0.2746 H   0  0  0  0  0  0  0  0  0  0  0  0
   -0.2086   -2.5502   -2.3647 H   0  0  0  0  0  0  0  0  0  0  0  0
   -0.0346   -0.8618   -2.4733 H   0  0  0  0  0  0  0  0  0  0  0  0
    0.5454    1.8268    1.9772 C   0  0  0  0  0  0  0  0  0  0  0  0
    0.6247    0.9708    0.7574 C   0  0  0  0  0  0  0  0  0  0  0  0
   -0.3966    0.6989    0.0649 N   0  0  0  0  0  0  0  0  0  0  0  0
    0.9041    1.2747    2.8497 H   0  0  0  0  0  0  0  0  0  0  0  0
   -0.4802    2.1497    2.1471 H   0  0  0  0  0  0  0  0  0  0  0  0
    1.1907    2.7020    1.8667 H   0  0  0  0  0  0  0  0  0  0  0  0
    1.6249    0.5959    0.5047 H   0  0  0  0  0  0  0  0  0  0  0  0
  1  2  1  0
  2  4  1  0
  2  5  1  0
  3  8  1  0
  6  7  1  0
  6  9  1  0
  6 10  1  0
  6 11  1  0
  7  8  2  3
  7 12  1  0
M  RAD  1   1   3
M  END
>  <reaction>  (12) 
rmg_rxn_16489

>  <mol_properties>  (12) 
{"0": {"label": "*1", "atom_type": "N3s"}, "1": {"label": "*0", "atom_type": "N3s"}, "2": {"label": "*2", "atom_type": "H0"}, "6": {"label": "*4", "atom_type": "Cd"}, "7": {"label": "*3", "atom_type": "N3d"}}

>  <type>  (12) 
unop_8

>  <geom_source>  (12) 
Heuristics

$$$$

     RDKit          3D

 12 10  0  0  0  0  0  0  0  0999 V2000
    0.5415   -1.7230   -0.3712 N   0  0  0  0  0  1  0  0  0  0  0  0
    0.5415   -1.7230   -1.7122 N   0  0  0  0  0  0  0  0  0  0  0  0
    0.5415   -0.5472   -0.0310 H   0  0  0  0  0  0  0  0  0  0  0  0
    0.7295   -2.6230   -2.1211 H   0  0  0  0  0  0  0  0  0  0  0  0
    0.9035   -0.9346   -2.2297 H   0  0  0  0  0  0  0  0  0  0  0  0
   -1.0318    1.9555    1.5629 C   0  0  0  0  0  0  0  0  0  0  0  0
   -0.6377    1.0619    0.4346 C   0  0  0  0  0  0  0  0  0  0  0  0
    0.5415    0.6261    0.3085 N   0  0  0  0  0  0  0  0  0  0  0  0
   -1.4191    2.9020    1.1772 H   0  0  0  0  0  0  0  0  0  0  0  0
   -0.1775    2.1481    2.2095 H   0  0  0  0  0  0  0  0  0  0  0  0
   -1.8349    1.4965    2.1451 H   0  0  0  0  0  0  0  0  0  0  0  0
   -1.4377    0.8107   -0.2737 H   0  0  0  0  0  0  0  0  0  0  0  0
  1  2  1  0
  2  4  1  0
  2  5  1  0
  3  8  1  0
  6  7  1  0
  6  9  1  0
  6 10  1  0
  6 11  1  0
  7  8  2  3
  7 12  1  0
M  RAD  1   1   3
M  END
>  <reaction>  (13) 
rmg_rxn_16489

>  <mol_properties>  (13) 
{"0": {"label": "*1", "atom_type": "N3s"}, "1": {"label": "*0", "atom_type": "N3s"}, "2": {"label": "*2", "atom_type": "H0"}, "6": {"label": "*4", "atom_type": "Cd"}, "7": {"label": "*3", "atom_type": "N3d"}}

>  <type>  (13) 
unop_9

>  <geom_source>  (13) 
Heuristics

$$$$

     RDKit          3D

 12 10  0  0  0  0  0  0  0  0999 V2000
    1.8305   -0.5051   -0.0000 N   0  0  0  0  0  1  0  0  0  0  0  0
    1.9139    0.7245    0.0000 N   0  0  0  0  0  0  0  0  0  0  0  0
    0.6818   -0.9944    0.0000 H   0  0  0  0  0  0  0  0  0  0  0  0
    1.9568    1.2940   -0.8708 H   0  0  0  0  0  0  0  0  0  0  0  0
    1.9568    1.2939    0.8709 H   0  0  0  0  0  0  0  0  0  0  0  0
   -2.4564    0.3964   -0.0000 C   0  0  0  0  0  0  0  0  0  0  0  0
   -0.9860    0.1533    0.0000 C   0  0  0  0  0  0  0  0  0  0  0  0
   -0.4884   -0.9838    0.0000 N   0  0  0  0  0  0  0  0  0  0  0  0
   -2.7299    0.9744    0.8816 H   0  0  0  0  0  0  0  0  0  0  0  0
   -2.9918   -0.5482   -0.0001 H   0  0  0  0  0  0  0  0  0  0  0  0
   -2.7298    0.9745   -0.8816 H   0  0  0  0  0  0  0  0  0  0  0  0
   -0.3689    1.0774    0.0000 H   0  0  0  0  0  0  0  0  0  0  0  0
  1  2  1  0
  2  4  1  0
  2  5  1  0
  3  8  1  0
  6  7  1  0
  6  9  1  0
  6 10  1  0
  6 11  1  0
  7  8  2  3
  7 12  1  0
M  RAD  1   1   3
M  END
>  <reaction>  (14) 
rmg_rxn_16489

>  <mol_properties>  (14) 
{"0": {"label": "*1", "atom_type": "N3s"}, "1": {"label": "*0", "atom_type": "N3s"}, "2": {"label": "*2", "atom_type": "H0"}, "6": {"label": "*4", "atom_type": "Cd"}, "7": {"label": "*3", "atom_type": "N3d"}}

>  <type>  (14) 
unop_10

>  <geom_source>  (14) 
Heuristics

$$$$

     RDKit          3D

 12 10  0  0  0  0  0  0  0  0999 V2000
   -0.3466   -1.9321    0.1818 N   0  0  0  0  0  1  0  0  0  0  0  0
   -0.3466   -1.9321   -1.1592 N   0  0  0  0  0  0  0  0  0  0  0  0
   -0.3466   -0.7563    0.5220 H   0  0  0  0  0  0  0  0  0  0  0  0
   -0.1587   -2.8320   -1.5681 H   0  0  0  0  0  0  0  0  0  0  0  0
    0.0153   -1.1437   -1.6767 H   0  0  0  0  0  0  0  0  0  0  0  0
    0.7534    2.4988    0.3397 C   0  0  0  0  0  0  0  0  0  0  0  0
    0.2430    1.1366    0.0066 C   0  0  0  0  0  0  0  0  0  0  0  0
   -0.3466    0.4171    0.8615 N   0  0  0  0  0  0  0  0  0  0  0  0
    1.8315    2.5505    0.1670 H   0  0  0  0  0  0  0  0  0  0  0  0
    0.5392    2.7396    1.3795 H   0  0  0  0  0  0  0  0  0  0  0  0
    0.2906    3.2449   -0.3112 H   0  0  0  0  0  0  0  0  0  0  0  0
    0.4139    0.8050   -1.0257 H   0  0  0  0  0  0  0  0  0  0  0  0
  1  2  1  0
  2  4  1  0
  2  5  1  0
  3  8  1  0
  6  7  1  0
  6  9  1  0
  6 10  1  0
  6 11  1  0
  7  8  2  3
  7 12  1  0
M  RAD  1   1   3
M  END
>  <reaction>  (15) 
rmg_rxn_16489

>  <mol_properties>  (15) 
{"0": {"label": "*1", "atom_type": "N3s"}, "1": {"label": "*0", "atom_type": "N3s"}, "2": {"label": "*2", "atom_type": "H0"}, "6": {"label": "*4", "atom_type": "Cd"}, "7": {"label": "*3", "atom_type": "N3d"}}

>  <type>  (15) 
unop_11

>  <geom_source>  (15) 
Heuristics

$$$$

     RDKit          3D

 12 10  0  0  0  0  0  0  0  0999 V2000
    0.5327   -1.8313   -0.0708 N   0  0  0  0  0  1  0  0  0  0  0  0
    0.5327   -1.8313   -1.4118 N   0  0  0  0  0  0  0  0  0  0  0  0
    0.5327   -0.6555    0.2694 H   0  0  0  0  0  0  0  0  0  0  0  0
    0.7206   -2.7312   -1.8207 H   0  0  0  0  0  0  0  0  0  0  0  0
    0.8947   -1.0429   -1.9293 H   0  0  0  0  0  0  0  0  0  0  0  0
   -1.1443    2.2212    0.9295 C   0  0  0  0  0  0  0  0  0  0  0  0
   -0.4886    1.1175    0.1686 C   0  0  0  0  0  0  0  0  0  0  0  0
    0.5327    0.5179    0.6089 N   0  0  0  0  0  0  0  0  0  0  0  0
   -1.1528    3.1373    0.3335 H   0  0  0  0  0  0  0  0  0  0  0  0
   -0.6180    2.4005    1.8654 H   0  0  0  0  0  0  0  0  0  0  0  0
   -2.1867    1.9678    1.1389 H   0  0  0  0  0  0  0  0  0  0  0  0
   -0.9516    0.8641   -0.7937 H   0  0  0  0  0  0  0  0  0  0  0  0
  1  2  1  0
  2  4  1  0
  2  5  1  0
  3  8  1  0
  6  7  1  0
  6  9  1  0
  6 10  1  0
  6 11  1  0
  7  8  2  3
  7 12  1  0
M  RAD  1   1   3
M  END
>  <reaction>  (16) 
rmg_rxn_16489

>  <mol_properties>  (16) 
{"0": {"label": "*1", "atom_type": "N3s"}, "1": {"label": "*0", "atom_type": "N3s"}, "2": {"label": "*2", "atom_type": "H0"}, "6": {"label": "*4", "atom_type": "Cd"}, "7": {"label": "*3", "atom_type": "N3d"}}

>  <type>  (16) 
unop_12

>  <geom_source>  (16) 
Heuristics

$$$$

     RDKit          3D

 12 10  0  0  0  0  0  0  0  0999 V2000
   -0.1607   -1.6467   -0.7265 N   0  0  0  0  0  1  0  0  0  0  0  0
   -0.1607   -1.6467   -2.0675 N   0  0  0  0  0  0  0  0  0  0  0  0
   -0.1607   -0.4709   -0.3862 H   0  0  0  0  0  0  0  0  0  0  0  0
    0.0273   -2.5467   -2.4763 H   0  0  0  0  0  0  0  0  0  0  0  0
    0.2013   -0.8583   -2.5850 H   0  0  0  0  0  0  0  0  0  0  0  0
    0.0356    1.9246    2.0230 C   0  0  0  0  0  0  0  0  0  0  0  0
    0.4290    0.8543    1.0604 C   0  0  0  0  0  0  0  0  0  0  0  0
   -0.1607    0.7024   -0.0467 N   0  0  0  0  0  0  0  0  0  0  0  0
   -0.2555    1.4834    2.9797 H   0  0  0  0  0  0  0  0  0  0  0  0
   -0.7926    2.5073    1.6237 H   0  0  0  0  0  0  0  0  0  0  0  0
    0.8844    2.5841    2.2217 H   0  0  0  0  0  0  0  0  0  0  0  0
    1.2605    0.2122    1.3782 H   0  0  0  0  0  0  0  0  0  0  0  0
  1  2  1  0
  2  4  1  0
  2  5  1  0
  3  8  1  0
  6  7  1  0
  6  9  1  0
  6 10  1  0
  6 11  1  0
  7  8  2  3
  7 12  1  0
M  RAD  1   1   3
M  END
>  <reaction>  (17) 
rmg_rxn_16489

>  <mol_properties>  (17) 
{"0": {"label": "*1", "atom_type": "N3s"}, "1": {"label": "*0", "atom_type": "N3s"}, "2": {"label": "*2", "atom_type": "H0"}, "6": {"label": "*4", "atom_type": "Cd"}, "7": {"label": "*3", "atom_type": "N3d"}}

>  <type>  (17) 
unop_13

>  <geom_source>  (17) 
Heuristics

$$$$

     RDKit          3D

 12 10  0  0  0  0  0  0  0  0999 V2000
   -0.0076   -1.9750    0.2823 N   0  0  0  0  0  1  0  0  0  0  0  0
   -0.0076   -1.9750   -1.0587 N   0  0  0  0  0  0  0  0  0  0  0  0
   -0.0076   -0.7992    0.6225 H   0  0  0  0  0  0  0  0  0  0  0  0
    0.1804   -2.8750   -1.4676 H   0  0  0  0  0  0  0  0  0  0  0  0
    0.3544   -1.1866   -1.5762 H   0  0  0  0  0  0  0  0  0  0  0  0
   -0.0076    2.6237    0.0926 C   0  0  0  0  0  0  0  0  0  0  0  0
   -0.0076    1.1376   -0.0446 C   0  0  0  0  0  0  0  0  0  0  0  0
   -0.0076    0.3741    0.9621 N   0  0  0  0  0  0  0  0  0  0  0  0
    0.8707    3.0482   -0.4004 H   0  0  0  0  0  0  0  0  0  0  0  0
   -0.0076    2.9068    1.1438 H   0  0  0  0  0  0  0  0  0  0  0  0
   -0.8858    3.0482   -0.4004 H   0  0  0  0  0  0  0  0  0  0  0  0
   -0.0076    0.7560   -1.0738 H   0  0  0  0  0  0  0  0  0  0  0  0
  1  2  1  0
  2  4  1  0
  2  5  1  0
  3  8  1  0
  6  7  1  0
  6  9  1  0
  6 10  1  0
  6 11  1  0
  7  8  2  3
  7 12  1  0
M  RAD  1   1   3
M  END
>  <reaction>  (18) 
rmg_rxn_16489

>  <mol_properties>  (18) 
{"0": {"label": "*1", "atom_type": "N3s"}, "1": {"label": "*0", "atom_type": "N3s"}, "2": {"label": "*2", "atom_type": "H0"}, "6": {"label": "*4", "atom_type": "Cd"}, "7": {"label": "*3", "atom_type": "N3d"}}

>  <type>  (18) 
unop_14

>  <geom_source>  (18) 
Heuristics

$$$$

     RDKit          3D

 12 10  0  0  0  0  0  0  0  0999 V2000
    0.3315   -1.9321    0.1818 N   0  0  0  0  0  1  0  0  0  0  0  0
    0.3315   -1.9321   -1.1592 N   0  0  0  0  0  0  0  0  0  0  0  0
    0.3315   -0.7563    0.5220 H   0  0  0  0  0  0  0  0  0  0  0  0
    0.5194   -2.8320   -1.5681 H   0  0  0  0  0  0  0  0  0  0  0  0
    0.6935   -1.1437   -1.6767 H   0  0  0  0  0  0  0  0  0  0  0  0
   -0.7686    2.4988    0.3397 C   0  0  0  0  0  0  0  0  0  0  0  0
   -0.2581    1.1366    0.0066 C   0  0  0  0  0  0  0  0  0  0  0  0
    0.3315    0.4170    0.8615 N   0  0  0  0  0  0  0  0  0  0  0  0
   -0.3057    3.2449   -0.3112 H   0  0  0  0  0  0  0  0  0  0  0  0
   -0.5544    2.7396    1.3795 H   0  0  0  0  0  0  0  0  0  0  0  0
   -1.8466    2.5505    0.1670 H   0  0  0  0  0  0  0  0  0  0  0  0
   -0.4291    0.8050   -1.0257 H   0  0  0  0  0  0  0  0  0  0  0  0
  1  2  1  0
  2  4  1  0
  2  5  1  0
  3  8  1  0
  6  7  1  0
  6  9  1  0
  6 10  1  0
  6 11  1  0
  7  8  2  3
  7 12  1  0
M  RAD  1   1   3
M  END
>  <reaction>  (19) 
rmg_rxn_16489

>  <mol_properties>  (19) 
{"0": {"label": "*1", "atom_type": "N3s"}, "1": {"label": "*0", "atom_type": "N3s"}, "2": {"label": "*2", "atom_type": "H0"}, "6": {"label": "*4", "atom_type": "Cd"}, "7": {"label": "*3", "atom_type": "N3d"}}

>  <type>  (19) 
unop_15

>  <geom_source>  (19) 
gaussian_log

$$$$
