
     RDKit          3D

 15 14  0  0  0  0  0  0  0  0999 V2000
   -2.0554    0.0723   -0.4910 C   0  0  0  0  0  0  0  0  0  0  0  0
   -0.7461   -0.6266   -0.8178 C   0  0  0  0  0  0  0  0  0  0  0  0
    0.3249    0.2591   -1.9782 S   0  0  0  0  0  0  0  0  0  0  0  0
   -0.7172    0.3642   -3.4551 C   0  0  0  0  0  0  0  0  0  0  0  0
   -1.1375   -0.9737   -4.0409 C   0  0  0  0  0  0  0  0  0  0  0  0
   -2.7005    0.1427   -1.3684 H   0  0  0  0  0  0  0  0  0  0  0  0
   -2.6016   -0.4848    0.2733 H   0  0  0  0  0  0  0  0  0  0  0  0
   -1.8758    1.0825   -0.1213 H   0  0  0  0  0  0  0  0  0  0  0  0
   -0.1320   -0.7246    0.0789 H   0  0  0  0  0  0  0  0  0  0  0  0
   -0.9254   -1.6374   -1.1879 H   0  0  0  0  0  0  0  0  0  0  0  0
   -1.5873    0.9874   -3.2422 H   0  0  0  0  0  0  0  0  0  0  0  0
   -0.1021    0.9161   -4.1678 H   0  0  0  0  0  0  0  0  0  0  0  0
   -1.7876   -1.5224   -3.3574 H   0  0  0  0  0  0  0  0  0  0  0  0
   -0.2676   -1.5962   -4.2534 H   0  0  0  0  0  0  0  0  0  0  0  0
   -1.6916   -0.8229   -4.9700 H   0  0  0  0  0  0  0  0  0  0  0  0
  1  2  1  0
  1  6  1  0
  1  7  1  0
  1  8  1  0
  2  3  1  0
  2  9  1  0
  2 10  1  0
  3  4  1  0
  4  5  1  0
  4 11  1  0
  4 12  1  0
  5 13  1  0
  5 14  1  0
  5 15  1  0
M  END
>  <reaction>  (1) 
rmg_rxn_55

>  <mol_properties>  (1) 
{"1": {"label": "donator", "atom_type": "Cs"}, "8": {"label": "d_hydrogen", "atom_type": "H0"}}

>  <type>  (1) 
r1h

$$$$

     RDKit          3D

  9  8  0  0  0  0  0  0  0  0999 V2000
    1.3246   -0.8124   -0.0809 C   0  0  0  0  0  2  0  0  0  0  0  0
    0.4082    0.3080    0.1518 C   0  0  0  0  0  0  0  0  0  0  0  0
   -1.0545   -0.0277   -0.1520 C   0  0  0  0  0  0  0  0  0  0  0  0
    2.3933   -0.9471    0.0203 H   0  0  0  0  0  0  0  0  0  0  0  0
    0.4898    0.6406    1.1970 H   0  0  0  0  0  0  0  0  0  0  0  0
    0.7134    1.1680   -0.4624 H   0  0  0  0  0  0  0  0  0  0  0  0
   -1.4014   -0.8515    0.4727 H   0  0  0  0  0  0  0  0  0  0  0  0
   -1.1767   -0.3214   -1.1952 H   0  0  0  0  0  0  0  0  0  0  0  0
   -1.6915    0.8372    0.0370 H   0  0  0  0  0  0  0  0  0  0  0  0
  1  2  1  0
  1  4  1  0
  2  3  1  0
  2  5  1  0
  2  6  1  0
  3  7  1  0
  3  8  1  0
  3  9  1  0
M  RAD  1   1   3
M  END
>  <reaction>  (2) 
rmg_rxn_55

>  <mol_properties>  (2) 
{"0": {"label": "acceptor", "atom_type": "Cs"}}

>  <type>  (2) 
r2

$$$$

     RDKit          3D

 10  9  0  0  0  0  0  0  0  0999 V2000
    1.4352    0.2660   -0.1351 C   0  0  0  0  0  3  0  0  0  0  0  0
    0.2236   -0.3243    0.4850 C   0  0  0  0  0  0  0  0  0  0  0  0
   -0.8893    0.6872    0.7364 C   0  0  0  0  0  0  0  0  0  0  0  0
    2.3577   -0.2958   -0.1940 H   0  0  0  0  0  0  0  0  0  0  0  0
    1.3935    1.2286   -0.6287 H   0  0  0  0  0  0  0  0  0  0  0  0
   -0.1633   -1.1318   -0.1556 H   0  0  0  0  0  0  0  0  0  0  0  0
    0.4945   -0.8215    1.4240 H   0  0  0  0  0  0  0  0  0  0  0  0
   -1.1991    1.1627   -0.1967 H   0  0  0  0  0  0  0  0  0  0  0  0
   -1.7660    0.2103    1.1768 H   0  0  0  0  0  0  0  0  0  0  0  0
   -0.5545    1.4732    1.4159 H   0  0  0  0  0  0  0  0  0  0  0  0
  1  2  1  0
  1  4  1  0
  1  5  1  0
  2  3  1  0
  2  6  1  0
  2  7  1  0
  3  8  1  0
  3  9  1  0
  3 10  1  0
M  RAD  1   1   2
M  END
>  <reaction>  (3) 
rmg_rxn_55

>  <mol_properties>  (3) 
{"0": {"label": "acceptor", "atom_type": "Cs"}, "9": {"label": "a_hydrogen", "atom_type": "H0"}}

>  <type>  (3) 
r2h

$$$$

     RDKit          3D

 24 22  0  0  0  0  0  0  0  0999 V2000
   -0.1503   -2.1112   -0.1231 C   0  0  0  0  0  2  0  0  0  0  0  0
   -0.7819   -2.1656    1.2112 C   0  0  0  0  0  0  0  0  0  0  0  0
   -1.8077   -1.0573    1.4480 C   0  0  0  0  0  0  0  0  0  0  0  0
    0.3584   -2.9321   -0.6174 H   0  0  0  0  0  0  0  0  0  0  0  0
   -1.2569   -3.1451    1.3529 H   0  0  0  0  0  0  0  0  0  0  0  0
   -0.0053   -2.1008    1.9887 H   0  0  0  0  0  0  0  0  0  0  0  0
   -2.6274   -1.1307    0.7310 H   0  0  0  0  0  0  0  0  0  0  0  0
   -1.3480   -0.0738    1.3342 H   0  0  0  0  0  0  0  0  0  0  0  0
   -2.2281   -1.1248    2.4524 H   0  0  0  0  0  0  0  0  0  0  0  0
   -1.4517    0.3020   -2.0979 C   0  0  0  0  0  0  0  0  0  0  0  0
   -0.0706    0.2052   -1.4911 C   0  0  0  0  0  0  0  0  0  0  0  0
    0.3253    1.6298   -0.5002 S   0  0  0  0  0  0  0  0  0  0  0  0
    2.0577    1.3149   -0.0850 C   0  0  0  0  0  0  0  0  0  0  0  0
    2.2770    0.2227    0.9496 C   0  0  0  0  0  0  0  0  0  0  0  0
   -1.5221    1.1296   -2.8074 H   0  0  0  0  0  0  0  0  0  0  0  0
   -1.6911   -0.6234   -2.6240 H   0  0  0  0  0  0  0  0  0  0  0  0
   -2.2065    0.4527   -1.3239 H   0  0  0  0  0  0  0  0  0  0  0  0
   -0.0692   -0.8439   -0.7935 H   0  0  0  0  0  0  0  0  0  0  0  0
    0.7084    0.0176   -2.2330 H   0  0  0  0  0  0  0  0  0  0  0  0
    2.5954    1.0954   -1.0098 H   0  0  0  0  0  0  0  0  0  0  0  0
    2.4302    2.2727    0.2818 H   0  0  0  0  0  0  0  0  0  0  0  0
    1.9147   -0.7410    0.5884 H   0  0  0  0  0  0  0  0  0  0  0  0
    1.7487    0.4551    1.8753 H   0  0  0  0  0  0  0  0  0  0  0  0
    3.3415    0.1240    1.1754 H   0  0  0  0  0  0  0  0  0  0  0  0
  1  2  1  0
  1  4  1  0
  2  3  1  0
  2  5  1  0
  2  6  1  0
  3  7  1  0
  3  8  1  0
  3  9  1  0
 10 11  1  0
 10 15  1  0
 10 16  1  0
 10 17  1  0
 11 12  1  0
 11 18  1  0
 11 19  1  0
 12 13  1  0
 13 14  1  0
 13 20  1  0
 13 21  1  0
 14 22  1  0
 14 23  1  0
 14 24  1  0
M  RAD  1   1   3
M  END
>  <reaction>  (4) 
rmg_rxn_55

>  <mol_properties>  (4) 
{"0": {"label": "*3", "atom_type": "Cs"}, "1": {"label": "*4", "atom_type": "Cs"}, "10": {"label": "*1", "atom_type": "Cs"}, "11": {"label": "*0", "atom_type": "S2s"}, "17": {"label": "*2", "atom_type": "H0"}}

>  <type>  (4) 
ts

$$$$

     RDKit          3D

 24 22  0  0  0  0  0  0  0  0999 V2000
   -1.9026   -1.3331    0.1913 C   0  0  0  0  0  3  0  0  0  0  0  0
   -1.8386   -2.5385    1.0538 C   0  0  0  0  0  0  0  0  0  0  0  0
   -2.5239   -2.3611    2.4043 C   0  0  0  0  0  0  0  0  0  0  0  0
   -2.6220   -0.5482    0.3865 H   0  0  0  0  0  0  0  0  0  0  0  0
   -2.2943   -3.3926    0.5296 H   0  0  0  0  0  0  0  0  0  0  0  0
   -0.7924   -2.8310    1.2023 H   0  0  0  0  0  0  0  0  0  0  0  0
   -3.5785   -2.1090    2.2738 H   0  0  0  0  0  0  0  0  0  0  0  0
   -2.0568   -1.5562    2.9749 H   0  0  0  0  0  0  0  0  0  0  0  0
   -2.4686   -3.2736    2.9995 H   0  0  0  0  0  0  0  0  0  0  0  0
    0.2748   -0.2247   -2.2396 C   0  0  0  0  0  0  0  0  0  0  0  0
    0.2748   -0.2247   -0.7198 C   0  0  0  0  0  3  0  0  0  0  0  0
    0.2748    1.4164    0.0451 S   0  0  0  0  0  0  0  0  0  0  0  0
    1.8154    2.1303   -0.5835 C   0  0  0  0  0  0  0  0  0  0  0  0
    3.0763    1.3714   -0.2043 C   0  0  0  0  0  0  0  0  0  0  0  0
    1.1979    0.1989   -2.6390 H   0  0  0  0  0  0  0  0  0  0  0  0
    0.1923   -1.2459   -2.6182 H   0  0  0  0  0  0  0  0  0  0  0  0
   -0.5609    0.3577   -2.6290 H   0  0  0  0  0  0  0  0  0  0  0  0
   -0.8186   -0.7814   -0.2623 H   0  0  0  0  0  0  0  0  0  0  0  0
    1.1110   -0.8074   -0.3298 H   0  0  0  0  0  0  0  0  0  0  0  0
    1.7443    2.2525   -1.6656 H   0  0  0  0  0  0  0  0  0  0  0  0
    1.8305    3.1335   -0.1543 H   0  0  0  0  0  0  0  0  0  0  0  0
    3.0976    0.3796   -0.6590 H   0  0  0  0  0  0  0  0  0  0  0  0
    3.1470    1.2494    0.8771 H   0  0  0  0  0  0  0  0  0  0  0  0
    3.9611    1.9098   -0.5512 H   0  0  0  0  0  0  0  0  0  0  0  0
  1  2  1  0
  1  4  1  0
  1 18  1  0
  2  3  1  0
  2  5  1  0
  2  6  1  0
  3  7  1  0
  3  8  1  0
  3  9  1  0
 10 11  1  0
 10 15  1  0
 10 16  1  0
 10 17  1  0
 11 12  1  0
 11 19  1  0
 12 13  1  0
 13 14  1  0
 13 20  1  0
 13 21  1  0
 14 22  1  0
 14 23  1  0
 14 24  1  0
M  RAD  2   1   2  11   2
M  END
>  <reaction>  (5) 
rmg_rxn_55

>  <mol_properties>  (5) 
{"0": {"label": "*3", "atom_type": "Cs"}, "1": {"label": "*4", "atom_type": "Cs"}, "10": {"label": "*1", "atom_type": "Cs"}, "11": {"label": "*0", "atom_type": "S2s"}, "17": {"label": "*2", "atom_type": "H0"}}

>  <type>  (5) 
unop_1

>  <geom_source>  (5) 
Heuristics

$$$$

     RDKit          3D

 24 22  0  0  0  0  0  0  0  0999 V2000
   -1.7279   -1.2274    0.6074 C   0  0  0  0  0  3  0  0  0  0  0  0
   -2.4174   -2.2931   -0.1606 C   0  0  0  0  0  0  0  0  0  0  0  0
   -3.1708   -3.2881    0.7154 C   0  0  0  0  0  0  0  0  0  0  0  0
   -2.0005   -1.0178    1.6339 H   0  0  0  0  0  0  0  0  0  0  0  0
   -3.1215   -1.8379   -0.8740 H   0  0  0  0  0  0  0  0  0  0  0  0
   -1.6918   -2.8240   -0.7882 H   0  0  0  0  0  0  0  0  0  0  0  0
   -3.9264   -2.7795    1.3180 H   0  0  0  0  0  0  0  0  0  0  0  0
   -2.4894   -3.7999    1.3975 H   0  0  0  0  0  0  0  0  0  0  0  0
   -3.6760   -4.0437    0.1121 H   0  0  0  0  0  0  0  0  0  0  0  0
    0.4495   -0.1190   -1.8234 C   0  0  0  0  0  0  0  0  0  0  0  0
    0.4495   -0.1190   -0.3037 C   0  0  0  0  0  3  0  0  0  0  0  0
    0.4495    1.5221    0.4612 S   0  0  0  0  0  0  0  0  0  0  0  0
    1.9901    2.2360   -0.1674 C   0  0  0  0  0  0  0  0  0  0  0  0
    3.2510    1.4772    0.2118 C   0  0  0  0  0  0  0  0  0  0  0  0
    1.3725    0.3046   -2.2229 H   0  0  0  0  0  0  0  0  0  0  0  0
    0.3669   -1.1402   -2.2021 H   0  0  0  0  0  0  0  0  0  0  0  0
   -0.3862    0.4635   -2.2128 H   0  0  0  0  0  0  0  0  0  0  0  0
   -0.6440   -0.6756    0.1539 H   0  0  0  0  0  0  0  0  0  0  0  0
    1.2857   -0.7016    0.0863 H   0  0  0  0  0  0  0  0  0  0  0  0
    1.9189    2.3583   -1.2495 H   0  0  0  0  0  0  0  0  0  0  0  0
    2.0052    3.2392    0.2619 H   0  0  0  0  0  0  0  0  0  0  0  0
    3.2722    0.4853   -0.2429 H   0  0  0  0  0  0  0  0  0  0  0  0
    3.3217    1.3551    1.2932 H   0  0  0  0  0  0  0  0  0  0  0  0
    4.1357    2.0156   -0.1351 H   0  0  0  0  0  0  0  0  0  0  0  0
  1  2  1  0
  1  4  1  0
  1 18  1  0
  2  3  1  0
  2  5  1  0
  2  6  1  0
  3  7  1  0
  3  8  1  0
  3  9  1  0
 10 11  1  0
 10 15  1  0
 10 16  1  0
 10 17  1  0
 11 12  1  0
 11 19  1  0
 12 13  1  0
 13 14  1  0
 13 20  1  0
 13 21  1  0
 14 22  1  0
 14 23  1  0
 14 24  1  0
M  RAD  2   1   2  11   2
M  END
>  <reaction>  (6) 
rmg_rxn_55

>  <mol_properties>  (6) 
{"0": {"label": "*3", "atom_type": "Cs"}, "1": {"label": "*4", "atom_type": "Cs"}, "10": {"label": "*1", "atom_type": "Cs"}, "11": {"label": "*0", "atom_type": "S2s"}, "17": {"label": "*2", "atom_type": "H0"}}

>  <type>  (6) 
unop_2

>  <geom_source>  (6) 
Heuristics

$$$$

     RDKit          3D

 24 22  0  0  0  0  0  0  0  0999 V2000
   -1.8335   -1.4669    0.1460 C   0  0  0  0  0  3  0  0  0  0  0  0
   -1.8359   -2.1829    1.4453 C   0  0  0  0  0  0  0  0  0  0  0  0
   -2.9865   -1.7821    2.3621 C   0  0  0  0  0  0  0  0  0  0  0  0
   -2.7224   -0.9637   -0.2124 H   0  0  0  0  0  0  0  0  0  0  0  0
   -1.8790   -3.2687    1.2689 H   0  0  0  0  0  0  0  0  0  0  0  0
   -0.8792   -2.0231    1.9565 H   0  0  0  0  0  0  0  0  0  0  0  0
   -3.9490   -1.9734    1.8826 H   0  0  0  0  0  0  0  0  0  0  0  0
   -2.9397   -0.7186    2.6032 H   0  0  0  0  0  0  0  0  0  0  0  0
   -2.9611   -2.3424    3.2978 H   0  0  0  0  0  0  0  0  0  0  0  0
    0.3439   -0.3585   -2.2849 C   0  0  0  0  0  0  0  0  0  0  0  0
    0.3439   -0.3585   -0.7651 C   0  0  0  0  0  3  0  0  0  0  0  0
    0.3439    1.2826   -0.0003 S   0  0  0  0  0  0  0  0  0  0  0  0
    1.8845    1.9965   -0.6288 C   0  0  0  0  0  0  0  0  0  0  0  0
    3.1454    1.2376   -0.2496 C   0  0  0  0  0  0  0  0  0  0  0  0
    1.2669    0.0651   -2.6843 H   0  0  0  0  0  0  0  0  0  0  0  0
    0.2613   -1.3797   -2.6635 H   0  0  0  0  0  0  0  0  0  0  0  0
   -0.4918    0.2239   -2.6743 H   0  0  0  0  0  0  0  0  0  0  0  0
   -0.7496   -0.9151   -0.3076 H   0  0  0  0  0  0  0  0  0  0  0  0
    1.1801   -0.9412   -0.3751 H   0  0  0  0  0  0  0  0  0  0  0  0
    1.8133    2.1187   -1.7109 H   0  0  0  0  0  0  0  0  0  0  0  0
    1.8996    2.9997   -0.1996 H   0  0  0  0  0  0  0  0  0  0  0  0
    3.1666    0.2458   -0.7043 H   0  0  0  0  0  0  0  0  0  0  0  0
    3.2161    1.1156    0.8318 H   0  0  0  0  0  0  0  0  0  0  0  0
    4.0301    1.7760   -0.5966 H   0  0  0  0  0  0  0  0  0  0  0  0
  1  2  1  0
  1  4  1  0
  1 18  1  0
  2  3  1  0
  2  5  1  0
  2  6  1  0
  3  7  1  0
  3  8  1  0
  3  9  1  0
 10 11  1  0
 10 15  1  0
 10 16  1  0
 10 17  1  0
 11 12  1  0
 11 19  1  0
 12 13  1  0
 13 14  1  0
 13 20  1  0
 13 21  1  0
 14 22  1  0
 14 23  1  0
 14 24  1  0
M  RAD  2   1   2  11   2
M  END
>  <reaction>  (7) 
rmg_rxn_55

>  <mol_properties>  (7) 
{"0": {"label": "*3", "atom_type": "Cs"}, "1": {"label": "*4", "atom_type": "Cs"}, "10": {"label": "*1", "atom_type": "Cs"}, "11": {"label": "*0", "atom_type": "S2s"}, "17": {"label": "*2", "atom_type": "H0"}}

>  <type>  (7) 
unop_3

>  <geom_source>  (7) 
Heuristics

$$$$

     RDKit          3D

 24 22  0  0  0  0  0  0  0  0999 V2000
   -1.5469   -1.6550    0.4983 C   0  0  0  0  0  3  0  0  0  0  0  0
   -2.8806   -1.0960    0.1672 C   0  0  0  0  0  0  0  0  0  0  0  0
   -3.9789   -1.5196    1.1364 C   0  0  0  0  0  0  0  0  0  0  0  0
   -1.3398   -2.0505    1.4845 H   0  0  0  0  0  0  0  0  0  0  0  0
   -2.8255    0.0032    0.1453 H   0  0  0  0  0  0  0  0  0  0  0  0
   -3.1562   -1.3799   -0.8554 H   0  0  0  0  0  0  0  0  0  0  0  0
   -3.7383   -1.2078    2.1551 H   0  0  0  0  0  0  0  0  0  0  0  0
   -4.0982   -2.6046    1.1393 H   0  0  0  0  0  0  0  0  0  0  0  0
   -4.9379   -1.0746    0.8673 H   0  0  0  0  0  0  0  0  0  0  0  0
    0.6305   -0.5466   -1.9326 C   0  0  0  0  0  0  0  0  0  0  0  0
    0.6305   -0.5466   -0.4128 C   0  0  0  0  0  3  0  0  0  0  0  0
    0.6305    1.0945    0.3520 S   0  0  0  0  0  0  0  0  0  0  0  0
    2.1711    1.8084   -0.2765 C   0  0  0  0  0  0  0  0  0  0  0  0
    3.4320    1.0496    0.1027 C   0  0  0  0  0  0  0  0  0  0  0  0
    1.5535   -0.1230   -2.3320 H   0  0  0  0  0  0  0  0  0  0  0  0
    0.5479   -1.5678   -2.3112 H   0  0  0  0  0  0  0  0  0  0  0  0
   -0.2052    0.0359   -2.3220 H   0  0  0  0  0  0  0  0  0  0  0  0
   -0.4630   -1.1032    0.0447 H   0  0  0  0  0  0  0  0  0  0  0  0
    1.4667   -1.1292   -0.0228 H   0  0  0  0  0  0  0  0  0  0  0  0
    2.0999    1.9306   -1.3586 H   0  0  0  0  0  0  0  0  0  0  0  0
    2.1862    2.8116    0.1527 H   0  0  0  0  0  0  0  0  0  0  0  0
    3.4532    0.0577   -0.3520 H   0  0  0  0  0  0  0  0  0  0  0  0
    3.5027    0.9275    1.1841 H   0  0  0  0  0  0  0  0  0  0  0  0
    4.3167    1.5880   -0.2443 H   0  0  0  0  0  0  0  0  0  0  0  0
  1  2  1  0
  1  4  1  0
  1 18  1  0
  2  3  1  0
  2  5  1  0
  2  6  1  0
  3  7  1  0
  3  8  1  0
  3  9  1  0
 10 11  1  0
 10 15  1  0
 10 16  1  0
 10 17  1  0
 11 12  1  0
 11 19  1  0
 12 13  1  0
 13 14  1  0
 13 20  1  0
 13 21  1  0
 14 22  1  0
 14 23  1  0
 14 24  1  0
M  RAD  2   1   2  11   2
M  END
>  <reaction>  (8) 
rmg_rxn_55

>  <mol_properties>  (8) 
{"0": {"label": "*3", "atom_type": "Cs"}, "1": {"label": "*4", "atom_type": "Cs"}, "10": {"label": "*1", "atom_type": "Cs"}, "11": {"label": "*0", "atom_type": "S2s"}, "17": {"label": "*2", "atom_type": "H0"}}

>  <type>  (8) 
unop_4

>  <geom_source>  (8) 
Heuristics

$$$$

     RDKit          3D

 24 22  0  0  0  0  0  0  0  0999 V2000
   -1.7507   -1.5021    0.1762 C   0  0  0  0  0  3  0  0  0  0  0  0
   -1.9890   -1.6234    1.6355 C   0  0  0  0  0  0  0  0  0  0  0  0
   -3.4143   -2.0329    1.9904 C   0  0  0  0  0  0  0  0  0  0  0  0
   -2.4256   -1.9588   -0.5364 H   0  0  0  0  0  0  0  0  0  0  0  0
   -1.2878   -2.3554    2.0649 H   0  0  0  0  0  0  0  0  0  0  0  0
   -1.7390   -0.6773    2.1301 H   0  0  0  0  0  0  0  0  0  0  0  0
   -3.6653   -2.9946    1.5379 H   0  0  0  0  0  0  0  0  0  0  0  0
   -4.1328   -1.2958    1.6271 H   0  0  0  0  0  0  0  0  0  0  0  0
   -3.5424   -2.1266    3.0697 H   0  0  0  0  0  0  0  0  0  0  0  0
    0.4266   -0.3937   -2.2546 C   0  0  0  0  0  0  0  0  0  0  0  0
    0.4266   -0.3937   -0.7349 C   0  0  0  0  0  3  0  0  0  0  0  0
    0.4266    1.2474    0.0300 S   0  0  0  0  0  0  0  0  0  0  0  0
    1.9672    1.9614   -0.5986 C   0  0  0  0  0  0  0  0  0  0  0  0
    3.2281    1.2025   -0.2194 C   0  0  0  0  0  0  0  0  0  0  0  0
    1.3497    0.0299   -2.6540 H   0  0  0  0  0  0  0  0  0  0  0  0
    0.3441   -1.4148   -2.6333 H   0  0  0  0  0  0  0  0  0  0  0  0
   -0.4091    0.1888   -2.6440 H   0  0  0  0  0  0  0  0  0  0  0  0
   -0.6668   -0.9503   -0.2773 H   0  0  0  0  0  0  0  0  0  0  0  0
    1.2628   -0.9763   -0.3448 H   0  0  0  0  0  0  0  0  0  0  0  0
    1.8961    2.0836   -1.6806 H   0  0  0  0  0  0  0  0  0  0  0  0
    1.9823    2.9645   -0.1693 H   0  0  0  0  0  0  0  0  0  0  0  0
    3.2494    0.2107   -0.6741 H   0  0  0  0  0  0  0  0  0  0  0  0
    3.2988    1.0805    0.8620 H   0  0  0  0  0  0  0  0  0  0  0  0
    4.1129    1.7409   -0.5663 H   0  0  0  0  0  0  0  0  0  0  0  0
  1  2  1  0
  1  4  1  0
  1 18  1  0
  2  3  1  0
  2  5  1  0
  2  6  1  0
  3  7  1  0
  3  8  1  0
  3  9  1  0
 10 11  1  0
 10 15  1  0
 10 16  1  0
 10 17  1  0
 11 12  1  0
 11 19  1  0
 12 13  1  0
 13 14  1  0
 13 20  1  0
 13 21  1  0
 14 22  1  0
 14 23  1  0
 14 24  1  0
M  RAD  2   1   2  11   2
M  END
>  <reaction>  (9) 
rmg_rxn_55

>  <mol_properties>  (9) 
{"0": {"label": "*3", "atom_type": "Cs"}, "1": {"label": "*4", "atom_type": "Cs"}, "10": {"label": "*1", "atom_type": "Cs"}, "11": {"label": "*0", "atom_type": "S2s"}, "17": {"label": "*2", "atom_type": "H0"}}

>  <type>  (9) 
unop_5

>  <geom_source>  (9) 
Heuristics

$$$$

     RDKit          3D

 24 22  0  0  0  0  0  0  0  0999 V2000
   -1.6020   -1.6960    0.3469 C   0  0  0  0  0  3  0  0  0  0  0  0
   -2.8148   -0.8840    0.6125 C   0  0  0  0  0  0  0  0  0  0  0  0
   -3.6799   -1.4291    1.7436 C   0  0  0  0  0  0  0  0  0  0  0  0
   -1.2331   -2.4000    1.0819 H   0  0  0  0  0  0  0  0  0  0  0  0
   -2.5222    0.1502    0.8509 H   0  0  0  0  0  0  0  0  0  0  0  0
   -3.4102   -0.7991   -0.3043 H   0  0  0  0  0  0  0  0  0  0  0  0
   -3.1122   -1.4818    2.6751 H   0  0  0  0  0  0  0  0  0  0  0  0
   -4.0346   -2.4352    1.5121 H   0  0  0  0  0  0  0  0  0  0  0  0
   -4.5506   -0.7952    1.9172 H   0  0  0  0  0  0  0  0  0  0  0  0
    0.5754   -0.5876   -2.0840 C   0  0  0  0  0  0  0  0  0  0  0  0
    0.5754   -0.5876   -0.5642 C   0  0  0  0  0  3  0  0  0  0  0  0
    0.5754    1.0535    0.2006 S   0  0  0  0  0  0  0  0  0  0  0  0
    2.1160    1.7674   -0.4279 C   0  0  0  0  0  0  0  0  0  0  0  0
    3.3769    1.0085   -0.0487 C   0  0  0  0  0  0  0  0  0  0  0  0
    1.4984   -0.1640   -2.4834 H   0  0  0  0  0  0  0  0  0  0  0  0
    0.4929   -1.6088   -2.4626 H   0  0  0  0  0  0  0  0  0  0  0  0
   -0.2603   -0.0052   -2.4734 H   0  0  0  0  0  0  0  0  0  0  0  0
   -0.5180   -1.1442   -0.1067 H   0  0  0  0  0  0  0  0  0  0  0  0
    1.4116   -1.1703   -0.1742 H   0  0  0  0  0  0  0  0  0  0  0  0
    2.0449    1.8896   -1.5100 H   0  0  0  0  0  0  0  0  0  0  0  0
    2.1311    2.7706    0.0013 H   0  0  0  0  0  0  0  0  0  0  0  0
    3.3981    0.0167   -0.5034 H   0  0  0  0  0  0  0  0  0  0  0  0
    3.4476    0.8865    1.0327 H   0  0  0  0  0  0  0  0  0  0  0  0
    4.2617    1.5469   -0.3957 H   0  0  0  0  0  0  0  0  0  0  0  0
  1  2  1  0
  1  4  1  0
  1 18  1  0
  2  3  1  0
  2  5  1  0
  2  6  1  0
  3  7  1  0
  3  8  1  0
  3  9  1  0
 10 11  1  0
 10 15  1  0
 10 16  1  0
 10 17  1  0
 11 12  1  0
 11 19  1  0
 12 13  1  0
 13 14  1  0
 13 20  1  0
 13 21  1  0
 14 22  1  0
 14 23  1  0
 14 24  1  0
M  RAD  2   1   2  11   2
M  END
>  <reaction>  (10) 
rmg_rxn_55

>  <mol_properties>  (10) 
{"0": {"label": "*3", "atom_type": "Cs"}, "1": {"label": "*4", "atom_type": "Cs"}, "10": {"label": "*1", "atom_type": "Cs"}, "11": {"label": "*0", "atom_type": "S2s"}, "17": {"label": "*2", "atom_type": "H0"}}

>  <type>  (10) 
unop_6

>  <geom_source>  (10) 
Heuristics

$$$$

     RDKit          3D

 24 22  0  0  0  0  0  0  0  0999 V2000
   -1.6837   -1.6470    0.2241 C   0  0  0  0  0  3  0  0  0  0  0  0
   -2.6207   -0.8861    1.0866 C   0  0  0  0  0  0  0  0  0  0  0  0
   -3.3155   -1.7429    2.1394 C   0  0  0  0  0  0  0  0  0  0  0  0
   -1.3165   -2.6196    0.5260 H   0  0  0  0  0  0  0  0  0  0  0  0
   -2.0802   -0.0689    1.5885 H   0  0  0  0  0  0  0  0  0  0  0  0
   -3.3689   -0.3817    0.4636 H   0  0  0  0  0  0  0  0  0  0  0  0
   -2.5841   -2.2207    2.7947 H   0  0  0  0  0  0  0  0  0  0  0  0
   -3.9082   -2.5307    1.6707 H   0  0  0  0  0  0  0  0  0  0  0  0
   -3.9816   -1.1433    2.7614 H   0  0  0  0  0  0  0  0  0  0  0  0
    0.4937   -0.5386   -2.2067 C   0  0  0  0  0  0  0  0  0  0  0  0
    0.4937   -0.5386   -0.6870 C   0  0  0  0  0  3  0  0  0  0  0  0
    0.4937    1.1025    0.0779 S   0  0  0  0  0  0  0  0  0  0  0  0
    2.0343    1.8164   -0.5507 C   0  0  0  0  0  0  0  0  0  0  0  0
    3.2952    1.0576   -0.1715 C   0  0  0  0  0  0  0  0  0  0  0  0
    1.4167   -0.1150   -2.6061 H   0  0  0  0  0  0  0  0  0  0  0  0
    0.4112   -1.5598   -2.5854 H   0  0  0  0  0  0  0  0  0  0  0  0
   -0.3420    0.0439   -2.5961 H   0  0  0  0  0  0  0  0  0  0  0  0
   -0.5997   -1.0952   -0.2294 H   0  0  0  0  0  0  0  0  0  0  0  0
    1.3299   -1.1212   -0.2969 H   0  0  0  0  0  0  0  0  0  0  0  0
    1.9632    1.9386   -1.6327 H   0  0  0  0  0  0  0  0  0  0  0  0
    2.0494    2.8196   -0.1214 H   0  0  0  0  0  0  0  0  0  0  0  0
    3.3164    0.0657   -0.6262 H   0  0  0  0  0  0  0  0  0  0  0  0
    3.3659    0.9355    0.9099 H   0  0  0  0  0  0  0  0  0  0  0  0
    4.1800    1.5960   -0.5184 H   0  0  0  0  0  0  0  0  0  0  0  0
  1  2  1  0
  1  4  1  0
  1 18  1  0
  2  3  1  0
  2  5  1  0
  2  6  1  0
  3  7  1  0
  3  8  1  0
  3  9  1  0
 10 11  1  0
 10 15  1  0
 10 16  1  0
 10 17  1  0
 11 12  1  0
 11 19  1  0
 12 13  1  0
 13 14  1  0
 13 20  1  0
 13 21  1  0
 14 22  1  0
 14 23  1  0
 14 24  1  0
M  RAD  2   1   2  11   2
M  END
>  <reaction>  (11) 
rmg_rxn_55

>  <mol_properties>  (11) 
{"0": {"label": "*3", "atom_type": "Cs"}, "1": {"label": "*4", "atom_type": "Cs"}, "10": {"label": "*1", "atom_type": "Cs"}, "11": {"label": "*0", "atom_type": "S2s"}, "17": {"label": "*2", "atom_type": "H0"}}

>  <type>  (11) 
unop_7

>  <geom_source>  (11) 
Heuristics

$$$$

     RDKit          3D

 24 22  0  0  0  0  0  0  0  0999 V2000
   -1.9020   -1.2158    0.3160 C   0  0  0  0  0  3  0  0  0  0  0  0
   -1.9590   -2.6743    0.5817 C   0  0  0  0  0  0  0  0  0  0  0  0
   -2.4211   -3.0211    1.9928 C   0  0  0  0  0  0  0  0  0  0  0  0
   -2.4288   -0.5147    0.9508 H   0  0  0  0  0  0  0  0  0  0  0  0
   -2.6312   -3.1562   -0.1448 H   0  0  0  0  0  0  0  0  0  0  0  0
   -0.9770   -3.1229    0.3903 H   0  0  0  0  0  0  0  0  0  0  0  0
   -3.4166   -2.6154    2.1854 H   0  0  0  0  0  0  0  0  0  0  0  0
   -1.7413   -2.6045    2.7383 H   0  0  0  0  0  0  0  0  0  0  0  0
   -2.4648   -4.1010    2.1410 H   0  0  0  0  0  0  0  0  0  0  0  0
    0.2754   -0.1074   -2.1149 C   0  0  0  0  0  0  0  0  0  0  0  0
    0.2754   -0.1074   -0.5951 C   0  0  0  0  0  3  0  0  0  0  0  0
    0.2754    1.5337    0.1698 S   0  0  0  0  0  0  0  0  0  0  0  0
    1.8160    2.2476   -0.4588 C   0  0  0  0  0  0  0  0  0  0  0  0
    3.0769    1.4888   -0.0796 C   0  0  0  0  0  0  0  0  0  0  0  0
    1.1984    0.3162   -2.5143 H   0  0  0  0  0  0  0  0  0  0  0  0
    0.1928   -1.1286   -2.4935 H   0  0  0  0  0  0  0  0  0  0  0  0
   -0.5603    0.4751   -2.5043 H   0  0  0  0  0  0  0  0  0  0  0  0
   -0.8181   -0.6640   -0.1376 H   0  0  0  0  0  0  0  0  0  0  0  0
    1.1116   -0.6900   -0.2051 H   0  0  0  0  0  0  0  0  0  0  0  0
    1.7448    2.3698   -1.5409 H   0  0  0  0  0  0  0  0  0  0  0  0
    1.8310    3.2508   -0.0296 H   0  0  0  0  0  0  0  0  0  0  0  0
    3.0981    0.4969   -0.5343 H   0  0  0  0  0  0  0  0  0  0  0  0
    3.1476    1.3667    1.0018 H   0  0  0  0  0  0  0  0  0  0  0  0
    3.9616    2.0272   -0.4265 H   0  0  0  0  0  0  0  0  0  0  0  0
  1  2  1  0
  1  4  1  0
  1 18  1  0
  2  3  1  0
  2  5  1  0
  2  6  1  0
  3  7  1  0
  3  8  1  0
  3  9  1  0
 10 11  1  0
 10 15  1  0
 10 16  1  0
 10 17  1  0
 11 12  1  0
 11 19  1  0
 12 13  1  0
 13 14  1  0
 13 20  1  0
 13 21  1  0
 14 22  1  0
 14 23  1  0
 14 24  1  0
M  RAD  2   1   2  11   2
M  END
>  <reaction>  (12) 
rmg_rxn_55

>  <mol_properties>  (12) 
{"0": {"label": "*3", "atom_type": "Cs"}, "1": {"label": "*4", "atom_type": "Cs"}, "10": {"label": "*1", "atom_type": "Cs"}, "11": {"label": "*0", "atom_type": "S2s"}, "17": {"label": "*2", "atom_type": "H0"}}

>  <type>  (12) 
unop_8

>  <geom_source>  (12) 
Heuristics

$$$$

     RDKit          3D

 24 22  0  0  0  0  0  0  0  0999 V2000
   -1.5486   -1.5296    0.6215 C   0  0  0  0  0  3  0  0  0  0  0  0
   -2.8160   -1.4601   -0.1465 C   0  0  0  0  0  0  0  0  0  0  0  0
   -4.0162   -2.0303    0.6014 C   0  0  0  0  0  0  0  0  0  0  0  0
   -1.5566   -1.6777    1.6939 H   0  0  0  0  0  0  0  0  0  0  0  0
   -3.0264   -0.4143   -0.4185 H   0  0  0  0  0  0  0  0  0  0  0  0
   -2.6949   -1.9768   -1.1059 H   0  0  0  0  0  0  0  0  0  0  0  0
   -4.1753   -1.4985    1.5420 H   0  0  0  0  0  0  0  0  0  0  0  0
   -3.8629   -3.0851    0.8366 H   0  0  0  0  0  0  0  0  0  0  0  0
   -4.9287   -1.9449    0.0097 H   0  0  0  0  0  0  0  0  0  0  0  0
    0.6288   -0.4212   -1.8093 C   0  0  0  0  0  0  0  0  0  0  0  0
    0.6288   -0.4212   -0.2896 C   0  0  0  0  0  3  0  0  0  0  0  0
    0.6288    1.2199    0.4753 S   0  0  0  0  0  0  0  0  0  0  0  0
    2.1693    1.9338   -0.1533 C   0  0  0  0  0  0  0  0  0  0  0  0
    3.4303    1.1750    0.2259 C   0  0  0  0  0  0  0  0  0  0  0  0
    1.5518    0.0024   -2.2087 H   0  0  0  0  0  0  0  0  0  0  0  0
    0.5462   -1.4424   -2.1880 H   0  0  0  0  0  0  0  0  0  0  0  0
   -0.2070    0.1613   -2.1987 H   0  0  0  0  0  0  0  0  0  0  0  0
   -0.4647   -0.9778    0.1680 H   0  0  0  0  0  0  0  0  0  0  0  0
    1.4649   -1.0038    0.1005 H   0  0  0  0  0  0  0  0  0  0  0  0
    2.0982    2.0560   -1.2353 H   0  0  0  0  0  0  0  0  0  0  0  0
    2.1844    2.9370    0.2760 H   0  0  0  0  0  0  0  0  0  0  0  0
    3.4515    0.1831   -0.2287 H   0  0  0  0  0  0  0  0  0  0  0  0
    3.5009    1.0529    1.3073 H   0  0  0  0  0  0  0  0  0  0  0  0
    4.3150    1.7134   -0.1210 H   0  0  0  0  0  0  0  0  0  0  0  0
  1  2  1  0
  1  4  1  0
  1 18  1  0
  2  3  1  0
  2  5  1  0
  2  6  1  0
  3  7  1  0
  3  8  1  0
  3  9  1  0
 10 11  1  0
 10 15  1  0
 10 16  1  0
 10 17  1  0
 11 12  1  0
 11 19  1  0
 12 13  1  0
 13 14  1  0
 13 20  1  0
 13 21  1  0
 14 22  1  0
 14 23  1  0
 14 24  1  0
M  RAD  2   1   2  11   2
M  END
>  <reaction>  (13) 
rmg_rxn_55

>  <mol_properties>  (13) 
{"0": {"label": "*3", "atom_type": "Cs"}, "1": {"label": "*4", "atom_type": "Cs"}, "10": {"label": "*1", "atom_type": "Cs"}, "11": {"label": "*0", "atom_type": "S2s"}, "17": {"label": "*2", "atom_type": "H0"}}

>  <type>  (13) 
unop_9

>  <geom_source>  (13) 
Heuristics

$$$$

     RDKit          3D

 24 22  0  0  0  0  0  0  0  0999 V2000
   -1.8365   -1.1733    0.4736 C   0  0  0  0  0  3  0  0  0  0  0  0
   -2.1693   -2.5807    0.1425 C   0  0  0  0  0  0  0  0  0  0  0  0
   -2.6692   -3.3877    1.3356 C   0  0  0  0  0  0  0  0  0  0  0  0
   -2.2094   -0.7130    1.3796 H   0  0  0  0  0  0  0  0  0  0  0  0
   -2.9320   -2.6032   -0.6510 H   0  0  0  0  0  0  0  0  0  0  0  0
   -1.2948   -3.0724   -0.2999 H   0  0  0  0  0  0  0  0  0  0  0  0
   -3.5652   -2.9327    1.7634 H   0  0  0  0  0  0  0  0  0  0  0  0
   -1.9114   -3.4330    2.1199 H   0  0  0  0  0  0  0  0  0  0  0  0
   -2.9178   -4.4098    1.0464 H   0  0  0  0  0  0  0  0  0  0  0  0
    0.3408   -0.0649   -1.9573 C   0  0  0  0  0  0  0  0  0  0  0  0
    0.3408   -0.0649   -0.4375 C   0  0  0  0  0  3  0  0  0  0  0  0
    0.3408    1.5762    0.3274 S   0  0  0  0  0  0  0  0  0  0  0  0
    1.8814    2.2901   -0.3012 C   0  0  0  0  0  0  0  0  0  0  0  0
    3.1424    1.5312    0.0780 C   0  0  0  0  0  0  0  0  0  0  0  0
    1.2639    0.3586   -2.3567 H   0  0  0  0  0  0  0  0  0  0  0  0
    0.2583   -1.0861   -2.3359 H   0  0  0  0  0  0  0  0  0  0  0  0
   -0.4949    0.5175   -2.3467 H   0  0  0  0  0  0  0  0  0  0  0  0
   -0.7526   -0.6216    0.0200 H   0  0  0  0  0  0  0  0  0  0  0  0
    1.1770   -0.6476   -0.0475 H   0  0  0  0  0  0  0  0  0  0  0  0
    1.8103    2.4123   -1.3833 H   0  0  0  0  0  0  0  0  0  0  0  0
    1.8965    3.2932    0.1280 H   0  0  0  0  0  0  0  0  0  0  0  0
    3.1636    0.5394   -0.3767 H   0  0  0  0  0  0  0  0  0  0  0  0
    3.2130    1.4092    1.1594 H   0  0  0  0  0  0  0  0  0  0  0  0
    4.0271    2.0696   -0.2690 H   0  0  0  0  0  0  0  0  0  0  0  0
  1  2  1  0
  1  4  1  0
  1 18  1  0
  2  3  1  0
  2  5  1  0
  2  6  1  0
  3  7  1  0
  3  8  1  0
  3  9  1  0
 10 11  1  0
 10 15  1  0
 10 16  1  0
 10 17  1  0
 11 12  1  0
 11 19  1  0
 12 13  1  0
 13 14  1  0
 13 20  1  0
 13 21  1  0
 14 22  1  0
 14 23  1  0
 14 24  1  0
M  RAD  2   1   2  11   2
M  END
>  <reaction>  (14) 
rmg_rxn_55

>  <mol_properties>  (14) 
{"0": {"label": "*3", "atom_type": "Cs"}, "1": {"label": "*4", "atom_type": "Cs"}, "10": {"label": "*1", "atom_type": "Cs"}, "11": {"label": "*0", "atom_type": "S2s"}, "17": {"label": "*2", "atom_type": "H0"}}

>  <type>  (14) 
unop_10

>  <geom_source>  (14) 
Heuristics

$$$$

     RDKit          3D

 24 22  0  0  0  0  0  0  0  0999 V2000
   -1.7444   -1.5441    0.1736 C   0  0  0  0  0  3  0  0  0  0  0  0
   -2.3248   -1.1249    1.4729 C   0  0  0  0  0  0  0  0  0  0  0  0
   -3.1742   -2.2017    2.1391 C   0  0  0  0  0  0  0  0  0  0  0  0
   -1.6828   -2.5910   -0.0951 H   0  0  0  0  0  0  0  0  0  0  0  0
   -1.5172   -0.8286    2.1600 H   0  0  0  0  0  0  0  0  0  0  0  0
   -2.9191   -0.2138    1.3349 H   0  0  0  0  0  0  0  0  0  0  0  0
   -2.5849   -3.1031    2.3209 H   0  0  0  0  0  0  0  0  0  0  0  0
   -4.0193   -2.4779    1.5058 H   0  0  0  0  0  0  0  0  0  0  0  0
   -3.5675   -1.8595    3.0974 H   0  0  0  0  0  0  0  0  0  0  0  0
    0.4329   -0.4357   -2.2572 C   0  0  0  0  0  0  0  0  0  0  0  0
    0.4329   -0.4357   -0.7375 C   0  0  0  0  0  3  0  0  0  0  0  0
    0.4329    1.2054    0.0274 S   0  0  0  0  0  0  0  0  0  0  0  0
    1.9735    1.9193   -0.6012 C   0  0  0  0  0  0  0  0  0  0  0  0
    3.2344    1.1604   -0.2220 C   0  0  0  0  0  0  0  0  0  0  0  0
    1.3560   -0.0122   -2.6567 H   0  0  0  0  0  0  0  0  0  0  0  0
    0.3504   -1.4569   -2.6359 H   0  0  0  0  0  0  0  0  0  0  0  0
   -0.4028    0.1467   -2.6467 H   0  0  0  0  0  0  0  0  0  0  0  0
   -0.6605   -0.9924   -0.2800 H   0  0  0  0  0  0  0  0  0  0  0  0
    1.2691   -1.0184   -0.3475 H   0  0  0  0  0  0  0  0  0  0  0  0
    1.9024    2.0415   -1.6833 H   0  0  0  0  0  0  0  0  0  0  0  0
    1.9886    2.9225   -0.1719 H   0  0  0  0  0  0  0  0  0  0  0  0
    3.2557    0.1686   -0.6767 H   0  0  0  0  0  0  0  0  0  0  0  0
    3.3051    1.0384    0.8594 H   0  0  0  0  0  0  0  0  0  0  0  0
    4.1192    1.6988   -0.5689 H   0  0  0  0  0  0  0  0  0  0  0  0
  1  2  1  0
  1  4  1  0
  1 18  1  0
  2  3  1  0
  2  5  1  0
  2  6  1  0
  3  7  1  0
  3  8  1  0
  3  9  1  0
 10 11  1  0
 10 15  1  0
 10 16  1  0
 10 17  1  0
 11 12  1  0
 11 19  1  0
 12 13  1  0
 13 14  1  0
 13 20  1  0
 13 21  1  0
 14 22  1  0
 14 23  1  0
 14 24  1  0
M  RAD  2   1   2  11   2
M  END
>  <reaction>  (15) 
rmg_rxn_55

>  <mol_properties>  (15) 
{"0": {"label": "*3", "atom_type": "Cs"}, "1": {"label": "*4", "atom_type": "Cs"}, "10": {"label": "*1", "atom_type": "Cs"}, "11": {"label": "*0", "atom_type": "S2s"}, "17": {"label": "*2", "atom_type": "H0"}}

>  <type>  (15) 
unop_11

>  <geom_source>  (15) 
Heuristics

$$$$

     RDKit          3D

 24 22  0  0  0  0  0  0  0  0999 V2000
   -1.6165   -1.3640    0.6649 C   0  0  0  0  0  3  0  0  0  0  0  0
   -2.6481   -1.8892   -0.2630 C   0  0  0  0  0  0  0  0  0  0  0  0
   -3.7081   -2.7448    0.4221 C   0  0  0  0  0  0  0  0  0  0  0  0
   -1.7911   -1.3398    1.7330 H   0  0  0  0  0  0  0  0  0  0  0  0
   -3.1417   -1.0515   -0.7793 H   0  0  0  0  0  0  0  0  0  0  0  0
   -2.1665   -2.4628   -1.0638 H   0  0  0  0  0  0  0  0  0  0  0  0
   -4.2258   -2.1744    1.1962 H   0  0  0  0  0  0  0  0  0  0  0  0
   -3.2564   -3.6177    0.8970 H   0  0  0  0  0  0  0  0  0  0  0  0
   -4.4549   -3.0965   -0.2911 H   0  0  0  0  0  0  0  0  0  0  0  0
    0.5608   -0.2556   -1.7660 C   0  0  0  0  0  0  0  0  0  0  0  0
    0.5608   -0.2556   -0.2462 C   0  0  0  0  0  3  0  0  0  0  0  0
    0.5608    1.3855    0.5187 S   0  0  0  0  0  0  0  0  0  0  0  0
    2.1014    2.0994   -0.1099 C   0  0  0  0  0  0  0  0  0  0  0  0
    3.3624    1.3405    0.2693 C   0  0  0  0  0  0  0  0  0  0  0  0
    1.4839    0.1679   -2.1654 H   0  0  0  0  0  0  0  0  0  0  0  0
    0.4783   -1.2768   -2.1446 H   0  0  0  0  0  0  0  0  0  0  0  0
   -0.2749    0.3268   -2.1554 H   0  0  0  0  0  0  0  0  0  0  0  0
   -0.5326   -0.8123    0.2113 H   0  0  0  0  0  0  0  0  0  0  0  0
    1.3970   -0.8383    0.1438 H   0  0  0  0  0  0  0  0  0  0  0  0
    2.0303    2.2216   -1.1920 H   0  0  0  0  0  0  0  0  0  0  0  0
    2.1165    3.1025    0.3193 H   0  0  0  0  0  0  0  0  0  0  0  0
    3.3836    0.3487   -0.1854 H   0  0  0  0  0  0  0  0  0  0  0  0
    3.4330    1.2185    1.3507 H   0  0  0  0  0  0  0  0  0  0  0  0
    4.2471    1.8789   -0.0777 H   0  0  0  0  0  0  0  0  0  0  0  0
  1  2  1  0
  1  4  1  0
  1 18  1  0
  2  3  1  0
  2  5  1  0
  2  6  1  0
  3  7  1  0
  3  8  1  0
  3  9  1  0
 10 11  1  0
 10 15  1  0
 10 16  1  0
 10 17  1  0
 11 12  1  0
 11 19  1  0
 12 13  1  0
 13 14  1  0
 13 20  1  0
 13 21  1  0
 14 22  1  0
 14 23  1  0
 14 24  1  0
M  RAD  2   1   2  11   2
M  END
>  <reaction>  (16) 
rmg_rxn_55

>  <mol_properties>  (16) 
{"0": {"label": "*3", "atom_type": "Cs"}, "1": {"label": "*4", "atom_type": "Cs"}, "10": {"label": "*1", "atom_type": "Cs"}, "11": {"label": "*0", "atom_type": "S2s"}, "17": {"label": "*2", "atom_type": "H0"}}

>  <type>  (16) 
unop_12

>  <geom_source>  (16) 
Heuristics

$$$$

     RDKit          3D

 24 22  0  0  0  0  0  0  0  0999 V2000
   -2.0197    1.1307    0.2913 S   0  0  0  0  0  0  0  0  0  0  0  0
    2.8761   -0.4209   -0.1080 C   0  0  0  0  0  0  0  0  0  0  0  0
   -2.1316   -0.2114   -0.9369 C   0  0  0  0  0  0  0  0  0  0  0  0
    2.8894    0.7718   -1.0555 C   0  0  0  0  0  0  0  0  0  0  0  0
   -3.3342    0.0113   -1.8412 C   0  0  0  0  0  0  0  0  0  0  0  0
   -0.8336   -0.3660    2.2726 C   0  0  0  0  0  0  0  0  0  0  0  0
   -0.5002    0.4729    1.0490 C   0  0  0  0  0  3  0  0  0  0  0  0
    2.0394   -0.1162    1.1253 C   0  0  0  0  0  3  0  0  0  0  0  0
    3.9166   -0.6517    0.2055 H   0  0  0  0  0  0  0  0  0  0  0  0
    2.4553   -1.3068   -0.6301 H   0  0  0  0  0  0  0  0  0  0  0  0
   -1.2077   -0.2293   -1.5538 H   0  0  0  0  0  0  0  0  0  0  0  0
   -2.2408   -1.1874   -0.4181 H   0  0  0  0  0  0  0  0  0  0  0  0
    3.3138    1.6634   -0.5462 H   0  0  0  0  0  0  0  0  0  0  0  0
    3.5163    0.5357   -1.9411 H   0  0  0  0  0  0  0  0  0  0  0  0
    1.8590    1.0022   -1.4012 H   0  0  0  0  0  0  0  0  0  0  0  0
   -4.2682    0.0199   -1.2401 H   0  0  0  0  0  0  0  0  0  0  0  0
   -3.2347    0.9781   -2.3789 H   0  0  0  0  0  0  0  0  0  0  0  0
   -3.3966   -0.8084   -2.5876 H   0  0  0  0  0  0  0  0  0  0  0  0
   -1.4742   -1.2251    1.9842 H   0  0  0  0  0  0  0  0  0  0  0  0
    0.1052   -0.7560    2.7177 H   0  0  0  0  0  0  0  0  0  0  0  0
   -1.3626    0.2520    3.0288 H   0  0  0  0  0  0  0  0  0  0  0  0
    0.1558    1.3186    1.3442 H   0  0  0  0  0  0  0  0  0  0  0  0
    2.0869   -0.9682    1.8357 H   0  0  0  0  0  0  0  0  0  0  0  0
    0.7903    0.0907    0.7844 H   0  0  0  0  0  0  0  0  0  0  0  0
  1  7  1  0
  1  3  1  0
  2  8  1  0
  2  4  1  0
  2  9  1  0
  2 10  1  0
  3  5  1  0
  3 11  1  0
  3 12  1  0
  4 13  1  0
  4 14  1  0
  4 15  1  0
  5 16  1  0
  5 17  1  0
  5 18  1  0
  6  7  1  0
  6 19  1  0
  6 20  1  0
  6 21  1  0
  7 22  1  0
  8 23  1  0
  8 24  1  0
M  RAD  2   7   2   8   2
M  END
>  <reaction>  (17) 
rmg_rxn_55

>  <mol_properties>  (17) 
{"0": {"label": "*3", "atom_type": "Cs"}, "1": {"label": "*4", "atom_type": "Cs"}, "10": {"label": "*1", "atom_type": "Cs"}, "11": {"label": "*0", "atom_type": "S2s"}, "17": {"label": "*2", "atom_type": "H0"}}

>  <type>  (17) 
unop_13

>  <geom_source>  (17) 
AutoTST

$$$$

     RDKit          3D

 24 22  0  0  0  0  0  0  0  0999 V2000
   -1.7279   -1.2274    0.6074 C   0  0  0  0  0  3  0  0  0  0  0  0
   -2.4174   -2.2931   -0.1606 C   0  0  0  0  0  0  0  0  0  0  0  0
   -3.1708   -3.2881    0.7154 C   0  0  0  0  0  0  0  0  0  0  0  0
   -2.0005   -1.0178    1.6339 H   0  0  0  0  0  0  0  0  0  0  0  0
   -3.1215   -1.8379   -0.8740 H   0  0  0  0  0  0  0  0  0  0  0  0
   -1.6918   -2.8240   -0.7882 H   0  0  0  0  0  0  0  0  0  0  0  0
   -3.9264   -2.7795    1.3180 H   0  0  0  0  0  0  0  0  0  0  0  0
   -2.4894   -3.7999    1.3975 H   0  0  0  0  0  0  0  0  0  0  0  0
   -3.6760   -4.0437    0.1121 H   0  0  0  0  0  0  0  0  0  0  0  0
    0.4495   -0.1190   -1.8234 C   0  0  0  0  0  0  0  0  0  0  0  0
    0.4495   -0.1190   -0.3037 C   0  0  0  0  0  3  0  0  0  0  0  0
    0.4495    1.5221    0.4612 S   0  0  0  0  0  0  0  0  0  0  0  0
    1.9901    2.2360   -0.1674 C   0  0  0  0  0  0  0  0  0  0  0  0
    3.2510    1.4772    0.2118 C   0  0  0  0  0  0  0  0  0  0  0  0
    1.3725    0.3046   -2.2229 H   0  0  0  0  0  0  0  0  0  0  0  0
    0.3669   -1.1401   -2.2021 H   0  0  0  0  0  0  0  0  0  0  0  0
   -0.3862    0.4635   -2.2128 H   0  0  0  0  0  0  0  0  0  0  0  0
   -0.6440   -0.6756    0.1538 H   0  0  0  0  0  0  0  0  0  0  0  0
    1.2857   -0.7016    0.0863 H   0  0  0  0  0  0  0  0  0  0  0  0
    1.9189    2.3582   -1.2494 H   0  0  0  0  0  0  0  0  0  0  0  0
    2.0051    3.2392    0.2619 H   0  0  0  0  0  0  0  0  0  0  0  0
    3.2722    0.4853   -0.2429 H   0  0  0  0  0  0  0  0  0  0  0  0
    3.3217    1.3552    1.2932 H   0  0  0  0  0  0  0  0  0  0  0  0
    4.1357    2.0156   -0.1351 H   0  0  0  0  0  0  0  0  0  0  0  0
  1  2  1  0
  1  4  1  0
  1 18  1  0
  2  3  1  0
  2  5  1  0
  2  6  1  0
  3  7  1  0
  3  8  1  0
  3  9  1  0
 10 11  1  0
 10 15  1  0
 10 16  1  0
 10 17  1  0
 11 12  1  0
 11 19  1  0
 12 13  1  0
 13 14  1  0
 13 20  1  0
 13 21  1  0
 14 22  1  0
 14 23  1  0
 14 24  1  0
M  RAD  2   1   2  11   2
M  END
>  <reaction>  (18) 
rmg_rxn_55

>  <mol_properties>  (18) 
{"0": {"label": "*3", "atom_type": "Cs"}, "1": {"label": "*4", "atom_type": "Cs"}, "10": {"label": "*1", "atom_type": "Cs"}, "11": {"label": "*0", "atom_type": "S2s"}, "17": {"label": "*2", "atom_type": "H0"}}

>  <type>  (18) 
unop_14

>  <geom_source>  (18) 
gaussian_log

$$$$
