
     RDKit          3D

  9  8  0  0  0  0  0  0  0  0999 V2000
   -1.2461    0.5037    0.0950 C   0  0  0  0  0  0  0  0  0  0  0  0
   -0.0155   -0.3334    0.0640 C   0  0  0  0  0  0  0  0  0  0  0  0
    1.0697    0.1457   -0.3733 N   0  0  0  0  0  0  0  0  0  0  0  0
    2.1001   -0.7834   -0.3224 O   0  0  0  0  0  0  0  0  0  0  0  0
   -2.0357    0.0440   -0.5039 H   0  0  0  0  0  0  0  0  0  0  0  0
   -1.6237    0.5897    1.1166 H   0  0  0  0  0  0  0  0  0  0  0  0
   -1.0397    1.4998   -0.2929 H   0  0  0  0  0  0  0  0  0  0  0  0
   -0.0537   -1.3634    0.4205 H   0  0  0  0  0  0  0  0  0  0  0  0
    2.8478   -0.2985   -0.6758 H   0  0  0  0  0  0  0  0  0  0  0  0
  1  2  1  0
  1  5  1  0
  1  6  1  0
  1  7  1  0
  2  3  2  3
  2  8  1  0
  3  4  1  0
  4  9  1  0
M  END
>  <reaction>  (1) 
rmg_rxn_275

>  <mol_properties>  (1) 
{"3": {"label": "donator", "atom_type": "O2s"}, "8": {"label": "d_hydrogen", "atom_type": "H0"}}

>  <type>  (1) 
r1h

$$$$

     RDKit          3D

 17 16  0  0  0  0  0  0  0  0999 V2000
   -3.2378    0.0781    0.0468 C   0  0  0  0  0  0  0  0  0  0  0  0
   -1.9072   -0.5430    0.2348 C   0  0  0  0  0  3  0  0  0  0  0  0
   -1.5607   -0.7743    1.5229 O   0  0  0  0  0  0  0  0  0  0  0  0
   -0.2678   -1.3170    1.7206 C   0  0  0  0  0  0  0  0  0  0  0  0
    0.0055   -1.4164    3.2061 C   0  0  0  0  0  0  0  0  0  0  0  0
    0.0347   -0.0632    3.9042 C   0  0  0  0  0  0  0  0  0  0  0  0
   -3.2816    1.0982    0.4537 H   0  0  0  0  0  0  0  0  0  0  0  0
   -3.4818    0.1310   -1.0144 H   0  0  0  0  0  0  0  0  0  0  0  0
   -4.0139   -0.5033    0.5509 H   0  0  0  0  0  0  0  0  0  0  0  0
   -1.0896   -0.3480   -0.4562 H   0  0  0  0  0  0  0  0  0  0  0  0
   -0.2142   -2.3036    1.2476 H   0  0  0  0  0  0  0  0  0  0  0  0
    0.4751   -0.6679    1.2371 H   0  0  0  0  0  0  0  0  0  0  0  0
   -0.7555   -2.0574    3.6583 H   0  0  0  0  0  0  0  0  0  0  0  0
    0.9642   -1.9267    3.3334 H   0  0  0  0  0  0  0  0  0  0  0  0
   -0.9209    0.4499    3.7952 H   0  0  0  0  0  0  0  0  0  0  0  0
    0.2399   -0.1765    4.9695 H   0  0  0  0  0  0  0  0  0  0  0  0
    0.8109    0.5782    3.4796 H   0  0  0  0  0  0  0  0  0  0  0  0
  1  2  1  0
  1  7  1  0
  1  8  1  0
  1  9  1  0
  2  3  1  0
  2 10  1  0
  3  4  1  0
  4  5  1  0
  4 11  1  0
  4 12  1  0
  5  6  1  0
  5 13  1  0
  5 14  1  0
  6 15  1  0
  6 16  1  0
  6 17  1  0
M  RAD  1   2   2
M  END
>  <reaction>  (2) 
rmg_rxn_275

>  <mol_properties>  (2) 
{"1": {"label": "acceptor", "atom_type": "Cs"}}

>  <type>  (2) 
r2

$$$$

     RDKit          3D

 18 17  0  0  0  0  0  0  0  0999 V2000
    2.2026   -0.7213   -0.2612 C   0  0  0  0  0  0  0  0  0  0  0  0
    1.5384    0.2638    0.6915 C   0  0  0  0  0  0  0  0  0  0  0  0
    2.2584    1.5946    0.7694 C   0  0  0  0  0  0  0  0  0  0  0  0
    2.2212    2.2185   -0.4893 O   0  0  0  0  0  0  0  0  0  0  0  0
    2.8988    3.4488   -0.5204 C   0  0  0  0  0  0  0  0  0  0  0  0
    2.7981    4.0296   -1.9118 C   0  0  0  0  0  0  0  0  0  0  0  0
    3.2294   -0.9309    0.0486 H   0  0  0  0  0  0  0  0  0  0  0  0
    2.2338   -0.3181   -1.2734 H   0  0  0  0  0  0  0  0  0  0  0  0
    1.6610   -1.6680   -0.2875 H   0  0  0  0  0  0  0  0  0  0  0  0
    1.4990   -0.1566    1.7002 H   0  0  0  0  0  0  0  0  0  0  0  0
    0.5055    0.4455    0.3835 H   0  0  0  0  0  0  0  0  0  0  0  0
    3.3038    1.4410    1.0808 H   0  0  0  0  0  0  0  0  0  0  0  0
    1.7844    2.2410    1.5226 H   0  0  0  0  0  0  0  0  0  0  0  0
    2.4596    4.1376    0.2164 H   0  0  0  0  0  0  0  0  0  0  0  0
    3.9524    3.3035   -0.2397 H   0  0  0  0  0  0  0  0  0  0  0  0
    1.7543    4.1869   -2.1856 H   0  0  0  0  0  0  0  0  0  0  0  0
    3.2472    3.3545   -2.6411 H   0  0  0  0  0  0  0  0  0  0  0  0
    3.3178    4.9878   -1.9600 H   0  0  0  0  0  0  0  0  0  0  0  0
  1  2  1  0
  1  7  1  0
  1  8  1  0
  1  9  1  0
  2  3  1  0
  2 10  1  0
  2 11  1  0
  3  4  1  0
  3 12  1  0
  3 13  1  0
  4  5  1  0
  5  6  1  0
  5 14  1  0
  5 15  1  0
  6 16  1  0
  6 17  1  0
  6 18  1  0
M  END
>  <reaction>  (3) 
rmg_rxn_275

>  <mol_properties>  (3) 
{"0": {"label": "a_hydrogen", "atom_type": "H0"}, "2": {"label": "acceptor", "atom_type": "Cs"}}

>  <type>  (3) 
r2h

$$$$

     RDKit          3D

 26 24  0  0  0  0  0  0  0  0999 V2000
   -0.8506   -2.4408   -2.5913 C   0  0  0  0  0  0  0  0  0  0  0  0
   -0.3824   -2.6641   -1.1942 C   0  0  0  0  0  0  0  0  0  0  0  0
   -0.3135   -1.6929   -0.3800 N   0  0  0  0  0  0  0  0  0  0  0  0
    0.1161   -1.9723    0.8429 O   0  0  0  0  0  0  0  0  0  0  0  0
   -0.0801   -2.7308   -3.3103 H   0  0  0  0  0  0  0  0  0  0  0  0
   -1.7349   -3.0464   -2.8053 H   0  0  0  0  0  0  0  0  0  0  0  0
   -1.0979   -1.3909   -2.7427 H   0  0  0  0  0  0  0  0  0  0  0  0
   -0.0999   -3.6683   -0.8759 H   0  0  0  0  0  0  0  0  0  0  0  0
    0.0566   -0.8496    1.4418 H   0  0  0  0  0  0  0  0  0  0  0  0
   -1.4469    0.4338    2.4650 C   0  0  0  0  0  0  0  0  0  0  0  0
   -0.0815    0.3506    1.8514 C   0  0  0  0  0  3  0  0  0  0  0  0
    0.0351    1.1556    0.7583 O   0  0  0  0  0  0  0  0  0  0  0  0
    1.3379    1.2184    0.1971 C   0  0  0  0  0  0  0  0  0  0  0  0
    1.2768    1.9997   -1.0963 C   0  0  0  0  0  0  0  0  0  0  0  0
    0.8324    3.4443   -0.9097 C   0  0  0  0  0  0  0  0  0  0  0  0
   -2.2057    0.2031    1.7165 H   0  0  0  0  0  0  0  0  0  0  0  0
   -1.5343   -0.2805    3.2834 H   0  0  0  0  0  0  0  0  0  0  0  0
   -1.6380    1.4373    2.8543 H   0  0  0  0  0  0  0  0  0  0  0  0
    0.7571    0.4528    2.5537 H   0  0  0  0  0  0  0  0  0  0  0  0
    2.0126    1.7031    0.9162 H   0  0  0  0  0  0  0  0  0  0  0  0
    1.6983    0.2014    0.0170 H   0  0  0  0  0  0  0  0  0  0  0  0
    2.2712    1.9671   -1.5495 H   0  0  0  0  0  0  0  0  0  0  0  0
    0.5997    1.4785   -1.7771 H   0  0  0  0  0  0  0  0  0  0  0  0
    1.5143    3.9809   -0.2454 H   0  0  0  0  0  0  0  0  0  0  0  0
    0.8103    3.9728   -1.8637 H   0  0  0  0  0  0  0  0  0  0  0  0
   -0.1660    3.4902   -0.4743 H   0  0  0  0  0  0  0  0  0  0  0  0
  1  2  1  0
  1  5  1  0
  1  6  1  0
  1  7  1  0
  2  3  2  3
  2  8  1  0
  3  4  1  0
  4  9  1  0
 10 11  1  0
 10 16  1  0
 10 17  1  0
 10 18  1  0
 11 12  1  0
 11 19  1  0
 12 13  1  0
 13 14  1  0
 13 20  1  0
 13 21  1  0
 14 15  1  0
 14 22  1  0
 14 23  1  0
 15 24  1  0
 15 25  1  0
 15 26  1  0
M  RAD  1  11   2
M  END
>  <reaction>  (4) 
rmg_rxn_275

>  <mol_properties>  (4) 
{"2": {"label": "*0", "atom_type": "N3d"}, "3": {"label": "*1", "atom_type": "O2s"}, "8": {"label": "*2", "atom_type": "H0"}, "10": {"label": "*3", "atom_type": "Cs"}, "11": {"label": "*4", "atom_type": "O2s"}}

>  <type>  (4) 
ts

$$$$

     RDKit          3D

 26 24  0  0  0  0  0  0  0  0999 V2000
    0.8563   -2.4491   -3.8783 C   0  0  0  0  0  0  0  0  0  0  0  0
    0.8563   -2.4491   -2.3896 C   0  0  0  0  0  0  0  0  0  0  0  0
    0.8563   -1.3570   -1.7528 N   0  0  0  0  0  0  0  0  0  0  0  0
    0.8563   -1.5617   -0.3796 O   0  0  0  0  0  0  0  0  0  0  0  0
    1.7357   -2.9729   -4.2601 H   0  0  0  0  0  0  0  0  0  0  0  0
   -0.0231   -2.9729   -4.2601 H   0  0  0  0  0  0  0  0  0  0  0  0
    0.8563   -1.4294   -4.2597 H   0  0  0  0  0  0  0  0  0  0  0  0
    0.8563   -3.3966   -1.8495 H   0  0  0  0  0  0  0  0  0  0  0  0
    0.8563   -0.4920    0.0438 H   0  0  0  0  0  0  0  0  0  0  0  0
    1.9067    0.0319    1.3573 C   0  0  0  0  0  0  0  0  0  0  0  0
    0.8563    0.7355    0.5296 C   0  0  0  0  0  3  0  0  0  0  0  0
   -0.2874    0.9380    1.3199 O   0  0  0  0  0  0  0  0  0  0  0  0
   -1.3275    1.5906    0.6363 C   0  0  0  0  0  0  0  0  0  0  0  0
   -2.4956    1.7970    1.5788 C   0  0  0  0  0  0  0  0  0  0  0  0
   -2.1620    2.7038    2.7559 C   0  0  0  0  0  0  0  0  0  0  0  0
    1.5355   -0.9323    1.7063 H   0  0  0  0  0  0  0  0  0  0  0  0
    2.8060   -0.1370    0.7628 H   0  0  0  0  0  0  0  0  0  0  0  0
    2.1738    0.6331    2.2271 H   0  0  0  0  0  0  0  0  0  0  0  0
    1.2366    1.7017    0.1664 H   0  0  0  0  0  0  0  0  0  0  0  0
   -0.9739    2.5614    0.2544 H   0  0  0  0  0  0  0  0  0  0  0  0
   -1.6394    0.9917   -0.2320 H   0  0  0  0  0  0  0  0  0  0  0  0
   -3.3229    2.2189    1.0014 H   0  0  0  0  0  0  0  0  0  0  0  0
   -2.8272    0.8200    1.9399 H   0  0  0  0  0  0  0  0  0  0  0  0
   -1.8516    3.6930    2.4100 H   0  0  0  0  0  0  0  0  0  0  0  0
   -3.0264    2.8338    3.4088 H   0  0  0  0  0  0  0  0  0  0  0  0
   -1.3479    2.2850    3.3473 H   0  0  0  0  0  0  0  0  0  0  0  0
  1  2  1  0
  1  5  1  0
  1  6  1  0
  1  7  1  0
  2  3  2  3
  2  8  1  0
  3  4  1  0
  4  9  1  0
 10 11  1  0
 10 16  1  0
 10 17  1  0
 10 18  1  0
 11 12  1  0
 11 19  1  0
 12 13  1  0
 13 14  1  0
 13 20  1  0
 13 21  1  0
 14 15  1  0
 14 22  1  0
 14 23  1  0
 15 24  1  0
 15 25  1  0
 15 26  1  0
M  RAD  1  11   2
M  END
>  <reaction>  (5) 
rmg_rxn_275

>  <mol_properties>  (5) 
{"2": {"label": "*0", "atom_type": "N3d"}, "3": {"label": "*1", "atom_type": "O2s"}, "8": {"label": "*2", "atom_type": "H0"}, "10": {"label": "*3", "atom_type": "Cs"}, "11": {"label": "*4", "atom_type": "O2s"}}

>  <type>  (5) 
unop_1

>  <geom_source>  (5) 
Heuristics

$$$$

     RDKit          3D

 26 24  0  0  0  0  0  0  0  0999 V2000
    0.3137   -2.8582   -2.7008 C   0  0  0  0  0  0  0  0  0  0  0  0
    0.3137   -2.8582   -1.2121 C   0  0  0  0  0  0  0  0  0  0  0  0
    0.3137   -1.7661   -0.5753 N   0  0  0  0  0  0  0  0  0  0  0  0
    0.3137   -1.9708    0.7979 O   0  0  0  0  0  0  0  0  0  0  0  0
    1.1931   -3.3820   -3.0826 H   0  0  0  0  0  0  0  0  0  0  0  0
   -0.5657   -3.3820   -3.0826 H   0  0  0  0  0  0  0  0  0  0  0  0
    0.3137   -1.8385   -3.0822 H   0  0  0  0  0  0  0  0  0  0  0  0
    0.3137   -3.8057   -0.6720 H   0  0  0  0  0  0  0  0  0  0  0  0
    0.3137   -0.9011    1.2213 H   0  0  0  0  0  0  0  0  0  0  0  0
   -0.6054    0.0164    2.8658 C   0  0  0  0  0  0  0  0  0  0  0  0
    0.3137    0.3264    1.7071 C   0  0  0  0  0  3  0  0  0  0  0  0
   -0.3466    1.1928    0.8200 O   0  0  0  0  0  0  0  0  0  0  0  0
    0.4306    1.5432   -0.2973 C   0  0  0  0  0  0  0  0  0  0  0  0
   -0.3494    2.5056   -1.1695 C   0  0  0  0  0  0  0  0  0  0  0  0
   -0.6640    3.8233   -0.4739 C   0  0  0  0  0  0  0  0  0  0  0  0
   -1.5198   -0.4605    2.5113 H   0  0  0  0  0  0  0  0  0  0  0  0
   -0.1130   -0.6569    3.5693 H   0  0  0  0  0  0  0  0  0  0  0  0
   -0.8768    0.9314    3.3936 H   0  0  0  0  0  0  0  0  0  0  0  0
    1.2417    0.7947    2.0670 H   0  0  0  0  0  0  0  0  0  0  0  0
    1.3720    2.0103    0.0327 H   0  0  0  0  0  0  0  0  0  0  0  0
    0.6957    0.6409   -0.8677 H   0  0  0  0  0  0  0  0  0  0  0  0
    0.2357    2.6883   -2.0750 H   0  0  0  0  0  0  0  0  0  0  0  0
   -1.2752    2.0168   -1.4839 H   0  0  0  0  0  0  0  0  0  0  0  0
    0.2543    4.3350   -0.1750 H   0  0  0  0  0  0  0  0  0  0  0  0
   -1.2204    4.4919   -1.1325 H   0  0  0  0  0  0  0  0  0  0  0  0
   -1.2601    3.6539    0.4227 H   0  0  0  0  0  0  0  0  0  0  0  0
  1  2  1  0
  1  5  1  0
  1  6  1  0
  1  7  1  0
  2  3  2  3
  2  8  1  0
  3  4  1  0
  4  9  1  0
 10 11  1  0
 10 16  1  0
 10 17  1  0
 10 18  1  0
 11 12  1  0
 11 19  1  0
 12 13  1  0
 13 14  1  0
 13 20  1  0
 13 21  1  0
 14 15  1  0
 14 22  1  0
 14 23  1  0
 15 24  1  0
 15 25  1  0
 15 26  1  0
M  RAD  1  11   2
M  END
>  <reaction>  (6) 
rmg_rxn_275

>  <mol_properties>  (6) 
{"2": {"label": "*0", "atom_type": "N3d"}, "3": {"label": "*1", "atom_type": "O2s"}, "8": {"label": "*2", "atom_type": "H0"}, "10": {"label": "*3", "atom_type": "Cs"}, "11": {"label": "*4", "atom_type": "O2s"}}

>  <type>  (6) 
unop_2

>  <geom_source>  (6) 
Heuristics

$$$$

     RDKit          3D

 26 24  0  0  0  0  0  0  0  0999 V2000
    0.5978   -2.2869   -4.2176 C   0  0  0  0  0  0  0  0  0  0  0  0
    0.5978   -2.2869   -2.7289 C   0  0  0  0  0  0  0  0  0  0  0  0
    0.5978   -1.1948   -2.0921 N   0  0  0  0  0  0  0  0  0  0  0  0
    0.5978   -1.3995   -0.7189 O   0  0  0  0  0  0  0  0  0  0  0  0
    1.4772   -2.8107   -4.5994 H   0  0  0  0  0  0  0  0  0  0  0  0
   -0.2816   -2.8107   -4.5994 H   0  0  0  0  0  0  0  0  0  0  0  0
    0.5978   -1.2672   -4.5990 H   0  0  0  0  0  0  0  0  0  0  0  0
    0.5978   -3.2344   -2.1888 H   0  0  0  0  0  0  0  0  0  0  0  0
    0.5978   -0.3298   -0.2956 H   0  0  0  0  0  0  0  0  0  0  0  0
    2.0782    0.7077    0.4262 C   0  0  0  0  0  0  0  0  0  0  0  0
    0.5978    0.8977    0.1902 C   0  0  0  0  0  3  0  0  0  0  0  0
   -0.0625    0.9223    1.4300 O   0  0  0  0  0  0  0  0  0  0  0  0
   -1.4524    1.0969    1.3167 C   0  0  0  0  0  0  0  0  0  0  0  0
   -2.0662    1.1493    2.7008 C   0  0  0  0  0  0  0  0  0  0  0  0
   -1.5819    2.3341    3.5260 C   0  0  0  0  0  0  0  0  0  0  0  0
    2.2642   -0.2299    0.9514 H   0  0  0  0  0  0  0  0  0  0  0  0
    2.6128    0.6848   -0.5247 H   0  0  0  0  0  0  0  0  0  0  0  0
    2.4771    1.5245    1.0288 H   0  0  0  0  0  0  0  0  0  0  0  0
    0.4123    1.8368   -0.3518 H   0  0  0  0  0  0  0  0  0  0  0  0
   -1.6698    2.0289    0.7713 H   0  0  0  0  0  0  0  0  0  0  0  0
   -1.8883    0.2697    0.7373 H   0  0  0  0  0  0  0  0  0  0  0  0
   -3.1529    1.1903    2.5852 H   0  0  0  0  0  0  0  0  0  0  0  0
   -1.8378    0.2136    3.2175 H   0  0  0  0  0  0  0  0  0  0  0  0
   -1.8253    3.2782    3.0322 H   0  0  0  0  0  0  0  0  0  0  0  0
   -2.0481    2.3424    4.5123 H   0  0  0  0  0  0  0  0  0  0  0  0
   -0.5009    2.2951    3.6600 H   0  0  0  0  0  0  0  0  0  0  0  0
  1  2  1  0
  1  5  1  0
  1  6  1  0
  1  7  1  0
  2  3  2  3
  2  8  1  0
  3  4  1  0
  4  9  1  0
 10 11  1  0
 10 16  1  0
 10 17  1  0
 10 18  1  0
 11 12  1  0
 11 19  1  0
 12 13  1  0
 13 14  1  0
 13 20  1  0
 13 21  1  0
 14 15  1  0
 14 22  1  0
 14 23  1  0
 15 24  1  0
 15 25  1  0
 15 26  1  0
M  RAD  1  11   2
M  END
>  <reaction>  (7) 
rmg_rxn_275

>  <mol_properties>  (7) 
{"2": {"label": "*0", "atom_type": "N3d"}, "3": {"label": "*1", "atom_type": "O2s"}, "8": {"label": "*2", "atom_type": "H0"}, "10": {"label": "*3", "atom_type": "Cs"}, "11": {"label": "*4", "atom_type": "O2s"}}

>  <type>  (7) 
unop_3

>  <geom_source>  (7) 
Heuristics

$$$$

     RDKit          3D

 26 24  0  0  0  0  0  0  0  0999 V2000
   -0.9586   -2.4970   -3.1725 C   0  0  0  0  0  0  0  0  0  0  0  0
   -0.9586   -2.4970   -1.6838 C   0  0  0  0  0  0  0  0  0  0  0  0
   -0.9586   -1.4049   -1.0470 N   0  0  0  0  0  0  0  0  0  0  0  0
   -0.9586   -1.6096    0.3262 O   0  0  0  0  0  0  0  0  0  0  0  0
   -0.0792   -3.0208   -3.5543 H   0  0  0  0  0  0  0  0  0  0  0  0
   -1.8380   -3.0208   -3.5543 H   0  0  0  0  0  0  0  0  0  0  0  0
   -0.9586   -1.4773   -3.5539 H   0  0  0  0  0  0  0  0  0  0  0  0
   -0.9586   -3.4445   -1.1437 H   0  0  0  0  0  0  0  0  0  0  0  0
   -0.9586   -0.5399    0.7496 H   0  0  0  0  0  0  0  0  0  0  0  0
   -2.0610    1.6863    1.5013 C   0  0  0  0  0  0  0  0  0  0  0  0
   -0.9586    0.6876    1.2354 C   0  0  0  0  0  3  0  0  0  0  0  0
    0.1851    1.3761    0.7977 O   0  0  0  0  0  0  0  0  0  0  0  0
    1.2729    0.5297    0.5233 C   0  0  0  0  0  0  0  0  0  0  0  0
    2.4637    1.3644    0.0983 C   0  0  0  0  0  0  0  0  0  0  0  0
    2.9561    2.3045    1.1906 C   0  0  0  0  0  0  0  0  0  0  0  0
   -2.3008    2.2415    0.5938 H   0  0  0  0  0  0  0  0  0  0  0  0
   -2.9616    1.1734    1.8426 H   0  0  0  0  0  0  0  0  0  0  0  0
   -1.7551    2.3978    2.2692 H   0  0  0  0  0  0  0  0  0  0  0  0
   -0.7271    0.1184    2.1478 H   0  0  0  0  0  0  0  0  0  0  0  0
    1.5248   -0.0594    1.4193 H   0  0  0  0  0  0  0  0  0  0  0  0
    1.0034   -0.1821   -0.2708 H   0  0  0  0  0  0  0  0  0  0  0  0
    3.2641    0.6813   -0.1991 H   0  0  0  0  0  0  0  0  0  0  0  0
    2.1875    1.9354   -0.7918 H   0  0  0  0  0  0  0  0  0  0  0  0
    3.2587    1.7449    2.0792 H   0  0  0  0  0  0  0  0  0  0  0  0
    3.8158    2.8843    0.8515 H   0  0  0  0  0  0  0  0  0  0  0  0
    2.1701    3.0002    1.4844 H   0  0  0  0  0  0  0  0  0  0  0  0
  1  2  1  0
  1  5  1  0
  1  6  1  0
  1  7  1  0
  2  3  2  3
  2  8  1  0
  3  4  1  0
  4  9  1  0
 10 11  1  0
 10 16  1  0
 10 17  1  0
 10 18  1  0
 11 12  1  0
 11 19  1  0
 12 13  1  0
 13 14  1  0
 13 20  1  0
 13 21  1  0
 14 15  1  0
 14 22  1  0
 14 23  1  0
 15 24  1  0
 15 25  1  0
 15 26  1  0
M  RAD  1  11   2
M  END
>  <reaction>  (8) 
rmg_rxn_275

>  <mol_properties>  (8) 
{"2": {"label": "*0", "atom_type": "N3d"}, "3": {"label": "*1", "atom_type": "O2s"}, "8": {"label": "*2", "atom_type": "H0"}, "10": {"label": "*3", "atom_type": "Cs"}, "11": {"label": "*4", "atom_type": "O2s"}}

>  <type>  (8) 
unop_4

>  <geom_source>  (8) 
Heuristics

$$$$

     RDKit          3D

 26 24  0  0  0  0  0  0  0  0999 V2000
    0.2017   -2.1237   -4.4029 C   0  0  0  0  0  0  0  0  0  0  0  0
    0.2017   -2.1237   -2.9143 C   0  0  0  0  0  0  0  0  0  0  0  0
    0.2017   -1.0316   -2.2775 N   0  0  0  0  0  0  0  0  0  0  0  0
    0.2017   -1.2363   -0.9043 O   0  0  0  0  0  0  0  0  0  0  0  0
    1.0812   -2.6475   -4.7847 H   0  0  0  0  0  0  0  0  0  0  0  0
   -0.6777   -2.6475   -4.7847 H   0  0  0  0  0  0  0  0  0  0  0  0
    0.2017   -1.1040   -4.7844 H   0  0  0  0  0  0  0  0  0  0  0  0
    0.2017   -3.0712   -2.3741 H   0  0  0  0  0  0  0  0  0  0  0  0
    0.2017   -0.1666   -0.4809 H   0  0  0  0  0  0  0  0  0  0  0  0
    1.4245    1.8146   -0.4644 C   0  0  0  0  0  0  0  0  0  0  0  0
    0.2017    1.0609    0.0049 C   0  0  0  0  0  3  0  0  0  0  0  0
    0.2017    1.0204    1.4092 O   0  0  0  0  0  0  0  0  0  0  0  0
   -0.9029    0.3374    1.9460 C   0  0  0  0  0  0  0  0  0  0  0  0
   -0.8339    0.3818    3.4588 C   0  0  0  0  0  0  0  0  0  0  0  0
   -0.9270    1.7940    4.0211 C   0  0  0  0  0  0  0  0  0  0  0  0
    2.3336    1.3210   -0.1189 H   0  0  0  0  0  0  0  0  0  0  0  0
    1.4463    1.8585   -1.5545 H   0  0  0  0  0  0  0  0  0  0  0  0
    1.4176    2.8337   -0.0763 H   0  0  0  0  0  0  0  0  0  0  0  0
   -0.7143    1.5516   -0.3558 H   0  0  0  0  0  0  0  0  0  0  0  0
   -1.8378    0.8035    1.5965 H   0  0  0  0  0  0  0  0  0  0  0  0
   -0.9062   -0.7050    1.5950 H   0  0  0  0  0  0  0  0  0  0  0  0
   -1.6483   -0.2337    3.8507 H   0  0  0  0  0  0  0  0  0  0  0  0
    0.1000   -0.0883    3.7776 H   0  0  0  0  0  0  0  0  0  0  0  0
   -1.8676    2.2681    3.7299 H   0  0  0  0  0  0  0  0  0  0  0  0
   -0.8794    1.7866    5.1110 H   0  0  0  0  0  0  0  0  0  0  0  0
   -0.1107    2.4126    3.6483 H   0  0  0  0  0  0  0  0  0  0  0  0
  1  2  1  0
  1  5  1  0
  1  6  1  0
  1  7  1  0
  2  3  2  3
  2  8  1  0
  3  4  1  0
  4  9  1  0
 10 11  1  0
 10 16  1  0
 10 17  1  0
 10 18  1  0
 11 12  1  0
 11 19  1  0
 12 13  1  0
 13 14  1  0
 13 20  1  0
 13 21  1  0
 14 15  1  0
 14 22  1  0
 14 23  1  0
 15 24  1  0
 15 25  1  0
 15 26  1  0
M  RAD  1  11   2
M  END
>  <reaction>  (9) 
rmg_rxn_275

>  <mol_properties>  (9) 
{"2": {"label": "*0", "atom_type": "N3d"}, "3": {"label": "*1", "atom_type": "O2s"}, "8": {"label": "*2", "atom_type": "H0"}, "10": {"label": "*3", "atom_type": "Cs"}, "11": {"label": "*4", "atom_type": "O2s"}}

>  <type>  (9) 
unop_5

>  <geom_source>  (9) 
Heuristics

$$$$

     RDKit          3D

 26 24  0  0  0  0  0  0  0  0999 V2000
   -1.0018   -2.2867   -3.6410 C   0  0  0  0  0  0  0  0  0  0  0  0
   -1.0018   -2.2867   -2.1524 C   0  0  0  0  0  0  0  0  0  0  0  0
   -1.0018   -1.1947   -1.5156 N   0  0  0  0  0  0  0  0  0  0  0  0
   -1.0018   -1.3993   -0.1424 O   0  0  0  0  0  0  0  0  0  0  0  0
   -0.1223   -2.8106   -4.0228 H   0  0  0  0  0  0  0  0  0  0  0  0
   -1.8812   -2.8106   -4.0228 H   0  0  0  0  0  0  0  0  0  0  0  0
   -1.0018   -1.2670   -4.0225 H   0  0  0  0  0  0  0  0  0  0  0  0
   -1.0018   -3.2342   -1.6122 H   0  0  0  0  0  0  0  0  0  0  0  0
   -1.0018   -0.3297    0.2810 H   0  0  0  0  0  0  0  0  0  0  0  0
   -1.9213    2.0959    0.7162 C   0  0  0  0  0  0  0  0  0  0  0  0
   -1.0018    0.8979    0.7668 C   0  0  0  0  0  3  0  0  0  0  0  0
    0.3189    1.3433    0.9431 O   0  0  0  0  0  0  0  0  0  0  0  0
    1.2554    0.2973    1.0040 C   0  0  0  0  0  0  0  0  0  0  0  0
    2.6375    0.8736    1.2337 C   0  0  0  0  0  0  0  0  0  0  0  0
    2.7684    1.6033    2.5640 C   0  0  0  0  0  0  0  0  0  0  0  0
   -1.6494    2.7516   -0.1117 H   0  0  0  0  0  0  0  0  0  0  0  0
   -2.9548    1.7738    0.5789 H   0  0  0  0  0  0  0  0  0  0  0  0
   -1.8563    2.6670    1.6430 H   0  0  0  0  0  0  0  0  0  0  0  0
   -1.2855    0.2301    1.5936 H   0  0  0  0  0  0  0  0  0  0  0  0
    0.9933   -0.3933    1.8211 H   0  0  0  0  0  0  0  0  0  0  0  0
    1.2339   -0.2804    0.0682 H   0  0  0  0  0  0  0  0  0  0  0  0
    3.3572    0.0518    1.1829 H   0  0  0  0  0  0  0  0  0  0  0  0
    2.8724    1.5516    0.4091 H   0  0  0  0  0  0  0  0  0  0  0  0
    2.5595    0.9306    3.3995 H   0  0  0  0  0  0  0  0  0  0  0  0
    3.7761    1.9994    2.6971 H   0  0  0  0  0  0  0  0  0  0  0  0
    2.0653    2.4344    2.6192 H   0  0  0  0  0  0  0  0  0  0  0  0
  1  2  1  0
  1  5  1  0
  1  6  1  0
  1  7  1  0
  2  3  2  3
  2  8  1  0
  3  4  1  0
  4  9  1  0
 10 11  1  0
 10 16  1  0
 10 17  1  0
 10 18  1  0
 11 12  1  0
 11 19  1  0
 12 13  1  0
 13 14  1  0
 13 20  1  0
 13 21  1  0
 14 15  1  0
 14 22  1  0
 14 23  1  0
 15 24  1  0
 15 25  1  0
 15 26  1  0
M  RAD  1  11   2
M  END
>  <reaction>  (10) 
rmg_rxn_275

>  <mol_properties>  (10) 
{"2": {"label": "*0", "atom_type": "N3d"}, "3": {"label": "*1", "atom_type": "O2s"}, "8": {"label": "*2", "atom_type": "H0"}, "10": {"label": "*3", "atom_type": "Cs"}, "11": {"label": "*4", "atom_type": "O2s"}}

>  <type>  (10) 
unop_6

>  <geom_source>  (10) 
Heuristics

$$$$

     RDKit          3D

 26 24  0  0  0  0  0  0  0  0999 V2000
   -0.7744   -2.1113   -4.0833 C   0  0  0  0  0  0  0  0  0  0  0  0
   -0.7744   -2.1113   -2.5947 C   0  0  0  0  0  0  0  0  0  0  0  0
   -0.7744   -1.0192   -1.9579 N   0  0  0  0  0  0  0  0  0  0  0  0
   -0.7744   -1.2239   -0.5847 O   0  0  0  0  0  0  0  0  0  0  0  0
    0.1050   -2.6351   -4.4651 H   0  0  0  0  0  0  0  0  0  0  0  0
   -1.6539   -2.6351   -4.4651 H   0  0  0  0  0  0  0  0  0  0  0  0
   -0.7744   -1.0916   -4.4647 H   0  0  0  0  0  0  0  0  0  0  0  0
   -0.7744   -3.0588   -2.0545 H   0  0  0  0  0  0  0  0  0  0  0  0
   -0.7744   -0.1543   -0.1613 H   0  0  0  0  0  0  0  0  0  0  0  0
   -1.3284    2.4165   -0.0906 C   0  0  0  0  0  0  0  0  0  0  0  0
   -0.7744    1.0733    0.3245 C   0  0  0  0  0  3  0  0  0  0  0  0
    0.3693    1.2757    1.1148 O   0  0  0  0  0  0  0  0  0  0  0  0
    0.9610    0.0791    1.5540 C   0  0  0  0  0  0  0  0  0  0  0  0
    2.1571    0.4011    2.4263 C   0  0  0  0  0  0  0  0  0  0  0  0
    1.7857    1.1521    3.6980 C   0  0  0  0  0  0  0  0  0  0  0  0
   -0.5882    2.9741   -0.6654 H   0  0  0  0  0  0  0  0  0  0  0  0
   -2.2188    2.2841   -0.7071 H   0  0  0  0  0  0  0  0  0  0  0  0
   -1.5983    3.0061    0.7864 H   0  0  0  0  0  0  0  0  0  0  0  0
   -1.5266    0.5060    0.8924 H   0  0  0  0  0  0  0  0  0  0  0  0
    0.2278   -0.5150    2.1223 H   0  0  0  0  0  0  0  0  0  0  0  0
    1.2715   -0.5253    0.6891 H   0  0  0  0  0  0  0  0  0  0  0  0
    2.6538   -0.5404    2.6767 H   0  0  0  0  0  0  0  0  0  0  0  0
    2.8678    0.9875    1.8382 H   0  0  0  0  0  0  0  0  0  0  0  0
    1.0934    0.5666    4.3082 H   0  0  0  0  0  0  0  0  0  0  0  0
    2.6694    1.3617    4.3025 H   0  0  0  0  0  0  0  0  0  0  0  0
    1.3029    2.0998    3.4598 H   0  0  0  0  0  0  0  0  0  0  0  0
  1  2  1  0
  1  5  1  0
  1  6  1  0
  1  7  1  0
  2  3  2  3
  2  8  1  0
  3  4  1  0
  4  9  1  0
 10 11  1  0
 10 16  1  0
 10 17  1  0
 10 18  1  0
 11 12  1  0
 11 19  1  0
 12 13  1  0
 13 14  1  0
 13 20  1  0
 13 21  1  0
 14 15  1  0
 14 22  1  0
 14 23  1  0
 15 24  1  0
 15 25  1  0
 15 26  1  0
M  RAD  1  11   2
M  END
>  <reaction>  (11) 
rmg_rxn_275

>  <mol_properties>  (11) 
{"2": {"label": "*0", "atom_type": "N3d"}, "3": {"label": "*1", "atom_type": "O2s"}, "8": {"label": "*2", "atom_type": "H0"}, "10": {"label": "*3", "atom_type": "Cs"}, "11": {"label": "*4", "atom_type": "O2s"}}

>  <type>  (11) 
unop_7

>  <geom_source>  (11) 
Heuristics

$$$$

     RDKit          3D

 26 24  0  0  0  0  0  0  0  0999 V2000
    0.9154   -2.6237   -3.4365 C   0  0  0  0  0  0  0  0  0  0  0  0
    0.9154   -2.6237   -1.9478 C   0  0  0  0  0  0  0  0  0  0  0  0
    0.9154   -1.5316   -1.3110 N   0  0  0  0  0  0  0  0  0  0  0  0
    0.9154   -1.7363    0.0622 O   0  0  0  0  0  0  0  0  0  0  0  0
    1.7948   -3.1475   -3.8183 H   0  0  0  0  0  0  0  0  0  0  0  0
    0.0360   -3.1475   -3.8183 H   0  0  0  0  0  0  0  0  0  0  0  0
    0.9154   -1.6040   -3.8179 H   0  0  0  0  0  0  0  0  0  0  0  0
    0.9154   -3.5712   -1.4077 H   0  0  0  0  0  0  0  0  0  0  0  0
    0.9154   -0.6666    0.4855 H   0  0  0  0  0  0  0  0  0  0  0  0
    1.3117   -0.2830    2.1606 C   0  0  0  0  0  0  0  0  0  0  0  0
    0.9154    0.5609    0.9714 C   0  0  0  0  0  3  0  0  0  0  0  0
   -0.4052    1.0064    1.1477 O   0  0  0  0  0  0  0  0  0  0  0  0
   -0.8690    1.8051    0.0885 C   0  0  0  0  0  0  0  0  0  0  0  0
   -2.2807    2.2662    0.3882 C   0  0  0  0  0  0  0  0  0  0  0  0
   -2.3716    3.1514    1.6241 C   0  0  0  0  0  0  0  0  0  0  0  0
    0.6508   -1.1454    2.2544 H   0  0  0  0  0  0  0  0  0  0  0  0
    2.3358   -0.6415    2.0453 H   0  0  0  0  0  0  0  0  0  0  0  0
    1.2497    0.2997    3.0804 H   0  0  0  0  0  0  0  0  0  0  0  0
    1.5911    1.4229    0.8693 H   0  0  0  0  0  0  0  0  0  0  0  0
   -0.2068    2.6757   -0.0422 H   0  0  0  0  0  0  0  0  0  0  0  0
   -0.8460    1.2330   -0.8507 H   0  0  0  0  0  0  0  0  0  0  0  0
   -2.6518    2.8045   -0.4884 H   0  0  0  0  0  0  0  0  0  0  0  0
   -2.9152    1.3846    0.5105 H   0  0  0  0  0  0  0  0  0  0  0  0
   -1.7602    4.0495    1.5059 H   0  0  0  0  0  0  0  0  0  0  0  0
   -3.3998    3.4680    1.8055 H   0  0  0  0  0  0  0  0  0  0  0  0
   -2.0179    2.6192    2.5070 H   0  0  0  0  0  0  0  0  0  0  0  0
  1  2  1  0
  1  5  1  0
  1  6  1  0
  1  7  1  0
  2  3  2  3
  2  8  1  0
  3  4  1  0
  4  9  1  0
 10 11  1  0
 10 16  1  0
 10 17  1  0
 10 18  1  0
 11 12  1  0
 11 19  1  0
 12 13  1  0
 13 14  1  0
 13 20  1  0
 13 21  1  0
 14 15  1  0
 14 22  1  0
 14 23  1  0
 15 24  1  0
 15 25  1  0
 15 26  1  0
M  RAD  1  11   2
M  END
>  <reaction>  (12) 
rmg_rxn_275

>  <mol_properties>  (12) 
{"2": {"label": "*0", "atom_type": "N3d"}, "3": {"label": "*1", "atom_type": "O2s"}, "8": {"label": "*2", "atom_type": "H0"}, "10": {"label": "*3", "atom_type": "Cs"}, "11": {"label": "*4", "atom_type": "O2s"}}

>  <type>  (12) 
unop_8

>  <geom_source>  (12) 
Heuristics

$$$$

     RDKit          3D

 26 24  0  0  0  0  0  0  0  0999 V2000
   -0.6673   -2.6920   -2.8016 C   0  0  0  0  0  0  0  0  0  0  0  0
   -0.6673   -2.6920   -1.3130 C   0  0  0  0  0  0  0  0  0  0  0  0
   -0.6673   -1.5999   -0.6762 N   0  0  0  0  0  0  0  0  0  0  0  0
   -0.6673   -1.8046    0.6970 O   0  0  0  0  0  0  0  0  0  0  0  0
    0.2121   -3.2158   -3.1834 H   0  0  0  0  0  0  0  0  0  0  0  0
   -1.5467   -3.2158   -3.1835 H   0  0  0  0  0  0  0  0  0  0  0  0
   -0.6673   -1.6723   -3.1831 H   0  0  0  0  0  0  0  0  0  0  0  0
   -0.6673   -3.6395   -0.7728 H   0  0  0  0  0  0  0  0  0  0  0  0
   -0.6673   -0.7349    1.1204 H   0  0  0  0  0  0  0  0  0  0  0  0
   -1.8912    1.1898    2.1534 C   0  0  0  0  0  0  0  0  0  0  0  0
   -0.6673    0.4926    1.6062 C   0  0  0  0  0  3  0  0  0  0  0  0
   -0.0070    1.3589    0.7191 O   0  0  0  0  0  0  0  0  0  0  0  0
    1.1519    0.7995    0.1543 C   0  0  0  0  0  0  0  0  0  0  0  0
    1.8108    1.8187   -0.7525 C   0  0  0  0  0  0  0  0  0  0  0  0
    2.2886    3.0598   -0.0104 C   0  0  0  0  0  0  0  0  0  0  0  0
   -2.5700    1.4616    1.3443 H   0  0  0  0  0  0  0  0  0  0  0  0
   -2.4217    0.5344    2.8460 H   0  0  0  0  0  0  0  0  0  0  0  0
   -1.6076    2.0990    2.6847 H   0  0  0  0  0  0  0  0  0  0  0  0
    0.0101    0.2063    2.4242 H   0  0  0  0  0  0  0  0  0  0  0  0
    1.8488    0.4965    0.9517 H   0  0  0  0  0  0  0  0  0  0  0  0
    0.8926   -0.1056   -0.4145 H   0  0  0  0  0  0  0  0  0  0  0  0
    2.6531    1.3307   -1.2507 H   0  0  0  0  0  0  0  0  0  0  0  0
    1.0999    2.0992   -1.5339 H   0  0  0  0  0  0  0  0  0  0  0  0
    3.0189    2.7967    0.7590 H   0  0  0  0  0  0  0  0  0  0  0  0
    2.7616    3.7675   -0.6927 H   0  0  0  0  0  0  0  0  0  0  0  0
    1.4540    3.5628    0.4781 H   0  0  0  0  0  0  0  0  0  0  0  0
  1  2  1  0
  1  5  1  0
  1  6  1  0
  1  7  1  0
  2  3  2  3
  2  8  1  0
  3  4  1  0
  4  9  1  0
 10 11  1  0
 10 16  1  0
 10 17  1  0
 10 18  1  0
 11 12  1  0
 11 19  1  0
 12 13  1  0
 13 14  1  0
 13 20  1  0
 13 21  1  0
 14 15  1  0
 14 22  1  0
 14 23  1  0
 15 24  1  0
 15 25  1  0
 15 26  1  0
M  RAD  1  11   2
M  END
>  <reaction>  (13) 
rmg_rxn_275

>  <mol_properties>  (13) 
{"2": {"label": "*0", "atom_type": "N3d"}, "3": {"label": "*1", "atom_type": "O2s"}, "8": {"label": "*2", "atom_type": "H0"}, "10": {"label": "*3", "atom_type": "Cs"}, "11": {"label": "*4", "atom_type": "O2s"}}

>  <type>  (13) 
unop_9

>  <geom_source>  (13) 
Heuristics

$$$$

     RDKit          3D

 26 24  0  0  0  0  0  0  0  0999 V2000
    0.7243   -2.7778   -3.0020 C   0  0  0  0  0  0  0  0  0  0  0  0
    0.7243   -2.7778   -1.5133 C   0  0  0  0  0  0  0  0  0  0  0  0
    0.7243   -1.6857   -0.8765 N   0  0  0  0  0  0  0  0  0  0  0  0
    0.7243   -1.8904    0.4967 O   0  0  0  0  0  0  0  0  0  0  0  0
    1.6037   -3.3016   -3.3838 H   0  0  0  0  0  0  0  0  0  0  0  0
   -0.1551   -3.3016   -3.3838 H   0  0  0  0  0  0  0  0  0  0  0  0
    0.7243   -1.7581   -3.3834 H   0  0  0  0  0  0  0  0  0  0  0  0
    0.7243   -3.7253   -0.9732 H   0  0  0  0  0  0  0  0  0  0  0  0
    0.7243   -0.8207    0.9200 H   0  0  0  0  0  0  0  0  0  0  0  0
    0.4068   -0.2965    2.7052 C   0  0  0  0  0  0  0  0  0  0  0  0
    0.7243    0.4068    1.4059 C   0  0  0  0  0  3  0  0  0  0  0  0
   -0.4194    1.0952    0.9682 O   0  0  0  0  0  0  0  0  0  0  0  0
   -0.2244    1.7864   -0.2398 C   0  0  0  0  0  0  0  0  0  0  0  0
   -1.4954    2.5250   -0.6063 C   0  0  0  0  0  0  0  0  0  0  0  0
   -1.8796    3.5948    0.4072 C   0  0  0  0  0  0  0  0  0  0  0  0
   -0.4091   -1.0066    2.5658 H   0  0  0  0  0  0  0  0  0  0  0  0
    1.2821   -0.8397    3.0648 H   0  0  0  0  0  0  0  0  0  0  0  0
    0.1089    0.4247    3.4671 H   0  0  0  0  0  0  0  0  0  0  0  0
    1.5566    1.1127    1.5441 H   0  0  0  0  0  0  0  0  0  0  0  0
    0.6093    2.4985   -0.1337 H   0  0  0  0  0  0  0  0  0  0  0  0
    0.0490    1.0793   -1.0366 H   0  0  0  0  0  0  0  0  0  0  0  0
   -1.3500    2.9755   -1.5921 H   0  0  0  0  0  0  0  0  0  0  0  0
   -2.3036    1.7961   -0.7073 H   0  0  0  0  0  0  0  0  0  0  0  0
   -1.0898    4.3444    0.5009 H   0  0  0  0  0  0  0  0  0  0  0  0
   -2.7946    4.1083    0.1083 H   0  0  0  0  0  0  0  0  0  0  0  0
   -2.0416    3.1542    1.3909 H   0  0  0  0  0  0  0  0  0  0  0  0
  1  2  1  0
  1  5  1  0
  1  6  1  0
  1  7  1  0
  2  3  2  3
  2  8  1  0
  3  4  1  0
  4  9  1  0
 10 11  1  0
 10 16  1  0
 10 17  1  0
 10 18  1  0
 11 12  1  0
 11 19  1  0
 12 13  1  0
 13 14  1  0
 13 20  1  0
 13 21  1  0
 14 15  1  0
 14 22  1  0
 14 23  1  0
 15 24  1  0
 15 25  1  0
 15 26  1  0
M  RAD  1  11   2
M  END
>  <reaction>  (14) 
rmg_rxn_275

>  <mol_properties>  (14) 
{"2": {"label": "*0", "atom_type": "N3d"}, "3": {"label": "*1", "atom_type": "O2s"}, "8": {"label": "*2", "atom_type": "H0"}, "10": {"label": "*3", "atom_type": "Cs"}, "11": {"label": "*4", "atom_type": "O2s"}}

>  <type>  (14) 
unop_10

>  <geom_source>  (14) 
Heuristics

$$$$

     RDKit          3D

 26 24  0  0  0  0  0  0  0  0999 V2000
   -0.3210   -2.0359   -4.3700 C   0  0  0  0  0  0  0  0  0  0  0  0
   -0.3210   -2.0359   -2.8813 C   0  0  0  0  0  0  0  0  0  0  0  0
   -0.3210   -0.9438   -2.2445 N   0  0  0  0  0  0  0  0  0  0  0  0
   -0.3210   -1.1485   -0.8713 O   0  0  0  0  0  0  0  0  0  0  0  0
    0.5584   -2.5597   -4.7518 H   0  0  0  0  0  0  0  0  0  0  0  0
   -1.2004   -2.5597   -4.7518 H   0  0  0  0  0  0  0  0  0  0  0  0
   -0.3210   -1.0162   -4.7514 H   0  0  0  0  0  0  0  0  0  0  0  0
   -0.3210   -2.9834   -2.3412 H   0  0  0  0  0  0  0  0  0  0  0  0
   -0.3210   -0.0788   -0.4480 H   0  0  0  0  0  0  0  0  0  0  0  0
   -0.1240    2.4799   -0.6497 C   0  0  0  0  0  0  0  0  0  0  0  0
   -0.3210    1.1487    0.0379 C   0  0  0  0  0  3  0  0  0  0  0  0
    0.3393    1.1733    1.2776 O   0  0  0  0  0  0  0  0  0  0  0  0
    0.2137   -0.0264    1.9987 C   0  0  0  0  0  0  0  0  0  0  0  0
    0.9223    0.1119    3.3306 C   0  0  0  0  0  0  0  0  0  0  0  0
    0.3103    1.1808    4.2261 C   0  0  0  0  0  0  0  0  0  0  0  0
    0.9370    2.6732   -0.8112 H   0  0  0  0  0  0  0  0  0  0  0  0
   -0.6288    2.4841   -1.6171 H   0  0  0  0  0  0  0  0  0  0  0  0
   -0.5324    3.2880   -0.0420 H   0  0  0  0  0  0  0  0  0  0  0  0
   -1.3922    0.9482    0.1878 H   0  0  0  0  0  0  0  0  0  0  0  0
   -0.8513   -0.2574    2.1594 H   0  0  0  0  0  0  0  0  0  0  0  0
    0.6451   -0.8577    1.4218 H   0  0  0  0  0  0  0  0  0  0  0  0
    0.8917   -0.8603    3.8302 H   0  0  0  0  0  0  0  0  0  0  0  0
    1.9750    0.3380    3.1420 H   0  0  0  0  0  0  0  0  0  0  0  0
   -0.7368    0.9548    4.4429 H   0  0  0  0  0  0  0  0  0  0  0  0
    0.8417    1.2484    5.1765 H   0  0  0  0  0  0  0  0  0  0  0  0
    0.3491    2.1574    3.7436 H   0  0  0  0  0  0  0  0  0  0  0  0
  1  2  1  0
  1  5  1  0
  1  6  1  0
  1  7  1  0
  2  3  2  3
  2  8  1  0
  3  4  1  0
  4  9  1  0
 10 11  1  0
 10 16  1  0
 10 17  1  0
 10 18  1  0
 11 12  1  0
 11 19  1  0
 12 13  1  0
 13 14  1  0
 13 20  1  0
 13 21  1  0
 14 15  1  0
 14 22  1  0
 14 23  1  0
 15 24  1  0
 15 25  1  0
 15 26  1  0
M  RAD  1  11   2
M  END
>  <reaction>  (15) 
rmg_rxn_275

>  <mol_properties>  (15) 
{"2": {"label": "*0", "atom_type": "N3d"}, "3": {"label": "*1", "atom_type": "O2s"}, "8": {"label": "*2", "atom_type": "H0"}, "10": {"label": "*3", "atom_type": "Cs"}, "11": {"label": "*4", "atom_type": "O2s"}}

>  <type>  (15) 
unop_11

>  <geom_source>  (15) 
Heuristics

$$$$

     RDKit          3D

 26 24  0  0  0  0  0  0  0  0999 V2000
   -0.2017   -2.8266   -2.6269 C   0  0  0  0  0  0  0  0  0  0  0  0
   -0.2017   -2.8266   -1.1382 C   0  0  0  0  0  0  0  0  0  0  0  0
   -0.2017   -1.7345   -0.5014 N   0  0  0  0  0  0  0  0  0  0  0  0
   -0.2017   -1.9392    0.8718 O   0  0  0  0  0  0  0  0  0  0  0  0
    0.6777   -3.3504   -3.0087 H   0  0  0  0  0  0  0  0  0  0  0  0
   -1.0812   -3.3504   -3.0087 H   0  0  0  0  0  0  0  0  0  0  0  0
   -0.2017   -1.8069   -3.0083 H   0  0  0  0  0  0  0  0  0  0  0  0
   -0.2018   -3.7741   -0.5981 H   0  0  0  0  0  0  0  0  0  0  0  0
   -0.2017   -0.8695    1.2951 H   0  0  0  0  0  0  0  0  0  0  0  0
   -1.4245    0.5863    2.6390 C   0  0  0  0  0  0  0  0  0  0  0  0
   -0.2017    0.3580    1.7810 C   0  0  0  0  0  3  0  0  0  0  0  0
   -0.2017    1.2894    0.7293 O   0  0  0  0  0  0  0  0  0  0  0  0
    0.9029    1.1588   -0.1295 C   0  0  0  0  0  0  0  0  0  0  0  0
    0.8339    2.2265   -1.2022 C   0  0  0  0  0  0  0  0  0  0  0  0
    0.9270    3.6410   -0.6457 C   0  0  0  0  0  0  0  0  0  0  0  0
   -2.3336    0.4629    2.0493 H   0  0  0  0  0  0  0  0  0  0  0  0
   -1.4463   -0.1276    3.4638 H   0  0  0  0  0  0  0  0  0  0  0  0
   -1.4176    1.5950    3.0535 H   0  0  0  0  0  0  0  0  0  0  0  0
    0.7143    0.4689    2.3798 H   0  0  0  0  0  0  0  0  0  0  0  0
    1.8378    1.2595    0.4443 H   0  0  0  0  0  0  0  0  0  0  0  0
    0.9062    0.1585   -0.5869 H   0  0  0  0  0  0  0  0  0  0  0  0
    1.6483    2.0459   -1.9092 H   0  0  0  0  0  0  0  0  0  0  0  0
   -0.1000    2.1020   -1.7563 H   0  0  0  0  0  0  0  0  0  0  0  0
    1.8676    3.7874   -0.1089 H   0  0  0  0  0  0  0  0  0  0  0  0
    0.8794    4.3816   -1.4454 H   0  0  0  0  0  0  0  0  0  0  0  0
    0.1107    3.8370    0.0495 H   0  0  0  0  0  0  0  0  0  0  0  0
  1  2  1  0
  1  5  1  0
  1  6  1  0
  1  7  1  0
  2  3  2  3
  2  8  1  0
  3  4  1  0
  4  9  1  0
 10 11  1  0
 10 16  1  0
 10 17  1  0
 10 18  1  0
 11 12  1  0
 11 19  1  0
 12 13  1  0
 13 14  1  0
 13 20  1  0
 13 21  1  0
 14 15  1  0
 14 22  1  0
 14 23  1  0
 15 24  1  0
 15 25  1  0
 15 26  1  0
M  RAD  1  11   2
M  END
>  <reaction>  (16) 
rmg_rxn_275

>  <mol_properties>  (16) 
{"2": {"label": "*0", "atom_type": "N3d"}, "3": {"label": "*1", "atom_type": "O2s"}, "8": {"label": "*2", "atom_type": "H0"}, "10": {"label": "*3", "atom_type": "Cs"}, "11": {"label": "*4", "atom_type": "O2s"}}

>  <type>  (16) 
unop_12

>  <geom_source>  (16) 
Heuristics

$$$$

     RDKit          3D

 26 24  0  0  0  0  0  0  0  0999 V2000
   -1.2964   -1.2281   -0.7124 O   0  0  0  0  0  0  0  0  0  0  0  0
    1.3587    0.4809   -0.3990 O   0  0  0  0  0  1  0  0  0  0  0  0
    2.3447    0.8441   -1.2883 N   0  0  0  0  0  2  0  0  0  0  0  0
   -2.8759    0.2499    0.3632 C   0  0  0  0  0  0  0  0  0  0  0  0
   -1.7587    0.1087   -0.6750 C   0  0  0  0  0  0  0  0  0  0  0  0
   -0.1325   -1.3681    0.0740 C   0  0  0  0  0  0  0  0  0  0  0  0
   -3.4542    1.6621    0.3674 C   0  0  0  0  0  0  0  0  0  0  0  0
    0.2887   -2.8285    0.0892 C   0  0  0  0  0  0  0  0  0  0  0  0
    3.9475    1.0367    0.5429 C   0  0  0  0  0  0  0  0  0  0  0  0
    3.5520    1.1093   -0.8982 C   0  0  0  0  0  3  0  0  0  0  0  0
   -3.6875   -0.4741    0.1332 H   0  0  0  0  0  0  0  0  0  0  0  0
   -2.4796    0.0204    1.3753 H   0  0  0  0  0  0  0  0  0  0  0  0
   -0.3156   -1.0453    1.1239 H   0  0  0  0  0  0  0  0  0  0  0  0
    0.8120   -0.6899   -0.4179 H   0  0  0  0  0  0  0  0  0  0  0  0
   -0.9522    0.8566   -0.4818 H   0  0  0  0  0  0  0  0  0  0  0  0
   -2.1745    0.3486   -1.6770 H   0  0  0  0  0  0  0  0  0  0  0  0
    0.4974   -3.1730   -0.9456 H   0  0  0  0  0  0  0  0  0  0  0  0
    1.2083   -2.9459    0.7001 H   0  0  0  0  0  0  0  0  0  0  0  0
   -0.5188   -3.4528    0.5272 H   0  0  0  0  0  0  0  0  0  0  0  0
   -4.2598    1.7315    1.1283 H   0  0  0  0  0  0  0  0  0  0  0  0
   -2.6640    2.4016    0.6183 H   0  0  0  0  0  0  0  0  0  0  0  0
   -3.8835    1.9067   -0.6276 H   0  0  0  0  0  0  0  0  0  0  0  0
    5.0202    1.3013    0.6511 H   0  0  0  0  0  0  0  0  0  0  0  0
    3.3397    1.7504    1.1378 H   0  0  0  0  0  0  0  0  0  0  0  0
    3.7912    0.0065    0.9260 H   0  0  0  0  0  0  0  0  0  0  0  0
    4.2931    1.3906   -1.6349 H   0  0  0  0  0  0  0  0  0  0  0  0
  1  5  1  0
  1  6  1  0
  2  3  1  0
  3 10  1  0
  4  5  1  0
  4 12  1  0
  4 11  1  0
  4  7  1  0
  5 16  1  0
  5 15  1  0
  6 13  1  0
  6 14  1  0
  6  8  1  0
  7 22  1  0
  7 21  1  0
  7 20  1  0
  8 19  1  0
  8 17  1  0
  8 18  1  0
  9 25  1  0
  9 23  1  0
  9 24  1  0
  9 10  1  0
 10 26  1  0
M  RAD  3   2   2   3   2  10   2
M  END
>  <reaction>  (17) 
rmg_rxn_275

>  <mol_properties>  (17) 
{"2": {"label": "*0", "atom_type": "N3d"}, "3": {"label": "*1", "atom_type": "O2s"}, "8": {"label": "*2", "atom_type": "H0"}, "10": {"label": "*3", "atom_type": "Cs"}, "11": {"label": "*4", "atom_type": "O2s"}}

>  <type>  (17) 
unop_13

>  <geom_source>  (17) 
AutoTST

$$$$

     RDKit          3D

 26 24  0  0  0  0  0  0  0  0999 V2000
    0.3137   -2.8582   -2.7008 C   0  0  0  0  0  0  0  0  0  0  0  0
    0.3137   -2.8582   -1.2121 C   0  0  0  0  0  0  0  0  0  0  0  0
    0.3137   -1.7661   -0.5753 N   0  0  0  0  0  0  0  0  0  0  0  0
    0.3137   -1.9708    0.7979 O   0  0  0  0  0  0  0  0  0  0  0  0
    1.1931   -3.3820   -3.0826 H   0  0  0  0  0  0  0  0  0  0  0  0
   -0.5657   -3.3820   -3.0826 H   0  0  0  0  0  0  0  0  0  0  0  0
    0.3137   -1.8385   -3.0822 H   0  0  0  0  0  0  0  0  0  0  0  0
    0.3137   -3.8057   -0.6720 H   0  0  0  0  0  0  0  0  0  0  0  0
    0.3137   -0.9011    1.2213 H   0  0  0  0  0  0  0  0  0  0  0  0
   -0.6054    0.0164    2.8658 C   0  0  0  0  0  0  0  0  0  0  0  0
    0.3137    0.3264    1.7071 C   0  0  0  0  0  3  0  0  0  0  0  0
   -0.3466    1.1928    0.8200 O   0  0  0  0  0  0  0  0  0  0  0  0
    0.4306    1.5432   -0.2973 C   0  0  0  0  0  0  0  0  0  0  0  0
   -0.3494    2.5056   -1.1695 C   0  0  0  0  0  0  0  0  0  0  0  0
   -0.6640    3.8233   -0.4739 C   0  0  0  0  0  0  0  0  0  0  0  0
   -1.5198   -0.4605    2.5113 H   0  0  0  0  0  0  0  0  0  0  0  0
   -0.1130   -0.6569    3.5693 H   0  0  0  0  0  0  0  0  0  0  0  0
   -0.8768    0.9314    3.3937 H   0  0  0  0  0  0  0  0  0  0  0  0
    1.2417    0.7947    2.0670 H   0  0  0  0  0  0  0  0  0  0  0  0
    1.3720    2.0103    0.0327 H   0  0  0  0  0  0  0  0  0  0  0  0
    0.6957    0.6409   -0.8677 H   0  0  0  0  0  0  0  0  0  0  0  0
    0.2357    2.6883   -2.0750 H   0  0  0  0  0  0  0  0  0  0  0  0
   -1.2752    2.0168   -1.4839 H   0  0  0  0  0  0  0  0  0  0  0  0
    0.2543    4.3350   -0.1750 H   0  0  0  0  0  0  0  0  0  0  0  0
   -1.2204    4.4919   -1.1325 H   0  0  0  0  0  0  0  0  0  0  0  0
   -1.2601    3.6539    0.4227 H   0  0  0  0  0  0  0  0  0  0  0  0
  1  2  1  0
  1  5  1  0
  1  6  1  0
  1  7  1  0
  2  3  2  3
  2  8  1  0
  3  4  1  0
  4  9  1  0
 10 11  1  0
 10 16  1  0
 10 17  1  0
 10 18  1  0
 11 12  1  0
 11 19  1  0
 12 13  1  0
 13 14  1  0
 13 20  1  0
 13 21  1  0
 14 15  1  0
 14 22  1  0
 14 23  1  0
 15 24  1  0
 15 25  1  0
 15 26  1  0
M  RAD  1  11   2
M  END
>  <reaction>  (18) 
rmg_rxn_275

>  <mol_properties>  (18) 
{"2": {"label": "*0", "atom_type": "N3d"}, "3": {"label": "*1", "atom_type": "O2s"}, "8": {"label": "*2", "atom_type": "H0"}, "10": {"label": "*3", "atom_type": "Cs"}, "11": {"label": "*4", "atom_type": "O2s"}}

>  <type>  (18) 
unop_14

>  <geom_source>  (18) 
gaussian_log

$$$$
