
     RDKit          3D

 18 17  0  0  0  0  0  0  0  0999 V2000
    2.2026   -0.7213   -0.2612 C   0  0  0  0  0  0  0  0  0  0  0  0
    1.5384    0.2638    0.6915 C   0  0  0  0  0  0  0  0  0  0  0  0
    2.2584    1.5946    0.7694 C   0  0  0  0  0  0  0  0  0  0  0  0
    2.2212    2.2185   -0.4893 O   0  0  0  0  0  0  0  0  0  0  0  0
    2.8988    3.4488   -0.5204 C   0  0  0  0  0  0  0  0  0  0  0  0
    2.7981    4.0296   -1.9118 C   0  0  0  0  0  0  0  0  0  0  0  0
    3.2294   -0.9309    0.0486 H   0  0  0  0  0  0  0  0  0  0  0  0
    2.2338   -0.3181   -1.2734 H   0  0  0  0  0  0  0  0  0  0  0  0
    1.6610   -1.6680   -0.2875 H   0  0  0  0  0  0  0  0  0  0  0  0
    1.4990   -0.1566    1.7002 H   0  0  0  0  0  0  0  0  0  0  0  0
    0.5055    0.4455    0.3835 H   0  0  0  0  0  0  0  0  0  0  0  0
    3.3038    1.4410    1.0808 H   0  0  0  0  0  0  0  0  0  0  0  0
    1.7844    2.2410    1.5226 H   0  0  0  0  0  0  0  0  0  0  0  0
    2.4596    4.1376    0.2164 H   0  0  0  0  0  0  0  0  0  0  0  0
    3.9524    3.3035   -0.2397 H   0  0  0  0  0  0  0  0  0  0  0  0
    1.7543    4.1869   -2.1856 H   0  0  0  0  0  0  0  0  0  0  0  0
    3.2472    3.3545   -2.6411 H   0  0  0  0  0  0  0  0  0  0  0  0
    3.3178    4.9878   -1.9600 H   0  0  0  0  0  0  0  0  0  0  0  0
  1  2  1  0
  1  7  1  0
  1  8  1  0
  1  9  1  0
  2  3  1  0
  2 10  1  0
  2 11  1  0
  3  4  1  0
  3 12  1  0
  3 13  1  0
  4  5  1  0
  5  6  1  0
  5 14  1  0
  5 15  1  0
  6 16  1  0
  6 17  1  0
  6 18  1  0
M  END
>  <reaction>  (1) 
rmg_rxn_15422

>  <mol_properties>  (1) 
{"0": {"label": "donator", "atom_type": "Cs"}, "6": {"label": "d_hydrogen", "atom_type": "H0"}}

>  <type>  (1) 
r1h

$$$$

     RDKit          3D

  5  4  0  0  0  0  0  0  0  0999 V2000
    0.8934    0.3742    0.4948 O   0  0  0  0  0  0  0  0  0  0  0  0
    0.1582   -0.1610   -0.5904 N   0  0  0  0  0  0  0  0  0  0  0  0
   -1.0297   -0.3739   -0.4689 C   0  0  0  0  0  3  0  0  0  0  0  0
    1.7804    0.4382    0.1306 H   0  0  0  0  0  0  0  0  0  0  0  0
   -1.8023   -0.2775    0.2859 H   0  0  0  0  0  0  0  0  0  0  0  0
  1  2  1  0
  1  4  1  0
  2  3  2  3
  3  5  1  0
M  RAD  1   3   2
M  END
>  <reaction>  (2) 
rmg_rxn_15422

>  <mol_properties>  (2) 
{"2": {"label": "acceptor", "atom_type": "Cd"}}

>  <type>  (2) 
r2

$$$$

     RDKit          3D

  6  5  0  0  0  0  0  0  0  0999 V2000
    1.2314    0.0428    0.5088 O   0  0  0  0  0  0  0  0  0  0  0  0
    0.2987    0.2341   -0.4915 N   0  0  0  0  0  0  0  0  0  0  0  0
   -0.8599   -0.1122   -0.1290 C   0  0  0  0  0  0  0  0  0  0  0  0
    2.0507    0.3401    0.1082 H   0  0  0  0  0  0  0  0  0  0  0  0
   -1.0700   -0.5112    0.8610 H   0  0  0  0  0  0  0  0  0  0  0  0
   -1.6509    0.0064   -0.8574 H   0  0  0  0  0  0  0  0  0  0  0  0
  1  2  1  0
  1  4  1  0
  2  3  2  3
  3  5  1  0
  3  6  1  0
M  END
>  <reaction>  (3) 
rmg_rxn_15422

>  <mol_properties>  (3) 
{"2": {"label": "acceptor", "atom_type": "Cd"}, "5": {"label": "a_hydrogen", "atom_type": "H0"}}

>  <type>  (3) 
r2h

$$$$

     RDKit          3D

 23 21  0  0  0  0  0  0  0  0999 V2000
   -2.9912   -0.7091    0.2978 O   0  0  0  0  0  0  0  0  0  0  0  0
   -1.6896   -1.2136    0.4695 N   0  0  0  0  0  0  0  0  0  0  0  0
   -1.0201   -1.2307   -0.5790 C   0  0  0  0  0  3  0  0  0  0  0  0
   -3.3594   -0.7702    1.1820 H   0  0  0  0  0  0  0  0  0  0  0  0
   -1.3200   -0.8961   -1.5708 H   0  0  0  0  0  0  0  0  0  0  0  0
    1.5221   -1.9102   -0.1428 C   0  0  0  0  0  0  0  0  0  0  0  0
    2.1218   -0.7715    0.6409 C   0  0  0  0  0  0  0  0  0  0  0  0
    2.2411    0.5243   -0.1552 C   0  0  0  0  0  0  0  0  0  0  0  0
    1.0127    1.0590   -0.5849 O   0  0  0  0  0  0  0  0  0  0  0  0
    0.2770    1.7128    0.4263 C   0  0  0  0  0  0  0  0  0  0  0  0
   -0.9366    2.3615   -0.1971 C   0  0  0  0  0  0  0  0  0  0  0  0
    0.3018   -1.6225   -0.4025 H   0  0  0  0  0  0  0  0  0  0  0  0
    1.4369   -2.8428    0.4122 H   0  0  0  0  0  0  0  0  0  0  0  0
    1.9704   -2.0665   -1.1246 H   0  0  0  0  0  0  0  0  0  0  0  0
    3.1320   -1.0449    0.9694 H   0  0  0  0  0  0  0  0  0  0  0  0
    1.5442   -0.6038    1.5539 H   0  0  0  0  0  0  0  0  0  0  0  0
    2.8186    0.3388   -1.0646 H   0  0  0  0  0  0  0  0  0  0  0  0
    2.7860    1.2713    0.4386 H   0  0  0  0  0  0  0  0  0  0  0  0
   -0.0379    1.0007    1.1990 H   0  0  0  0  0  0  0  0  0  0  0  0
    0.9137    2.4689    0.9081 H   0  0  0  0  0  0  0  0  0  0  0  0
   -1.4937    2.9157    0.5600 H   0  0  0  0  0  0  0  0  0  0  0  0
   -1.6017    1.6089   -0.6215 H   0  0  0  0  0  0  0  0  0  0  0  0
   -0.6383    3.0531   -0.9860 H   0  0  0  0  0  0  0  0  0  0  0  0
  1  2  1  0
  1  4  1  0
  2  3  2  3
  3  5  1  0
  6  7  1  0
  6 12  1  0
  6 13  1  0
  6 14  1  0
  7  8  1  0
  7 15  1  0
  7 16  1  0
  8  9  1  0
  8 17  1  0
  8 18  1  0
  9 10  1  0
 10 11  1  0
 10 19  1  0
 10 20  1  0
 11 21  1  0
 11 22  1  0
 11 23  1  0
M  RAD  1   3   2
M  END
>  <reaction>  (4) 
rmg_rxn_15422

>  <mol_properties>  (4) 
{"1": {"label": "*4", "atom_type": "N3d"}, "2": {"label": "*3", "atom_type": "Cd"}, "5": {"label": "*1", "atom_type": "Cs"}, "6": {"label": "*0", "atom_type": "Cs"}, "11": {"label": "*2", "atom_type": "H0"}}

>  <type>  (4) 
ts

$$$$

     RDKit          3D

 23 21  0  0  0  0  0  0  0  0999 V2000
    2.9564   -0.6035   -0.1229 O   0  0  0  0  0  0  0  0  0  0  0  0
    1.6523   -1.1410   -0.2756 N   0  0  0  0  0  0  0  0  0  0  0  0
    0.8833   -1.2040    0.6877 C   0  0  0  0  0  3  0  0  0  0  0  0
    3.3498   -0.6830   -1.0022 H   0  0  0  0  0  0  0  0  0  0  0  0
    1.0051   -0.8997    1.7173 H   0  0  0  0  0  0  0  0  0  0  0  0
   -1.5387   -1.9581    0.0230 C   0  0  0  0  0  0  0  0  0  0  0  0
   -2.1682   -0.7612   -0.6376 C   0  0  0  0  0  0  0  0  0  0  0  0
   -2.1365    0.4800    0.2663 C   0  0  0  0  0  0  0  0  0  0  0  0
   -0.8476    0.9646    0.5515 O   0  0  0  0  0  0  0  0  0  0  0  0
   -0.2272    1.6755   -0.5003 C   0  0  0  0  0  0  0  0  0  0  0  0
    1.0015    2.3815    0.0516 C   0  0  0  0  0  0  0  0  0  0  0  0
   -0.3221   -1.6181    0.3620 H   0  0  0  0  0  0  0  0  0  0  0  0
   -1.4183   -2.8063   -0.6400 H   0  0  0  0  0  0  0  0  0  0  0  0
   -2.0208   -2.2363    0.9538 H   0  0  0  0  0  0  0  0  0  0  0  0
   -3.2189   -0.9673   -0.8738 H   0  0  0  0  0  0  0  0  0  0  0  0
   -1.6567   -0.5441   -1.5773 H   0  0  0  0  0  0  0  0  0  0  0  0
   -2.5669    0.2296    1.2406 H   0  0  0  0  0  0  0  0  0  0  0  0
   -2.7428    1.2785   -0.1902 H   0  0  0  0  0  0  0  0  0  0  0  0
    0.0691    0.9905   -1.3078 H   0  0  0  0  0  0  0  0  0  0  0  0
   -0.9354    2.4111   -0.9146 H   0  0  0  0  0  0  0  0  0  0  0  0
    0.7175    3.0300    0.8758 H   0  0  0  0  0  0  0  0  0  0  0  0
    1.4674    2.9765   -0.7292 H   0  0  0  0  0  0  0  0  0  0  0  0
    1.7176    1.6514    0.4163 H   0  0  0  0  0  0  0  0  0  0  0  0
  1  2  1  0
  1  4  1  0
  2  3  2  3
  3  5  1  0
  6  7  1  0
  6 12  1  0
  6 13  1  0
  6 14  1  0
  7  8  1  0
  7 15  1  0
  7 16  1  0
  8  9  1  0
  8 17  1  0
  8 18  1  0
  9 10  1  0
 10 11  1  0
 10 19  1  0
 10 20  1  0
 11 21  1  0
 11 22  1  0
 11 23  1  0
M  RAD  1   3   2
M  END
>  <reaction>  (5) 
rmg_rxn_15422

>  <mol_properties>  (5) 
{"1": {"label": "*4", "atom_type": "N3d"}, "2": {"label": "*3", "atom_type": "Cd"}, "5": {"label": "*1", "atom_type": "Cs"}, "6": {"label": "*0", "atom_type": "Cs"}, "11": {"label": "*2", "atom_type": "H0"}}

>  <type>  (5) 
unop_1

>  <geom_source>  (5) 
crest_best.xyz

$$$$

     RDKit          3D

 23 21  0  0  0  0  0  0  0  0999 V2000
   -3.8503    1.0192    1.6971 O   0  0  0  0  0  0  0  0  0  0  0  0
   -2.5069    1.2151    1.9497 N   0  0  0  0  0  0  0  0  0  0  0  0
   -1.7783    0.4859    1.2211 C   0  0  0  0  0  0  0  0  0  0  0  0
   -4.2810    1.6223    2.3061 H   0  0  0  0  0  0  0  0  0  0  0  0
   -2.1876   -0.2065    0.4885 H   0  0  0  0  0  0  0  0  0  0  0  0
    0.3354    1.6116    0.1841 C   0  0  0  0  0  3  0  0  0  0  0  0
    1.6053    0.9043    0.6384 C   0  0  0  0  0  0  0  0  0  0  0  0
    1.6449   -0.5586    0.2466 C   0  0  0  0  0  0  0  0  0  0  0  0
    1.6458   -0.6655   -1.1547 O   0  0  0  0  0  0  0  0  0  0  0  0
    1.6458   -1.9942   -1.6110 C   0  0  0  0  0  0  0  0  0  0  0  0
    1.6458   -1.9942   -3.1222 C   0  0  0  0  0  0  0  0  0  0  0  0
   -0.7268    1.0459    0.7052 H   0  0  0  0  0  0  0  0  0  0  0  0
    0.2381    1.5713   -0.9008 H   0  0  0  0  0  0  0  0  0  0  0  0
    0.3394    2.6594    0.4878 H   0  0  0  0  0  0  0  0  0  0  0  0
    1.7004    0.9637    1.7262 H   0  0  0  0  0  0  0  0  0  0  0  0
    2.4828    1.4007    0.2162 H   0  0  0  0  0  0  0  0  0  0  0  0
    0.7709   -1.0849    0.6620 H   0  0  0  0  0  0  0  0  0  0  0  0
    2.5433   -1.0399    0.6601 H   0  0  0  0  0  0  0  0  0  0  0  0
    2.5307   -2.5229   -1.2266 H   0  0  0  0  0  0  0  0  0  0  0  0
    0.7609   -2.5224   -1.2265 H   0  0  0  0  0  0  0  0  0  0  0  0
    2.5299   -1.4827   -3.5043 H   0  0  0  0  0  0  0  0  0  0  0  0
    0.7610   -1.4838   -3.5043 H   0  0  0  0  0  0  0  0  0  0  0  0
    1.6464   -3.0177   -3.5003 H   0  0  0  0  0  0  0  0  0  0  0  0
  1  2  1  0
  1  4  1  0
  2  3  2  3
  3  5  1  0
  3 12  1  0
  6  7  1  0
  6 13  1  0
  6 14  1  0
  7  8  1  0
  7 15  1  0
  7 16  1  0
  8  9  1  0
  8 17  1  0
  8 18  1  0
  9 10  1  0
 10 11  1  0
 10 19  1  0
 10 20  1  0
 11 21  1  0
 11 22  1  0
 11 23  1  0
M  RAD  1   6   2
M  END
>  <reaction>  (6) 
rmg_rxn_15422

>  <mol_properties>  (6) 
{"1": {"label": "*4", "atom_type": "N3d"}, "2": {"label": "*3", "atom_type": "Cd"}, "5": {"label": "*1", "atom_type": "Cs"}, "6": {"label": "*0", "atom_type": "Cs"}, "11": {"label": "*2", "atom_type": "H0"}}

>  <type>  (6) 
unop_2

>  <geom_source>  (6) 
Heuristics

$$$$

     RDKit          3D

 23 21  0  0  0  0  0  0  0  0999 V2000
   -3.0648    0.0341    2.7716 O   0  0  0  0  0  0  0  0  0  0  0  0
   -1.8554    0.2424    2.1382 N   0  0  0  0  0  0  0  0  0  0  0  0
   -2.0018    0.7868    1.0088 C   0  0  0  0  0  0  0  0  0  0  0  0
   -2.8131   -0.3766    3.6011 H   0  0  0  0  0  0  0  0  0  0  0  0
   -2.9778    1.0502    0.6065 H   0  0  0  0  0  0  0  0  0  0  0  0
    0.1119    1.9126   -0.0282 C   0  0  0  0  0  3  0  0  0  0  0  0
    1.3818    1.2053    0.4261 C   0  0  0  0  0  0  0  0  0  0  0  0
    1.4213   -0.2576    0.0343 C   0  0  0  0  0  0  0  0  0  0  0  0
    1.4223   -0.3645   -1.3670 O   0  0  0  0  0  0  0  0  0  0  0  0
    1.4223   -1.6932   -1.8234 C   0  0  0  0  0  0  0  0  0  0  0  0
    1.4223   -1.6932   -3.3345 C   0  0  0  0  0  0  0  0  0  0  0  0
   -0.9503    1.3468    0.4929 H   0  0  0  0  0  0  0  0  0  0  0  0
    0.0146    1.8723   -1.1131 H   0  0  0  0  0  0  0  0  0  0  0  0
    0.1159    2.9604    0.2755 H   0  0  0  0  0  0  0  0  0  0  0  0
    1.4769    1.2647    1.5139 H   0  0  0  0  0  0  0  0  0  0  0  0
    2.2593    1.7017    0.0039 H   0  0  0  0  0  0  0  0  0  0  0  0
    0.5474   -0.7839    0.4497 H   0  0  0  0  0  0  0  0  0  0  0  0
    2.3198   -0.7389    0.4478 H   0  0  0  0  0  0  0  0  0  0  0  0
    2.3072   -2.2219   -1.4389 H   0  0  0  0  0  0  0  0  0  0  0  0
    0.5374   -2.2214   -1.4388 H   0  0  0  0  0  0  0  0  0  0  0  0
    2.3064   -1.1817   -3.7166 H   0  0  0  0  0  0  0  0  0  0  0  0
    0.5375   -1.1828   -3.7166 H   0  0  0  0  0  0  0  0  0  0  0  0
    1.4229   -2.7167   -3.7126 H   0  0  0  0  0  0  0  0  0  0  0  0
  1  2  1  0
  1  4  1  0
  2  3  2  3
  3  5  1  0
  3 12  1  0
  6  7  1  0
  6 13  1  0
  6 14  1  0
  7  8  1  0
  7 15  1  0
  7 16  1  0
  8  9  1  0
  8 17  1  0
  8 18  1  0
  9 10  1  0
 10 11  1  0
 10 19  1  0
 10 20  1  0
 11 21  1  0
 11 22  1  0
 11 23  1  0
M  RAD  1   6   2
M  END
>  <reaction>  (7) 
rmg_rxn_15422

>  <mol_properties>  (7) 
{"1": {"label": "*4", "atom_type": "N3d"}, "2": {"label": "*3", "atom_type": "Cd"}, "5": {"label": "*1", "atom_type": "Cs"}, "6": {"label": "*0", "atom_type": "Cs"}, "11": {"label": "*2", "atom_type": "H0"}}

>  <type>  (7) 
unop_3

>  <geom_source>  (7) 
Heuristics

$$$$

     RDKit          3D

 23 21  0  0  0  0  0  0  0  0999 V2000
   -3.9256    0.6225    1.3762 O   0  0  0  0  0  0  0  0  0  0  0  0
   -2.7299    1.2937    1.5401 N   0  0  0  0  0  0  0  0  0  0  0  0
   -1.7356    0.5445    1.3314 C   0  0  0  0  0  0  0  0  0  0  0  0
   -4.5845    1.2946    1.5609 H   0  0  0  0  0  0  0  0  0  0  0  0
   -1.8379   -0.5030    1.0562 H   0  0  0  0  0  0  0  0  0  0  0  0
    0.3781    1.6702    0.2945 C   0  0  0  0  0  3  0  0  0  0  0  0
    1.6480    0.9630    0.7488 C   0  0  0  0  0  0  0  0  0  0  0  0
    1.6876   -0.4999    0.3570 C   0  0  0  0  0  0  0  0  0  0  0  0
    1.6886   -0.6069   -1.0443 O   0  0  0  0  0  0  0  0  0  0  0  0
    1.6886   -1.9355   -1.5007 C   0  0  0  0  0  0  0  0  0  0  0  0
    1.6886   -1.9355   -3.0118 C   0  0  0  0  0  0  0  0  0  0  0  0
   -0.6841    1.1045    0.8156 H   0  0  0  0  0  0  0  0  0  0  0  0
    0.2809    1.6300   -0.7904 H   0  0  0  0  0  0  0  0  0  0  0  0
    0.3822    2.7181    0.5982 H   0  0  0  0  0  0  0  0  0  0  0  0
    1.7432    1.0223    1.8366 H   0  0  0  0  0  0  0  0  0  0  0  0
    2.5256    1.4593    0.3266 H   0  0  0  0  0  0  0  0  0  0  0  0
    0.8136   -1.0263    0.7724 H   0  0  0  0  0  0  0  0  0  0  0  0
    2.5860   -0.9812    0.7705 H   0  0  0  0  0  0  0  0  0  0  0  0
    2.5734   -2.4642   -1.1162 H   0  0  0  0  0  0  0  0  0  0  0  0
    0.8036   -2.4637   -1.1162 H   0  0  0  0  0  0  0  0  0  0  0  0
    2.5727   -1.4240   -3.3939 H   0  0  0  0  0  0  0  0  0  0  0  0
    0.8038   -1.4251   -3.3939 H   0  0  0  0  0  0  0  0  0  0  0  0
    1.6892   -2.9590   -3.3899 H   0  0  0  0  0  0  0  0  0  0  0  0
  1  2  1  0
  1  4  1  0
  2  3  2  3
  3  5  1  0
  3 12  1  0
  6  7  1  0
  6 13  1  0
  6 14  1  0
  7  8  1  0
  7 15  1  0
  7 16  1  0
  8  9  1  0
  8 17  1  0
  8 18  1  0
  9 10  1  0
 10 11  1  0
 10 19  1  0
 10 20  1  0
 11 21  1  0
 11 22  1  0
 11 23  1  0
M  RAD  1   6   2
M  END
>  <reaction>  (8) 
rmg_rxn_15422

>  <mol_properties>  (8) 
{"1": {"label": "*4", "atom_type": "N3d"}, "2": {"label": "*3", "atom_type": "Cd"}, "5": {"label": "*1", "atom_type": "Cs"}, "6": {"label": "*0", "atom_type": "Cs"}, "11": {"label": "*2", "atom_type": "H0"}}

>  <type>  (8) 
unop_4

>  <geom_source>  (8) 
Heuristics

$$$$

     RDKit          3D

 23 21  0  0  0  0  0  0  0  0999 V2000
   -3.4355   -0.5741    1.0963 O   0  0  0  0  0  0  0  0  0  0  0  0
   -2.0925   -0.2574    1.1522 N   0  0  0  0  0  0  0  0  0  0  0  0
   -1.9057    0.9593    1.4318 C   0  0  0  0  0  0  0  0  0  0  0  0
   -3.4345   -1.5085    0.8797 H   0  0  0  0  0  0  0  0  0  0  0  0
   -2.7249    1.6542    1.6036 H   0  0  0  0  0  0  0  0  0  0  0  0
    0.2080    2.0850    0.3948 C   0  0  0  0  0  3  0  0  0  0  0  0
    1.4779    1.3777    0.8492 C   0  0  0  0  0  0  0  0  0  0  0  0
    1.5175   -0.0852    0.4573 C   0  0  0  0  0  0  0  0  0  0  0  0
    1.5184   -0.1921   -0.9439 O   0  0  0  0  0  0  0  0  0  0  0  0
    1.5184   -1.5207   -1.4003 C   0  0  0  0  0  0  0  0  0  0  0  0
    1.5184   -1.5207   -2.9114 C   0  0  0  0  0  0  0  0  0  0  0  0
   -0.8542    1.5193    0.9159 H   0  0  0  0  0  0  0  0  0  0  0  0
    0.1108    2.0448   -0.6900 H   0  0  0  0  0  0  0  0  0  0  0  0
    0.2121    3.1329    0.6985 H   0  0  0  0  0  0  0  0  0  0  0  0
    1.5730    1.4371    1.9369 H   0  0  0  0  0  0  0  0  0  0  0  0
    2.3555    1.8741    0.4269 H   0  0  0  0  0  0  0  0  0  0  0  0
    0.6435   -0.6115    0.8728 H   0  0  0  0  0  0  0  0  0  0  0  0
    2.4159   -0.5665    0.8709 H   0  0  0  0  0  0  0  0  0  0  0  0
    2.4033   -2.0495   -1.0159 H   0  0  0  0  0  0  0  0  0  0  0  0
    0.6335   -2.0490   -1.0158 H   0  0  0  0  0  0  0  0  0  0  0  0
    2.4026   -1.0093   -3.2936 H   0  0  0  0  0  0  0  0  0  0  0  0
    0.6336   -1.0104   -3.2936 H   0  0  0  0  0  0  0  0  0  0  0  0
    1.5190   -2.5443   -3.2895 H   0  0  0  0  0  0  0  0  0  0  0  0
  1  2  1  0
  1  4  1  0
  2  3  2  3
  3  5  1  0
  3 12  1  0
  6  7  1  0
  6 13  1  0
  6 14  1  0
  7  8  1  0
  7 15  1  0
  7 16  1  0
  8  9  1  0
  8 17  1  0
  8 18  1  0
  9 10  1  0
 10 11  1  0
 10 19  1  0
 10 20  1  0
 11 21  1  0
 11 22  1  0
 11 23  1  0
M  RAD  1   6   2
M  END
>  <reaction>  (9) 
rmg_rxn_15422

>  <mol_properties>  (9) 
{"1": {"label": "*4", "atom_type": "N3d"}, "2": {"label": "*3", "atom_type": "Cd"}, "5": {"label": "*1", "atom_type": "Cs"}, "6": {"label": "*0", "atom_type": "Cs"}, "11": {"label": "*2", "atom_type": "H0"}}

>  <type>  (9) 
unop_5

>  <geom_source>  (9) 
Heuristics

$$$$

     RDKit          3D

 23 21  0  0  0  0  0  0  0  0999 V2000
   -3.8924    0.4374    1.6433 O   0  0  0  0  0  0  0  0  0  0  0  0
   -2.8426    1.1050    1.0438 N   0  0  0  0  0  0  0  0  0  0  0  0
   -1.7264    0.6019    1.3509 C   0  0  0  0  0  0  0  0  0  0  0  0
   -4.6649    0.9130    1.3316 H   0  0  0  0  0  0  0  0  0  0  0  0
   -1.6319   -0.2567    2.0123 H   0  0  0  0  0  0  0  0  0  0  0  0
    0.3873    1.7276    0.3139 C   0  0  0  0  0  3  0  0  0  0  0  0
    1.6572    1.0203    0.7683 C   0  0  0  0  0  0  0  0  0  0  0  0
    1.6968   -0.4426    0.3764 C   0  0  0  0  0  0  0  0  0  0  0  0
    1.6978   -0.5495   -1.0249 O   0  0  0  0  0  0  0  0  0  0  0  0
    1.6978   -1.8781   -1.4812 C   0  0  0  0  0  0  0  0  0  0  0  0
    1.6978   -1.8781   -2.9924 C   0  0  0  0  0  0  0  0  0  0  0  0
   -0.6749    1.1619    0.8350 H   0  0  0  0  0  0  0  0  0  0  0  0
    0.2901    1.6874   -0.7710 H   0  0  0  0  0  0  0  0  0  0  0  0
    0.3914    2.7755    0.6176 H   0  0  0  0  0  0  0  0  0  0  0  0
    1.7524    1.0797    1.8560 H   0  0  0  0  0  0  0  0  0  0  0  0
    2.5348    1.5167    0.3460 H   0  0  0  0  0  0  0  0  0  0  0  0
    0.8228   -0.9689    0.7918 H   0  0  0  0  0  0  0  0  0  0  0  0
    2.5952   -0.9239    0.7899 H   0  0  0  0  0  0  0  0  0  0  0  0
    2.5826   -2.4069   -1.0968 H   0  0  0  0  0  0  0  0  0  0  0  0
    0.8128   -2.4064   -1.0967 H   0  0  0  0  0  0  0  0  0  0  0  0
    2.5819   -1.3667   -3.3745 H   0  0  0  0  0  0  0  0  0  0  0  0
    0.8130   -1.3678   -3.3745 H   0  0  0  0  0  0  0  0  0  0  0  0
    1.6984   -2.9017   -3.3705 H   0  0  0  0  0  0  0  0  0  0  0  0
  1  2  1  0
  1  4  1  0
  2  3  2  3
  3  5  1  0
  3 12  1  0
  6  7  1  0
  6 13  1  0
  6 14  1  0
  7  8  1  0
  7 15  1  0
  7 16  1  0
  8  9  1  0
  8 17  1  0
  8 18  1  0
  9 10  1  0
 10 11  1  0
 10 19  1  0
 10 20  1  0
 11 21  1  0
 11 22  1  0
 11 23  1  0
M  RAD  1   6   2
M  END
>  <reaction>  (10) 
rmg_rxn_15422

>  <mol_properties>  (10) 
{"1": {"label": "*4", "atom_type": "N3d"}, "2": {"label": "*3", "atom_type": "Cd"}, "5": {"label": "*1", "atom_type": "Cs"}, "6": {"label": "*0", "atom_type": "Cs"}, "11": {"label": "*2", "atom_type": "H0"}}

>  <type>  (10) 
unop_6

>  <geom_source>  (10) 
Heuristics

$$$$

     RDKit          3D

 23 21  0  0  0  0  0  0  0  0999 V2000
   -2.9594   -0.5993    0.1223 O   0  0  0  0  0  0  0  0  0  0  0  0
   -1.6562   -1.1385    0.2753 N   0  0  0  0  0  0  0  0  0  0  0  0
   -0.8864   -1.2009   -0.6874 C   0  0  0  0  0  3  0  0  0  0  0  0
   -3.3540   -0.6803    1.0010 H   0  0  0  0  0  0  0  0  0  0  0  0
   -1.0069   -0.8950   -1.7167 H   0  0  0  0  0  0  0  0  0  0  0  0
    1.5337   -1.9607   -0.0223 C   0  0  0  0  0  0  0  0  0  0  0  0
    2.1674   -0.7654    0.6373 C   0  0  0  0  0  0  0  0  0  0  0  0
    2.1384    0.4756   -0.2670 C   0  0  0  0  0  0  0  0  0  0  0  0
    0.8506    0.9634   -0.5516 O   0  0  0  0  0  0  0  0  0  0  0  0
    0.2320    1.6752    0.5006 C   0  0  0  0  0  0  0  0  0  0  0  0
   -0.9956    2.3837   -0.0505 C   0  0  0  0  0  0  0  0  0  0  0  0
    0.3181   -1.6174   -0.3613 H   0  0  0  0  0  0  0  0  0  0  0  0
    1.4108   -2.8080    0.6415 H   0  0  0  0  0  0  0  0  0  0  0  0
    2.0148   -2.2412   -0.9530 H   0  0  0  0  0  0  0  0  0  0  0  0
    3.2177   -0.9744    0.8725 H   0  0  0  0  0  0  0  0  0  0  0  0
    1.6574   -0.5464    1.5774 H   0  0  0  0  0  0  0  0  0  0  0  0
    2.5675    0.2238   -1.2415 H   0  0  0  0  0  0  0  0  0  0  0  0
    2.7470    1.2728    0.1889 H   0  0  0  0  0  0  0  0  0  0  0  0
   -0.0653    0.9905    1.3081 H   0  0  0  0  0  0  0  0  0  0  0  0
    0.9418    2.4093    0.9148 H   0  0  0  0  0  0  0  0  0  0  0  0
   -1.4611    2.9778    0.7311 H   0  0  0  0  0  0  0  0  0  0  0  0
   -1.7123    1.6550   -0.4168 H   0  0  0  0  0  0  0  0  0  0  0  0
   -0.7105    3.0333   -0.8735 H   0  0  0  0  0  0  0  0  0  0  0  0
  1  2  1  0
  1  4  1  0
  2  3  2  3
  3  5  1  0
  6  7  1  0
  6 12  1  0
  6 13  1  0
  6 14  1  0
  7  8  1  0
  7 15  1  0
  7 16  1  0
  8  9  1  0
  8 17  1  0
  8 18  1  0
  9 10  1  0
 10 11  1  0
 10 19  1  0
 10 20  1  0
 11 21  1  0
 11 22  1  0
 11 23  1  0
M  RAD  1   3   2
M  END
>  <reaction>  (11) 
rmg_rxn_15422

>  <mol_properties>  (11) 
{"1": {"label": "*4", "atom_type": "N3d"}, "2": {"label": "*3", "atom_type": "Cd"}, "5": {"label": "*1", "atom_type": "Cs"}, "6": {"label": "*0", "atom_type": "Cs"}, "11": {"label": "*2", "atom_type": "H0"}}

>  <type>  (11) 
unop_7

>  <geom_source>  (11) 
Heuristics

$$$$

     RDKit          3D

 23 21  0  0  0  0  0  0  0  0999 V2000
   -3.7259   -0.0309    0.8689 O   0  0  0  0  0  0  0  0  0  0  0  0
   -2.3465   -0.0932    0.8474 N   0  0  0  0  0  0  0  0  0  0  0  0
   -1.8213    0.8428    1.5119 C   0  0  0  0  0  0  0  0  0  0  0  0
   -3.9904   -0.7839    0.3368 H   0  0  0  0  0  0  0  0  0  0  0  0
   -2.4104    1.5962    2.0305 H   0  0  0  0  0  0  0  0  0  0  0  0
    0.2924    1.9685    0.4750 C   0  0  0  0  0  3  0  0  0  0  0  0
    1.5623    1.2612    0.9293 C   0  0  0  0  0  0  0  0  0  0  0  0
    1.6018   -0.2017    0.5375 C   0  0  0  0  0  0  0  0  0  0  0  0
    1.6028   -0.3086   -0.8638 O   0  0  0  0  0  0  0  0  0  0  0  0
    1.6028   -1.6372   -1.3202 C   0  0  0  0  0  0  0  0  0  0  0  0
    1.6028   -1.6372   -2.8313 C   0  0  0  0  0  0  0  0  0  0  0  0
   -0.7699    1.4028    0.9961 H   0  0  0  0  0  0  0  0  0  0  0  0
    0.1951    1.9283   -0.6099 H   0  0  0  0  0  0  0  0  0  0  0  0
    0.2964    3.0164    0.7787 H   0  0  0  0  0  0  0  0  0  0  0  0
    1.6574    1.3206    2.0171 H   0  0  0  0  0  0  0  0  0  0  0  0
    2.4398    1.7576    0.5071 H   0  0  0  0  0  0  0  0  0  0  0  0
    0.7279   -0.7280    0.9529 H   0  0  0  0  0  0  0  0  0  0  0  0
    2.5003   -0.6830    0.9510 H   0  0  0  0  0  0  0  0  0  0  0  0
    2.4876   -2.1660   -0.9357 H   0  0  0  0  0  0  0  0  0  0  0  0
    0.7178   -2.1655   -0.9357 H   0  0  0  0  0  0  0  0  0  0  0  0
    2.4869   -1.1257   -3.2134 H   0  0  0  0  0  0  0  0  0  0  0  0
    0.7180   -1.1269   -3.2134 H   0  0  0  0  0  0  0  0  0  0  0  0
    1.6034   -2.6608   -3.2094 H   0  0  0  0  0  0  0  0  0  0  0  0
  1  2  1  0
  1  4  1  0
  2  3  2  3
  3  5  1  0
  3 12  1  0
  6  7  1  0
  6 13  1  0
  6 14  1  0
  7  8  1  0
  7 15  1  0
  7 16  1  0
  8  9  1  0
  8 17  1  0
  8 18  1  0
  9 10  1  0
 10 11  1  0
 10 19  1  0
 10 20  1  0
 11 21  1  0
 11 22  1  0
 11 23  1  0
M  RAD  1   6   2
M  END
>  <reaction>  (12) 
rmg_rxn_15422

>  <mol_properties>  (12) 
{"1": {"label": "*4", "atom_type": "N3d"}, "2": {"label": "*3", "atom_type": "Cd"}, "5": {"label": "*1", "atom_type": "Cs"}, "6": {"label": "*0", "atom_type": "Cs"}, "11": {"label": "*2", "atom_type": "H0"}}

>  <type>  (12) 
unop_8

>  <geom_source>  (12) 
Heuristics

$$$$

     RDKit          3D

 23 21  0  0  0  0  0  0  0  0999 V2000
    2.9581    0.6021   -0.1214 O   0  0  0  0  0  0  0  0  0  0  0  0
    1.6543    1.1393   -0.2758 N   0  0  0  0  0  0  0  0  0  0  0  0
    0.8845    1.2036    0.6868 C   0  0  0  0  0  3  0  0  0  0  0  0
    3.3525    0.6808   -1.0004 H   0  0  0  0  0  0  0  0  0  0  0  0
    1.0056    0.9004    1.7169 H   0  0  0  0  0  0  0  0  0  0  0  0
   -1.5369    1.9591    0.0213 C   0  0  0  0  0  0  0  0  0  0  0  0
   -2.1690    0.7623   -0.6368 C   0  0  0  0  0  0  0  0  0  0  0  0
   -2.1369   -0.4782    0.2682 C   0  0  0  0  0  0  0  0  0  0  0  0
   -0.8480   -0.9636    0.5518 O   0  0  0  0  0  0  0  0  0  0  0  0
   -0.2285   -1.6736   -0.5011 C   0  0  0  0  0  0  0  0  0  0  0  0
    0.9976   -2.3845    0.0503 C   0  0  0  0  0  0  0  0  0  0  0  0
   -0.3206    1.6180    0.3603 H   0  0  0  0  0  0  0  0  0  0  0  0
   -2.0178    2.2396    0.9521 H   0  0  0  0  0  0  0  0  0  0  0  0
   -1.4159    2.8062   -0.6432 H   0  0  0  0  0  0  0  0  0  0  0  0
   -1.6596    0.5435   -1.5773 H   0  0  0  0  0  0  0  0  0  0  0  0
   -3.2199    0.9693   -0.8710 H   0  0  0  0  0  0  0  0  0  0  0  0
   -2.7445   -1.2766   -0.1868 H   0  0  0  0  0  0  0  0  0  0  0  0
   -2.5655   -0.2266    1.2429 H   0  0  0  0  0  0  0  0  0  0  0  0
   -0.9383   -2.4060   -0.9182 H   0  0  0  0  0  0  0  0  0  0  0  0
    0.0707   -0.9872   -1.3064 H   0  0  0  0  0  0  0  0  0  0  0  0
    0.7105   -3.0357    0.8713 H   0  0  0  0  0  0  0  0  0  0  0  0
    1.7143   -1.6573    0.4194 H   0  0  0  0  0  0  0  0  0  0  0  0
    1.4638   -2.9773   -0.7319 H   0  0  0  0  0  0  0  0  0  0  0  0
  1  2  1  0
  1  4  1  0
  2  3  2  3
  3  5  1  0
  6  7  1  0
  6 12  1  0
  6 13  1  0
  6 14  1  0
  7  8  1  0
  7 15  1  0
  7 16  1  0
  8  9  1  0
  8 17  1  0
  8 18  1  0
  9 10  1  0
 10 11  1  0
 10 19  1  0
 10 20  1  0
 11 21  1  0
 11 22  1  0
 11 23  1  0
M  RAD  1   3   2
M  END
>  <reaction>  (13) 
rmg_rxn_15422

>  <mol_properties>  (13) 
{"1": {"label": "*4", "atom_type": "N3d"}, "2": {"label": "*3", "atom_type": "Cd"}, "5": {"label": "*1", "atom_type": "Cs"}, "6": {"label": "*0", "atom_type": "Cs"}, "11": {"label": "*2", "atom_type": "H0"}}

>  <type>  (13) 
unop_9

>  <geom_source>  (13) 
Heuristics

$$$$

     RDKit          3D

 23 21  0  0  0  0  0  0  0  0999 V2000
   -3.8983    0.5266    1.0644 O   0  0  0  0  0  0  0  0  0  0  0  0
   -2.6026    0.2325    0.6879 N   0  0  0  0  0  0  0  0  0  0  0  0
   -1.7572    0.7023    1.4991 C   0  0  0  0  0  0  0  0  0  0  0  0
   -4.4275    0.1193    0.3758 H   0  0  0  0  0  0  0  0  0  0  0  0
   -2.0439    1.2685    2.3828 H   0  0  0  0  0  0  0  0  0  0  0  0
    0.3565    1.8281    0.4621 C   0  0  0  0  0  3  0  0  0  0  0  0
    1.6264    1.1208    0.9165 C   0  0  0  0  0  0  0  0  0  0  0  0
    1.6660   -0.3421    0.5246 C   0  0  0  0  0  0  0  0  0  0  0  0
    1.6669   -0.4491   -0.8767 O   0  0  0  0  0  0  0  0  0  0  0  0
    1.6669   -1.7777   -1.3330 C   0  0  0  0  0  0  0  0  0  0  0  0
    1.6669   -1.7777   -2.8442 C   0  0  0  0  0  0  0  0  0  0  0  0
   -0.7057    1.2623    0.9832 H   0  0  0  0  0  0  0  0  0  0  0  0
    0.2592    1.7878   -0.6228 H   0  0  0  0  0  0  0  0  0  0  0  0
    0.3605    2.8759    0.7658 H   0  0  0  0  0  0  0  0  0  0  0  0
    1.7215    1.1802    2.0042 H   0  0  0  0  0  0  0  0  0  0  0  0
    2.5039    1.6171    0.4942 H   0  0  0  0  0  0  0  0  0  0  0  0
    0.7920   -0.8685    0.9401 H   0  0  0  0  0  0  0  0  0  0  0  0
    2.5644   -0.8234    0.9381 H   0  0  0  0  0  0  0  0  0  0  0  0
    2.5518   -2.3064   -0.9486 H   0  0  0  0  0  0  0  0  0  0  0  0
    0.7820   -2.3059   -0.9485 H   0  0  0  0  0  0  0  0  0  0  0  0
    2.5510   -1.2662   -3.2263 H   0  0  0  0  0  0  0  0  0  0  0  0
    0.7821   -1.2673   -3.2263 H   0  0  0  0  0  0  0  0  0  0  0  0
    1.6675   -2.8012   -3.2223 H   0  0  0  0  0  0  0  0  0  0  0  0
  1  2  1  0
  1  4  1  0
  2  3  2  3
  3  5  1  0
  3 12  1  0
  6  7  1  0
  6 13  1  0
  6 14  1  0
  7  8  1  0
  7 15  1  0
  7 16  1  0
  8  9  1  0
  8 17  1  0
  8 18  1  0
  9 10  1  0
 10 11  1  0
 10 19  1  0
 10 20  1  0
 11 21  1  0
 11 22  1  0
 11 23  1  0
M  RAD  1   6   2
M  END
>  <reaction>  (14) 
rmg_rxn_15422

>  <mol_properties>  (14) 
{"1": {"label": "*4", "atom_type": "N3d"}, "2": {"label": "*3", "atom_type": "Cd"}, "5": {"label": "*1", "atom_type": "Cs"}, "6": {"label": "*0", "atom_type": "Cs"}, "11": {"label": "*2", "atom_type": "H0"}}

>  <type>  (14) 
unop_10

>  <geom_source>  (14) 
Heuristics

$$$$

     RDKit          3D

 23 21  0  0  0  0  0  0  0  0999 V2000
   -3.6198    1.0573    2.2664 O   0  0  0  0  0  0  0  0  0  0  0  0
   -2.2437    0.9614    2.2019 N   0  0  0  0  0  0  0  0  0  0  0  0
   -1.8535    0.5129    1.0883 C   0  0  0  0  0  0  0  0  0  0  0  0
   -3.7772    1.4041    3.1468 H   0  0  0  0  0  0  0  0  0  0  0  0
   -2.5424    0.2418    0.2911 H   0  0  0  0  0  0  0  0  0  0  0  0
    0.2602    1.6387    0.0514 C   0  0  0  0  0  3  0  0  0  0  0  0
    1.5301    0.9314    0.5057 C   0  0  0  0  0  0  0  0  0  0  0  0
    1.5697   -0.5315    0.1139 C   0  0  0  0  0  0  0  0  0  0  0  0
    1.5707   -0.6384   -1.2874 O   0  0  0  0  0  0  0  0  0  0  0  0
    1.5707   -1.9671   -1.7438 C   0  0  0  0  0  0  0  0  0  0  0  0
    1.5707   -1.9671   -3.2549 C   0  0  0  0  0  0  0  0  0  0  0  0
   -0.8020    1.0729    0.5725 H   0  0  0  0  0  0  0  0  0  0  0  0
    0.1630    1.5984   -1.0335 H   0  0  0  0  0  0  0  0  0  0  0  0
    0.2643    2.6865    0.3551 H   0  0  0  0  0  0  0  0  0  0  0  0
    1.6252    0.9908    1.5935 H   0  0  0  0  0  0  0  0  0  0  0  0
    2.4077    1.4277    0.0835 H   0  0  0  0  0  0  0  0  0  0  0  0
    0.6957   -1.0579    0.5293 H   0  0  0  0  0  0  0  0  0  0  0  0
    2.4681   -1.0128    0.5274 H   0  0  0  0  0  0  0  0  0  0  0  0
    2.4555   -2.4958   -1.3593 H   0  0  0  0  0  0  0  0  0  0  0  0
    0.6857   -2.4953   -1.3593 H   0  0  0  0  0  0  0  0  0  0  0  0
    2.4548   -1.4556   -3.6370 H   0  0  0  0  0  0  0  0  0  0  0  0
    0.6858   -1.4567   -3.6370 H   0  0  0  0  0  0  0  0  0  0  0  0
    1.5712   -2.9906   -3.6330 H   0  0  0  0  0  0  0  0  0  0  0  0
  1  2  1  0
  1  4  1  0
  2  3  2  3
  3  5  1  0
  3 12  1  0
  6  7  1  0
  6 13  1  0
  6 14  1  0
  7  8  1  0
  7 15  1  0
  7 16  1  0
  8  9  1  0
  8 17  1  0
  8 18  1  0
  9 10  1  0
 10 11  1  0
 10 19  1  0
 10 20  1  0
 11 21  1  0
 11 22  1  0
 11 23  1  0
M  RAD  1   6   2
M  END
>  <reaction>  (15) 
rmg_rxn_15422

>  <mol_properties>  (15) 
{"1": {"label": "*4", "atom_type": "N3d"}, "2": {"label": "*3", "atom_type": "Cd"}, "5": {"label": "*1", "atom_type": "Cs"}, "6": {"label": "*0", "atom_type": "Cs"}, "11": {"label": "*2", "atom_type": "H0"}}

>  <type>  (15) 
unop_11

>  <geom_source>  (15) 
Heuristics

$$$$

     RDKit          3D

 23 21  0  0  0  0  0  0  0  0999 V2000
    2.9564   -0.6035   -0.1229 O   0  0  0  0  0  0  0  0  0  0  0  0
    1.6523   -1.1410   -0.2756 N   0  0  0  0  0  0  0  0  0  0  0  0
    0.8833   -1.2040    0.6877 C   0  0  0  0  0  3  0  0  0  0  0  0
    3.3498   -0.6830   -1.0022 H   0  0  0  0  0  0  0  0  0  0  0  0
    1.0051   -0.8997    1.7173 H   0  0  0  0  0  0  0  0  0  0  0  0
   -1.5387   -1.9581    0.0230 C   0  0  0  0  0  0  0  0  0  0  0  0
   -2.1682   -0.7612   -0.6376 C   0  0  0  0  0  0  0  0  0  0  0  0
   -2.1365    0.4800    0.2663 C   0  0  0  0  0  0  0  0  0  0  0  0
   -0.8476    0.9646    0.5515 O   0  0  0  0  0  0  0  0  0  0  0  0
   -0.2272    1.6755   -0.5003 C   0  0  0  0  0  0  0  0  0  0  0  0
    1.0015    2.3815    0.0516 C   0  0  0  0  0  0  0  0  0  0  0  0
   -0.3221   -1.6181    0.3620 H   0  0  0  0  0  0  0  0  0  0  0  0
   -1.4183   -2.8063   -0.6400 H   0  0  0  0  0  0  0  0  0  0  0  0
   -2.0208   -2.2363    0.9538 H   0  0  0  0  0  0  0  0  0  0  0  0
   -3.2189   -0.9673   -0.8738 H   0  0  0  0  0  0  0  0  0  0  0  0
   -1.6567   -0.5441   -1.5773 H   0  0  0  0  0  0  0  0  0  0  0  0
   -2.5669    0.2296    1.2406 H   0  0  0  0  0  0  0  0  0  0  0  0
   -2.7428    1.2785   -0.1902 H   0  0  0  0  0  0  0  0  0  0  0  0
    0.0691    0.9905   -1.3078 H   0  0  0  0  0  0  0  0  0  0  0  0
   -0.9354    2.4111   -0.9146 H   0  0  0  0  0  0  0  0  0  0  0  0
    0.7175    3.0300    0.8758 H   0  0  0  0  0  0  0  0  0  0  0  0
    1.4674    2.9765   -0.7292 H   0  0  0  0  0  0  0  0  0  0  0  0
    1.7176    1.6514    0.4163 H   0  0  0  0  0  0  0  0  0  0  0  0
  1  2  1  0
  1  4  1  0
  2  3  2  3
  3  5  1  0
  6  7  1  0
  6 12  1  0
  6 13  1  0
  6 14  1  0
  7  8  1  0
  7 15  1  0
  7 16  1  0
  8  9  1  0
  8 17  1  0
  8 18  1  0
  9 10  1  0
 10 11  1  0
 10 19  1  0
 10 20  1  0
 11 21  1  0
 11 22  1  0
 11 23  1  0
M  RAD  1   3   2
M  END
>  <reaction>  (16) 
rmg_rxn_15422

>  <mol_properties>  (16) 
{"1": {"label": "*4", "atom_type": "N3d"}, "2": {"label": "*3", "atom_type": "Cd"}, "5": {"label": "*1", "atom_type": "Cs"}, "6": {"label": "*0", "atom_type": "Cs"}, "11": {"label": "*2", "atom_type": "H0"}}

>  <type>  (16) 
unop_12

>  <geom_source>  (16) 
Heuristics

$$$$

     RDKit          3D

 23 21  0  0  0  0  0  0  0  0999 V2000
   -3.1473   -0.8132    1.6835 O   0  0  0  0  0  0  0  0  0  0  0  0
   -1.9023   -0.2383    1.5208 N   0  0  0  0  0  0  0  0  0  0  0  0
   -1.9812    0.9984    1.2805 C   0  0  0  0  0  0  0  0  0  0  0  0
   -2.9454   -1.7347    1.8569 H   0  0  0  0  0  0  0  0  0  0  0  0
   -2.9316    1.5238    1.2147 H   0  0  0  0  0  0  0  0  0  0  0  0
    0.1325    2.1241    0.2435 C   0  0  0  0  0  3  0  0  0  0  0  0
    1.4024    1.4169    0.6978 C   0  0  0  0  0  0  0  0  0  0  0  0
    1.4420   -0.0461    0.3060 C   0  0  0  0  0  0  0  0  0  0  0  0
    1.4429   -0.1530   -1.0953 O   0  0  0  0  0  0  0  0  0  0  0  0
    1.4429   -1.4816   -1.5516 C   0  0  0  0  0  0  0  0  0  0  0  0
    1.4429   -1.4816   -3.0628 C   0  0  0  0  0  0  0  0  0  0  0  0
   -0.9297    1.5584    0.7646 H   0  0  0  0  0  0  0  0  0  0  0  0
    0.0352    2.0839   -0.8414 H   0  0  0  0  0  0  0  0  0  0  0  0
    0.1365    3.1720    0.5472 H   0  0  0  0  0  0  0  0  0  0  0  0
    1.4975    1.4762    1.7856 H   0  0  0  0  0  0  0  0  0  0  0  0
    2.2799    1.9132    0.2756 H   0  0  0  0  0  0  0  0  0  0  0  0
    0.5680   -0.5724    0.7214 H   0  0  0  0  0  0  0  0  0  0  0  0
    2.3404   -0.5273    0.7195 H   0  0  0  0  0  0  0  0  0  0  0  0
    2.3278   -2.0104   -1.1672 H   0  0  0  0  0  0  0  0  0  0  0  0
    0.5580   -2.0099   -1.1671 H   0  0  0  0  0  0  0  0  0  0  0  0
    2.3270   -0.9701   -3.4449 H   0  0  0  0  0  0  0  0  0  0  0  0
    0.5581   -0.9713   -3.4449 H   0  0  0  0  0  0  0  0  0  0  0  0
    1.4435   -2.5051   -3.4409 H   0  0  0  0  0  0  0  0  0  0  0  0
  1  2  1  0
  1  4  1  0
  2  3  2  3
  3  5  1  0
  3 12  1  0
  6  7  1  0
  6 13  1  0
  6 14  1  0
  7  8  1  0
  7 15  1  0
  7 16  1  0
  8  9  1  0
  8 17  1  0
  8 18  1  0
  9 10  1  0
 10 11  1  0
 10 19  1  0
 10 20  1  0
 11 21  1  0
 11 22  1  0
 11 23  1  0
M  RAD  1   6   2
M  END
>  <reaction>  (17) 
rmg_rxn_15422

>  <mol_properties>  (17) 
{"1": {"label": "*4", "atom_type": "N3d"}, "2": {"label": "*3", "atom_type": "Cd"}, "5": {"label": "*1", "atom_type": "Cs"}, "6": {"label": "*0", "atom_type": "Cs"}, "11": {"label": "*2", "atom_type": "H0"}}

>  <type>  (17) 
unop_13

>  <geom_source>  (17) 
Heuristics

$$$$

     RDKit          3D

 23 21  0  0  0  0  0  0  0  0999 V2000
   -3.3131    0.6817    2.7091 O   0  0  0  0  0  0  0  0  0  0  0  0
   -2.0082    0.6077    2.2633 N   0  0  0  0  0  0  0  0  0  0  0  0
   -1.9382    0.6254    1.0030 C   0  0  0  0  0  0  0  0  0  0  0  0
   -3.2232    0.6593    3.6638 H   0  0  0  0  0  0  0  0  0  0  0  0
   -2.8187    0.6917    0.3675 H   0  0  0  0  0  0  0  0  0  0  0  0
    0.1755    1.7511   -0.0339 C   0  0  0  0  0  3  0  0  0  0  0  0
    1.4454    1.0439    0.4204 C   0  0  0  0  0  0  0  0  0  0  0  0
    1.4849   -0.4191    0.0286 C   0  0  0  0  0  0  0  0  0  0  0  0
    1.4859   -0.5260   -1.3727 O   0  0  0  0  0  0  0  0  0  0  0  0
    1.4859   -1.8546   -1.8291 C   0  0  0  0  0  0  0  0  0  0  0  0
    1.4859   -1.8546   -3.3402 C   0  0  0  0  0  0  0  0  0  0  0  0
   -0.8868    1.1854    0.4872 H   0  0  0  0  0  0  0  0  0  0  0  0
    0.0782    1.7109   -1.1188 H   0  0  0  0  0  0  0  0  0  0  0  0
    0.1795    2.7990    0.2698 H   0  0  0  0  0  0  0  0  0  0  0  0
    1.5405    1.1032    1.5082 H   0  0  0  0  0  0  0  0  0  0  0  0
    2.3229    1.5402   -0.0018 H   0  0  0  0  0  0  0  0  0  0  0  0
    0.6110   -0.9454    0.4440 H   0  0  0  0  0  0  0  0  0  0  0  0
    2.3834   -0.9003    0.4421 H   0  0  0  0  0  0  0  0  0  0  0  0
    2.3707   -2.3833   -1.4447 H   0  0  0  0  0  0  0  0  0  0  0  0
    0.6009   -2.3829   -1.4446 H   0  0  0  0  0  0  0  0  0  0  0  0
    2.3700   -1.3431   -3.7223 H   0  0  0  0  0  0  0  0  0  0  0  0
    0.6011   -1.3443   -3.7223 H   0  0  0  0  0  0  0  0  0  0  0  0
    1.4865   -2.8781   -3.7183 H   0  0  0  0  0  0  0  0  0  0  0  0
  1  2  1  0
  1  4  1  0
  2  3  2  3
  3  5  1  0
  3 12  1  0
  6  7  1  0
  6 13  1  0
  6 14  1  0
  7  8  1  0
  7 15  1  0
  7 16  1  0
  8  9  1  0
  8 17  1  0
  8 18  1  0
  9 10  1  0
 10 11  1  0
 10 19  1  0
 10 20  1  0
 11 21  1  0
 11 22  1  0
 11 23  1  0
M  RAD  1   6   2
M  END
>  <reaction>  (18) 
rmg_rxn_15422

>  <mol_properties>  (18) 
{"1": {"label": "*4", "atom_type": "N3d"}, "2": {"label": "*3", "atom_type": "Cd"}, "5": {"label": "*1", "atom_type": "Cs"}, "6": {"label": "*0", "atom_type": "Cs"}, "11": {"label": "*2", "atom_type": "H0"}}

>  <type>  (18) 
unop_14

>  <geom_source>  (18) 
Heuristics

$$$$

     RDKit          3D

 23 21  0  0  0  0  0  0  0  0999 V2000
   -3.9138    0.7437    1.5319 O   0  0  0  0  0  0  0  0  0  0  0  0
   -2.7912    0.6641    0.7314 N   0  0  0  0  0  0  0  0  0  0  0  0
   -1.7295    0.6071    1.4118 C   0  0  0  0  0  0  0  0  0  0  0  0
   -4.6347    0.7802    0.9002 H   0  0  0  0  0  0  0  0  0  0  0  0
   -1.7284    0.6210    2.4997 H   0  0  0  0  0  0  0  0  0  0  0  0
    0.3842    1.7328    0.3749 C   0  0  0  0  0  3  0  0  0  0  0  0
    1.6541    1.0256    0.8292 C   0  0  0  0  0  0  0  0  0  0  0  0
    1.6937   -0.4374    0.4374 C   0  0  0  0  0  0  0  0  0  0  0  0
    1.6947   -0.5443   -0.9639 O   0  0  0  0  0  0  0  0  0  0  0  0
    1.6947   -1.8729   -1.4203 C   0  0  0  0  0  0  0  0  0  0  0  0
    1.6947   -1.8729   -2.9314 C   0  0  0  0  0  0  0  0  0  0  0  0
   -0.6780    1.1671    0.8960 H   0  0  0  0  0  0  0  0  0  0  0  0
    0.2870    1.6926   -0.7100 H   0  0  0  0  0  0  0  0  0  0  0  0
    0.3883    2.7807    0.6786 H   0  0  0  0  0  0  0  0  0  0  0  0
    1.7493    1.0849    1.9170 H   0  0  0  0  0  0  0  0  0  0  0  0
    2.5317    1.5219    0.4070 H   0  0  0  0  0  0  0  0  0  0  0  0
    0.8197   -0.9637    0.8528 H   0  0  0  0  0  0  0  0  0  0  0  0
    2.5921   -0.9186    0.8509 H   0  0  0  0  0  0  0  0  0  0  0  0
    2.5795   -2.4016   -1.0359 H   0  0  0  0  0  0  0  0  0  0  0  0
    0.8097   -2.4012   -1.0358 H   0  0  0  0  0  0  0  0  0  0  0  0
    2.5788   -1.3614   -3.3135 H   0  0  0  0  0  0  0  0  0  0  0  0
    0.8099   -1.3626   -3.3135 H   0  0  0  0  0  0  0  0  0  0  0  0
    1.6953   -2.8964   -3.3095 H   0  0  0  0  0  0  0  0  0  0  0  0
  1  2  1  0
  1  4  1  0
  2  3  2  3
  3  5  1  0
  3 12  1  0
  6  7  1  0
  6 13  1  0
  6 14  1  0
  7  8  1  0
  7 15  1  0
  7 16  1  0
  8  9  1  0
  8 17  1  0
  8 18  1  0
  9 10  1  0
 10 11  1  0
 10 19  1  0
 10 20  1  0
 11 21  1  0
 11 22  1  0
 11 23  1  0
M  RAD  1   6   2
M  END
>  <reaction>  (19) 
rmg_rxn_15422

>  <mol_properties>  (19) 
{"1": {"label": "*4", "atom_type": "N3d"}, "2": {"label": "*3", "atom_type": "Cd"}, "5": {"label": "*1", "atom_type": "Cs"}, "6": {"label": "*0", "atom_type": "Cs"}, "11": {"label": "*2", "atom_type": "H0"}}

>  <type>  (19) 
unop_15

>  <geom_source>  (19) 
Heuristics

$$$$

     RDKit          3D

 23 21  0  0  0  0  0  0  0  0999 V2000
   -2.9976   -0.5773    2.3655 O   0  0  0  0  0  0  0  0  0  0  0  0
   -1.8177   -0.0574    1.8712 N   0  0  0  0  0  0  0  0  0  0  0  0
   -2.0186    0.9333    1.1150 C   0  0  0  0  0  0  0  0  0  0  0  0
   -2.7058   -1.3088    2.9130 H   0  0  0  0  0  0  0  0  0  0  0  0
   -3.0148    1.3116    0.8960 H   0  0  0  0  0  0  0  0  0  0  0  0
    0.0952    2.0590    0.0781 C   0  0  0  0  0  3  0  0  0  0  0  0
    1.3650    1.3517    0.5324 C   0  0  0  0  0  0  0  0  0  0  0  0
    1.4046   -0.1112    0.1406 C   0  0  0  0  0  0  0  0  0  0  0  0
    1.4056   -0.2181   -1.2607 O   0  0  0  0  0  0  0  0  0  0  0  0
    1.4056   -1.5468   -1.7171 C   0  0  0  0  0  0  0  0  0  0  0  0
    1.4056   -1.5468   -3.2282 C   0  0  0  0  0  0  0  0  0  0  0  0
   -0.9671    1.4933    0.5992 H   0  0  0  0  0  0  0  0  0  0  0  0
   -0.0021    2.0187   -1.0068 H   0  0  0  0  0  0  0  0  0  0  0  0
    0.0992    3.1068    0.3818 H   0  0  0  0  0  0  0  0  0  0  0  0
    1.4602    1.4111    1.6202 H   0  0  0  0  0  0  0  0  0  0  0  0
    2.2426    1.8481    0.1102 H   0  0  0  0  0  0  0  0  0  0  0  0
    0.5307   -0.6375    0.5560 H   0  0  0  0  0  0  0  0  0  0  0  0
    2.3031   -0.5925    0.5541 H   0  0  0  0  0  0  0  0  0  0  0  0
    2.2904   -2.0755   -1.3326 H   0  0  0  0  0  0  0  0  0  0  0  0
    0.5206   -2.0750   -1.3326 H   0  0  0  0  0  0  0  0  0  0  0  0
    2.2897   -1.0353   -3.6103 H   0  0  0  0  0  0  0  0  0  0  0  0
    0.5208   -1.0364   -3.6103 H   0  0  0  0  0  0  0  0  0  0  0  0
    1.4062   -2.5703   -3.6063 H   0  0  0  0  0  0  0  0  0  0  0  0
  1  2  1  0
  1  4  1  0
  2  3  2  3
  3  5  1  0
  3 12  1  0
  6  7  1  0
  6 13  1  0
  6 14  1  0
  7  8  1  0
  7 15  1  0
  7 16  1  0
  8  9  1  0
  8 17  1  0
  8 18  1  0
  9 10  1  0
 10 11  1  0
 10 19  1  0
 10 20  1  0
 11 21  1  0
 11 22  1  0
 11 23  1  0
M  RAD  1   6   2
M  END
>  <reaction>  (20) 
rmg_rxn_15422

>  <mol_properties>  (20) 
{"1": {"label": "*4", "atom_type": "N3d"}, "2": {"label": "*3", "atom_type": "Cd"}, "5": {"label": "*1", "atom_type": "Cs"}, "6": {"label": "*0", "atom_type": "Cs"}, "11": {"label": "*2", "atom_type": "H0"}}

>  <type>  (20) 
unop_16

>  <geom_source>  (20) 
Heuristics

$$$$

     RDKit          3D

 23 21  0  0  0  0  0  0  0  0999 V2000
   -1.9486   -0.6356   -0.0727 O   0  0  0  0  0  0  0  0  0  0  0  0
    5.3136    0.7739    0.7036 O   0  0  0  0  0  0  0  0  0  0  0  0
    4.1344    0.0783    0.8330 N   0  0  0  0  0  0  0  0  0  0  0  0
    0.0940    0.0456   -1.1997 C   0  0  0  0  0  0  0  0  0  0  0  0
   -1.3639   -0.4068   -1.3423 C   0  0  0  0  0  0  0  0  0  0  0  0
   -2.6588    0.5060    0.3599 C   0  0  0  0  0  0  0  0  0  0  0  0
   -3.1427    0.2826    1.7841 C   0  0  0  0  0  0  0  0  0  0  0  0
    0.9480   -0.9983   -0.4880 C   0  0  0  0  0  3  0  0  0  0  0  0
    3.3352   -0.0510   -0.1738 C   0  0  0  0  0  0  0  0  0  0  0  0
    0.5195    0.2218   -2.2106 H   0  0  0  0  0  0  0  0  0  0  0  0
    0.1442    1.0015   -0.6375 H   0  0  0  0  0  0  0  0  0  0  0  0
   -2.0121    1.4125    0.3503 H   0  0  0  0  0  0  0  0  0  0  0  0
   -3.5469    0.6769   -0.2895 H   0  0  0  0  0  0  0  0  0  0  0  0
   -1.3867   -1.3616   -1.9099 H   0  0  0  0  0  0  0  0  0  0  0  0
   -1.9259    0.3309   -1.9635 H   0  0  0  0  0  0  0  0  0  0  0  0
   -3.8084   -0.6056    1.8247 H   0  0  0  0  0  0  0  0  0  0  0  0
   -3.7077    1.1726    2.1331 H   0  0  0  0  0  0  0  0  0  0  0  0
   -2.2752    0.1192    2.4582 H   0  0  0  0  0  0  0  0  0  0  0  0
    0.6000   -1.1525    0.5554 H   0  0  0  0  0  0  0  0  0  0  0  0
    0.9373   -1.9617   -1.0409 H   0  0  0  0  0  0  0  0  0  0  0  0
    3.5817    0.3859   -1.1334 H   0  0  0  0  0  0  0  0  0  0  0  0
    2.2349   -0.7049   -0.0378 H   0  0  0  0  0  0  0  0  0  0  0  0
    5.9340    0.8704    1.4974 H   0  0  0  0  0  0  0  0  0  0  0  0
  1  6  1  0
  1  5  1  0
  2  3  1  0
  2 23  1  0
  3  9  2  3
  4  8  1  0
  4  5  1  0
  4 10  1  0
  4 11  1  0
  5 14  1  0
  5 15  1  0
  6  7  1  0
  6 12  1  0
  6 13  1  0
  7 16  1  0
  7 17  1  0
  7 18  1  0
  8 19  1  0
  8 20  1  0
  9 21  1  0
  9 22  1  0
M  RAD  1   8   2
M  END
>  <reaction>  (21) 
rmg_rxn_15422

>  <mol_properties>  (21) 
{"1": {"label": "*4", "atom_type": "N3d"}, "2": {"label": "*3", "atom_type": "Cd"}, "5": {"label": "*1", "atom_type": "Cs"}, "6": {"label": "*0", "atom_type": "Cs"}, "11": {"label": "*2", "atom_type": "H0"}}

>  <type>  (21) 
unop_17

>  <geom_source>  (21) 
AutoTST

$$$$

     RDKit          3D

 23 21  0  0  0  0  0  0  0  0999 V2000
   -3.0648    0.0341    2.7716 O   0  0  0  0  0  0  0  0  0  0  0  0
   -1.8554    0.2424    2.1382 N   0  0  0  0  0  0  0  0  0  0  0  0
   -2.0018    0.7869    1.0088 C   0  0  0  0  0  0  0  0  0  0  0  0
   -2.8131   -0.3766    3.6011 H   0  0  0  0  0  0  0  0  0  0  0  0
   -2.9778    1.0502    0.6065 H   0  0  0  0  0  0  0  0  0  0  0  0
    0.1119    1.9126   -0.0282 C   0  0  0  0  0  3  0  0  0  0  0  0
    1.3818    1.2053    0.4261 C   0  0  0  0  0  0  0  0  0  0  0  0
    1.4213   -0.2576    0.0343 C   0  0  0  0  0  0  0  0  0  0  0  0
    1.4223   -0.3645   -1.3670 O   0  0  0  0  0  0  0  0  0  0  0  0
    1.4223   -1.6932   -1.8234 C   0  0  0  0  0  0  0  0  0  0  0  0
    1.4223   -1.6932   -3.3345 C   0  0  0  0  0  0  0  0  0  0  0  0
   -0.9504    1.3469    0.4929 H   0  0  0  0  0  0  0  0  0  0  0  0
    0.0146    1.8723   -1.1131 H   0  0  0  0  0  0  0  0  0  0  0  0
    0.1159    2.9604    0.2755 H   0  0  0  0  0  0  0  0  0  0  0  0
    1.4769    1.2647    1.5139 H   0  0  0  0  0  0  0  0  0  0  0  0
    2.2593    1.7017    0.0039 H   0  0  0  0  0  0  0  0  0  0  0  0
    0.5474   -0.7839    0.4497 H   0  0  0  0  0  0  0  0  0  0  0  0
    2.3198   -0.7389    0.4478 H   0  0  0  0  0  0  0  0  0  0  0  0
    2.3072   -2.2219   -1.4389 H   0  0  0  0  0  0  0  0  0  0  0  0
    0.5373   -2.2214   -1.4388 H   0  0  0  0  0  0  0  0  0  0  0  0
    2.3064   -1.1817   -3.7166 H   0  0  0  0  0  0  0  0  0  0  0  0
    0.5375   -1.1828   -3.7166 H   0  0  0  0  0  0  0  0  0  0  0  0
    1.4229   -2.7167   -3.7126 H   0  0  0  0  0  0  0  0  0  0  0  0
  1  2  1  0
  1  4  1  0
  2  3  2  3
  3  5  1  0
  3 12  1  0
  6  7  1  0
  6 13  1  0
  6 14  1  0
  7  8  1  0
  7 15  1  0
  7 16  1  0
  8  9  1  0
  8 17  1  0
  8 18  1  0
  9 10  1  0
 10 11  1  0
 10 19  1  0
 10 20  1  0
 11 21  1  0
 11 22  1  0
 11 23  1  0
M  RAD  1   6   2
M  END
>  <reaction>  (22) 
rmg_rxn_15422

>  <mol_properties>  (22) 
{"1": {"label": "*4", "atom_type": "N3d"}, "2": {"label": "*3", "atom_type": "Cd"}, "5": {"label": "*1", "atom_type": "Cs"}, "6": {"label": "*0", "atom_type": "Cs"}, "11": {"label": "*2", "atom_type": "H0"}}

>  <type>  (22) 
unop_18

>  <geom_source>  (22) 
gaussian_log

$$$$
