
     RDKit          3D

  5  4  0  0  0  0  0  0  0  0999 V2000
   -0.4583    0.0384    0.1517 N   0  0  0  0  0  0  0  0  0  0  0  0
    0.7454   -0.3487    0.5322 N   0  0  0  0  0  0  0  0  0  0  0  0
    0.7566   -1.0388    1.5193 O   0  0  0  0  0  0  0  0  0  0  0  0
   -1.2688   -0.2521    0.6850 H   0  0  0  0  0  0  0  0  0  0  0  0
   -0.5137    0.6154   -0.6670 H   0  0  0  0  0  0  0  0  0  0  0  0
  1  2  1  0
  1  4  1  0
  1  5  1  0
  2  3  2  0
M  END
>  <reaction>  (1) 
rmg_rxn_1565

>  <mol_properties>  (1) 
{"0": {"label": "donator", "atom_type": "N3s"}, "3": {"label": "d_hydrogen", "atom_type": "H0"}}

>  <type>  (1) 
r1h

$$$$

     RDKit          3D

 13 12  0  0  0  0  0  0  0  0999 V2000
   -1.5799    1.1067    0.0515 C   0  0  0  0  0  3  0  0  0  0  0  0
   -0.9928   -0.2393    0.2618 C   0  0  0  0  0  0  0  0  0  0  0  0
   -1.7555   -1.0997    1.2551 C   0  0  0  0  0  0  0  0  0  0  0  0
   -1.8361   -0.4775    2.5485 O   0  0  0  0  0  0  0  0  0  0  0  0
   -0.7917   -0.6299    3.3579 C   0  0  0  0  0  0  0  0  0  0  0  0
    0.2062   -1.2445    3.1186 O   0  0  0  0  0  0  0  0  0  0  0  0
   -1.2812    1.7056   -0.7974 H   0  0  0  0  0  0  0  0  0  0  0  0
   -2.2051    1.5632    0.8066 H   0  0  0  0  0  0  0  0  0  0  0  0
    0.0498   -0.1629    0.6011 H   0  0  0  0  0  0  0  0  0  0  0  0
   -0.9461   -0.7884   -0.6853 H   0  0  0  0  0  0  0  0  0  0  0  0
   -1.2850   -2.0771    1.3590 H   0  0  0  0  0  0  0  0  0  0  0  0
   -2.7930   -1.2235    0.9483 H   0  0  0  0  0  0  0  0  0  0  0  0
   -0.9863   -0.1022    4.3012 H   0  0  0  0  0  0  0  0  0  0  0  0
  1  2  1  0
  1  7  1  0
  1  8  1  0
  2  3  1  0
  2  9  1  0
  2 10  1  0
  3  4  1  0
  3 11  1  0
  3 12  1  0
  4  5  1  0
  5  6  2  0
  5 13  1  0
M  RAD  1   1   2
M  END
>  <reaction>  (2) 
rmg_rxn_1565

>  <mol_properties>  (2) 
{"0": {"label": "acceptor", "atom_type": "Cs"}}

>  <type>  (2) 
r2

$$$$

     RDKit          3D

 14 13  0  0  0  0  0  0  0  0999 V2000
    2.1277    0.0527   -0.0768 C   0  0  0  0  0  0  0  0  0  0  0  0
    0.8550    0.0849    0.7591 C   0  0  0  0  0  0  0  0  0  0  0  0
    0.7150    1.3361    1.5963 C   0  0  0  0  0  0  0  0  0  0  0  0
    0.5975    2.4604    0.7083 O   0  0  0  0  0  0  0  0  0  0  0  0
    0.5113    3.6572    1.2782 C   0  0  0  0  0  0  0  0  0  0  0  0
    0.5224    3.8788    2.4534 O   0  0  0  0  0  0  0  0  0  0  0  0
    3.0138    0.1211    0.5584 H   0  0  0  0  0  0  0  0  0  0  0  0
    2.1544    0.8845   -0.7813 H   0  0  0  0  0  0  0  0  0  0  0  0
    2.1955   -0.8742   -0.6473 H   0  0  0  0  0  0  0  0  0  0  0  0
    0.8361   -0.7663    1.4449 H   0  0  0  0  0  0  0  0  0  0  0  0
   -0.0232   -0.0114    0.1158 H   0  0  0  0  0  0  0  0  0  0  0  0
   -0.1715    1.3001    2.2317 H   0  0  0  0  0  0  0  0  0  0  0  0
    1.5840    1.4884    2.2407 H   0  0  0  0  0  0  0  0  0  0  0  0
    0.4263    4.4265    0.4986 H   0  0  0  0  0  0  0  0  0  0  0  0
  1  2  1  0
  1  7  1  0
  1  8  1  0
  1  9  1  0
  2  3  1  0
  2 10  1  0
  2 11  1  0
  3  4  1  0
  3 12  1  0
  3 13  1  0
  4  5  1  0
  5  6  2  0
  5 14  1  0
M  END
>  <reaction>  (3) 
rmg_rxn_1565

>  <mol_properties>  (3) 
{"0": {"label": "a_hydrogen", "atom_type": "H0"}, "1": {"label": "acceptor", "atom_type": "Cs"}}

>  <type>  (3) 
r2h

$$$$

     RDKit          3D

 18 16  0  0  0  0  0  0  0  0999 V2000
    1.5700    0.6259    0.1962 N   0  0  0  0  0  0  0  0  0  0  0  0
    2.3211    0.2365   -0.7713 N   0  0  0  0  0  0  0  0  0  0  0  0
    2.6303   -0.9293   -0.8407 O   0  0  0  0  0  0  0  0  0  0  0  0
    0.8973   -0.2673    0.7300 H   0  0  0  0  0  0  0  0  0  0  0  0
    1.1238    1.5230    0.0349 H   0  0  0  0  0  0  0  0  0  0  0  0
    0.0477   -1.2659    1.1366 C   0  0  0  0  0  3  0  0  0  0  0  0
   -0.6730   -1.7877   -0.0744 C   0  0  0  0  0  0  0  0  0  0  0  0
   -1.3894   -0.7307   -0.8946 C   0  0  0  0  0  0  0  0  0  0  0  0
   -2.4218   -0.0851   -0.1250 O   0  0  0  0  0  0  0  0  0  0  0  0
   -2.2003    1.1361    0.3391 C   0  0  0  0  0  0  0  0  0  0  0  0
   -1.2040    1.7892    0.2036 O   0  0  0  0  0  0  0  0  0  0  0  0
    0.7233   -1.9738    1.6079 H   0  0  0  0  0  0  0  0  0  0  0  0
   -0.5662   -0.7312    1.8601 H   0  0  0  0  0  0  0  0  0  0  0  0
   -1.4041   -2.5446    0.2358 H   0  0  0  0  0  0  0  0  0  0  0  0
    0.0364   -2.2867   -0.7382 H   0  0  0  0  0  0  0  0  0  0  0  0
   -1.9067   -1.1874   -1.7367 H   0  0  0  0  0  0  0  0  0  0  0  0
   -0.6962    0.0226   -1.2660 H   0  0  0  0  0  0  0  0  0  0  0  0
   -3.0890    1.4814    0.8828 H   0  0  0  0  0  0  0  0  0  0  0  0
  1  2  1  0
  1  4  1  0
  1  5  1  0
  2  3  2  0
  6  7  1  0
  6 12  1  0
  6 13  1  0
  7  8  1  0
  7 14  1  0
  7 15  1  0
  8  9  1  0
  8 16  1  0
  8 17  1  0
  9 10  1  0
 10 11  2  0
 10 18  1  0
M  RAD  1   6   2
M  END
>  <reaction>  (4) 
rmg_rxn_1565

>  <mol_properties>  (4) 
{"0": {"label": "*1", "atom_type": "N3s"}, "1": {"label": "*0", "atom_type": "N3d"}, "3": {"label": "*2", "atom_type": "H0"}, "5": {"label": "*3", "atom_type": "Cs"}, "6": {"label": "*4", "atom_type": "Cs"}}

>  <type>  (4) 
ts

$$$$

     RDKit          3D

 18 16  0  0  0  0  0  0  0  0999 V2000
    1.4848    0.4639   -0.0650 N   0  0  0  0  0  0  0  0  0  0  0  0
    2.7121    0.6397   -0.1819 N   0  0  0  0  0  0  0  0  0  0  0  0
    3.5777   -0.1950   -0.0642 O   0  0  0  0  0  0  0  0  0  0  0  0
    0.8484   -0.4869    0.3972 H   0  0  0  0  0  0  0  0  0  0  0  0
    0.9056    1.2988   -0.1536 H   0  0  0  0  0  0  0  0  0  0  0  0
    0.0575   -1.3711    0.9299 C   0  0  0  0  0  3  0  0  0  0  0  0
   -0.8873   -1.8845   -0.1326 C   0  0  0  0  0  0  0  0  0  0  0  0
   -1.6124   -0.7642   -0.8798 C   0  0  0  0  0  0  0  0  0  0  0  0
   -2.4450    0.0008    0.0038 O   0  0  0  0  0  0  0  0  0  0  0  0
   -2.0531    1.1994    0.3578 C   0  0  0  0  0  0  0  0  0  0  0  0
   -1.0555    1.7762    0.0200 O   0  0  0  0  0  0  0  0  0  0  0  0
    0.6886   -2.1558    1.3306 H   0  0  0  0  0  0  0  0  0  0  0  0
   -0.4579   -0.8490    1.7308 H   0  0  0  0  0  0  0  0  0  0  0  0
   -1.6400   -2.5409    0.3180 H   0  0  0  0  0  0  0  0  0  0  0  0
   -0.3364   -2.4669   -0.8732 H   0  0  0  0  0  0  0  0  0  0  0  0
   -2.2863   -1.1828   -1.6315 H   0  0  0  0  0  0  0  0  0  0  0  0
   -0.8949   -0.0927   -1.3605 H   0  0  0  0  0  0  0  0  0  0  0  0
   -2.8067    1.6359    1.0345 H   0  0  0  0  0  0  0  0  0  0  0  0
  1  2  1  0
  1  4  1  0
  1  5  1  0
  2  3  2  0
  6  7  1  0
  6 12  1  0
  6 13  1  0
  7  8  1  0
  7 14  1  0
  7 15  1  0
  8  9  1  0
  8 16  1  0
  8 17  1  0
  9 10  1  0
 10 11  2  0
 10 18  1  0
M  RAD  1   6   2
M  END
>  <reaction>  (5) 
rmg_rxn_1565

>  <mol_properties>  (5) 
{"0": {"label": "*1", "atom_type": "N3s"}, "1": {"label": "*0", "atom_type": "N3d"}, "3": {"label": "*2", "atom_type": "H0"}, "5": {"label": "*3", "atom_type": "Cs"}, "6": {"label": "*4", "atom_type": "Cs"}}

>  <type>  (5) 
unop_1

>  <geom_source>  (5) 
crest_best.xyz

$$$$

     RDKit          3D

 18 16  0  0  0  0  0  0  0  0999 V2000
    0.3240   -2.7151    1.4735 N   0  0  0  0  0  0  0  0  0  0  0  0
    0.3240   -3.9179    0.9287 N   0  0  0  0  0  0  0  0  0  0  0  0
    0.3240   -3.9179   -0.2758 O   0  0  0  0  0  0  0  0  0  0  0  0
    0.3240   -1.7325    0.7583 H   0  0  0  0  0  0  0  0  0  0  0  0
    0.3240   -2.6688    2.4756 H   0  0  0  0  0  0  0  0  0  0  0  0
    0.3240   -0.6744   -0.0118 C   0  0  0  0  0  3  0  0  0  0  0  0
   -0.9080    0.1839    0.2432 C   0  0  0  0  0  0  0  0  0  0  0  0
   -0.6181    1.6678    0.2505 C   0  0  0  0  0  0  0  0  0  0  0  0
   -0.1750    2.0457   -1.0638 O   0  0  0  0  0  0  0  0  0  0  0  0
    0.1702    3.3178   -1.2280 C   0  0  0  0  0  0  0  0  0  0  0  0
    0.1446    4.1676   -0.3868 O   0  0  0  0  0  0  0  0  0  0  0  0
    1.0887   -0.4951    0.7475 H   0  0  0  0  0  0  0  0  0  0  0  0
    0.7601   -0.4535   -0.9864 H   0  0  0  0  0  0  0  0  0  0  0  0
   -1.3429   -0.0650    1.2148 H   0  0  0  0  0  0  0  0  0  0  0  0
   -1.6759   -0.0237   -0.5062 H   0  0  0  0  0  0  0  0  0  0  0  0
    0.1640    1.9214    0.9699 H   0  0  0  0  0  0  0  0  0  0  0  0
   -1.5056    2.2516    0.5001 H   0  0  0  0  0  0  0  0  0  0  0  0
    0.4875    3.4778   -2.2675 H   0  0  0  0  0  0  0  0  0  0  0  0
  1  2  1  0
  1  4  1  0
  1  5  1  0
  2  3  2  0
  6  7  1  0
  6 12  1  0
  6 13  1  0
  7  8  1  0
  7 14  1  0
  7 15  1  0
  8  9  1  0
  8 16  1  0
  8 17  1  0
  9 10  1  0
 10 11  2  0
 10 18  1  0
M  RAD  1   6   2
M  END
>  <reaction>  (6) 
rmg_rxn_1565

>  <mol_properties>  (6) 
{"0": {"label": "*1", "atom_type": "N3s"}, "1": {"label": "*0", "atom_type": "N3d"}, "3": {"label": "*2", "atom_type": "H0"}, "5": {"label": "*3", "atom_type": "Cs"}, "6": {"label": "*4", "atom_type": "Cs"}}

>  <type>  (6) 
unop_2

>  <geom_source>  (6) 
Heuristics

$$$$

     RDKit          3D

 18 16  0  0  0  0  0  0  0  0999 V2000
    0.3646   -2.0360    2.5783 N   0  0  0  0  0  0  0  0  0  0  0  0
    0.3646   -3.2388    2.0336 N   0  0  0  0  0  0  0  0  0  0  0  0
    0.3646   -3.2388    0.8291 O   0  0  0  0  0  0  0  0  0  0  0  0
    0.3646   -1.0534    1.8631 H   0  0  0  0  0  0  0  0  0  0  0  0
    0.3646   -1.9897    3.5804 H   0  0  0  0  0  0  0  0  0  0  0  0
    0.3646    0.0047    1.0930 C   0  0  0  0  0  3  0  0  0  0  0  0
   -0.3467   -0.2806   -0.2231 C   0  0  0  0  0  0  0  0  0  0  0  0
   -0.7897    0.9678   -0.9520 C   0  0  0  0  0  0  0  0  0  0  0  0
    0.3832    1.7112   -1.3240 O   0  0  0  0  0  0  0  0  0  0  0  0
    0.1776    2.8706   -1.9389 C   0  0  0  0  0  0  0  0  0  0  0  0
   -0.8869    3.3450   -2.2076 O   0  0  0  0  0  0  0  0  0  0  0  0
   -0.2808    0.5671    1.7717 H   0  0  0  0  0  0  0  0  0  0  0  0
    1.2706    0.5890    0.9298 H   0  0  0  0  0  0  0  0  0  0  0  0
   -1.2406   -0.8834   -0.0424 H   0  0  0  0  0  0  0  0  0  0  0  0
    0.2982   -0.8665   -0.8828 H   0  0  0  0  0  0  0  0  0  0  0  0
   -1.4193    1.5999   -0.3215 H   0  0  0  0  0  0  0  0  0  0  0  0
   -1.3523    0.7295   -1.8562 H   0  0  0  0  0  0  0  0  0  0  0  0
    1.1451    3.3375   -2.1688 H   0  0  0  0  0  0  0  0  0  0  0  0
  1  2  1  0
  1  4  1  0
  1  5  1  0
  2  3  2  0
  6  7  1  0
  6 12  1  0
  6 13  1  0
  7  8  1  0
  7 14  1  0
  7 15  1  0
  8  9  1  0
  8 16  1  0
  8 17  1  0
  9 10  1  0
 10 11  2  0
 10 18  1  0
M  RAD  1   6   2
M  END
>  <reaction>  (7) 
rmg_rxn_1565

>  <mol_properties>  (7) 
{"0": {"label": "*1", "atom_type": "N3s"}, "1": {"label": "*0", "atom_type": "N3d"}, "3": {"label": "*2", "atom_type": "H0"}, "5": {"label": "*3", "atom_type": "Cs"}, "6": {"label": "*4", "atom_type": "Cs"}}

>  <type>  (7) 
unop_3

>  <geom_source>  (7) 
Heuristics

$$$$

     RDKit          3D

 18 16  0  0  0  0  0  0  0  0999 V2000
    0.0737   -2.7269    1.5786 N   0  0  0  0  0  0  0  0  0  0  0  0
    0.0737   -3.9297    1.0339 N   0  0  0  0  0  0  0  0  0  0  0  0
    0.0737   -3.9297   -0.1706 O   0  0  0  0  0  0  0  0  0  0  0  0
    0.0737   -1.7442    0.8634 H   0  0  0  0  0  0  0  0  0  0  0  0
    0.0737   -2.6805    2.5807 H   0  0  0  0  0  0  0  0  0  0  0  0
    0.0737   -0.6862    0.0933 C   0  0  0  0  0  3  0  0  0  0  0  0
   -0.6375    0.4785    0.7693 C   0  0  0  0  0  0  0  0  0  0  0  0
   -0.1069    1.8321    0.3540 C   0  0  0  0  0  0  0  0  0  0  0  0
   -0.3703    2.0072   -1.0483 O   0  0  0  0  0  0  0  0  0  0  0  0
    0.0732    3.1328   -1.5968 C   0  0  0  0  0  0  0  0  0  0  0  0
    0.6661    4.0044   -1.0317 O   0  0  0  0  0  0  0  0  0  0  0  0
    1.1432   -0.6727    0.3159 H   0  0  0  0  0  0  0  0  0  0  0  0
   -0.0445   -0.6417   -0.9897 H   0  0  0  0  0  0  0  0  0  0  0  0
   -0.5253    0.4067    1.8544 H   0  0  0  0  0  0  0  0  0  0  0  0
   -1.7098    0.4392    0.5620 H   0  0  0  0  0  0  0  0  0  0  0  0
    0.9700    1.9104    0.5204 H   0  0  0  0  0  0  0  0  0  0  0  0
   -0.5909    2.6416    0.9030 H   0  0  0  0  0  0  0  0  0  0  0  0
   -0.1893    3.1462   -2.6634 H   0  0  0  0  0  0  0  0  0  0  0  0
  1  2  1  0
  1  4  1  0
  1  5  1  0
  2  3  2  0
  6  7  1  0
  6 12  1  0
  6 13  1  0
  7  8  1  0
  7 14  1  0
  7 15  1  0
  8  9  1  0
  8 16  1  0
  8 17  1  0
  9 10  1  0
 10 11  2  0
 10 18  1  0
M  RAD  1   6   2
M  END
>  <reaction>  (8) 
rmg_rxn_1565

>  <mol_properties>  (8) 
{"0": {"label": "*1", "atom_type": "N3s"}, "1": {"label": "*0", "atom_type": "N3d"}, "3": {"label": "*2", "atom_type": "H0"}, "5": {"label": "*3", "atom_type": "Cs"}, "6": {"label": "*4", "atom_type": "Cs"}}

>  <type>  (8) 
unop_4

>  <geom_source>  (8) 
Heuristics

$$$$

     RDKit          3D

 18 16  0  0  0  0  0  0  0  0999 V2000
   -1.1234   -2.2781    1.6169 N   0  0  0  0  0  0  0  0  0  0  0  0
   -1.1234   -3.4809    1.0722 N   0  0  0  0  0  0  0  0  0  0  0  0
   -1.1234   -3.4809   -0.1323 O   0  0  0  0  0  0  0  0  0  0  0  0
   -1.1234   -1.2955    0.9017 H   0  0  0  0  0  0  0  0  0  0  0  0
   -1.1234   -2.2318    2.6190 H   0  0  0  0  0  0  0  0  0  0  0  0
   -1.1234   -0.2375    0.1316 C   0  0  0  0  0  3  0  0  0  0  0  0
    0.1086   -0.2163   -0.7635 C   0  0  0  0  0  0  0  0  0  0  0  0
    0.5800    1.1785   -1.1077 C   0  0  0  0  0  0  0  0  0  0  0  0
    0.9994    1.8236    0.1066 O   0  0  0  0  0  0  0  0  0  0  0  0
    1.4050    3.0837   -0.0033 C   0  0  0  0  0  0  0  0  0  0  0  0
    1.4515    3.7218   -1.0139 O   0  0  0  0  0  0  0  0  0  0  0  0
   -1.9594    0.2818   -0.3426 H   0  0  0  0  0  0  0  0  0  0  0  0
   -0.9225    0.2506    1.0857 H   0  0  0  0  0  0  0  0  0  0  0  0
   -0.1051   -0.7268   -1.7064 H   0  0  0  0  0  0  0  0  0  0  0  0
    0.9294   -0.7616   -0.2911 H   0  0  0  0  0  0  0  0  0  0  0  0
   -0.2168    1.7718   -1.5621 H   0  0  0  0  0  0  0  0  0  0  0  0
    1.4223    1.1606   -1.8014 H   0  0  0  0  0  0  0  0  0  0  0  0
    1.6968    3.4601    0.9866 H   0  0  0  0  0  0  0  0  0  0  0  0
  1  2  1  0
  1  4  1  0
  1  5  1  0
  2  3  2  0
  6  7  1  0
  6 12  1  0
  6 13  1  0
  7  8  1  0
  7 14  1  0
  7 15  1  0
  8  9  1  0
  8 16  1  0
  8 17  1  0
  9 10  1  0
 10 11  2  0
 10 18  1  0
M  RAD  1   6   2
M  END
>  <reaction>  (9) 
rmg_rxn_1565

>  <mol_properties>  (9) 
{"0": {"label": "*1", "atom_type": "N3s"}, "1": {"label": "*0", "atom_type": "N3d"}, "3": {"label": "*2", "atom_type": "H0"}, "5": {"label": "*3", "atom_type": "Cs"}, "6": {"label": "*4", "atom_type": "Cs"}}

>  <type>  (9) 
unop_5

>  <geom_source>  (9) 
Heuristics

$$$$

     RDKit          3D

 18 16  0  0  0  0  0  0  0  0999 V2000
    0.3305   -2.6872    1.6147 N   0  0  0  0  0  0  0  0  0  0  0  0
    0.3305   -3.8900    1.0699 N   0  0  0  0  0  0  0  0  0  0  0  0
    0.3305   -3.8900   -0.1346 O   0  0  0  0  0  0  0  0  0  0  0  0
    0.3305   -1.7046    0.8995 H   0  0  0  0  0  0  0  0  0  0  0  0
    0.3305   -2.6409    2.6168 H   0  0  0  0  0  0  0  0  0  0  0  0
    0.3305   -0.6465    0.1294 C   0  0  0  0  0  3  0  0  0  0  0  0
    0.3305    0.6303    0.9594 C   0  0  0  0  0  0  0  0  0  0  0  0
    0.3580    1.8915    0.1259 C   0  0  0  0  0  0  0  0  0  0  0  0
   -0.8584    1.9520   -0.6379 O   0  0  0  0  0  0  0  0  0  0  0  0
   -0.9841    2.9812   -1.4683 C   0  0  0  0  0  0  0  0  0  0  0  0
   -0.1823    3.8529   -1.6342 O   0  0  0  0  0  0  0  0  0  0  0  0
    1.2153   -0.6968   -0.5094 H   0  0  0  0  0  0  0  0  0  0  0  0
   -0.5500   -0.6966   -0.5118 H   0  0  0  0  0  0  0  0  0  0  0  0
    1.2090    0.6539    1.6098 H   0  0  0  0  0  0  0  0  0  0  0  0
   -0.5444    0.6567    1.6137 H   0  0  0  0  0  0  0  0  0  0  0  0
    1.2051    1.8995   -0.5639 H   0  0  0  0  0  0  0  0  0  0  0  0
    0.4234    2.7857    0.7480 H   0  0  0  0  0  0  0  0  0  0  0  0
   -1.9492    2.9133   -1.9888 H   0  0  0  0  0  0  0  0  0  0  0  0
  1  2  1  0
  1  4  1  0
  1  5  1  0
  2  3  2  0
  6  7  1  0
  6 12  1  0
  6 13  1  0
  7  8  1  0
  7 14  1  0
  7 15  1  0
  8  9  1  0
  8 16  1  0
  8 17  1  0
  9 10  1  0
 10 11  2  0
 10 18  1  0
M  RAD  1   6   2
M  END
>  <reaction>  (10) 
rmg_rxn_1565

>  <mol_properties>  (10) 
{"0": {"label": "*1", "atom_type": "N3s"}, "1": {"label": "*0", "atom_type": "N3d"}, "3": {"label": "*2", "atom_type": "H0"}, "5": {"label": "*3", "atom_type": "Cs"}, "6": {"label": "*4", "atom_type": "Cs"}}

>  <type>  (10) 
unop_6

>  <geom_source>  (10) 
Heuristics

$$$$

     RDKit          3D

 18 16  0  0  0  0  0  0  0  0999 V2000
   -0.8168   -2.5416    1.0530 N   0  0  0  0  0  0  0  0  0  0  0  0
   -0.8168   -3.7444    0.5083 N   0  0  0  0  0  0  0  0  0  0  0  0
   -0.8168   -3.7444   -0.6962 O   0  0  0  0  0  0  0  0  0  0  0  0
   -0.8168   -1.5590    0.3378 H   0  0  0  0  0  0  0  0  0  0  0  0
   -0.8168   -2.4953    2.0551 H   0  0  0  0  0  0  0  0  0  0  0  0
   -0.8168   -0.5009   -0.4323 C   0  0  0  0  0  3  0  0  0  0  0  0
    0.6057   -0.0612   -0.7523 C   0  0  0  0  0  0  0  0  0  0  0  0
    0.7796    1.4404   -0.7859 C   0  0  0  0  0  0  0  0  0  0  0  0
    0.5271    1.9517    0.5337 O   0  0  0  0  0  0  0  0  0  0  0  0
    0.5913    3.2705    0.6788 C   0  0  0  0  0  0  0  0  0  0  0  0
    0.8384    4.0615   -0.1836 O   0  0  0  0  0  0  0  0  0  0  0  0
   -1.5220   -0.1071   -1.1679 H   0  0  0  0  0  0  0  0  0  0  0  0
   -1.1244   -0.1456    0.5516 H   0  0  0  0  0  0  0  0  0  0  0  0
    0.9038   -0.4428   -1.7325 H   0  0  0  0  0  0  0  0  0  0  0  0
    1.3049   -0.4830   -0.0261 H   0  0  0  0  0  0  0  0  0  0  0  0
    0.0820    1.9107   -1.4828 H   0  0  0  0  0  0  0  0  0  0  0  0
    1.7912    1.7235   -1.0814 H   0  0  0  0  0  0  0  0  0  0  0  0
    0.3810    3.5326    1.7247 H   0  0  0  0  0  0  0  0  0  0  0  0
  1  2  1  0
  1  4  1  0
  1  5  1  0
  2  3  2  0
  6  7  1  0
  6 12  1  0
  6 13  1  0
  7  8  1  0
  7 14  1  0
  7 15  1  0
  8  9  1  0
  8 16  1  0
  8 17  1  0
  9 10  1  0
 10 11  2  0
 10 18  1  0
M  RAD  1   6   2
M  END
>  <reaction>  (11) 
rmg_rxn_1565

>  <mol_properties>  (11) 
{"0": {"label": "*1", "atom_type": "N3s"}, "1": {"label": "*0", "atom_type": "N3d"}, "3": {"label": "*2", "atom_type": "H0"}, "5": {"label": "*3", "atom_type": "Cs"}, "6": {"label": "*4", "atom_type": "Cs"}}

>  <type>  (11) 
unop_7

>  <geom_source>  (11) 
Heuristics

$$$$

     RDKit          3D

 18 16  0  0  0  0  0  0  0  0999 V2000
    1.4851    0.4632    0.0653 N   0  0  0  0  0  0  0  0  0  0  0  0
    2.7124    0.6393    0.1820 N   0  0  0  0  0  0  0  0  0  0  0  0
    3.5783   -0.1949    0.0638 O   0  0  0  0  0  0  0  0  0  0  0  0
    0.8493   -0.4874   -0.3980 H   0  0  0  0  0  0  0  0  0  0  0  0
    0.9058    1.2980    0.1542 H   0  0  0  0  0  0  0  0  0  0  0  0
    0.0573   -1.3715   -0.9292 C   0  0  0  0  0  3  0  0  0  0  0  0
   -0.8884   -1.8844    0.1327 C   0  0  0  0  0  0  0  0  0  0  0  0
   -1.6134   -0.7639    0.8797 C   0  0  0  0  0  0  0  0  0  0  0  0
   -2.4451    0.0014   -0.0044 O   0  0  0  0  0  0  0  0  0  0  0  0
   -2.0526    1.1998   -0.3581 C   0  0  0  0  0  0  0  0  0  0  0  0
   -1.0550    1.7763   -0.0197 O   0  0  0  0  0  0  0  0  0  0  0  0
   -0.4578   -0.8498   -1.7305 H   0  0  0  0  0  0  0  0  0  0  0  0
    0.6882   -2.1565   -1.3296 H   0  0  0  0  0  0  0  0  0  0  0  0
   -0.3380   -2.4671    0.8735 H   0  0  0  0  0  0  0  0  0  0  0  0
   -1.6412   -2.5406   -0.3183 H   0  0  0  0  0  0  0  0  0  0  0  0
   -0.8957   -0.0928    1.3607 H   0  0  0  0  0  0  0  0  0  0  0  0
   -2.2879   -1.1822    1.6311 H   0  0  0  0  0  0  0  0  0  0  0  0
   -2.8058    1.6368   -1.0350 H   0  0  0  0  0  0  0  0  0  0  0  0
  1  2  1  0
  1  4  1  0
  1  5  1  0
  2  3  2  0
  6  7  1  0
  6 12  1  0
  6 13  1  0
  7  8  1  0
  7 14  1  0
  7 15  1  0
  8  9  1  0
  8 16  1  0
  8 17  1  0
  9 10  1  0
 10 11  2  0
 10 18  1  0
M  RAD  1   6   2
M  END
>  <reaction>  (12) 
rmg_rxn_1565

>  <mol_properties>  (12) 
{"0": {"label": "*1", "atom_type": "N3s"}, "1": {"label": "*0", "atom_type": "N3d"}, "3": {"label": "*2", "atom_type": "H0"}, "5": {"label": "*3", "atom_type": "Cs"}, "6": {"label": "*4", "atom_type": "Cs"}}

>  <type>  (12) 
unop_8

>  <geom_source>  (12) 
Heuristics

$$$$

     RDKit          3D

 18 16  0  0  0  0  0  0  0  0999 V2000
   -0.2002   -2.7000    0.8243 N   0  0  0  0  0  0  0  0  0  0  0  0
   -0.2002   -3.9028    0.2796 N   0  0  0  0  0  0  0  0  0  0  0  0
   -0.2002   -3.9028   -0.9249 O   0  0  0  0  0  0  0  0  0  0  0  0
   -0.2002   -1.7173    0.1091 H   0  0  0  0  0  0  0  0  0  0  0  0
   -0.2002   -2.6536    1.8264 H   0  0  0  0  0  0  0  0  0  0  0  0
   -0.2002   -0.6593   -0.6610 C   0  0  0  0  0  3  0  0  0  0  0  0
    1.0318    0.1990   -0.4060 C   0  0  0  0  0  0  0  0  0  0  0  0
    0.7522    1.6842   -0.4526 C   0  0  0  0  0  0  0  0  0  0  0  0
   -0.1465    2.0063    0.6221 O   0  0  0  0  0  0  0  0  0  0  0  0
   -0.5388    3.2727    0.7049 C   0  0  0  0  0  0  0  0  0  0  0  0
   -0.2129    4.1592   -0.0288 O   0  0  0  0  0  0  0  0  0  0  0  0
   -0.6334   -0.4394   -1.6395 H   0  0  0  0  0  0  0  0  0  0  0  0
   -0.9661   -0.4787    0.0937 H   0  0  0  0  0  0  0  0  0  0  0  0
    1.7957   -0.0096   -1.1597 H   0  0  0  0  0  0  0  0  0  0  0  0
    1.4719   -0.0487    0.5631 H   0  0  0  0  0  0  0  0  0  0  0  0
    0.2874    1.9766   -1.3971 H   0  0  0  0  0  0  0  0  0  0  0  0
    1.6643    2.2710   -0.3316 H   0  0  0  0  0  0  0  0  0  0  0  0
   -1.2177    3.3885    1.5608 H   0  0  0  0  0  0  0  0  0  0  0  0
  1  2  1  0
  1  4  1  0
  1  5  1  0
  2  3  2  0
  6  7  1  0
  6 12  1  0
  6 13  1  0
  7  8  1  0
  7 14  1  0
  7 15  1  0
  8  9  1  0
  8 16  1  0
  8 17  1  0
  9 10  1  0
 10 11  2  0
 10 18  1  0
M  RAD  1   6   2
M  END
>  <reaction>  (13) 
rmg_rxn_1565

>  <mol_properties>  (13) 
{"0": {"label": "*1", "atom_type": "N3s"}, "1": {"label": "*0", "atom_type": "N3d"}, "3": {"label": "*2", "atom_type": "H0"}, "5": {"label": "*3", "atom_type": "Cs"}, "6": {"label": "*4", "atom_type": "Cs"}}

>  <type>  (13) 
unop_9

>  <geom_source>  (13) 
Heuristics

$$$$

     RDKit          3D

 18 16  0  0  0  0  0  0  0  0999 V2000
    0.6674   -2.5566    1.6968 N   0  0  0  0  0  0  0  0  0  0  0  0
    0.6674   -3.7594    1.1520 N   0  0  0  0  0  0  0  0  0  0  0  0
    0.6674   -3.7594   -0.0525 O   0  0  0  0  0  0  0  0  0  0  0  0
    0.6674   -1.5740    0.9816 H   0  0  0  0  0  0  0  0  0  0  0  0
    0.6674   -2.5103    2.6989 H   0  0  0  0  0  0  0  0  0  0  0  0
    0.6674   -0.5160    0.2115 C   0  0  0  0  0  3  0  0  0  0  0  0
   -0.7552   -0.0762   -0.1086 C   0  0  0  0  0  0  0  0  0  0  0  0
   -0.9415    1.4241   -0.0886 C   0  0  0  0  0  0  0  0  0  0  0  0
   -0.1389    1.9907   -1.1381 O   0  0  0  0  0  0  0  0  0  0  0  0
   -0.1462    3.3152   -1.2380 C   0  0  0  0  0  0  0  0  0  0  0  0
   -0.7560    4.0698   -0.5386 O   0  0  0  0  0  0  0  0  0  0  0  0
    0.9724   -0.1624    1.1991 H   0  0  0  0  0  0  0  0  0  0  0  0
    1.3732   -0.1206   -0.5195 H   0  0  0  0  0  0  0  0  0  0  0  0
   -1.4505   -0.4977    0.6221 H   0  0  0  0  0  0  0  0  0  0  0  0
   -1.0587   -0.4583   -1.0865 H   0  0  0  0  0  0  0  0  0  0  0  0
   -0.6271    1.8559    0.8643 H   0  0  0  0  0  0  0  0  0  0  0  0
   -1.9827    1.7042   -0.2567 H   0  0  0  0  0  0  0  0  0  0  0  0
    0.5006    3.6212   -2.0716 H   0  0  0  0  0  0  0  0  0  0  0  0
  1  2  1  0
  1  4  1  0
  1  5  1  0
  2  3  2  0
  6  7  1  0
  6 12  1  0
  6 13  1  0
  7  8  1  0
  7 14  1  0
  7 15  1  0
  8  9  1  0
  8 16  1  0
  8 17  1  0
  9 10  1  0
 10 11  2  0
 10 18  1  0
M  RAD  1   6   2
M  END
>  <reaction>  (14) 
rmg_rxn_1565

>  <mol_properties>  (14) 
{"0": {"label": "*1", "atom_type": "N3s"}, "1": {"label": "*0", "atom_type": "N3d"}, "3": {"label": "*2", "atom_type": "H0"}, "5": {"label": "*3", "atom_type": "Cs"}, "6": {"label": "*4", "atom_type": "Cs"}}

>  <type>  (14) 
unop_10

>  <geom_source>  (14) 
Heuristics

$$$$

     RDKit          3D

 18 16  0  0  0  0  0  0  0  0999 V2000
    1.4848    0.4639   -0.0650 N   0  0  0  0  0  0  0  0  0  0  0  0
    2.7121    0.6397   -0.1819 N   0  0  0  0  0  0  0  0  0  0  0  0
    3.5777   -0.1950   -0.0642 O   0  0  0  0  0  0  0  0  0  0  0  0
    0.8484   -0.4869    0.3972 H   0  0  0  0  0  0  0  0  0  0  0  0
    0.9056    1.2988   -0.1536 H   0  0  0  0  0  0  0  0  0  0  0  0
    0.0575   -1.3711    0.9299 C   0  0  0  0  0  3  0  0  0  0  0  0
   -0.8873   -1.8845   -0.1326 C   0  0  0  0  0  0  0  0  0  0  0  0
   -1.6124   -0.7642   -0.8798 C   0  0  0  0  0  0  0  0  0  0  0  0
   -2.4450    0.0008    0.0038 O   0  0  0  0  0  0  0  0  0  0  0  0
   -2.0531    1.1994    0.3578 C   0  0  0  0  0  0  0  0  0  0  0  0
   -1.0555    1.7762    0.0200 O   0  0  0  0  0  0  0  0  0  0  0  0
    0.6886   -2.1558    1.3306 H   0  0  0  0  0  0  0  0  0  0  0  0
   -0.4579   -0.8490    1.7308 H   0  0  0  0  0  0  0  0  0  0  0  0
   -1.6400   -2.5409    0.3180 H   0  0  0  0  0  0  0  0  0  0  0  0
   -0.3364   -2.4669   -0.8732 H   0  0  0  0  0  0  0  0  0  0  0  0
   -2.2863   -1.1828   -1.6315 H   0  0  0  0  0  0  0  0  0  0  0  0
   -0.8949   -0.0927   -1.3605 H   0  0  0  0  0  0  0  0  0  0  0  0
   -2.8067    1.6359    1.0345 H   0  0  0  0  0  0  0  0  0  0  0  0
  1  2  1  0
  1  4  1  0
  1  5  1  0
  2  3  2  0
  6  7  1  0
  6 12  1  0
  6 13  1  0
  7  8  1  0
  7 14  1  0
  7 15  1  0
  8  9  1  0
  8 16  1  0
  8 17  1  0
  9 10  1  0
 10 11  2  0
 10 18  1  0
M  RAD  1   6   2
M  END
>  <reaction>  (15) 
rmg_rxn_1565

>  <mol_properties>  (15) 
{"0": {"label": "*1", "atom_type": "N3s"}, "1": {"label": "*0", "atom_type": "N3d"}, "3": {"label": "*2", "atom_type": "H0"}, "5": {"label": "*3", "atom_type": "Cs"}, "6": {"label": "*4", "atom_type": "Cs"}}

>  <type>  (15) 
unop_11

>  <geom_source>  (15) 
Heuristics

$$$$

     RDKit          3D

 18 16  0  0  0  0  0  0  0  0999 V2000
   -0.9455   -2.0286    2.2628 N   0  0  0  0  0  0  0  0  0  0  0  0
   -0.9455   -3.2314    1.7181 N   0  0  0  0  0  0  0  0  0  0  0  0
   -0.9455   -3.2314    0.5136 O   0  0  0  0  0  0  0  0  0  0  0  0
   -0.9455   -1.0460    1.5476 H   0  0  0  0  0  0  0  0  0  0  0  0
   -0.9455   -1.9823    3.2649 H   0  0  0  0  0  0  0  0  0  0  0  0
   -0.9455    0.0120    0.7775 C   0  0  0  0  0  3  0  0  0  0  0  0
   -0.2342   -0.2732   -0.5386 C   0  0  0  0  0  0  0  0  0  0  0  0
    0.1606    0.9758   -1.2937 C   0  0  0  0  0  0  0  0  0  0  0  0
    1.1253    1.6921   -0.5046 O   0  0  0  0  0  0  0  0  0  0  0  0
    1.5519    2.8486   -0.9995 C   0  0  0  0  0  0  0  0  0  0  0  0
    1.2073    3.3409   -2.0336 O   0  0  0  0  0  0  0  0  0  0  0  0
   -1.8549    0.5941    0.6116 H   0  0  0  0  0  0  0  0  0  0  0  0
   -0.3041    0.5767    1.4547 H   0  0  0  0  0  0  0  0  0  0  0  0
   -0.8840   -0.8565   -1.1964 H   0  0  0  0  0  0  0  0  0  0  0  0
    0.6586   -0.8786   -0.3631 H   0  0  0  0  0  0  0  0  0  0  0  0
   -0.6986    1.6267   -1.4718 H   0  0  0  0  0  0  0  0  0  0  0  0
    0.6082    0.7390   -2.2604 H   0  0  0  0  0  0  0  0  0  0  0  0
    2.2803    3.2940   -0.3082 H   0  0  0  0  0  0  0  0  0  0  0  0
  1  2  1  0
  1  4  1  0
  1  5  1  0
  2  3  2  0
  6  7  1  0
  6 12  1  0
  6 13  1  0
  7  8  1  0
  7 14  1  0
  7 15  1  0
  8  9  1  0
  8 16  1  0
  8 17  1  0
  9 10  1  0
 10 11  2  0
 10 18  1  0
M  RAD  1   6   2
M  END
>  <reaction>  (16) 
rmg_rxn_1565

>  <mol_properties>  (16) 
{"0": {"label": "*1", "atom_type": "N3s"}, "1": {"label": "*0", "atom_type": "N3d"}, "3": {"label": "*2", "atom_type": "H0"}, "5": {"label": "*3", "atom_type": "Cs"}, "6": {"label": "*4", "atom_type": "Cs"}}

>  <type>  (16) 
unop_12

>  <geom_source>  (16) 
Heuristics

$$$$

     RDKit          3D

 18 16  0  0  0  0  0  0  0  0999 V2000
    0.7348   -2.2906    2.1515 N   0  0  0  0  0  0  0  0  0  0  0  0
    0.7348   -3.4934    1.6067 N   0  0  0  0  0  0  0  0  0  0  0  0
    0.7348   -3.4934    0.4022 O   0  0  0  0  0  0  0  0  0  0  0  0
    0.7347   -1.3080    1.4363 H   0  0  0  0  0  0  0  0  0  0  0  0
    0.7348   -2.2443    3.1536 H   0  0  0  0  0  0  0  0  0  0  0  0
    0.7347   -0.2499    0.6662 C   0  0  0  0  0  3  0  0  0  0  0  0
   -0.4972   -0.2288   -0.2289 C   0  0  0  0  0  0  0  0  0  0  0  0
   -1.0009    1.1649   -0.5287 C   0  0  0  0  0  0  0  0  0  0  0  0
    0.0099    1.8560   -1.2818 O   0  0  0  0  0  0  0  0  0  0  0  0
   -0.2478    3.1208   -1.5951 C   0  0  0  0  0  0  0  0  0  0  0  0
   -1.2372    3.7286   -1.3087 O   0  0  0  0  0  0  0  0  0  0  0  0
    0.5304    0.2360    1.6231 H   0  0  0  0  0  0  0  0  0  0  0  0
    1.5691    0.2714    0.1962 H   0  0  0  0  0  0  0  0  0  0  0  0
   -1.3165   -0.7724    0.2490 H   0  0  0  0  0  0  0  0  0  0  0  0
   -0.2892   -0.7410   -1.1716 H   0  0  0  0  0  0  0  0  0  0  0  0
   -1.2002    1.7263    0.3871 H   0  0  0  0  0  0  0  0  0  0  0  0
   -1.9202    1.1447   -1.1165 H   0  0  0  0  0  0  0  0  0  0  0  0
    0.5952    3.5337   -2.1660 H   0  0  0  0  0  0  0  0  0  0  0  0
  1  2  1  0
  1  4  1  0
  1  5  1  0
  2  3  2  0
  6  7  1  0
  6 12  1  0
  6 13  1  0
  7  8  1  0
  7 14  1  0
  7 15  1  0
  8  9  1  0
  8 16  1  0
  8 17  1  0
  9 10  1  0
 10 11  2  0
 10 18  1  0
M  RAD  1   6   2
M  END
>  <reaction>  (17) 
rmg_rxn_1565

>  <mol_properties>  (17) 
{"0": {"label": "*1", "atom_type": "N3s"}, "1": {"label": "*0", "atom_type": "N3d"}, "3": {"label": "*2", "atom_type": "H0"}, "5": {"label": "*3", "atom_type": "Cs"}, "6": {"label": "*4", "atom_type": "Cs"}}

>  <type>  (17) 
unop_13

>  <geom_source>  (17) 
Heuristics

$$$$

     RDKit          3D

 18 16  0  0  0  0  0  0  0  0999 V2000
    0.3717   -2.7155    1.0903 N   0  0  0  0  0  0  0  0  0  0  0  0
    0.3717   -3.9183    0.5455 N   0  0  0  0  0  0  0  0  0  0  0  0
    0.3717   -3.9183   -0.6590 O   0  0  0  0  0  0  0  0  0  0  0  0
    0.3717   -1.7328    0.3751 H   0  0  0  0  0  0  0  0  0  0  0  0
    0.3717   -2.6691    2.0924 H   0  0  0  0  0  0  0  0  0  0  0  0
    0.3717   -0.6748   -0.3950 C   0  0  0  0  0  3  0  0  0  0  0  0
    1.0830    0.4899    0.2810 C   0  0  0  0  0  0  0  0  0  0  0  0
    0.5894    1.8444   -0.1748 C   0  0  0  0  0  0  0  0  0  0  0  0
   -0.7865    1.9776    0.2199 O   0  0  0  0  0  0  0  0  0  0  0  0
   -1.3995    3.0988   -0.1428 C   0  0  0  0  0  0  0  0  0  0  0  0
   -0.9117    3.9981   -0.7624 O   0  0  0  0  0  0  0  0  0  0  0  0
    0.4946   -0.6308   -1.4796 H   0  0  0  0  0  0  0  0  0  0  0  0
   -0.6966   -0.6607   -0.1772 H   0  0  0  0  0  0  0  0  0  0  0  0
    2.1545    0.4483    0.0683 H   0  0  0  0  0  0  0  0  0  0  0  0
    0.9761    0.4204    1.3664 H   0  0  0  0  0  0  0  0  0  0  0  0
    0.6541    1.9519   -1.2601 H   0  0  0  0  0  0  0  0  0  0  0  0
    1.1616    2.6562    0.2774 H   0  0  0  0  0  0  0  0  0  0  0  0
   -2.4375    3.0790    0.2162 H   0  0  0  0  0  0  0  0  0  0  0  0
  1  2  1  0
  1  4  1  0
  1  5  1  0
  2  3  2  0
  6  7  1  0
  6 12  1  0
  6 13  1  0
  7  8  1  0
  7 14  1  0
  7 15  1  0
  8  9  1  0
  8 16  1  0
  8 17  1  0
  9 10  1  0
 10 11  2  0
 10 18  1  0
M  RAD  1   6   2
M  END
>  <reaction>  (18) 
rmg_rxn_1565

>  <mol_properties>  (18) 
{"0": {"label": "*1", "atom_type": "N3s"}, "1": {"label": "*0", "atom_type": "N3d"}, "3": {"label": "*2", "atom_type": "H0"}, "5": {"label": "*3", "atom_type": "Cs"}, "6": {"label": "*4", "atom_type": "Cs"}}

>  <type>  (18) 
unop_14

>  <geom_source>  (18) 
Heuristics

$$$$

     RDKit          3D

 18 16  0  0  0  0  0  0  0  0999 V2000
   -0.3305   -1.9275    2.6584 N   0  0  0  0  0  0  0  0  0  0  0  0
   -0.3305   -3.1303    2.1137 N   0  0  0  0  0  0  0  0  0  0  0  0
   -0.3305   -3.1303    0.9092 O   0  0  0  0  0  0  0  0  0  0  0  0
   -0.3305   -0.9449    1.9432 H   0  0  0  0  0  0  0  0  0  0  0  0
   -0.3305   -1.8812    3.6605 H   0  0  0  0  0  0  0  0  0  0  0  0
   -0.3305    0.1132    1.1731 C   0  0  0  0  0  3  0  0  0  0  0  0
   -0.3305   -0.2842   -0.2971 C   0  0  0  0  0  0  0  0  0  0  0  0
   -0.3580    0.8966   -1.2409 C   0  0  0  0  0  0  0  0  0  0  0  0
    0.8584    1.6420   -1.0638 O   0  0  0  0  0  0  0  0  0  0  0  0
    0.9841    2.7486   -1.7879 C   0  0  0  0  0  0  0  0  0  0  0  0
    0.1823    3.1744   -2.5664 O   0  0  0  0  0  0  0  0  0  0  0  0
   -1.2153    0.7056    1.4173 H   0  0  0  0  0  0  0  0  0  0  0  0
    0.5500    0.7079    1.4179 H   0  0  0  0  0  0  0  0  0  0  0  0
   -1.2090   -0.8959   -0.5194 H   0  0  0  0  0  0  0  0  0  0  0  0
    0.5444   -0.8987   -0.5233 H   0  0  0  0  0  0  0  0  0  0  0  0
   -1.2051    1.5555   -1.0365 H   0  0  0  0  0  0  0  0  0  0  0  0
   -0.4234    0.5795   -2.2831 H   0  0  0  0  0  0  0  0  0  0  0  0
    1.9492    3.2230   -1.5633 H   0  0  0  0  0  0  0  0  0  0  0  0
  1  2  1  0
  1  4  1  0
  1  5  1  0
  2  3  2  0
  6  7  1  0
  6 12  1  0
  6 13  1  0
  7  8  1  0
  7 14  1  0
  7 15  1  0
  8  9  1  0
  8 16  1  0
  8 17  1  0
  9 10  1  0
 10 11  2  0
 10 18  1  0
M  RAD  1   6   2
M  END
>  <reaction>  (19) 
rmg_rxn_1565

>  <mol_properties>  (19) 
{"0": {"label": "*1", "atom_type": "N3s"}, "1": {"label": "*0", "atom_type": "N3d"}, "3": {"label": "*2", "atom_type": "H0"}, "5": {"label": "*3", "atom_type": "Cs"}, "6": {"label": "*4", "atom_type": "Cs"}}

>  <type>  (19) 
unop_15

>  <geom_source>  (19) 
Heuristics

$$$$

     RDKit          3D

 18 16  0  0  0  0  0  0  0  0999 V2000
    0.3646   -2.0360    2.5783 N   0  0  0  0  0  0  0  0  0  0  0  0
    0.3646   -3.2388    2.0336 N   0  0  0  0  0  0  0  0  0  0  0  0
    0.3646   -3.2388    0.8291 O   0  0  0  0  0  0  0  0  0  0  0  0
    0.3646   -1.0534    1.8631 H   0  0  0  0  0  0  0  0  0  0  0  0
    0.3646   -1.9896    3.5804 H   0  0  0  0  0  0  0  0  0  0  0  0
    0.3646    0.0047    1.0930 C   0  0  0  0  0  3  0  0  0  0  0  0
   -0.3467   -0.2806   -0.2231 C   0  0  0  0  0  0  0  0  0  0  0  0
   -0.7897    0.9678   -0.9520 C   0  0  0  0  0  0  0  0  0  0  0  0
    0.3832    1.7112   -1.3240 O   0  0  0  0  0  0  0  0  0  0  0  0
    0.1776    2.8706   -1.9389 C   0  0  0  0  0  0  0  0  0  0  0  0
   -0.8869    3.3450   -2.2075 O   0  0  0  0  0  0  0  0  0  0  0  0
   -0.2808    0.5671    1.7717 H   0  0  0  0  0  0  0  0  0  0  0  0
    1.2706    0.5890    0.9298 H   0  0  0  0  0  0  0  0  0  0  0  0
   -1.2406   -0.8834   -0.0424 H   0  0  0  0  0  0  0  0  0  0  0  0
    0.2982   -0.8665   -0.8828 H   0  0  0  0  0  0  0  0  0  0  0  0
   -1.4193    1.5998   -0.3215 H   0  0  0  0  0  0  0  0  0  0  0  0
   -1.3523    0.7296   -1.8562 H   0  0  0  0  0  0  0  0  0  0  0  0
    1.1450    3.3375   -2.1688 H   0  0  0  0  0  0  0  0  0  0  0  0
  1  2  1  0
  1  4  1  0
  1  5  1  0
  2  3  2  0
  6  7  1  0
  6 12  1  0
  6 13  1  0
  7  8  1  0
  7 14  1  0
  7 15  1  0
  8  9  1  0
  8 16  1  0
  8 17  1  0
  9 10  1  0
 10 11  2  0
 10 18  1  0
M  RAD  1   6   2
M  END
>  <reaction>  (20) 
rmg_rxn_1565

>  <mol_properties>  (20) 
{"0": {"label": "*1", "atom_type": "N3s"}, "1": {"label": "*0", "atom_type": "N3d"}, "3": {"label": "*2", "atom_type": "H0"}, "5": {"label": "*3", "atom_type": "Cs"}, "6": {"label": "*4", "atom_type": "Cs"}}

>  <type>  (20) 
unop_16

>  <geom_source>  (20) 
gaussian_log

$$$$
