
     RDKit          3D

  9  8  0  0  0  0  0  0  0  0999 V2000
   -1.0314    0.2323   -0.1227 C   0  0  0  0  0  0  0  0  0  0  0  0
    0.3094   -0.4511    0.0063 C   0  0  0  0  0  0  0  0  0  0  0  0
    0.3197   -1.7698    0.6841 N   0  0  0  0  0  0  0  0  0  0  0  0
   -0.7498   -2.1455    1.0557 O   0  0  0  0  0  0  0  0  0  0  0  0
   -1.4744    0.4198    0.8552 H   0  0  0  0  0  0  0  0  0  0  0  0
   -0.9073    1.1865   -0.6350 H   0  0  0  0  0  0  0  0  0  0  0  0
   -1.7319   -0.3778   -0.6927 H   0  0  0  0  0  0  0  0  0  0  0  0
    1.0375    0.1401    0.5713 H   0  0  0  0  0  0  0  0  0  0  0  0
    0.7826   -0.6494   -0.9609 H   0  0  0  0  0  0  0  0  0  0  0  0
  1  2  1  0
  1  5  1  0
  1  6  1  0
  1  7  1  0
  2  3  1  0
  2  8  1  0
  2  9  1  0
  3  4  2  0
M  END
>  <reaction>  (1) 
rmg_rxn_635

>  <mol_properties>  (1) 
{"0": {"label": "donator", "atom_type": "Cs"}, "4": {"label": "d_hydrogen", "atom_type": "H0"}}

>  <type>  (1) 
r1h

$$$$

     RDKit          3D

 14 13  0  0  0  0  0  0  0  0999 V2000
    2.6694    0.2813   -0.6046 C   0  0  0  0  0  3  0  0  0  0  0  0
    1.5626   -0.5075   -0.0103 C   0  0  0  0  0  0  0  0  0  0  0  0
    0.5522   -0.8487   -0.9278 O   0  0  0  0  0  0  0  0  0  0  0  0
    0.9505   -1.8204   -1.8682 C   0  0  0  0  0  0  0  0  0  0  0  0
   -0.2101   -2.1029   -2.7930 C   0  0  0  0  0  0  0  0  0  0  0  0
    2.4666    0.9443   -1.4355 H   0  0  0  0  0  0  0  0  0  0  0  0
    3.6339    0.3312   -0.1179 H   0  0  0  0  0  0  0  0  0  0  0  0
    1.0573    0.0741    0.7733 H   0  0  0  0  0  0  0  0  0  0  0  0
    1.9580   -1.4106    0.4809 H   0  0  0  0  0  0  0  0  0  0  0  0
    1.8195   -1.4649   -2.4379 H   0  0  0  0  0  0  0  0  0  0  0  0
    1.2587   -2.7372   -1.3440 H   0  0  0  0  0  0  0  0  0  0  0  0
   -0.5051   -1.1971   -3.3238 H   0  0  0  0  0  0  0  0  0  0  0  0
    0.0686   -2.8601   -3.5276 H   0  0  0  0  0  0  0  0  0  0  0  0
   -1.0699   -2.4661   -2.2289 H   0  0  0  0  0  0  0  0  0  0  0  0
  1  2  1  0
  1  6  1  0
  1  7  1  0
  2  3  1  0
  2  8  1  0
  2  9  1  0
  3  4  1  0
  4  5  1  0
  4 10  1  0
  4 11  1  0
  5 12  1  0
  5 13  1  0
  5 14  1  0
M  RAD  1   1   2
M  END
>  <reaction>  (2) 
rmg_rxn_635

>  <mol_properties>  (2) 
{"0": {"label": "acceptor", "atom_type": "Cs"}}

>  <type>  (2) 
r2

$$$$

     RDKit          3D

 15 14  0  0  0  0  0  0  0  0999 V2000
    2.4145    0.0817    0.4065 C   0  0  0  0  0  0  0  0  0  0  0  0
    1.1257   -0.2220   -0.3219 C   0  0  0  0  0  0  0  0  0  0  0  0
    1.0983   -1.5879   -0.6512 O   0  0  0  0  0  0  0  0  0  0  0  0
   -0.0685   -1.9694   -1.3352 C   0  0  0  0  0  0  0  0  0  0  0  0
    0.0024   -3.4478   -1.6403 C   0  0  0  0  0  0  0  0  0  0  0  0
    3.2736   -0.1534   -0.2229 H   0  0  0  0  0  0  0  0  0  0  0  0
    2.4581    1.1389    0.6728 H   0  0  0  0  0  0  0  0  0  0  0  0
    2.4855   -0.5095    1.3201 H   0  0  0  0  0  0  0  0  0  0  0  0
    0.2597    0.0294    0.3083 H   0  0  0  0  0  0  0  0  0  0  0  0
    1.0482    0.3858   -1.2356 H   0  0  0  0  0  0  0  0  0  0  0  0
   -0.9535   -1.7457   -0.7211 H   0  0  0  0  0  0  0  0  0  0  0  0
   -0.1650   -1.3894   -2.2650 H   0  0  0  0  0  0  0  0  0  0  0  0
    0.0831   -4.0247   -0.7183 H   0  0  0  0  0  0  0  0  0  0  0  0
   -0.8950   -3.7674   -2.1724 H   0  0  0  0  0  0  0  0  0  0  0  0
    0.8712   -3.6686   -2.2613 H   0  0  0  0  0  0  0  0  0  0  0  0
  1  2  1  0
  1  6  1  0
  1  7  1  0
  1  8  1  0
  2  3  1  0
  2  9  1  0
  2 10  1  0
  3  4  1  0
  4  5  1  0
  4 11  1  0
  4 12  1  0
  5 13  1  0
  5 14  1  0
  5 15  1  0
M  END
>  <reaction>  (3) 
rmg_rxn_635

>  <mol_properties>  (3) 
{"0": {"label": "a_hydrogen", "atom_type": "H0"}, "1": {"label": "acceptor", "atom_type": "Cs"}}

>  <type>  (3) 
r2h

$$$$

     RDKit          3D

 23 21  0  0  0  0  0  0  0  0999 V2000
    2.1001    0.6134   -0.5439 C   0  0  0  0  0  3  0  0  0  0  0  0
    1.7301    0.2861    0.8665 C   0  0  0  0  0  0  0  0  0  0  0  0
    1.0057   -0.9839    1.0950 N   0  0  0  0  0  0  0  0  0  0  0  0
    0.8838   -1.6765    0.1295 O   0  0  0  0  0  0  0  0  0  0  0  0
    0.9712    0.9314   -1.2008 H   0  0  0  0  0  0  0  0  0  0  0  0
    2.6969    1.5185   -0.6285 H   0  0  0  0  0  0  0  0  0  0  0  0
    2.5154   -0.2139   -1.1131 H   0  0  0  0  0  0  0  0  0  0  0  0
    1.0860    1.0434    1.3212 H   0  0  0  0  0  0  0  0  0  0  0  0
    2.6023    0.1953    1.5289 H   0  0  0  0  0  0  0  0  0  0  0  0
   -0.1769    1.2711   -1.8055 C   0  0  0  0  0  0  0  0  0  0  0  0
   -1.2466    0.4110   -1.2104 C   0  0  0  0  0  0  0  0  0  0  0  0
   -1.3289    0.6721    0.1695 O   0  0  0  0  0  0  0  0  0  0  0  0
   -2.2718   -0.1397    0.8319 C   0  0  0  0  0  0  0  0  0  0  0  0
   -2.2181    0.1602    2.3113 C   0  0  0  0  0  0  0  0  0  0  0  0
   -0.2879    2.3321   -1.5903 H   0  0  0  0  0  0  0  0  0  0  0  0
    0.0109    1.0755   -2.8589 H   0  0  0  0  0  0  0  0  0  0  0  0
   -1.0189   -0.6510   -1.3800 H   0  0  0  0  0  0  0  0  0  0  0  0
   -2.2196    0.6145   -1.6875 H   0  0  0  0  0  0  0  0  0  0  0  0
   -3.2763    0.0558    0.4302 H   0  0  0  0  0  0  0  0  0  0  0  0
   -2.0419   -1.1979    0.6479 H   0  0  0  0  0  0  0  0  0  0  0  0
   -2.4267    1.2146    2.4972 H   0  0  0  0  0  0  0  0  0  0  0  0
   -2.9588   -0.4385    2.8436 H   0  0  0  0  0  0  0  0  0  0  0  0
   -1.2313   -0.0800    2.7091 H   0  0  0  0  0  0  0  0  0  0  0  0
  1  2  1  0
  1  6  1  0
  1  7  1  0
  2  3  1  0
  2  8  1  0
  2  9  1  0
  3  4  2  0
  5 10  1  0
 10 11  1  0
 10 15  1  0
 10 16  1  0
 11 12  1  0
 11 17  1  0
 11 18  1  0
 12 13  1  0
 13 14  1  0
 13 19  1  0
 13 20  1  0
 14 21  1  0
 14 22  1  0
 14 23  1  0
M  RAD  1   1   2
M  END
>  <reaction>  (4) 
rmg_rxn_635

>  <mol_properties>  (4) 
{"0": {"label": "*3", "atom_type": "Cs"}, "1": {"label": "*4", "atom_type": "Cs"}, "4": {"label": "*2", "atom_type": "H0"}, "9": {"label": "*1", "atom_type": "Cs"}, "10": {"label": "*0", "atom_type": "Cs"}}

>  <type>  (4) 
ts

$$$$

     RDKit          3D

 23 21  0  0  0  0  0  0  0  0999 V2000
    1.3080   -0.5759    0.4237 C   0  0  0  0  0  0  0  0  0  0  0  0
    1.3080   -1.7529    1.3705 C   0  0  0  0  0  0  0  0  0  0  0  0
    1.3080   -3.1011    0.7532 N   0  0  0  0  0  0  0  0  0  0  0  0
    1.3080   -3.1011   -0.4398 O   0  0  0  0  0  0  0  0  0  0  0  0
    0.2519   -0.5887   -0.3474 H   0  0  0  0  0  0  0  0  0  0  0  0
    1.3080    0.3525    0.9952 H   0  0  0  0  0  0  0  0  0  0  0  0
    2.1882   -0.5866   -0.2188 H   0  0  0  0  0  0  0  0  0  0  0  0
    0.4368   -1.7678    2.0335 H   0  0  0  0  0  0  0  0  0  0  0  0
    2.1792   -1.7678    2.0335 H   0  0  0  0  0  0  0  0  0  0  0  0
   -0.8050   -0.6014   -1.1190 C   0  0  0  0  0  3  0  0  0  0  0  0
   -1.6228    0.6532   -0.9175 C   0  0  0  0  0  0  0  0  0  0  0  0
   -0.8060    1.6438   -0.3461 O   0  0  0  0  0  0  0  0  0  0  0  0
   -1.4810    2.8554   -0.1192 C   0  0  0  0  0  0  0  0  0  0  0  0
   -0.5186    3.8464    0.4933 C   0  0  0  0  0  0  0  0  0  0  0  0
    0.0386   -0.4053   -1.7817 H   0  0  0  0  0  0  0  0  0  0  0  0
   -1.4198   -1.3862   -1.5625 H   0  0  0  0  0  0  0  0  0  0  0  0
   -2.4819    0.4507   -0.2608 H   0  0  0  0  0  0  0  0  0  0  0  0
   -2.0261    1.0075   -1.8778 H   0  0  0  0  0  0  0  0  0  0  0  0
   -1.8821    3.2445   -1.0669 H   0  0  0  0  0  0  0  0  0  0  0  0
   -2.3379    2.6878    0.5501 H   0  0  0  0  0  0  0  0  0  0  0  0
    0.3239    4.0245   -0.1759 H   0  0  0  0  0  0  0  0  0  0  0  0
   -1.0216    4.7967    0.6787 H   0  0  0  0  0  0  0  0  0  0  0  0
   -0.1316    3.4681    1.4401 H   0  0  0  0  0  0  0  0  0  0  0  0
  1  2  1  0
  1  5  1  0
  1  6  1  0
  1  7  1  0
  2  3  1  0
  2  8  1  0
  2  9  1  0
  3  4  2  0
 10 11  1  0
 10 15  1  0
 10 16  1  0
 11 12  1  0
 11 17  1  0
 11 18  1  0
 12 13  1  0
 13 14  1  0
 13 19  1  0
 13 20  1  0
 14 21  1  0
 14 22  1  0
 14 23  1  0
M  RAD  1  10   2
M  END
>  <reaction>  (5) 
rmg_rxn_635

>  <mol_properties>  (5) 
{"0": {"label": "*3", "atom_type": "Cs"}, "1": {"label": "*4", "atom_type": "Cs"}, "4": {"label": "*2", "atom_type": "H0"}, "9": {"label": "*1", "atom_type": "Cs"}, "10": {"label": "*0", "atom_type": "Cs"}}

>  <type>  (5) 
unop_1

>  <geom_source>  (5) 
Heuristics

$$$$

     RDKit          3D

 23 21  0  0  0  0  0  0  0  0999 V2000
    1.9394    0.9090   -0.2695 C   0  0  0  0  0  0  0  0  0  0  0  0
    1.9394   -0.2680    0.6772 C   0  0  0  0  0  0  0  0  0  0  0  0
    1.9394   -1.6161    0.0599 N   0  0  0  0  0  0  0  0  0  0  0  0
    1.9394   -1.6161   -1.1331 O   0  0  0  0  0  0  0  0  0  0  0  0
    0.8832    0.8962   -1.0407 H   0  0  0  0  0  0  0  0  0  0  0  0
    1.9394    1.8374    0.3019 H   0  0  0  0  0  0  0  0  0  0  0  0
    2.8195    0.8984   -0.9121 H   0  0  0  0  0  0  0  0  0  0  0  0
    1.0682   -0.2829    1.3402 H   0  0  0  0  0  0  0  0  0  0  0  0
    2.8106   -0.2829    1.3402 H   0  0  0  0  0  0  0  0  0  0  0  0
   -0.1736    0.8835   -1.8123 C   0  0  0  0  0  3  0  0  0  0  0  0
   -1.3390    0.2334   -1.1033 C   0  0  0  0  0  0  0  0  0  0  0  0
   -1.3679    0.6776    0.2297 O   0  0  0  0  0  0  0  0  0  0  0  0
   -2.4234    0.1249    0.9750 C   0  0  0  0  0  0  0  0  0  0  0  0
   -2.3637    0.6644    2.3854 C   0  0  0  0  0  0  0  0  0  0  0  0
   -0.2749    1.9692   -1.7976 H   0  0  0  0  0  0  0  0  0  0  0  0
   -0.1310    0.5527   -2.8512 H   0  0  0  0  0  0  0  0  0  0  0  0
   -1.2435   -0.8622   -1.1316 H   0  0  0  0  0  0  0  0  0  0  0  0
   -2.2846    0.4886   -1.6043 H   0  0  0  0  0  0  0  0  0  0  0  0
   -3.3861    0.3784    0.5070 H   0  0  0  0  0  0  0  0  0  0  0  0
   -2.3450   -0.9724    0.9797 H   0  0  0  0  0  0  0  0  0  0  0  0
   -2.4562    1.7510    2.3830 H   0  0  0  0  0  0  0  0  0  0  0  0
   -3.1755    0.2482    2.9840 H   0  0  0  0  0  0  0  0  0  0  0  0
   -1.4156    0.4010    2.8554 H   0  0  0  0  0  0  0  0  0  0  0  0
  1  2  1  0
  1  5  1  0
  1  6  1  0
  1  7  1  0
  2  3  1  0
  2  8  1  0
  2  9  1  0
  3  4  2  0
 10 11  1  0
 10 15  1  0
 10 16  1  0
 11 12  1  0
 11 17  1  0
 11 18  1  0
 12 13  1  0
 13 14  1  0
 13 19  1  0
 13 20  1  0
 14 21  1  0
 14 22  1  0
 14 23  1  0
M  RAD  1  10   2
M  END
>  <reaction>  (6) 
rmg_rxn_635

>  <mol_properties>  (6) 
{"0": {"label": "*3", "atom_type": "Cs"}, "1": {"label": "*4", "atom_type": "Cs"}, "4": {"label": "*2", "atom_type": "H0"}, "9": {"label": "*1", "atom_type": "Cs"}, "10": {"label": "*0", "atom_type": "Cs"}}

>  <type>  (6) 
unop_2

>  <geom_source>  (6) 
Heuristics

$$$$

     RDKit          3D

 23 21  0  0  0  0  0  0  0  0999 V2000
    0.8767   -0.5796    1.1009 C   0  0  0  0  0  0  0  0  0  0  0  0
    0.8767   -1.7566    2.0476 C   0  0  0  0  0  0  0  0  0  0  0  0
    0.8767   -3.1047    1.4304 N   0  0  0  0  0  0  0  0  0  0  0  0
    0.8767   -3.1047    0.2374 O   0  0  0  0  0  0  0  0  0  0  0  0
   -0.1795   -0.5924    0.3298 H   0  0  0  0  0  0  0  0  0  0  0  0
    0.8767    0.3488    1.6723 H   0  0  0  0  0  0  0  0  0  0  0  0
    1.7568   -0.5902    0.4583 H   0  0  0  0  0  0  0  0  0  0  0  0
    0.0055   -1.7715    2.7107 H   0  0  0  0  0  0  0  0  0  0  0  0
    1.7479   -1.7715    2.7107 H   0  0  0  0  0  0  0  0  0  0  0  0
   -1.2363   -0.6051   -0.4418 C   0  0  0  0  0  3  0  0  0  0  0  0
   -1.6330    0.8032   -0.8198 C   0  0  0  0  0  0  0  0  0  0  0  0
   -0.4776    1.6005   -0.8868 O   0  0  0  0  0  0  0  0  0  0  0  0
   -0.7454    2.9358   -1.2337 C   0  0  0  0  0  0  0  0  0  0  0  0
    0.5562    3.7022   -1.2778 C   0  0  0  0  0  0  0  0  0  0  0  0
   -0.5547   -1.0222   -1.1838 H   0  0  0  0  0  0  0  0  0  0  0  0
   -2.1191   -1.2437   -0.3836 H   0  0  0  0  0  0  0  0  0  0  0  0
   -2.3322    1.2177   -0.0784 H   0  0  0  0  0  0  0  0  0  0  0  0
   -2.1499    0.8094   -1.7908 H   0  0  0  0  0  0  0  0  0  0  0  0
   -1.2483    2.9758   -2.2113 H   0  0  0  0  0  0  0  0  0  0  0  0
   -1.4306    3.3840   -0.4989 H   0  0  0  0  0  0  0  0  0  0  0  0
    1.2306    3.2676   -2.0164 H   0  0  0  0  0  0  0  0  0  0  0  0
    0.3727    4.7439   -1.5456 H   0  0  0  0  0  0  0  0  0  0  0  0
    1.0485    3.6756   -0.3050 H   0  0  0  0  0  0  0  0  0  0  0  0
  1  2  1  0
  1  5  1  0
  1  6  1  0
  1  7  1  0
  2  3  1  0
  2  8  1  0
  2  9  1  0
  3  4  2  0
 10 11  1  0
 10 15  1  0
 10 16  1  0
 11 12  1  0
 11 17  1  0
 11 18  1  0
 12 13  1  0
 13 14  1  0
 13 19  1  0
 13 20  1  0
 14 21  1  0
 14 22  1  0
 14 23  1  0
M  RAD  1  10   2
M  END
>  <reaction>  (7) 
rmg_rxn_635

>  <mol_properties>  (7) 
{"0": {"label": "*3", "atom_type": "Cs"}, "1": {"label": "*4", "atom_type": "Cs"}, "4": {"label": "*2", "atom_type": "H0"}, "9": {"label": "*1", "atom_type": "Cs"}, "10": {"label": "*0", "atom_type": "Cs"}}

>  <type>  (7) 
unop_3

>  <geom_source>  (7) 
Heuristics

$$$$

     RDKit          3D

 23 21  0  0  0  0  0  0  0  0999 V2000
    1.5499    1.9826    1.0258 C   0  0  0  0  0  0  0  0  0  0  0  0
    1.5499    0.8056    1.9726 C   0  0  0  0  0  0  0  0  0  0  0  0
    1.5499   -0.5425    1.3553 N   0  0  0  0  0  0  0  0  0  0  0  0
    1.5499   -0.5425    0.1623 O   0  0  0  0  0  0  0  0  0  0  0  0
    0.4938    1.9699    0.2547 H   0  0  0  0  0  0  0  0  0  0  0  0
    1.5499    2.9110    1.5973 H   0  0  0  0  0  0  0  0  0  0  0  0
    2.4301    1.9720    0.3832 H   0  0  0  0  0  0  0  0  0  0  0  0
    0.6787    0.7908    2.6356 H   0  0  0  0  0  0  0  0  0  0  0  0
    2.4211    0.7908    2.6356 H   0  0  0  0  0  0  0  0  0  0  0  0
   -0.5631    1.9571   -0.5169 C   0  0  0  0  0  3  0  0  0  0  0  0
   -0.6005    0.6922   -1.3428 C   0  0  0  0  0  0  0  0  0  0  0  0
   -1.3380   -0.2835   -0.6505 O   0  0  0  0  0  0  0  0  0  0  0  0
   -1.4296   -1.5032   -1.3426 C   0  0  0  0  0  0  0  0  0  0  0  0
   -2.2378   -2.4769   -0.5166 C   0  0  0  0  0  0  0  0  0  0  0  0
   -1.5733    2.3284   -0.3407 H   0  0  0  0  0  0  0  0  0  0  0  0
    0.0055    2.7305   -1.0356 H   0  0  0  0  0  0  0  0  0  0  0  0
    0.4197    0.3267   -1.5324 H   0  0  0  0  0  0  0  0  0  0  0  0
   -1.0619    0.8862   -2.3224 H   0  0  0  0  0  0  0  0  0  0  0  0
   -1.9041   -1.3439   -2.3222 H   0  0  0  0  0  0  0  0  0  0  0  0
   -0.4226   -1.9034   -1.5322 H   0  0  0  0  0  0  0  0  0  0  0  0
   -3.2411   -2.0876   -0.3404 H   0  0  0  0  0  0  0  0  0  0  0  0
   -2.3224   -3.4332   -1.0351 H   0  0  0  0  0  0  0  0  0  0  0  0
   -1.7604   -2.6468    0.4491 H   0  0  0  0  0  0  0  0  0  0  0  0
  1  2  1  0
  1  5  1  0
  1  6  1  0
  1  7  1  0
  2  3  1  0
  2  8  1  0
  2  9  1  0
  3  4  2  0
 10 11  1  0
 10 15  1  0
 10 16  1  0
 11 12  1  0
 11 17  1  0
 11 18  1  0
 12 13  1  0
 13 14  1  0
 13 19  1  0
 13 20  1  0
 14 21  1  0
 14 22  1  0
 14 23  1  0
M  RAD  1  10   2
M  END
>  <reaction>  (8) 
rmg_rxn_635

>  <mol_properties>  (8) 
{"0": {"label": "*3", "atom_type": "Cs"}, "1": {"label": "*4", "atom_type": "Cs"}, "4": {"label": "*2", "atom_type": "H0"}, "9": {"label": "*1", "atom_type": "Cs"}, "10": {"label": "*0", "atom_type": "Cs"}}

>  <type>  (8) 
unop_4

>  <geom_source>  (8) 
Heuristics

$$$$

     RDKit          3D

 23 21  0  0  0  0  0  0  0  0999 V2000
    0.6143   -0.0227    1.8078 C   0  0  0  0  0  0  0  0  0  0  0  0
    0.6143   -1.1997    2.7545 C   0  0  0  0  0  0  0  0  0  0  0  0
    0.6143   -2.5478    2.1373 N   0  0  0  0  0  0  0  0  0  0  0  0
    0.6143   -2.5478    0.9443 O   0  0  0  0  0  0  0  0  0  0  0  0
   -0.4419   -0.0355    1.0367 H   0  0  0  0  0  0  0  0  0  0  0  0
    0.6143    0.9057    2.3792 H   0  0  0  0  0  0  0  0  0  0  0  0
    1.4944   -0.0334    1.1652 H   0  0  0  0  0  0  0  0  0  0  0  0
   -0.2569   -1.2146    3.4176 H   0  0  0  0  0  0  0  0  0  0  0  0
    1.4855   -1.2146    3.4176 H   0  0  0  0  0  0  0  0  0  0  0  0
   -1.4988   -0.0482    0.2651 C   0  0  0  0  0  3  0  0  0  0  0  0
   -1.4825    1.1351   -0.6747 C   0  0  0  0  0  0  0  0  0  0  0  0
   -0.3267    1.0694   -1.4716 O   0  0  0  0  0  0  0  0  0  0  0  0
   -0.2214    2.1336   -2.3833 C   0  0  0  0  0  0  0  0  0  0  0  0
    1.0483    1.9686   -3.1860 C   0  0  0  0  0  0  0  0  0  0  0  0
   -1.5028   -0.9826   -0.2972 H   0  0  0  0  0  0  0  0  0  0  0  0
   -2.3891   -0.0183    0.8952 H   0  0  0  0  0  0  0  0  0  0  0  0
   -1.4935    2.0772   -0.1067 H   0  0  0  0  0  0  0  0  0  0  0  0
   -2.3787    1.1315   -1.3127 H   0  0  0  0  0  0  0  0  0  0  0  0
   -1.0977    2.1459   -3.0484 H   0  0  0  0  0  0  0  0  0  0  0  0
   -0.2124    3.0915   -1.8424 H   0  0  0  0  0  0  0  0  0  0  0  0
    1.0339    1.0260   -3.7342 H   0  0  0  0  0  0  0  0  0  0  0  0
    1.1516    2.7853   -3.9022 H   0  0  0  0  0  0  0  0  0  0  0  0
    1.9187    1.9711   -2.5290 H   0  0  0  0  0  0  0  0  0  0  0  0
  1  2  1  0
  1  5  1  0
  1  6  1  0
  1  7  1  0
  2  3  1  0
  2  8  1  0
  2  9  1  0
  3  4  2  0
 10 11  1  0
 10 15  1  0
 10 16  1  0
 11 12  1  0
 11 17  1  0
 11 18  1  0
 12 13  1  0
 13 14  1  0
 13 19  1  0
 13 20  1  0
 14 21  1  0
 14 22  1  0
 14 23  1  0
M  RAD  1  10   2
M  END
>  <reaction>  (9) 
rmg_rxn_635

>  <mol_properties>  (9) 
{"0": {"label": "*3", "atom_type": "Cs"}, "1": {"label": "*4", "atom_type": "Cs"}, "4": {"label": "*2", "atom_type": "H0"}, "9": {"label": "*1", "atom_type": "Cs"}, "10": {"label": "*0", "atom_type": "Cs"}}

>  <type>  (9) 
unop_5

>  <geom_source>  (9) 
Heuristics

$$$$

     RDKit          3D

 23 21  0  0  0  0  0  0  0  0999 V2000
    1.2449    1.8184    1.5765 C   0  0  0  0  0  0  0  0  0  0  0  0
    1.2449    0.6414    2.5232 C   0  0  0  0  0  0  0  0  0  0  0  0
    1.2449   -0.7067    1.9059 N   0  0  0  0  0  0  0  0  0  0  0  0
    1.2449   -0.7067    0.7130 O   0  0  0  0  0  0  0  0  0  0  0  0
    0.1887    1.8056    0.8053 H   0  0  0  0  0  0  0  0  0  0  0  0
    1.2449    2.7468    2.1479 H   0  0  0  0  0  0  0  0  0  0  0  0
    2.1250    1.8077    0.9339 H   0  0  0  0  0  0  0  0  0  0  0  0
    0.3737    0.6265    3.1862 H   0  0  0  0  0  0  0  0  0  0  0  0
    2.1161    0.6265    3.1862 H   0  0  0  0  0  0  0  0  0  0  0  0
   -0.8681    1.7929    0.0337 C   0  0  0  0  0  3  0  0  0  0  0  0
   -0.5888    1.0192   -1.2339 C   0  0  0  0  0  0  0  0  0  0  0  0
   -1.1136   -0.2779   -1.1022 O   0  0  0  0  0  0  0  0  0  0  0  0
   -0.9024   -1.0788   -2.2375 C   0  0  0  0  0  0  0  0  0  0  0  0
   -1.5014   -2.4445   -1.9932 C   0  0  0  0  0  0  0  0  0  0  0  0
   -1.9418    1.8564    0.2139 H   0  0  0  0  0  0  0  0  0  0  0  0
   -0.4689    2.8052   -0.0456 H   0  0  0  0  0  0  0  0  0  0  0  0
    0.4938    0.9684   -1.4226 H   0  0  0  0  0  0  0  0  0  0  0  0
   -1.0448    1.5222   -2.0996 H   0  0  0  0  0  0  0  0  0  0  0  0
   -1.3633   -0.6090   -3.1190 H   0  0  0  0  0  0  0  0  0  0  0  0
    0.1753   -1.1628   -2.4421 H   0  0  0  0  0  0  0  0  0  0  0  0
   -2.5725   -2.3638   -1.8048 H   0  0  0  0  0  0  0  0  0  0  0  0
   -1.3491   -3.0852   -2.8633 H   0  0  0  0  0  0  0  0  0  0  0  0
   -1.0348   -2.9172   -1.1283 H   0  0  0  0  0  0  0  0  0  0  0  0
  1  2  1  0
  1  5  1  0
  1  6  1  0
  1  7  1  0
  2  3  1  0
  2  8  1  0
  2  9  1  0
  3  4  2  0
 10 11  1  0
 10 15  1  0
 10 16  1  0
 11 12  1  0
 11 17  1  0
 11 18  1  0
 12 13  1  0
 13 14  1  0
 13 19  1  0
 13 20  1  0
 14 21  1  0
 14 22  1  0
 14 23  1  0
M  RAD  1  10   2
M  END
>  <reaction>  (10) 
rmg_rxn_635

>  <mol_properties>  (10) 
{"0": {"label": "*3", "atom_type": "Cs"}, "1": {"label": "*4", "atom_type": "Cs"}, "4": {"label": "*2", "atom_type": "H0"}, "9": {"label": "*1", "atom_type": "Cs"}, "10": {"label": "*0", "atom_type": "Cs"}}

>  <type>  (10) 
unop_6

>  <geom_source>  (10) 
Heuristics

$$$$

     RDKit          3D

 23 21  0  0  0  0  0  0  0  0999 V2000
    0.9696    1.3855    1.9657 C   0  0  0  0  0  0  0  0  0  0  0  0
    0.9696    0.2085    2.9124 C   0  0  0  0  0  0  0  0  0  0  0  0
    0.9696   -1.1396    2.2951 N   0  0  0  0  0  0  0  0  0  0  0  0
    0.9696   -1.1396    1.1022 O   0  0  0  0  0  0  0  0  0  0  0  0
   -0.0865    1.3728    1.1946 H   0  0  0  0  0  0  0  0  0  0  0  0
    0.9696    2.3139    2.5371 H   0  0  0  0  0  0  0  0  0  0  0  0
    1.8497    1.3749    1.3231 H   0  0  0  0  0  0  0  0  0  0  0  0
    0.0984    0.1937    3.5754 H   0  0  0  0  0  0  0  0  0  0  0  0
    1.8408    0.1937    3.5754 H   0  0  0  0  0  0  0  0  0  0  0  0
   -1.1434    1.3600    0.4229 C   0  0  0  0  0  3  0  0  0  0  0  0
   -0.7369    1.2835   -1.0305 C   0  0  0  0  0  0  0  0  0  0  0  0
   -0.8536   -0.0470   -1.4678 O   0  0  0  0  0  0  0  0  0  0  0  0
   -0.4953   -0.2205   -2.8156 C   0  0  0  0  0  0  0  0  0  0  0  0
   -0.6555   -1.6776   -3.1825 C   0  0  0  0  0  0  0  0  0  0  0  0
   -2.1750    1.0296    0.5491 H   0  0  0  0  0  0  0  0  0  0  0  0
   -1.0607    2.3860    0.7851 H   0  0  0  0  0  0  0  0  0  0  0  0
    0.2990    1.6310   -1.1587 H   0  0  0  0  0  0  0  0  0  0  0  0
   -1.3755    1.9371   -1.6431 H   0  0  0  0  0  0  0  0  0  0  0  0
   -1.1301    0.4093   -3.4565 H   0  0  0  0  0  0  0  0  0  0  0  0
    0.5444    0.1032   -2.9721 H   0  0  0  0  0  0  0  0  0  0  0  0
   -1.6891   -1.9957   -3.0418 H   0  0  0  0  0  0  0  0  0  0  0  0
   -0.3824   -1.8367   -4.2269 H   0  0  0  0  0  0  0  0  0  0  0  0
   -0.0156   -2.3016   -2.5576 H   0  0  0  0  0  0  0  0  0  0  0  0
  1  2  1  0
  1  5  1  0
  1  6  1  0
  1  7  1  0
  2  3  1  0
  2  8  1  0
  2  9  1  0
  3  4  2  0
 10 11  1  0
 10 15  1  0
 10 16  1  0
 11 12  1  0
 11 17  1  0
 11 18  1  0
 12 13  1  0
 13 14  1  0
 13 19  1  0
 13 20  1  0
 14 21  1  0
 14 22  1  0
 14 23  1  0
M  RAD  1  10   2
M  END
>  <reaction>  (11) 
rmg_rxn_635

>  <mol_properties>  (11) 
{"0": {"label": "*3", "atom_type": "Cs"}, "1": {"label": "*4", "atom_type": "Cs"}, "4": {"label": "*2", "atom_type": "H0"}, "9": {"label": "*1", "atom_type": "Cs"}, "10": {"label": "*0", "atom_type": "Cs"}}

>  <type>  (11) 
unop_7

>  <geom_source>  (11) 
Heuristics

$$$$

     RDKit          3D

 23 21  0  0  0  0  0  0  0  0999 V2000
    1.6507   -0.2065   -0.0499 C   0  0  0  0  0  0  0  0  0  0  0  0
    1.6507   -1.3835    0.8968 C   0  0  0  0  0  0  0  0  0  0  0  0
    1.6507   -2.7316    0.2796 N   0  0  0  0  0  0  0  0  0  0  0  0
    1.6507   -2.7316   -0.9134 O   0  0  0  0  0  0  0  0  0  0  0  0
    0.5946   -0.2192   -0.8210 H   0  0  0  0  0  0  0  0  0  0  0  0
    1.6507    0.7219    0.5216 H   0  0  0  0  0  0  0  0  0  0  0  0
    2.5308   -0.2171   -0.6925 H   0  0  0  0  0  0  0  0  0  0  0  0
    0.7795   -1.3983    1.5599 H   0  0  0  0  0  0  0  0  0  0  0  0
    2.5219   -1.3983    1.5599 H   0  0  0  0  0  0  0  0  0  0  0  0
   -0.4623   -0.2320   -1.5926 C   0  0  0  0  0  3  0  0  0  0  0  0
   -1.5968    0.5314   -0.9493 C   0  0  0  0  0  0  0  0  0  0  0  0
   -1.0691    1.4056    0.0163 O   0  0  0  0  0  0  0  0  0  0  0  0
   -2.0530    2.1640    0.6734 C   0  0  0  0  0  0  0  0  0  0  0  0
   -1.3839    3.0655    1.6849 C   0  0  0  0  0  0  0  0  0  0  0  0
    0.2362    0.4542   -2.0727 H   0  0  0  0  0  0  0  0  0  0  0  0
   -0.8488   -0.9185   -2.3475 H   0  0  0  0  0  0  0  0  0  0  0  0
   -2.3085   -0.1626   -0.4781 H   0  0  0  0  0  0  0  0  0  0  0  0
   -2.1545    1.1018   -1.7069 H   0  0  0  0  0  0  0  0  0  0  0  0
   -2.6180    2.7603   -0.0584 H   0  0  0  0  0  0  0  0  0  0  0  0
   -2.7720    1.4959    1.1703 H   0  0  0  0  0  0  0  0  0  0  0  0
   -0.6816    3.7384    1.1915 H   0  0  0  0  0  0  0  0  0  0  0  0
   -2.1299    3.6653    2.2086 H   0  0  0  0  0  0  0  0  0  0  0  0
   -0.8356    2.4747    2.4195 H   0  0  0  0  0  0  0  0  0  0  0  0
  1  2  1  0
  1  5  1  0
  1  6  1  0
  1  7  1  0
  2  3  1  0
  2  8  1  0
  2  9  1  0
  3  4  2  0
 10 11  1  0
 10 15  1  0
 10 16  1  0
 11 12  1  0
 11 17  1  0
 11 18  1  0
 12 13  1  0
 13 14  1  0
 13 19  1  0
 13 20  1  0
 14 21  1  0
 14 22  1  0
 14 23  1  0
M  RAD  1  10   2
M  END
>  <reaction>  (12) 
rmg_rxn_635

>  <mol_properties>  (12) 
{"0": {"label": "*3", "atom_type": "Cs"}, "1": {"label": "*4", "atom_type": "Cs"}, "4": {"label": "*2", "atom_type": "H0"}, "9": {"label": "*1", "atom_type": "Cs"}, "10": {"label": "*0", "atom_type": "Cs"}}

>  <type>  (12) 
unop_8

>  <geom_source>  (12) 
Heuristics

$$$$

     RDKit          3D

 23 21  0  0  0  0  0  0  0  0999 V2000
    1.8036    1.8352    0.4438 C   0  0  0  0  0  0  0  0  0  0  0  0
    1.8036    0.6582    1.3906 C   0  0  0  0  0  0  0  0  0  0  0  0
    1.8036   -0.6900    0.7733 N   0  0  0  0  0  0  0  0  0  0  0  0
    1.8036   -0.6900   -0.4197 O   0  0  0  0  0  0  0  0  0  0  0  0
    0.7475    1.8224   -0.3273 H   0  0  0  0  0  0  0  0  0  0  0  0
    1.8036    2.7636    1.0153 H   0  0  0  0  0  0  0  0  0  0  0  0
    2.6838    1.8245   -0.1988 H   0  0  0  0  0  0  0  0  0  0  0  0
    0.9324    0.6433    2.0536 H   0  0  0  0  0  0  0  0  0  0  0  0
    2.6748    0.6433    2.0536 H   0  0  0  0  0  0  0  0  0  0  0  0
   -0.3094    1.8097   -1.0989 C   0  0  0  0  0  3  0  0  0  0  0  0
   -0.7679    0.3910   -1.3453 C   0  0  0  0  0  0  0  0  0  0  0  0
   -1.4674   -0.0656   -0.2152 O   0  0  0  0  0  0  0  0  0  0  0  0
   -1.9367   -1.3835   -0.3493 C   0  0  0  0  0  0  0  0  0  0  0  0
   -2.6700   -1.7743    0.9129 C   0  0  0  0  0  0  0  0  0  0  0  0
   -1.1646    2.4617   -0.9182 H   0  0  0  0  0  0  0  0  0  0  0  0
    0.2373    2.1861   -1.9649 H   0  0  0  0  0  0  0  0  0  0  0  0
    0.0945   -0.2630   -1.5422 H   0  0  0  0  0  0  0  0  0  0  0  0
   -1.4174    0.3456   -2.2321 H   0  0  0  0  0  0  0  0  0  0  0  0
   -2.6047   -1.4570   -1.2203 H   0  0  0  0  0  0  0  0  0  0  0  0
   -1.0927   -2.0656   -0.5303 H   0  0  0  0  0  0  0  0  0  0  0  0
   -3.5157   -1.1077    1.0855 H   0  0  0  0  0  0  0  0  0  0  0  0
   -3.0442   -2.7961    0.8317 H   0  0  0  0  0  0  0  0  0  0  0  0
   -2.0046   -1.7159    1.7750 H   0  0  0  0  0  0  0  0  0  0  0  0
  1  2  1  0
  1  5  1  0
  1  6  1  0
  1  7  1  0
  2  3  1  0
  2  8  1  0
  2  9  1  0
  3  4  2  0
 10 11  1  0
 10 15  1  0
 10 16  1  0
 11 12  1  0
 11 17  1  0
 11 18  1  0
 12 13  1  0
 13 14  1  0
 13 19  1  0
 13 20  1  0
 14 21  1  0
 14 22  1  0
 14 23  1  0
M  RAD  1  10   2
M  END
>  <reaction>  (13) 
rmg_rxn_635

>  <mol_properties>  (13) 
{"0": {"label": "*3", "atom_type": "Cs"}, "1": {"label": "*4", "atom_type": "Cs"}, "4": {"label": "*2", "atom_type": "H0"}, "9": {"label": "*1", "atom_type": "Cs"}, "10": {"label": "*0", "atom_type": "Cs"}}

>  <type>  (13) 
unop_9

>  <geom_source>  (13) 
Heuristics

$$$$

     RDKit          3D

 23 21  0  0  0  0  0  0  0  0999 V2000
    1.8542    0.3345   -0.2820 C   0  0  0  0  0  0  0  0  0  0  0  0
    1.8542   -0.8425    0.6647 C   0  0  0  0  0  0  0  0  0  0  0  0
    1.8542   -2.1906    0.0474 N   0  0  0  0  0  0  0  0  0  0  0  0
    1.8542   -2.1906   -1.1455 O   0  0  0  0  0  0  0  0  0  0  0  0
    0.7981    0.3217   -1.0531 H   0  0  0  0  0  0  0  0  0  0  0  0
    1.8542    1.2629    0.2894 H   0  0  0  0  0  0  0  0  0  0  0  0
    2.7344    0.3239   -0.9246 H   0  0  0  0  0  0  0  0  0  0  0  0
    0.9830   -0.8574    1.3277 H   0  0  0  0  0  0  0  0  0  0  0  0
    2.7254   -0.8574    1.3277 H   0  0  0  0  0  0  0  0  0  0  0  0
   -0.2588    0.3090   -1.8248 C   0  0  0  0  0  3  0  0  0  0  0  0
   -1.5205    0.3752   -0.9957 C   0  0  0  0  0  0  0  0  0  0  0  0
   -1.2440    1.0549    0.2029 O   0  0  0  0  0  0  0  0  0  0  0  0
   -2.3626    1.1680    1.0461 C   0  0  0  0  0  0  0  0  0  0  0  0
   -1.9597    1.9103    2.2992 C   0  0  0  0  0  0  0  0  0  0  0  0
    0.0999    1.3127   -2.0555 H   0  0  0  0  0  0  0  0  0  0  0  0
   -0.4496   -0.2156   -2.7623 H   0  0  0  0  0  0  0  0  0  0  0  0
   -1.8896   -0.6376   -0.7760 H   0  0  0  0  0  0  0  0  0  0  0  0
   -2.3163    0.8968   -1.5479 H   0  0  0  0  0  0  0  0  0  0  0  0
   -3.1718    1.7022    0.5263 H   0  0  0  0  0  0  0  0  0  0  0  0
   -2.7451    0.1678    1.2981 H   0  0  0  0  0  0  0  0  0  0  0  0
   -1.5942    2.9075    2.0517 H   0  0  0  0  0  0  0  0  0  0  0  0
   -2.8141    2.0104    2.9705 H   0  0  0  0  0  0  0  0  0  0  0  0
   -1.1678    1.3740    2.8231 H   0  0  0  0  0  0  0  0  0  0  0  0
  1  2  1  0
  1  5  1  0
  1  6  1  0
  1  7  1  0
  2  3  1  0
  2  8  1  0
  2  9  1  0
  3  4  2  0
 10 11  1  0
 10 15  1  0
 10 16  1  0
 11 12  1  0
 11 17  1  0
 11 18  1  0
 12 13  1  0
 13 14  1  0
 13 19  1  0
 13 20  1  0
 14 21  1  0
 14 22  1  0
 14 23  1  0
M  RAD  1  10   2
M  END
>  <reaction>  (14) 
rmg_rxn_635

>  <mol_properties>  (14) 
{"0": {"label": "*3", "atom_type": "Cs"}, "1": {"label": "*4", "atom_type": "Cs"}, "4": {"label": "*2", "atom_type": "H0"}, "9": {"label": "*1", "atom_type": "Cs"}, "10": {"label": "*0", "atom_type": "Cs"}}

>  <type>  (14) 
unop_10

>  <geom_source>  (14) 
Heuristics

$$$$

     RDKit          3D

 23 21  0  0  0  0  0  0  0  0999 V2000
    0.7417    0.7611    2.0960 C   0  0  0  0  0  0  0  0  0  0  0  0
    0.7417   -0.4159    3.0427 C   0  0  0  0  0  0  0  0  0  0  0  0
    0.7417   -1.7640    2.4254 N   0  0  0  0  0  0  0  0  0  0  0  0
    0.7417   -1.7640    1.2324 O   0  0  0  0  0  0  0  0  0  0  0  0
   -0.3144    0.7483    1.3248 H   0  0  0  0  0  0  0  0  0  0  0  0
    0.7417    1.6895    2.6674 H   0  0  0  0  0  0  0  0  0  0  0  0
    1.6218    0.7505    1.4534 H   0  0  0  0  0  0  0  0  0  0  0  0
   -0.1295   -0.4308    3.7057 H   0  0  0  0  0  0  0  0  0  0  0  0
    1.6129   -0.4308    3.7057 H   0  0  0  0  0  0  0  0  0  0  0  0
   -1.3713    0.7356    0.5532 C   0  0  0  0  0  3  0  0  0  0  0  0
   -1.0611    1.3754   -0.7802 C   0  0  0  0  0  0  0  0  0  0  0  0
   -0.5671    0.3922   -1.6545 O   0  0  0  0  0  0  0  0  0  0  0  0
   -0.2480    0.8933   -2.9281 C   0  0  0  0  0  0  0  0  0  0  0  0
    0.2709   -0.2381   -3.7850 C   0  0  0  0  0  0  0  0  0  0  0  0
   -2.1194   -0.0491    0.4356 H   0  0  0  0  0  0  0  0  0  0  0  0
   -1.7571    1.4816    1.2498 H   0  0  0  0  0  0  0  0  0  0  0  0
   -0.3173    2.1768   -0.6582 H   0  0  0  0  0  0  0  0  0  0  0  0
   -1.9654    1.8354   -1.2055 H   0  0  0  0  0  0  0  0  0  0  0  0
   -1.1394    1.3456   -3.3874 H   0  0  0  0  0  0  0  0  0  0  0  0
    0.5087    1.6870   -2.8401 H   0  0  0  0  0  0  0  0  0  0  0  0
   -0.4838   -1.0189   -3.8849 H   0  0  0  0  0  0  0  0  0  0  0  0
    0.5258    0.1280   -4.7807 H   0  0  0  0  0  0  0  0  0  0  0  0
    1.1633   -0.6777   -3.3380 H   0  0  0  0  0  0  0  0  0  0  0  0
  1  2  1  0
  1  5  1  0
  1  6  1  0
  1  7  1  0
  2  3  1  0
  2  8  1  0
  2  9  1  0
  3  4  2  0
 10 11  1  0
 10 15  1  0
 10 16  1  0
 11 12  1  0
 11 17  1  0
 11 18  1  0
 12 13  1  0
 13 14  1  0
 13 19  1  0
 13 20  1  0
 14 21  1  0
 14 22  1  0
 14 23  1  0
M  RAD  1  10   2
M  END
>  <reaction>  (15) 
rmg_rxn_635

>  <mol_properties>  (15) 
{"0": {"label": "*3", "atom_type": "Cs"}, "1": {"label": "*4", "atom_type": "Cs"}, "4": {"label": "*2", "atom_type": "H0"}, "9": {"label": "*1", "atom_type": "Cs"}, "10": {"label": "*0", "atom_type": "Cs"}}

>  <type>  (15) 
unop_11

>  <geom_source>  (15) 
Heuristics

$$$$

     RDKit          3D

 23 21  0  0  0  0  0  0  0  0999 V2000
    1.9313    1.4366   -0.0202 C   0  0  0  0  0  0  0  0  0  0  0  0
    1.9313    0.2596    0.9265 C   0  0  0  0  0  0  0  0  0  0  0  0
    1.9313   -1.0885    0.3092 N   0  0  0  0  0  0  0  0  0  0  0  0
    1.9313   -1.0885   -0.8837 O   0  0  0  0  0  0  0  0  0  0  0  0
    0.8752    1.4239   -0.7913 H   0  0  0  0  0  0  0  0  0  0  0  0
    1.9313    2.3650    0.5512 H   0  0  0  0  0  0  0  0  0  0  0  0
    2.8115    1.4260   -0.6628 H   0  0  0  0  0  0  0  0  0  0  0  0
    1.0601    0.2448    1.5895 H   0  0  0  0  0  0  0  0  0  0  0  0
    2.8025    0.2448    1.5895 H   0  0  0  0  0  0  0  0  0  0  0  0
   -0.1817    1.4111   -1.5630 C   0  0  0  0  0  3  0  0  0  0  0  0
   -1.0531    0.2175   -1.2476 C   0  0  0  0  0  0  0  0  0  0  0  0
   -1.4612    0.2922    0.0952 O   0  0  0  0  0  0  0  0  0  0  0  0
   -2.2808   -0.7806    0.4855 C   0  0  0  0  0  0  0  0  0  0  0  0
   -2.6613   -0.6049    1.9373 C   0  0  0  0  0  0  0  0  0  0  0  0
   -0.7331    2.3388   -1.4062 H   0  0  0  0  0  0  0  0  0  0  0  0
    0.1478    1.3745   -2.6025 H   0  0  0  0  0  0  0  0  0  0  0  0
   -0.5007   -0.7180   -1.4202 H   0  0  0  0  0  0  0  0  0  0  0  0
   -1.9337    0.1996   -1.9068 H   0  0  0  0  0  0  0  0  0  0  0  0
   -3.1808   -0.8144   -0.1463 H   0  0  0  0  0  0  0  0  0  0  0  0
   -1.7478   -1.7320    0.3403 H   0  0  0  0  0  0  0  0  0  0  0  0
   -3.2026    0.3310    2.0799 H   0  0  0  0  0  0  0  0  0  0  0  0
   -3.2991   -1.4280    2.2633 H   0  0  0  0  0  0  0  0  0  0  0  0
   -1.7705   -0.5861    2.5662 H   0  0  0  0  0  0  0  0  0  0  0  0
  1  2  1  0
  1  5  1  0
  1  6  1  0
  1  7  1  0
  2  3  1  0
  2  8  1  0
  2  9  1  0
  3  4  2  0
 10 11  1  0
 10 15  1  0
 10 16  1  0
 11 12  1  0
 11 17  1  0
 11 18  1  0
 12 13  1  0
 13 14  1  0
 13 19  1  0
 13 20  1  0
 14 21  1  0
 14 22  1  0
 14 23  1  0
M  RAD  1  10   2
M  END
>  <reaction>  (16) 
rmg_rxn_635

>  <mol_properties>  (16) 
{"0": {"label": "*3", "atom_type": "Cs"}, "1": {"label": "*4", "atom_type": "Cs"}, "4": {"label": "*2", "atom_type": "H0"}, "9": {"label": "*1", "atom_type": "Cs"}, "10": {"label": "*0", "atom_type": "Cs"}}

>  <type>  (16) 
unop_12

>  <geom_source>  (16) 
Heuristics

$$$$

     RDKit          3D

 23 21  0  0  0  0  0  0  0  0999 V2000
   -1.8050   -1.0799    0.6665 O   0  0  0  0  0  0  0  0  0  0  0  0
    4.2925    2.5223   -0.8280 O   0  0  0  0  0  0  0  0  0  0  0  0
    4.4480    1.5269   -0.1871 N   0  0  0  0  0  0  0  0  0  0  0  0
   -0.8657   -0.6494   -0.2964 C   0  0  0  0  0  0  0  0  0  0  0  0
   -3.1247   -0.8819    0.1950 C   0  0  0  0  0  0  0  0  0  0  0  0
    0.5328   -0.7463    0.2905 C   0  0  0  0  0  0  0  0  0  0  0  0
   -3.6897    0.4253    0.7394 C   0  0  0  0  0  0  0  0  0  0  0  0
    3.3173    0.7345    0.2295 C   0  0  0  0  0  0  0  0  0  0  0  0
    2.6549    0.0706   -0.9701 C   0  0  0  0  0  3  0  0  0  0  0  0
   -1.0451    0.4092   -0.5910 H   0  0  0  0  0  0  0  0  0  0  0  0
   -0.9101   -1.2992   -1.1991 H   0  0  0  0  0  0  0  0  0  0  0  0
   -3.2144   -0.9019   -0.9175 H   0  0  0  0  0  0  0  0  0  0  0  0
   -3.7529   -1.7148    0.5757 H   0  0  0  0  0  0  0  0  0  0  0  0
    0.7539   -1.7964    0.5771 H   0  0  0  0  0  0  0  0  0  0  0  0
    0.6145   -0.0972    1.1881 H   0  0  0  0  0  0  0  0  0  0  0  0
    1.4216   -0.3484   -0.6134 H   0  0  0  0  0  0  0  0  0  0  0  0
   -3.6401    0.4278    1.8490 H   0  0  0  0  0  0  0  0  0  0  0  0
   -3.1128    1.2887    0.3474 H   0  0  0  0  0  0  0  0  0  0  0  0
   -4.7497    0.5335    0.4269 H   0  0  0  0  0  0  0  0  0  0  0  0
    3.6659   -0.0531    0.9295 H   0  0  0  0  0  0  0  0  0  0  0  0
    2.5802    1.3757    0.7588 H   0  0  0  0  0  0  0  0  0  0  0  0
    2.2491    0.8345   -1.6668 H   0  0  0  0  0  0  0  0  0  0  0  0
    3.3795   -0.5806   -1.5039 H   0  0  0  0  0  0  0  0  0  0  0  0
  1  4  1  0
  1  5  1  0
  2  3  2  0
  3  8  1  0
  4  6  1  0
  4 10  1  0
  4 11  1  0
  5  7  1  0
  5 12  1  0
  5 13  1  0
  6 14  1  0
  6 15  1  0
  6 16  1  0
  7 17  1  0
  7 18  1  0
  7 19  1  0
  8  9  1  0
  8 20  1  0
  8 21  1  0
  9 22  1  0
  9 23  1  0
M  RAD  1   9   2
M  END
>  <reaction>  (17) 
rmg_rxn_635

>  <mol_properties>  (17) 
{"0": {"label": "*3", "atom_type": "Cs"}, "1": {"label": "*4", "atom_type": "Cs"}, "4": {"label": "*2", "atom_type": "H0"}, "9": {"label": "*1", "atom_type": "Cs"}, "10": {"label": "*0", "atom_type": "Cs"}}

>  <type>  (17) 
unop_13

>  <geom_source>  (17) 
AutoTST

$$$$

     RDKit          3D

 23 21  0  0  0  0  0  0  0  0999 V2000
    1.9394    0.9090   -0.2696 C   0  0  0  0  0  0  0  0  0  0  0  0
    1.9394   -0.2680    0.6772 C   0  0  0  0  0  0  0  0  0  0  0  0
    1.9394   -1.6161    0.0599 N   0  0  0  0  0  0  0  0  0  0  0  0
    1.9394   -1.6161   -1.1331 O   0  0  0  0  0  0  0  0  0  0  0  0
    0.8832    0.8962   -1.0407 H   0  0  0  0  0  0  0  0  0  0  0  0
    1.9394    1.8374    0.3019 H   0  0  0  0  0  0  0  0  0  0  0  0
    2.8195    0.8984   -0.9121 H   0  0  0  0  0  0  0  0  0  0  0  0
    1.0682   -0.2829    1.3402 H   0  0  0  0  0  0  0  0  0  0  0  0
    2.8106   -0.2829    1.3402 H   0  0  0  0  0  0  0  0  0  0  0  0
   -0.1736    0.8835   -1.8123 C   0  0  0  0  0  3  0  0  0  0  0  0
   -1.3390    0.2334   -1.1033 C   0  0  0  0  0  0  0  0  0  0  0  0
   -1.3679    0.6776    0.2297 O   0  0  0  0  0  0  0  0  0  0  0  0
   -2.4234    0.1249    0.9750 C   0  0  0  0  0  0  0  0  0  0  0  0
   -2.3637    0.6644    2.3853 C   0  0  0  0  0  0  0  0  0  0  0  0
   -0.2749    1.9692   -1.7976 H   0  0  0  0  0  0  0  0  0  0  0  0
   -0.1310    0.5527   -2.8512 H   0  0  0  0  0  0  0  0  0  0  0  0
   -1.2434   -0.8622   -1.1316 H   0  0  0  0  0  0  0  0  0  0  0  0
   -2.2846    0.4886   -1.6043 H   0  0  0  0  0  0  0  0  0  0  0  0
   -3.3861    0.3785    0.5070 H   0  0  0  0  0  0  0  0  0  0  0  0
   -2.3450   -0.9724    0.9797 H   0  0  0  0  0  0  0  0  0  0  0  0
   -2.4562    1.7510    2.3830 H   0  0  0  0  0  0  0  0  0  0  0  0
   -3.1755    0.2482    2.9840 H   0  0  0  0  0  0  0  0  0  0  0  0
   -1.4156    0.4010    2.8554 H   0  0  0  0  0  0  0  0  0  0  0  0
  1  2  1  0
  1  5  1  0
  1  6  1  0
  1  7  1  0
  2  3  1  0
  2  8  1  0
  2  9  1  0
  3  4  2  0
 10 11  1  0
 10 15  1  0
 10 16  1  0
 11 12  1  0
 11 17  1  0
 11 18  1  0
 12 13  1  0
 13 14  1  0
 13 19  1  0
 13 20  1  0
 14 21  1  0
 14 22  1  0
 14 23  1  0
M  RAD  1  10   2
M  END
>  <reaction>  (18) 
rmg_rxn_635

>  <mol_properties>  (18) 
{"0": {"label": "*3", "atom_type": "Cs"}, "1": {"label": "*4", "atom_type": "Cs"}, "4": {"label": "*2", "atom_type": "H0"}, "9": {"label": "*1", "atom_type": "Cs"}, "10": {"label": "*0", "atom_type": "Cs"}}

>  <type>  (18) 
unop_14

>  <geom_source>  (18) 
gaussian_log

$$$$
