
     RDKit          3D

  8  7  0  0  0  0  0  0  0  0999 V2000
    0.9548    0.1194   -0.0790 C   0  0  0  0  0  0  0  0  0  0  0  0
   -0.4838   -0.2649    0.0193 C   0  0  0  0  0  0  0  0  0  0  0  0
   -0.8933   -1.1081    0.8664 N   0  0  0  0  0  0  0  0  0  0  0  0
    1.3360   -0.0983   -1.0800 H   0  0  0  0  0  0  0  0  0  0  0  0
    1.0698    1.1948    0.0786 H   0  0  0  0  0  0  0  0  0  0  0  0
    1.5426   -0.4219    0.6602 H   0  0  0  0  0  0  0  0  0  0  0  0
   -1.1575    0.2324   -0.6905 H   0  0  0  0  0  0  0  0  0  0  0  0
   -1.8989   -1.2455    0.7886 H   0  0  0  0  0  0  0  0  0  0  0  0
  1  2  1  0
  1  4  1  0
  1  5  1  0
  1  6  1  0
  2  3  2  3
  2  7  1  0
  3  8  1  0
M  END
>  <reaction>  (1) 
rmg_rxn_16470

>  <mol_properties>  (1) 
{"2": {"label": "donator", "atom_type": "N3d"}, "7": {"label": "d_hydrogen", "atom_type": "H0"}}

>  <type>  (1) 
r1h

$$$$

     RDKit          3D

  2  1  0  0  0  0  0  0  0  0999 V2000
    0.0000    0.0000    0.6715 S   0  0  0  0  0  1  0  0  0  0  0  0
    0.0000    0.0000   -0.6715 H   0  0  0  0  0  0  0  0  0  0  0  0
  1  2  1  0
M  RAD  1   1   2
M  END
>  <reaction>  (2) 
rmg_rxn_16470

>  <mol_properties>  (2) 
{"0": {"label": "acceptor", "atom_type": "S2s"}}

>  <type>  (2) 
r2

$$$$

     RDKit          3D

  3  2  0  0  0  0  0  0  0  0999 V2000
   -0.0007    0.6157    0.0000 S   0  0  0  0  0  0  0  0  0  0  0  0
   -0.9686   -0.3090    0.0000 H   0  0  0  0  0  0  0  0  0  0  0  0
    0.9693   -0.3067    0.0000 H   0  0  0  0  0  0  0  0  0  0  0  0
  1  2  1  0
  1  3  1  0
M  END
>  <reaction>  (3) 
rmg_rxn_16470

>  <mol_properties>  (3) 
{"0": {"label": "acceptor", "atom_type": "S2s"}, "2": {"label": "a_hydrogen", "atom_type": "H0"}}

>  <type>  (3) 
r2h

$$$$

     RDKit          3D

 10  8  0  0  0  0  0  0  0  0999 V2000
   -0.2129   -0.3086    1.9905 S   0  0  0  0  0  1  0  0  0  0  0  0
    1.1139   -0.4528    2.1102 H   0  0  0  0  0  0  0  0  0  0  0  0
   -0.0024   -0.4100   -2.8536 C   0  0  0  0  0  0  0  0  0  0  0  0
   -0.0860   -0.4393   -1.3578 C   0  0  0  0  0  0  0  0  0  0  0  0
    0.0858    0.5858   -0.6630 N   0  0  0  0  0  0  0  0  0  0  0  0
    0.7729   -1.1025   -3.1870 H   0  0  0  0  0  0  0  0  0  0  0  0
   -0.9505   -0.7481   -3.2758 H   0  0  0  0  0  0  0  0  0  0  0  0
    0.2220    0.5916   -3.2137 H   0  0  0  0  0  0  0  0  0  0  0  0
   -0.3073   -1.3995   -0.8805 H   0  0  0  0  0  0  0  0  0  0  0  0
   -0.0555    0.3594    0.6074 H   0  0  0  0  0  0  0  0  0  0  0  0
  1  2  1  0
  3  4  1  0
  3  6  1  0
  3  7  1  0
  3  8  1  0
  4  5  2  3
  4  9  1  0
  5 10  1  0
M  RAD  1   1   2
M  END
>  <reaction>  (4) 
rmg_rxn_16470

>  <mol_properties>  (4) 
{"0": {"label": "*3", "atom_type": "S2s"}, "1": {"label": "*4", "atom_type": "H0"}, "3": {"label": "*0", "atom_type": "Cd"}, "4": {"label": "*1", "atom_type": "N3d"}, "9": {"label": "*2", "atom_type": "H0"}}

>  <type>  (4) 
ts

$$$$

     RDKit          3D

 10  8  0  0  0  0  0  0  0  0999 V2000
    2.1022   -0.1284   -0.0002 S   0  0  0  0  0  1  0  0  0  0  0  0
    2.4984    1.1379    0.0096 H   0  0  0  0  0  0  0  0  0  0  0  0
   -2.8702   -0.1033    0.0003 C   0  0  0  0  0  0  0  0  0  0  0  0
   -1.3916   -0.3074    0.0002 C   0  0  0  0  0  0  0  0  0  0  0  0
   -0.5993    0.6490   -0.0009 N   0  0  0  0  0  0  0  0  0  0  0  0
   -3.2977   -0.5792   -0.8806 H   0  0  0  0  0  0  0  0  0  0  0  0
   -3.2974   -0.5773    0.8824 H   0  0  0  0  0  0  0  0  0  0  0  0
   -3.1064    0.9567   -0.0007 H   0  0  0  0  0  0  0  0  0  0  0  0
   -1.0804   -1.3591    0.0013 H   0  0  0  0  0  0  0  0  0  0  0  0
    0.5319    0.3802   -0.0010 H   0  0  0  0  0  0  0  0  0  0  0  0
  1  2  1  0
  3  4  1  0
  3  6  1  0
  3  7  1  0
  3  8  1  0
  4  5  2  3
  4  9  1  0
  5 10  1  0
M  RAD  1   1   2
M  END
>  <reaction>  (5) 
rmg_rxn_16470

>  <mol_properties>  (5) 
{"0": {"label": "*3", "atom_type": "S2s"}, "1": {"label": "*4", "atom_type": "H0"}, "3": {"label": "*0", "atom_type": "Cd"}, "4": {"label": "*1", "atom_type": "N3d"}, "9": {"label": "*2", "atom_type": "H0"}}

>  <type>  (5) 
unop_1

>  <geom_source>  (5) 
crest_best.xyz

$$$$

     RDKit          3D

 10  8  0  0  0  0  0  0  0  0999 V2000
   -0.0154    0.1020    2.1038 S   0  0  0  0  0  1  0  0  0  0  0  0
    1.1426    0.7464    2.2929 H   0  0  0  0  0  0  0  0  0  0  0  0
   -0.0154   -0.4378   -2.8334 C   0  0  0  0  0  0  0  0  0  0  0  0
   -0.0154   -0.4378   -1.3410 C   0  0  0  0  0  0  0  0  0  0  0  0
   -0.0154    0.6348   -0.6734 N   0  0  0  0  0  0  0  0  0  0  0  0
    0.8629   -0.9678   -3.2108 H   0  0  0  0  0  0  0  0  0  0  0  0
   -0.8936   -0.9678   -3.2108 H   0  0  0  0  0  0  0  0  0  0  0  0
   -0.0154    0.5828   -3.2120 H   0  0  0  0  0  0  0  0  0  0  0  0
   -0.0153   -1.4275   -0.8664 H   0  0  0  0  0  0  0  0  0  0  0  0
   -0.0154    0.4047    0.5262 H   0  0  0  0  0  0  0  0  0  0  0  0
  1  2  1  0
  3  4  1  0
  3  6  1  0
  3  7  1  0
  3  8  1  0
  4  5  2  3
  4  9  1  0
  5 10  1  0
M  RAD  1   1   2
M  END
>  <reaction>  (6) 
rmg_rxn_16470

>  <mol_properties>  (6) 
{"0": {"label": "*3", "atom_type": "S2s"}, "1": {"label": "*4", "atom_type": "H0"}, "3": {"label": "*0", "atom_type": "Cd"}, "4": {"label": "*1", "atom_type": "N3d"}, "9": {"label": "*2", "atom_type": "H0"}}

>  <type>  (6) 
unop_2

>  <geom_source>  (6) 
Heuristics

$$$$

     RDKit          3D

 10  8  0  0  0  0  0  0  0  0999 V2000
   -0.0089    0.1257    2.1084 S   0  0  0  0  0  1  0  0  0  0  0  0
    0.6597   -1.0236    1.9533 H   0  0  0  0  0  0  0  0  0  0  0  0
   -0.0089   -0.4140   -2.8288 C   0  0  0  0  0  0  0  0  0  0  0  0
   -0.0089   -0.4140   -1.3365 C   0  0  0  0  0  0  0  0  0  0  0  0
   -0.0089    0.6586   -0.6688 N   0  0  0  0  0  0  0  0  0  0  0  0
    0.8694   -0.9440   -3.2062 H   0  0  0  0  0  0  0  0  0  0  0  0
   -0.8871   -0.9440   -3.2062 H   0  0  0  0  0  0  0  0  0  0  0  0
   -0.0089    0.6066   -3.2074 H   0  0  0  0  0  0  0  0  0  0  0  0
   -0.0089   -1.4037   -0.8618 H   0  0  0  0  0  0  0  0  0  0  0  0
   -0.0089    0.4284    0.5308 H   0  0  0  0  0  0  0  0  0  0  0  0
  1  2  1  0
  3  4  1  0
  3  6  1  0
  3  7  1  0
  3  8  1  0
  4  5  2  3
  4  9  1  0
  5 10  1  0
M  RAD  1   1   2
M  END
>  <reaction>  (7) 
rmg_rxn_16470

>  <mol_properties>  (7) 
{"0": {"label": "*3", "atom_type": "S2s"}, "1": {"label": "*4", "atom_type": "H0"}, "3": {"label": "*0", "atom_type": "Cd"}, "4": {"label": "*1", "atom_type": "N3d"}, "9": {"label": "*2", "atom_type": "H0"}}

>  <type>  (7) 
unop_3

>  <geom_source>  (7) 
Heuristics

$$$$

     RDKit          3D

 10  8  0  0  0  0  0  0  0  0999 V2000
   -0.0089    0.0956    2.1026 S   0  0  0  0  0  1  0  0  0  0  0  0
    0.6597    1.2207    2.3839 H   0  0  0  0  0  0  0  0  0  0  0  0
   -0.0089   -0.4442   -2.8346 C   0  0  0  0  0  0  0  0  0  0  0  0
   -0.0089   -0.4442   -1.3423 C   0  0  0  0  0  0  0  0  0  0  0  0
   -0.0089    0.6284   -0.6746 N   0  0  0  0  0  0  0  0  0  0  0  0
    0.8694   -0.9742   -3.2120 H   0  0  0  0  0  0  0  0  0  0  0  0
   -0.8871   -0.9742   -3.2120 H   0  0  0  0  0  0  0  0  0  0  0  0
   -0.0089    0.5764   -3.2132 H   0  0  0  0  0  0  0  0  0  0  0  0
   -0.0089   -1.4339   -0.8676 H   0  0  0  0  0  0  0  0  0  0  0  0
   -0.0089    0.3983    0.5250 H   0  0  0  0  0  0  0  0  0  0  0  0
  1  2  1  0
  3  4  1  0
  3  6  1  0
  3  7  1  0
  3  8  1  0
  4  5  2  3
  4  9  1  0
  5 10  1  0
M  RAD  1   1   2
M  END
>  <reaction>  (8) 
rmg_rxn_16470

>  <mol_properties>  (8) 
{"0": {"label": "*3", "atom_type": "S2s"}, "1": {"label": "*4", "atom_type": "H0"}, "3": {"label": "*0", "atom_type": "Cd"}, "4": {"label": "*1", "atom_type": "N3d"}, "9": {"label": "*2", "atom_type": "H0"}}

>  <type>  (8) 
unop_4

>  <geom_source>  (8) 
Heuristics

$$$$

     RDKit          3D

 10  8  0  0  0  0  0  0  0  0999 V2000
    0.0154    0.1194    2.1071 S   0  0  0  0  0  1  0  0  0  0  0  0
   -1.1426   -0.5493    2.0443 H   0  0  0  0  0  0  0  0  0  0  0  0
    0.0154   -0.4204   -2.8300 C   0  0  0  0  0  0  0  0  0  0  0  0
    0.0154   -0.4204   -1.3377 C   0  0  0  0  0  0  0  0  0  0  0  0
    0.0154    0.6522   -0.6700 N   0  0  0  0  0  0  0  0  0  0  0  0
    0.8936   -0.9504   -3.2074 H   0  0  0  0  0  0  0  0  0  0  0  0
   -0.8629   -0.9504   -3.2074 H   0  0  0  0  0  0  0  0  0  0  0  0
    0.0154    0.6002   -3.2086 H   0  0  0  0  0  0  0  0  0  0  0  0
    0.0154   -1.4101   -0.8631 H   0  0  0  0  0  0  0  0  0  0  0  0
    0.0154    0.4221    0.5296 H   0  0  0  0  0  0  0  0  0  0  0  0
  1  2  1  0
  3  4  1  0
  3  6  1  0
  3  7  1  0
  3  8  1  0
  4  5  2  3
  4  9  1  0
  5 10  1  0
M  RAD  1   1   2
M  END
>  <reaction>  (9) 
rmg_rxn_16470

>  <mol_properties>  (9) 
{"0": {"label": "*3", "atom_type": "S2s"}, "1": {"label": "*4", "atom_type": "H0"}, "3": {"label": "*0", "atom_type": "Cd"}, "4": {"label": "*1", "atom_type": "N3d"}, "9": {"label": "*2", "atom_type": "H0"}}

>  <type>  (9) 
unop_5

>  <geom_source>  (9) 
Heuristics

$$$$

     RDKit          3D

 10  8  0  0  0  0  0  0  0  0999 V2000
   -0.0000    0.0933    2.1021 S   0  0  0  0  0  1  0  0  0  0  0  0
   -0.0000    1.3943    2.4172 H   0  0  0  0  0  0  0  0  0  0  0  0
    0.0000   -0.4465   -2.8350 C   0  0  0  0  0  0  0  0  0  0  0  0
    0.0000   -0.4465   -1.3427 C   0  0  0  0  0  0  0  0  0  0  0  0
    0.0000    0.6261   -0.6750 N   0  0  0  0  0  0  0  0  0  0  0  0
    0.8783   -0.9765   -3.2125 H   0  0  0  0  0  0  0  0  0  0  0  0
   -0.8783   -0.9765   -3.2125 H   0  0  0  0  0  0  0  0  0  0  0  0
   -0.0000    0.5741   -3.2136 H   0  0  0  0  0  0  0  0  0  0  0  0
    0.0000   -1.4362   -0.8681 H   0  0  0  0  0  0  0  0  0  0  0  0
   -0.0000    0.3959    0.5246 H   0  0  0  0  0  0  0  0  0  0  0  0
  1  2  1  0
  3  4  1  0
  3  6  1  0
  3  7  1  0
  3  8  1  0
  4  5  2  3
  4  9  1  0
  5 10  1  0
M  RAD  1   1   2
M  END
>  <reaction>  (10) 
rmg_rxn_16470

>  <mol_properties>  (10) 
{"0": {"label": "*3", "atom_type": "S2s"}, "1": {"label": "*4", "atom_type": "H0"}, "3": {"label": "*0", "atom_type": "Cd"}, "4": {"label": "*1", "atom_type": "N3d"}, "9": {"label": "*2", "atom_type": "H0"}}

>  <type>  (10) 
unop_6

>  <geom_source>  (10) 
Heuristics

$$$$

     RDKit          3D

 10  8  0  0  0  0  0  0  0  0999 V2000
    0.0177    0.1107    2.1055 S   0  0  0  0  0  1  0  0  0  0  0  0
   -1.3194    0.0986    2.1686 H   0  0  0  0  0  0  0  0  0  0  0  0
    0.0177   -0.4291   -2.8317 C   0  0  0  0  0  0  0  0  0  0  0  0
    0.0177   -0.4291   -1.3394 C   0  0  0  0  0  0  0  0  0  0  0  0
    0.0177    0.6435   -0.6717 N   0  0  0  0  0  0  0  0  0  0  0  0
    0.8960   -0.9591   -3.2091 H   0  0  0  0  0  0  0  0  0  0  0  0
   -0.8605   -0.9591   -3.2091 H   0  0  0  0  0  0  0  0  0  0  0  0
    0.0177    0.5915   -3.2103 H   0  0  0  0  0  0  0  0  0  0  0  0
    0.0177   -1.4188   -0.8647 H   0  0  0  0  0  0  0  0  0  0  0  0
    0.0177    0.4134    0.5279 H   0  0  0  0  0  0  0  0  0  0  0  0
  1  2  1  0
  3  4  1  0
  3  6  1  0
  3  7  1  0
  3  8  1  0
  4  5  2  3
  4  9  1  0
  5 10  1  0
M  RAD  1   1   2
M  END
>  <reaction>  (11) 
rmg_rxn_16470

>  <mol_properties>  (11) 
{"0": {"label": "*3", "atom_type": "S2s"}, "1": {"label": "*4", "atom_type": "H0"}, "3": {"label": "*0", "atom_type": "Cd"}, "4": {"label": "*1", "atom_type": "N3d"}, "9": {"label": "*2", "atom_type": "H0"}}

>  <type>  (11) 
unop_7

>  <geom_source>  (11) 
Heuristics

$$$$

     RDKit          3D

 10  8  0  0  0  0  0  0  0  0999 V2000
    0.0154    0.1020    2.1038 S   0  0  0  0  0  1  0  0  0  0  0  0
   -1.1426    0.7464    2.2929 H   0  0  0  0  0  0  0  0  0  0  0  0
    0.0154   -0.4378   -2.8334 C   0  0  0  0  0  0  0  0  0  0  0  0
    0.0154   -0.4378   -1.3410 C   0  0  0  0  0  0  0  0  0  0  0  0
    0.0154    0.6348   -0.6734 N   0  0  0  0  0  0  0  0  0  0  0  0
    0.8936   -0.9678   -3.2108 H   0  0  0  0  0  0  0  0  0  0  0  0
   -0.8629   -0.9678   -3.2108 H   0  0  0  0  0  0  0  0  0  0  0  0
    0.0154    0.5828   -3.2120 H   0  0  0  0  0  0  0  0  0  0  0  0
    0.0154   -1.4275   -0.8664 H   0  0  0  0  0  0  0  0  0  0  0  0
    0.0154    0.4047    0.5262 H   0  0  0  0  0  0  0  0  0  0  0  0
  1  2  1  0
  3  4  1  0
  3  6  1  0
  3  7  1  0
  3  8  1  0
  4  5  2  3
  4  9  1  0
  5 10  1  0
M  RAD  1   1   2
M  END
>  <reaction>  (12) 
rmg_rxn_16470

>  <mol_properties>  (12) 
{"0": {"label": "*3", "atom_type": "S2s"}, "1": {"label": "*4", "atom_type": "H0"}, "3": {"label": "*0", "atom_type": "Cd"}, "4": {"label": "*1", "atom_type": "N3d"}, "9": {"label": "*2", "atom_type": "H0"}}

>  <type>  (12) 
unop_8

>  <geom_source>  (12) 
Heuristics

$$$$

     RDKit          3D

 10  8  0  0  0  0  0  0  0  0999 V2000
   -0.0177    0.1107    2.1055 S   0  0  0  0  0  1  0  0  0  0  0  0
    1.3194    0.0986    2.1686 H   0  0  0  0  0  0  0  0  0  0  0  0
   -0.0177   -0.4291   -2.8317 C   0  0  0  0  0  0  0  0  0  0  0  0
   -0.0177   -0.4291   -1.3394 C   0  0  0  0  0  0  0  0  0  0  0  0
   -0.0177    0.6435   -0.6717 N   0  0  0  0  0  0  0  0  0  0  0  0
    0.8605   -0.9591   -3.2091 H   0  0  0  0  0  0  0  0  0  0  0  0
   -0.8960   -0.9591   -3.2091 H   0  0  0  0  0  0  0  0  0  0  0  0
   -0.0177    0.5915   -3.2103 H   0  0  0  0  0  0  0  0  0  0  0  0
   -0.0177   -1.4188   -0.8647 H   0  0  0  0  0  0  0  0  0  0  0  0
   -0.0177    0.4134    0.5279 H   0  0  0  0  0  0  0  0  0  0  0  0
  1  2  1  0
  3  4  1  0
  3  6  1  0
  3  7  1  0
  3  8  1  0
  4  5  2  3
  4  9  1  0
  5 10  1  0
M  RAD  1   1   2
M  END
>  <reaction>  (13) 
rmg_rxn_16470

>  <mol_properties>  (13) 
{"0": {"label": "*3", "atom_type": "S2s"}, "1": {"label": "*4", "atom_type": "H0"}, "3": {"label": "*0", "atom_type": "Cd"}, "4": {"label": "*1", "atom_type": "N3d"}, "9": {"label": "*2", "atom_type": "H0"}}

>  <type>  (13) 
unop_9

>  <geom_source>  (13) 
Heuristics

$$$$

     RDKit          3D

 10  8  0  0  0  0  0  0  0  0999 V2000
    2.1022   -0.1284   -0.0002 S   0  0  0  0  0  1  0  0  0  0  0  0
    2.4984    1.1379    0.0096 H   0  0  0  0  0  0  0  0  0  0  0  0
   -2.8702   -0.1033    0.0003 C   0  0  0  0  0  0  0  0  0  0  0  0
   -1.3916   -0.3074    0.0002 C   0  0  0  0  0  0  0  0  0  0  0  0
   -0.5993    0.6490   -0.0009 N   0  0  0  0  0  0  0  0  0  0  0  0
   -3.2977   -0.5792   -0.8806 H   0  0  0  0  0  0  0  0  0  0  0  0
   -3.2974   -0.5773    0.8824 H   0  0  0  0  0  0  0  0  0  0  0  0
   -3.1064    0.9567   -0.0007 H   0  0  0  0  0  0  0  0  0  0  0  0
   -1.0804   -1.3591    0.0013 H   0  0  0  0  0  0  0  0  0  0  0  0
    0.5319    0.3802   -0.0010 H   0  0  0  0  0  0  0  0  0  0  0  0
  1  2  1  0
  3  4  1  0
  3  6  1  0
  3  7  1  0
  3  8  1  0
  4  5  2  3
  4  9  1  0
  5 10  1  0
M  RAD  1   1   2
M  END
>  <reaction>  (14) 
rmg_rxn_16470

>  <mol_properties>  (14) 
{"0": {"label": "*3", "atom_type": "S2s"}, "1": {"label": "*4", "atom_type": "H0"}, "3": {"label": "*0", "atom_type": "Cd"}, "4": {"label": "*1", "atom_type": "N3d"}, "9": {"label": "*2", "atom_type": "H0"}}

>  <type>  (14) 
unop_10

>  <geom_source>  (14) 
Heuristics

$$$$

     RDKit          3D

 10  8  0  0  0  0  0  0  0  0999 V2000
    0.0089    0.1257    2.1084 S   0  0  0  0  0  1  0  0  0  0  0  0
   -0.6597   -1.0236    1.9533 H   0  0  0  0  0  0  0  0  0  0  0  0
    0.0089   -0.4140   -2.8288 C   0  0  0  0  0  0  0  0  0  0  0  0
    0.0089   -0.4140   -1.3365 C   0  0  0  0  0  0  0  0  0  0  0  0
    0.0089    0.6586   -0.6688 N   0  0  0  0  0  0  0  0  0  0  0  0
    0.8871   -0.9440   -3.2062 H   0  0  0  0  0  0  0  0  0  0  0  0
   -0.8694   -0.9440   -3.2062 H   0  0  0  0  0  0  0  0  0  0  0  0
    0.0089    0.6066   -3.2074 H   0  0  0  0  0  0  0  0  0  0  0  0
    0.0089   -1.4037   -0.8618 H   0  0  0  0  0  0  0  0  0  0  0  0
    0.0089    0.4284    0.5308 H   0  0  0  0  0  0  0  0  0  0  0  0
  1  2  1  0
  3  4  1  0
  3  6  1  0
  3  7  1  0
  3  8  1  0
  4  5  2  3
  4  9  1  0
  5 10  1  0
M  RAD  1   1   2
M  END
>  <reaction>  (15) 
rmg_rxn_16470

>  <mol_properties>  (15) 
{"0": {"label": "*3", "atom_type": "S2s"}, "1": {"label": "*4", "atom_type": "H0"}, "3": {"label": "*0", "atom_type": "Cd"}, "4": {"label": "*1", "atom_type": "N3d"}, "9": {"label": "*2", "atom_type": "H0"}}

>  <type>  (15) 
unop_11

>  <geom_source>  (15) 
Heuristics

$$$$

     RDKit          3D

 10  8  0  0  0  0  0  0  0  0999 V2000
   -0.0154    0.1194    2.1071 S   0  0  0  0  0  1  0  0  0  0  0  0
    1.1426   -0.5493    2.0443 H   0  0  0  0  0  0  0  0  0  0  0  0
   -0.0154   -0.4204   -2.8300 C   0  0  0  0  0  0  0  0  0  0  0  0
   -0.0154   -0.4204   -1.3377 C   0  0  0  0  0  0  0  0  0  0  0  0
   -0.0154    0.6522   -0.6700 N   0  0  0  0  0  0  0  0  0  0  0  0
    0.8629   -0.9504   -3.2074 H   0  0  0  0  0  0  0  0  0  0  0  0
   -0.8936   -0.9504   -3.2074 H   0  0  0  0  0  0  0  0  0  0  0  0
   -0.0154    0.6002   -3.2086 H   0  0  0  0  0  0  0  0  0  0  0  0
   -0.0153   -1.4101   -0.8631 H   0  0  0  0  0  0  0  0  0  0  0  0
   -0.0154    0.4221    0.5296 H   0  0  0  0  0  0  0  0  0  0  0  0
  1  2  1  0
  3  4  1  0
  3  6  1  0
  3  7  1  0
  3  8  1  0
  4  5  2  3
  4  9  1  0
  5 10  1  0
M  RAD  1   1   2
M  END
>  <reaction>  (16) 
rmg_rxn_16470

>  <mol_properties>  (16) 
{"0": {"label": "*3", "atom_type": "S2s"}, "1": {"label": "*4", "atom_type": "H0"}, "3": {"label": "*0", "atom_type": "Cd"}, "4": {"label": "*1", "atom_type": "N3d"}, "9": {"label": "*2", "atom_type": "H0"}}

>  <type>  (16) 
unop_12

>  <geom_source>  (16) 
Heuristics

$$$$

     RDKit          3D

 10  8  0  0  0  0  0  0  0  0999 V2000
    0.0089    0.0956    2.1026 S   0  0  0  0  0  1  0  0  0  0  0  0
   -0.6597    1.2207    2.3839 H   0  0  0  0  0  0  0  0  0  0  0  0
    0.0089   -0.4442   -2.8346 C   0  0  0  0  0  0  0  0  0  0  0  0
    0.0089   -0.4442   -1.3423 C   0  0  0  0  0  0  0  0  0  0  0  0
    0.0089    0.6284   -0.6746 N   0  0  0  0  0  0  0  0  0  0  0  0
    0.8871   -0.9742   -3.2120 H   0  0  0  0  0  0  0  0  0  0  0  0
   -0.8694   -0.9742   -3.2120 H   0  0  0  0  0  0  0  0  0  0  0  0
    0.0089    0.5764   -3.2132 H   0  0  0  0  0  0  0  0  0  0  0  0
    0.0089   -1.4339   -0.8676 H   0  0  0  0  0  0  0  0  0  0  0  0
    0.0089    0.3983    0.5250 H   0  0  0  0  0  0  0  0  0  0  0  0
  1  2  1  0
  3  4  1  0
  3  6  1  0
  3  7  1  0
  3  8  1  0
  4  5  2  3
  4  9  1  0
  5 10  1  0
M  RAD  1   1   2
M  END
>  <reaction>  (17) 
rmg_rxn_16470

>  <mol_properties>  (17) 
{"0": {"label": "*3", "atom_type": "S2s"}, "1": {"label": "*4", "atom_type": "H0"}, "3": {"label": "*0", "atom_type": "Cd"}, "4": {"label": "*1", "atom_type": "N3d"}, "9": {"label": "*2", "atom_type": "H0"}}

>  <type>  (17) 
unop_13

>  <geom_source>  (17) 
Heuristics

$$$$

     RDKit          3D

 10  8  0  0  0  0  0  0  0  0999 V2000
   -0.0000    0.1281    2.1088 S   0  0  0  0  0  1  0  0  0  0  0  0
   -0.0000   -1.1972    1.9199 H   0  0  0  0  0  0  0  0  0  0  0  0
    0.0000   -0.4117   -2.8284 C   0  0  0  0  0  0  0  0  0  0  0  0
    0.0000   -0.4117   -1.3360 C   0  0  0  0  0  0  0  0  0  0  0  0
    0.0000    0.6609   -0.6683 N   0  0  0  0  0  0  0  0  0  0  0  0
    0.8783   -0.9417   -3.2058 H   0  0  0  0  0  0  0  0  0  0  0  0
   -0.8783   -0.9417   -3.2058 H   0  0  0  0  0  0  0  0  0  0  0  0
   -0.0000    0.6089   -3.2070 H   0  0  0  0  0  0  0  0  0  0  0  0
    0.0000   -1.4014   -0.8614 H   0  0  0  0  0  0  0  0  0  0  0  0
   -0.0000    0.4308    0.5312 H   0  0  0  0  0  0  0  0  0  0  0  0
  1  2  1  0
  3  4  1  0
  3  6  1  0
  3  7  1  0
  3  8  1  0
  4  5  2  3
  4  9  1  0
  5 10  1  0
M  RAD  1   1   2
M  END
>  <reaction>  (18) 
rmg_rxn_16470

>  <mol_properties>  (18) 
{"0": {"label": "*3", "atom_type": "S2s"}, "1": {"label": "*4", "atom_type": "H0"}, "3": {"label": "*0", "atom_type": "Cd"}, "4": {"label": "*1", "atom_type": "N3d"}, "9": {"label": "*2", "atom_type": "H0"}}

>  <type>  (18) 
unop_14

>  <geom_source>  (18) 
Heuristics

$$$$

     RDKit          3D

 10  8  0  0  0  0  0  0  0  0999 V2000
   -0.0089    0.1257    2.1084 S   0  0  0  0  0  1  0  0  0  0  0  0
    0.6597   -1.0236    1.9532 H   0  0  0  0  0  0  0  0  0  0  0  0
   -0.0089   -0.4140   -2.8288 C   0  0  0  0  0  0  0  0  0  0  0  0
   -0.0089   -0.4140   -1.3365 C   0  0  0  0  0  0  0  0  0  0  0  0
   -0.0089    0.6586   -0.6688 N   0  0  0  0  0  0  0  0  0  0  0  0
    0.8694   -0.9440   -3.2062 H   0  0  0  0  0  0  0  0  0  0  0  0
   -0.8871   -0.9440   -3.2062 H   0  0  0  0  0  0  0  0  0  0  0  0
   -0.0089    0.6066   -3.2074 H   0  0  0  0  0  0  0  0  0  0  0  0
   -0.0089   -1.4037   -0.8618 H   0  0  0  0  0  0  0  0  0  0  0  0
   -0.0089    0.4284    0.5308 H   0  0  0  0  0  0  0  0  0  0  0  0
  1  2  1  0
  3  4  1  0
  3  6  1  0
  3  7  1  0
  3  8  1  0
  4  5  2  3
  4  9  1  0
  5 10  1  0
M  RAD  1   1   2
M  END
>  <reaction>  (19) 
rmg_rxn_16470

>  <mol_properties>  (19) 
{"0": {"label": "*3", "atom_type": "S2s"}, "1": {"label": "*4", "atom_type": "H0"}, "3": {"label": "*0", "atom_type": "Cd"}, "4": {"label": "*1", "atom_type": "N3d"}, "9": {"label": "*2", "atom_type": "H0"}}

>  <type>  (19) 
unop_15

>  <geom_source>  (19) 
gaussian_log

$$$$
