
     RDKit          3D

 14 13  0  0  0  0  0  0  0  0999 V2000
   -1.9312   -0.1255    0.0000 C   0  0  0  0  0  0  0  0  0  0  0  0
   -0.5563    0.5232   -0.0000 C   0  0  0  0  0  0  0  0  0  0  0  0
    0.5563   -0.5232   -0.0000 C   0  0  0  0  0  0  0  0  0  0  0  0
    1.9312    0.1255    0.0000 C   0  0  0  0  0  0  0  0  0  0  0  0
   -2.0697   -0.7514    0.8874 H   0  0  0  0  0  0  0  0  0  0  0  0
   -2.0698   -0.7514   -0.8873 H   0  0  0  0  0  0  0  0  0  0  0  0
   -2.7122    0.6414    0.0000 H   0  0  0  0  0  0  0  0  0  0  0  0
   -0.4623    1.1669   -0.8824 H   0  0  0  0  0  0  0  0  0  0  0  0
   -0.4622    1.1670    0.8823 H   0  0  0  0  0  0  0  0  0  0  0  0
    0.4623   -1.1669   -0.8824 H   0  0  0  0  0  0  0  0  0  0  0  0
    0.4622   -1.1670    0.8823 H   0  0  0  0  0  0  0  0  0  0  0  0
    2.0697    0.7514    0.8874 H   0  0  0  0  0  0  0  0  0  0  0  0
    2.0698    0.7515   -0.8873 H   0  0  0  0  0  0  0  0  0  0  0  0
    2.7122   -0.6414    0.0000 H   0  0  0  0  0  0  0  0  0  0  0  0
  1  2  1  0
  1  5  1  0
  1  6  1  0
  1  7  1  0
  2  3  1  0
  2  8  1  0
  2  9  1  0
  3  4  1  0
  3 10  1  0
  3 11  1  0
  4 12  1  0
  4 13  1  0
  4 14  1  0
M  END
>  <reaction>  (1) 
rmg_rxn_1142

>  <mol_properties>  (1) 
{"3": {"label": "donator", "atom_type": "Cs"}, "12": {"label": "d_hydrogen", "atom_type": "H0"}}

>  <type>  (1) 
r1h

$$$$

     RDKit          3D

  1  0  0  0  0  0  0  0  0  0999 V2000
    0.0000    0.0000    0.0000 O   0  0  0  0  0 15  0  0  0  0  0  0
M  END
>  <reaction>  (2) 
rmg_rxn_1142

>  <mol_properties>  (2) 
{"0": {"label": "acceptor", "atom_type": "O2s"}}

>  <type>  (2) 
r2

$$$$

     RDKit          3D

  2  1  0  0  0  0  0  0  0  0999 V2000
    0.0000    0.0000    0.1079 O   0  0  0  0  0  1  0  0  0  0  0  0
    0.0000    0.0000   -0.8631 H   0  0  0  0  0  0  0  0  0  0  0  0
  1  2  1  0
M  RAD  1   1   2
M  END
>  <reaction>  (3) 
rmg_rxn_1142

>  <mol_properties>  (3) 
{"0": {"label": "acceptor", "atom_type": "O2s"}, "1": {"label": "a_hydrogen", "atom_type": "H0"}}

>  <type>  (3) 
r2h

$$$$

     RDKit          3D

 15 13  0  0  0  0  0  0  0  0999 V2000
   -2.2769   -1.2253   -0.1389 O   0  0  0  0  0  1  0  0  0  0  0  0
    2.3392   -0.4481   -0.1217 C   0  0  0  0  0  0  0  0  0  0  0  0
    0.9240   -0.2487    0.4060 C   0  0  0  0  0  0  0  0  0  0  0  0
    0.1577    0.8543   -0.3232 C   0  0  0  0  0  0  0  0  0  0  0  0
   -1.2500    1.0407    0.1778 C   0  0  0  0  0  3  0  0  0  0  0  0
    2.9405    0.4689   -0.0151 H   0  0  0  0  0  0  0  0  0  0  0  0
    2.3312   -0.7173   -1.1897 H   0  0  0  0  0  0  0  0  0  0  0  0
    2.8591   -1.2524    0.4193 H   0  0  0  0  0  0  0  0  0  0  0  0
    0.3452   -1.1816    0.3128 H   0  0  0  0  0  0  0  0  0  0  0  0
    0.9571   -0.0125    1.4838 H   0  0  0  0  0  0  0  0  0  0  0  0
    0.1402    0.6411   -1.4057 H   0  0  0  0  0  0  0  0  0  0  0  0
    0.6969    1.8157   -0.2170 H   0  0  0  0  0  0  0  0  0  0  0  0
   -1.3436    1.1980    1.2623 H   0  0  0  0  0  0  0  0  0  0  0  0
   -1.8602   -0.0839    0.0214 H   0  0  0  0  0  0  0  0  0  0  0  0
   -1.8768    1.7375   -0.3944 H   0  0  0  0  0  0  0  0  0  0  0  0
  1 14  1  0
  2  3  1  0
  2  6  1  0
  2  7  1  0
  2  8  1  0
  3  4  1  0
  3  9  1  0
  3 10  1  0
  4  5  1  0
  4 11  1  0
  4 12  1  0
  5 13  1  0
  5 15  1  0
M  RAD  2   1   2   5   2
M  END
>  <reaction>  (4) 
rmg_rxn_1142

>  <mol_properties>  (4) 
{"0": {"label": "*1", "atom_type": "O2s"}, "3": {"label": "*4", "atom_type": "Cs"}, "4": {"label": "*3", "atom_type": "Cs"}, "13": {"label": "*2", "atom_type": "H0"}}

>  <type>  (4) 
ts

$$$$

     RDKit          3D

 15 13  0  0  0  0  0  0  0  0999 V2000
   -1.5729   -0.3417    2.1071 O   0  0  0  0  0  1  0  0  0  0  0  0
    0.4362   -0.6147   -2.3818 C   0  0  0  0  0  0  0  0  0  0  0  0
    0.4362   -0.6147   -0.8615 C   0  0  0  0  0  0  0  0  0  0  0  0
    0.4362    0.8064   -0.3018 C   0  0  0  0  0  0  0  0  0  0  0  0
    0.4363    0.8064    1.2185 C   0  0  0  0  0  3  0  0  0  0  0  0
    1.3236   -0.1077   -2.7741 H   0  0  0  0  0  0  0  0  0  0  0  0
   -0.4511   -0.1077   -2.7741 H   0  0  0  0  0  0  0  0  0  0  0  0
    0.4362   -1.6415   -2.7608 H   0  0  0  0  0  0  0  0  0  0  0  0
   -0.4461   -1.1568   -0.5018 H   0  0  0  0  0  0  0  0  0  0  0  0
    1.3186   -1.1568   -0.5018 H   0  0  0  0  0  0  0  0  0  0  0  0
   -0.4462    1.3485   -0.6615 H   0  0  0  0  0  0  0  0  0  0  0  0
    1.3186    1.3485   -0.6616 H   0  0  0  0  0  0  0  0  0  0  0  0
    1.3238    0.2995    1.6108 H   0  0  0  0  0  0  0  0  0  0  0  0
   -0.6284    0.1980    1.6894 H   0  0  0  0  0  0  0  0  0  0  0  0
    0.4363    1.8332    1.5975 H   0  0  0  0  0  0  0  0  0  0  0  0
  1 14  1  0
  2  3  1  0
  2  6  1  0
  2  7  1  0
  2  8  1  0
  3  4  1  0
  3  9  1  0
  3 10  1  0
  4  5  1  0
  4 11  1  0
  4 12  1  0
  5 13  1  0
  5 15  1  0
M  RAD  2   1   2   5   2
M  END
>  <reaction>  (5) 
rmg_rxn_1142

>  <mol_properties>  (5) 
{"0": {"label": "*1", "atom_type": "O2s"}, "3": {"label": "*4", "atom_type": "Cs"}, "4": {"label": "*3", "atom_type": "Cs"}, "13": {"label": "*2", "atom_type": "H0"}}

>  <type>  (5) 
unop_1

>  <geom_source>  (5) 
Heuristics

$$$$

     RDKit          3D

 15 13  0  0  0  0  0  0  0  0999 V2000
    3.5669    0.1779    0.5592 O   0  0  0  0  0 15  0  0  0  0  0  0
   -0.8308    0.2847   -0.8261 C   0  0  0  0  0  0  0  0  0  0  0  0
    0.4210    0.7280   -0.0550 C   0  0  0  0  0  0  0  0  0  0  0  0
   -1.8965   -0.3261    0.0832 C   0  0  0  0  0  0  0  0  0  0  0  0
    1.2372   -0.4501    0.4685 C   0  0  0  0  0  0  0  0  0  0  0  0
   -0.5538   -0.4449   -1.6179 H   0  0  0  0  0  0  0  0  0  0  0  0
   -1.2683    1.1752   -1.3274 H   0  0  0  0  0  0  0  0  0  0  0  0
    0.1376    1.3879    0.7931 H   0  0  0  0  0  0  0  0  0  0  0  0
    1.0686    1.3176   -0.7383 H   0  0  0  0  0  0  0  0  0  0  0  0
   -2.1571    0.3769    0.9028 H   0  0  0  0  0  0  0  0  0  0  0  0
   -1.5408   -1.2839    0.5163 H   0  0  0  0  0  0  0  0  0  0  0  0
   -2.8125   -0.5329   -0.5093 H   0  0  0  0  0  0  0  0  0  0  0  0
    0.6949   -0.9939    1.2697 H   0  0  0  0  0  0  0  0  0  0  0  0
    1.5111   -1.1434   -0.3549 H   0  0  0  0  0  0  0  0  0  0  0  0
    2.4226   -0.2730    0.8362 H   0  0  0  0  0  0  0  0  0  0  0  0
  2  4  1  0
  2  3  1  0
  2  6  1  0
  2  7  1  0
  3  5  1  0
  3  8  1  0
  3  9  1  0
  4 10  1  0
  4 11  1  0
  4 12  1  0
  5 13  1  0
  5 14  1  0
  5 15  1  0
M  END
>  <reaction>  (6) 
rmg_rxn_1142

>  <mol_properties>  (6) 
{"0": {"label": "*1", "atom_type": "O2s"}, "3": {"label": "*4", "atom_type": "Cs"}, "4": {"label": "*3", "atom_type": "Cs"}, "13": {"label": "*2", "atom_type": "H0"}}

>  <type>  (6) 
unop_2

>  <geom_source>  (6) 
AutoTST

$$$$

     RDKit          3D

 15 13  0  0  0  0  0  0  0  0999 V2000
   -2.6737    0.5631    1.0731 O   0  0  0  0  0  1  0  0  0  0  0  0
    0.2318   -1.0513   -0.1616 C   0  0  0  0  0  0  0  0  0  0  0  0
    1.0890    0.1806   -0.4879 C   0  0  0  0  0  0  0  0  0  0  0  0
   -1.2634   -0.7939   -0.3405 C   0  0  0  0  0  3  0  0  0  0  0  0
    0.9343    1.2984    0.5427 C   0  0  0  0  0  0  0  0  0  0  0  0
    0.5284   -1.8758   -0.8457 H   0  0  0  0  0  0  0  0  0  0  0  0
    0.4279   -1.3896    0.8788 H   0  0  0  0  0  0  0  0  0  0  0  0
    2.1560   -0.1304   -0.5069 H   0  0  0  0  0  0  0  0  0  0  0  0
    0.8341    0.5676   -1.4984 H   0  0  0  0  0  0  0  0  0  0  0  0
   -1.6845    0.0123    0.5354 H   0  0  0  0  0  0  0  0  0  0  0  0
   -1.4711   -0.3865   -1.3528 H   0  0  0  0  0  0  0  0  0  0  0  0
   -1.8181   -1.7488   -0.2240 H   0  0  0  0  0  0  0  0  0  0  0  0
    1.1306    0.9142    1.5662 H   0  0  0  0  0  0  0  0  0  0  0  0
   -0.0853    1.7340    0.4989 H   0  0  0  0  0  0  0  0  0  0  0  0
    1.6640    2.1060    0.3228 H   0  0  0  0  0  0  0  0  0  0  0  0
  1 10  1  0
  2  4  1  0
  2  3  1  0
  2  6  1  0
  2  7  1  0
  3  5  1  0
  3  8  1  0
  3  9  1  0
  4 11  1  0
  4 12  1  0
  5 13  1  0
  5 14  1  0
  5 15  1  0
M  RAD  2   1   2   4   2
M  END
>  <reaction>  (7) 
rmg_rxn_1142

>  <mol_properties>  (7) 
{"0": {"label": "*1", "atom_type": "O2s"}, "3": {"label": "*4", "atom_type": "Cs"}, "4": {"label": "*3", "atom_type": "Cs"}, "13": {"label": "*2", "atom_type": "H0"}}

>  <type>  (7) 
unop_3

>  <geom_source>  (7) 
gaussian_log

$$$$
