
     RDKit          3D

 14 14  0  0  0  0  0  0  0  0999 V2000
   -1.1778    0.2241    0.1818 C   0  0  0  0  0  0  0  0  0  0  0  0
   -0.5633   -1.1636    0.0678 C   0  0  0  0  0  0  0  0  0  0  0  0
    0.6943   -1.1996    0.7146 O   0  0  0  0  0  0  0  0  0  0  0  0
    1.5547   -0.2288    0.2011 C   0  0  0  0  0  0  0  0  0  0  0  0
    1.0729    1.0696    0.3698 O   0  0  0  0  0  0  0  0  0  0  0  0
   -0.1607    1.2493   -0.2989 C   0  0  0  0  0  0  0  0  0  0  0  0
   -2.0927    0.2866   -0.4117 H   0  0  0  0  0  0  0  0  0  0  0  0
   -1.4303    0.4248    1.2248 H   0  0  0  0  0  0  0  0  0  0  0  0
   -1.1822   -1.9235    0.5431 H   0  0  0  0  0  0  0  0  0  0  0  0
   -0.4389   -1.4347   -0.9919 H   0  0  0  0  0  0  0  0  0  0  0  0
    1.7250   -0.4207   -0.8742 H   0  0  0  0  0  0  0  0  0  0  0  0
    2.4896   -0.3010    0.7524 H   0  0  0  0  0  0  0  0  0  0  0  0
   -0.0080    1.1481   -1.3844 H   0  0  0  0  0  0  0  0  0  0  0  0
   -0.4826    2.2695   -0.0942 H   0  0  0  0  0  0  0  0  0  0  0  0
  1  2  1  0
  1  6  1  0
  1  7  1  0
  1  8  1  0
  2  3  1  0
  2  9  1  0
  2 10  1  0
  3  4  1  0
  4  5  1  0
  4 11  1  0
  4 12  1  0
  5  6  1  0
  6 13  1  0
  6 14  1  0
M  END
>  <reaction>  (1) 
rmg_rxn_217

>  <mol_properties>  (1) 
{"3": {"label": "donator", "atom_type": "Cs"}, "10": {"label": "d_hydrogen", "atom_type": "H0"}}

>  <type>  (1) 
r1h

$$$$

     RDKit          3D

 17 16  0  0  0  0  0  0  0  0999 V2000
    2.3993   -0.7259   -0.8796 C   0  0  0  0  0  0  0  0  0  0  0  0
    1.8173   -0.7170    0.4851 C   0  0  0  0  0  3  0  0  0  0  0  0
    2.6779   -0.5182    1.6852 C   0  0  0  0  0  0  0  0  0  0  0  0
    3.8710   -1.2723    1.6674 O   0  0  0  0  0  0  0  0  0  0  0  0
    3.6589   -2.6587    1.8015 C   0  0  0  0  0  0  0  0  0  0  0  0
    4.9969   -3.3586    1.7556 C   0  0  0  0  0  0  0  0  0  0  0  0
    3.3755   -1.2152   -0.8894 H   0  0  0  0  0  0  0  0  0  0  0  0
    1.7457   -1.2284   -1.5943 H   0  0  0  0  0  0  0  0  0  0  0  0
    2.5578    0.2962   -1.2545 H   0  0  0  0  0  0  0  0  0  0  0  0
    0.7445   -0.6275    0.6059 H   0  0  0  0  0  0  0  0  0  0  0  0
    2.1057   -0.7316    2.5992 H   0  0  0  0  0  0  0  0  0  0  0  0
    3.0103    0.5272    1.7516 H   0  0  0  0  0  0  0  0  0  0  0  0
    3.0050   -3.0235    0.9977 H   0  0  0  0  0  0  0  0  0  0  0  0
    3.1469   -2.8645    2.7531 H   0  0  0  0  0  0  0  0  0  0  0  0
    5.6430   -3.0039    2.5594 H   0  0  0  0  0  0  0  0  0  0  0  0
    4.8641   -4.4360    1.8660 H   0  0  0  0  0  0  0  0  0  0  0  0
    5.4957   -3.1672    0.8046 H   0  0  0  0  0  0  0  0  0  0  0  0
  1  2  1  0
  1  7  1  0
  1  8  1  0
  1  9  1  0
  2  3  1  0
  2 10  1  0
  3  4  1  0
  3 11  1  0
  3 12  1  0
  4  5  1  0
  5  6  1  0
  5 13  1  0
  5 14  1  0
  6 15  1  0
  6 16  1  0
  6 17  1  0
M  RAD  1   2   2
M  END
>  <reaction>  (2) 
rmg_rxn_217

>  <mol_properties>  (2) 
{"1": {"label": "acceptor", "atom_type": "Cs"}}

>  <type>  (2) 
r2

$$$$

     RDKit          3D

 18 17  0  0  0  0  0  0  0  0999 V2000
    2.2026   -0.7213   -0.2612 C   0  0  0  0  0  0  0  0  0  0  0  0
    1.5384    0.2638    0.6915 C   0  0  0  0  0  0  0  0  0  0  0  0
    2.2584    1.5946    0.7694 C   0  0  0  0  0  0  0  0  0  0  0  0
    2.2212    2.2185   -0.4893 O   0  0  0  0  0  0  0  0  0  0  0  0
    2.8988    3.4488   -0.5204 C   0  0  0  0  0  0  0  0  0  0  0  0
    2.7981    4.0296   -1.9118 C   0  0  0  0  0  0  0  0  0  0  0  0
    3.2294   -0.9309    0.0486 H   0  0  0  0  0  0  0  0  0  0  0  0
    2.2338   -0.3181   -1.2734 H   0  0  0  0  0  0  0  0  0  0  0  0
    1.6610   -1.6680   -0.2875 H   0  0  0  0  0  0  0  0  0  0  0  0
    1.4990   -0.1566    1.7002 H   0  0  0  0  0  0  0  0  0  0  0  0
    0.5055    0.4455    0.3835 H   0  0  0  0  0  0  0  0  0  0  0  0
    3.3038    1.4410    1.0808 H   0  0  0  0  0  0  0  0  0  0  0  0
    1.7844    2.2410    1.5226 H   0  0  0  0  0  0  0  0  0  0  0  0
    2.4596    4.1376    0.2164 H   0  0  0  0  0  0  0  0  0  0  0  0
    3.9524    3.3035   -0.2397 H   0  0  0  0  0  0  0  0  0  0  0  0
    1.7543    4.1869   -2.1856 H   0  0  0  0  0  0  0  0  0  0  0  0
    3.2472    3.3545   -2.6411 H   0  0  0  0  0  0  0  0  0  0  0  0
    3.3178    4.9878   -1.9600 H   0  0  0  0  0  0  0  0  0  0  0  0
  1  2  1  0
  1  7  1  0
  1  8  1  0
  1  9  1  0
  2  3  1  0
  2 10  1  0
  2 11  1  0
  3  4  1  0
  3 12  1  0
  3 13  1  0
  4  5  1  0
  5  6  1  0
  5 14  1  0
  5 15  1  0
  6 16  1  0
  6 17  1  0
  6 18  1  0
M  END
>  <reaction>  (3) 
rmg_rxn_217

>  <mol_properties>  (3) 
{"0": {"label": "a_hydrogen", "atom_type": "H0"}, "2": {"label": "acceptor", "atom_type": "Cs"}}

>  <type>  (3) 
r2h

$$$$

     RDKit          3D

 31 30  0  0  0  0  0  0  0  0999 V2000
   -0.8318   -2.2228   -2.5689 C   0  0  0  0  0  0  0  0  0  0  0  0
   -0.3696   -2.9458   -1.3138 C   0  0  0  0  0  0  0  0  0  0  0  0
   -1.2824   -2.7214   -0.2512 O   0  0  0  0  0  0  0  0  0  0  0  0
   -1.5069   -1.3798   -0.0208 C   0  0  0  0  0  0  0  0  0  0  0  0
   -1.9608   -0.6652   -1.1121 O   0  0  0  0  0  0  0  0  0  0  0  0
   -1.0872   -0.7640   -2.2254 C   0  0  0  0  0  0  0  0  0  0  0  0
   -0.0755   -2.3015   -3.3527 H   0  0  0  0  0  0  0  0  0  0  0  0
   -1.7540   -2.6786   -2.9348 H   0  0  0  0  0  0  0  0  0  0  0  0
   -0.3247   -4.0240   -1.4577 H   0  0  0  0  0  0  0  0  0  0  0  0
    0.6265   -2.5930   -1.0161 H   0  0  0  0  0  0  0  0  0  0  0  0
   -0.3631   -0.8282    0.3702 H   0  0  0  0  0  0  0  0  0  0  0  0
   -2.2194   -1.2740    0.7941 H   0  0  0  0  0  0  0  0  0  0  0  0
   -0.1412   -0.2576   -1.9903 H   0  0  0  0  0  0  0  0  0  0  0  0
   -1.5692   -0.2305   -3.0430 H   0  0  0  0  0  0  0  0  0  0  0  0
    1.0945   -0.8469    2.1536 C   0  0  0  0  0  0  0  0  0  0  0  0
    0.8096   -0.2146    0.8188 C   0  0  0  0  0  3  0  0  0  0  0  0
    0.4353    1.2359    0.8278 C   0  0  0  0  0  0  0  0  0  0  0  0
    1.5354    2.0172    1.2454 O   0  0  0  0  0  0  0  0  0  0  0  0
    1.2450    3.3915    1.3002 C   0  0  0  0  0  0  0  0  0  0  0  0
    2.4783    4.1355    1.7577 C   0  0  0  0  0  0  0  0  0  0  0  0
    0.2641   -0.6855    2.8463 H   0  0  0  0  0  0  0  0  0  0  0  0
    1.2466   -1.9236    2.0576 H   0  0  0  0  0  0  0  0  0  0  0  0
    1.9910   -0.4184    2.6114 H   0  0  0  0  0  0  0  0  0  0  0  0
    1.5519   -0.4488    0.0551 H   0  0  0  0  0  0  0  0  0  0  0  0
   -0.4142    1.4002    1.5095 H   0  0  0  0  0  0  0  0  0  0  0  0
    0.1114    1.5547   -0.1742 H   0  0  0  0  0  0  0  0  0  0  0  0
    0.4089    3.5709    1.9922 H   0  0  0  0  0  0  0  0  0  0  0  0
    0.9263    3.7478    0.3093 H   0  0  0  0  0  0  0  0  0  0  0  0
    3.3037    3.9696    1.0645 H   0  0  0  0  0  0  0  0  0  0  0  0
    2.2771    5.2068    1.8079 H   0  0  0  0  0  0  0  0  0  0  0  0
    2.7857    3.7936    2.7466 H   0  0  0  0  0  0  0  0  0  0  0  0
  1  2  1  0
  1  6  1  0
  1  7  1  0
  1  8  1  0
  2  3  1  0
  2  9  1  0
  2 10  1  0
  3  4  1  0
  4  5  1  0
  4 11  1  0
  4 12  1  0
  5  6  1  0
  6 13  1  0
  6 14  1  0
 15 16  1  0
 15 21  1  0
 15 22  1  0
 15 23  1  0
 16 17  1  0
 16 24  1  0
 17 18  1  0
 17 25  1  0
 17 26  1  0
 18 19  1  0
 19 20  1  0
 19 27  1  0
 19 28  1  0
 20 29  1  0
 20 30  1  0
 20 31  1  0
M  RAD  1  16   2
M  END
>  <reaction>  (4) 
rmg_rxn_217

>  <mol_properties>  (4) 
{"2": {"label": "*0", "atom_type": "O2s"}, "3": {"label": "*1", "atom_type": "Cs"}, "10": {"label": "*2", "atom_type": "H0"}, "15": {"label": "*3", "atom_type": "Cs"}, "16": {"label": "*4", "atom_type": "Cs"}}

>  <type>  (4) 
ts

$$$$

     RDKit          3D

 31 30  0  0  0  0  0  0  0  0999 V2000
   -1.0778   -2.5652   -2.1610 C   0  0  0  0  0  0  0  0  0  0  0  0
   -1.0778   -2.5652   -0.6390 C   0  0  0  0  0  0  0  0  0  0  0  0
   -2.1261   -1.7526   -0.1468 O   0  0  0  0  0  0  0  0  0  0  0  0
   -2.0352   -0.4530   -0.6462 C   0  0  0  0  0  3  0  0  0  0  0  0
   -2.1261   -0.3969   -2.0372 O   0  0  0  0  0  0  0  0  0  0  0  0
   -1.0778   -1.1236   -2.6491 C   0  0  0  0  0  0  0  0  0  0  0  0
   -0.2038   -3.0977   -2.5429 H   0  0  0  0  0  0  0  0  0  0  0  0
   -1.9744   -3.0714   -2.5240 H   0  0  0  0  0  0  0  0  0  0  0  0
   -1.2367   -3.5627   -0.2316 H   0  0  0  0  0  0  0  0  0  0  0  0
   -0.1142   -2.1892   -0.2622 H   0  0  0  0  0  0  0  0  0  0  0  0
   -0.8888    0.0894   -0.2571 H   0  0  0  0  0  0  0  0  0  0  0  0
   -2.8762    0.1075   -0.2442 H   0  0  0  0  0  0  0  0  0  0  0  0
   -0.1142   -0.6462   -2.4138 H   0  0  0  0  0  0  0  0  0  0  0  0
   -1.2367   -1.0576   -3.7246 H   0  0  0  0  0  0  0  0  0  0  0  0
    1.0806    1.0123   -1.0856 C   0  0  0  0  0  0  0  0  0  0  0  0
    0.2452    0.6260    0.1277 C   0  0  0  0  0  0  0  0  0  0  0  0
    1.0629    0.4947    1.3964 C   0  0  0  0  0  0  0  0  0  0  0  0
    1.6253    1.7414    1.7191 O   0  0  0  0  0  0  0  0  0  0  0  0
    2.4333    1.7065    2.8678 C   0  0  0  0  0  0  0  0  0  0  0  0
    2.9850    3.0901    3.1223 C   0  0  0  0  0  0  0  0  0  0  0  0
    1.8543    0.2652   -1.2797 H   0  0  0  0  0  0  0  0  0  0  0  0
    0.4608    1.0922   -1.9798 H   0  0  0  0  0  0  0  0  0  0  0  0
    1.5736    1.9711   -0.9255 H   0  0  0  0  0  0  0  0  0  0  0  0
   -0.5388    1.3690    0.2954 H   0  0  0  0  0  0  0  0  0  0  0  0
    1.8610   -0.2515    1.2560 H   0  0  0  0  0  0  0  0  0  0  0  0
    0.4290    0.1436    2.2239 H   0  0  0  0  0  0  0  0  0  0  0  0
    3.2523    0.9856    2.7280 H   0  0  0  0  0  0  0  0  0  0  0  0
    1.8437    1.3630    3.7308 H   0  0  0  0  0  0  0  0  0  0  0  0
    2.1738    3.8029    3.2747 H   0  0  0  0  0  0  0  0  0  0  0  0
    3.6166    3.0876    4.0120 H   0  0  0  0  0  0  0  0  0  0  0  0
    3.5825    3.4252    2.2737 H   0  0  0  0  0  0  0  0  0  0  0  0
  1  2  1  0
  1  6  1  0
  1  7  1  0
  1  8  1  0
  2  3  1  0
  2  9  1  0
  2 10  1  0
  3  4  1  0
  4  5  1  0
  4 12  1  0
  5  6  1  0
  6 13  1  0
  6 14  1  0
 11 16  1  0
 15 16  1  0
 15 21  1  0
 15 22  1  0
 15 23  1  0
 16 17  1  0
 16 24  1  0
 17 18  1  0
 17 25  1  0
 17 26  1  0
 18 19  1  0
 19 20  1  0
 19 27  1  0
 19 28  1  0
 20 29  1  0
 20 30  1  0
 20 31  1  0
M  RAD  1   4   2
M  END
>  <reaction>  (5) 
rmg_rxn_217

>  <mol_properties>  (5) 
{"2": {"label": "*0", "atom_type": "O2s"}, "3": {"label": "*1", "atom_type": "Cs"}, "10": {"label": "*2", "atom_type": "H0"}, "15": {"label": "*3", "atom_type": "Cs"}, "16": {"label": "*4", "atom_type": "Cs"}}

>  <type>  (5) 
unop_1

>  <geom_source>  (5) 
Heuristics

$$$$

     RDKit          3D

 31 30  0  0  0  0  0  0  0  0999 V2000
   -0.9595   -2.7992   -2.0693 C   0  0  0  0  0  0  0  0  0  0  0  0
   -0.9595   -2.7992   -0.5473 C   0  0  0  0  0  0  0  0  0  0  0  0
   -2.0077   -1.9866   -0.0552 O   0  0  0  0  0  0  0  0  0  0  0  0
   -1.9168   -0.6871   -0.5545 C   0  0  0  0  0  3  0  0  0  0  0  0
   -2.0077   -0.6309   -1.9456 O   0  0  0  0  0  0  0  0  0  0  0  0
   -0.9595   -1.3576   -2.5574 C   0  0  0  0  0  0  0  0  0  0  0  0
   -0.0855   -3.3317   -2.4512 H   0  0  0  0  0  0  0  0  0  0  0  0
   -1.8560   -3.3054   -2.4324 H   0  0  0  0  0  0  0  0  0  0  0  0
   -1.1184   -3.7967   -0.1400 H   0  0  0  0  0  0  0  0  0  0  0  0
    0.0042   -2.4232   -0.1706 H   0  0  0  0  0  0  0  0  0  0  0  0
   -0.7704   -0.1446   -0.1655 H   0  0  0  0  0  0  0  0  0  0  0  0
   -2.7579   -0.1265   -0.1525 H   0  0  0  0  0  0  0  0  0  0  0  0
    0.0042   -0.8802   -2.3222 H   0  0  0  0  0  0  0  0  0  0  0  0
   -1.1184   -1.2916   -3.6329 H   0  0  0  0  0  0  0  0  0  0  0  0
    1.4258   -0.6872    0.3809 C   0  0  0  0  0  0  0  0  0  0  0  0
    0.3636    0.3920    0.2194 C   0  0  0  0  0  0  0  0  0  0  0  0
    0.4016    1.4343    1.3182 C   0  0  0  0  0  0  0  0  0  0  0  0
    1.6292    2.1168    1.2704 O   0  0  0  0  0  0  0  0  0  0  0  0
    1.7680    3.0831    2.2806 C   0  0  0  0  0  0  0  0  0  0  0  0
    3.1155    3.7520    2.1383 C   0  0  0  0  0  0  0  0  0  0  0  0
    1.3020   -1.2171    1.3287 H   0  0  0  0  0  0  0  0  0  0  0  0
    1.3649   -1.4217   -0.4235 H   0  0  0  0  0  0  0  0  0  0  0  0
    2.4245   -0.2507    0.3692 H   0  0  0  0  0  0  0  0  0  0  0  0
    0.4848    0.8970   -0.7424 H   0  0  0  0  0  0  0  0  0  0  0  0
    0.2789    0.9521    2.3010 H   0  0  0  0  0  0  0  0  0  0  0  0
   -0.4282    2.1461    1.1975 H   0  0  0  0  0  0  0  0  0  0  0  0
    1.6769    2.6081    3.2686 H   0  0  0  0  0  0  0  0  0  0  0  0
    0.9601    3.8258    2.2029 H   0  0  0  0  0  0  0  0  0  0  0  0
    3.2015    4.2350    1.1643 H   0  0  0  0  0  0  0  0  0  0  0  0
    3.2459    4.5086    2.9136 H   0  0  0  0  0  0  0  0  0  0  0  0
    3.9177    3.0190    2.2307 H   0  0  0  0  0  0  0  0  0  0  0  0
  1  2  1  0
  1  6  1  0
  1  7  1  0
  1  8  1  0
  2  3  1  0
  2  9  1  0
  2 10  1  0
  3  4  1  0
  4  5  1  0
  4 12  1  0
  5  6  1  0
  6 13  1  0
  6 14  1  0
 11 16  1  0
 15 16  1  0
 15 21  1  0
 15 22  1  0
 15 23  1  0
 16 17  1  0
 16 24  1  0
 17 18  1  0
 17 25  1  0
 17 26  1  0
 18 19  1  0
 19 20  1  0
 19 27  1  0
 19 28  1  0
 20 29  1  0
 20 30  1  0
 20 31  1  0
M  RAD  1   4   2
M  END
>  <reaction>  (6) 
rmg_rxn_217

>  <mol_properties>  (6) 
{"2": {"label": "*0", "atom_type": "O2s"}, "3": {"label": "*1", "atom_type": "Cs"}, "10": {"label": "*2", "atom_type": "H0"}, "15": {"label": "*3", "atom_type": "Cs"}, "16": {"label": "*4", "atom_type": "Cs"}}

>  <type>  (6) 
unop_2

>  <geom_source>  (6) 
Heuristics

$$$$

     RDKit          3D

 31 30  0  0  0  0  0  0  0  0999 V2000
   -1.2588   -2.2482   -2.0647 C   0  0  0  0  0  0  0  0  0  0  0  0
   -1.2588   -2.2482   -0.5427 C   0  0  0  0  0  0  0  0  0  0  0  0
   -2.3070   -1.4355   -0.0506 O   0  0  0  0  0  0  0  0  0  0  0  0
   -2.2161   -0.1360   -0.5499 C   0  0  0  0  0  3  0  0  0  0  0  0
   -2.3070   -0.0798   -1.9409 O   0  0  0  0  0  0  0  0  0  0  0  0
   -1.2588   -0.8065   -2.5528 C   0  0  0  0  0  0  0  0  0  0  0  0
   -0.3848   -2.7806   -2.4466 H   0  0  0  0  0  0  0  0  0  0  0  0
   -2.1553   -2.7543   -2.4277 H   0  0  0  0  0  0  0  0  0  0  0  0
   -1.4177   -3.2457   -0.1353 H   0  0  0  0  0  0  0  0  0  0  0  0
   -0.2951   -1.8722   -0.1659 H   0  0  0  0  0  0  0  0  0  0  0  0
   -1.0697    0.4065   -0.1608 H   0  0  0  0  0  0  0  0  0  0  0  0
   -3.0572    0.4245   -0.1479 H   0  0  0  0  0  0  0  0  0  0  0  0
   -0.2951   -0.3291   -2.3175 H   0  0  0  0  0  0  0  0  0  0  0  0
   -1.4177   -0.7406   -3.6283 H   0  0  0  0  0  0  0  0  0  0  0  0
    0.5437    1.9530   -0.8101 C   0  0  0  0  0  0  0  0  0  0  0  0
    0.0643    0.9431    0.2240 C   0  0  0  0  0  0  0  0  0  0  0  0
    1.1988    0.2591    0.9591 C   0  0  0  0  0  0  0  0  0  0  0  0
    1.9247    1.2160    1.6887 O   0  0  0  0  0  0  0  0  0  0  0  0
    3.0230    0.6745    2.3773 C   0  0  0  0  0  0  0  0  0  0  0  0
    3.7297    1.7825    3.1232 C   0  0  0  0  0  0  0  0  0  0  0  0
    1.1691    1.4704   -1.5653 H   0  0  0  0  0  0  0  0  0  0  0  0
   -0.2985    2.4207   -1.3221 H   0  0  0  0  0  0  0  0  0  0  0  0
    1.1344    2.7381   -0.3381 H   0  0  0  0  0  0  0  0  0  0  0  0
   -0.5789    1.4346    0.9586 H   0  0  0  0  0  0  0  0  0  0  0  0
    1.8630   -0.2478    0.2412 H   0  0  0  0  0  0  0  0  0  0  0  0
    0.8038   -0.5103    1.6386 H   0  0  0  0  0  0  0  0  0  0  0  0
    3.7093    0.1908    1.6666 H   0  0  0  0  0  0  0  0  0  0  0  0
    2.6812   -0.1027    3.0769 H   0  0  0  0  0  0  0  0  0  0  0  0
    3.0539    2.2535    3.8378 H   0  0  0  0  0  0  0  0  0  0  0  0
    4.5878    1.3847    3.6671 H   0  0  0  0  0  0  0  0  0  0  0  0
    4.0827    2.5459    2.4289 H   0  0  0  0  0  0  0  0  0  0  0  0
  1  2  1  0
  1  6  1  0
  1  7  1  0
  1  8  1  0
  2  3  1  0
  2  9  1  0
  2 10  1  0
  3  4  1  0
  4  5  1  0
  4 12  1  0
  5  6  1  0
  6 13  1  0
  6 14  1  0
 11 16  1  0
 15 16  1  0
 15 21  1  0
 15 22  1  0
 15 23  1  0
 16 17  1  0
 16 24  1  0
 17 18  1  0
 17 25  1  0
 17 26  1  0
 18 19  1  0
 19 20  1  0
 19 27  1  0
 19 28  1  0
 20 29  1  0
 20 30  1  0
 20 31  1  0
M  RAD  1   4   2
M  END
>  <reaction>  (7) 
rmg_rxn_217

>  <mol_properties>  (7) 
{"2": {"label": "*0", "atom_type": "O2s"}, "3": {"label": "*1", "atom_type": "Cs"}, "10": {"label": "*2", "atom_type": "H0"}, "15": {"label": "*3", "atom_type": "Cs"}, "16": {"label": "*4", "atom_type": "Cs"}}

>  <type>  (7) 
unop_3

>  <geom_source>  (7) 
Heuristics

$$$$

     RDKit          3D

 31 30  0  0  0  0  0  0  0  0999 V2000
   -0.3805   -3.1548   -1.4914 C   0  0  0  0  0  0  0  0  0  0  0  0
   -0.3805   -3.1548    0.0307 C   0  0  0  0  0  0  0  0  0  0  0  0
   -1.4288   -2.3422    0.5228 O   0  0  0  0  0  0  0  0  0  0  0  0
   -1.3379   -1.0427    0.0234 C   0  0  0  0  0  3  0  0  0  0  0  0
   -1.4288   -0.9865   -1.3676 O   0  0  0  0  0  0  0  0  0  0  0  0
   -0.3805   -1.7132   -1.9795 C   0  0  0  0  0  0  0  0  0  0  0  0
    0.4935   -3.6873   -1.8732 H   0  0  0  0  0  0  0  0  0  0  0  0
   -1.2771   -3.6610   -1.8544 H   0  0  0  0  0  0  0  0  0  0  0  0
   -0.5395   -4.1524    0.4380 H   0  0  0  0  0  0  0  0  0  0  0  0
    0.5831   -2.7789    0.4074 H   0  0  0  0  0  0  0  0  0  0  0  0
   -0.1915   -0.5002    0.4125 H   0  0  0  0  0  0  0  0  0  0  0  0
   -2.1790   -0.4822    0.4254 H   0  0  0  0  0  0  0  0  0  0  0  0
    0.5831   -1.2358   -1.7442 H   0  0  0  0  0  0  0  0  0  0  0  0
   -0.5395   -1.6473   -3.0549 H   0  0  0  0  0  0  0  0  0  0  0  0
    1.0128    0.0787    2.3180 C   0  0  0  0  0  0  0  0  0  0  0  0
    0.9425    0.0364    0.7974 C   0  0  0  0  0  0  0  0  0  0  0  0
    0.3034    1.2714    0.1961 C   0  0  0  0  0  0  0  0  0  0  0  0
    1.0905    2.3962    0.4965 O   0  0  0  0  0  0  0  0  0  0  0  0
    0.5531    3.5981    0.0063 C   0  0  0  0  0  0  0  0  0  0  0  0
    1.4721    4.7368    0.3836 C   0  0  0  0  0  0  0  0  0  0  0  0
    0.0135    0.1652    2.7520 H   0  0  0  0  0  0  0  0  0  0  0  0
    1.4729   -0.8272    2.7152 H   0  0  0  0  0  0  0  0  0  0  0  0
    1.5989    0.9342    2.6538 H   0  0  0  0  0  0  0  0  0  0  0  0
    1.9459   -0.0742    0.3782 H   0  0  0  0  0  0  0  0  0  0  0  0
   -0.7125    1.4061    0.6002 H   0  0  0  0  0  0  0  0  0  0  0  0
    0.2094    1.1597   -0.8941 H   0  0  0  0  0  0  0  0  0  0  0  0
   -0.4507    3.7586    0.4267 H   0  0  0  0  0  0  0  0  0  0  0  0
    0.4408    3.5406   -1.0866 H   0  0  0  0  0  0  0  0  0  0  0  0
    2.4637    4.5853   -0.0442 H   0  0  0  0  0  0  0  0  0  0  0  0
    1.0745    5.6825    0.0121 H   0  0  0  0  0  0  0  0  0  0  0  0
    1.5717    4.8043    1.4675 H   0  0  0  0  0  0  0  0  0  0  0  0
  1  2  1  0
  1  6  1  0
  1  7  1  0
  1  8  1  0
  2  3  1  0
  2  9  1  0
  2 10  1  0
  3  4  1  0
  4  5  1  0
  4 12  1  0
  5  6  1  0
  6 13  1  0
  6 14  1  0
 11 16  1  0
 15 16  1  0
 15 21  1  0
 15 22  1  0
 15 23  1  0
 16 17  1  0
 16 24  1  0
 17 18  1  0
 17 25  1  0
 17 26  1  0
 18 19  1  0
 19 20  1  0
 19 27  1  0
 19 28  1  0
 20 29  1  0
 20 30  1  0
 20 31  1  0
M  RAD  1   4   2
M  END
>  <reaction>  (8) 
rmg_rxn_217

>  <mol_properties>  (8) 
{"2": {"label": "*0", "atom_type": "O2s"}, "3": {"label": "*1", "atom_type": "Cs"}, "10": {"label": "*2", "atom_type": "H0"}, "15": {"label": "*3", "atom_type": "Cs"}, "16": {"label": "*4", "atom_type": "Cs"}}

>  <type>  (8) 
unop_4

>  <geom_source>  (8) 
Heuristics

$$$$

     RDKit          3D

 31 30  0  0  0  0  0  0  0  0999 V2000
   -1.3998   -2.0065   -1.4443 C   0  0  0  0  0  0  0  0  0  0  0  0
   -1.3998   -2.0065    0.0778 C   0  0  0  0  0  0  0  0  0  0  0  0
   -2.4481   -1.1939    0.5699 O   0  0  0  0  0  0  0  0  0  0  0  0
   -2.3572    0.1056    0.0705 C   0  0  0  0  0  3  0  0  0  0  0  0
   -2.4481    0.1618   -1.3205 O   0  0  0  0  0  0  0  0  0  0  0  0
   -1.3998   -0.5649   -1.9324 C   0  0  0  0  0  0  0  0  0  0  0  0
   -0.5258   -2.5390   -1.8261 H   0  0  0  0  0  0  0  0  0  0  0  0
   -2.2963   -2.5127   -1.8073 H   0  0  0  0  0  0  0  0  0  0  0  0
   -1.5587   -3.0040    0.4851 H   0  0  0  0  0  0  0  0  0  0  0  0
   -0.4362   -1.6306    0.4545 H   0  0  0  0  0  0  0  0  0  0  0  0
   -1.2107    0.6481    0.4596 H   0  0  0  0  0  0  0  0  0  0  0  0
   -3.1982    0.6661    0.4725 H   0  0  0  0  0  0  0  0  0  0  0  0
   -0.4362   -0.0875   -1.6971 H   0  0  0  0  0  0  0  0  0  0  0  0
   -1.5587   -0.4990   -3.0078 H   0  0  0  0  0  0  0  0  0  0  0  0
    0.0396    2.6052    0.3078 C   0  0  0  0  0  0  0  0  0  0  0  0
   -0.0767    1.1847    0.8445 C   0  0  0  0  0  0  0  0  0  0  0  0
    1.0471    0.2798    0.3827 C   0  0  0  0  0  0  0  0  0  0  0  0
    2.2688    0.7625    0.8822 O   0  0  0  0  0  0  0  0  0  0  0  0
    3.3765    0.0016    0.4729 C   0  0  0  0  0  0  0  0  0  0  0  0
    4.6308    0.6046    1.0617 C   0  0  0  0  0  0  0  0  0  0  0  0
    0.0265    2.6111   -0.7850 H   0  0  0  0  0  0  0  0  0  0  0  0
   -0.7878    3.2254    0.6558 H   0  0  0  0  0  0  0  0  0  0  0  0
    0.9719    3.0660    0.6341 H   0  0  0  0  0  0  0  0  0  0  0  0
   -0.0865    1.1961    1.9374 H   0  0  0  0  0  0  0  0  0  0  0  0
    1.0786    0.2478   -0.7179 H   0  0  0  0  0  0  0  0  0  0  0  0
    0.8779   -0.7484    0.7349 H   0  0  0  0  0  0  0  0  0  0  0  0
    3.4359   -0.0131   -0.6254 H   0  0  0  0  0  0  0  0  0  0  0  0
    3.2589   -1.0408    0.8046 H   0  0  0  0  0  0  0  0  0  0  0  0
    4.5788    0.6069    2.1510 H   0  0  0  0  0  0  0  0  0  0  0  0
    5.5061    0.0287    0.7572 H   0  0  0  0  0  0  0  0  0  0  0  0
    4.7567    1.6330    0.7211 H   0  0  0  0  0  0  0  0  0  0  0  0
  1  2  1  0
  1  6  1  0
  1  7  1  0
  1  8  1  0
  2  3  1  0
  2  9  1  0
  2 10  1  0
  3  4  1  0
  4  5  1  0
  4 12  1  0
  5  6  1  0
  6 13  1  0
  6 14  1  0
 11 16  1  0
 15 16  1  0
 15 21  1  0
 15 22  1  0
 15 23  1  0
 16 17  1  0
 16 24  1  0
 17 18  1  0
 17 25  1  0
 17 26  1  0
 18 19  1  0
 19 20  1  0
 19 27  1  0
 19 28  1  0
 20 29  1  0
 20 30  1  0
 20 31  1  0
M  RAD  1   4   2
M  END
>  <reaction>  (9) 
rmg_rxn_217

>  <mol_properties>  (9) 
{"2": {"label": "*0", "atom_type": "O2s"}, "3": {"label": "*1", "atom_type": "Cs"}, "10": {"label": "*2", "atom_type": "H0"}, "15": {"label": "*3", "atom_type": "Cs"}, "16": {"label": "*4", "atom_type": "Cs"}}

>  <type>  (9) 
unop_5

>  <geom_source>  (9) 
Heuristics

$$$$

     RDKit          3D

 31 30  0  0  0  0  0  0  0  0999 V2000
   -0.4564   -3.0297   -1.0504 C   0  0  0  0  0  0  0  0  0  0  0  0
   -0.4564   -3.0297    0.4717 C   0  0  0  0  0  0  0  0  0  0  0  0
   -1.5047   -2.2170    0.9638 O   0  0  0  0  0  0  0  0  0  0  0  0
   -1.4138   -0.9175    0.4644 C   0  0  0  0  0  3  0  0  0  0  0  0
   -1.5047   -0.8613   -0.9266 O   0  0  0  0  0  0  0  0  0  0  0  0
   -0.4564   -1.5880   -1.5385 C   0  0  0  0  0  0  0  0  0  0  0  0
    0.4176   -3.5621   -1.4323 H   0  0  0  0  0  0  0  0  0  0  0  0
   -1.3530   -3.5358   -1.4134 H   0  0  0  0  0  0  0  0  0  0  0  0
   -0.6153   -4.0272    0.8790 H   0  0  0  0  0  0  0  0  0  0  0  0
    0.5072   -2.6537    0.8484 H   0  0  0  0  0  0  0  0  0  0  0  0
   -0.2674   -0.3750    0.8535 H   0  0  0  0  0  0  0  0  0  0  0  0
   -2.2548   -0.3570    0.8664 H   0  0  0  0  0  0  0  0  0  0  0  0
    0.5072   -1.1106   -1.3032 H   0  0  0  0  0  0  0  0  0  0  0  0
   -0.6153   -1.5221   -2.6139 H   0  0  0  0  0  0  0  0  0  0  0  0
    0.6834    0.8737    2.5720 C   0  0  0  0  0  0  0  0  0  0  0  0
    0.8666    0.1616    1.2383 C   0  0  0  0  0  0  0  0  0  0  0  0
    0.4218    0.9936    0.0529 C   0  0  0  0  0  0  0  0  0  0  0  0
    1.2210    2.1463   -0.0331 O   0  0  0  0  0  0  0  0  0  0  0  0
    0.8553    2.9991   -1.0879 C   0  0  0  0  0  0  0  0  0  0  0  0
    1.7723    4.2002   -1.0885 C   0  0  0  0  0  0  0  0  0  0  0  0
   -0.3664    1.1290    2.7364 H   0  0  0  0  0  0  0  0  0  0  0  0
    1.0085    0.2439    3.4013 H   0  0  0  0  0  0  0  0  0  0  0  0
    1.2609    1.7977    2.5987 H   0  0  0  0  0  0  0  0  0  0  0  0
    1.9164   -0.1087    1.0983 H   0  0  0  0  0  0  0  0  0  0  0  0
   -0.6361    1.2786    0.1670 H   0  0  0  0  0  0  0  0  0  0  0  0
    0.5047    0.4095   -0.8754 H   0  0  0  0  0  0  0  0  0  0  0  0
   -0.1917    3.3148   -0.9687 H   0  0  0  0  0  0  0  0  0  0  0  0
    0.9244    2.4622   -2.0456 H   0  0  0  0  0  0  0  0  0  0  0  0
    2.8092    3.8893   -1.2204 H   0  0  0  0  0  0  0  0  0  0  0  0
    1.5070    4.8780   -1.9014 H   0  0  0  0  0  0  0  0  0  0  0  0
    1.6929    4.7421   -0.1453 H   0  0  0  0  0  0  0  0  0  0  0  0
  1  2  1  0
  1  6  1  0
  1  7  1  0
  1  8  1  0
  2  3  1  0
  2  9  1  0
  2 10  1  0
  3  4  1  0
  4  5  1  0
  4 12  1  0
  5  6  1  0
  6 13  1  0
  6 14  1  0
 11 16  1  0
 15 16  1  0
 15 21  1  0
 15 22  1  0
 15 23  1  0
 16 17  1  0
 16 24  1  0
 17 18  1  0
 17 25  1  0
 17 26  1  0
 18 19  1  0
 19 20  1  0
 19 27  1  0
 19 28  1  0
 20 29  1  0
 20 30  1  0
 20 31  1  0
M  RAD  1   4   2
M  END
>  <reaction>  (10) 
rmg_rxn_217

>  <mol_properties>  (10) 
{"2": {"label": "*0", "atom_type": "O2s"}, "3": {"label": "*1", "atom_type": "Cs"}, "10": {"label": "*2", "atom_type": "H0"}, "15": {"label": "*3", "atom_type": "Cs"}, "16": {"label": "*4", "atom_type": "Cs"}}

>  <type>  (10) 
unop_6

>  <geom_source>  (10) 
Heuristics

$$$$

     RDKit          3D

 31 30  0  0  0  0  0  0  0  0999 V2000
   -0.7064   -2.7072   -0.7534 C   0  0  0  0  0  0  0  0  0  0  0  0
   -0.7064   -2.7072    0.7686 C   0  0  0  0  0  0  0  0  0  0  0  0
   -1.7547   -1.8946    1.2607 O   0  0  0  0  0  0  0  0  0  0  0  0
   -1.6638   -0.5950    0.7614 C   0  0  0  0  0  3  0  0  0  0  0  0
   -1.7547   -0.5388   -0.6297 O   0  0  0  0  0  0  0  0  0  0  0  0
   -0.7064   -1.2655   -1.2415 C   0  0  0  0  0  0  0  0  0  0  0  0
    0.1676   -3.2396   -1.1353 H   0  0  0  0  0  0  0  0  0  0  0  0
   -1.6030   -3.2133   -1.1165 H   0  0  0  0  0  0  0  0  0  0  0  0
   -0.8653   -3.7047    1.1759 H   0  0  0  0  0  0  0  0  0  0  0  0
    0.2572   -2.3312    1.1453 H   0  0  0  0  0  0  0  0  0  0  0  0
   -0.5174   -0.0525    1.1504 H   0  0  0  0  0  0  0  0  0  0  0  0
   -2.5048   -0.0345    1.1634 H   0  0  0  0  0  0  0  0  0  0  0  0
    0.2572   -0.7881   -1.0063 H   0  0  0  0  0  0  0  0  0  0  0  0
   -0.8653   -1.1996   -2.3170 H   0  0  0  0  0  0  0  0  0  0  0  0
    0.3504    1.7326    2.3657 C   0  0  0  0  0  0  0  0  0  0  0  0
    0.6166    0.4841    1.5353 C   0  0  0  0  0  0  0  0  0  0  0  0
    0.5460    0.7352    0.0429 C   0  0  0  0  0  0  0  0  0  0  0  0
    1.5538    1.6430   -0.3248 O   0  0  0  0  0  0  0  0  0  0  0  0
    1.5416    1.9635   -1.6925 C   0  0  0  0  0  0  0  0  0  0  0  0
    2.6582    2.9411   -1.9776 C   0  0  0  0  0  0  0  0  0  0  0  0
   -0.6436    2.1354    2.1559 H   0  0  0  0  0  0  0  0  0  0  0  0
    0.4041    1.5131    3.4330 H   0  0  0  0  0  0  0  0  0  0  0  0
    1.0811    2.5093    2.1401 H   0  0  0  0  0  0  0  0  0  0  0  0
    1.6036    0.0788    1.7728 H   0  0  0  0  0  0  0  0  0  0  0  0
   -0.4416    1.1427   -0.2255 H   0  0  0  0  0  0  0  0  0  0  0  0
    0.6713   -0.2081   -0.5088 H   0  0  0  0  0  0  0  0  0  0  0  0
    0.5696    2.3994   -1.9666 H   0  0  0  0  0  0  0  0  0  0  0  0
    1.6676    1.0503   -2.2930 H   0  0  0  0  0  0  0  0  0  0  0  0
    3.6235    2.5046   -1.7191 H   0  0  0  0  0  0  0  0  0  0  0  0
    2.6687    3.2047   -3.0364 H   0  0  0  0  0  0  0  0  0  0  0  0
    2.5257    3.8531   -1.3945 H   0  0  0  0  0  0  0  0  0  0  0  0
  1  2  1  0
  1  6  1  0
  1  7  1  0
  1  8  1  0
  2  3  1  0
  2  9  1  0
  2 10  1  0
  3  4  1  0
  4  5  1  0
  4 12  1  0
  5  6  1  0
  6 13  1  0
  6 14  1  0
 11 16  1  0
 15 16  1  0
 15 21  1  0
 15 22  1  0
 15 23  1  0
 16 17  1  0
 16 24  1  0
 17 18  1  0
 17 25  1  0
 17 26  1  0
 18 19  1  0
 19 20  1  0
 19 27  1  0
 19 28  1  0
 20 29  1  0
 20 30  1  0
 20 31  1  0
M  RAD  1   4   2
M  END
>  <reaction>  (11) 
rmg_rxn_217

>  <mol_properties>  (11) 
{"2": {"label": "*0", "atom_type": "O2s"}, "3": {"label": "*1", "atom_type": "Cs"}, "10": {"label": "*2", "atom_type": "H0"}, "15": {"label": "*3", "atom_type": "Cs"}, "16": {"label": "*4", "atom_type": "Cs"}}

>  <type>  (11) 
unop_7

>  <geom_source>  (11) 
Heuristics

$$$$

     RDKit          3D

 31 30  0  0  0  0  0  0  0  0999 V2000
   -1.0312   -2.7279   -2.0723 C   0  0  0  0  0  0  0  0  0  0  0  0
   -1.0312   -2.7279   -0.5502 C   0  0  0  0  0  0  0  0  0  0  0  0
   -2.0795   -1.9153   -0.0581 O   0  0  0  0  0  0  0  0  0  0  0  0
   -1.9886   -0.6157   -0.5575 C   0  0  0  0  0  3  0  0  0  0  0  0
   -2.0795   -0.5595   -1.9485 O   0  0  0  0  0  0  0  0  0  0  0  0
   -1.0312   -1.2862   -2.5604 C   0  0  0  0  0  0  0  0  0  0  0  0
   -0.1572   -3.2603   -2.4541 H   0  0  0  0  0  0  0  0  0  0  0  0
   -1.9278   -3.2340   -2.4353 H   0  0  0  0  0  0  0  0  0  0  0  0
   -1.1902   -3.7254   -0.1429 H   0  0  0  0  0  0  0  0  0  0  0  0
   -0.0676   -2.3519   -0.1735 H   0  0  0  0  0  0  0  0  0  0  0  0
   -0.8422   -0.0732   -0.1684 H   0  0  0  0  0  0  0  0  0  0  0  0
   -2.8297   -0.0552   -0.1555 H   0  0  0  0  0  0  0  0  0  0  0  0
   -0.0676   -0.8088   -2.3251 H   0  0  0  0  0  0  0  0  0  0  0  0
   -1.1902   -1.2203   -3.6358 H   0  0  0  0  0  0  0  0  0  0  0  0
    1.3807    0.1798   -0.8098 C   0  0  0  0  0  0  0  0  0  0  0  0
    0.2918    0.4634    0.2165 C   0  0  0  0  0  0  0  0  0  0  0  0
    0.8399    0.8297    1.5805 C   0  0  0  0  0  0  0  0  0  0  0  0
    1.5727    2.0248    1.4823 O   0  0  0  0  0  0  0  0  0  0  0  0
    2.1507    2.4243    2.6988 C   0  0  0  0  0  0  0  0  0  0  0  0
    2.9117    3.7116    2.4815 C   0  0  0  0  0  0  0  0  0  0  0  0
    2.0143   -0.6499   -0.4864 H   0  0  0  0  0  0  0  0  0  0  0  0
    0.9498   -0.0852   -1.7764 H   0  0  0  0  0  0  0  0  0  0  0  0
    2.0176    1.0534   -0.9483 H   0  0  0  0  0  0  0  0  0  0  0  0
   -0.3481    1.2786   -0.1309 H   0  0  0  0  0  0  0  0  0  0  0  0
    1.4882    0.0224    1.9566 H   0  0  0  0  0  0  0  0  0  0  0  0
    0.0182    0.9517    2.3014 H   0  0  0  0  0  0  0  0  0  0  0  0
    2.8241    1.6376    3.0699 H   0  0  0  0  0  0  0  0  0  0  0  0
    1.3673    2.5643    3.4584 H   0  0  0  0  0  0  0  0  0  0  0  0
    2.2422    4.4960    2.1267 H   0  0  0  0  0  0  0  0  0  0  0  0
    3.3698    4.0423    3.4149 H   0  0  0  0  0  0  0  0  0  0  0  0
    3.6988    3.5697    1.7400 H   0  0  0  0  0  0  0  0  0  0  0  0
  1  2  1  0
  1  6  1  0
  1  7  1  0
  1  8  1  0
  2  3  1  0
  2  9  1  0
  2 10  1  0
  3  4  1  0
  4  5  1  0
  4 12  1  0
  5  6  1  0
  6 13  1  0
  6 14  1  0
 11 16  1  0
 15 16  1  0
 15 21  1  0
 15 22  1  0
 15 23  1  0
 16 17  1  0
 16 24  1  0
 17 18  1  0
 17 25  1  0
 17 26  1  0
 18 19  1  0
 19 20  1  0
 19 27  1  0
 19 28  1  0
 20 29  1  0
 20 30  1  0
 20 31  1  0
M  RAD  1   4   2
M  END
>  <reaction>  (12) 
rmg_rxn_217

>  <mol_properties>  (12) 
{"2": {"label": "*0", "atom_type": "O2s"}, "3": {"label": "*1", "atom_type": "Cs"}, "10": {"label": "*2", "atom_type": "H0"}, "15": {"label": "*3", "atom_type": "Cs"}, "16": {"label": "*4", "atom_type": "Cs"}}

>  <type>  (12) 
unop_8

>  <geom_source>  (12) 
Heuristics

$$$$

     RDKit          3D

 31 30  0  0  0  0  0  0  0  0999 V2000
   -0.4995   -3.0862   -1.8933 C   0  0  0  0  0  0  0  0  0  0  0  0
   -0.4995   -3.0862   -0.3713 C   0  0  0  0  0  0  0  0  0  0  0  0
   -1.5478   -2.2736    0.1208 O   0  0  0  0  0  0  0  0  0  0  0  0
   -1.4569   -0.9741   -0.3785 C   0  0  0  0  0  3  0  0  0  0  0  0
   -1.5478   -0.9179   -1.7696 O   0  0  0  0  0  0  0  0  0  0  0  0
   -0.4995   -1.6446   -2.3814 C   0  0  0  0  0  0  0  0  0  0  0  0
    0.3745   -3.6187   -2.2752 H   0  0  0  0  0  0  0  0  0  0  0  0
   -1.3961   -3.5924   -2.2563 H   0  0  0  0  0  0  0  0  0  0  0  0
   -0.6584   -4.0837    0.0360 H   0  0  0  0  0  0  0  0  0  0  0  0
    0.4641   -2.7103    0.0054 H   0  0  0  0  0  0  0  0  0  0  0  0
   -0.3105   -0.4316    0.0105 H   0  0  0  0  0  0  0  0  0  0  0  0
   -2.2979   -0.4136    0.0235 H   0  0  0  0  0  0  0  0  0  0  0  0
    0.4641   -1.1672   -2.1461 H   0  0  0  0  0  0  0  0  0  0  0  0
   -0.6584   -1.5787   -3.4569 H   0  0  0  0  0  0  0  0  0  0  0  0
    1.2498   -0.4764    1.7369 C   0  0  0  0  0  0  0  0  0  0  0  0
    0.8235    0.1050    0.3954 C   0  0  0  0  0  0  0  0  0  0  0  0
    0.2250    1.4920    0.5106 C   0  0  0  0  0  0  0  0  0  0  0  0
    1.1971    2.3792    1.0035 O   0  0  0  0  0  0  0  0  0  0  0  0
    0.7182    3.6884    1.1772 C   0  0  0  0  0  0  0  0  0  0  0  0
    1.8371    4.5540    1.7086 C   0  0  0  0  0  0  0  0  0  0  0  0
    0.3979   -0.5512    2.4174 H   0  0  0  0  0  0  0  0  0  0  0  0
    1.6702   -1.4758    1.6159 H   0  0  0  0  0  0  0  0  0  0  0  0
    2.0019    0.1551    2.2098 H   0  0  0  0  0  0  0  0  0  0  0  0
    1.6797    0.1516   -0.2825 H   0  0  0  0  0  0  0  0  0  0  0  0
   -0.6436    1.4738    1.1878 H   0  0  0  0  0  0  0  0  0  0  0  0
   -0.1330    1.8355   -0.4711 H   0  0  0  0  0  0  0  0  0  0  0  0
   -0.1317    3.6870    1.8756 H   0  0  0  0  0  0  0  0  0  0  0  0
    0.3489    4.0830    0.2189 H   0  0  0  0  0  0  0  0  0  0  0  0
    2.6747    4.5671    1.0103 H   0  0  0  0  0  0  0  0  0  0  0  0
    1.4880    5.5779    1.8511 H   0  0  0  0  0  0  0  0  0  0  0  0
    2.1934    4.1726    2.6661 H   0  0  0  0  0  0  0  0  0  0  0  0
  1  2  1  0
  1  6  1  0
  1  7  1  0
  1  8  1  0
  2  3  1  0
  2  9  1  0
  2 10  1  0
  3  4  1  0
  4  5  1  0
  4 12  1  0
  5  6  1  0
  6 13  1  0
  6 14  1  0
 11 16  1  0
 15 16  1  0
 15 21  1  0
 15 22  1  0
 15 23  1  0
 16 17  1  0
 16 24  1  0
 17 18  1  0
 17 25  1  0
 17 26  1  0
 18 19  1  0
 19 20  1  0
 19 27  1  0
 19 28  1  0
 20 29  1  0
 20 30  1  0
 20 31  1  0
M  RAD  1   4   2
M  END
>  <reaction>  (13) 
rmg_rxn_217

>  <mol_properties>  (13) 
{"2": {"label": "*0", "atom_type": "O2s"}, "3": {"label": "*1", "atom_type": "Cs"}, "10": {"label": "*2", "atom_type": "H0"}, "15": {"label": "*3", "atom_type": "Cs"}, "16": {"label": "*4", "atom_type": "Cs"}}

>  <type>  (13) 
unop_9

>  <geom_source>  (13) 
Heuristics

$$$$

     RDKit          3D

 31 30  0  0  0  0  0  0  0  0999 V2000
   -1.0313   -2.7689   -2.0236 C   0  0  0  0  0  0  0  0  0  0  0  0
   -1.0313   -2.7689   -0.5016 C   0  0  0  0  0  0  0  0  0  0  0  0
   -2.0796   -1.9563   -0.0095 O   0  0  0  0  0  0  0  0  0  0  0  0
   -1.9887   -0.6567   -0.5088 C   0  0  0  0  0  3  0  0  0  0  0  0
   -2.0796   -0.6005   -1.8999 O   0  0  0  0  0  0  0  0  0  0  0  0
   -1.0313   -1.3272   -2.5117 C   0  0  0  0  0  0  0  0  0  0  0  0
   -0.1573   -3.3013   -2.4055 H   0  0  0  0  0  0  0  0  0  0  0  0
   -1.9279   -3.2750   -2.3866 H   0  0  0  0  0  0  0  0  0  0  0  0
   -1.1902   -3.7664   -0.0943 H   0  0  0  0  0  0  0  0  0  0  0  0
   -0.0677   -2.3929   -0.1249 H   0  0  0  0  0  0  0  0  0  0  0  0
   -0.8423   -0.1142   -0.1198 H   0  0  0  0  0  0  0  0  0  0  0  0
   -2.8297   -0.0962   -0.1068 H   0  0  0  0  0  0  0  0  0  0  0  0
   -0.0677   -0.8498   -2.2764 H   0  0  0  0  0  0  0  0  0  0  0  0
   -1.1902   -1.2613   -3.5872 H   0  0  0  0  0  0  0  0  0  0  0  0
    1.4636   -0.3976   -0.2579 C   0  0  0  0  0  0  0  0  0  0  0  0
    0.2917    0.4224    0.2651 C   0  0  0  0  0  0  0  0  0  0  0  0
    0.6104    1.1673    1.5453 C   0  0  0  0  0  0  0  0  0  0  0  0
    1.6314    2.1010    1.2990 O   0  0  0  0  0  0  0  0  0  0  0  0
    2.0185    2.8168    2.4441 C   0  0  0  0  0  0  0  0  0  0  0  0
    3.1154    3.7863    2.0695 C   0  0  0  0  0  0  0  0  0  0  0  0
    1.7758   -1.1438    0.4770 H   0  0  0  0  0  0  0  0  0  0  0  0
    1.1964   -0.9233   -1.1758 H   0  0  0  0  0  0  0  0  0  0  0  0
    2.3196    0.2433   -0.4689 H   0  0  0  0  0  0  0  0  0  0  0  0
   -0.0250    1.1476   -0.4889 H   0  0  0  0  0  0  0  0  0  0  0  0
    0.9308    0.4585    2.3252 H   0  0  0  0  0  0  0  0  0  0  0  0
   -0.2864    1.6822    1.9200 H   0  0  0  0  0  0  0  0  0  0  0  0
    2.3690    2.1208    3.2204 H   0  0  0  0  0  0  0  0  0  0  0  0
    1.1541    3.3561    2.8593 H   0  0  0  0  0  0  0  0  0  0  0  0
    2.7645    4.4856    1.3098 H   0  0  0  0  0  0  0  0  0  0  0  0
    3.4324    4.3552    2.9449 H   0  0  0  0  0  0  0  0  0  0  0  0
    3.9788    3.2514    1.6722 H   0  0  0  0  0  0  0  0  0  0  0  0
  1  2  1  0
  1  6  1  0
  1  7  1  0
  1  8  1  0
  2  3  1  0
  2  9  1  0
  2 10  1  0
  3  4  1  0
  4  5  1  0
  4 12  1  0
  5  6  1  0
  6 13  1  0
  6 14  1  0
 11 16  1  0
 15 16  1  0
 15 21  1  0
 15 22  1  0
 15 23  1  0
 16 17  1  0
 16 24  1  0
 17 18  1  0
 17 25  1  0
 17 26  1  0
 18 19  1  0
 19 20  1  0
 19 27  1  0
 19 28  1  0
 20 29  1  0
 20 30  1  0
 20 31  1  0
M  RAD  1   4   2
M  END
>  <reaction>  (14) 
rmg_rxn_217

>  <mol_properties>  (14) 
{"2": {"label": "*0", "atom_type": "O2s"}, "3": {"label": "*1", "atom_type": "Cs"}, "10": {"label": "*2", "atom_type": "H0"}, "15": {"label": "*3", "atom_type": "Cs"}, "16": {"label": "*4", "atom_type": "Cs"}}

>  <type>  (14) 
unop_10

>  <geom_source>  (14) 
Heuristics

$$$$

     RDKit          3D

 31 30  0  0  0  0  0  0  0  0999 V2000
   -1.0930   -2.2670   -0.8085 C   0  0  0  0  0  0  0  0  0  0  0  0
   -1.0930   -2.2670    0.7136 C   0  0  0  0  0  0  0  0  0  0  0  0
   -2.1412   -1.4544    1.2057 O   0  0  0  0  0  0  0  0  0  0  0  0
   -2.0503   -0.1548    0.7064 C   0  0  0  0  0  3  0  0  0  0  0  0
   -2.1412   -0.0986   -0.6847 O   0  0  0  0  0  0  0  0  0  0  0  0
   -1.0930   -0.8253   -1.2966 C   0  0  0  0  0  0  0  0  0  0  0  0
   -0.2190   -2.7994   -1.1903 H   0  0  0  0  0  0  0  0  0  0  0  0
   -1.9895   -2.7731   -1.1715 H   0  0  0  0  0  0  0  0  0  0  0  0
   -1.2519   -3.2645    1.1209 H   0  0  0  0  0  0  0  0  0  0  0  0
   -0.1293   -1.8910    1.0903 H   0  0  0  0  0  0  0  0  0  0  0  0
   -0.9039    0.3877    1.0954 H   0  0  0  0  0  0  0  0  0  0  0  0
   -2.8914    0.4057    1.1083 H   0  0  0  0  0  0  0  0  0  0  0  0
   -0.1293   -0.3479   -1.0613 H   0  0  0  0  0  0  0  0  0  0  0  0
   -1.2519   -0.7594   -2.3720 H   0  0  0  0  0  0  0  0  0  0  0  0
    0.0735    2.4321    1.6261 C   0  0  0  0  0  0  0  0  0  0  0  0
    0.2301    0.9243    1.4803 C   0  0  0  0  0  0  0  0  0  0  0  0
    0.7262    0.5067    0.1110 C   0  0  0  0  0  0  0  0  0  0  0  0
    2.0128    1.0318   -0.0982 O   0  0  0  0  0  0  0  0  0  0  0  0
    2.5405    0.7233   -1.3630 C   0  0  0  0  0  0  0  0  0  0  0  0
    3.9180    1.3332   -1.4824 C   0  0  0  0  0  0  0  0  0  0  0  0
   -0.6391    2.8223    0.8951 H   0  0  0  0  0  0  0  0  0  0  0  0
   -0.2898    2.6947    2.6207 H   0  0  0  0  0  0  0  0  0  0  0  0
    1.0266    2.9364    1.4670 H   0  0  0  0  0  0  0  0  0  0  0  0
    0.9265    0.5448    2.2324 H   0  0  0  0  0  0  0  0  0  0  0  0
    0.0399    0.8748   -0.6680 H   0  0  0  0  0  0  0  0  0  0  0  0
    0.7514   -0.5901    0.0328 H   0  0  0  0  0  0  0  0  0  0  0  0
    1.8782    1.1123   -2.1504 H   0  0  0  0  0  0  0  0  0  0  0  0
    2.5908   -0.3681   -1.4925 H   0  0  0  0  0  0  0  0  0  0  0  0
    4.5792    0.9377   -0.7106 H   0  0  0  0  0  0  0  0  0  0  0  0
    4.3489    1.1057   -2.4587 H   0  0  0  0  0  0  0  0  0  0  0  0
    3.8671    2.4168   -1.3697 H   0  0  0  0  0  0  0  0  0  0  0  0
  1  2  1  0
  1  6  1  0
  1  7  1  0
  1  8  1  0
  2  3  1  0
  2  9  1  0
  2 10  1  0
  3  4  1  0
  4  5  1  0
  4 12  1  0
  5  6  1  0
  6 13  1  0
  6 14  1  0
 11 16  1  0
 15 16  1  0
 15 21  1  0
 15 22  1  0
 15 23  1  0
 16 17  1  0
 16 24  1  0
 17 18  1  0
 17 25  1  0
 17 26  1  0
 18 19  1  0
 19 20  1  0
 19 27  1  0
 19 28  1  0
 20 29  1  0
 20 30  1  0
 20 31  1  0
M  RAD  1   4   2
M  END
>  <reaction>  (15) 
rmg_rxn_217

>  <mol_properties>  (15) 
{"2": {"label": "*0", "atom_type": "O2s"}, "3": {"label": "*1", "atom_type": "Cs"}, "10": {"label": "*2", "atom_type": "H0"}, "15": {"label": "*3", "atom_type": "Cs"}, "16": {"label": "*4", "atom_type": "Cs"}}

>  <type>  (15) 
unop_11

>  <geom_source>  (15) 
Heuristics

$$$$

     RDKit          3D

 31 30  0  0  0  0  0  0  0  0999 V2000
   -0.7500   -2.9183   -2.0877 C   0  0  0  0  0  0  0  0  0  0  0  0
   -0.7500   -2.9183   -0.5657 C   0  0  0  0  0  0  0  0  0  0  0  0
   -1.7983   -2.1057   -0.0736 O   0  0  0  0  0  0  0  0  0  0  0  0
   -1.7073   -0.8061   -0.5729 C   0  0  0  0  0  3  0  0  0  0  0  0
   -1.7983   -0.7499   -1.9640 O   0  0  0  0  0  0  0  0  0  0  0  0
   -0.7500   -1.4766   -2.5758 C   0  0  0  0  0  0  0  0  0  0  0  0
    0.1240   -3.4507   -2.4696 H   0  0  0  0  0  0  0  0  0  0  0  0
   -1.6465   -3.4244   -2.4507 H   0  0  0  0  0  0  0  0  0  0  0  0
   -0.9089   -3.9158   -0.1584 H   0  0  0  0  0  0  0  0  0  0  0  0
    0.2137   -2.5423   -0.1890 H   0  0  0  0  0  0  0  0  0  0  0  0
   -0.5609   -0.2636   -0.1839 H   0  0  0  0  0  0  0  0  0  0  0  0
   -2.5484   -0.2456   -0.1709 H   0  0  0  0  0  0  0  0  0  0  0  0
    0.2137   -0.9992   -2.3405 H   0  0  0  0  0  0  0  0  0  0  0  0
   -0.9089   -1.4107   -3.6513 H   0  0  0  0  0  0  0  0  0  0  0  0
    1.3624   -0.7189    1.0450 C   0  0  0  0  0  0  0  0  0  0  0  0
    0.5731    0.2730    0.2010 C   0  0  0  0  0  0  0  0  0  0  0  0
    0.2541    1.5588    0.9359 C   0  0  0  0  0  0  0  0  0  0  0  0
    1.4514    2.2208    1.2574 O   0  0  0  0  0  0  0  0  0  0  0  0
    1.2530    3.4119    1.9752 C   0  0  0  0  0  0  0  0  0  0  0  0
    2.5966    4.0383    2.2681 C   0  0  0  0  0  0  0  0  0  0  0  0
    0.8062   -0.9943    1.9446 H   0  0  0  0  0  0  0  0  0  0  0  0
    1.5687   -1.6330    0.4863 H   0  0  0  0  0  0  0  0  0  0  0  0
    2.3136   -0.2885    1.3579 H   0  0  0  0  0  0  0  0  0  0  0  0
    1.1302    0.5206   -0.7062 H   0  0  0  0  0  0  0  0  0  0  0  0
   -0.3108    1.3384    1.8555 H   0  0  0  0  0  0  0  0  0  0  0  0
   -0.3775    2.2080    0.3119 H   0  0  0  0  0  0  0  0  0  0  0  0
    0.7152    3.2002    2.9111 H   0  0  0  0  0  0  0  0  0  0  0  0
    0.6263    4.1020    1.3910 H   0  0  0  0  0  0  0  0  0  0  0  0
    3.1247    4.2612    1.3403 H   0  0  0  0  0  0  0  0  0  0  0  0
    2.4673    4.9672    2.8257 H   0  0  0  0  0  0  0  0  0  0  0  0
    3.2129    3.3611    2.8606 H   0  0  0  0  0  0  0  0  0  0  0  0
  1  2  1  0
  1  6  1  0
  1  7  1  0
  1  8  1  0
  2  3  1  0
  2  9  1  0
  2 10  1  0
  3  4  1  0
  4  5  1  0
  4 12  1  0
  5  6  1  0
  6 13  1  0
  6 14  1  0
 11 16  1  0
 15 16  1  0
 15 21  1  0
 15 22  1  0
 15 23  1  0
 16 17  1  0
 16 24  1  0
 17 18  1  0
 17 25  1  0
 17 26  1  0
 18 19  1  0
 19 20  1  0
 19 27  1  0
 19 28  1  0
 20 29  1  0
 20 30  1  0
 20 31  1  0
M  RAD  1   4   2
M  END
>  <reaction>  (16) 
rmg_rxn_217

>  <mol_properties>  (16) 
{"2": {"label": "*0", "atom_type": "O2s"}, "3": {"label": "*1", "atom_type": "Cs"}, "10": {"label": "*2", "atom_type": "H0"}, "15": {"label": "*3", "atom_type": "Cs"}, "16": {"label": "*4", "atom_type": "Cs"}}

>  <type>  (16) 
unop_12

>  <geom_source>  (16) 
Heuristics

$$$$

     RDKit          3D

 31 30  0  0  0  0  0  0  0  0999 V2000
    2.2902   -0.0683    0.0921 O   0  0  0  0  0  0  0  0  0  0  0  0
   -2.6091   -0.8782   -0.6505 O   0  0  0  0  0  0  0  0  0  0  0  0
   -1.7629    1.2248    0.1414 O   0  0  0  0  0  0  0  0  0  0  0  0
   -3.8491    1.1475   -1.0542 C   0  0  0  0  0  0  0  0  0  0  0  0
    0.5151   -1.4034    1.0100 C   0  0  0  0  0  0  0  0  0  0  0  0
    1.7650   -1.3788    0.1311 C   0  0  0  0  0  0  0  0  0  0  0  0
   -3.8458   -0.2421   -0.4133 C   0  0  0  0  0  0  0  0  0  0  0  0
   -2.4332    1.7248   -0.9933 C   0  0  0  0  0  0  0  0  0  0  0  0
    3.4558   -0.0519   -0.7035 C   0  0  0  0  0  0  0  0  0  0  0  0
    0.8374   -1.0873    2.4683 C   0  0  0  0  0  0  0  0  0  0  0  0
    4.0084    1.3643   -0.7490 C   0  0  0  0  0  0  0  0  0  0  0  0
   -1.5530   -0.1753   -0.0015 C   0  0  0  0  0  3  0  0  0  0  0  0
    0.0505   -2.4117    0.9539 H   0  0  0  0  0  0  0  0  0  0  0  0
   -0.3380   -0.5395    0.5655 H   0  0  0  0  0  0  0  0  0  0  0  0
   -4.5576    1.8050   -0.5049 H   0  0  0  0  0  0  0  0  0  0  0  0
   -4.1764    1.0815   -2.1146 H   0  0  0  0  0  0  0  0  0  0  0  0
    2.5095   -2.0996    0.5420 H   0  0  0  0  0  0  0  0  0  0  0  0
    1.4679   -1.7073   -0.8907 H   0  0  0  0  0  0  0  0  0  0  0  0
    4.2386   -0.7170   -0.2725 H   0  0  0  0  0  0  0  0  0  0  0  0
    3.2291   -0.3711   -1.7465 H   0  0  0  0  0  0  0  0  0  0  0  0
   -4.0429   -0.1694    0.6813 H   0  0  0  0  0  0  0  0  0  0  0  0
   -4.6595   -0.8542   -0.8564 H   0  0  0  0  0  0  0  0  0  0  0  0
   -2.4889    2.8317   -0.9231 H   0  0  0  0  0  0  0  0  0  0  0  0
   -1.8685    1.4798   -1.9230 H   0  0  0  0  0  0  0  0  0  0  0  0
    1.5616   -1.8257    2.8736 H   0  0  0  0  0  0  0  0  0  0  0  0
    1.2632   -0.0658    2.5583 H   0  0  0  0  0  0  0  0  0  0  0  0
   -0.0941   -1.1352    3.0703 H   0  0  0  0  0  0  0  0  0  0  0  0
    3.2554    2.0521   -1.1893 H   0  0  0  0  0  0  0  0  0  0  0  0
    4.9272    1.3895   -1.3722 H   0  0  0  0  0  0  0  0  0  0  0  0
    4.2594    1.7074    0.2772 H   0  0  0  0  0  0  0  0  0  0  0  0
   -1.3554   -0.6267    0.9934 H   0  0  0  0  0  0  0  0  0  0  0  0
  1  9  1  0
  1  6  1  0
  2  7  1  0
  2 12  1  0
  3  8  1  0
  3 12  1  0
  4  7  1  0
  4  8  1  0
  4 15  1  0
  4 16  1  0
  5 10  1  0
  5  6  1  0
  5 13  1  0
  5 14  1  0
  6 17  1  0
  6 18  1  0
  7 21  1  0
  7 22  1  0
  8 23  1  0
  8 24  1  0
  9 11  1  0
  9 19  1  0
  9 20  1  0
 10 25  1  0
 10 26  1  0
 10 27  1  0
 11 28  1  0
 11 29  1  0
 11 30  1  0
 12 31  1  0
M  RAD  1  12   2
M  END
>  <reaction>  (17) 
rmg_rxn_217

>  <mol_properties>  (17) 
{"2": {"label": "*0", "atom_type": "O2s"}, "3": {"label": "*1", "atom_type": "Cs"}, "10": {"label": "*2", "atom_type": "H0"}, "15": {"label": "*3", "atom_type": "Cs"}, "16": {"label": "*4", "atom_type": "Cs"}}

>  <type>  (17) 
unop_13

>  <geom_source>  (17) 
AutoTST

$$$$

     RDKit          3D

 31 30  0  0  0  0  0  0  0  0999 V2000
   -0.9595   -2.7992   -2.0693 C   0  0  0  0  0  0  0  0  0  0  0  0
   -0.9595   -2.7992   -0.5473 C   0  0  0  0  0  0  0  0  0  0  0  0
   -2.0077   -1.9866   -0.0552 O   0  0  0  0  0  0  0  0  0  0  0  0
   -1.9168   -0.6871   -0.5545 C   0  0  0  0  0  3  0  0  0  0  0  0
   -2.0077   -0.6309   -1.9456 O   0  0  0  0  0  0  0  0  0  0  0  0
   -0.9595   -1.3576   -2.5574 C   0  0  0  0  0  0  0  0  0  0  0  0
   -0.0855   -3.3317   -2.4512 H   0  0  0  0  0  0  0  0  0  0  0  0
   -1.8560   -3.3054   -2.4324 H   0  0  0  0  0  0  0  0  0  0  0  0
   -1.1184   -3.7967   -0.1400 H   0  0  0  0  0  0  0  0  0  0  0  0
    0.0042   -2.4232   -0.1706 H   0  0  0  0  0  0  0  0  0  0  0  0
   -0.7704   -0.1446   -0.1655 H   0  0  0  0  0  0  0  0  0  0  0  0
   -2.7579   -0.1265   -0.1525 H   0  0  0  0  0  0  0  0  0  0  0  0
    0.0042   -0.8802   -2.3222 H   0  0  0  0  0  0  0  0  0  0  0  0
   -1.1184   -1.2916   -3.6329 H   0  0  0  0  0  0  0  0  0  0  0  0
    1.4258   -0.6872    0.3809 C   0  0  0  0  0  0  0  0  0  0  0  0
    0.3636    0.3920    0.2194 C   0  0  0  0  0  0  0  0  0  0  0  0
    0.4017    1.4343    1.3182 C   0  0  0  0  0  0  0  0  0  0  0  0
    1.6292    2.1168    1.2704 O   0  0  0  0  0  0  0  0  0  0  0  0
    1.7680    3.0831    2.2806 C   0  0  0  0  0  0  0  0  0  0  0  0
    3.1155    3.7520    2.1383 C   0  0  0  0  0  0  0  0  0  0  0  0
    1.3020   -1.2171    1.3287 H   0  0  0  0  0  0  0  0  0  0  0  0
    1.3649   -1.4217   -0.4235 H   0  0  0  0  0  0  0  0  0  0  0  0
    2.4245   -0.2507    0.3692 H   0  0  0  0  0  0  0  0  0  0  0  0
    0.4849    0.8970   -0.7424 H   0  0  0  0  0  0  0  0  0  0  0  0
    0.2789    0.9521    2.3010 H   0  0  0  0  0  0  0  0  0  0  0  0
   -0.4282    2.1461    1.1975 H   0  0  0  0  0  0  0  0  0  0  0  0
    1.6769    2.6081    3.2686 H   0  0  0  0  0  0  0  0  0  0  0  0
    0.9601    3.8258    2.2029 H   0  0  0  0  0  0  0  0  0  0  0  0
    3.2014    4.2350    1.1643 H   0  0  0  0  0  0  0  0  0  0  0  0
    3.2458    4.5086    2.9136 H   0  0  0  0  0  0  0  0  0  0  0  0
    3.9177    3.0190    2.2307 H   0  0  0  0  0  0  0  0  0  0  0  0
  1  2  1  0
  1  6  1  0
  1  7  1  0
  1  8  1  0
  2  3  1  0
  2  9  1  0
  2 10  1  0
  3  4  1  0
  4  5  1  0
  4 12  1  0
  5  6  1  0
  6 13  1  0
  6 14  1  0
 11 16  1  0
 15 16  1  0
 15 21  1  0
 15 22  1  0
 15 23  1  0
 16 17  1  0
 16 24  1  0
 17 18  1  0
 17 25  1  0
 17 26  1  0
 18 19  1  0
 19 20  1  0
 19 27  1  0
 19 28  1  0
 20 29  1  0
 20 30  1  0
 20 31  1  0
M  RAD  1   4   2
M  END
>  <reaction>  (18) 
rmg_rxn_217

>  <mol_properties>  (18) 
{"2": {"label": "*0", "atom_type": "O2s"}, "3": {"label": "*1", "atom_type": "Cs"}, "10": {"label": "*2", "atom_type": "H0"}, "15": {"label": "*3", "atom_type": "Cs"}, "16": {"label": "*4", "atom_type": "Cs"}}

>  <type>  (18) 
unop_14

>  <geom_source>  (18) 
gaussian_log

$$$$
