
     RDKit          3D

 10  9  0  0  0  0  0  0  0  0999 V2000
   -1.1238    0.2714    0.2496 C   0  0  0  0  0  0  0  0  0  0  0  0
    0.0881   -0.5850   -0.0680 C   0  0  0  0  0  0  0  0  0  0  0  0
   -0.0512   -1.4242   -1.3070 C   0  0  0  0  0  0  0  0  0  0  0  0
   -1.0187   -1.4480   -2.0158 O   0  0  0  0  0  0  0  0  0  0  0  0
   -2.0096   -0.3470    0.3939 H   0  0  0  0  0  0  0  0  0  0  0  0
   -0.9564    0.8523    1.1567 H   0  0  0  0  0  0  0  0  0  0  0  0
   -1.3376    0.9606   -0.5673 H   0  0  0  0  0  0  0  0  0  0  0  0
    0.3267   -1.2715    0.7528 H   0  0  0  0  0  0  0  0  0  0  0  0
    0.9917    0.0222   -0.1983 H   0  0  0  0  0  0  0  0  0  0  0  0
    0.8330   -2.0534   -1.5447 H   0  0  0  0  0  0  0  0  0  0  0  0
  1  2  1  0
  1  5  1  0
  1  6  1  0
  1  7  1  0
  2  3  1  0
  2  8  1  0
  2  9  1  0
  3  4  2  0
  3 10  1  0
M  END
>  <reaction>  (1) 
rmg_rxn_15698

>  <mol_properties>  (1) 
{"1": {"label": "donator", "atom_type": "Cs"}, "7": {"label": "d_hydrogen", "atom_type": "H0"}}

>  <type>  (1) 
r1h

$$$$

     RDKit          3D

  8  7  0  0  0  0  0  0  0  0999 V2000
    1.7077   -0.1964   -0.0607 C   0  0  0  0  0  3  0  0  0  0  0  0
    0.4209   -0.4565    0.2808 O   0  0  0  0  0  0  0  0  0  0  0  0
   -0.4607    0.4385   -0.2968 N   0  0  0  0  0  0  0  0  0  0  0  0
   -1.6584    0.1416   -0.0244 C   0  0  0  0  0  0  0  0  0  0  0  0
    2.4163   -0.7685    0.5170 H   0  0  0  0  0  0  0  0  0  0  0  0
    1.9214    0.7645   -0.5045 H   0  0  0  0  0  0  0  0  0  0  0  0
   -2.4185    0.7953   -0.4307 H   0  0  0  0  0  0  0  0  0  0  0  0
   -1.9286   -0.7185    0.5831 H   0  0  0  0  0  0  0  0  0  0  0  0
  1  2  1  0
  1  5  1  0
  1  6  1  0
  2  3  1  0
  3  4  2  3
  4  7  1  0
  4  8  1  0
M  RAD  1   1   2
M  END
>  <reaction>  (2) 
rmg_rxn_15698

>  <mol_properties>  (2) 
{"0": {"label": "acceptor", "atom_type": "Cs"}}

>  <type>  (2) 
r2

$$$$

     RDKit          3D

  9  8  0  0  0  0  0  0  0  0999 V2000
   -1.5470   -0.0755   -0.1976 C   0  0  0  0  0  0  0  0  0  0  0  0
   -0.2885    0.4507    0.1749 O   0  0  0  0  0  0  0  0  0  0  0  0
   -0.1502    1.7216   -0.3294 N   0  0  0  0  0  0  0  0  0  0  0  0
    0.9626    2.2353   -0.0219 C   0  0  0  0  0  0  0  0  0  0  0  0
   -1.6392   -0.1356   -1.2844 H   0  0  0  0  0  0  0  0  0  0  0  0
   -2.3597    0.5337    0.2044 H   0  0  0  0  0  0  0  0  0  0  0  0
   -1.5879   -1.0750    0.2318 H   0  0  0  0  0  0  0  0  0  0  0  0
    1.1497    3.2381   -0.3820 H   0  0  0  0  0  0  0  0  0  0  0  0
    1.7060    1.7101    0.5739 H   0  0  0  0  0  0  0  0  0  0  0  0
  1  2  1  0
  1  5  1  0
  1  6  1  0
  1  7  1  0
  2  3  1  0
  3  4  2  3
  4  8  1  0
  4  9  1  0
M  END
>  <reaction>  (3) 
rmg_rxn_15698

>  <mol_properties>  (3) 
{"0": {"label": "acceptor", "atom_type": "Cs"}, "8": {"label": "a_hydrogen", "atom_type": "H0"}}

>  <type>  (3) 
r2h

$$$$

     RDKit          3D

 18 16  0  0  0  0  0  0  0  0999 V2000
    0.0859   -1.7453    0.6338 C   0  0  0  0  0  3  0  0  0  0  0  0
    1.2855   -1.3395    0.1090 O   0  0  0  0  0  0  0  0  0  0  0  0
    1.9011   -0.4183    0.9465 N   0  0  0  0  0  0  0  0  0  0  0  0
    2.8874    0.1266    0.3770 C   0  0  0  0  0  0  0  0  0  0  0  0
   -0.2866   -2.5947    0.0697 H   0  0  0  0  0  0  0  0  0  0  0  0
    0.0812   -1.8445    1.7176 H   0  0  0  0  0  0  0  0  0  0  0  0
    3.4386    0.8510    0.9615 H   0  0  0  0  0  0  0  0  0  0  0  0
    3.1754   -0.1007   -0.6458 H   0  0  0  0  0  0  0  0  0  0  0  0
   -2.2347   -0.2624   -1.2928 C   0  0  0  0  0  0  0  0  0  0  0  0
   -1.5870    0.2685   -0.0412 C   0  0  0  0  0  0  0  0  0  0  0  0
   -0.6406    1.3794   -0.1879 C   0  0  0  0  0  0  0  0  0  0  0  0
   -0.1475    1.7293   -1.2370 O   0  0  0  0  0  0  0  0  0  0  0  0
   -1.4825   -0.4595   -2.0566 H   0  0  0  0  0  0  0  0  0  0  0  0
   -2.7817   -1.1842   -1.0896 H   0  0  0  0  0  0  0  0  0  0  0  0
   -2.9378    0.4629   -1.7087 H   0  0  0  0  0  0  0  0  0  0  0  0
   -0.8093   -0.7079    0.3788 H   0  0  0  0  0  0  0  0  0  0  0  0
   -2.2434    0.3855    0.8212 H   0  0  0  0  0  0  0  0  0  0  0  0
   -0.3487    1.8769    0.7586 H   0  0  0  0  0  0  0  0  0  0  0  0
  1  2  1  0
  1  5  1  0
  1  6  1  0
  2  3  1  0
  3  4  2  3
  4  7  1  0
  4  8  1  0
  9 10  1  0
  9 13  1  0
  9 14  1  0
  9 15  1  0
 10 11  1  0
 10 16  1  0
 10 17  1  0
 11 12  2  0
 11 18  1  0
M  RAD  1   1   2
M  END
>  <reaction>  (4) 
rmg_rxn_15698

>  <mol_properties>  (4) 
{"0": {"label": "*3", "atom_type": "Cs"}, "1": {"label": "*4", "atom_type": "O2s"}, "9": {"label": "*1", "atom_type": "Cs"}, "10": {"label": "*0", "atom_type": "CO"}, "15": {"label": "*2", "atom_type": "H0"}}

>  <type>  (4) 
ts

$$$$

     RDKit          3D

 18 16  0  0  0  0  0  0  0  0999 V2000
    0.7709    0.9841    0.9189 C   0  0  0  0  0  0  0  0  0  0  0  0
    1.8471    1.0299    0.0534 O   0  0  0  0  0  0  0  0  0  0  0  0
    2.4297   -0.1006   -0.4167 N   0  0  0  0  0  0  0  0  0  0  0  0
    1.9124   -1.2419   -0.2837 C   0  0  0  0  0  0  0  0  0  0  0  0
    0.8498    0.2175    1.6915 H   0  0  0  0  0  0  0  0  0  0  0  0
    0.6466    1.9831    1.3253 H   0  0  0  0  0  0  0  0  0  0  0  0
    2.4833   -2.0549   -0.6986 H   0  0  0  0  0  0  0  0  0  0  0  0
    0.9551   -1.4844    0.1702 H   0  0  0  0  0  0  0  0  0  0  0  0
   -2.2916    1.5980   -0.4048 C   0  0  0  0  0  0  0  0  0  0  0  0
   -1.4226    0.3729   -0.4250 C   0  0  0  0  0  0  0  0  0  0  0  0
   -1.8771   -0.8062    0.2783 C   0  0  0  0  0  0  0  0  0  0  0  0
   -1.3761   -1.9141    0.1756 O   0  0  0  0  0  1  0  0  0  0  0  0
   -1.7386    2.4707   -0.7454 H   0  0  0  0  0  0  0  0  0  0  0  0
   -3.1442    1.4641   -1.0721 H   0  0  0  0  0  0  0  0  0  0  0  0
   -2.6724    1.7880    0.5968 H   0  0  0  0  0  0  0  0  0  0  0  0
   -0.3187    0.7062    0.2768 H   0  0  0  0  0  0  0  0  0  0  0  0
   -0.9550    0.1638   -1.3855 H   0  0  0  0  0  0  0  0  0  0  0  0
   -2.6959   -0.6267    1.0016 H   0  0  0  0  0  0  0  0  0  0  0  0
  1  2  1  0
  1  5  1  0
  1  6  1  0
  1 16  1  0
  2  3  1  0
  3  4  2  3
  4  7  1  0
  4  8  1  0
  9 10  1  0
  9 13  1  0
  9 14  1  0
  9 15  1  0
 10 11  2  3
 10 17  1  0
 11 12  1  0
 11 18  1  0
M  RAD  1  12   2
M  END
>  <reaction>  (5) 
rmg_rxn_15698

>  <mol_properties>  (5) 
{"0": {"label": "*3", "atom_type": "Cs"}, "1": {"label": "*4", "atom_type": "O2s"}, "9": {"label": "*1", "atom_type": "Cs"}, "10": {"label": "*0", "atom_type": "CO"}, "15": {"label": "*2", "atom_type": "H0"}}

>  <type>  (5) 
unop_1

>  <geom_source>  (5) 
crest_best.xyz

$$$$

     RDKit          3D

 18 16  0  0  0  0  0  0  0  0999 V2000
    0.5681   -1.4177   -0.0570 C   0  0  0  0  0  0  0  0  0  0  0  0
    1.2714   -0.4660    0.7171 O   0  0  0  0  0  0  0  0  0  0  0  0
    1.7791   -1.0689    1.8430 N   0  0  0  0  0  0  0  0  0  0  0  0
    2.4181   -0.2558    2.5691 C   0  0  0  0  0  0  0  0  0  0  0  0
    1.2297   -2.2246   -0.3798 H   0  0  0  0  0  0  0  0  0  0  0  0
   -0.2702   -1.8358    0.5048 H   0  0  0  0  0  0  0  0  0  0  0  0
    2.8507   -0.6535    3.4774 H   0  0  0  0  0  0  0  0  0  0  0  0
    2.5369    0.7939    2.3091 H   0  0  0  0  0  0  0  0  0  0  0  0
   -1.5102   -0.1479   -2.5460 C   0  0  0  0  0  0  0  0  0  0  0  0
   -1.5102   -0.1479   -1.0284 C   0  0  0  0  0  0  0  0  0  0  0  0
   -1.5102    1.2205   -0.4067 C   0  0  0  0  0  0  0  0  0  0  0  0
   -1.5102    2.2529   -1.0176 O   0  0  0  0  0  1  0  0  0  0  0  0
   -0.6319    0.3674   -2.9347 H   0  0  0  0  0  0  0  0  0  0  0  0
   -1.5102   -1.1681   -2.9300 H   0  0  0  0  0  0  0  0  0  0  0  0
   -2.3884    0.3674   -2.9347 H   0  0  0  0  0  0  0  0  0  0  0  0
   -0.4674   -0.7850   -0.5410 H   0  0  0  0  0  0  0  0  0  0  0  0
   -2.3792   -0.6788   -0.6222 H   0  0  0  0  0  0  0  0  0  0  0  0
   -1.5102    1.2269    0.7041 H   0  0  0  0  0  0  0  0  0  0  0  0
  1  2  1  0
  1  5  1  0
  1  6  1  0
  1 16  1  0
  2  3  1  0
  3  4  2  3
  4  7  1  0
  4  8  1  0
  9 10  1  0
  9 13  1  0
  9 14  1  0
  9 15  1  0
 10 11  2  3
 10 17  1  0
 11 12  1  0
 11 18  1  0
M  RAD  1  12   2
M  END
>  <reaction>  (6) 
rmg_rxn_15698

>  <mol_properties>  (6) 
{"0": {"label": "*3", "atom_type": "Cs"}, "1": {"label": "*4", "atom_type": "O2s"}, "9": {"label": "*1", "atom_type": "Cs"}, "10": {"label": "*0", "atom_type": "CO"}, "15": {"label": "*2", "atom_type": "H0"}}

>  <type>  (6) 
unop_2

>  <geom_source>  (6) 
Heuristics

$$$$

     RDKit          3D

 18 16  0  0  0  0  0  0  0  0999 V2000
    0.5111   -1.7654    0.1483 C   0  0  0  0  0  0  0  0  0  0  0  0
    1.3622   -0.8879   -0.4900 O   0  0  0  0  0  0  0  0  0  0  0  0
    1.8853    0.0530    0.3858 N   0  0  0  0  0  0  0  0  0  0  0  0
    2.5803    0.9608   -0.1419 C   0  0  0  0  0  0  0  0  0  0  0  0
    0.2817   -2.5725   -0.5391 H   0  0  0  0  0  0  0  0  0  0  0  0
    0.8737   -2.0973    1.1200 H   0  0  0  0  0  0  0  0  0  0  0  0
    2.9970    1.6933    0.5261 H   0  0  0  0  0  0  0  0  0  0  0  0
    2.7734    1.0425   -1.2065 H   0  0  0  0  0  0  0  0  0  0  0  0
   -2.6082   -0.6814   -0.4955 C   0  0  0  0  0  0  0  0  0  0  0  0
   -1.6494   -0.3197    0.6061 C   0  0  0  0  0  0  0  0  0  0  0  0
   -1.0740    1.0141    0.5599 C   0  0  0  0  0  0  0  0  0  0  0  0
   -1.0304    1.7280   -0.4242 O   0  0  0  0  0  1  0  0  0  0  0  0
   -2.2241   -0.3203   -1.4466 H   0  0  0  0  0  0  0  0  0  0  0  0
   -2.7678   -1.7564   -0.5474 H   0  0  0  0  0  0  0  0  0  0  0  0
   -3.5728   -0.2029   -0.3209 H   0  0  0  0  0  0  0  0  0  0  0  0
   -0.5818   -1.1107    0.3885 H   0  0  0  0  0  0  0  0  0  0  0  0
   -1.9367   -0.6552    1.5989 H   0  0  0  0  0  0  0  0  0  0  0  0
   -0.6131    1.3415    1.5124 H   0  0  0  0  0  0  0  0  0  0  0  0
  1  2  1  0
  1  5  1  0
  1  6  1  0
  1 16  1  0
  2  3  1  0
  3  4  2  3
  4  7  1  0
  4  8  1  0
  9 10  1  0
  9 13  1  0
  9 14  1  0
  9 15  1  0
 10 11  2  3
 10 17  1  0
 11 12  1  0
 11 18  1  0
M  RAD  1  12   2
M  END
>  <reaction>  (7) 
rmg_rxn_15698

>  <mol_properties>  (7) 
{"0": {"label": "*3", "atom_type": "Cs"}, "1": {"label": "*4", "atom_type": "O2s"}, "9": {"label": "*1", "atom_type": "Cs"}, "10": {"label": "*0", "atom_type": "CO"}, "15": {"label": "*2", "atom_type": "H0"}}

>  <type>  (7) 
unop_3

>  <geom_source>  (7) 
Heuristics

$$$$

     RDKit          3D

 18 16  0  0  0  0  0  0  0  0999 V2000
    1.0629   -1.6667    0.5419 C   0  0  0  0  0  0  0  0  0  0  0  0
    1.9210   -0.8306   -0.1990 O   0  0  0  0  0  0  0  0  0  0  0  0
    1.6897    0.4995    0.0563 N   0  0  0  0  0  0  0  0  0  0  0  0
    2.4449    1.3293   -0.5146 C   0  0  0  0  0  0  0  0  0  0  0  0
    1.1554   -2.6618    0.1608 H   0  0  0  0  0  0  0  0  0  0  0  0
    1.2297   -1.6013    1.6135 H   0  0  0  0  0  0  0  0  0  0  0  0
    2.2583    2.3710   -0.3200 H   0  0  0  0  0  0  0  0  0  0  0  0
    3.2592    1.0545   -1.1772 H   0  0  0  0  0  0  0  0  0  0  0  0
   -1.1417    1.2500    1.0438 C   0  0  0  0  0  0  0  0  0  0  0  0
   -1.9516    1.1189   -0.1692 C   0  0  0  0  0  0  0  0  0  0  0  0
   -2.2961   -0.1485   -0.6809 C   0  0  0  0  0  0  0  0  0  0  0  0
   -1.9940   -1.2241   -0.1569 O   0  0  0  0  0  1  0  0  0  0  0  0
   -1.3838    0.4516    1.7448 H   0  0  0  0  0  0  0  0  0  0  0  0
   -0.0763    1.1041    0.7828 H   0  0  0  0  0  0  0  0  0  0  0  0
   -1.2453    2.2274    1.5073 H   0  0  0  0  0  0  0  0  0  0  0  0
    0.0024   -1.5674    0.2733 H   0  0  0  0  0  0  0  0  0  0  0  0
   -2.2340    1.9996   -0.7245 H   0  0  0  0  0  0  0  0  0  0  0  0
   -2.8649   -0.1427   -1.6280 H   0  0  0  0  0  0  0  0  0  0  0  0
  1  2  1  0
  1  5  1  0
  1  6  1  0
  1 16  1  0
  2  3  1  0
  3  4  2  3
  4  7  1  0
  4  8  1  0
  9 10  1  0
  9 13  1  0
  9 14  1  0
  9 15  1  0
 10 11  2  3
 10 17  1  0
 11 12  1  0
 11 18  1  0
M  RAD  1  12   2
M  END
>  <reaction>  (8) 
rmg_rxn_15698

>  <mol_properties>  (8) 
{"0": {"label": "*3", "atom_type": "Cs"}, "1": {"label": "*4", "atom_type": "O2s"}, "9": {"label": "*1", "atom_type": "Cs"}, "10": {"label": "*0", "atom_type": "CO"}, "15": {"label": "*2", "atom_type": "H0"}}

>  <type>  (8) 
unop_4

>  <geom_source>  (8) 
Heuristics

$$$$

     RDKit          3D

 18 16  0  0  0  0  0  0  0  0999 V2000
    0.2293   -1.1244    0.9176 C   0  0  0  0  0  0  0  0  0  0  0  0
    1.2606   -0.9570   -0.0352 O   0  0  0  0  0  0  0  0  0  0  0  0
    2.4773   -1.2169    0.5487 N   0  0  0  0  0  0  0  0  0  0  0  0
    3.4333   -1.0801   -0.2662 C   0  0  0  0  0  0  0  0  0  0  0  0
    0.2072   -2.1498    1.2934 H   0  0  0  0  0  0  0  0  0  0  0  0
    0.3534   -0.4321    1.7533 H   0  0  0  0  0  0  0  0  0  0  0  0
    4.4275   -1.2673    0.1169 H   0  0  0  0  0  0  0  0  0  0  0  0
    3.2821   -0.7894   -1.3036 H   0  0  0  0  0  0  0  0  0  0  0  0
   -1.8489    0.1454   -1.5713 C   0  0  0  0  0  0  0  0  0  0  0  0
   -1.8489    0.1454   -0.0538 C   0  0  0  0  0  0  0  0  0  0  0  0
   -1.8489    1.5138    0.5679 C   0  0  0  0  0  0  0  0  0  0  0  0
   -1.8489    2.5461   -0.0430 O   0  0  0  0  0  1  0  0  0  0  0  0
   -0.9707    0.6607   -1.9600 H   0  0  0  0  0  0  0  0  0  0  0  0
   -1.8489   -0.8749   -1.9553 H   0  0  0  0  0  0  0  0  0  0  0  0
   -2.7271    0.6607   -1.9600 H   0  0  0  0  0  0  0  0  0  0  0  0
   -0.8061   -0.4918    0.4336 H   0  0  0  0  0  0  0  0  0  0  0  0
   -2.7179   -0.3856    0.3524 H   0  0  0  0  0  0  0  0  0  0  0  0
   -1.8489    1.5202    1.6788 H   0  0  0  0  0  0  0  0  0  0  0  0
  1  2  1  0
  1  5  1  0
  1  6  1  0
  1 16  1  0
  2  3  1  0
  3  4  2  3
  4  7  1  0
  4  8  1  0
  9 10  1  0
  9 13  1  0
  9 14  1  0
  9 15  1  0
 10 11  2  3
 10 17  1  0
 11 12  1  0
 11 18  1  0
M  RAD  1  12   2
M  END
>  <reaction>  (9) 
rmg_rxn_15698

>  <mol_properties>  (9) 
{"0": {"label": "*3", "atom_type": "Cs"}, "1": {"label": "*4", "atom_type": "O2s"}, "9": {"label": "*1", "atom_type": "Cs"}, "10": {"label": "*0", "atom_type": "CO"}, "15": {"label": "*2", "atom_type": "H0"}}

>  <type>  (9) 
unop_5

>  <geom_source>  (9) 
Heuristics

$$$$

     RDKit          3D

 18 16  0  0  0  0  0  0  0  0999 V2000
    0.9881   -0.8961    1.1153 C   0  0  0  0  0  0  0  0  0  0  0  0
    1.9246   -0.7023    0.1164 O   0  0  0  0  0  0  0  0  0  0  0  0
    2.1518    0.5220   -0.4183 N   0  0  0  0  0  0  0  0  0  0  0  0
    1.3929    1.5072   -0.2181 C   0  0  0  0  0  0  0  0  0  0  0  0
    1.1816   -1.8740    1.5455 H   0  0  0  0  0  0  0  0  0  0  0  0
    0.9621   -0.1032    1.8644 H   0  0  0  0  0  0  0  0  0  0  0  0
    1.6914    2.4236   -0.6974 H   0  0  0  0  0  0  0  0  0  0  0  0
    0.4691    1.5210    0.3542 H   0  0  0  0  0  0  0  0  0  0  0  0
   -1.0360   -0.8664   -1.4644 C   0  0  0  0  0  0  0  0  0  0  0  0
   -1.4021   -0.9845   -0.0092 C   0  0  0  0  0  0  0  0  0  0  0  0
   -2.0865    0.1378    0.6007 C   0  0  0  0  0  0  0  0  0  0  0  0
   -1.9986    1.2970    0.2326 O   0  0  0  0  0  1  0  0  0  0  0  0
   -0.8270    0.1729   -1.7092 H   0  0  0  0  0  0  0  0  0  0  0  0
   -0.1662   -1.4749   -1.7071 H   0  0  0  0  0  0  0  0  0  0  0  0
   -1.8656   -1.2043   -2.0860 H   0  0  0  0  0  0  0  0  0  0  0  0
   -0.2028   -0.9433    0.6118 H   0  0  0  0  0  0  0  0  0  0  0  0
   -1.7611   -1.9627    0.2973 H   0  0  0  0  0  0  0  0  0  0  0  0
   -2.6651   -0.1174    1.5101 H   0  0  0  0  0  0  0  0  0  0  0  0
  1  2  1  0
  1  5  1  0
  1  6  1  0
  1 16  1  0
  2  3  1  0
  3  4  2  3
  4  7  1  0
  4  8  1  0
  9 10  1  0
  9 13  1  0
  9 14  1  0
  9 15  1  0
 10 11  2  3
 10 17  1  0
 11 12  1  0
 11 18  1  0
M  RAD  1  12   2
M  END
>  <reaction>  (10) 
rmg_rxn_15698

>  <mol_properties>  (10) 
{"0": {"label": "*3", "atom_type": "Cs"}, "1": {"label": "*4", "atom_type": "O2s"}, "9": {"label": "*1", "atom_type": "Cs"}, "10": {"label": "*0", "atom_type": "CO"}, "15": {"label": "*2", "atom_type": "H0"}}

>  <type>  (10) 
unop_6

>  <geom_source>  (10) 
Heuristics

$$$$

     RDKit          3D

 18 16  0  0  0  0  0  0  0  0999 V2000
    0.7373   -1.1854   -0.2064 C   0  0  0  0  0  0  0  0  0  0  0  0
    1.0233   -0.5627    1.0305 O   0  0  0  0  0  0  0  0  0  0  0  0
    1.6615   -1.4528    1.8606 N   0  0  0  0  0  0  0  0  0  0  0  0
    1.9387   -0.9406    2.9820 C   0  0  0  0  0  0  0  0  0  0  0  0
    1.6553   -1.5066   -0.7036 H   0  0  0  0  0  0  0  0  0  0  0  0
    0.0774   -2.0448   -0.0677 H   0  0  0  0  0  0  0  0  0  0  0  0
    2.4436   -1.5785    3.6949 H   0  0  0  0  0  0  0  0  0  0  0  0
    1.6895    0.0879    3.2342 H   0  0  0  0  0  0  0  0  0  0  0  0
   -1.3410    0.0844   -2.6953 C   0  0  0  0  0  0  0  0  0  0  0  0
   -1.3410    0.0844   -1.1778 C   0  0  0  0  0  0  0  0  0  0  0  0
   -1.3410    1.4528   -0.5561 C   0  0  0  0  0  0  0  0  0  0  0  0
   -1.3410    2.4851   -1.1670 O   0  0  0  0  0  1  0  0  0  0  0  0
   -0.4627    0.5997   -3.0840 H   0  0  0  0  0  0  0  0  0  0  0  0
   -1.3410   -0.9358   -3.0793 H   0  0  0  0  0  0  0  0  0  0  0  0
   -2.2192    0.5997   -3.0840 H   0  0  0  0  0  0  0  0  0  0  0  0
   -0.2982   -0.5528   -0.6904 H   0  0  0  0  0  0  0  0  0  0  0  0
   -2.2100   -0.4466   -0.7716 H   0  0  0  0  0  0  0  0  0  0  0  0
   -1.3410    1.4592    0.5548 H   0  0  0  0  0  0  0  0  0  0  0  0
  1  2  1  0
  1  5  1  0
  1  6  1  0
  1 16  1  0
  2  3  1  0
  3  4  2  3
  4  7  1  0
  4  8  1  0
  9 10  1  0
  9 13  1  0
  9 14  1  0
  9 15  1  0
 10 11  2  3
 10 17  1  0
 11 12  1  0
 11 18  1  0
M  RAD  1  12   2
M  END
>  <reaction>  (11) 
rmg_rxn_15698

>  <mol_properties>  (11) 
{"0": {"label": "*3", "atom_type": "Cs"}, "1": {"label": "*4", "atom_type": "O2s"}, "9": {"label": "*1", "atom_type": "Cs"}, "10": {"label": "*0", "atom_type": "CO"}, "15": {"label": "*2", "atom_type": "H0"}}

>  <type>  (11) 
unop_7

>  <geom_source>  (11) 
Heuristics

$$$$

     RDKit          3D

 18 16  0  0  0  0  0  0  0  0999 V2000
    0.9499   -0.2463    0.6083 C   0  0  0  0  0  0  0  0  0  0  0  0
    0.8543   -1.5692    0.1182 O   0  0  0  0  0  0  0  0  0  0  0  0
    1.3836   -2.4430    1.0374 N   0  0  0  0  0  0  0  0  0  0  0  0
    1.3207   -3.6419    0.6430 C   0  0  0  0  0  0  0  0  0  0  0  0
    0.3888   -0.1328    1.5386 H   0  0  0  0  0  0  0  0  0  0  0  0
    1.9924    0.0345    0.7742 H   0  0  0  0  0  0  0  0  0  0  0  0
    1.7179   -4.3938    1.3118 H   0  0  0  0  0  0  0  0  0  0  0  0
    0.8922   -3.9214   -0.3171 H   0  0  0  0  0  0  0  0  0  0  0  0
   -1.1284    1.0235   -1.8807 C   0  0  0  0  0  0  0  0  0  0  0  0
   -1.1284    1.0235   -0.3631 C   0  0  0  0  0  0  0  0  0  0  0  0
   -1.1284    2.3919    0.2586 C   0  0  0  0  0  0  0  0  0  0  0  0
   -1.1284    3.4243   -0.3523 O   0  0  0  0  0  1  0  0  0  0  0  0
   -0.2501    1.5389   -2.2694 H   0  0  0  0  0  0  0  0  0  0  0  0
   -1.1284    0.0033   -2.2647 H   0  0  0  0  0  0  0  0  0  0  0  0
   -2.0066    1.5389   -2.2694 H   0  0  0  0  0  0  0  0  0  0  0  0
   -0.0856    0.3864    0.1243 H   0  0  0  0  0  0  0  0  0  0  0  0
   -1.9974    0.4926    0.0431 H   0  0  0  0  0  0  0  0  0  0  0  0
   -1.1284    2.3984    1.3694 H   0  0  0  0  0  0  0  0  0  0  0  0
  1  2  1  0
  1  5  1  0
  1  6  1  0
  1 16  1  0
  2  3  1  0
  3  4  2  3
  4  7  1  0
  4  8  1  0
  9 10  1  0
  9 13  1  0
  9 14  1  0
  9 15  1  0
 10 11  2  3
 10 17  1  0
 11 12  1  0
 11 18  1  0
M  RAD  1  12   2
M  END
>  <reaction>  (12) 
rmg_rxn_15698

>  <mol_properties>  (12) 
{"0": {"label": "*3", "atom_type": "Cs"}, "1": {"label": "*4", "atom_type": "O2s"}, "9": {"label": "*1", "atom_type": "Cs"}, "10": {"label": "*0", "atom_type": "CO"}, "15": {"label": "*2", "atom_type": "H0"}}

>  <type>  (12) 
unop_8

>  <geom_source>  (12) 
Heuristics

$$$$

     RDKit          3D

 18 16  0  0  0  0  0  0  0  0999 V2000
    1.0681    1.6663    0.5426 C   0  0  0  0  0  0  0  0  0  0  0  0
    1.9256    0.8280   -0.1968 O   0  0  0  0  0  0  0  0  0  0  0  0
    1.6873   -0.5016    0.0543 N   0  0  0  0  0  0  0  0  0  0  0  0
    2.4403   -1.3334   -0.5167 C   0  0  0  0  0  0  0  0  0  0  0  0
    1.2305    1.5960    1.6149 H   0  0  0  0  0  0  0  0  0  0  0  0
    1.1721    2.6627    0.1666 H   0  0  0  0  0  0  0  0  0  0  0  0
    2.2485   -2.3748   -0.3255 H   0  0  0  0  0  0  0  0  0  0  0  0
    3.2573   -1.0604   -1.1768 H   0  0  0  0  0  0  0  0  0  0  0  0
   -1.1446   -1.2465    1.0463 C   0  0  0  0  0  0  0  0  0  0  0  0
   -1.9558   -1.1167   -0.1660 C   0  0  0  0  0  0  0  0  0  0  0  0
   -2.2969    0.1502   -0.6813 C   0  0  0  0  0  0  0  0  0  0  0  0
   -1.9907    1.2264   -0.1610 O   0  0  0  0  0  1  0  0  0  0  0  0
   -1.2491   -2.2227    1.5120 H   0  0  0  0  0  0  0  0  0  0  0  0
   -0.0794   -1.1025    0.7835 H   0  0  0  0  0  0  0  0  0  0  0  0
   -1.3847   -0.4461    1.7458 H   0  0  0  0  0  0  0  0  0  0  0  0
    0.0074    1.5681    0.2710 H   0  0  0  0  0  0  0  0  0  0  0  0
   -2.2416   -1.9984   -0.7182 H   0  0  0  0  0  0  0  0  0  0  0  0
   -2.8669    0.1433   -1.6277 H   0  0  0  0  0  0  0  0  0  0  0  0
  1  2  1  0
  1  5  1  0
  1  6  1  0
  1 16  1  0
  2  3  1  0
  3  4  2  3
  4  7  1  0
  4  8  1  0
  9 10  1  0
  9 13  1  0
  9 14  1  0
  9 15  1  0
 10 11  2  3
 10 17  1  0
 11 12  1  0
 11 18  1  0
M  RAD  1  12   2
M  END
>  <reaction>  (13) 
rmg_rxn_15698

>  <mol_properties>  (13) 
{"0": {"label": "*3", "atom_type": "Cs"}, "1": {"label": "*4", "atom_type": "O2s"}, "9": {"label": "*1", "atom_type": "Cs"}, "10": {"label": "*0", "atom_type": "CO"}, "15": {"label": "*2", "atom_type": "H0"}}

>  <type>  (13) 
unop_9

>  <geom_source>  (13) 
Heuristics

$$$$

     RDKit          3D

 18 16  0  0  0  0  0  0  0  0999 V2000
    0.8312   -0.9830   -0.2292 C   0  0  0  0  0  0  0  0  0  0  0  0
    0.7047   -0.9057    1.1771 O   0  0  0  0  0  0  0  0  0  0  0  0
    1.7614   -1.5513    1.7732 N   0  0  0  0  0  0  0  0  0  0  0  0
    1.6924   -1.5092    3.0343 C   0  0  0  0  0  0  0  0  0  0  0  0
    1.7510   -0.4995   -0.5659 H   0  0  0  0  0  0  0  0  0  0  0  0
    0.8207   -2.0220   -0.5659 H   0  0  0  0  0  0  0  0  0  0  0  0
    2.4895   -1.9962    3.5800 H   0  0  0  0  0  0  0  0  0  0  0  0
    0.8800   -1.0128    3.5606 H   0  0  0  0  0  0  0  0  0  0  0  0
   -1.2471    0.2869   -2.7181 C   0  0  0  0  0  0  0  0  0  0  0  0
   -1.2471    0.2869   -1.2006 C   0  0  0  0  0  0  0  0  0  0  0  0
   -1.2471    1.6552   -0.5789 C   0  0  0  0  0  0  0  0  0  0  0  0
   -1.2471    2.6876   -1.1898 O   0  0  0  0  0  1  0  0  0  0  0  0
   -0.3688    0.8022   -3.1069 H   0  0  0  0  0  0  0  0  0  0  0  0
   -1.2471   -0.7334   -3.1021 H   0  0  0  0  0  0  0  0  0  0  0  0
   -2.1253    0.8022   -3.1069 H   0  0  0  0  0  0  0  0  0  0  0  0
   -0.2043   -0.3503   -0.7132 H   0  0  0  0  0  0  0  0  0  0  0  0
   -2.1161   -0.2441   -0.7944 H   0  0  0  0  0  0  0  0  0  0  0  0
   -1.2471    1.6617    0.5320 H   0  0  0  0  0  0  0  0  0  0  0  0
  1  2  1  0
  1  5  1  0
  1  6  1  0
  1 16  1  0
  2  3  1  0
  3  4  2  3
  4  7  1  0
  4  8  1  0
  9 10  1  0
  9 13  1  0
  9 14  1  0
  9 15  1  0
 10 11  2  3
 10 17  1  0
 11 12  1  0
 11 18  1  0
M  RAD  1  12   2
M  END
>  <reaction>  (14) 
rmg_rxn_15698

>  <mol_properties>  (14) 
{"0": {"label": "*3", "atom_type": "Cs"}, "1": {"label": "*4", "atom_type": "O2s"}, "9": {"label": "*1", "atom_type": "Cs"}, "10": {"label": "*0", "atom_type": "CO"}, "15": {"label": "*2", "atom_type": "H0"}}

>  <type>  (14) 
unop_10

>  <geom_source>  (14) 
Heuristics

$$$$

     RDKit          3D

 18 16  0  0  0  0  0  0  0  0999 V2000
   -1.0672   -1.6668    0.5414 C   0  0  0  0  0  0  0  0  0  0  0  0
   -1.9250   -0.8286   -0.1973 O   0  0  0  0  0  0  0  0  0  0  0  0
   -1.6875    0.5010    0.0545 N   0  0  0  0  0  0  0  0  0  0  0  0
   -2.4417    1.3328   -0.5148 C   0  0  0  0  0  0  0  0  0  0  0  0
   -1.2338   -1.6037    1.6133 H   0  0  0  0  0  0  0  0  0  0  0  0
   -1.1601   -2.6610    0.1583 H   0  0  0  0  0  0  0  0  0  0  0  0
   -2.2504    2.3741   -0.3228 H   0  0  0  0  0  0  0  0  0  0  0  0
   -3.2594    1.0599   -1.1741 H   0  0  0  0  0  0  0  0  0  0  0  0
    1.1439    1.2493    1.0437 C   0  0  0  0  0  0  0  0  0  0  0  0
    1.9557    1.1170   -0.1679 C   0  0  0  0  0  0  0  0  0  0  0  0
    2.2972   -0.1510   -0.6803 C   0  0  0  0  0  0  0  0  0  0  0  0
    1.9907   -1.2261   -0.1579 O   0  0  0  0  0  1  0  0  0  0  0  0
    1.3848    0.4514    1.7458 H   0  0  0  0  0  0  0  0  0  0  0  0
    1.2467    2.2270    1.5065 H   0  0  0  0  0  0  0  0  0  0  0  0
    0.0789    1.1027    0.7811 H   0  0  0  0  0  0  0  0  0  0  0  0
   -0.0067   -1.5673    0.2728 H   0  0  0  0  0  0  0  0  0  0  0  0
    2.2417    1.9974   -0.7218 H   0  0  0  0  0  0  0  0  0  0  0  0
    2.8679   -0.1460   -1.6262 H   0  0  0  0  0  0  0  0  0  0  0  0
  1  2  1  0
  1  5  1  0
  1  6  1  0
  1 16  1  0
  2  3  1  0
  3  4  2  3
  4  7  1  0
  4  8  1  0
  9 10  1  0
  9 13  1  0
  9 14  1  0
  9 15  1  0
 10 11  2  3
 10 17  1  0
 11 12  1  0
 11 18  1  0
M  RAD  1  12   2
M  END
>  <reaction>  (15) 
rmg_rxn_15698

>  <mol_properties>  (15) 
{"0": {"label": "*3", "atom_type": "Cs"}, "1": {"label": "*4", "atom_type": "O2s"}, "9": {"label": "*1", "atom_type": "Cs"}, "10": {"label": "*0", "atom_type": "CO"}, "15": {"label": "*2", "atom_type": "H0"}}

>  <type>  (15) 
unop_11

>  <geom_source>  (15) 
Heuristics

$$$$

     RDKit          3D

 18 16  0  0  0  0  0  0  0  0999 V2000
    1.1005   -0.3234    0.2419 C   0  0  0  0  0  0  0  0  0  0  0  0
    0.6947   -1.6705    0.3839 O   0  0  0  0  0  0  0  0  0  0  0  0
    1.2230   -2.1939    1.5396 N   0  0  0  0  0  0  0  0  0  0  0  0
    0.8871   -3.4000    1.7108 C   0  0  0  0  0  0  0  0  0  0  0  0
    0.7425    0.2826    1.0772 H   0  0  0  0  0  0  0  0  0  0  0  0
    2.1883   -0.2479    0.1761 H   0  0  0  0  0  0  0  0  0  0  0  0
    1.2633   -3.8864    2.6008 H   0  0  0  0  0  0  0  0  0  0  0  0
    0.2527   -3.9370    1.0090 H   0  0  0  0  0  0  0  0  0  0  0  0
   -0.9777    0.9464   -2.2471 C   0  0  0  0  0  0  0  0  0  0  0  0
   -0.9777    0.9464   -0.7295 C   0  0  0  0  0  0  0  0  0  0  0  0
   -0.9777    2.3148   -0.1078 C   0  0  0  0  0  0  0  0  0  0  0  0
   -0.9777    3.3472   -0.7187 O   0  0  0  0  0  1  0  0  0  0  0  0
   -0.0995    1.4617   -2.6358 H   0  0  0  0  0  0  0  0  0  0  0  0
   -0.9777   -0.0738   -2.6311 H   0  0  0  0  0  0  0  0  0  0  0  0
   -1.8559    1.4617   -2.6358 H   0  0  0  0  0  0  0  0  0  0  0  0
    0.0651    0.3093   -0.2421 H   0  0  0  0  0  0  0  0  0  0  0  0
   -1.8467    0.4155   -0.3233 H   0  0  0  0  0  0  0  0  0  0  0  0
   -0.9777    2.3212    1.0030 H   0  0  0  0  0  0  0  0  0  0  0  0
  1  2  1  0
  1  5  1  0
  1  6  1  0
  1 16  1  0
  2  3  1  0
  3  4  2  3
  4  7  1  0
  4  8  1  0
  9 10  1  0
  9 13  1  0
  9 14  1  0
  9 15  1  0
 10 11  2  3
 10 17  1  0
 11 12  1  0
 11 18  1  0
M  RAD  1  12   2
M  END
>  <reaction>  (16) 
rmg_rxn_15698

>  <mol_properties>  (16) 
{"0": {"label": "*3", "atom_type": "Cs"}, "1": {"label": "*4", "atom_type": "O2s"}, "9": {"label": "*1", "atom_type": "Cs"}, "10": {"label": "*0", "atom_type": "CO"}, "15": {"label": "*2", "atom_type": "H0"}}

>  <type>  (16) 
unop_12

>  <geom_source>  (16) 
Heuristics

$$$$

     RDKit          3D

 18 16  0  0  0  0  0  0  0  0999 V2000
    0.9882   -0.8960    1.1154 C   0  0  0  0  0  0  0  0  0  0  0  0
    1.9248   -0.7023    0.1164 O   0  0  0  0  0  0  0  0  0  0  0  0
    2.1519    0.5220   -0.4184 N   0  0  0  0  0  0  0  0  0  0  0  0
    1.3932    1.5073   -0.2179 C   0  0  0  0  0  0  0  0  0  0  0  0
    1.1817   -1.8738    1.5457 H   0  0  0  0  0  0  0  0  0  0  0  0
    0.9621   -0.1030    1.8643 H   0  0  0  0  0  0  0  0  0  0  0  0
    1.6917    2.4236   -0.6973 H   0  0  0  0  0  0  0  0  0  0  0  0
    0.4696    1.5212    0.3546 H   0  0  0  0  0  0  0  0  0  0  0  0
   -1.0358   -0.8662   -1.4645 C   0  0  0  0  0  0  0  0  0  0  0  0
   -1.4019   -0.9845   -0.0094 C   0  0  0  0  0  0  0  0  0  0  0  0
   -2.0868    0.1375    0.6006 C   0  0  0  0  0  0  0  0  0  0  0  0
   -1.9995    1.2968    0.2327 O   0  0  0  0  0  1  0  0  0  0  0  0
   -0.1655   -1.4743   -1.7070 H   0  0  0  0  0  0  0  0  0  0  0  0
   -1.8652   -1.2048   -2.0861 H   0  0  0  0  0  0  0  0  0  0  0  0
   -0.8274    0.1733   -1.7094 H   0  0  0  0  0  0  0  0  0  0  0  0
   -0.2027   -0.9431    0.6118 H   0  0  0  0  0  0  0  0  0  0  0  0
   -1.7606   -1.9628    0.2971 H   0  0  0  0  0  0  0  0  0  0  0  0
   -2.6654   -0.1182    1.5098 H   0  0  0  0  0  0  0  0  0  0  0  0
  1  2  1  0
  1  5  1  0
  1  6  1  0
  1 16  1  0
  2  3  1  0
  3  4  2  3
  4  7  1  0
  4  8  1  0
  9 10  1  0
  9 13  1  0
  9 14  1  0
  9 15  1  0
 10 11  2  3
 10 17  1  0
 11 12  1  0
 11 18  1  0
M  RAD  1  12   2
M  END
>  <reaction>  (17) 
rmg_rxn_15698

>  <mol_properties>  (17) 
{"0": {"label": "*3", "atom_type": "Cs"}, "1": {"label": "*4", "atom_type": "O2s"}, "9": {"label": "*1", "atom_type": "Cs"}, "10": {"label": "*0", "atom_type": "CO"}, "15": {"label": "*2", "atom_type": "H0"}}

>  <type>  (17) 
unop_13

>  <geom_source>  (17) 
Heuristics

$$$$

     RDKit          3D

 18 16  0  0  0  0  0  0  0  0999 V2000
    1.0979   -0.5505   -0.0570 C   0  0  0  0  0  0  0  0  0  0  0  0
    0.5721   -1.6105    0.7171 O   0  0  0  0  0  0  0  0  0  0  0  0
    1.3402   -1.7871    1.8430 N   0  0  0  0  0  0  0  0  0  0  0  0
    0.9083   -2.7268    2.5691 C   0  0  0  0  0  0  0  0  0  0  0  0
    1.0874    0.3862    0.5048 H   0  0  0  0  0  0  0  0  0  0  0  0
    2.1179   -0.7710   -0.3798 H   0  0  0  0  0  0  0  0  0  0  0  0
    1.4595   -2.9303    3.4774 H   0  0  0  0  0  0  0  0  0  0  0  0
    0.0285   -3.3115    2.3091 H   0  0  0  0  0  0  0  0  0  0  0  0
   -0.9803    0.7194   -2.5460 C   0  0  0  0  0  0  0  0  0  0  0  0
   -0.9803    0.7194   -1.0284 C   0  0  0  0  0  0  0  0  0  0  0  0
   -0.9803    2.0877   -0.4067 C   0  0  0  0  0  0  0  0  0  0  0  0
   -0.9803    3.1201   -1.0176 O   0  0  0  0  0  1  0  0  0  0  0  0
   -0.1021    1.2347   -2.9347 H   0  0  0  0  0  0  0  0  0  0  0  0
   -0.9803   -0.3009   -2.9300 H   0  0  0  0  0  0  0  0  0  0  0  0
   -1.8585    1.2347   -2.9347 H   0  0  0  0  0  0  0  0  0  0  0  0
    0.0625    0.0822   -0.5410 H   0  0  0  0  0  0  0  0  0  0  0  0
   -1.8493    0.1884   -0.6222 H   0  0  0  0  0  0  0  0  0  0  0  0
   -0.9803    2.0942    0.7041 H   0  0  0  0  0  0  0  0  0  0  0  0
  1  2  1  0
  1  5  1  0
  1  6  1  0
  1 16  1  0
  2  3  1  0
  3  4  2  3
  4  7  1  0
  4  8  1  0
  9 10  1  0
  9 13  1  0
  9 14  1  0
  9 15  1  0
 10 11  2  3
 10 17  1  0
 11 12  1  0
 11 18  1  0
M  RAD  1  12   2
M  END
>  <reaction>  (18) 
rmg_rxn_15698

>  <mol_properties>  (18) 
{"0": {"label": "*3", "atom_type": "Cs"}, "1": {"label": "*4", "atom_type": "O2s"}, "9": {"label": "*1", "atom_type": "Cs"}, "10": {"label": "*0", "atom_type": "CO"}, "15": {"label": "*2", "atom_type": "H0"}}

>  <type>  (18) 
unop_14

>  <geom_source>  (18) 
Heuristics

$$$$

     RDKit          3D

 18 16  0  0  0  0  0  0  0  0999 V2000
    1.0663    1.6660   -0.5431 C   0  0  0  0  0  0  0  0  0  0  0  0
    1.9238    0.8288    0.1975 O   0  0  0  0  0  0  0  0  0  0  0  0
    1.6885   -0.5011   -0.0550 N   0  0  0  0  0  0  0  0  0  0  0  0
    2.4421   -1.3318    0.5167 C   0  0  0  0  0  0  0  0  0  0  0  0
    1.1695    2.6627   -0.1675 H   0  0  0  0  0  0  0  0  0  0  0  0
    1.2297    1.5952   -1.6152 H   0  0  0  0  0  0  0  0  0  0  0  0
    2.2533   -2.3734    0.3239 H   0  0  0  0  0  0  0  0  0  0  0  0
    3.2574   -1.0574    1.1784 H   0  0  0  0  0  0  0  0  0  0  0  0
   -1.1438   -1.2468   -1.0461 C   0  0  0  0  0  0  0  0  0  0  0  0
   -1.9548   -1.1174    0.1664 C   0  0  0  0  0  0  0  0  0  0  0  0
   -2.2966    0.1493    0.6815 C   0  0  0  0  0  0  0  0  0  0  0  0
   -1.9917    1.2256    0.1607 O   0  0  0  0  0  1  0  0  0  0  0  0
   -0.0785   -1.1029   -0.7836 H   0  0  0  0  0  0  0  0  0  0  0  0
   -1.2483   -2.2230   -1.5120 H   0  0  0  0  0  0  0  0  0  0  0  0
   -1.3841   -0.4463   -1.7454 H   0  0  0  0  0  0  0  0  0  0  0  0
    0.0055    1.5674   -0.2722 H   0  0  0  0  0  0  0  0  0  0  0  0
   -2.2398   -1.9992    0.7188 H   0  0  0  0  0  0  0  0  0  0  0  0
   -2.8662    0.1422    1.6281 H   0  0  0  0  0  0  0  0  0  0  0  0
  1  2  1  0
  1  5  1  0
  1  6  1  0
  1 16  1  0
  2  3  1  0
  3  4  2  3
  4  7  1  0
  4  8  1  0
  9 10  1  0
  9 13  1  0
  9 14  1  0
  9 15  1  0
 10 11  2  3
 10 17  1  0
 11 12  1  0
 11 18  1  0
M  RAD  1  12   2
M  END
>  <reaction>  (19) 
rmg_rxn_15698

>  <mol_properties>  (19) 
{"0": {"label": "*3", "atom_type": "Cs"}, "1": {"label": "*4", "atom_type": "O2s"}, "9": {"label": "*1", "atom_type": "Cs"}, "10": {"label": "*0", "atom_type": "CO"}, "15": {"label": "*2", "atom_type": "H0"}}

>  <type>  (19) 
unop_15

>  <geom_source>  (19) 
Heuristics

$$$$

     RDKit          3D

 18 16  0  0  0  0  0  0  0  0999 V2000
    0.3672   -1.5236    0.2419 C   0  0  0  0  0  0  0  0  0  0  0  0
    1.3807   -0.5478    0.3839 O   0  0  0  0  0  0  0  0  0  0  0  0
    2.0875   -0.7790    1.5396 N   0  0  0  0  0  0  0  0  0  0  0  0
    3.0074    0.0702    1.7108 C   0  0  0  0  0  0  0  0  0  0  0  0
    0.7963   -2.5260    0.1761 H   0  0  0  0  0  0  0  0  0  0  0  0
   -0.3355   -1.4816    1.0772 H   0  0  0  0  0  0  0  0  0  0  0  0
    3.6120   -0.0426    2.6008 H   0  0  0  0  0  0  0  0  0  0  0  0
    3.1958    0.8798    1.0090 H   0  0  0  0  0  0  0  0  0  0  0  0
   -1.7110   -0.2538   -2.2471 C   0  0  0  0  0  0  0  0  0  0  0  0
   -1.7110   -0.2538   -0.7295 C   0  0  0  0  0  0  0  0  0  0  0  0
   -1.7110    1.1146   -0.1078 C   0  0  0  0  0  0  0  0  0  0  0  0
   -1.7110    2.1469   -0.7187 O   0  0  0  0  0  1  0  0  0  0  0  0
   -0.8328    0.2615   -2.6358 H   0  0  0  0  0  0  0  0  0  0  0  0
   -1.7110   -1.2740   -2.6311 H   0  0  0  0  0  0  0  0  0  0  0  0
   -2.5893    0.2615   -2.6358 H   0  0  0  0  0  0  0  0  0  0  0  0
   -0.6682   -0.8910   -0.2421 H   0  0  0  0  0  0  0  0  0  0  0  0
   -2.5800   -0.7848   -0.3233 H   0  0  0  0  0  0  0  0  0  0  0  0
   -1.7110    1.1210    1.0030 H   0  0  0  0  0  0  0  0  0  0  0  0
  1  2  1  0
  1  5  1  0
  1  6  1  0
  1 16  1  0
  2  3  1  0
  3  4  2  3
  4  7  1  0
  4  8  1  0
  9 10  1  0
  9 13  1  0
  9 14  1  0
  9 15  1  0
 10 11  2  3
 10 17  1  0
 11 12  1  0
 11 18  1  0
M  RAD  1  12   2
M  END
>  <reaction>  (20) 
rmg_rxn_15698

>  <mol_properties>  (20) 
{"0": {"label": "*3", "atom_type": "Cs"}, "1": {"label": "*4", "atom_type": "O2s"}, "9": {"label": "*1", "atom_type": "Cs"}, "10": {"label": "*0", "atom_type": "CO"}, "15": {"label": "*2", "atom_type": "H0"}}

>  <type>  (20) 
unop_16

>  <geom_source>  (20) 
Heuristics

$$$$

     RDKit          3D

 18 16  0  0  0  0  0  0  0  0999 V2000
    0.7709    0.9841    0.9189 C   0  0  0  0  0  0  0  0  0  0  0  0
    1.8471    1.0299    0.0534 O   0  0  0  0  0  0  0  0  0  0  0  0
    2.4297   -0.1006   -0.4167 N   0  0  0  0  0  0  0  0  0  0  0  0
    1.9124   -1.2419   -0.2837 C   0  0  0  0  0  0  0  0  0  0  0  0
    0.8498    0.2175    1.6915 H   0  0  0  0  0  0  0  0  0  0  0  0
    0.6466    1.9831    1.3253 H   0  0  0  0  0  0  0  0  0  0  0  0
    2.4833   -2.0549   -0.6986 H   0  0  0  0  0  0  0  0  0  0  0  0
    0.9551   -1.4844    0.1702 H   0  0  0  0  0  0  0  0  0  0  0  0
   -2.2916    1.5980   -0.4048 C   0  0  0  0  0  0  0  0  0  0  0  0
   -1.4226    0.3729   -0.4250 C   0  0  0  0  0  0  0  0  0  0  0  0
   -1.8771   -0.8062    0.2783 C   0  0  0  0  0  0  0  0  0  0  0  0
   -1.3761   -1.9141    0.1756 O   0  0  0  0  0  1  0  0  0  0  0  0
   -1.7386    2.4707   -0.7454 H   0  0  0  0  0  0  0  0  0  0  0  0
   -3.1442    1.4641   -1.0721 H   0  0  0  0  0  0  0  0  0  0  0  0
   -2.6724    1.7880    0.5968 H   0  0  0  0  0  0  0  0  0  0  0  0
   -0.3187    0.7062    0.2768 H   0  0  0  0  0  0  0  0  0  0  0  0
   -0.9550    0.1638   -1.3855 H   0  0  0  0  0  0  0  0  0  0  0  0
   -2.6959   -0.6267    1.0016 H   0  0  0  0  0  0  0  0  0  0  0  0
  1  2  1  0
  1  5  1  0
  1  6  1  0
  1 16  1  0
  2  3  1  0
  3  4  2  3
  4  7  1  0
  4  8  1  0
  9 10  1  0
  9 13  1  0
  9 14  1  0
  9 15  1  0
 10 11  2  3
 10 17  1  0
 11 12  1  0
 11 18  1  0
M  RAD  1  12   2
M  END
>  <reaction>  (21) 
rmg_rxn_15698

>  <mol_properties>  (21) 
{"0": {"label": "*3", "atom_type": "Cs"}, "1": {"label": "*4", "atom_type": "O2s"}, "9": {"label": "*1", "atom_type": "Cs"}, "10": {"label": "*0", "atom_type": "CO"}, "15": {"label": "*2", "atom_type": "H0"}}

>  <type>  (21) 
unop_17

>  <geom_source>  (21) 
Heuristics

$$$$

     RDKit          3D

 18 16  0  0  0  0  0  0  0  0999 V2000
    0.6824   -0.3828    0.9176 C   0  0  0  0  0  0  0  0  0  0  0  0
    1.0041   -1.3769   -0.0352 O   0  0  0  0  0  0  0  0  0  0  0  0
    1.7905   -2.3410    0.5487 N   0  0  0  0  0  0  0  0  0  0  0  0
    2.1049   -3.2541   -0.2662 C   0  0  0  0  0  0  0  0  0  0  0  0
    0.1230   -0.8092    1.7533 H   0  0  0  0  0  0  0  0  0  0  0  0
    1.5848    0.1047    1.2934 H   0  0  0  0  0  0  0  0  0  0  0  0
    2.7252   -4.0533    0.1169 H   0  0  0  0  0  0  0  0  0  0  0  0
    1.7774   -3.2522   -1.3036 H   0  0  0  0  0  0  0  0  0  0  0  0
   -1.3958    0.8870   -1.5713 C   0  0  0  0  0  0  0  0  0  0  0  0
   -1.3958    0.8870   -0.0538 C   0  0  0  0  0  0  0  0  0  0  0  0
   -1.3958    2.2553    0.5679 C   0  0  0  0  0  0  0  0  0  0  0  0
   -1.3958    3.2877   -0.0430 O   0  0  0  0  0  1  0  0  0  0  0  0
   -0.5176    1.4023   -1.9600 H   0  0  0  0  0  0  0  0  0  0  0  0
   -1.3958   -0.1333   -1.9553 H   0  0  0  0  0  0  0  0  0  0  0  0
   -2.2740    1.4023   -1.9600 H   0  0  0  0  0  0  0  0  0  0  0  0
   -0.3530    0.2498    0.4336 H   0  0  0  0  0  0  0  0  0  0  0  0
   -2.2648    0.3560    0.3524 H   0  0  0  0  0  0  0  0  0  0  0  0
   -1.3958    2.2618    1.6788 H   0  0  0  0  0  0  0  0  0  0  0  0
  1  2  1  0
  1  5  1  0
  1  6  1  0
  1 16  1  0
  2  3  1  0
  3  4  2  3
  4  7  1  0
  4  8  1  0
  9 10  1  0
  9 13  1  0
  9 14  1  0
  9 15  1  0
 10 11  2  3
 10 17  1  0
 11 12  1  0
 11 18  1  0
M  RAD  1  12   2
M  END
>  <reaction>  (22) 
rmg_rxn_15698

>  <mol_properties>  (22) 
{"0": {"label": "*3", "atom_type": "Cs"}, "1": {"label": "*4", "atom_type": "O2s"}, "9": {"label": "*1", "atom_type": "Cs"}, "10": {"label": "*0", "atom_type": "CO"}, "15": {"label": "*2", "atom_type": "H0"}}

>  <type>  (22) 
unop_18

>  <geom_source>  (22) 
Heuristics

$$$$

     RDKit          3D

 18 16  0  0  0  0  0  0  0  0999 V2000
    0.2298   -1.4247    0.6083 C   0  0  0  0  0  0  0  0  0  0  0  0
    1.3634   -0.7360    0.1182 O   0  0  0  0  0  0  0  0  0  0  0  0
    2.3825   -0.8083    1.0374 N   0  0  0  0  0  0  0  0  0  0  0  0
    3.4205   -0.2053    0.6430 C   0  0  0  0  0  0  0  0  0  0  0  0
    0.4557   -2.4805    0.7742 H   0  0  0  0  0  0  0  0  0  0  0  0
   -0.1272   -0.9773    1.5386 H   0  0  0  0  0  0  0  0  0  0  0  0
    4.2708   -0.2156    1.3117 H   0  0  0  0  0  0  0  0  0  0  0  0
    3.4737    0.3036   -0.3171 H   0  0  0  0  0  0  0  0  0  0  0  0
   -1.8484   -0.1549   -1.8807 C   0  0  0  0  0  0  0  0  0  0  0  0
   -1.8484   -0.1549   -0.3631 C   0  0  0  0  0  0  0  0  0  0  0  0
   -1.8484    1.2135    0.2586 C   0  0  0  0  0  0  0  0  0  0  0  0
   -1.8484    2.2458   -0.3523 O   0  0  0  0  0  1  0  0  0  0  0  0
   -0.9702    0.3604   -2.2694 H   0  0  0  0  0  0  0  0  0  0  0  0
   -1.8484   -1.1752   -2.2647 H   0  0  0  0  0  0  0  0  0  0  0  0
   -2.7266    0.3604   -2.2694 H   0  0  0  0  0  0  0  0  0  0  0  0
   -0.8056   -0.7921    0.1243 H   0  0  0  0  0  0  0  0  0  0  0  0
   -2.7174   -0.6859    0.0431 H   0  0  0  0  0  0  0  0  0  0  0  0
   -1.8484    1.2199    1.3694 H   0  0  0  0  0  0  0  0  0  0  0  0
  1  2  1  0
  1  5  1  0
  1  6  1  0
  1 16  1  0
  2  3  1  0
  3  4  2  3
  4  7  1  0
  4  8  1  0
  9 10  1  0
  9 13  1  0
  9 14  1  0
  9 15  1  0
 10 11  2  3
 10 17  1  0
 11 12  1  0
 11 18  1  0
M  RAD  1  12   2
M  END
>  <reaction>  (23) 
rmg_rxn_15698

>  <mol_properties>  (23) 
{"0": {"label": "*3", "atom_type": "Cs"}, "1": {"label": "*4", "atom_type": "O2s"}, "9": {"label": "*1", "atom_type": "Cs"}, "10": {"label": "*0", "atom_type": "CO"}, "15": {"label": "*2", "atom_type": "H0"}}

>  <type>  (23) 
unop_19

>  <geom_source>  (23) 
Heuristics

$$$$

     RDKit          3D

 18 16  0  0  0  0  0  0  0  0999 V2000
    0.9685   -0.8070   -0.2064 C   0  0  0  0  0  0  0  0  0  0  0  0
    0.5449   -1.3457    1.0305 O   0  0  0  0  0  0  0  0  0  0  0  0
    1.6282   -1.5074    1.8606 N   0  0  0  0  0  0  0  0  0  0  0  0
    1.2988   -1.9878    2.9820 C   0  0  0  0  0  0  0  0  0  0  0  0
    1.4321    0.1723   -0.0678 H   0  0  0  0  0  0  0  0  0  0  0  0
    1.6732   -1.4773   -0.7036 H   0  0  0  0  0  0  0  0  0  0  0  0
    2.0969   -2.1459    3.6949 H   0  0  0  0  0  0  0  0  0  0  0  0
    0.2700   -2.2354    3.2342 H   0  0  0  0  0  0  0  0  0  0  0  0
   -1.1098    0.4628   -2.6953 C   0  0  0  0  0  0  0  0  0  0  0  0
   -1.1098    0.4628   -1.1778 C   0  0  0  0  0  0  0  0  0  0  0  0
   -1.1098    1.8312   -0.5561 C   0  0  0  0  0  0  0  0  0  0  0  0
   -1.1098    2.8635   -1.1670 O   0  0  0  0  0  1  0  0  0  0  0  0
   -0.2315    0.9781   -3.0840 H   0  0  0  0  0  0  0  0  0  0  0  0
   -1.1098   -0.5574   -3.0793 H   0  0  0  0  0  0  0  0  0  0  0  0
   -1.9880    0.9781   -3.0840 H   0  0  0  0  0  0  0  0  0  0  0  0
   -0.0670   -0.1744   -0.6904 H   0  0  0  0  0  0  0  0  0  0  0  0
   -1.9788   -0.0682   -0.7716 H   0  0  0  0  0  0  0  0  0  0  0  0
   -1.1098    1.8376    0.5548 H   0  0  0  0  0  0  0  0  0  0  0  0
  1  2  1  0
  1  5  1  0
  1  6  1  0
  1 16  1  0
  2  3  1  0
  3  4  2  3
  4  7  1  0
  4  8  1  0
  9 10  1  0
  9 13  1  0
  9 14  1  0
  9 15  1  0
 10 11  2  3
 10 17  1  0
 11 12  1  0
 11 18  1  0
M  RAD  1  12   2
M  END
>  <reaction>  (24) 
rmg_rxn_15698

>  <mol_properties>  (24) 
{"0": {"label": "*3", "atom_type": "Cs"}, "1": {"label": "*4", "atom_type": "O2s"}, "9": {"label": "*1", "atom_type": "Cs"}, "10": {"label": "*0", "atom_type": "CO"}, "15": {"label": "*2", "atom_type": "H0"}}

>  <type>  (24) 
unop_20

>  <geom_source>  (24) 
Heuristics

$$$$

     RDKit          3D

 18 16  0  0  0  0  0  0  0  0999 V2000
    0.3987   -0.7187    1.0414 C   0  0  0  0  0  0  0  0  0  0  0  0
    1.1329   -1.1673   -0.0809 O   0  0  0  0  0  0  0  0  0  0  0  0
    2.2496   -1.8496    0.3388 N   0  0  0  0  0  0  0  0  0  0  0  0
    2.9401   -2.2715   -0.6317 C   0  0  0  0  0  0  0  0  0  0  0  0
    0.0657   -1.5607    1.6523 H   0  0  0  0  0  0  0  0  0  0  0  0
    0.9960   -0.0382    1.6523 H   0  0  0  0  0  0  0  0  0  0  0  0
    3.8388   -2.8207   -0.3847 H   0  0  0  0  0  0  0  0  0  0  0  0
    2.6598   -2.1002   -1.6688 H   0  0  0  0  0  0  0  0  0  0  0  0
   -1.6795    0.5511   -1.4476 C   0  0  0  0  0  0  0  0  0  0  0  0
   -1.6795    0.5511    0.0700 C   0  0  0  0  0  0  0  0  0  0  0  0
   -1.6795    1.9195    0.6917 C   0  0  0  0  0  0  0  0  0  0  0  0
   -1.6795    2.9518    0.0807 O   0  0  0  0  0  1  0  0  0  0  0  0
   -0.8013    1.0664   -1.8363 H   0  0  0  0  0  0  0  0  0  0  0  0
   -1.6795   -0.4691   -1.8316 H   0  0  0  0  0  0  0  0  0  0  0  0
   -2.5577    1.0664   -1.8363 H   0  0  0  0  0  0  0  0  0  0  0  0
   -0.6367   -0.0861    0.5574 H   0  0  0  0  0  0  0  0  0  0  0  0
   -2.5485    0.0201    0.4762 H   0  0  0  0  0  0  0  0  0  0  0  0
   -1.6795    1.9259    1.8025 H   0  0  0  0  0  0  0  0  0  0  0  0
  1  2  1  0
  1  5  1  0
  1  6  1  0
  1 16  1  0
  2  3  1  0
  3  4  2  3
  4  7  1  0
  4  8  1  0
  9 10  1  0
  9 13  1  0
  9 14  1  0
  9 15  1  0
 10 11  2  3
 10 17  1  0
 11 12  1  0
 11 18  1  0
M  RAD  1  12   2
M  END
>  <reaction>  (25) 
rmg_rxn_15698

>  <mol_properties>  (25) 
{"0": {"label": "*3", "atom_type": "Cs"}, "1": {"label": "*4", "atom_type": "O2s"}, "9": {"label": "*1", "atom_type": "Cs"}, "10": {"label": "*0", "atom_type": "CO"}, "15": {"label": "*2", "atom_type": "H0"}}

>  <type>  (25) 
unop_21

>  <geom_source>  (25) 
Heuristics

$$$$

     RDKit          3D

 18 16  0  0  0  0  0  0  0  0999 V2000
    0.7710    0.9845    0.9185 C   0  0  0  0  0  0  0  0  0  0  0  0
    1.8477    1.0297    0.0536 O   0  0  0  0  0  0  0  0  0  0  0  0
    2.4296   -0.1011   -0.4166 N   0  0  0  0  0  0  0  0  0  0  0  0
    1.9115   -1.2420   -0.2840 C   0  0  0  0  0  0  0  0  0  0  0  0
    0.8494    0.2184    1.6917 H   0  0  0  0  0  0  0  0  0  0  0  0
    0.6466    1.9838    1.3242 H   0  0  0  0  0  0  0  0  0  0  0  0
    2.4819   -2.0554   -0.6985 H   0  0  0  0  0  0  0  0  0  0  0  0
    0.9542   -1.4840    0.1701 H   0  0  0  0  0  0  0  0  0  0  0  0
   -2.2916    1.5979   -0.4050 C   0  0  0  0  0  0  0  0  0  0  0  0
   -1.4226    0.3729   -0.4252 C   0  0  0  0  0  0  0  0  0  0  0  0
   -1.8767   -0.8060    0.2787 C   0  0  0  0  0  0  0  0  0  0  0  0
   -1.3761   -1.9140    0.1757 O   0  0  0  0  0  1  0  0  0  0  0  0
   -2.6741    1.7867    0.5962 H   0  0  0  0  0  0  0  0  0  0  0  0
   -1.7382    2.4711   -0.7436 H   0  0  0  0  0  0  0  0  0  0  0  0
   -3.1430    1.4648   -1.0739 H   0  0  0  0  0  0  0  0  0  0  0  0
   -0.3184    0.7064    0.2761 H   0  0  0  0  0  0  0  0  0  0  0  0
   -0.9553    0.1635   -1.3858 H   0  0  0  0  0  0  0  0  0  0  0  0
   -2.6943   -0.6261    1.0033 H   0  0  0  0  0  0  0  0  0  0  0  0
  1  2  1  0
  1  5  1  0
  1  6  1  0
  1 16  1  0
  2  3  1  0
  3  4  2  3
  4  7  1  0
  4  8  1  0
  9 10  1  0
  9 13  1  0
  9 14  1  0
  9 15  1  0
 10 11  2  3
 10 17  1  0
 11 12  1  0
 11 18  1  0
M  RAD  1  12   2
M  END
>  <reaction>  (26) 
rmg_rxn_15698

>  <mol_properties>  (26) 
{"0": {"label": "*3", "atom_type": "Cs"}, "1": {"label": "*4", "atom_type": "O2s"}, "9": {"label": "*1", "atom_type": "Cs"}, "10": {"label": "*0", "atom_type": "CO"}, "15": {"label": "*2", "atom_type": "H0"}}

>  <type>  (26) 
unop_22

>  <geom_source>  (26) 
Heuristics

$$$$

     RDKit          3D

 18 14  0  0  0  0  0  0  0  0999 V2000
    1.6322   -0.4156   -0.5443 O   0  0  0  0  0  1  0  0  0  0  0  0
   -1.9096    0.9041    3.0475 O   0  0  0  0  0  1  0  0  0  0  0  0
    2.4803   -0.2725   -1.6187 N   0  0  0  0  0  0  0  0  0  0  0  0
   -1.2608    0.6881    0.1191 C   0  0  0  0  0  2  0  0  0  0  0  0
    0.2736   -0.0235   -0.6466 C   0  0  0  0  0  0  0  0  0  0  0  0
   -1.5866   -0.4161    1.1168 C   0  0  0  0  0  3  0  0  0  0  0  0
   -2.3971    0.1080    2.2614 C   0  0  0  0  0  0  0  0  0  0  0  0
    3.7189   -0.6288   -1.5288 C   0  0  0  0  0  0  0  0  0  0  0  0
   -2.1956    1.1269   -0.2910 H   0  0  0  0  0  0  0  0  0  0  0  0
   -0.6668    0.2634   -0.7167 H   0  0  0  0  0  0  0  0  0  0  0  0
   -0.6616    1.4842    0.6095 H   0  0  0  0  0  0  0  0  0  0  0  0
    0.2114    1.0601   -0.8803 H   0  0  0  0  0  0  0  0  0  0  0  0
   -0.2268   -0.6065   -1.4481 H   0  0  0  0  0  0  0  0  0  0  0  0
   -0.3326   -0.2539    0.4972 H   0  0  0  0  0  0  0  0  0  0  0  0
   -2.1456   -1.2274    0.6033 H   0  0  0  0  0  0  0  0  0  0  0  0
   -3.4165   -0.2342    2.4070 H   0  0  0  0  0  0  0  0  0  0  0  0
    4.1075   -1.0448   -0.6076 H   0  0  0  0  0  0  0  0  0  0  0  0
    4.3755   -0.5114   -2.3799 H   0  0  0  0  0  0  0  0  0  0  0  0
  1  3  1  0
  2  7  1  0
  3  8  2  3
  4  9  1  0
  4 11  1  0
  5 10  1  0
  5 12  1  0
  5 13  1  0
  5 14  1  0
  6  7  2  3
  6 15  1  0
  7 16  1  0
  8 17  1  0
  8 18  1  0
M  CHG  2   2  -1   6   1
M  RAD  2   1   2   4   3
M  END
>  <reaction>  (27) 
rmg_rxn_15698

>  <mol_properties>  (27) 
{"0": {"label": "*3", "atom_type": "Cs"}, "1": {"label": "*4", "atom_type": "O2s"}, "9": {"label": "*1", "atom_type": "Cs"}, "10": {"label": "*0", "atom_type": "CO"}, "15": {"label": "*2", "atom_type": "H0"}}

>  <type>  (27) 
unop_23

>  <geom_source>  (27) 
AutoTST

$$$$

     RDKit          3D

 18 16  0  0  0  0  0  0  0  0999 V2000
    0.2293   -1.1244    0.9176 C   0  0  0  0  0  0  0  0  0  0  0  0
    1.2606   -0.9570   -0.0352 O   0  0  0  0  0  0  0  0  0  0  0  0
    2.4773   -1.2169    0.5487 N   0  0  0  0  0  0  0  0  0  0  0  0
    3.4333   -1.0801   -0.2662 C   0  0  0  0  0  0  0  0  0  0  0  0
    0.2072   -2.1498    1.2934 H   0  0  0  0  0  0  0  0  0  0  0  0
    0.3534   -0.4321    1.7533 H   0  0  0  0  0  0  0  0  0  0  0  0
    4.4275   -1.2672    0.1169 H   0  0  0  0  0  0  0  0  0  0  0  0
    3.2821   -0.7894   -1.3036 H   0  0  0  0  0  0  0  0  0  0  0  0
   -1.8489    0.1454   -1.5713 C   0  0  0  0  0  0  0  0  0  0  0  0
   -1.8489    0.1454   -0.0538 C   0  0  0  0  0  0  0  0  0  0  0  0
   -1.8489    1.5138    0.5679 C   0  0  0  0  0  0  0  0  0  0  0  0
   -1.8489    2.5461   -0.0430 O   0  0  0  0  0  1  0  0  0  0  0  0
   -0.9707    0.6607   -1.9600 H   0  0  0  0  0  0  0  0  0  0  0  0
   -1.8489   -0.8749   -1.9553 H   0  0  0  0  0  0  0  0  0  0  0  0
   -2.7271    0.6607   -1.9600 H   0  0  0  0  0  0  0  0  0  0  0  0
   -0.8061   -0.4918    0.4336 H   0  0  0  0  0  0  0  0  0  0  0  0
   -2.7179   -0.3856    0.3524 H   0  0  0  0  0  0  0  0  0  0  0  0
   -1.8489    1.5202    1.6788 H   0  0  0  0  0  0  0  0  0  0  0  0
  1  2  1  0
  1  5  1  0
  1  6  1  0
  1 16  1  0
  2  3  1  0
  3  4  2  3
  4  7  1  0
  4  8  1  0
  9 10  1  0
  9 13  1  0
  9 14  1  0
  9 15  1  0
 10 11  2  3
 10 17  1  0
 11 12  1  0
 11 18  1  0
M  RAD  1  12   2
M  END
>  <reaction>  (28) 
rmg_rxn_15698

>  <mol_properties>  (28) 
{"0": {"label": "*3", "atom_type": "Cs"}, "1": {"label": "*4", "atom_type": "O2s"}, "9": {"label": "*1", "atom_type": "Cs"}, "10": {"label": "*0", "atom_type": "CO"}, "15": {"label": "*2", "atom_type": "H0"}}

>  <type>  (28) 
unop_24

>  <geom_source>  (28) 
gaussian_log

$$$$
