
     RDKit          3D

 10  9  0  0  0  0  0  0  0  0999 V2000
    2.0861   -0.0291   -0.2114 C   0  0  0  0  0  0  0  0  0  0  0  0
    0.8590   -0.0801    0.2151 C   0  0  0  0  0  0  0  0  0  0  0  0
   -0.3701   -0.1299    0.6360 C   0  0  0  0  0  0  0  0  0  0  0  0
   -1.5792    0.1084   -0.2228 C   0  0  0  0  0  0  0  0  0  0  0  0
    2.6495    0.8968   -0.1902 H   0  0  0  0  0  0  0  0  0  0  0  0
    2.5830   -0.9114   -0.5982 H   0  0  0  0  0  0  0  0  0  0  0  0
   -0.5397   -0.3602    1.6844 H   0  0  0  0  0  0  0  0  0  0  0  0
   -2.2286   -0.7700   -0.2248 H   0  0  0  0  0  0  0  0  0  0  0  0
   -1.2946    0.3298   -1.2505 H   0  0  0  0  0  0  0  0  0  0  0  0
   -2.1655    0.9457    0.1623 H   0  0  0  0  0  0  0  0  0  0  0  0
  1  2  2  0
  1  5  1  0
  1  6  1  0
  2  3  2  0
  3  4  1  0
  3  7  1  0
  4  8  1  0
  4  9  1  0
  4 10  1  0
M  END
>  <reaction>  (1) 
rmg_rxn_15586

>  <mol_properties>  (1) 
{"2": {"label": "donator", "atom_type": "Cd"}, "6": {"label": "d_hydrogen", "atom_type": "H0"}}

>  <type>  (1) 
r1h

$$$$

     RDKit          3D

  8  7  0  0  0  0  0  0  0  0999 V2000
    1.7077   -0.1964   -0.0607 C   0  0  0  0  0  3  0  0  0  0  0  0
    0.4209   -0.4565    0.2808 O   0  0  0  0  0  0  0  0  0  0  0  0
   -0.4607    0.4385   -0.2968 N   0  0  0  0  0  0  0  0  0  0  0  0
   -1.6584    0.1416   -0.0244 C   0  0  0  0  0  0  0  0  0  0  0  0
    2.4163   -0.7685    0.5170 H   0  0  0  0  0  0  0  0  0  0  0  0
    1.9214    0.7645   -0.5045 H   0  0  0  0  0  0  0  0  0  0  0  0
   -2.4185    0.7953   -0.4307 H   0  0  0  0  0  0  0  0  0  0  0  0
   -1.9286   -0.7185    0.5831 H   0  0  0  0  0  0  0  0  0  0  0  0
  1  2  1  0
  1  5  1  0
  1  6  1  0
  2  3  1  0
  3  4  2  3
  4  7  1  0
  4  8  1  0
M  RAD  1   1   2
M  END
>  <reaction>  (2) 
rmg_rxn_15586

>  <mol_properties>  (2) 
{"0": {"label": "acceptor", "atom_type": "Cs"}}

>  <type>  (2) 
r2

$$$$

     RDKit          3D

  9  8  0  0  0  0  0  0  0  0999 V2000
   -1.5470   -0.0755   -0.1976 C   0  0  0  0  0  0  0  0  0  0  0  0
   -0.2885    0.4507    0.1749 O   0  0  0  0  0  0  0  0  0  0  0  0
   -0.1502    1.7216   -0.3294 N   0  0  0  0  0  0  0  0  0  0  0  0
    0.9626    2.2353   -0.0219 C   0  0  0  0  0  0  0  0  0  0  0  0
   -1.6392   -0.1356   -1.2844 H   0  0  0  0  0  0  0  0  0  0  0  0
   -2.3597    0.5337    0.2044 H   0  0  0  0  0  0  0  0  0  0  0  0
   -1.5879   -1.0750    0.2318 H   0  0  0  0  0  0  0  0  0  0  0  0
    1.1497    3.2381   -0.3820 H   0  0  0  0  0  0  0  0  0  0  0  0
    1.7060    1.7101    0.5739 H   0  0  0  0  0  0  0  0  0  0  0  0
  1  2  1  0
  1  5  1  0
  1  6  1  0
  1  7  1  0
  2  3  1  0
  3  4  2  3
  4  8  1  0
  4  9  1  0
M  END
>  <reaction>  (3) 
rmg_rxn_15586

>  <mol_properties>  (3) 
{"0": {"label": "acceptor", "atom_type": "Cs"}, "8": {"label": "a_hydrogen", "atom_type": "H0"}}

>  <type>  (3) 
r2h

$$$$

     RDKit          3D

 18 16  0  0  0  0  0  0  0  0999 V2000
    1.3804   -0.5878   -0.1848 C   0  0  0  0  0  3  0  0  0  0  0  0
    1.0708   -1.0932    1.0629 O   0  0  0  0  0  0  0  0  0  0  0  0
    1.0531   -0.0898    2.0113 N   0  0  0  0  0  0  0  0  0  0  0  0
    0.6977   -0.5270    3.1421 C   0  0  0  0  0  0  0  0  0  0  0  0
    2.1262    0.2045   -0.1640 H   0  0  0  0  0  0  0  0  0  0  0  0
    1.5923   -1.4153   -0.8554 H   0  0  0  0  0  0  0  0  0  0  0  0
    0.6661    0.1933    3.9486 H   0  0  0  0  0  0  0  0  0  0  0  0
    0.4368   -1.5686    3.3140 H   0  0  0  0  0  0  0  0  0  0  0  0
   -0.9721    1.0688   -3.6073 C   0  0  0  0  0  0  0  0  0  0  0  0
   -0.9661    0.8247   -2.3166 C   0  0  0  0  0  0  0  0  0  0  0  0
   -0.8785    0.5556   -1.0705 C   0  0  0  0  0  0  0  0  0  0  0  0
   -1.7860    0.7211    0.0969 C   0  0  0  0  0  0  0  0  0  0  0  0
   -0.6270    2.0180   -3.9996 H   0  0  0  0  0  0  0  0  0  0  0  0
   -1.3401    0.3351   -4.3147 H   0  0  0  0  0  0  0  0  0  0  0  0
    0.2616    0.0085   -0.7124 H   0  0  0  0  0  0  0  0  0  0  0  0
   -1.9865   -0.2449    0.5656 H   0  0  0  0  0  0  0  0  0  0  0  0
   -2.7363    1.1670   -0.2006 H   0  0  0  0  0  0  0  0  0  0  0  0
   -1.3206    1.3556    0.8538 H   0  0  0  0  0  0  0  0  0  0  0  0
  1  2  1  0
  1  5  1  0
  1  6  1  0
  2  3  1  0
  3  4  2  3
  4  7  1  0
  4  8  1  0
  9 10  2  0
  9 13  1  0
  9 14  1  0
 10 11  2  0
 11 12  1  0
 11 15  1  0
 12 16  1  0
 12 17  1  0
 12 18  1  0
M  RAD  1   1   2
M  END
>  <reaction>  (4) 
rmg_rxn_15586

>  <mol_properties>  (4) 
{"0": {"label": "*3", "atom_type": "Cs"}, "1": {"label": "*4", "atom_type": "O2s"}, "9": {"label": "*0", "atom_type": "Cdd"}, "10": {"label": "*1", "atom_type": "Cd"}, "14": {"label": "*2", "atom_type": "H0"}}

>  <type>  (4) 
ts

$$$$

     RDKit          3D

 18 16  0  0  0  0  0  0  0  0999 V2000
    0.5847    0.8485    1.1860 C   0  0  0  0  0  0  0  0  0  0  0  0
    1.5586    0.9705    0.1964 O   0  0  0  0  0  0  0  0  0  0  0  0
    2.1562   -0.2421   -0.0878 N   0  0  0  0  0  0  0  0  0  0  0  0
    3.0425   -0.2257   -0.9837 C   0  0  0  0  0  0  0  0  0  0  0  0
    0.9229    0.2646    2.0410 H   0  0  0  0  0  0  0  0  0  0  0  0
    0.2722    1.8524    1.4527 H   0  0  0  0  0  0  0  0  0  0  0  0
    3.5163   -1.1650   -1.2079 H   0  0  0  0  0  0  0  0  0  0  0  0
    3.3480    0.6632   -1.5276 H   0  0  0  0  0  0  0  0  0  0  0  0
   -3.3071    0.9541   -0.6831 C   0  0  0  0  0  0  0  0  0  0  0  0
   -2.3834    0.1023   -0.2691 C   0  0  0  0  0  0  0  0  0  0  0  0
   -1.4041   -0.5463    0.1861 C   0  0  0  0  0  3  0  0  0  0  0  0
   -0.9345   -1.9372    0.3334 C   0  0  0  0  0  0  0  0  0  0  0  0
   -4.1305    1.2368   -0.0495 H   0  0  0  0  0  0  0  0  0  0  0  0
   -3.3030    1.3363   -1.6897 H   0  0  0  0  0  0  0  0  0  0  0  0
   -0.4386    0.2303    0.7065 H   0  0  0  0  0  0  0  0  0  0  0  0
   -0.8749   -2.2049    1.3887 H   0  0  0  0  0  0  0  0  0  0  0  0
    0.0591   -2.0456   -0.1011 H   0  0  0  0  0  0  0  0  0  0  0  0
   -1.6183   -2.6252   -0.1639 H   0  0  0  0  0  0  0  0  0  0  0  0
  1  2  1  0
  1  5  1  0
  1  6  1  0
  1 15  1  0
  2  3  1  0
  3  4  2  3
  4  7  1  0
  4  8  1  0
  9 10  2  0
  9 13  1  0
  9 14  1  0
 10 11  2  0
 11 12  1  0
 12 16  1  0
 12 17  1  0
 12 18  1  0
M  RAD  1  11   2
M  END
>  <reaction>  (5) 
rmg_rxn_15586

>  <mol_properties>  (5) 
{"0": {"label": "*3", "atom_type": "Cs"}, "1": {"label": "*4", "atom_type": "O2s"}, "9": {"label": "*0", "atom_type": "Cdd"}, "10": {"label": "*1", "atom_type": "Cd"}, "14": {"label": "*2", "atom_type": "H0"}}

>  <type>  (5) 
unop_1

>  <geom_source>  (5) 
crest_best.xyz

$$$$

     RDKit          3D

 18 16  0  0  0  0  0  0  0  0999 V2000
    0.7391   -0.9717    0.2303 C   0  0  0  0  0  3  0  0  0  0  0  0
    1.2976    0.0665    1.0111 O   0  0  0  0  0  0  0  0  0  0  0  0
    1.7363   -0.4408    2.2107 N   0  0  0  0  0  0  0  0  0  0  0  0
    2.2451    0.4523    2.9456 C   0  0  0  0  0  0  0  0  0  0  0  0
    1.4830   -1.7421    0.0151 H   0  0  0  0  0  0  0  0  0  0  0  0
   -0.1178   -1.4228    0.7355 H   0  0  0  0  0  0  0  0  0  0  0  0
    2.6157    0.1331    3.9105 H   0  0  0  0  0  0  0  0  0  0  0  0
    2.3150    1.4939    2.6393 H   0  0  0  0  0  0  0  0  0  0  0  0
   -1.3110    0.0860   -3.5917 C   0  0  0  0  0  0  0  0  0  0  0  0
   -1.3110    0.0860   -2.2915 C   0  0  0  0  0  0  0  0  0  0  0  0
   -1.3110    0.0860   -0.9914 C   0  0  0  0  0  0  0  0  0  0  0  0
   -2.4132    0.6418   -0.1356 C   0  0  0  0  0  0  0  0  0  0  0  0
   -0.8921    0.9134   -4.1529 H   0  0  0  0  0  0  0  0  0  0  0  0
   -1.7273   -0.7427   -4.1529 H   0  0  0  0  0  0  0  0  0  0  0  0
   -0.2868   -0.4424   -0.3811 H   0  0  0  0  0  0  0  0  0  0  0  0
   -2.8268   -0.1352    0.5114 H   0  0  0  0  0  0  0  0  0  0  0  0
   -3.2186    1.0480   -0.7458 H   0  0  0  0  0  0  0  0  0  0  0  0
   -2.0343    1.4363    0.5114 H   0  0  0  0  0  0  0  0  0  0  0  0
  1  2  1  0
  1  5  1  0
  1  6  1  0
  2  3  1  0
  3  4  2  3
  4  7  1  0
  4  8  1  0
  9 10  2  0
  9 13  1  0
  9 14  1  0
 10 11  2  0
 11 12  1  0
 11 15  1  0
 12 16  1  0
 12 17  1  0
 12 18  1  0
M  RAD  1   1   2
M  END
>  <reaction>  (6) 
rmg_rxn_15586

>  <mol_properties>  (6) 
{"0": {"label": "*3", "atom_type": "Cs"}, "1": {"label": "*4", "atom_type": "O2s"}, "9": {"label": "*0", "atom_type": "Cdd"}, "10": {"label": "*1", "atom_type": "Cd"}, "14": {"label": "*2", "atom_type": "H0"}}

>  <type>  (6) 
unop_2

>  <geom_source>  (6) 
Heuristics

$$$$

     RDKit          3D

 18 16  0  0  0  0  0  0  0  0999 V2000
    0.9689    0.6986   -1.1268 C   0  0  0  0  0  0  0  0  0  0  0  0
    1.9721    0.6868   -0.1566 O   0  0  0  0  0  0  0  0  0  0  0  0
    2.2537   -0.4330    0.5411 N   0  0  0  0  0  0  0  0  0  0  0  0
    1.5775   -1.4915    0.4347 C   0  0  0  0  0  0  0  0  0  0  0  0
    1.0380    1.6620   -1.6215 H   0  0  0  0  0  0  0  0  0  0  0  0
    1.0335   -0.1322   -1.8316 H   0  0  0  0  0  0  0  0  0  0  0  0
    1.9099   -2.3165    1.0403 H   0  0  0  0  0  0  0  0  0  0  0  0
    0.6992   -1.6433   -0.1879 H   0  0  0  0  0  0  0  0  0  0  0  0
   -2.4181   -1.7259   -0.2608 C   0  0  0  0  0  0  0  0  0  0  0  0
   -1.9785   -0.4966   -0.0453 C   0  0  0  0  0  0  0  0  0  0  0  0
   -1.3840    0.6104    0.0470 C   0  0  0  0  0  3  0  0  0  0  0  0
   -1.5535    1.9455    0.6488 C   0  0  0  0  0  0  0  0  0  0  0  0
   -3.0500   -1.9540   -1.1024 H   0  0  0  0  0  0  0  0  0  0  0  0
   -2.2263   -2.5181    0.4433 H   0  0  0  0  0  0  0  0  0  0  0  0
   -0.1938    0.6255   -0.5780 H   0  0  0  0  0  0  0  0  0  0  0  0
   -0.7095    2.1741    1.2998 H   0  0  0  0  0  0  0  0  0  0  0  0
   -2.4709    1.9847    1.2360 H   0  0  0  0  0  0  0  0  0  0  0  0
   -1.6014    2.7081   -0.1288 H   0  0  0  0  0  0  0  0  0  0  0  0
  1  2  1  0
  1  5  1  0
  1  6  1  0
  1 15  1  0
  2  3  1  0
  3  4  2  3
  4  7  1  0
  4  8  1  0
  9 10  2  0
  9 13  1  0
  9 14  1  0
 10 11  2  0
 11 12  1  0
 12 16  1  0
 12 17  1  0
 12 18  1  0
M  RAD  1  11   2
M  END
>  <reaction>  (7) 
rmg_rxn_15586

>  <mol_properties>  (7) 
{"0": {"label": "*3", "atom_type": "Cs"}, "1": {"label": "*4", "atom_type": "O2s"}, "9": {"label": "*0", "atom_type": "Cdd"}, "10": {"label": "*1", "atom_type": "Cd"}, "14": {"label": "*2", "atom_type": "H0"}}

>  <type>  (7) 
unop_3

>  <geom_source>  (7) 
Heuristics

$$$$

     RDKit          3D

 18 16  0  0  0  0  0  0  0  0999 V2000
    0.6796    1.6270   -0.0207 C   0  0  0  0  0  0  0  0  0  0  0  0
    1.9943    1.1286    0.0061 O   0  0  0  0  0  0  0  0  0  0  0  0
    2.0110   -0.2506   -0.0075 N   0  0  0  0  0  0  0  0  0  0  0  0
    3.1446   -0.7957    0.0178 C   0  0  0  0  0  0  0  0  0  0  0  0
    0.7504    2.7065   -0.0382 H   0  0  0  0  0  0  0  0  0  0  0  0
    0.0710    1.2290   -0.8094 H   0  0  0  0  0  0  0  0  0  0  0  0
    3.1641   -1.8715    0.0066 H   0  0  0  0  0  0  0  0  0  0  0  0
    4.0842   -0.2527    0.0491 H   0  0  0  0  0  0  0  0  0  0  0  0
   -3.4918    0.9984    0.0132 C   0  0  0  0  0  0  0  0  0  0  0  0
   -2.6018   -0.0198    0.0048 C   0  0  0  0  0  0  0  0  0  0  0  0
   -1.7983   -0.9409   -0.0026 C   0  0  0  0  0  3  0  0  0  0  0  0
   -0.8252   -2.0018   -0.0114 C   0  0  0  0  0  0  0  0  0  0  0  0
   -3.8431    1.4294   -0.9071 H   0  0  0  0  0  0  0  0  0  0  0  0
   -3.8692    1.3920    0.9399 H   0  0  0  0  0  0  0  0  0  0  0  0
    0.0454    1.2584    0.7952 H   0  0  0  0  0  0  0  0  0  0  0  0
   -0.9445   -2.6178   -0.9040 H   0  0  0  0  0  0  0  0  0  0  0  0
   -0.9399   -2.6287    0.8740 H   0  0  0  0  0  0  0  0  0  0  0  0
    0.1843   -1.5787   -0.0119 H   0  0  0  0  0  0  0  0  0  0  0  0
  1  2  1  0
  1  5  1  0
  1  6  1  0
  1 15  1  0
  2  3  1  0
  3  4  2  3
  4  7  1  0
  4  8  1  0
  9 10  2  0
  9 13  1  0
  9 14  1  0
 10 11  2  0
 11 12  1  0
 12 16  1  0
 12 17  1  0
 12 18  1  0
M  RAD  1  11   2
M  END
>  <reaction>  (8) 
rmg_rxn_15586

>  <mol_properties>  (8) 
{"0": {"label": "*3", "atom_type": "Cs"}, "1": {"label": "*4", "atom_type": "O2s"}, "9": {"label": "*0", "atom_type": "Cdd"}, "10": {"label": "*1", "atom_type": "Cd"}, "14": {"label": "*2", "atom_type": "H0"}}

>  <type>  (8) 
unop_4

>  <geom_source>  (8) 
Heuristics

$$$$

     RDKit          3D

 18 16  0  0  0  0  0  0  0  0999 V2000
    0.6774    1.6276   -0.0228 C   0  0  0  0  0  0  0  0  0  0  0  0
    1.9921    1.1289   -0.0111 O   0  0  0  0  0  0  0  0  0  0  0  0
    2.0079   -0.2502    0.0150 N   0  0  0  0  0  0  0  0  0  0  0  0
    3.1417   -0.7954    0.0262 C   0  0  0  0  0  0  0  0  0  0  0  0
    0.0486    1.2378    0.7541 H   0  0  0  0  0  0  0  0  0  0  0  0
    0.7481    2.7073   -0.0146 H   0  0  0  0  0  0  0  0  0  0  0  0
    3.1608   -1.8712    0.0472 H   0  0  0  0  0  0  0  0  0  0  0  0
    4.0819   -0.2526    0.0166 H   0  0  0  0  0  0  0  0  0  0  0  0
   -3.4852    1.0011    0.0246 C   0  0  0  0  0  0  0  0  0  0  0  0
   -2.5980   -0.0194    0.0078 C   0  0  0  0  0  0  0  0  0  0  0  0
   -1.7971   -0.9427   -0.0073 C   0  0  0  0  0  3  0  0  0  0  0  0
   -0.8254   -2.0047   -0.0249 C   0  0  0  0  0  0  0  0  0  0  0  0
   -3.8555    1.3930    0.9548 H   0  0  0  0  0  0  0  0  0  0  0  0
   -3.8408    1.4360   -0.8921 H   0  0  0  0  0  0  0  0  0  0  0  0
    0.0641    1.2509   -0.8509 H   0  0  0  0  0  0  0  0  0  0  0  0
    0.1845   -1.5827   -0.0150 H   0  0  0  0  0  0  0  0  0  0  0  0
   -0.9412   -2.6095   -0.9255 H   0  0  0  0  0  0  0  0  0  0  0  0
   -0.9449   -2.6424    0.8521 H   0  0  0  0  0  0  0  0  0  0  0  0
  1  2  1  0
  1  5  1  0
  1  6  1  0
  1 15  1  0
  2  3  1  0
  3  4  2  3
  4  7  1  0
  4  8  1  0
  9 10  2  0
  9 13  1  0
  9 14  1  0
 10 11  2  0
 11 12  1  0
 12 16  1  0
 12 17  1  0
 12 18  1  0
M  RAD  1  11   2
M  END
>  <reaction>  (9) 
rmg_rxn_15586

>  <mol_properties>  (9) 
{"0": {"label": "*3", "atom_type": "Cs"}, "1": {"label": "*4", "atom_type": "O2s"}, "9": {"label": "*0", "atom_type": "Cdd"}, "10": {"label": "*1", "atom_type": "Cd"}, "14": {"label": "*2", "atom_type": "H0"}}

>  <type>  (9) 
unop_5

>  <geom_source>  (9) 
Heuristics

$$$$

     RDKit          3D

 18 16  0  0  0  0  0  0  0  0999 V2000
    0.2734   -0.6456    1.1847 C   0  0  0  0  0  3  0  0  0  0  0  0
    1.3768   -0.4491    0.3224 O   0  0  0  0  0  0  0  0  0  0  0  0
    2.5473   -0.5887    1.0289 N   0  0  0  0  0  0  0  0  0  0  0  0
    3.5648   -0.4214    0.2986 C   0  0  0  0  0  0  0  0  0  0  0  0
    0.2868   -1.6501    1.6137 H   0  0  0  0  0  0  0  0  0  0  0  0
    0.2688    0.0943    1.9882 H   0  0  0  0  0  0  0  0  0  0  0  0
    4.5286   -0.5151    0.7810 H   0  0  0  0  0  0  0  0  0  0  0  0
    3.4935   -0.1942   -0.7629 H   0  0  0  0  0  0  0  0  0  0  0  0
   -1.7767    0.4121   -2.6372 C   0  0  0  0  0  0  0  0  0  0  0  0
   -1.7767    0.4121   -1.3371 C   0  0  0  0  0  0  0  0  0  0  0  0
   -1.7767    0.4121   -0.0370 C   0  0  0  0  0  0  0  0  0  0  0  0
   -2.8789    0.9679    0.8188 C   0  0  0  0  0  0  0  0  0  0  0  0
   -1.3579    1.2395   -3.1984 H   0  0  0  0  0  0  0  0  0  0  0  0
   -2.1931   -0.4166   -3.1984 H   0  0  0  0  0  0  0  0  0  0  0  0
   -0.7525   -0.1163    0.5733 H   0  0  0  0  0  0  0  0  0  0  0  0
   -3.2925    0.1909    1.4658 H   0  0  0  0  0  0  0  0  0  0  0  0
   -3.6844    1.3741    0.2086 H   0  0  0  0  0  0  0  0  0  0  0  0
   -2.5000    1.7624    1.4658 H   0  0  0  0  0  0  0  0  0  0  0  0
  1  2  1  0
  1  5  1  0
  1  6  1  0
  2  3  1  0
  3  4  2  3
  4  7  1  0
  4  8  1  0
  9 10  2  0
  9 13  1  0
  9 14  1  0
 10 11  2  0
 11 12  1  0
 11 15  1  0
 12 16  1  0
 12 17  1  0
 12 18  1  0
M  RAD  1   1   2
M  END
>  <reaction>  (10) 
rmg_rxn_15586

>  <mol_properties>  (10) 
{"0": {"label": "*3", "atom_type": "Cs"}, "1": {"label": "*4", "atom_type": "O2s"}, "9": {"label": "*0", "atom_type": "Cdd"}, "10": {"label": "*1", "atom_type": "Cd"}, "14": {"label": "*2", "atom_type": "H0"}}

>  <type>  (10) 
unop_6

>  <geom_source>  (10) 
Heuristics

$$$$

     RDKit          3D

 18 16  0  0  0  0  0  0  0  0999 V2000
    0.9691   -0.6791   -1.1379 C   0  0  0  0  0  0  0  0  0  0  0  0
    1.9749   -0.6764   -0.1704 O   0  0  0  0  0  0  0  0  0  0  0  0
    2.2538    0.4348    0.5418 N   0  0  0  0  0  0  0  0  0  0  0  0
    1.5738    1.4923    0.4509 C   0  0  0  0  0  0  0  0  0  0  0  0
    1.0286    0.1610   -1.8320 H   0  0  0  0  0  0  0  0  0  0  0  0
    1.0399   -1.6357   -1.6453 H   0  0  0  0  0  0  0  0  0  0  0  0
    1.9042    2.3102    1.0670 H   0  0  0  0  0  0  0  0  0  0  0  0
    0.6940    1.6495   -0.1684 H   0  0  0  0  0  0  0  0  0  0  0  0
   -2.4444    1.7072   -0.2631 C   0  0  0  0  0  0  0  0  0  0  0  0
   -1.9874    0.4847   -0.0448 C   0  0  0  0  0  0  0  0  0  0  0  0
   -1.3781   -0.6141    0.0487 C   0  0  0  0  0  3  0  0  0  0  0  0
   -1.5262   -1.9484    0.6579 C   0  0  0  0  0  0  0  0  0  0  0  0
   -2.2574    2.5056    0.4353 H   0  0  0  0  0  0  0  0  0  0  0  0
   -3.0849    1.9229   -1.1014 H   0  0  0  0  0  0  0  0  0  0  0  0
   -0.1920   -0.6171   -0.5843 H   0  0  0  0  0  0  0  0  0  0  0  0
   -1.5722   -2.7152   -0.1159 H   0  0  0  0  0  0  0  0  0  0  0  0
   -2.4373   -1.9958    1.2541 H   0  0  0  0  0  0  0  0  0  0  0  0
   -0.6734   -2.1642    1.3015 H   0  0  0  0  0  0  0  0  0  0  0  0
  1  2  1  0
  1  5  1  0
  1  6  1  0
  1 15  1  0
  2  3  1  0
  3  4  2  3
  4  7  1  0
  4  8  1  0
  9 10  2  0
  9 13  1  0
  9 14  1  0
 10 11  2  0
 11 12  1  0
 12 16  1  0
 12 17  1  0
 12 18  1  0
M  RAD  1  11   2
M  END
>  <reaction>  (11) 
rmg_rxn_15586

>  <mol_properties>  (11) 
{"0": {"label": "*3", "atom_type": "Cs"}, "1": {"label": "*4", "atom_type": "O2s"}, "9": {"label": "*0", "atom_type": "Cdd"}, "10": {"label": "*1", "atom_type": "Cd"}, "14": {"label": "*2", "atom_type": "H0"}}

>  <type>  (11) 
unop_7

>  <geom_source>  (11) 
Heuristics

$$$$

     RDKit          3D

 18 16  0  0  0  0  0  0  0  0999 V2000
    0.9112   -0.7267    0.0791 C   0  0  0  0  0  3  0  0  0  0  0  0
    1.0340   -0.0243    1.3002 O   0  0  0  0  0  0  0  0  0  0  0  0
    1.6504   -0.8226    2.2337 N   0  0  0  0  0  0  0  0  0  0  0  0
    1.7832   -0.2366    3.3453 C   0  0  0  0  0  0  0  0  0  0  0  0
    1.8925   -1.0028   -0.3133 H   0  0  0  0  0  0  0  0  0  0  0  0
    0.3024   -1.6249    0.2046 H   0  0  0  0  0  0  0  0  0  0  0  0
    2.2609   -0.7994    4.1361 H   0  0  0  0  0  0  0  0  0  0  0  0
    1.4402    0.7817    3.5158 H   0  0  0  0  0  0  0  0  0  0  0  0
   -1.1389    0.3310   -3.7429 C   0  0  0  0  0  0  0  0  0  0  0  0
   -1.1389    0.3310   -2.4427 C   0  0  0  0  0  0  0  0  0  0  0  0
   -1.1389    0.3310   -1.1426 C   0  0  0  0  0  0  0  0  0  0  0  0
   -2.2411    0.8869   -0.2868 C   0  0  0  0  0  0  0  0  0  0  0  0
   -0.7201    1.1585   -4.3041 H   0  0  0  0  0  0  0  0  0  0  0  0
   -1.5553   -0.4977   -4.3041 H   0  0  0  0  0  0  0  0  0  0  0  0
   -0.1148   -0.1974   -0.5323 H   0  0  0  0  0  0  0  0  0  0  0  0
   -2.6547    0.1099    0.3602 H   0  0  0  0  0  0  0  0  0  0  0  0
   -3.0466    1.2930   -0.8971 H   0  0  0  0  0  0  0  0  0  0  0  0
   -1.8622    1.6813    0.3602 H   0  0  0  0  0  0  0  0  0  0  0  0
  1  2  1  0
  1  5  1  0
  1  6  1  0
  2  3  1  0
  3  4  2  3
  4  7  1  0
  4  8  1  0
  9 10  2  0
  9 13  1  0
  9 14  1  0
 10 11  2  0
 11 12  1  0
 11 15  1  0
 12 16  1  0
 12 17  1  0
 12 18  1  0
M  RAD  1   1   2
M  END
>  <reaction>  (12) 
rmg_rxn_15586

>  <mol_properties>  (12) 
{"0": {"label": "*3", "atom_type": "Cs"}, "1": {"label": "*4", "atom_type": "O2s"}, "9": {"label": "*0", "atom_type": "Cdd"}, "10": {"label": "*1", "atom_type": "Cd"}, "14": {"label": "*2", "atom_type": "H0"}}

>  <type>  (12) 
unop_8

>  <geom_source>  (12) 
Heuristics

$$$$

     RDKit          3D

 18 16  0  0  0  0  0  0  0  0999 V2000
    0.9819    0.2999    0.8836 C   0  0  0  0  0  3  0  0  0  0  0  0
    1.0256   -1.0490    0.4616 O   0  0  0  0  0  0  0  0  0  0  0  0
    1.5242   -1.8347    1.4730 N   0  0  0  0  0  0  0  0  0  0  0  0
    1.5826   -3.0529    1.1421 C   0  0  0  0  0  0  0  0  0  0  0  0
    0.3281    0.4170    1.7508 H   0  0  0  0  0  0  0  0  0  0  0  0
    1.9818    0.6653    1.1284 H   0  0  0  0  0  0  0  0  0  0  0  0
    1.9654   -3.7393    1.8855 H   0  0  0  0  0  0  0  0  0  0  0  0
    1.2681   -3.4103    0.1640 H   0  0  0  0  0  0  0  0  0  0  0  0
   -1.0682    1.3576   -2.9383 C   0  0  0  0  0  0  0  0  0  0  0  0
   -1.0682    1.3576   -1.6381 C   0  0  0  0  0  0  0  0  0  0  0  0
   -1.0682    1.3576   -0.3381 C   0  0  0  0  0  0  0  0  0  0  0  0
   -2.1705    1.9135    0.5177 C   0  0  0  0  0  0  0  0  0  0  0  0
   -0.6494    2.1851   -3.4995 H   0  0  0  0  0  0  0  0  0  0  0  0
   -1.4846    0.5289   -3.4995 H   0  0  0  0  0  0  0  0  0  0  0  0
   -0.0441    0.8293    0.2722 H   0  0  0  0  0  0  0  0  0  0  0  0
   -2.5840    1.1365    1.1647 H   0  0  0  0  0  0  0  0  0  0  0  0
   -2.9759    2.3197   -0.0925 H   0  0  0  0  0  0  0  0  0  0  0  0
   -1.7916    2.7079    1.1647 H   0  0  0  0  0  0  0  0  0  0  0  0
  1  2  1  0
  1  5  1  0
  1  6  1  0
  2  3  1  0
  3  4  2  3
  4  7  1  0
  4  8  1  0
  9 10  2  0
  9 13  1  0
  9 14  1  0
 10 11  2  0
 11 12  1  0
 11 15  1  0
 12 16  1  0
 12 17  1  0
 12 18  1  0
M  RAD  1   1   2
M  END
>  <reaction>  (13) 
rmg_rxn_15586

>  <mol_properties>  (13) 
{"0": {"label": "*3", "atom_type": "Cs"}, "1": {"label": "*4", "atom_type": "O2s"}, "9": {"label": "*0", "atom_type": "Cdd"}, "10": {"label": "*1", "atom_type": "Cd"}, "14": {"label": "*2", "atom_type": "H0"}}

>  <type>  (13) 
unop_9

>  <geom_source>  (13) 
Heuristics

$$$$

     RDKit          3D

 18 16  0  0  0  0  0  0  0  0999 V2000
    0.6776   -1.6266    0.0486 C   0  0  0  0  0  0  0  0  0  0  0  0
    1.9920   -1.1288    0.0068 O   0  0  0  0  0  0  0  0  0  0  0  0
    2.0085    0.2503   -0.0114 N   0  0  0  0  0  0  0  0  0  0  0  0
    3.1419    0.7950   -0.0512 C   0  0  0  0  0  0  0  0  0  0  0  0
    0.7475   -2.7054    0.0898 H   0  0  0  0  0  0  0  0  0  0  0  0
    0.0688   -1.2092    0.8263 H   0  0  0  0  0  0  0  0  0  0  0  0
    3.1606    1.8709   -0.0652 H   0  0  0  0  0  0  0  0  0  0  0  0
    4.0818    0.2520   -0.0719 H   0  0  0  0  0  0  0  0  0  0  0  0
   -3.4867   -0.9998   -0.0439 C   0  0  0  0  0  0  0  0  0  0  0  0
   -2.5990    0.0201   -0.0128 C   0  0  0  0  0  0  0  0  0  0  0  0
   -1.7963    0.9416    0.0138 C   0  0  0  0  0  3  0  0  0  0  0  0
   -0.8240    2.0028    0.0447 C   0  0  0  0  0  0  0  0  0  0  0  0
   -3.7220   -1.5519    0.8482 H   0  0  0  0  0  0  0  0  0  0  0  0
   -3.9787   -1.2730   -0.9601 H   0  0  0  0  0  0  0  0  0  0  0  0
    0.0384   -1.2740   -0.7694 H   0  0  0  0  0  0  0  0  0  0  0  0
    0.1856    1.5813    0.0114 H   0  0  0  0  0  0  0  0  0  0  0  0
   -0.9259    2.5828    0.9635 H   0  0  0  0  0  0  0  0  0  0  0  0
   -0.9571    2.6644   -0.8121 H   0  0  0  0  0  0  0  0  0  0  0  0
  1  2  1  0
  1  5  1  0
  1  6  1  0
  1 15  1  0
  2  3  1  0
  3  4  2  3
  4  7  1  0
  4  8  1  0
  9 10  2  0
  9 13  1  0
  9 14  1  0
 10 11  2  0
 11 12  1  0
 12 16  1  0
 12 17  1  0
 12 18  1  0
M  RAD  1  11   2
M  END
>  <reaction>  (14) 
rmg_rxn_15586

>  <mol_properties>  (14) 
{"0": {"label": "*3", "atom_type": "Cs"}, "1": {"label": "*4", "atom_type": "O2s"}, "9": {"label": "*0", "atom_type": "Cdd"}, "10": {"label": "*1", "atom_type": "Cd"}, "14": {"label": "*2", "atom_type": "H0"}}

>  <type>  (14) 
unop_10

>  <geom_source>  (14) 
Heuristics

$$$$

     RDKit          3D

 18 16  0  0  0  0  0  0  0  0999 V2000
    0.9955   -0.5118    0.0528 C   0  0  0  0  0  3  0  0  0  0  0  0
    0.7304   -0.3750    1.4350 O   0  0  0  0  0  0  0  0  0  0  0  0
    1.7677   -0.9102    2.1606 N   0  0  0  0  0  0  0  0  0  0  0  0
    1.5760   -0.8113    3.4057 C   0  0  0  0  0  0  0  0  0  0  0  0
    1.9074    0.0216   -0.2248 H   0  0  0  0  0  0  0  0  0  0  0  0
    1.0893   -1.5641   -0.2248 H   0  0  0  0  0  0  0  0  0  0  0  0
    2.3493   -1.2102    4.0485 H   0  0  0  0  0  0  0  0  0  0  0  0
    0.6845   -0.3514    3.8268 H   0  0  0  0  0  0  0  0  0  0  0  0
   -1.0546    0.5459   -3.7692 C   0  0  0  0  0  0  0  0  0  0  0  0
   -1.0546    0.5459   -2.4690 C   0  0  0  0  0  0  0  0  0  0  0  0
   -1.0546    0.5459   -1.1690 C   0  0  0  0  0  0  0  0  0  0  0  0
   -2.1569    1.1018   -0.3131 C   0  0  0  0  0  0  0  0  0  0  0  0
   -0.6358    1.3734   -4.3304 H   0  0  0  0  0  0  0  0  0  0  0  0
   -1.4710   -0.2828   -4.3304 H   0  0  0  0  0  0  0  0  0  0  0  0
   -0.0305    0.0175   -0.5586 H   0  0  0  0  0  0  0  0  0  0  0  0
   -2.5704    0.3248    0.3338 H   0  0  0  0  0  0  0  0  0  0  0  0
   -2.9623    1.5080   -0.9234 H   0  0  0  0  0  0  0  0  0  0  0  0
   -1.7780    1.8962    0.3338 H   0  0  0  0  0  0  0  0  0  0  0  0
  1  2  1  0
  1  5  1  0
  1  6  1  0
  2  3  1  0
  3  4  2  3
  4  7  1  0
  4  8  1  0
  9 10  2  0
  9 13  1  0
  9 14  1  0
 10 11  2  0
 11 12  1  0
 11 15  1  0
 12 16  1  0
 12 17  1  0
 12 18  1  0
M  RAD  1   1   2
M  END
>  <reaction>  (15) 
rmg_rxn_15586

>  <mol_properties>  (15) 
{"0": {"label": "*3", "atom_type": "Cs"}, "1": {"label": "*4", "atom_type": "O2s"}, "9": {"label": "*0", "atom_type": "Cdd"}, "10": {"label": "*1", "atom_type": "Cd"}, "14": {"label": "*2", "atom_type": "H0"}}

>  <type>  (15) 
unop_11

>  <geom_source>  (15) 
Heuristics

$$$$

     RDKit          3D

 18 16  0  0  0  0  0  0  0  0999 V2000
    0.9683   -0.6976    1.1267 C   0  0  0  0  0  0  0  0  0  0  0  0
    1.9722   -0.6871    0.1573 O   0  0  0  0  0  0  0  0  0  0  0  0
    2.2554    0.4321   -0.5405 N   0  0  0  0  0  0  0  0  0  0  0  0
    1.5798    1.4911   -0.4354 C   0  0  0  0  0  0  0  0  0  0  0  0
    1.0366   -1.6607    1.6223 H   0  0  0  0  0  0  0  0  0  0  0  0
    1.0328    0.1337    1.8310 H   0  0  0  0  0  0  0  0  0  0  0  0
    1.9136    2.3157   -1.0409 H   0  0  0  0  0  0  0  0  0  0  0  0
    0.7010    1.6438    0.1863 H   0  0  0  0  0  0  0  0  0  0  0  0
   -2.4195    1.7258    0.2606 C   0  0  0  0  0  0  0  0  0  0  0  0
   -1.9798    0.4965    0.0455 C   0  0  0  0  0  0  0  0  0  0  0  0
   -1.3844   -0.6099   -0.0476 C   0  0  0  0  0  3  0  0  0  0  0  0
   -1.5540   -1.9452   -0.6489 C   0  0  0  0  0  0  0  0  0  0  0  0
   -3.0515    1.9539    1.1021 H   0  0  0  0  0  0  0  0  0  0  0  0
   -2.2285    2.5178   -0.4440 H   0  0  0  0  0  0  0  0  0  0  0  0
   -0.1942   -0.6247    0.5774 H   0  0  0  0  0  0  0  0  0  0  0  0
   -1.6087   -2.7066    0.1296 H   0  0  0  0  0  0  0  0  0  0  0  0
   -0.7067   -2.1773   -1.2944 H   0  0  0  0  0  0  0  0  0  0  0  0
   -2.4680   -1.9827   -1.2415 H   0  0  0  0  0  0  0  0  0  0  0  0
  1  2  1  0
  1  5  1  0
  1  6  1  0
  1 15  1  0
  2  3  1  0
  3  4  2  3
  4  7  1  0
  4  8  1  0
  9 10  2  0
  9 13  1  0
  9 14  1  0
 10 11  2  0
 11 12  1  0
 12 16  1  0
 12 17  1  0
 12 18  1  0
M  RAD  1  11   2
M  END
>  <reaction>  (16) 
rmg_rxn_15586

>  <mol_properties>  (16) 
{"0": {"label": "*3", "atom_type": "Cs"}, "1": {"label": "*4", "atom_type": "O2s"}, "9": {"label": "*0", "atom_type": "Cdd"}, "10": {"label": "*1", "atom_type": "Cd"}, "14": {"label": "*2", "atom_type": "H0"}}

>  <type>  (16) 
unop_12

>  <geom_source>  (16) 
Heuristics

$$$$

     RDKit          3D

 18 16  0  0  0  0  0  0  0  0999 V2000
    0.9687   -0.6615   -1.1476 C   0  0  0  0  0  0  0  0  0  0  0  0
    1.9778   -0.6673   -0.1835 O   0  0  0  0  0  0  0  0  0  0  0  0
    2.2544    0.4358    0.5422 N   0  0  0  0  0  0  0  0  0  0  0  0
    1.5701    1.4917    0.4666 C   0  0  0  0  0  0  0  0  0  0  0  0
    1.0231    0.1872   -1.8317 H   0  0  0  0  0  0  0  0  0  0  0  0
    1.0410   -1.6116   -1.6669 H   0  0  0  0  0  0  0  0  0  0  0  0
    1.8994    2.3032    1.0919 H   0  0  0  0  0  0  0  0  0  0  0  0
    0.6885    1.6538   -0.1488 H   0  0  0  0  0  0  0  0  0  0  0  0
   -2.4665    1.6909   -0.2654 C   0  0  0  0  0  0  0  0  0  0  0  0
   -1.9946    0.4746   -0.0447 C   0  0  0  0  0  0  0  0  0  0  0  0
   -1.3732   -0.6173    0.0500 C   0  0  0  0  0  3  0  0  0  0  0  0
   -1.5033   -1.9502    0.6662 C   0  0  0  0  0  0  0  0  0  0  0  0
   -2.2855    2.4940    0.4292 H   0  0  0  0  0  0  0  0  0  0  0  0
   -3.1140    1.8960   -1.1010 H   0  0  0  0  0  0  0  0  0  0  0  0
   -0.1906   -0.6103   -0.5893 H   0  0  0  0  0  0  0  0  0  0  0  0
   -1.5440   -2.7210   -0.1038 H   0  0  0  0  0  0  0  0  0  0  0  0
   -2.4114   -2.0053    1.2664 H   0  0  0  0  0  0  0  0  0  0  0  0
   -0.6452   -2.1532    1.3073 H   0  0  0  0  0  0  0  0  0  0  0  0
  1  2  1  0
  1  5  1  0
  1  6  1  0
  1 15  1  0
  2  3  1  0
  3  4  2  3
  4  7  1  0
  4  8  1  0
  9 10  2  0
  9 13  1  0
  9 14  1  0
 10 11  2  0
 11 12  1  0
 12 16  1  0
 12 17  1  0
 12 18  1  0
M  RAD  1  11   2
M  END
>  <reaction>  (17) 
rmg_rxn_15586

>  <mol_properties>  (17) 
{"0": {"label": "*3", "atom_type": "Cs"}, "1": {"label": "*4", "atom_type": "O2s"}, "9": {"label": "*0", "atom_type": "Cdd"}, "10": {"label": "*1", "atom_type": "Cd"}, "14": {"label": "*2", "atom_type": "H0"}}

>  <type>  (17) 
unop_13

>  <geom_source>  (17) 
Heuristics

$$$$

     RDKit          3D

 18 16  0  0  0  0  0  0  0  0999 V2000
    1.1786    0.2133    0.5251 C   0  0  0  0  0  3  0  0  0  0  0  0
    0.8556   -1.1516    0.7045 O   0  0  0  0  0  0  0  0  0  0  0  0
    1.3062   -1.5768    1.9313 N   0  0  0  0  0  0  0  0  0  0  0  0
    1.0401   -2.7946    2.1382 C   0  0  0  0  0  0  0  0  0  0  0  0
    0.7013    0.8314    1.2889 H   0  0  0  0  0  0  0  0  0  0  0  0
    2.2597    0.3662    0.5551 H   0  0  0  0  0  0  0  0  0  0  0  0
    1.3626   -3.2073    3.0847 H   0  0  0  0  0  0  0  0  0  0  0  0
    0.5143   -3.4112    1.4123 H   0  0  0  0  0  0  0  0  0  0  0  0
   -0.8716    1.2710   -3.2968 C   0  0  0  0  0  0  0  0  0  0  0  0
   -0.8716    1.2710   -1.9967 C   0  0  0  0  0  0  0  0  0  0  0  0
   -0.8716    1.2710   -0.6966 C   0  0  0  0  0  0  0  0  0  0  0  0
   -1.9738    1.8269    0.1592 C   0  0  0  0  0  0  0  0  0  0  0  0
   -0.4527    2.0985   -3.8580 H   0  0  0  0  0  0  0  0  0  0  0  0
   -1.2879    0.4423   -3.8580 H   0  0  0  0  0  0  0  0  0  0  0  0
    0.1526    0.7426   -0.0863 H   0  0  0  0  0  0  0  0  0  0  0  0
   -2.3873    1.0499    0.8062 H   0  0  0  0  0  0  0  0  0  0  0  0
   -2.7792    2.2331   -0.4510 H   0  0  0  0  0  0  0  0  0  0  0  0
   -1.5949    2.6213    0.8062 H   0  0  0  0  0  0  0  0  0  0  0  0
  1  2  1  0
  1  5  1  0
  1  6  1  0
  2  3  1  0
  3  4  2  3
  4  7  1  0
  4  8  1  0
  9 10  2  0
  9 13  1  0
  9 14  1  0
 10 11  2  0
 11 12  1  0
 11 15  1  0
 12 16  1  0
 12 17  1  0
 12 18  1  0
M  RAD  1   1   2
M  END
>  <reaction>  (18) 
rmg_rxn_15586

>  <mol_properties>  (18) 
{"0": {"label": "*3", "atom_type": "Cs"}, "1": {"label": "*4", "atom_type": "O2s"}, "9": {"label": "*0", "atom_type": "Cdd"}, "10": {"label": "*1", "atom_type": "Cd"}, "14": {"label": "*2", "atom_type": "H0"}}

>  <type>  (18) 
unop_14

>  <geom_source>  (18) 
Heuristics

$$$$

     RDKit          3D

 18 16  0  0  0  0  0  0  0  0999 V2000
    0.5847   -0.8454   -1.1872 C   0  0  0  0  0  0  0  0  0  0  0  0
    1.5591   -0.9697   -0.1984 O   0  0  0  0  0  0  0  0  0  0  0  0
    2.1562    0.2423    0.0891 N   0  0  0  0  0  0  0  0  0  0  0  0
    3.0439    0.2234    0.9836 C   0  0  0  0  0  0  0  0  0  0  0  0
    0.9225   -0.2597   -2.0411 H   0  0  0  0  0  0  0  0  0  0  0  0
    0.2720   -1.8487   -1.4559 H   0  0  0  0  0  0  0  0  0  0  0  0
    3.5173    1.1623    1.2105 H   0  0  0  0  0  0  0  0  0  0  0  0
    3.3512   -0.6672    1.5235 H   0  0  0  0  0  0  0  0  0  0  0  0
   -3.3062   -0.9568    0.6822 C   0  0  0  0  0  0  0  0  0  0  0  0
   -2.3833   -0.1035    0.2695 C   0  0  0  0  0  0  0  0  0  0  0  0
   -1.4049    0.5468   -0.1849 C   0  0  0  0  0  3  0  0  0  0  0  0
   -0.9368    1.9383   -0.3315 C   0  0  0  0  0  0  0  0  0  0  0  0
   -4.1290   -1.2401    0.0479 H   0  0  0  0  0  0  0  0  0  0  0  0
   -3.3019   -1.3401    1.6884 H   0  0  0  0  0  0  0  0  0  0  0  0
   -0.4384   -0.2284   -0.7059 H   0  0  0  0  0  0  0  0  0  0  0  0
   -1.6209    2.6253    0.1667 H   0  0  0  0  0  0  0  0  0  0  0  0
   -0.8779    2.2069   -1.3866 H   0  0  0  0  0  0  0  0  0  0  0  0
    0.0569    2.0473    0.1027 H   0  0  0  0  0  0  0  0  0  0  0  0
  1  2  1  0
  1  5  1  0
  1  6  1  0
  1 15  1  0
  2  3  1  0
  3  4  2  3
  4  7  1  0
  4  8  1  0
  9 10  2  0
  9 13  1  0
  9 14  1  0
 10 11  2  0
 11 12  1  0
 12 16  1  0
 12 17  1  0
 12 18  1  0
M  RAD  1  11   2
M  END
>  <reaction>  (19) 
rmg_rxn_15586

>  <mol_properties>  (19) 
{"0": {"label": "*3", "atom_type": "Cs"}, "1": {"label": "*4", "atom_type": "O2s"}, "9": {"label": "*0", "atom_type": "Cdd"}, "10": {"label": "*1", "atom_type": "Cd"}, "14": {"label": "*2", "atom_type": "H0"}}

>  <type>  (19) 
unop_15

>  <geom_source>  (19) 
Heuristics

$$$$

     RDKit          3D

 18 16  0  0  0  0  0  0  0  0999 V2000
    1.2217   -0.0363    0.2303 C   0  0  0  0  0  3  0  0  0  0  0  0
    0.6993   -1.0932    1.0111 O   0  0  0  0  0  0  0  0  0  0  0  0
    1.3669   -1.1566    2.2107 N   0  0  0  0  0  0  0  0  0  0  0  0
    0.9340   -2.0889    2.9456 C   0  0  0  0  0  0  0  0  0  0  0  0
    1.0927    0.9235    0.7355 H   0  0  0  0  0  0  0  0  0  0  0  0
    2.2807   -0.1960    0.0151 H   0  0  0  0  0  0  0  0  0  0  0  0
    1.4089   -2.2059    3.9106 H   0  0  0  0  0  0  0  0  0  0  0  0
    0.1258   -2.7495    2.6393 H   0  0  0  0  0  0  0  0  0  0  0  0
   -0.8284    1.0214   -3.5917 C   0  0  0  0  0  0  0  0  0  0  0  0
   -0.8284    1.0214   -2.2915 C   0  0  0  0  0  0  0  0  0  0  0  0
   -0.8284    1.0214   -0.9914 C   0  0  0  0  0  0  0  0  0  0  0  0
   -1.9306    1.5772   -0.1356 C   0  0  0  0  0  0  0  0  0  0  0  0
   -0.4095    1.8488   -4.1529 H   0  0  0  0  0  0  0  0  0  0  0  0
   -1.2447    0.1927   -4.1529 H   0  0  0  0  0  0  0  0  0  0  0  0
    0.1958    0.4930   -0.3811 H   0  0  0  0  0  0  0  0  0  0  0  0
   -2.3442    0.8002    0.5114 H   0  0  0  0  0  0  0  0  0  0  0  0
   -2.7361    1.9834   -0.7458 H   0  0  0  0  0  0  0  0  0  0  0  0
   -1.5517    2.3717    0.5114 H   0  0  0  0  0  0  0  0  0  0  0  0
  1  2  1  0
  1  5  1  0
  1  6  1  0
  2  3  1  0
  3  4  2  3
  4  7  1  0
  4  8  1  0
  9 10  2  0
  9 13  1  0
  9 14  1  0
 10 11  2  0
 11 12  1  0
 11 15  1  0
 12 16  1  0
 12 17  1  0
 12 18  1  0
M  RAD  1   1   2
M  END
>  <reaction>  (20) 
rmg_rxn_15586

>  <mol_properties>  (20) 
{"0": {"label": "*3", "atom_type": "Cs"}, "1": {"label": "*4", "atom_type": "O2s"}, "9": {"label": "*0", "atom_type": "Cdd"}, "10": {"label": "*1", "atom_type": "Cd"}, "14": {"label": "*2", "atom_type": "H0"}}

>  <type>  (20) 
unop_16

>  <geom_source>  (20) 
Heuristics

$$$$

     RDKit          3D

 18 16  0  0  0  0  0  0  0  0999 V2000
    0.9686   -0.6741    1.1404 C   0  0  0  0  0  0  0  0  0  0  0  0
    1.9757   -0.6744    0.1742 O   0  0  0  0  0  0  0  0  0  0  0  0
    2.2547    0.4346   -0.5417 N   0  0  0  0  0  0  0  0  0  0  0  0
    1.5738    1.4918   -0.4554 C   0  0  0  0  0  0  0  0  0  0  0  0
    1.0395   -1.6289    1.6513 H   0  0  0  0  0  0  0  0  0  0  0  0
    1.0268    0.1685    1.8316 H   0  0  0  0  0  0  0  0  0  0  0  0
    1.9047    2.3079   -1.0738 H   0  0  0  0  0  0  0  0  0  0  0  0
    0.6933    1.6508    0.1623 H   0  0  0  0  0  0  0  0  0  0  0  0
   -2.4503    1.7032    0.2638 C   0  0  0  0  0  0  0  0  0  0  0  0
   -1.9895    0.4823    0.0447 C   0  0  0  0  0  0  0  0  0  0  0  0
   -1.3771   -0.6147   -0.0493 C   0  0  0  0  0  3  0  0  0  0  0  0
   -1.5209   -1.9488   -0.6600 C   0  0  0  0  0  0  0  0  0  0  0  0
   -3.0925    1.9161    1.1015 H   0  0  0  0  0  0  0  0  0  0  0  0
   -2.2657    2.5026   -0.4341 H   0  0  0  0  0  0  0  0  0  0  0  0
   -0.1918   -0.6153    0.5852 H   0  0  0  0  0  0  0  0  0  0  0  0
   -0.6656   -2.1627   -1.3013 H   0  0  0  0  0  0  0  0  0  0  0  0
   -2.4302   -1.9973   -1.2590 H   0  0  0  0  0  0  0  0  0  0  0  0
   -1.5682   -2.7160    0.1132 H   0  0  0  0  0  0  0  0  0  0  0  0
  1  2  1  0
  1  5  1  0
  1  6  1  0
  1 15  1  0
  2  3  1  0
  3  4  2  3
  4  7  1  0
  4  8  1  0
  9 10  2  0
  9 13  1  0
  9 14  1  0
 10 11  2  0
 11 12  1  0
 12 16  1  0
 12 17  1  0
 12 18  1  0
M  RAD  1  11   2
M  END
>  <reaction>  (21) 
rmg_rxn_15586

>  <mol_properties>  (21) 
{"0": {"label": "*3", "atom_type": "Cs"}, "1": {"label": "*4", "atom_type": "O2s"}, "9": {"label": "*0", "atom_type": "Cdd"}, "10": {"label": "*1", "atom_type": "Cd"}, "14": {"label": "*2", "atom_type": "H0"}}

>  <type>  (21) 
unop_17

>  <geom_source>  (21) 
Heuristics

$$$$

     RDKit          3D

 18 16  0  0  0  0  0  0  0  0999 V2000
    0.5107   -1.0812    0.5251 C   0  0  0  0  0  3  0  0  0  0  0  0
    1.4358   -0.0269    0.7045 O   0  0  0  0  0  0  0  0  0  0  0  0
    2.0435   -0.1478    1.9313 N   0  0  0  0  0  0  0  0  0  0  0  0
    2.8817    0.7749    2.1382 C   0  0  0  0  0  0  0  0  0  0  0  0
    1.0127   -2.0509    0.5551 H   0  0  0  0  0  0  0  0  0  0  0  0
   -0.2697   -1.0505    1.2889 H   0  0  0  0  0  0  0  0  0  0  0  0
    3.4050    0.7512    3.0847 H   0  0  0  0  0  0  0  0  0  0  0  0
    3.0794    1.5608    1.4124 H   0  0  0  0  0  0  0  0  0  0  0  0
   -1.5394   -0.0235   -3.2968 C   0  0  0  0  0  0  0  0  0  0  0  0
   -1.5394   -0.0235   -1.9967 C   0  0  0  0  0  0  0  0  0  0  0  0
   -1.5394   -0.0235   -0.6966 C   0  0  0  0  0  0  0  0  0  0  0  0
   -2.6417    0.5323    0.1592 C   0  0  0  0  0  0  0  0  0  0  0  0
   -1.1206    0.8039   -3.8580 H   0  0  0  0  0  0  0  0  0  0  0  0
   -1.9558   -0.8522   -3.8580 H   0  0  0  0  0  0  0  0  0  0  0  0
   -0.5153   -0.5519   -0.0863 H   0  0  0  0  0  0  0  0  0  0  0  0
   -3.0552   -0.2447    0.8062 H   0  0  0  0  0  0  0  0  0  0  0  0
   -3.4471    0.9385   -0.4510 H   0  0  0  0  0  0  0  0  0  0  0  0
   -2.2628    1.3268    0.8062 H   0  0  0  0  0  0  0  0  0  0  0  0
  1  2  1  0
  1  5  1  0
  1  6  1  0
  2  3  1  0
  3  4  2  3
  4  7  1  0
  4  8  1  0
  9 10  2  0
  9 13  1  0
  9 14  1  0
 10 11  2  0
 11 12  1  0
 11 15  1  0
 12 16  1  0
 12 17  1  0
 12 18  1  0
M  RAD  1   1   2
M  END
>  <reaction>  (22) 
rmg_rxn_15586

>  <mol_properties>  (22) 
{"0": {"label": "*3", "atom_type": "Cs"}, "1": {"label": "*4", "atom_type": "O2s"}, "9": {"label": "*0", "atom_type": "Cdd"}, "10": {"label": "*1", "atom_type": "Cd"}, "14": {"label": "*2", "atom_type": "H0"}}

>  <type>  (22) 
unop_18

>  <geom_source>  (22) 
Heuristics

$$$$

     RDKit          3D

 18 16  0  0  0  0  0  0  0  0999 V2000
    0.5847    0.8485    1.1860 C   0  0  0  0  0  0  0  0  0  0  0  0
    1.5586    0.9705    0.1964 O   0  0  0  0  0  0  0  0  0  0  0  0
    2.1562   -0.2421   -0.0878 N   0  0  0  0  0  0  0  0  0  0  0  0
    3.0425   -0.2257   -0.9837 C   0  0  0  0  0  0  0  0  0  0  0  0
    0.9229    0.2646    2.0410 H   0  0  0  0  0  0  0  0  0  0  0  0
    0.2722    1.8524    1.4527 H   0  0  0  0  0  0  0  0  0  0  0  0
    3.5163   -1.1650   -1.2079 H   0  0  0  0  0  0  0  0  0  0  0  0
    3.3480    0.6632   -1.5276 H   0  0  0  0  0  0  0  0  0  0  0  0
   -3.3071    0.9541   -0.6831 C   0  0  0  0  0  0  0  0  0  0  0  0
   -2.3834    0.1023   -0.2691 C   0  0  0  0  0  0  0  0  0  0  0  0
   -1.4041   -0.5463    0.1861 C   0  0  0  0  0  3  0  0  0  0  0  0
   -0.9345   -1.9372    0.3334 C   0  0  0  0  0  0  0  0  0  0  0  0
   -4.1305    1.2368   -0.0495 H   0  0  0  0  0  0  0  0  0  0  0  0
   -3.3030    1.3363   -1.6897 H   0  0  0  0  0  0  0  0  0  0  0  0
   -0.4386    0.2303    0.7065 H   0  0  0  0  0  0  0  0  0  0  0  0
   -0.8749   -2.2049    1.3887 H   0  0  0  0  0  0  0  0  0  0  0  0
    0.0591   -2.0456   -0.1011 H   0  0  0  0  0  0  0  0  0  0  0  0
   -1.6183   -2.6252   -0.1639 H   0  0  0  0  0  0  0  0  0  0  0  0
  1  2  1  0
  1  5  1  0
  1  6  1  0
  1 15  1  0
  2  3  1  0
  3  4  2  3
  4  7  1  0
  4  8  1  0
  9 10  2  0
  9 13  1  0
  9 14  1  0
 10 11  2  0
 11 12  1  0
 12 16  1  0
 12 17  1  0
 12 18  1  0
M  RAD  1  11   2
M  END
>  <reaction>  (23) 
rmg_rxn_15586

>  <mol_properties>  (23) 
{"0": {"label": "*3", "atom_type": "Cs"}, "1": {"label": "*4", "atom_type": "O2s"}, "9": {"label": "*0", "atom_type": "Cdd"}, "10": {"label": "*1", "atom_type": "Cd"}, "14": {"label": "*2", "atom_type": "H0"}}

>  <type>  (23) 
unop_19

>  <geom_source>  (23) 
Heuristics

$$$$

     RDKit          3D

 18 16  0  0  0  0  0  0  0  0999 V2000
    0.6861    0.1542    1.1847 C   0  0  0  0  0  3  0  0  0  0  0  0
    1.1654   -0.8589    0.3224 O   0  0  0  0  0  0  0  0  0  0  0  0
    1.9575   -1.7318    1.0290 N   0  0  0  0  0  0  0  0  0  0  0  0
    2.4109   -2.6580    0.2986 C   0  0  0  0  0  0  0  0  0  0  0  0
    0.0804   -0.2709    1.9882 H   0  0  0  0  0  0  0  0  0  0  0  0
    1.5124    0.7254    1.6137 H   0  0  0  0  0  0  0  0  0  0  0  0
    3.0458   -3.3891    0.7810 H   0  0  0  0  0  0  0  0  0  0  0  0
    2.1845   -2.7315   -0.7629 H   0  0  0  0  0  0  0  0  0  0  0  0
   -1.3640    1.2119   -2.6372 C   0  0  0  0  0  0  0  0  0  0  0  0
   -1.3640    1.2119   -1.3371 C   0  0  0  0  0  0  0  0  0  0  0  0
   -1.3640    1.2119   -0.0370 C   0  0  0  0  0  0  0  0  0  0  0  0
   -2.4663    1.7678    0.8188 C   0  0  0  0  0  0  0  0  0  0  0  0
   -0.9452    2.0394   -3.1984 H   0  0  0  0  0  0  0  0  0  0  0  0
   -1.7804    0.3832   -3.1984 H   0  0  0  0  0  0  0  0  0  0  0  0
   -0.3399    0.6835    0.5733 H   0  0  0  0  0  0  0  0  0  0  0  0
   -2.8798    0.9908    1.4658 H   0  0  0  0  0  0  0  0  0  0  0  0
   -3.2717    2.1740    0.2086 H   0  0  0  0  0  0  0  0  0  0  0  0
   -2.0873    2.5622    1.4658 H   0  0  0  0  0  0  0  0  0  0  0  0
  1  2  1  0
  1  5  1  0
  1  6  1  0
  2  3  1  0
  3  4  2  3
  4  7  1  0
  4  8  1  0
  9 10  2  0
  9 13  1  0
  9 14  1  0
 10 11  2  0
 11 12  1  0
 11 15  1  0
 12 16  1  0
 12 17  1  0
 12 18  1  0
M  RAD  1   1   2
M  END
>  <reaction>  (24) 
rmg_rxn_15586

>  <mol_properties>  (24) 
{"0": {"label": "*3", "atom_type": "Cs"}, "1": {"label": "*4", "atom_type": "O2s"}, "9": {"label": "*0", "atom_type": "Cdd"}, "10": {"label": "*1", "atom_type": "Cd"}, "14": {"label": "*2", "atom_type": "H0"}}

>  <type>  (24) 
unop_20

>  <geom_source>  (24) 
Heuristics

$$$$

     RDKit          3D

 18 16  0  0  0  0  0  0  0  0999 V2000
    0.3261   -0.9711    0.8836 C   0  0  0  0  0  3  0  0  0  0  0  0
    1.4507   -0.2249    0.4616 O   0  0  0  0  0  0  0  0  0  0  0  0
    2.3800   -0.1759    1.4729 N   0  0  0  0  0  0  0  0  0  0  0  0
    3.4065    0.4825    1.1421 C   0  0  0  0  0  0  0  0  0  0  0  0
    0.6078   -1.9977    1.1284 H   0  0  0  0  0  0  0  0  0  0  0  0
   -0.1482   -0.5062    1.7509 H   0  0  0  0  0  0  0  0  0  0  0  0
    4.1878    0.5683    1.8854 H   0  0  0  0  0  0  0  0  0  0  0  0
    3.5155    0.9460    0.1640 H   0  0  0  0  0  0  0  0  0  0  0  0
   -1.7240    0.0866   -2.9383 C   0  0  0  0  0  0  0  0  0  0  0  0
   -1.7240    0.0866   -1.6381 C   0  0  0  0  0  0  0  0  0  0  0  0
   -1.7240    0.0866   -0.3381 C   0  0  0  0  0  0  0  0  0  0  0  0
   -2.8262    0.6424    0.5177 C   0  0  0  0  0  0  0  0  0  0  0  0
   -1.3052    0.9140   -3.4995 H   0  0  0  0  0  0  0  0  0  0  0  0
   -2.1404   -0.7421   -3.4995 H   0  0  0  0  0  0  0  0  0  0  0  0
   -0.6999   -0.4418    0.2722 H   0  0  0  0  0  0  0  0  0  0  0  0
   -3.2398   -0.1346    1.1647 H   0  0  0  0  0  0  0  0  0  0  0  0
   -3.6317    1.0486   -0.0925 H   0  0  0  0  0  0  0  0  0  0  0  0
   -2.4473    1.4369    1.1647 H   0  0  0  0  0  0  0  0  0  0  0  0
  1  2  1  0
  1  5  1  0
  1  6  1  0
  2  3  1  0
  3  4  2  3
  4  7  1  0
  4  8  1  0
  9 10  2  0
  9 13  1  0
  9 14  1  0
 10 11  2  0
 11 12  1  0
 11 15  1  0
 12 16  1  0
 12 17  1  0
 12 18  1  0
M  RAD  1   1   2
M  END
>  <reaction>  (25) 
rmg_rxn_15586

>  <mol_properties>  (25) 
{"0": {"label": "*3", "atom_type": "Cs"}, "1": {"label": "*4", "atom_type": "O2s"}, "9": {"label": "*0", "atom_type": "Cdd"}, "10": {"label": "*1", "atom_type": "Cd"}, "14": {"label": "*2", "atom_type": "H0"}}

>  <type>  (25) 
unop_21

>  <geom_source>  (25) 
Heuristics

$$$$

     RDKit          3D

 18 16  0  0  0  0  0  0  0  0999 V2000
    1.1218   -0.3186    0.0791 C   0  0  0  0  0  3  0  0  0  0  0  0
    0.6206   -0.8258    1.3002 O   0  0  0  0  0  0  0  0  0  0  0  0
    1.6284   -0.8653    2.2337 N   0  0  0  0  0  0  0  0  0  0  0  0
    1.2277   -1.3132    3.3453 C   0  0  0  0  0  0  0  0  0  0  0  0
    1.5010    0.6981    0.2046 H   0  0  0  0  0  0  0  0  0  0  0  0
    1.9155   -0.9583   -0.3133 H   0  0  0  0  0  0  0  0  0  0  0  0
    1.9632   -1.3763    4.1361 H   0  0  0  0  0  0  0  0  0  0  0  0
    0.1992   -1.6239    3.5158 H   0  0  0  0  0  0  0  0  0  0  0  0
   -0.9283    0.7391   -3.7429 C   0  0  0  0  0  0  0  0  0  0  0  0
   -0.9283    0.7391   -2.4427 C   0  0  0  0  0  0  0  0  0  0  0  0
   -0.9283    0.7391   -1.1426 C   0  0  0  0  0  0  0  0  0  0  0  0
   -2.0306    1.2950   -0.2868 C   0  0  0  0  0  0  0  0  0  0  0  0
   -0.5095    1.5666   -4.3041 H   0  0  0  0  0  0  0  0  0  0  0  0
   -1.3447   -0.0896   -4.3041 H   0  0  0  0  0  0  0  0  0  0  0  0
    0.0958    0.2108   -0.5323 H   0  0  0  0  0  0  0  0  0  0  0  0
   -2.4441    0.5180    0.3602 H   0  0  0  0  0  0  0  0  0  0  0  0
   -2.8360    1.7012   -0.8971 H   0  0  0  0  0  0  0  0  0  0  0  0
   -1.6516    2.0894    0.3602 H   0  0  0  0  0  0  0  0  0  0  0  0
  1  2  1  0
  1  5  1  0
  1  6  1  0
  2  3  1  0
  3  4  2  3
  4  7  1  0
  4  8  1  0
  9 10  2  0
  9 13  1  0
  9 14  1  0
 10 11  2  0
 11 12  1  0
 11 15  1  0
 12 16  1  0
 12 17  1  0
 12 18  1  0
M  RAD  1   1   2
M  END
>  <reaction>  (26) 
rmg_rxn_15586

>  <mol_properties>  (26) 
{"0": {"label": "*3", "atom_type": "Cs"}, "1": {"label": "*4", "atom_type": "O2s"}, "9": {"label": "*0", "atom_type": "Cdd"}, "10": {"label": "*1", "atom_type": "Cd"}, "14": {"label": "*2", "atom_type": "H0"}}

>  <type>  (26) 
unop_22

>  <geom_source>  (26) 
Heuristics

$$$$

     RDKit          3D

 18 16  0  0  0  0  0  0  0  0999 V2000
    0.4062   -0.2078    1.3047 C   0  0  0  0  0  3  0  0  0  0  0  0
    1.2734   -0.6552    0.2813 O   0  0  0  0  0  0  0  0  0  0  0  0
    2.3897   -1.2311    0.8390 N   0  0  0  0  0  0  0  0  0  0  0  0
    3.1973   -1.6477   -0.0391 C   0  0  0  0  0  0  0  0  0  0  0  0
    0.0757   -1.0411    1.9287 H   0  0  0  0  0  0  0  0  0  0  0  0
    0.8938    0.5446    1.9287 H   0  0  0  0  0  0  0  0  0  0  0  0
    4.1043   -2.1157    0.3195 H   0  0  0  0  0  0  0  0  0  0  0  0
    3.0059   -1.5490   -1.1054 H   0  0  0  0  0  0  0  0  0  0  0  0
   -1.6439    0.8499   -2.5173 C   0  0  0  0  0  0  0  0  0  0  0  0
   -1.6439    0.8499   -1.2171 C   0  0  0  0  0  0  0  0  0  0  0  0
   -1.6439    0.8499    0.0830 C   0  0  0  0  0  0  0  0  0  0  0  0
   -2.7461    1.4058    0.9388 C   0  0  0  0  0  0  0  0  0  0  0  0
   -1.2250    1.6774   -3.0785 H   0  0  0  0  0  0  0  0  0  0  0  0
   -2.0602    0.0212   -3.0785 H   0  0  0  0  0  0  0  0  0  0  0  0
   -0.6197    0.3215    0.6933 H   0  0  0  0  0  0  0  0  0  0  0  0
   -3.1596    0.6288    1.5858 H   0  0  0  0  0  0  0  0  0  0  0  0
   -3.5515    1.8120    0.3285 H   0  0  0  0  0  0  0  0  0  0  0  0
   -2.3672    2.2002    1.5858 H   0  0  0  0  0  0  0  0  0  0  0  0
  1  2  1  0
  1  5  1  0
  1  6  1  0
  2  3  1  0
  3  4  2  3
  4  7  1  0
  4  8  1  0
  9 10  2  0
  9 13  1  0
  9 14  1  0
 10 11  2  0
 11 12  1  0
 11 15  1  0
 12 16  1  0
 12 17  1  0
 12 18  1  0
M  RAD  1   1   2
M  END
>  <reaction>  (27) 
rmg_rxn_15586

>  <mol_properties>  (27) 
{"0": {"label": "*3", "atom_type": "Cs"}, "1": {"label": "*4", "atom_type": "O2s"}, "9": {"label": "*0", "atom_type": "Cdd"}, "10": {"label": "*1", "atom_type": "Cd"}, "14": {"label": "*2", "atom_type": "H0"}}

>  <type>  (27) 
unop_23

>  <geom_source>  (27) 
Heuristics

$$$$

     RDKit          3D

 18 16  0  0  0  0  0  0  0  0999 V2000
    0.6802   -1.6296   -0.0181 C   0  0  0  0  0  0  0  0  0  0  0  0
    1.9938   -1.1287    0.0079 O   0  0  0  0  0  0  0  0  0  0  0  0
    2.0080    0.2505   -0.0077 N   0  0  0  0  0  0  0  0  0  0  0  0
    3.1407    0.7975    0.0152 C   0  0  0  0  0  0  0  0  0  0  0  0
    0.0709   -1.2384   -0.8089 H   0  0  0  0  0  0  0  0  0  0  0  0
    0.7518   -2.7091   -0.0249 H   0  0  0  0  0  0  0  0  0  0  0  0
    3.1585    1.8734    0.0031 H   0  0  0  0  0  0  0  0  0  0  0  0
    4.0813    0.2562    0.0459 H   0  0  0  0  0  0  0  0  0  0  0  0
   -3.4873   -1.0005    0.0113 C   0  0  0  0  0  0  0  0  0  0  0  0
   -2.5991    0.0193    0.0038 C   0  0  0  0  0  0  0  0  0  0  0  0
   -1.7973    0.9419   -0.0029 C   0  0  0  0  0  3  0  0  0  0  0  0
   -0.8256    2.0041   -0.0103 C   0  0  0  0  0  0  0  0  0  0  0  0
   -3.7926   -1.4709   -0.9061 H   0  0  0  0  0  0  0  0  0  0  0  0
   -3.9094   -1.3557    0.9342 H   0  0  0  0  0  0  0  0  0  0  0  0
    0.0404   -1.2521    0.7880 H   0  0  0  0  0  0  0  0  0  0  0  0
   -0.9440    2.6192   -0.9037 H   0  0  0  0  0  0  0  0  0  0  0  0
    0.1843    1.5821   -0.0097 H   0  0  0  0  0  0  0  0  0  0  0  0
   -0.9430    2.6316    0.8742 H   0  0  0  0  0  0  0  0  0  0  0  0
  1  2  1  0
  1  5  1  0
  1  6  1  0
  1 15  1  0
  2  3  1  0
  3  4  2  3
  4  7  1  0
  4  8  1  0
  9 10  2  0
  9 13  1  0
  9 14  1  0
 10 11  2  0
 11 12  1  0
 12 16  1  0
 12 17  1  0
 12 18  1  0
M  RAD  1  11   2
M  END
>  <reaction>  (28) 
rmg_rxn_15586

>  <mol_properties>  (28) 
{"0": {"label": "*3", "atom_type": "Cs"}, "1": {"label": "*4", "atom_type": "O2s"}, "9": {"label": "*0", "atom_type": "Cdd"}, "10": {"label": "*1", "atom_type": "Cd"}, "14": {"label": "*2", "atom_type": "H0"}}

>  <type>  (28) 
unop_24

>  <geom_source>  (28) 
Heuristics

$$$$

     RDKit          3D

 18 16  0  0  0  0  0  0  0  0999 V2000
    2.2669   -0.3157   -0.4183 O   0  0  0  0  0  0  0  0  0  0  0  0
    2.5405    0.5643    0.6034 N   0  0  0  0  0  0  0  0  0  0  0  0
    1.0502   -0.2179   -1.1382 C   0  0  0  0  0  3  0  0  0  0  0  0
   -1.6677    0.7427   -1.2348 C   0  0  0  0  0  0  0  0  0  0  0  0
    3.6481    0.4798    1.2631 C   0  0  0  0  0  0  0  0  0  0  0  0
   -2.9049   -1.1135    1.5989 C   0  0  0  0  0  0  0  0  0  0  0  0
   -1.2111    0.0954    0.0279 C   0  0  0  0  0  0  0  0  0  0  0  0
   -2.0584   -0.5096    0.8143 C   0  0  0  0  0  0  0  0  0  0  0  0
    0.9939    0.7662   -1.6491 H   0  0  0  0  0  0  0  0  0  0  0  0
    1.0060   -1.0261   -1.8968 H   0  0  0  0  0  0  0  0  0  0  0  0
   -0.0480   -0.3534   -0.2420 H   0  0  0  0  0  0  0  0  0  0  0  0
   -2.1297   -0.0127   -1.9054 H   0  0  0  0  0  0  0  0  0  0  0  0
   -0.7946    1.1950   -1.7484 H   0  0  0  0  0  0  0  0  0  0  0  0
   -2.4069    1.5404   -1.0091 H   0  0  0  0  0  0  0  0  0  0  0  0
    3.8517    1.1773    2.0639 H   0  0  0  0  0  0  0  0  0  0  0  0
    4.3766   -0.2841    1.0218 H   0  0  0  0  0  0  0  0  0  0  0  0
   -3.9535   -1.1495    1.3370 H   0  0  0  0  0  0  0  0  0  0  0  0
   -2.5590   -1.5787    2.5118 H   0  0  0  0  0  0  0  0  0  0  0  0
  1  3  1  0
  1  2  1  0
  2  5  2  3
  3  9  1  0
  3 10  1  0
  4  7  1  0
  4 12  1  0
  4 13  1  0
  4 14  1  0
  5 15  1  0
  5 16  1  0
  6  8  2  0
  6 17  1  0
  6 18  1  0
  7  8  2  0
  7 11  1  0
M  RAD  1   3   2
M  END
>  <reaction>  (29) 
rmg_rxn_15586

>  <mol_properties>  (29) 
{"0": {"label": "*3", "atom_type": "Cs"}, "1": {"label": "*4", "atom_type": "O2s"}, "9": {"label": "*0", "atom_type": "Cdd"}, "10": {"label": "*1", "atom_type": "Cd"}, "14": {"label": "*2", "atom_type": "H0"}}

>  <type>  (29) 
unop_25

>  <geom_source>  (29) 
AutoTST

$$$$

     RDKit          3D

 18 16  0  0  0  0  0  0  0  0999 V2000
    0.2734   -0.6456    1.1847 C   0  0  0  0  0  3  0  0  0  0  0  0
    1.3768   -0.4491    0.3225 O   0  0  0  0  0  0  0  0  0  0  0  0
    2.5473   -0.5887    1.0289 N   0  0  0  0  0  0  0  0  0  0  0  0
    3.5648   -0.4214    0.2986 C   0  0  0  0  0  0  0  0  0  0  0  0
    0.2868   -1.6501    1.6137 H   0  0  0  0  0  0  0  0  0  0  0  0
    0.2688    0.0943    1.9882 H   0  0  0  0  0  0  0  0  0  0  0  0
    4.5286   -0.5151    0.7810 H   0  0  0  0  0  0  0  0  0  0  0  0
    3.4935   -0.1942   -0.7629 H   0  0  0  0  0  0  0  0  0  0  0  0
   -1.7767    0.4121   -2.6372 C   0  0  0  0  0  0  0  0  0  0  0  0
   -1.7767    0.4121   -1.3371 C   0  0  0  0  0  0  0  0  0  0  0  0
   -1.7767    0.4121   -0.0370 C   0  0  0  0  0  0  0  0  0  0  0  0
   -2.8789    0.9679    0.8188 C   0  0  0  0  0  0  0  0  0  0  0  0
   -1.3579    1.2395   -3.1984 H   0  0  0  0  0  0  0  0  0  0  0  0
   -2.1931   -0.4166   -3.1984 H   0  0  0  0  0  0  0  0  0  0  0  0
   -0.7526   -0.1163    0.5733 H   0  0  0  0  0  0  0  0  0  0  0  0
   -3.2925    0.1909    1.4658 H   0  0  0  0  0  0  0  0  0  0  0  0
   -3.6844    1.3741    0.2086 H   0  0  0  0  0  0  0  0  0  0  0  0
   -2.5000    1.7624    1.4658 H   0  0  0  0  0  0  0  0  0  0  0  0
  1  2  1  0
  1  5  1  0
  1  6  1  0
  2  3  1  0
  3  4  2  3
  4  7  1  0
  4  8  1  0
  9 10  2  0
  9 13  1  0
  9 14  1  0
 10 11  2  0
 11 12  1  0
 11 15  1  0
 12 16  1  0
 12 17  1  0
 12 18  1  0
M  RAD  1   1   2
M  END
>  <reaction>  (30) 
rmg_rxn_15586

>  <mol_properties>  (30) 
{"0": {"label": "*3", "atom_type": "Cs"}, "1": {"label": "*4", "atom_type": "O2s"}, "9": {"label": "*0", "atom_type": "Cdd"}, "10": {"label": "*1", "atom_type": "Cd"}, "14": {"label": "*2", "atom_type": "H0"}}

>  <type>  (30) 
unop_26

>  <geom_source>  (30) 
gaussian_log

$$$$
