
     RDKit          3D

  9  8  0  0  0  0  0  0  0  0999 V2000
   -1.2461    0.5037    0.0950 C   0  0  0  0  0  0  0  0  0  0  0  0
   -0.0155   -0.3334    0.0640 C   0  0  0  0  0  0  0  0  0  0  0  0
    1.0697    0.1457   -0.3733 N   0  0  0  0  0  0  0  0  0  0  0  0
    2.1001   -0.7834   -0.3224 O   0  0  0  0  0  0  0  0  0  0  0  0
   -2.0357    0.0440   -0.5039 H   0  0  0  0  0  0  0  0  0  0  0  0
   -1.6237    0.5897    1.1166 H   0  0  0  0  0  0  0  0  0  0  0  0
   -1.0397    1.4998   -0.2929 H   0  0  0  0  0  0  0  0  0  0  0  0
   -0.0537   -1.3634    0.4205 H   0  0  0  0  0  0  0  0  0  0  0  0
    2.8478   -0.2985   -0.6758 H   0  0  0  0  0  0  0  0  0  0  0  0
  1  2  1  0
  1  5  1  0
  1  6  1  0
  1  7  1  0
  2  3  2  3
  2  8  1  0
  3  4  1  0
  4  9  1  0
M  END
>  <reaction>  (1) 
rmg_rxn_645

>  <mol_properties>  (1) 
{"3": {"label": "donator", "atom_type": "O2s"}, "8": {"label": "d_hydrogen", "atom_type": "H0"}}

>  <type>  (1) 
r1h

$$$$

     RDKit          3D

 14 13  0  0  0  0  0  0  0  0999 V2000
    2.6694    0.2813   -0.6046 C   0  0  0  0  0  3  0  0  0  0  0  0
    1.5626   -0.5075   -0.0103 C   0  0  0  0  0  0  0  0  0  0  0  0
    0.5522   -0.8487   -0.9278 O   0  0  0  0  0  0  0  0  0  0  0  0
    0.9505   -1.8204   -1.8682 C   0  0  0  0  0  0  0  0  0  0  0  0
   -0.2101   -2.1029   -2.7930 C   0  0  0  0  0  0  0  0  0  0  0  0
    2.4666    0.9443   -1.4355 H   0  0  0  0  0  0  0  0  0  0  0  0
    3.6339    0.3312   -0.1179 H   0  0  0  0  0  0  0  0  0  0  0  0
    1.0573    0.0741    0.7733 H   0  0  0  0  0  0  0  0  0  0  0  0
    1.9580   -1.4106    0.4809 H   0  0  0  0  0  0  0  0  0  0  0  0
    1.8195   -1.4649   -2.4379 H   0  0  0  0  0  0  0  0  0  0  0  0
    1.2587   -2.7372   -1.3440 H   0  0  0  0  0  0  0  0  0  0  0  0
   -0.5051   -1.1971   -3.3238 H   0  0  0  0  0  0  0  0  0  0  0  0
    0.0686   -2.8601   -3.5276 H   0  0  0  0  0  0  0  0  0  0  0  0
   -1.0699   -2.4661   -2.2289 H   0  0  0  0  0  0  0  0  0  0  0  0
  1  2  1  0
  1  6  1  0
  1  7  1  0
  2  3  1  0
  2  8  1  0
  2  9  1  0
  3  4  1  0
  4  5  1  0
  4 10  1  0
  4 11  1  0
  5 12  1  0
  5 13  1  0
  5 14  1  0
M  RAD  1   1   2
M  END
>  <reaction>  (2) 
rmg_rxn_645

>  <mol_properties>  (2) 
{"0": {"label": "acceptor", "atom_type": "Cs"}}

>  <type>  (2) 
r2

$$$$

     RDKit          3D

 15 14  0  0  0  0  0  0  0  0999 V2000
    2.4145    0.0817    0.4065 C   0  0  0  0  0  0  0  0  0  0  0  0
    1.1257   -0.2220   -0.3219 C   0  0  0  0  0  0  0  0  0  0  0  0
    1.0983   -1.5879   -0.6512 O   0  0  0  0  0  0  0  0  0  0  0  0
   -0.0685   -1.9694   -1.3352 C   0  0  0  0  0  0  0  0  0  0  0  0
    0.0024   -3.4478   -1.6403 C   0  0  0  0  0  0  0  0  0  0  0  0
    3.2736   -0.1534   -0.2229 H   0  0  0  0  0  0  0  0  0  0  0  0
    2.4581    1.1389    0.6728 H   0  0  0  0  0  0  0  0  0  0  0  0
    2.4855   -0.5095    1.3201 H   0  0  0  0  0  0  0  0  0  0  0  0
    0.2597    0.0294    0.3083 H   0  0  0  0  0  0  0  0  0  0  0  0
    1.0482    0.3858   -1.2356 H   0  0  0  0  0  0  0  0  0  0  0  0
   -0.9535   -1.7457   -0.7211 H   0  0  0  0  0  0  0  0  0  0  0  0
   -0.1650   -1.3894   -2.2650 H   0  0  0  0  0  0  0  0  0  0  0  0
    0.0831   -4.0247   -0.7183 H   0  0  0  0  0  0  0  0  0  0  0  0
   -0.8950   -3.7674   -2.1724 H   0  0  0  0  0  0  0  0  0  0  0  0
    0.8712   -3.6686   -2.2613 H   0  0  0  0  0  0  0  0  0  0  0  0
  1  2  1  0
  1  6  1  0
  1  7  1  0
  1  8  1  0
  2  3  1  0
  2  9  1  0
  2 10  1  0
  3  4  1  0
  4  5  1  0
  4 11  1  0
  4 12  1  0
  5 13  1  0
  5 14  1  0
  5 15  1  0
M  END
>  <reaction>  (3) 
rmg_rxn_645

>  <mol_properties>  (3) 
{"0": {"label": "a_hydrogen", "atom_type": "H0"}, "1": {"label": "acceptor", "atom_type": "Cs"}}

>  <type>  (3) 
r2h

$$$$

     RDKit          3D

 23 21  0  0  0  0  0  0  0  0999 V2000
   -1.0902   -2.3845   -2.1486 C   0  0  0  0  0  0  0  0  0  0  0  0
   -0.6352   -2.4709   -0.7327 C   0  0  0  0  0  0  0  0  0  0  0  0
   -0.6966   -1.4534    0.0216 N   0  0  0  0  0  0  0  0  0  0  0  0
   -0.2647   -1.6343    1.2707 O   0  0  0  0  0  0  0  0  0  0  0  0
   -0.2737   -2.6323   -2.8314 H   0  0  0  0  0  0  0  0  0  0  0  0
   -1.8975   -3.0956   -2.3397 H   0  0  0  0  0  0  0  0  0  0  0  0
   -1.4450   -1.3795   -2.3725 H   0  0  0  0  0  0  0  0  0  0  0  0
   -0.2477   -3.4155   -0.3501 H   0  0  0  0  0  0  0  0  0  0  0  0
   -0.3648   -0.5662    1.7909 H   0  0  0  0  0  0  0  0  0  0  0  0
   -0.5498    0.6787    2.2141 C   0  0  0  0  0  3  0  0  0  0  0  0
   -0.5267    1.5071    0.9771 C   0  0  0  0  0  0  0  0  0  0  0  0
    0.7862    1.5935    0.4975 O   0  0  0  0  0  0  0  0  0  0  0  0
    0.8692    2.1436   -0.7947 C   0  0  0  0  0  0  0  0  0  0  0  0
    2.3186    2.1690   -1.2198 C   0  0  0  0  0  0  0  0  0  0  0  0
    0.2921    0.8290    2.8865 H   0  0  0  0  0  0  0  0  0  0  0  0
   -1.5140    0.6332    2.7145 H   0  0  0  0  0  0  0  0  0  0  0  0
   -0.9272    2.5144    1.1915 H   0  0  0  0  0  0  0  0  0  0  0  0
   -1.1833    1.0543    0.2186 H   0  0  0  0  0  0  0  0  0  0  0  0
    0.2736    1.5376   -1.4917 H   0  0  0  0  0  0  0  0  0  0  0  0
    0.4482    3.1599   -0.7994 H   0  0  0  0  0  0  0  0  0  0  0  0
    2.7301    1.1592   -1.2238 H   0  0  0  0  0  0  0  0  0  0  0  0
    2.4103    2.5867   -2.2236 H   0  0  0  0  0  0  0  0  0  0  0  0
    2.9088    2.7791   -0.5351 H   0  0  0  0  0  0  0  0  0  0  0  0
  1  2  1  0
  1  5  1  0
  1  6  1  0
  1  7  1  0
  2  3  2  3
  2  8  1  0
  3  4  1  0
  4  9  1  0
 10 11  1  0
 10 15  1  0
 10 16  1  0
 11 12  1  0
 11 17  1  0
 11 18  1  0
 12 13  1  0
 13 14  1  0
 13 19  1  0
 13 20  1  0
 14 21  1  0
 14 22  1  0
 14 23  1  0
M  RAD  1  10   2
M  END
>  <reaction>  (4) 
rmg_rxn_645

>  <mol_properties>  (4) 
{"2": {"label": "*0", "atom_type": "N3d"}, "3": {"label": "*1", "atom_type": "O2s"}, "8": {"label": "*2", "atom_type": "H0"}, "9": {"label": "*3", "atom_type": "Cs"}, "10": {"label": "*4", "atom_type": "Cs"}}

>  <type>  (4) 
ts

$$$$

     RDKit          3D

 23 21  0  0  0  0  0  0  0  0999 V2000
    1.2435   -2.4704   -3.4487 C   0  0  0  0  0  0  0  0  0  0  0  0
    1.2435   -2.4704   -1.9600 C   0  0  0  0  0  0  0  0  0  0  0  0
    1.2435   -1.3783   -1.3232 N   0  0  0  0  0  0  0  0  0  0  0  0
    1.2435   -1.5830    0.0500 O   0  0  0  0  0  0  0  0  0  0  0  0
    2.1229   -2.9942   -3.8305 H   0  0  0  0  0  0  0  0  0  0  0  0
    0.3641   -2.9942   -3.8305 H   0  0  0  0  0  0  0  0  0  0  0  0
    1.2435   -1.4507   -3.8301 H   0  0  0  0  0  0  0  0  0  0  0  0
    1.2435   -3.4179   -1.4199 H   0  0  0  0  0  0  0  0  0  0  0  0
    1.2435   -0.5133    0.4733 H   0  0  0  0  0  0  0  0  0  0  0  0
    1.2435    0.7035    0.9549 C   0  0  0  0  0  3  0  0  0  0  0  0
    0.0177    0.9354    1.8078 C   0  0  0  0  0  0  0  0  0  0  0  0
   -0.9417    1.6280    1.0496 O   0  0  0  0  0  0  0  0  0  0  0  0
   -2.1246    1.8918    1.7609 C   0  0  0  0  0  0  0  0  0  0  0  0
   -3.0836    2.6354    0.8602 C   0  0  0  0  0  0  0  0  0  0  0  0
    1.6644    1.6537    0.6246 H   0  0  0  0  0  0  0  0  0  0  0  0
    2.0037    0.1660    1.5239 H   0  0  0  0  0  0  0  0  0  0  0  0
    0.2780    1.5166    2.7048 H   0  0  0  0  0  0  0  0  0  0  0  0
   -0.3974   -0.0233    2.1527 H   0  0  0  0  0  0  0  0  0  0  0  0
   -2.5738    0.9484    2.1051 H   0  0  0  0  0  0  0  0  0  0  0  0
   -1.8983    2.4883    2.6572 H   0  0  0  0  0  0  0  0  0  0  0  0
   -3.3201    2.0388   -0.0215 H   0  0  0  0  0  0  0  0  0  0  0  0
   -4.0114    2.8516    1.3923 H   0  0  0  0  0  0  0  0  0  0  0  0
   -2.6451    3.5778    0.5303 H   0  0  0  0  0  0  0  0  0  0  0  0
  1  2  1  0
  1  5  1  0
  1  6  1  0
  1  7  1  0
  2  3  2  3
  2  8  1  0
  3  4  1  0
  4  9  1  0
 10 11  1  0
 10 15  1  0
 10 16  1  0
 11 12  1  0
 11 17  1  0
 11 18  1  0
 12 13  1  0
 13 14  1  0
 13 19  1  0
 13 20  1  0
 14 21  1  0
 14 22  1  0
 14 23  1  0
M  RAD  1  10   2
M  END
>  <reaction>  (5) 
rmg_rxn_645

>  <mol_properties>  (5) 
{"2": {"label": "*0", "atom_type": "N3d"}, "3": {"label": "*1", "atom_type": "O2s"}, "8": {"label": "*2", "atom_type": "H0"}, "9": {"label": "*3", "atom_type": "Cs"}, "10": {"label": "*4", "atom_type": "Cs"}}

>  <type>  (5) 
unop_1

>  <geom_source>  (5) 
Heuristics

$$$$

     RDKit          3D

 23 21  0  0  0  0  0  0  0  0999 V2000
    0.0437   -2.7499   -2.1463 C   0  0  0  0  0  0  0  0  0  0  0  0
    0.0437   -2.7499   -0.6576 C   0  0  0  0  0  0  0  0  0  0  0  0
    0.0437   -1.6578   -0.0208 N   0  0  0  0  0  0  0  0  0  0  0  0
    0.0437   -1.8625    1.3524 O   0  0  0  0  0  0  0  0  0  0  0  0
    0.9232   -3.2737   -2.5281 H   0  0  0  0  0  0  0  0  0  0  0  0
   -0.8357   -3.2737   -2.5281 H   0  0  0  0  0  0  0  0  0  0  0  0
    0.0437   -1.7302   -2.5277 H   0  0  0  0  0  0  0  0  0  0  0  0
    0.0437   -3.6974   -0.1175 H   0  0  0  0  0  0  0  0  0  0  0  0
    0.0437   -0.7928    1.7757 H   0  0  0  0  0  0  0  0  0  0  0  0
    0.0437    0.4240    2.2573 C   0  0  0  0  0  3  0  0  0  0  0  0
   -0.6639    1.3673    1.3125 C   0  0  0  0  0  0  0  0  0  0  0  0
    0.2005    1.6833    0.2504 O   0  0  0  0  0  0  0  0  0  0  0  0
   -0.3713    2.5607   -0.6868 C   0  0  0  0  0  0  0  0  0  0  0  0
    0.6347    2.8342   -1.7807 C   0  0  0  0  0  0  0  0  0  0  0  0
    0.9469    0.8879    2.6552 H   0  0  0  0  0  0  0  0  0  0  0  0
   -0.6095    0.1641    3.0918 H   0  0  0  0  0  0  0  0  0  0  0  0
   -0.9629    2.2859    1.8388 H   0  0  0  0  0  0  0  0  0  0  0  0
   -1.5827    0.9040    0.9232 H   0  0  0  0  0  0  0  0  0  0  0  0
   -1.2854    2.1162   -1.1077 H   0  0  0  0  0  0  0  0  0  0  0  0
   -0.6657    3.4982   -0.1922 H   0  0  0  0  0  0  0  0  0  0  0  0
    0.9161    1.9073   -2.2816 H   0  0  0  0  0  0  0  0  0  0  0  0
    0.2120    3.5147   -2.5216 H   0  0  0  0  0  0  0  0  0  0  0  0
    1.5355    3.2884   -1.3665 H   0  0  0  0  0  0  0  0  0  0  0  0
  1  2  1  0
  1  5  1  0
  1  6  1  0
  1  7  1  0
  2  3  2  3
  2  8  1  0
  3  4  1  0
  4  9  1  0
 10 11  1  0
 10 15  1  0
 10 16  1  0
 11 12  1  0
 11 17  1  0
 11 18  1  0
 12 13  1  0
 13 14  1  0
 13 19  1  0
 13 20  1  0
 14 21  1  0
 14 22  1  0
 14 23  1  0
M  RAD  1  10   2
M  END
>  <reaction>  (6) 
rmg_rxn_645

>  <mol_properties>  (6) 
{"2": {"label": "*0", "atom_type": "N3d"}, "3": {"label": "*1", "atom_type": "O2s"}, "8": {"label": "*2", "atom_type": "H0"}, "9": {"label": "*3", "atom_type": "Cs"}, "10": {"label": "*4", "atom_type": "Cs"}}

>  <type>  (6) 
unop_2

>  <geom_source>  (6) 
Heuristics

$$$$

     RDKit          3D

 23 21  0  0  0  0  0  0  0  0999 V2000
    1.1062   -2.1245   -4.0147 C   0  0  0  0  0  0  0  0  0  0  0  0
    1.1062   -2.1245   -2.5260 C   0  0  0  0  0  0  0  0  0  0  0  0
    1.1062   -1.0324   -1.8892 N   0  0  0  0  0  0  0  0  0  0  0  0
    1.1062   -1.2371   -0.5160 O   0  0  0  0  0  0  0  0  0  0  0  0
    1.9856   -2.6483   -4.3965 H   0  0  0  0  0  0  0  0  0  0  0  0
    0.2268   -2.6483   -4.3965 H   0  0  0  0  0  0  0  0  0  0  0  0
    1.1062   -1.1048   -4.3961 H   0  0  0  0  0  0  0  0  0  0  0  0
    1.1062   -3.0720   -1.9859 H   0  0  0  0  0  0  0  0  0  0  0  0
    1.1062   -0.1675   -0.0927 H   0  0  0  0  0  0  0  0  0  0  0  0
    1.1062    1.0494    0.3889 C   0  0  0  0  0  3  0  0  0  0  0  0
    0.3985    1.0906    1.7235 C   0  0  0  0  0  0  0  0  0  0  0  0
   -0.9723    1.3120    1.5068 O   0  0  0  0  0  0  0  0  0  0  0  0
   -1.7193    1.3666    2.6959 C   0  0  0  0  0  0  0  0  0  0  0  0
   -3.1713    1.6069    2.3529 C   0  0  0  0  0  0  0  0  0  0  0  0
    0.9743    1.9923   -0.1427 H   0  0  0  0  0  0  0  0  0  0  0  0
    2.1742    0.8781    0.5325 H   0  0  0  0  0  0  0  0  0  0  0  0
    0.8128    1.8915    2.3537 H   0  0  0  0  0  0  0  0  0  0  0  0
    0.5446    0.1444    2.2654 H   0  0  0  0  0  0  0  0  0  0  0  0
   -1.6068    0.4248    3.2532 H   0  0  0  0  0  0  0  0  0  0  0  0
   -1.3386    2.1719    3.3415 H   0  0  0  0  0  0  0  0  0  0  0  0
   -3.5539    0.8015    1.7250 H   0  0  0  0  0  0  0  0  0  0  0  0
   -3.7720    1.6532    3.2626 H   0  0  0  0  0  0  0  0  0  0  0  0
   -3.2858    2.5476    1.8132 H   0  0  0  0  0  0  0  0  0  0  0  0
  1  2  1  0
  1  5  1  0
  1  6  1  0
  1  7  1  0
  2  3  2  3
  2  8  1  0
  3  4  1  0
  4  9  1  0
 10 11  1  0
 10 15  1  0
 10 16  1  0
 11 12  1  0
 11 17  1  0
 11 18  1  0
 12 13  1  0
 13 14  1  0
 13 19  1  0
 13 20  1  0
 14 21  1  0
 14 22  1  0
 14 23  1  0
M  RAD  1  10   2
M  END
>  <reaction>  (7) 
rmg_rxn_645

>  <mol_properties>  (7) 
{"2": {"label": "*0", "atom_type": "N3d"}, "3": {"label": "*1", "atom_type": "O2s"}, "8": {"label": "*2", "atom_type": "H0"}, "9": {"label": "*3", "atom_type": "Cs"}, "10": {"label": "*4", "atom_type": "Cs"}}

>  <type>  (7) 
unop_3

>  <geom_source>  (7) 
Heuristics

$$$$

     RDKit          3D

 23 21  0  0  0  0  0  0  0  0999 V2000
   -1.2864   -2.0369   -2.8561 C   0  0  0  0  0  0  0  0  0  0  0  0
   -1.2864   -2.0369   -1.3674 C   0  0  0  0  0  0  0  0  0  0  0  0
   -1.2864   -0.9448   -0.7306 N   0  0  0  0  0  0  0  0  0  0  0  0
   -1.2864   -1.1495    0.6426 O   0  0  0  0  0  0  0  0  0  0  0  0
   -0.4070   -2.5607   -3.2379 H   0  0  0  0  0  0  0  0  0  0  0  0
   -2.1658   -2.5607   -3.2379 H   0  0  0  0  0  0  0  0  0  0  0  0
   -1.2864   -1.0172   -3.2375 H   0  0  0  0  0  0  0  0  0  0  0  0
   -1.2864   -2.9844   -0.8273 H   0  0  0  0  0  0  0  0  0  0  0  0
   -1.2864   -0.0798    1.0659 H   0  0  0  0  0  0  0  0  0  0  0  0
   -1.2864    1.1370    1.5475 C   0  0  0  0  0  3  0  0  0  0  0  0
   -0.0607    1.8897    1.0844 C   0  0  0  0  0  0  0  0  0  0  0  0
    0.9795    0.9724    0.8568 O   0  0  0  0  0  0  0  0  0  0  0  0
    2.1688    1.5808    0.4204 C   0  0  0  0  0  0  0  0  0  0  0  0
    3.2166    0.5131    0.2065 C   0  0  0  0  0  0  0  0  0  0  0  0
   -1.0763    0.5959    2.4708 H   0  0  0  0  0  0  0  0  0  0  0  0
   -2.1089    1.8302    1.7308 H   0  0  0  0  0  0  0  0  0  0  0  0
    0.2473    2.6258    1.8417 H   0  0  0  0  0  0  0  0  0  0  0  0
   -0.2780    2.4470    0.1611 H   0  0  0  0  0  0  0  0  0  0  0  0
    1.9869    2.1333   -0.5134 H   0  0  0  0  0  0  0  0  0  0  0  0
    2.5121    2.3120    1.1672 H   0  0  0  0  0  0  0  0  0  0  0  0
    2.8835   -0.2041   -0.5444 H   0  0  0  0  0  0  0  0  0  0  0  0
    4.1508    0.9629   -0.1333 H   0  0  0  0  0  0  0  0  0  0  0  0
    3.4085   -0.0255    1.1352 H   0  0  0  0  0  0  0  0  0  0  0  0
  1  2  1  0
  1  5  1  0
  1  6  1  0
  1  7  1  0
  2  3  2  3
  2  8  1  0
  3  4  1  0
  4  9  1  0
 10 11  1  0
 10 15  1  0
 10 16  1  0
 11 12  1  0
 11 17  1  0
 11 18  1  0
 12 13  1  0
 13 14  1  0
 13 19  1  0
 13 20  1  0
 14 21  1  0
 14 22  1  0
 14 23  1  0
M  RAD  1  10   2
M  END
>  <reaction>  (8) 
rmg_rxn_645

>  <mol_properties>  (8) 
{"2": {"label": "*0", "atom_type": "N3d"}, "3": {"label": "*1", "atom_type": "O2s"}, "8": {"label": "*2", "atom_type": "H0"}, "9": {"label": "*3", "atom_type": "Cs"}, "10": {"label": "*4", "atom_type": "Cs"}}

>  <type>  (8) 
unop_4

>  <geom_source>  (8) 
Heuristics

$$$$

     RDKit          3D

 23 21  0  0  0  0  0  0  0  0999 V2000
    0.5497   -1.6538   -4.4418 C   0  0  0  0  0  0  0  0  0  0  0  0
    0.5497   -1.6538   -2.9531 C   0  0  0  0  0  0  0  0  0  0  0  0
    0.5497   -0.5618   -2.3163 N   0  0  0  0  0  0  0  0  0  0  0  0
    0.5497   -0.7664   -0.9431 O   0  0  0  0  0  0  0  0  0  0  0  0
    1.4291   -2.1777   -4.8236 H   0  0  0  0  0  0  0  0  0  0  0  0
   -0.3297   -2.1777   -4.8236 H   0  0  0  0  0  0  0  0  0  0  0  0
    0.5497   -0.6341   -4.8232 H   0  0  0  0  0  0  0  0  0  0  0  0
    0.5497   -2.6014   -2.4130 H   0  0  0  0  0  0  0  0  0  0  0  0
    0.5497    0.3032   -0.5198 H   0  0  0  0  0  0  0  0  0  0  0  0
    0.5497    1.5200   -0.0382 C   0  0  0  0  0  3  0  0  0  0  0  0
    0.5497    1.4915    1.4727 C   0  0  0  0  0  0  0  0  0  0  0  0
   -0.6011    0.8180    1.9166 O   0  0  0  0  0  0  0  0  0  0  0  0
   -0.6914    0.7393    3.3169 C   0  0  0  0  0  0  0  0  0  0  0  0
   -1.9569    0.0009    3.6866 C   0  0  0  0  0  0  0  0  0  0  0  0
   -0.3352    2.0372   -0.4106 H   0  0  0  0  0  0  0  0  0  0  0  0
    1.4359    2.0392   -0.4064 H   0  0  0  0  0  0  0  0  0  0  0  0
    0.5647    2.5147    1.8765 H   0  0  0  0  0  0  0  0  0  0  0  0
    1.4502    0.9826    1.8475 H   0  0  0  0  0  0  0  0  0  0  0  0
    0.1895    0.2186    3.7209 H   0  0  0  0  0  0  0  0  0  0  0  0
   -0.6960    1.7507    3.7499 H   0  0  0  0  0  0  0  0  0  0  0  0
   -1.9468   -1.0069    3.2702 H   0  0  0  0  0  0  0  0  0  0  0  0
   -2.0485   -0.0725    4.7714 H   0  0  0  0  0  0  0  0  0  0  0  0
   -2.8317    0.5243    3.2991 H   0  0  0  0  0  0  0  0  0  0  0  0
  1  2  1  0
  1  5  1  0
  1  6  1  0
  1  7  1  0
  2  3  2  3
  2  8  1  0
  3  4  1  0
  4  9  1  0
 10 11  1  0
 10 15  1  0
 10 16  1  0
 11 12  1  0
 11 17  1  0
 11 18  1  0
 12 13  1  0
 13 14  1  0
 13 19  1  0
 13 20  1  0
 14 21  1  0
 14 22  1  0
 14 23  1  0
M  RAD  1  10   2
M  END
>  <reaction>  (9) 
rmg_rxn_645

>  <mol_properties>  (9) 
{"2": {"label": "*0", "atom_type": "N3d"}, "3": {"label": "*1", "atom_type": "O2s"}, "8": {"label": "*2", "atom_type": "H0"}, "9": {"label": "*3", "atom_type": "Cs"}, "10": {"label": "*4", "atom_type": "Cs"}}

>  <type>  (9) 
unop_5

>  <geom_source>  (9) 
Heuristics

$$$$

     RDKit          3D

 23 21  0  0  0  0  0  0  0  0999 V2000
   -1.3218   -1.7779   -3.4214 C   0  0  0  0  0  0  0  0  0  0  0  0
   -1.3218   -1.7779   -1.9328 C   0  0  0  0  0  0  0  0  0  0  0  0
   -1.3218   -0.6858   -1.2960 N   0  0  0  0  0  0  0  0  0  0  0  0
   -1.3218   -0.8905    0.0772 O   0  0  0  0  0  0  0  0  0  0  0  0
   -0.4424   -2.3017   -3.8032 H   0  0  0  0  0  0  0  0  0  0  0  0
   -2.2012   -2.3017   -3.8032 H   0  0  0  0  0  0  0  0  0  0  0  0
   -1.3218   -0.7582   -3.8029 H   0  0  0  0  0  0  0  0  0  0  0  0
   -1.3218   -2.7254   -1.3926 H   0  0  0  0  0  0  0  0  0  0  0  0
   -1.3218    0.1791    0.5006 H   0  0  0  0  0  0  0  0  0  0  0  0
   -1.3218    1.3960    0.9822 C   0  0  0  0  0  3  0  0  0  0  0  0
    0.0936    1.8883    1.1770 C   0  0  0  0  0  0  0  0  0  0  0  0
    0.9566    0.7812    1.2458 O   0  0  0  0  0  0  0  0  0  0  0  0
    2.3034    1.1393    1.4273 C   0  0  0  0  0  0  0  0  0  0  0  0
    3.1416   -0.1166    1.4876 C   0  0  0  0  0  0  0  0  0  0  0  0
   -1.6221    0.7575    1.8137 H   0  0  0  0  0  0  0  0  0  0  0  0
   -2.0111    2.2399    0.9258 H   0  0  0  0  0  0  0  0  0  0  0  0
    0.1704    2.4817    2.1001 H   0  0  0  0  0  0  0  0  0  0  0  0
    0.3903    2.5442    0.3451 H   0  0  0  0  0  0  0  0  0  0  0  0
    2.6352    1.7834    0.5993 H   0  0  0  0  0  0  0  0  0  0  0  0
    2.4153    1.7210    2.3543 H   0  0  0  0  0  0  0  0  0  0  0  0
    3.0429   -0.6866    0.5631 H   0  0  0  0  0  0  0  0  0  0  0  0
    4.1934    0.1372    1.6284 H   0  0  0  0  0  0  0  0  0  0  0  0
    2.8231   -0.7490    2.3170 H   0  0  0  0  0  0  0  0  0  0  0  0
  1  2  1  0
  1  5  1  0
  1  6  1  0
  1  7  1  0
  2  3  2  3
  2  8  1  0
  3  4  1  0
  4  9  1  0
 10 11  1  0
 10 15  1  0
 10 16  1  0
 11 12  1  0
 11 17  1  0
 11 18  1  0
 12 13  1  0
 13 14  1  0
 13 19  1  0
 13 20  1  0
 14 21  1  0
 14 22  1  0
 14 23  1  0
M  RAD  1  10   2
M  END
>  <reaction>  (10) 
rmg_rxn_645

>  <mol_properties>  (10) 
{"2": {"label": "*0", "atom_type": "N3d"}, "3": {"label": "*1", "atom_type": "O2s"}, "8": {"label": "*2", "atom_type": "H0"}, "9": {"label": "*3", "atom_type": "Cs"}, "10": {"label": "*4", "atom_type": "Cs"}}

>  <type>  (10) 
unop_6

>  <geom_source>  (10) 
Heuristics

$$$$

     RDKit          3D

 23 21  0  0  0  0  0  0  0  0999 V2000
   -1.0315   -1.5459   -4.0047 C   0  0  0  0  0  0  0  0  0  0  0  0
   -1.0315   -1.5459   -2.5160 C   0  0  0  0  0  0  0  0  0  0  0  0
   -1.0315   -0.4538   -1.8792 N   0  0  0  0  0  0  0  0  0  0  0  0
   -1.0315   -0.6585   -0.5060 O   0  0  0  0  0  0  0  0  0  0  0  0
   -0.1521   -2.0697   -4.3865 H   0  0  0  0  0  0  0  0  0  0  0  0
   -1.9109   -2.0697   -4.3865 H   0  0  0  0  0  0  0  0  0  0  0  0
   -1.0315   -0.5262   -4.3861 H   0  0  0  0  0  0  0  0  0  0  0  0
   -1.0315   -2.4934   -1.9759 H   0  0  0  0  0  0  0  0  0  0  0  0
   -1.0315    0.4112   -0.0826 H   0  0  0  0  0  0  0  0  0  0  0  0
   -1.0315    1.6280    0.3989 C   0  0  0  0  0  3  0  0  0  0  0  0
    0.1942    1.8598    1.2518 C   0  0  0  0  0  0  0  0  0  0  0  0
    0.7099    0.6170    1.6576 O   0  0  0  0  0  0  0  0  0  0  0  0
    1.8581    0.7291    2.4601 C   0  0  0  0  0  0  0  0  0  0  0  0
    2.3290   -0.6558    2.8395 C   0  0  0  0  0  0  0  0  0  0  0  0
   -1.7937    1.0899    0.9636 H   0  0  0  0  0  0  0  0  0  0  0  0
   -1.4500    2.5810    0.0716 H   0  0  0  0  0  0  0  0  0  0  0  0
   -0.0603    2.4663    2.1337 H   0  0  0  0  0  0  0  0  0  0  0  0
    0.9566    2.4156    0.6860 H   0  0  0  0  0  0  0  0  0  0  0  0
    2.6468    1.2670    1.9135 H   0  0  0  0  0  0  0  0  0  0  0  0
    1.6300    1.3177    3.3611 H   0  0  0  0  0  0  0  0  0  0  0  0
    2.5695   -1.2352    1.9475 H   0  0  0  0  0  0  0  0  0  0  0  0
    3.2215   -0.5936    3.4642 H   0  0  0  0  0  0  0  0  0  0  0  0
    1.5532   -1.1845    3.3943 H   0  0  0  0  0  0  0  0  0  0  0  0
  1  2  1  0
  1  5  1  0
  1  6  1  0
  1  7  1  0
  2  3  2  3
  2  8  1  0
  3  4  1  0
  4  9  1  0
 10 11  1  0
 10 15  1  0
 10 16  1  0
 11 12  1  0
 11 17  1  0
 11 18  1  0
 12 13  1  0
 13 14  1  0
 13 19  1  0
 13 20  1  0
 14 21  1  0
 14 22  1  0
 14 23  1  0
M  RAD  1  10   2
M  END
>  <reaction>  (11) 
rmg_rxn_645

>  <mol_properties>  (11) 
{"2": {"label": "*0", "atom_type": "N3d"}, "3": {"label": "*1", "atom_type": "O2s"}, "8": {"label": "*2", "atom_type": "H0"}, "9": {"label": "*3", "atom_type": "Cs"}, "10": {"label": "*4", "atom_type": "Cs"}}

>  <type>  (11) 
unop_7

>  <geom_source>  (11) 
Heuristics

$$$$

     RDKit          3D

 23 21  0  0  0  0  0  0  0  0999 V2000
    1.0783   -2.6967   -2.8689 C   0  0  0  0  0  0  0  0  0  0  0  0
    1.0783   -2.6967   -1.3802 C   0  0  0  0  0  0  0  0  0  0  0  0
    1.0783   -1.6046   -0.7435 N   0  0  0  0  0  0  0  0  0  0  0  0
    1.0783   -1.8093    0.6297 O   0  0  0  0  0  0  0  0  0  0  0  0
    1.9577   -3.2205   -3.2507 H   0  0  0  0  0  0  0  0  0  0  0  0
    0.1989   -3.2205   -3.2507 H   0  0  0  0  0  0  0  0  0  0  0  0
    1.0783   -1.6770   -3.2503 H   0  0  0  0  0  0  0  0  0  0  0  0
    1.0783   -3.6442   -0.8401 H   0  0  0  0  0  0  0  0  0  0  0  0
    1.0783   -0.7396    1.0531 H   0  0  0  0  0  0  0  0  0  0  0  0
    1.0783    0.4772    1.5347 C   0  0  0  0  0  3  0  0  0  0  0  0
   -0.3371    0.9695    1.7295 C   0  0  0  0  0  0  0  0  0  0  0  0
   -0.6903    1.7859    0.6416 O   0  0  0  0  0  0  0  0  0  0  0  0
   -1.9972    2.2949    0.7323 C   0  0  0  0  0  0  0  0  0  0  0  0
   -2.2747    3.1541   -0.4794 C   0  0  0  0  0  0  0  0  0  0  0  0
    1.7706    1.3178    1.4767 H   0  0  0  0  0  0  0  0  0  0  0  0
    1.3751   -0.1601    2.3691 H   0  0  0  0  0  0  0  0  0  0  0  0
   -0.4206    1.5379    2.6677 H   0  0  0  0  0  0  0  0  0  0  0  0
   -1.0327    0.1204    1.8028 H   0  0  0  0  0  0  0  0  0  0  0  0
   -2.7191    1.4667    0.7898 H   0  0  0  0  0  0  0  0  0  0  0  0
   -2.1070    2.8843    1.6547 H   0  0  0  0  0  0  0  0  0  0  0  0
   -2.1805    2.5672   -1.3937 H   0  0  0  0  0  0  0  0  0  0  0  0
   -3.2859    3.5610   -0.4306 H   0  0  0  0  0  0  0  0  0  0  0  0
   -1.5688    3.9838   -0.5292 H   0  0  0  0  0  0  0  0  0  0  0  0
  1  2  1  0
  1  5  1  0
  1  6  1  0
  1  7  1  0
  2  3  2  3
  2  8  1  0
  3  4  1  0
  4  9  1  0
 10 11  1  0
 10 15  1  0
 10 16  1  0
 11 12  1  0
 11 17  1  0
 11 18  1  0
 12 13  1  0
 13 14  1  0
 13 19  1  0
 13 20  1  0
 14 21  1  0
 14 22  1  0
 14 23  1  0
M  RAD  1  10   2
M  END
>  <reaction>  (12) 
rmg_rxn_645

>  <mol_properties>  (12) 
{"2": {"label": "*0", "atom_type": "N3d"}, "3": {"label": "*1", "atom_type": "O2s"}, "8": {"label": "*2", "atom_type": "H0"}, "9": {"label": "*3", "atom_type": "Cs"}, "10": {"label": "*4", "atom_type": "Cs"}}

>  <type>  (12) 
unop_8

>  <geom_source>  (12) 
Heuristics

$$$$

     RDKit          3D

 23 21  0  0  0  0  0  0  0  0999 V2000
   -1.0086   -2.2982   -2.4179 C   0  0  0  0  0  0  0  0  0  0  0  0
   -1.0086   -2.2982   -0.9292 C   0  0  0  0  0  0  0  0  0  0  0  0
   -1.0086   -1.2061   -0.2924 N   0  0  0  0  0  0  0  0  0  0  0  0
   -1.0086   -1.4108    1.0808 O   0  0  0  0  0  0  0  0  0  0  0  0
   -0.1291   -2.8220   -2.7997 H   0  0  0  0  0  0  0  0  0  0  0  0
   -1.8880   -2.8220   -2.7997 H   0  0  0  0  0  0  0  0  0  0  0  0
   -1.0086   -1.2785   -2.7993 H   0  0  0  0  0  0  0  0  0  0  0  0
   -1.0086   -3.2457   -0.3891 H   0  0  0  0  0  0  0  0  0  0  0  0
   -1.0086   -0.3412    1.5041 H   0  0  0  0  0  0  0  0  0  0  0  0
   -1.0086    0.8757    1.9857 C   0  0  0  0  0  3  0  0  0  0  0  0
   -0.3009    1.8190    1.0408 C   0  0  0  0  0  0  0  0  0  0  0  0
    0.8546    1.1894    0.5474 O   0  0  0  0  0  0  0  0  0  0  0  0
    1.5848    1.9926   -0.3452 C   0  0  0  0  0  0  0  0  0  0  0  0
    2.8000    1.2262   -0.8137 C   0  0  0  0  0  0  0  0  0  0  0  0
   -0.3585    0.6124    2.8208 H   0  0  0  0  0  0  0  0  0  0  0  0
   -1.9108    1.3440    2.3822 H   0  0  0  0  0  0  0  0  0  0  0  0
   -0.0283    2.7500    1.5598 H   0  0  0  0  0  0  0  0  0  0  0  0
   -0.9626    2.0956    0.2066 H   0  0  0  0  0  0  0  0  0  0  0  0
    0.9529    2.2719   -1.2014 H   0  0  0  0  0  0  0  0  0  0  0  0
    1.8873    2.9263    0.1518 H   0  0  0  0  0  0  0  0  0  0  0  0
    2.5008    0.3076   -1.3196 H   0  0  0  0  0  0  0  0  0  0  0  0
    3.3835    1.8314   -1.5093 H   0  0  0  0  0  0  0  0  0  0  0  0
    3.4346    0.9616    0.0328 H   0  0  0  0  0  0  0  0  0  0  0  0
  1  2  1  0
  1  5  1  0
  1  6  1  0
  1  7  1  0
  2  3  2  3
  2  8  1  0
  3  4  1  0
  4  9  1  0
 10 11  1  0
 10 15  1  0
 10 16  1  0
 11 12  1  0
 11 17  1  0
 11 18  1  0
 12 13  1  0
 13 14  1  0
 13 19  1  0
 13 20  1  0
 14 21  1  0
 14 22  1  0
 14 23  1  0
M  RAD  1  10   2
M  END
>  <reaction>  (13) 
rmg_rxn_645

>  <mol_properties>  (13) 
{"2": {"label": "*0", "atom_type": "N3d"}, "3": {"label": "*1", "atom_type": "O2s"}, "8": {"label": "*2", "atom_type": "H0"}, "9": {"label": "*3", "atom_type": "Cs"}, "10": {"label": "*4", "atom_type": "Cs"}}

>  <type>  (13) 
unop_9

>  <geom_source>  (13) 
Heuristics

$$$$

     RDKit          3D

 23 21  0  0  0  0  0  0  0  0999 V2000
    0.6434   -2.8011   -2.3965 C   0  0  0  0  0  0  0  0  0  0  0  0
    0.6434   -2.8011   -0.9078 C   0  0  0  0  0  0  0  0  0  0  0  0
    0.6434   -1.7091   -0.2710 N   0  0  0  0  0  0  0  0  0  0  0  0
    0.6434   -1.9137    1.1022 O   0  0  0  0  0  0  0  0  0  0  0  0
    1.5228   -3.3250   -2.7783 H   0  0  0  0  0  0  0  0  0  0  0  0
   -0.2360   -3.3250   -2.7783 H   0  0  0  0  0  0  0  0  0  0  0  0
    0.6434   -1.7814   -2.7779 H   0  0  0  0  0  0  0  0  0  0  0  0
    0.6434   -3.7486   -0.3677 H   0  0  0  0  0  0  0  0  0  0  0  0
    0.6434   -0.8441    1.5255 H   0  0  0  0  0  0  0  0  0  0  0  0
    0.6434    0.3727    2.0071 C   0  0  0  0  0  3  0  0  0  0  0  0
   -0.5823    1.1255    1.5439 C   0  0  0  0  0  0  0  0  0  0  0  0
   -0.2764    1.8082    0.3542 O   0  0  0  0  0  0  0  0  0  0  0  0
   -1.3602    2.5420   -0.1576 C   0  0  0  0  0  0  0  0  0  0  0  0
   -0.9276    3.2337   -1.4296 C   0  0  0  0  0  0  0  0  0  0  0  0
    1.4684    1.0620    2.1905 H   0  0  0  0  0  0  0  0  0  0  0  0
    0.4293   -0.1662    2.9314 H   0  0  0  0  0  0  0  0  0  0  0  0
   -0.9078    1.8407    2.3138 H   0  0  0  0  0  0  0  0  0  0  0  0
   -1.4183    0.4309    1.3736 H   0  0  0  0  0  0  0  0  0  0  0  0
   -2.2085    1.8699   -0.3550 H   0  0  0  0  0  0  0  0  0  0  0  0
   -1.6980    3.2797    0.5853 H   0  0  0  0  0  0  0  0  0  0  0  0
   -0.6064    2.5024   -2.1721 H   0  0  0  0  0  0  0  0  0  0  0  0
   -1.7547    3.8109   -1.8461 H   0  0  0  0  0  0  0  0  0  0  0  0
   -0.0962    3.9113   -1.2323 H   0  0  0  0  0  0  0  0  0  0  0  0
  1  2  1  0
  1  5  1  0
  1  6  1  0
  1  7  1  0
  2  3  2  3
  2  8  1  0
  3  4  1  0
  4  9  1  0
 10 11  1  0
 10 15  1  0
 10 16  1  0
 11 12  1  0
 11 17  1  0
 11 18  1  0
 12 13  1  0
 13 14  1  0
 13 19  1  0
 13 20  1  0
 14 21  1  0
 14 22  1  0
 14 23  1  0
M  RAD  1  10   2
M  END
>  <reaction>  (14) 
rmg_rxn_645

>  <mol_properties>  (14) 
{"2": {"label": "*0", "atom_type": "N3d"}, "3": {"label": "*1", "atom_type": "O2s"}, "8": {"label": "*2", "atom_type": "H0"}, "9": {"label": "*3", "atom_type": "Cs"}, "10": {"label": "*4", "atom_type": "Cs"}}

>  <type>  (14) 
unop_10

>  <geom_source>  (14) 
Heuristics

$$$$

     RDKit          3D

 23 21  0  0  0  0  0  0  0  0999 V2000
   -0.3610   -1.4319   -4.4312 C   0  0  0  0  0  0  0  0  0  0  0  0
   -0.3610   -1.4319   -2.9426 C   0  0  0  0  0  0  0  0  0  0  0  0
   -0.3610   -0.3398   -2.3058 N   0  0  0  0  0  0  0  0  0  0  0  0
   -0.3610   -0.5445   -0.9326 O   0  0  0  0  0  0  0  0  0  0  0  0
    0.5185   -1.9557   -4.8130 H   0  0  0  0  0  0  0  0  0  0  0  0
   -1.2404   -1.9557   -4.8130 H   0  0  0  0  0  0  0  0  0  0  0  0
   -0.3610   -0.4122   -4.8126 H   0  0  0  0  0  0  0  0  0  0  0  0
   -0.3610   -2.3794   -2.4024 H   0  0  0  0  0  0  0  0  0  0  0  0
   -0.3610    0.5252   -0.5092 H   0  0  0  0  0  0  0  0  0  0  0  0
   -0.3610    1.7420   -0.0276 C   0  0  0  0  0  3  0  0  0  0  0  0
    0.3467    1.7832    1.3069 C   0  0  0  0  0  0  0  0  0  0  0  0
    0.1573    0.5545    1.9623 O   0  0  0  0  0  0  0  0  0  0  0  0
    0.7821    0.4954    3.2198 C   0  0  0  0  0  0  0  0  0  0  0  0
    0.5183   -0.8590    3.8358 C   0  0  0  0  0  0  0  0  0  0  0  0
   -1.4288    1.5699    0.1113 H   0  0  0  0  0  0  0  0  0  0  0  0
   -0.2275    2.6875   -0.5556 H   0  0  0  0  0  0  0  0  0  0  0  0
   -0.0473    2.6031    1.9257 H   0  0  0  0  0  0  0  0  0  0  0  0
    1.4214    1.9717    1.1664 H   0  0  0  0  0  0  0  0  0  0  0  0
    1.8637    0.6635    3.1096 H   0  0  0  0  0  0  0  0  0  0  0  0
    0.3950    1.2949    3.8689 H   0  0  0  0  0  0  0  0  0  0  0  0
    0.9147   -1.6516    3.2002 H   0  0  0  0  0  0  0  0  0  0  0  0
    0.9948   -0.9282    4.8150 H   0  0  0  0  0  0  0  0  0  0  0  0
   -0.5531   -1.0206    3.9591 H   0  0  0  0  0  0  0  0  0  0  0  0
  1  2  1  0
  1  5  1  0
  1  6  1  0
  1  7  1  0
  2  3  2  3
  2  8  1  0
  3  4  1  0
  4  9  1  0
 10 11  1  0
 10 15  1  0
 10 16  1  0
 11 12  1  0
 11 17  1  0
 11 18  1  0
 12 13  1  0
 13 14  1  0
 13 19  1  0
 13 20  1  0
 14 21  1  0
 14 22  1  0
 14 23  1  0
M  RAD  1  10   2
M  END
>  <reaction>  (15) 
rmg_rxn_645

>  <mol_properties>  (15) 
{"2": {"label": "*0", "atom_type": "N3d"}, "3": {"label": "*1", "atom_type": "O2s"}, "8": {"label": "*2", "atom_type": "H0"}, "9": {"label": "*3", "atom_type": "Cs"}, "10": {"label": "*4", "atom_type": "Cs"}}

>  <type>  (15) 
unop_11

>  <geom_source>  (15) 
Heuristics

$$$$

     RDKit          3D

 23 21  0  0  0  0  0  0  0  0999 V2000
   -0.5497   -2.5551   -2.1647 C   0  0  0  0  0  0  0  0  0  0  0  0
   -0.5497   -2.5551   -0.6760 C   0  0  0  0  0  0  0  0  0  0  0  0
   -0.5497   -1.4630   -0.0392 N   0  0  0  0  0  0  0  0  0  0  0  0
   -0.5497   -1.6677    1.3340 O   0  0  0  0  0  0  0  0  0  0  0  0
    0.3297   -3.0789   -2.5465 H   0  0  0  0  0  0  0  0  0  0  0  0
   -1.4291   -3.0789   -2.5465 H   0  0  0  0  0  0  0  0  0  0  0  0
   -0.5497   -1.5354   -2.5461 H   0  0  0  0  0  0  0  0  0  0  0  0
   -0.5497   -3.5026   -0.1359 H   0  0  0  0  0  0  0  0  0  0  0  0
   -0.5497   -0.5980    1.7573 H   0  0  0  0  0  0  0  0  0  0  0  0
   -0.5497    0.6188    2.2389 C   0  0  0  0  0  3  0  0  0  0  0  0
   -0.5497    1.6320    1.1177 C   0  0  0  0  0  0  0  0  0  0  0  0
    0.6011    1.4447    0.3331 O   0  0  0  0  0  0  0  0  0  0  0  0
    0.6914    2.3456   -0.7417 C   0  0  0  0  0  0  0  0  0  0  0  0
    1.9569    2.0603   -1.5166 C   0  0  0  0  0  0  0  0  0  0  0  0
    0.3352    0.7411    2.8644 H   0  0  0  0  0  0  0  0  0  0  0  0
   -1.4359    0.7453    2.8627 H   0  0  0  0  0  0  0  0  0  0  0  0
   -0.5647    2.6544    1.5236 H   0  0  0  0  0  0  0  0  0  0  0  0
   -1.4502    1.5174    0.4962 H   0  0  0  0  0  0  0  0  0  0  0  0
   -0.1895    2.2424   -1.3927 H   0  0  0  0  0  0  0  0  0  0  0  0
    0.6960    3.3794   -0.3653 H   0  0  0  0  0  0  0  0  0  0  0  0
    1.9468    1.0404   -1.9027 H   0  0  0  0  0  0  0  0  0  0  0  0
    2.0485    2.7491   -2.3578 H   0  0  0  0  0  0  0  0  0  0  0  0
    2.8317    2.1767   -0.8759 H   0  0  0  0  0  0  0  0  0  0  0  0
  1  2  1  0
  1  5  1  0
  1  6  1  0
  1  7  1  0
  2  3  2  3
  2  8  1  0
  3  4  1  0
  4  9  1  0
 10 11  1  0
 10 15  1  0
 10 16  1  0
 11 12  1  0
 11 17  1  0
 11 18  1  0
 12 13  1  0
 13 14  1  0
 13 19  1  0
 13 20  1  0
 14 21  1  0
 14 22  1  0
 14 23  1  0
M  RAD  1  10   2
M  END
>  <reaction>  (16) 
rmg_rxn_645

>  <mol_properties>  (16) 
{"2": {"label": "*0", "atom_type": "N3d"}, "3": {"label": "*1", "atom_type": "O2s"}, "8": {"label": "*2", "atom_type": "H0"}, "9": {"label": "*3", "atom_type": "Cs"}, "10": {"label": "*4", "atom_type": "Cs"}}

>  <type>  (16) 
unop_12

>  <geom_source>  (16) 
Heuristics

$$$$

     RDKit          3D

 23 21  0  0  0  0  0  0  0  0999 V2000
   -2.3943   -0.6848   -0.6397 O   0  0  0  0  0  0  0  0  0  0  0  0
    1.5661   -0.9815   -0.7586 O   0  0  0  0  0  1  0  0  0  0  0  0
    2.1657    0.0865   -0.1336 N   0  0  0  0  0  2  0  0  0  0  0  0
   -1.8128   -1.6318    0.2375 C   0  0  0  0  0  0  0  0  0  0  0  0
   -2.0267    0.6371   -0.2907 C   0  0  0  0  0  0  0  0  0  0  0  0
   -0.4999   -2.1504   -0.3379 C   0  0  0  0  0  0  0  0  0  0  0  0
   -3.0699    1.2515    0.6365 C   0  0  0  0  0  0  0  0  0  0  0  0
    3.9912    1.6286    0.2046 C   0  0  0  0  0  0  0  0  0  0  0  0
    3.3511    0.4695   -0.4799 C   0  0  0  0  0  3  0  0  0  0  0  0
   -1.6526   -1.2436    1.2705 H   0  0  0  0  0  0  0  0  0  0  0  0
   -2.5127   -2.4890    0.3293 H   0  0  0  0  0  0  0  0  0  0  0  0
   -1.9940    1.2407   -1.2221 H   0  0  0  0  0  0  0  0  0  0  0  0
   -1.0128    0.7105    0.1678 H   0  0  0  0  0  0  0  0  0  0  0  0
   -0.6716   -2.5818   -1.3469 H   0  0  0  0  0  0  0  0  0  0  0  0
   -0.0868   -2.9397    0.3249 H   0  0  0  0  0  0  0  0  0  0  0  0
    0.3008   -1.2587   -0.4223 H   0  0  0  0  0  0  0  0  0  0  0  0
   -4.0705    1.2204    0.1555 H   0  0  0  0  0  0  0  0  0  0  0  0
   -3.1106    0.6950    1.5961 H   0  0  0  0  0  0  0  0  0  0  0  0
   -2.8056    2.3090    0.8482 H   0  0  0  0  0  0  0  0  0  0  0  0
    3.3708    2.5383    0.0630 H   0  0  0  0  0  0  0  0  0  0  0  0
    4.0918    1.4158    1.2896 H   0  0  0  0  0  0  0  0  0  0  0  0
    4.9995    1.8082   -0.2237 H   0  0  0  0  0  0  0  0  0  0  0  0
    3.8837   -0.0496   -1.2681 H   0  0  0  0  0  0  0  0  0  0  0  0
  1  5  1  0
  1  4  1  0
  2  3  1  0
  3  9  1  0
  4 11  1  0
  4  6  1  0
  4 10  1  0
  5 13  1  0
  5  7  1  0
  5 12  1  0
  6 14  1  0
  6 16  1  0
  6 15  1  0
  7 18  1  0
  7 19  1  0
  7 17  1  0
  8  9  1  0
  8 22  1  0
  8 21  1  0
  8 20  1  0
  9 23  1  0
M  RAD  3   2   2   3   2   9   2
M  END
>  <reaction>  (17) 
rmg_rxn_645

>  <mol_properties>  (17) 
{"2": {"label": "*0", "atom_type": "N3d"}, "3": {"label": "*1", "atom_type": "O2s"}, "8": {"label": "*2", "atom_type": "H0"}, "9": {"label": "*3", "atom_type": "Cs"}, "10": {"label": "*4", "atom_type": "Cs"}}

>  <type>  (17) 
unop_13

>  <geom_source>  (17) 
AutoTST

$$$$

     RDKit          3D

 23 21  0  0  0  0  0  0  0  0999 V2000
    0.0437   -2.7499   -2.1463 C   0  0  0  0  0  0  0  0  0  0  0  0
    0.0437   -2.7499   -0.6576 C   0  0  0  0  0  0  0  0  0  0  0  0
    0.0437   -1.6578   -0.0208 N   0  0  0  0  0  0  0  0  0  0  0  0
    0.0437   -1.8625    1.3524 O   0  0  0  0  0  0  0  0  0  0  0  0
    0.9232   -3.2737   -2.5281 H   0  0  0  0  0  0  0  0  0  0  0  0
   -0.8357   -3.2737   -2.5281 H   0  0  0  0  0  0  0  0  0  0  0  0
    0.0437   -1.7302   -2.5277 H   0  0  0  0  0  0  0  0  0  0  0  0
    0.0437   -3.6974   -0.1175 H   0  0  0  0  0  0  0  0  0  0  0  0
    0.0437   -0.7929    1.7757 H   0  0  0  0  0  0  0  0  0  0  0  0
    0.0437    0.4240    2.2573 C   0  0  0  0  0  3  0  0  0  0  0  0
   -0.6639    1.3673    1.3124 C   0  0  0  0  0  0  0  0  0  0  0  0
    0.2005    1.6833    0.2504 O   0  0  0  0  0  0  0  0  0  0  0  0
   -0.3713    2.5607   -0.6868 C   0  0  0  0  0  0  0  0  0  0  0  0
    0.6347    2.8342   -1.7808 C   0  0  0  0  0  0  0  0  0  0  0  0
    0.9469    0.8879    2.6552 H   0  0  0  0  0  0  0  0  0  0  0  0
   -0.6095    0.1641    3.0918 H   0  0  0  0  0  0  0  0  0  0  0  0
   -0.9629    2.2859    1.8388 H   0  0  0  0  0  0  0  0  0  0  0  0
   -1.5827    0.9040    0.9232 H   0  0  0  0  0  0  0  0  0  0  0  0
   -1.2854    2.1162   -1.1077 H   0  0  0  0  0  0  0  0  0  0  0  0
   -0.6657    3.4982   -0.1922 H   0  0  0  0  0  0  0  0  0  0  0  0
    0.9161    1.9073   -2.2816 H   0  0  0  0  0  0  0  0  0  0  0  0
    0.2120    3.5147   -2.5216 H   0  0  0  0  0  0  0  0  0  0  0  0
    1.5355    3.2884   -1.3665 H   0  0  0  0  0  0  0  0  0  0  0  0
  1  2  1  0
  1  5  1  0
  1  6  1  0
  1  7  1  0
  2  3  2  3
  2  8  1  0
  3  4  1  0
  4  9  1  0
 10 11  1  0
 10 15  1  0
 10 16  1  0
 11 12  1  0
 11 17  1  0
 11 18  1  0
 12 13  1  0
 13 14  1  0
 13 19  1  0
 13 20  1  0
 14 21  1  0
 14 22  1  0
 14 23  1  0
M  RAD  1  10   2
M  END
>  <reaction>  (18) 
rmg_rxn_645

>  <mol_properties>  (18) 
{"2": {"label": "*0", "atom_type": "N3d"}, "3": {"label": "*1", "atom_type": "O2s"}, "8": {"label": "*2", "atom_type": "H0"}, "9": {"label": "*3", "atom_type": "Cs"}, "10": {"label": "*4", "atom_type": "Cs"}}

>  <type>  (18) 
unop_14

>  <geom_source>  (18) 
gaussian_log

$$$$
