
     RDKit          3D

 15 14  0  0  0  0  0  0  0  0999 V2000
   -2.0554    0.0723   -0.4910 C   0  0  0  0  0  0  0  0  0  0  0  0
   -0.7461   -0.6266   -0.8178 C   0  0  0  0  0  0  0  0  0  0  0  0
    0.3249    0.2591   -1.9782 S   0  0  0  0  0  0  0  0  0  0  0  0
   -0.7172    0.3642   -3.4551 C   0  0  0  0  0  0  0  0  0  0  0  0
   -1.1375   -0.9737   -4.0409 C   0  0  0  0  0  0  0  0  0  0  0  0
   -2.7005    0.1427   -1.3684 H   0  0  0  0  0  0  0  0  0  0  0  0
   -2.6016   -0.4848    0.2733 H   0  0  0  0  0  0  0  0  0  0  0  0
   -1.8758    1.0825   -0.1213 H   0  0  0  0  0  0  0  0  0  0  0  0
   -0.1320   -0.7246    0.0789 H   0  0  0  0  0  0  0  0  0  0  0  0
   -0.9254   -1.6374   -1.1879 H   0  0  0  0  0  0  0  0  0  0  0  0
   -1.5873    0.9874   -3.2422 H   0  0  0  0  0  0  0  0  0  0  0  0
   -0.1021    0.9161   -4.1678 H   0  0  0  0  0  0  0  0  0  0  0  0
   -1.7876   -1.5224   -3.3574 H   0  0  0  0  0  0  0  0  0  0  0  0
   -0.2676   -1.5962   -4.2534 H   0  0  0  0  0  0  0  0  0  0  0  0
   -1.6916   -0.8229   -4.9700 H   0  0  0  0  0  0  0  0  0  0  0  0
  1  2  1  0
  1  6  1  0
  1  7  1  0
  1  8  1  0
  2  3  1  0
  2  9  1  0
  2 10  1  0
  3  4  1  0
  4  5  1  0
  4 11  1  0
  4 12  1  0
  5 13  1  0
  5 14  1  0
  5 15  1  0
M  END
>  <reaction>  (1) 
rmg_rxn_355

>  <mol_properties>  (1) 
{"0": {"label": "donator", "atom_type": "Cs"}, "5": {"label": "d_hydrogen", "atom_type": "H0"}}

>  <type>  (1) 
r1h

$$$$

     RDKit          3D

  8  7  0  0  0  0  0  0  0  0999 V2000
    1.3778   -0.6812    0.2772 C   0  0  0  0  0  3  0  0  0  0  0  0
    0.4890    0.2108   -0.0590 C   0  0  0  0  0  0  0  0  0  0  0  0
   -1.0010    0.0286   -0.0323 C   0  0  0  0  0  0  0  0  0  0  0  0
    2.4535   -0.7507    0.3287 H   0  0  0  0  0  0  0  0  0  0  0  0
    0.8447    1.1899   -0.3945 H   0  0  0  0  0  0  0  0  0  0  0  0
   -1.4635    0.7638    0.6301 H   0  0  0  0  0  0  0  0  0  0  0  0
   -1.2709   -0.9687    0.3117 H   0  0  0  0  0  0  0  0  0  0  0  0
   -1.4218    0.1801   -1.0289 H   0  0  0  0  0  0  0  0  0  0  0  0
  1  2  2  3
  1  4  1  0
  2  3  1  0
  2  5  1  0
  3  6  1  0
  3  7  1  0
  3  8  1  0
M  RAD  1   1   2
M  END
>  <reaction>  (2) 
rmg_rxn_355

>  <mol_properties>  (2) 
{"0": {"label": "acceptor", "atom_type": "Cd"}}

>  <type>  (2) 
r2

$$$$

     RDKit          3D

  9  8  0  0  0  0  0  0  0  0999 V2000
    1.1303   -0.2933   -0.7510 C   0  0  0  0  0  0  0  0  0  0  0  0
    0.2866    0.4560   -0.0588 C   0  0  0  0  0  0  0  0  0  0  0  0
   -0.9719   -0.0331    0.5823 C   0  0  0  0  0  0  0  0  0  0  0  0
    2.0274    0.1230   -1.1916 H   0  0  0  0  0  0  0  0  0  0  0  0
    0.9532   -1.3530   -0.9023 H   0  0  0  0  0  0  0  0  0  0  0  0
    0.5065    1.5132    0.0659 H   0  0  0  0  0  0  0  0  0  0  0  0
   -0.9526    0.1426    1.6610 H   0  0  0  0  0  0  0  0  0  0  0  0
   -1.1182   -1.1002    0.4106 H   0  0  0  0  0  0  0  0  0  0  0  0
   -1.8412    0.5010    0.1901 H   0  0  0  0  0  0  0  0  0  0  0  0
  1  2  2  3
  1  4  1  0
  1  5  1  0
  2  3  1  0
  2  6  1  0
  3  7  1  0
  3  8  1  0
  3  9  1  0
M  END
>  <reaction>  (3) 
rmg_rxn_355

>  <mol_properties>  (3) 
{"0": {"label": "acceptor", "atom_type": "Cd"}, "8": {"label": "a_hydrogen", "atom_type": "H0"}}

>  <type>  (3) 
r2h

$$$$

     RDKit          3D

 23 21  0  0  0  0  0  0  0  0999 V2000
    1.7273   -1.1806    0.1991 C   0  0  0  0  0  3  0  0  0  0  0  0
    2.0251   -1.1903   -1.0813 C   0  0  0  0  0  0  0  0  0  0  0  0
    2.3676   -2.4062   -1.8911 C   0  0  0  0  0  0  0  0  0  0  0  0
    1.6878   -2.0259    0.8783 H   0  0  0  0  0  0  0  0  0  0  0  0
    2.0237   -0.2448   -1.6232 H   0  0  0  0  0  0  0  0  0  0  0  0
    1.6553   -2.5333   -2.7103 H   0  0  0  0  0  0  0  0  0  0  0  0
    2.3550   -3.3086   -1.2798 H   0  0  0  0  0  0  0  0  0  0  0  0
    3.3590   -2.3049   -2.3392 H   0  0  0  0  0  0  0  0  0  0  0  0
    1.1877    1.2695    1.1205 C   0  0  0  0  0  0  0  0  0  0  0  0
    0.0458    1.8602    0.3318 C   0  0  0  0  0  0  0  0  0  0  0  0
   -1.6120    1.3379    0.8337 S   0  0  0  0  0  0  0  0  0  0  0  0
   -1.6540   -0.3971    0.3184 C   0  0  0  0  0  0  0  0  0  0  0  0
   -1.6437   -0.6167   -1.1843 C   0  0  0  0  0  0  0  0  0  0  0  0
    1.4066    0.0591    0.7481 H   0  0  0  0  0  0  0  0  0  0  0  0
    2.1432    1.7509    0.9092 H   0  0  0  0  0  0  0  0  0  0  0  0
    0.9998    1.2057    2.1910 H   0  0  0  0  0  0  0  0  0  0  0  0
    0.0204    2.9459    0.4645 H   0  0  0  0  0  0  0  0  0  0  0  0
    0.1785    1.6876   -0.7387 H   0  0  0  0  0  0  0  0  0  0  0  0
   -0.8319   -0.9330    0.7938 H   0  0  0  0  0  0  0  0  0  0  0  0
   -2.5794   -0.7772    0.7548 H   0  0  0  0  0  0  0  0  0  0  0  0
   -0.7159   -0.2561   -1.6298 H   0  0  0  0  0  0  0  0  0  0  0  0
   -2.4784   -0.1008   -1.6600 H   0  0  0  0  0  0  0  0  0  0  0  0
   -1.7175   -1.6832   -1.4099 H   0  0  0  0  0  0  0  0  0  0  0  0
  1  2  2  3
  1  4  1  0
  2  3  1  0
  2  5  1  0
  3  6  1  0
  3  7  1  0
  3  8  1  0
  9 10  1  0
  9 14  1  0
  9 15  1  0
  9 16  1  0
 10 11  1  0
 10 17  1  0
 10 18  1  0
 11 12  1  0
 12 13  1  0
 12 19  1  0
 12 20  1  0
 13 21  1  0
 13 22  1  0
 13 23  1  0
M  RAD  1   1   2
M  END
>  <reaction>  (4) 
rmg_rxn_355

>  <mol_properties>  (4) 
{"0": {"label": "*3", "atom_type": "Cd"}, "1": {"label": "*4", "atom_type": "Cd"}, "8": {"label": "*1", "atom_type": "Cs"}, "9": {"label": "*0", "atom_type": "Cs"}, "13": {"label": "*2", "atom_type": "H0"}}

>  <type>  (4) 
ts

$$$$

     RDKit          3D

 23 21  0  0  0  0  0  0  0  0999 V2000
    1.1718   -1.1274   -0.3012 C   0  0  0  0  0  0  0  0  0  0  0  0
    2.1404   -1.4899   -1.1275 C   0  0  0  0  0  0  0  0  0  0  0  0
    2.8710   -2.7930   -1.0781 C   0  0  0  0  0  0  0  0  0  0  0  0
    0.8342   -1.7808    0.4964 H   0  0  0  0  0  0  0  0  0  0  0  0
    2.4447   -0.8013   -1.9116 H   0  0  0  0  0  0  0  0  0  0  0  0
    2.7550   -3.3398   -2.0174 H   0  0  0  0  0  0  0  0  0  0  0  0
    2.5068   -3.4237   -0.2661 H   0  0  0  0  0  0  0  0  0  0  0  0
    3.9428   -2.6327   -0.9354 H   0  0  0  0  0  0  0  0  0  0  0  0
    1.1211    1.2436    0.7858 C   0  0  0  0  0  3  0  0  0  0  0  0
   -0.1398    2.0025    0.4066 C   0  0  0  0  0  0  0  0  0  0  0  0
   -1.6804    1.2886    1.0352 S   0  0  0  0  0  0  0  0  0  0  0  0
   -1.6804   -0.3525    0.2703 C   0  0  0  0  0  0  0  0  0  0  0  0
   -1.6804   -0.3525   -1.2494 C   0  0  0  0  0  0  0  0  0  0  0  0
    1.1466    0.0534    0.2402 H   0  0  0  0  0  0  0  0  0  0  0  0
    2.0058    1.7820    0.4389 H   0  0  0  0  0  0  0  0  0  0  0  0
    1.1918    1.1216    1.8672 H   0  0  0  0  0  0  0  0  0  0  0  0
   -0.1247    3.0057    0.8359 H   0  0  0  0  0  0  0  0  0  0  0  0
   -0.2110    2.1247   -0.6755 H   0  0  0  0  0  0  0  0  0  0  0  0
   -0.8442   -0.9352    0.6603 H   0  0  0  0  0  0  0  0  0  0  0  0
   -2.5916   -0.8164    0.6516 H   0  0  0  0  0  0  0  0  0  0  0  0
   -0.7574    0.0711   -1.6489 H   0  0  0  0  0  0  0  0  0  0  0  0
   -2.5161    0.2300   -1.6389 H   0  0  0  0  0  0  0  0  0  0  0  0
   -1.7630   -1.3737   -1.6281 H   0  0  0  0  0  0  0  0  0  0  0  0
  1  2  2  3
  1  4  1  0
  1 14  1  0
  2  3  1  0
  2  5  1  0
  3  6  1  0
  3  7  1  0
  3  8  1  0
  9 10  1  0
  9 15  1  0
  9 16  1  0
 10 11  1  0
 10 17  1  0
 10 18  1  0
 11 12  1  0
 12 13  1  0
 12 19  1  0
 12 20  1  0
 13 21  1  0
 13 22  1  0
 13 23  1  0
M  RAD  1   9   2
M  END
>  <reaction>  (5) 
rmg_rxn_355

>  <mol_properties>  (5) 
{"0": {"label": "*3", "atom_type": "Cd"}, "1": {"label": "*4", "atom_type": "Cd"}, "8": {"label": "*1", "atom_type": "Cs"}, "9": {"label": "*0", "atom_type": "Cs"}, "13": {"label": "*2", "atom_type": "H0"}}

>  <type>  (5) 
unop_1

>  <geom_source>  (5) 
Heuristics

$$$$

     RDKit          3D

 23 21  0  0  0  0  0  0  0  0999 V2000
    1.5590   -1.1681   -0.1181 C   0  0  0  0  0  0  0  0  0  0  0  0
    0.9725   -1.4101   -1.2799 C   0  0  0  0  0  0  0  0  0  0  0  0
    1.2501   -2.5897   -2.1548 C   0  0  0  0  0  0  0  0  0  0  0  0
    2.3088   -1.8389    0.2880 H   0  0  0  0  0  0  0  0  0  0  0  0
    0.2269   -0.7089   -1.6461 H   0  0  0  0  0  0  0  0  0  0  0  0
    0.3421   -3.1765   -2.3162 H   0  0  0  0  0  0  0  0  0  0  0  0
    2.0070   -3.2415   -1.7169 H   0  0  0  0  0  0  0  0  0  0  0  0
    1.5994   -2.2697   -3.1399 H   0  0  0  0  0  0  0  0  0  0  0  0
    1.5083    1.2030    0.9688 C   0  0  0  0  0  3  0  0  0  0  0  0
    0.2474    1.9619    0.5896 C   0  0  0  0  0  0  0  0  0  0  0  0
   -1.2932    1.2479    1.2182 S   0  0  0  0  0  0  0  0  0  0  0  0
   -1.2932   -0.3931    0.4533 C   0  0  0  0  0  0  0  0  0  0  0  0
   -1.2932   -0.3931   -1.0664 C   0  0  0  0  0  0  0  0  0  0  0  0
    1.5337    0.0128    0.4232 H   0  0  0  0  0  0  0  0  0  0  0  0
    2.3930    1.7414    0.6219 H   0  0  0  0  0  0  0  0  0  0  0  0
    1.5789    1.0810    2.0502 H   0  0  0  0  0  0  0  0  0  0  0  0
    0.2624    2.9650    1.0189 H   0  0  0  0  0  0  0  0  0  0  0  0
    0.1762    2.0841   -0.4924 H   0  0  0  0  0  0  0  0  0  0  0  0
   -0.4570   -0.9758    0.8434 H   0  0  0  0  0  0  0  0  0  0  0  0
   -2.2044   -0.8570    0.8346 H   0  0  0  0  0  0  0  0  0  0  0  0
   -0.3702    0.0304   -1.4658 H   0  0  0  0  0  0  0  0  0  0  0  0
   -2.1289    0.1893   -1.4558 H   0  0  0  0  0  0  0  0  0  0  0  0
   -1.3758   -1.4143   -1.4451 H   0  0  0  0  0  0  0  0  0  0  0  0
  1  2  2  3
  1  4  1  0
  1 14  1  0
  2  3  1  0
  2  5  1  0
  3  6  1  0
  3  7  1  0
  3  8  1  0
  9 10  1  0
  9 15  1  0
  9 16  1  0
 10 11  1  0
 10 17  1  0
 10 18  1  0
 11 12  1  0
 12 13  1  0
 12 19  1  0
 12 20  1  0
 13 21  1  0
 13 22  1  0
 13 23  1  0
M  RAD  1   9   2
M  END
>  <reaction>  (6) 
rmg_rxn_355

>  <mol_properties>  (6) 
{"0": {"label": "*3", "atom_type": "Cd"}, "1": {"label": "*4", "atom_type": "Cd"}, "8": {"label": "*1", "atom_type": "Cs"}, "9": {"label": "*0", "atom_type": "Cs"}, "13": {"label": "*2", "atom_type": "H0"}}

>  <type>  (6) 
unop_2

>  <geom_source>  (6) 
Heuristics

$$$$

     RDKit          3D

 23 21  0  0  0  0  0  0  0  0999 V2000
    1.1896   -1.0592   -0.4204 C   0  0  0  0  0  0  0  0  0  0  0  0
    2.3301   -1.6512   -0.7381 C   0  0  0  0  0  0  0  0  0  0  0  0
    2.6078   -3.1135   -0.6019 C   0  0  0  0  0  0  0  0  0  0  0  0
    0.3506   -1.6221   -0.0250 H   0  0  0  0  0  0  0  0  0  0  0  0
    3.1427   -1.0454   -1.1309 H   0  0  0  0  0  0  0  0  0  0  0  0
    2.8666   -3.5520   -1.5691 H   0  0  0  0  0  0  0  0  0  0  0  0
    1.7448   -3.6477   -0.2024 H   0  0  0  0  0  0  0  0  0  0  0  0
    3.4582   -3.2877    0.0624 H   0  0  0  0  0  0  0  0  0  0  0  0
    1.1388    1.3119    0.6665 C   0  0  0  0  0  3  0  0  0  0  0  0
   -0.1221    2.0708    0.2873 C   0  0  0  0  0  0  0  0  0  0  0  0
   -1.6627    1.3568    0.9159 S   0  0  0  0  0  0  0  0  0  0  0  0
   -1.6627   -0.2842    0.1510 C   0  0  0  0  0  0  0  0  0  0  0  0
   -1.6627   -0.2842   -1.3687 C   0  0  0  0  0  0  0  0  0  0  0  0
    1.1643    0.1217    0.1209 H   0  0  0  0  0  0  0  0  0  0  0  0
    2.0236    1.8503    0.3196 H   0  0  0  0  0  0  0  0  0  0  0  0
    1.2095    1.1899    1.7479 H   0  0  0  0  0  0  0  0  0  0  0  0
   -0.1070    3.0739    0.7166 H   0  0  0  0  0  0  0  0  0  0  0  0
   -0.1932    2.1930   -0.7947 H   0  0  0  0  0  0  0  0  0  0  0  0
   -0.8265   -0.8669    0.5411 H   0  0  0  0  0  0  0  0  0  0  0  0
   -2.5739   -0.7481    0.5323 H   0  0  0  0  0  0  0  0  0  0  0  0
   -0.7397    0.1393   -1.7681 H   0  0  0  0  0  0  0  0  0  0  0  0
   -2.4984    0.2982   -1.7581 H   0  0  0  0  0  0  0  0  0  0  0  0
   -1.7452   -1.3054   -1.7474 H   0  0  0  0  0  0  0  0  0  0  0  0
  1  2  2  3
  1  4  1  0
  1 14  1  0
  2  3  1  0
  2  5  1  0
  3  6  1  0
  3  7  1  0
  3  8  1  0
  9 10  1  0
  9 15  1  0
  9 16  1  0
 10 11  1  0
 10 17  1  0
 10 18  1  0
 11 12  1  0
 12 13  1  0
 12 19  1  0
 12 20  1  0
 13 21  1  0
 13 22  1  0
 13 23  1  0
M  RAD  1   9   2
M  END
>  <reaction>  (7) 
rmg_rxn_355

>  <mol_properties>  (7) 
{"0": {"label": "*3", "atom_type": "Cd"}, "1": {"label": "*4", "atom_type": "Cd"}, "8": {"label": "*1", "atom_type": "Cs"}, "9": {"label": "*0", "atom_type": "Cs"}, "13": {"label": "*2", "atom_type": "H0"}}

>  <type>  (7) 
unop_3

>  <geom_source>  (7) 
Heuristics

$$$$

     RDKit          3D

 23 21  0  0  0  0  0  0  0  0999 V2000
    1.6431   -0.9920   -0.5305 C   0  0  0  0  0  0  0  0  0  0  0  0
    0.7015   -1.8884   -0.2813 C   0  0  0  0  0  0  0  0  0  0  0  0
    0.9115   -3.3677   -0.2378 C   0  0  0  0  0  0  0  0  0  0  0  0
    2.6683   -1.2877   -0.7269 H   0  0  0  0  0  0  0  0  0  0  0  0
   -0.3117   -1.5442   -0.0903 H   0  0  0  0  0  0  0  0  0  0  0  0
    0.6387   -3.7706    0.7410 H   0  0  0  0  0  0  0  0  0  0  0  0
    1.9512   -3.6288   -0.4392 H   0  0  0  0  0  0  0  0  0  0  0  0
    0.2810   -3.8719   -0.9746 H   0  0  0  0  0  0  0  0  0  0  0  0
    1.5924    1.3791    0.5564 C   0  0  0  0  0  3  0  0  0  0  0  0
    0.3314    2.1379    0.1772 C   0  0  0  0  0  0  0  0  0  0  0  0
   -1.2091    1.4240    0.8058 S   0  0  0  0  0  0  0  0  0  0  0  0
   -1.2091   -0.2171    0.0409 C   0  0  0  0  0  0  0  0  0  0  0  0
   -1.2091   -0.2171   -1.4788 C   0  0  0  0  0  0  0  0  0  0  0  0
    1.6178    0.1889    0.0108 H   0  0  0  0  0  0  0  0  0  0  0  0
    2.4771    1.9175    0.2095 H   0  0  0  0  0  0  0  0  0  0  0  0
    1.6630    1.2570    1.6378 H   0  0  0  0  0  0  0  0  0  0  0  0
    0.3465    3.1411    0.6065 H   0  0  0  0  0  0  0  0  0  0  0  0
    0.2603    2.2601   -0.9048 H   0  0  0  0  0  0  0  0  0  0  0  0
   -0.3729   -0.7997    0.4310 H   0  0  0  0  0  0  0  0  0  0  0  0
   -2.1204   -0.6809    0.4222 H   0  0  0  0  0  0  0  0  0  0  0  0
   -0.2861    0.2065   -1.8782 H   0  0  0  0  0  0  0  0  0  0  0  0
   -2.0449    0.3654   -1.8682 H   0  0  0  0  0  0  0  0  0  0  0  0
   -1.2917   -1.2383   -1.8575 H   0  0  0  0  0  0  0  0  0  0  0  0
  1  2  2  3
  1  4  1  0
  1 14  1  0
  2  3  1  0
  2  5  1  0
  3  6  1  0
  3  7  1  0
  3  8  1  0
  9 10  1  0
  9 15  1  0
  9 16  1  0
 10 11  1  0
 10 17  1  0
 10 18  1  0
 11 12  1  0
 12 13  1  0
 12 19  1  0
 12 20  1  0
 13 21  1  0
 13 22  1  0
 13 23  1  0
M  RAD  1   9   2
M  END
>  <reaction>  (8) 
rmg_rxn_355

>  <mol_properties>  (8) 
{"0": {"label": "*3", "atom_type": "Cd"}, "1": {"label": "*4", "atom_type": "Cd"}, "8": {"label": "*1", "atom_type": "Cs"}, "9": {"label": "*0", "atom_type": "Cs"}, "13": {"label": "*2", "atom_type": "H0"}}

>  <type>  (8) 
unop_4

>  <geom_source>  (8) 
Heuristics

$$$$

     RDKit          3D

 23 21  0  0  0  0  0  0  0  0999 V2000
    1.2373   -1.0187   -0.4446 C   0  0  0  0  0  0  0  0  0  0  0  0
    2.2479   -1.8503   -0.2458 C   0  0  0  0  0  0  0  0  0  0  0  0
    2.3599   -3.2229   -0.8267 C   0  0  0  0  0  0  0  0  0  0  0  0
    0.3925   -1.2934   -1.0674 H   0  0  0  0  0  0  0  0  0  0  0  0
    3.0724   -1.5305    0.3864 H   0  0  0  0  0  0  0  0  0  0  0  0
    3.2596   -3.3130   -1.4410 H   0  0  0  0  0  0  0  0  0  0  0  0
    1.4955   -3.4655   -1.4460 H   0  0  0  0  0  0  0  0  0  0  0  0
    2.4394   -3.9742   -0.0368 H   0  0  0  0  0  0  0  0  0  0  0  0
    1.1866    1.3524    0.6424 C   0  0  0  0  0  3  0  0  0  0  0  0
   -0.0744    2.1112    0.2632 C   0  0  0  0  0  0  0  0  0  0  0  0
   -1.6149    1.3973    0.8918 S   0  0  0  0  0  0  0  0  0  0  0  0
   -1.6149   -0.2438    0.1269 C   0  0  0  0  0  0  0  0  0  0  0  0
   -1.6149   -0.2438   -1.3928 C   0  0  0  0  0  0  0  0  0  0  0  0
    1.2120    0.1621    0.0968 H   0  0  0  0  0  0  0  0  0  0  0  0
    2.0713    1.8908    0.2955 H   0  0  0  0  0  0  0  0  0  0  0  0
    1.2572    1.2303    1.7238 H   0  0  0  0  0  0  0  0  0  0  0  0
   -0.0593    3.1144    0.6925 H   0  0  0  0  0  0  0  0  0  0  0  0
   -0.1455    2.2334   -0.8189 H   0  0  0  0  0  0  0  0  0  0  0  0
   -0.7788   -0.8264    0.5169 H   0  0  0  0  0  0  0  0  0  0  0  0
   -2.5262   -0.7077    0.5082 H   0  0  0  0  0  0  0  0  0  0  0  0
   -0.6919    0.1798   -1.7923 H   0  0  0  0  0  0  0  0  0  0  0  0
   -2.4507    0.3387   -1.7823 H   0  0  0  0  0  0  0  0  0  0  0  0
   -1.6975   -1.2650   -1.7715 H   0  0  0  0  0  0  0  0  0  0  0  0
  1  2  2  3
  1  4  1  0
  1 14  1  0
  2  3  1  0
  2  5  1  0
  3  6  1  0
  3  7  1  0
  3  8  1  0
  9 10  1  0
  9 15  1  0
  9 16  1  0
 10 11  1  0
 10 17  1  0
 10 18  1  0
 11 12  1  0
 12 13  1  0
 12 19  1  0
 12 20  1  0
 13 21  1  0
 13 22  1  0
 13 23  1  0
M  RAD  1   9   2
M  END
>  <reaction>  (9) 
rmg_rxn_355

>  <mol_properties>  (9) 
{"0": {"label": "*3", "atom_type": "Cd"}, "1": {"label": "*4", "atom_type": "Cd"}, "8": {"label": "*1", "atom_type": "Cs"}, "9": {"label": "*0", "atom_type": "Cs"}, "13": {"label": "*2", "atom_type": "H0"}}

>  <type>  (9) 
unop_5

>  <geom_source>  (9) 
Heuristics

$$$$

     RDKit          3D

 23 21  0  0  0  0  0  0  0  0999 V2000
    1.5014   -0.9731   -0.6094 C   0  0  0  0  0  0  0  0  0  0  0  0
    0.9877   -2.0275    0.0044 C   0  0  0  0  0  0  0  0  0  0  0  0
    1.6147   -3.3834    0.0556 C   0  0  0  0  0  0  0  0  0  0  0  0
    2.4487   -1.0300   -1.1353 H   0  0  0  0  0  0  0  0  0  0  0  0
    0.0357   -1.9218    0.5182 H   0  0  0  0  0  0  0  0  0  0  0  0
    1.7976   -3.6884    1.0891 H   0  0  0  0  0  0  0  0  0  0  0  0
    2.5635   -3.4045   -0.4820 H   0  0  0  0  0  0  0  0  0  0  0  0
    0.9532   -4.1345   -0.3838 H   0  0  0  0  0  0  0  0  0  0  0  0
    1.4506    1.3980    0.4775 C   0  0  0  0  0  3  0  0  0  0  0  0
    0.1897    2.1569    0.0983 C   0  0  0  0  0  0  0  0  0  0  0  0
   -1.3509    1.4429    0.7269 S   0  0  0  0  0  0  0  0  0  0  0  0
   -1.3509   -0.1981   -0.0380 C   0  0  0  0  0  0  0  0  0  0  0  0
   -1.3509   -0.1981   -1.5577 C   0  0  0  0  0  0  0  0  0  0  0  0
    1.4761    0.2078   -0.0681 H   0  0  0  0  0  0  0  0  0  0  0  0
    2.3354    1.9364    0.1306 H   0  0  0  0  0  0  0  0  0  0  0  0
    1.5213    1.2760    1.5589 H   0  0  0  0  0  0  0  0  0  0  0  0
    0.2048    3.1600    0.5276 H   0  0  0  0  0  0  0  0  0  0  0  0
    0.1186    2.2791   -0.9837 H   0  0  0  0  0  0  0  0  0  0  0  0
   -0.5147   -0.7808    0.3521 H   0  0  0  0  0  0  0  0  0  0  0  0
   -2.2621   -0.6620    0.3433 H   0  0  0  0  0  0  0  0  0  0  0  0
   -0.4278    0.2254   -1.9571 H   0  0  0  0  0  0  0  0  0  0  0  0
   -2.1866    0.3843   -1.9471 H   0  0  0  0  0  0  0  0  0  0  0  0
   -1.4334   -1.2193   -1.9364 H   0  0  0  0  0  0  0  0  0  0  0  0
  1  2  2  3
  1  4  1  0
  1 14  1  0
  2  3  1  0
  2  5  1  0
  3  6  1  0
  3  7  1  0
  3  8  1  0
  9 10  1  0
  9 15  1  0
  9 16  1  0
 10 11  1  0
 10 17  1  0
 10 18  1  0
 11 12  1  0
 12 13  1  0
 12 19  1  0
 12 20  1  0
 13 21  1  0
 13 22  1  0
 13 23  1  0
M  RAD  1   9   2
M  END
>  <reaction>  (10) 
rmg_rxn_355

>  <mol_properties>  (10) 
{"0": {"label": "*3", "atom_type": "Cd"}, "1": {"label": "*4", "atom_type": "Cd"}, "8": {"label": "*1", "atom_type": "Cs"}, "9": {"label": "*0", "atom_type": "Cs"}, "13": {"label": "*2", "atom_type": "H0"}}

>  <type>  (10) 
unop_6

>  <geom_source>  (10) 
Heuristics

$$$$

     RDKit          3D

 23 21  0  0  0  0  0  0  0  0999 V2000
    1.3459   -0.9871   -0.5991 C   0  0  0  0  0  0  0  0  0  0  0  0
    1.4014   -2.0856    0.1375 C   0  0  0  0  0  0  0  0  0  0  0  0
    2.3087   -3.2463   -0.1154 C   0  0  0  0  0  0  0  0  0  0  0  0
    1.9818   -0.8557   -1.4682 H   0  0  0  0  0  0  0  0  0  0  0  0
    0.7444   -2.1720    0.9991 H   0  0  0  0  0  0  0  0  0  0  0  0
    2.9627   -3.4228    0.7424 H   0  0  0  0  0  0  0  0  0  0  0  0
    2.9324   -3.0806   -0.9947 H   0  0  0  0  0  0  0  0  0  0  0  0
    1.7337   -4.1631   -0.2690 H   0  0  0  0  0  0  0  0  0  0  0  0
    1.2951    1.3839    0.4879 C   0  0  0  0  0  3  0  0  0  0  0  0
    0.0342    2.1428    0.1087 C   0  0  0  0  0  0  0  0  0  0  0  0
   -1.5064    1.4289    0.7372 S   0  0  0  0  0  0  0  0  0  0  0  0
   -1.5064   -0.2122   -0.0276 C   0  0  0  0  0  0  0  0  0  0  0  0
   -1.5064   -0.2122   -1.5474 C   0  0  0  0  0  0  0  0  0  0  0  0
    1.3206    0.1937   -0.0578 H   0  0  0  0  0  0  0  0  0  0  0  0
    2.1799    1.9223    0.1409 H   0  0  0  0  0  0  0  0  0  0  0  0
    1.3658    1.2619    1.5693 H   0  0  0  0  0  0  0  0  0  0  0  0
    0.0493    3.1460    0.5379 H   0  0  0  0  0  0  0  0  0  0  0  0
   -0.0369    2.2650   -0.9734 H   0  0  0  0  0  0  0  0  0  0  0  0
   -0.6702   -0.7949    0.3624 H   0  0  0  0  0  0  0  0  0  0  0  0
   -2.4176   -0.6761    0.3536 H   0  0  0  0  0  0  0  0  0  0  0  0
   -0.5833    0.2114   -1.9468 H   0  0  0  0  0  0  0  0  0  0  0  0
   -2.3421    0.3703   -1.9368 H   0  0  0  0  0  0  0  0  0  0  0  0
   -1.5889   -1.2334   -1.9260 H   0  0  0  0  0  0  0  0  0  0  0  0
  1  2  2  3
  1  4  1  0
  1 14  1  0
  2  3  1  0
  2  5  1  0
  3  6  1  0
  3  7  1  0
  3  8  1  0
  9 10  1  0
  9 15  1  0
  9 16  1  0
 10 11  1  0
 10 17  1  0
 10 18  1  0
 11 12  1  0
 12 13  1  0
 12 19  1  0
 12 20  1  0
 13 21  1  0
 13 22  1  0
 13 23  1  0
M  RAD  1   9   2
M  END
>  <reaction>  (11) 
rmg_rxn_355

>  <mol_properties>  (11) 
{"0": {"label": "*3", "atom_type": "Cd"}, "1": {"label": "*4", "atom_type": "Cd"}, "8": {"label": "*1", "atom_type": "Cs"}, "9": {"label": "*0", "atom_type": "Cs"}, "13": {"label": "*2", "atom_type": "H0"}}

>  <type>  (11) 
unop_7

>  <geom_source>  (11) 
Heuristics

$$$$

     RDKit          3D

 23 21  0  0  0  0  0  0  0  0999 V2000
    1.2467   -1.1783   -0.1736 C   0  0  0  0  0  0  0  0  0  0  0  0
    1.7873   -1.3829   -1.3645 C   0  0  0  0  0  0  0  0  0  0  0  0
    2.6561   -2.5438   -1.7272 C   0  0  0  0  0  0  0  0  0  0  0  0
    1.4074   -1.8694    0.6472 H   0  0  0  0  0  0  0  0  0  0  0  0
    1.5978   -0.6625   -2.1561 H   0  0  0  0  0  0  0  0  0  0  0  0
    2.2194   -3.1137   -2.5514 H   0  0  0  0  0  0  0  0  0  0  0  0
    2.7962   -3.2168   -0.8805 H   0  0  0  0  0  0  0  0  0  0  0  0
    3.6391   -2.2039   -2.0633 H   0  0  0  0  0  0  0  0  0  0  0  0
    1.1960    1.1928    0.9134 C   0  0  0  0  0  3  0  0  0  0  0  0
   -0.0649    1.9516    0.5342 C   0  0  0  0  0  0  0  0  0  0  0  0
   -1.6055    1.2377    1.1628 S   0  0  0  0  0  0  0  0  0  0  0  0
   -1.6055   -0.4034    0.3979 C   0  0  0  0  0  0  0  0  0  0  0  0
   -1.6055   -0.4034   -1.1218 C   0  0  0  0  0  0  0  0  0  0  0  0
    1.2215    0.0025    0.3678 H   0  0  0  0  0  0  0  0  0  0  0  0
    2.0808    1.7312    0.5665 H   0  0  0  0  0  0  0  0  0  0  0  0
    1.2667    1.0707    1.9948 H   0  0  0  0  0  0  0  0  0  0  0  0
   -0.0498    2.9548    0.9635 H   0  0  0  0  0  0  0  0  0  0  0  0
   -0.1360    2.0738   -0.5479 H   0  0  0  0  0  0  0  0  0  0  0  0
   -0.7693   -0.9860    0.7879 H   0  0  0  0  0  0  0  0  0  0  0  0
   -2.5167   -0.8673    0.7792 H   0  0  0  0  0  0  0  0  0  0  0  0
   -0.6825    0.0202   -1.5213 H   0  0  0  0  0  0  0  0  0  0  0  0
   -2.4412    0.1791   -1.5112 H   0  0  0  0  0  0  0  0  0  0  0  0
   -1.6880   -1.4246   -1.5005 H   0  0  0  0  0  0  0  0  0  0  0  0
  1  2  2  3
  1  4  1  0
  1 14  1  0
  2  3  1  0
  2  5  1  0
  3  6  1  0
  3  7  1  0
  3  8  1  0
  9 10  1  0
  9 15  1  0
  9 16  1  0
 10 11  1  0
 10 17  1  0
 10 18  1  0
 11 12  1  0
 12 13  1  0
 12 19  1  0
 12 20  1  0
 13 21  1  0
 13 22  1  0
 13 23  1  0
M  RAD  1   9   2
M  END
>  <reaction>  (12) 
rmg_rxn_355

>  <mol_properties>  (12) 
{"0": {"label": "*3", "atom_type": "Cd"}, "1": {"label": "*4", "atom_type": "Cd"}, "8": {"label": "*1", "atom_type": "Cs"}, "9": {"label": "*0", "atom_type": "Cs"}, "13": {"label": "*2", "atom_type": "H0"}}

>  <type>  (12) 
unop_8

>  <geom_source>  (12) 
Heuristics

$$$$

     RDKit          3D

 23 21  0  0  0  0  0  0  0  0999 V2000
    1.7151   -1.0422   -0.3853 C   0  0  0  0  0  0  0  0  0  0  0  0
    0.6014   -1.7092   -0.6448 C   0  0  0  0  0  0  0  0  0  0  0  0
    0.5191   -3.1790   -0.9035 C   0  0  0  0  0  0  0  0  0  0  0  0
    2.6772   -1.5419   -0.3426 H   0  0  0  0  0  0  0  0  0  0  0  0
   -0.3391   -1.1652   -0.6771 H   0  0  0  0  0  0  0  0  0  0  0  0
   -0.1330   -3.6664   -0.1741 H   0  0  0  0  0  0  0  0  0  0  0  0
    1.5023   -3.6484   -0.8529 H   0  0  0  0  0  0  0  0  0  0  0  0
    0.0935   -3.3769   -1.8906 H   0  0  0  0  0  0  0  0  0  0  0  0
    1.6644    1.3289    0.7016 C   0  0  0  0  0  3  0  0  0  0  0  0
    0.4034    2.0877    0.3224 C   0  0  0  0  0  0  0  0  0  0  0  0
   -1.1371    1.3738    0.9510 S   0  0  0  0  0  0  0  0  0  0  0  0
   -1.1371   -0.2673    0.1861 C   0  0  0  0  0  0  0  0  0  0  0  0
   -1.1371   -0.2673   -1.3336 C   0  0  0  0  0  0  0  0  0  0  0  0
    1.6898    0.1386    0.1560 H   0  0  0  0  0  0  0  0  0  0  0  0
    2.5491    1.8673    0.3547 H   0  0  0  0  0  0  0  0  0  0  0  0
    1.7350    1.2068    1.7830 H   0  0  0  0  0  0  0  0  0  0  0  0
    0.4185    3.0909    0.7517 H   0  0  0  0  0  0  0  0  0  0  0  0
    0.3323    2.2099   -0.7596 H   0  0  0  0  0  0  0  0  0  0  0  0
   -0.3009   -0.8500    0.5762 H   0  0  0  0  0  0  0  0  0  0  0  0
   -2.0484   -0.7312    0.5674 H   0  0  0  0  0  0  0  0  0  0  0  0
   -0.2141    0.1563   -1.7330 H   0  0  0  0  0  0  0  0  0  0  0  0
   -1.9729    0.3152   -1.7230 H   0  0  0  0  0  0  0  0  0  0  0  0
   -1.2197   -1.2885   -1.7123 H   0  0  0  0  0  0  0  0  0  0  0  0
  1  2  2  3
  1  4  1  0
  1 14  1  0
  2  3  1  0
  2  5  1  0
  3  6  1  0
  3  7  1  0
  3  8  1  0
  9 10  1  0
  9 15  1  0
  9 16  1  0
 10 11  1  0
 10 17  1  0
 10 18  1  0
 11 12  1  0
 12 13  1  0
 12 19  1  0
 12 20  1  0
 13 21  1  0
 13 22  1  0
 13 23  1  0
M  RAD  1   9   2
M  END
>  <reaction>  (13) 
rmg_rxn_355

>  <mol_properties>  (13) 
{"0": {"label": "*3", "atom_type": "Cd"}, "1": {"label": "*4", "atom_type": "Cd"}, "8": {"label": "*1", "atom_type": "Cs"}, "9": {"label": "*0", "atom_type": "Cs"}, "13": {"label": "*2", "atom_type": "H0"}}

>  <type>  (13) 
unop_9

>  <geom_source>  (13) 
Heuristics

$$$$

     RDKit          3D

 23 21  0  0  0  0  0  0  0  0999 V2000
    1.3923   -1.1942   -0.1011 C   0  0  0  0  0  0  0  0  0  0  0  0
    1.3636   -1.3547   -1.4148 C   0  0  0  0  0  0  0  0  0  0  0  0
    2.0351   -2.4619   -2.1613 C   0  0  0  0  0  0  0  0  0  0  0  0
    1.9272   -1.8852    0.5420 H   0  0  0  0  0  0  0  0  0  0  0  0
    0.8144   -0.6364   -2.0181 H   0  0  0  0  0  0  0  0  0  0  0  0
    1.3066   -3.0450   -2.7304 H   0  0  0  0  0  0  0  0  0  0  0  0
    2.5622   -3.1362   -1.4853 H   0  0  0  0  0  0  0  0  0  0  0  0
    2.7549   -2.0647   -2.8817 H   0  0  0  0  0  0  0  0  0  0  0  0
    1.3415    1.1768    0.9859 C   0  0  0  0  0  3  0  0  0  0  0  0
    0.0806    1.9357    0.6067 C   0  0  0  0  0  0  0  0  0  0  0  0
   -1.4600    1.2218    1.2352 S   0  0  0  0  0  0  0  0  0  0  0  0
   -1.4600   -0.4193    0.4703 C   0  0  0  0  0  0  0  0  0  0  0  0
   -1.4600   -0.4193   -1.0494 C   0  0  0  0  0  0  0  0  0  0  0  0
    1.3670   -0.0134    0.4402 H   0  0  0  0  0  0  0  0  0  0  0  0
    2.2263    1.7153    0.6389 H   0  0  0  0  0  0  0  0  0  0  0  0
    1.4122    1.0548    2.0673 H   0  0  0  0  0  0  0  0  0  0  0  0
    0.0957    2.9389    1.0359 H   0  0  0  0  0  0  0  0  0  0  0  0
    0.0095    2.0579   -0.4754 H   0  0  0  0  0  0  0  0  0  0  0  0
   -0.6238   -1.0020    0.8604 H   0  0  0  0  0  0  0  0  0  0  0  0
   -2.3712   -0.8832    0.8516 H   0  0  0  0  0  0  0  0  0  0  0  0
   -0.5370    0.0043   -1.4488 H   0  0  0  0  0  0  0  0  0  0  0  0
   -2.2957    0.1632   -1.4388 H   0  0  0  0  0  0  0  0  0  0  0  0
   -1.5425   -1.4405   -1.4281 H   0  0  0  0  0  0  0  0  0  0  0  0
  1  2  2  3
  1  4  1  0
  1 14  1  0
  2  3  1  0
  2  5  1  0
  3  6  1  0
  3  7  1  0
  3  8  1  0
  9 10  1  0
  9 15  1  0
  9 16  1  0
 10 11  1  0
 10 17  1  0
 10 18  1  0
 11 12  1  0
 12 13  1  0
 12 19  1  0
 12 20  1  0
 13 21  1  0
 13 22  1  0
 13 23  1  0
M  RAD  1   9   2
M  END
>  <reaction>  (14) 
rmg_rxn_355

>  <mol_properties>  (14) 
{"0": {"label": "*3", "atom_type": "Cd"}, "1": {"label": "*4", "atom_type": "Cd"}, "8": {"label": "*1", "atom_type": "Cs"}, "9": {"label": "*0", "atom_type": "Cs"}, "13": {"label": "*2", "atom_type": "H0"}}

>  <type>  (14) 
unop_10

>  <geom_source>  (14) 
Heuristics

$$$$

     RDKit          3D

 23 21  0  0  0  0  0  0  0  0999 V2000
    1.2427   -1.0163   -0.5114 C   0  0  0  0  0  0  0  0  0  0  0  0
    1.8562   -2.0333    0.0733 C   0  0  0  0  0  0  0  0  0  0  0  0
    2.6292   -3.0963   -0.6385 C   0  0  0  0  0  0  0  0  0  0  0  0
    1.2638   -0.8860   -1.5882 H   0  0  0  0  0  0  0  0  0  0  0  0
    1.8071   -2.1221    1.1556 H   0  0  0  0  0  0  0  0  0  0  0  0
    3.6661   -3.1201   -0.2935 H   0  0  0  0  0  0  0  0  0  0  0  0
    2.6296   -2.9344   -1.7171 H   0  0  0  0  0  0  0  0  0  0  0  0
    2.2064   -4.0843   -0.4388 H   0  0  0  0  0  0  0  0  0  0  0  0
    1.1919    1.3547    0.5756 C   0  0  0  0  0  3  0  0  0  0  0  0
   -0.0690    2.1136    0.1964 C   0  0  0  0  0  0  0  0  0  0  0  0
   -1.6096    1.3997    0.8250 S   0  0  0  0  0  0  0  0  0  0  0  0
   -1.6096   -0.2414    0.0601 C   0  0  0  0  0  0  0  0  0  0  0  0
   -1.6096   -0.2414   -1.4596 C   0  0  0  0  0  0  0  0  0  0  0  0
    1.2174    0.1645    0.0300 H   0  0  0  0  0  0  0  0  0  0  0  0
    2.0767    1.8931    0.2287 H   0  0  0  0  0  0  0  0  0  0  0  0
    1.2626    1.2327    1.6570 H   0  0  0  0  0  0  0  0  0  0  0  0
   -0.0539    3.1168    0.6257 H   0  0  0  0  0  0  0  0  0  0  0  0
   -0.1401    2.2358   -0.8857 H   0  0  0  0  0  0  0  0  0  0  0  0
   -0.7734   -0.8241    0.4501 H   0  0  0  0  0  0  0  0  0  0  0  0
   -2.5208   -0.7053    0.4414 H   0  0  0  0  0  0  0  0  0  0  0  0
   -0.6865    0.1822   -1.8591 H   0  0  0  0  0  0  0  0  0  0  0  0
   -2.4453    0.3411   -1.8491 H   0  0  0  0  0  0  0  0  0  0  0  0
   -1.6921   -1.2626   -1.8383 H   0  0  0  0  0  0  0  0  0  0  0  0
  1  2  2  3
  1  4  1  0
  1 14  1  0
  2  3  1  0
  2  5  1  0
  3  6  1  0
  3  7  1  0
  3  8  1  0
  9 10  1  0
  9 15  1  0
  9 16  1  0
 10 11  1  0
 10 17  1  0
 10 18  1  0
 11 12  1  0
 12 13  1  0
 12 19  1  0
 12 20  1  0
 13 21  1  0
 13 22  1  0
 13 23  1  0
M  RAD  1   9   2
M  END
>  <reaction>  (15) 
rmg_rxn_355

>  <mol_properties>  (15) 
{"0": {"label": "*3", "atom_type": "Cd"}, "1": {"label": "*4", "atom_type": "Cd"}, "8": {"label": "*1", "atom_type": "Cs"}, "9": {"label": "*0", "atom_type": "Cs"}, "13": {"label": "*2", "atom_type": "H0"}}

>  <type>  (15) 
unop_11

>  <geom_source>  (15) 
Heuristics

$$$$

     RDKit          3D

 23 21  0  0  0  0  0  0  0  0999 V2000
    1.6839   -1.1092   -0.2263 C   0  0  0  0  0  0  0  0  0  0  0  0
    0.7002   -1.5366   -1.0022 C   0  0  0  0  0  0  0  0  0  0  0  0
    0.6462   -2.8756   -1.6643 C   0  0  0  0  0  0  0  0  0  0  0  0
    2.5479   -1.7302   -0.0140 H   0  0  0  0  0  0  0  0  0  0  0  0
   -0.1452   -0.8785   -1.1861 H   0  0  0  0  0  0  0  0  0  0  0  0
   -0.2396   -3.4313   -1.3461 H   0  0  0  0  0  0  0  0  0  0  0  0
    1.5286   -3.4722   -1.4298 H   0  0  0  0  0  0  0  0  0  0  0  0
    0.5806   -2.7701   -2.7502 H   0  0  0  0  0  0  0  0  0  0  0  0
    1.6332    1.2619    0.8607 C   0  0  0  0  0  3  0  0  0  0  0  0
    0.3722    2.0207    0.4814 C   0  0  0  0  0  0  0  0  0  0  0  0
   -1.1684    1.3068    1.1100 S   0  0  0  0  0  0  0  0  0  0  0  0
   -1.1684   -0.3343    0.3451 C   0  0  0  0  0  0  0  0  0  0  0  0
   -1.1684   -0.3343   -1.1746 C   0  0  0  0  0  0  0  0  0  0  0  0
    1.6586    0.0716    0.3150 H   0  0  0  0  0  0  0  0  0  0  0  0
    2.5179    1.8003    0.5137 H   0  0  0  0  0  0  0  0  0  0  0  0
    1.7038    1.1398    1.9421 H   0  0  0  0  0  0  0  0  0  0  0  0
    0.3873    3.0239    0.9107 H   0  0  0  0  0  0  0  0  0  0  0  0
    0.3011    2.1429   -0.6006 H   0  0  0  0  0  0  0  0  0  0  0  0
   -0.3322   -0.9169    0.7352 H   0  0  0  0  0  0  0  0  0  0  0  0
   -2.0796   -0.7982    0.7264 H   0  0  0  0  0  0  0  0  0  0  0  0
   -0.2453    0.0893   -1.5740 H   0  0  0  0  0  0  0  0  0  0  0  0
   -2.0041    0.2482   -1.5640 H   0  0  0  0  0  0  0  0  0  0  0  0
   -1.2509   -1.3555   -1.5533 H   0  0  0  0  0  0  0  0  0  0  0  0
  1  2  2  3
  1  4  1  0
  1 14  1  0
  2  3  1  0
  2  5  1  0
  3  6  1  0
  3  7  1  0
  3  8  1  0
  9 10  1  0
  9 15  1  0
  9 16  1  0
 10 11  1  0
 10 17  1  0
 10 18  1  0
 11 12  1  0
 12 13  1  0
 12 19  1  0
 12 20  1  0
 13 21  1  0
 13 22  1  0
 13 23  1  0
M  RAD  1   9   2
M  END
>  <reaction>  (16) 
rmg_rxn_355

>  <mol_properties>  (16) 
{"0": {"label": "*3", "atom_type": "Cd"}, "1": {"label": "*4", "atom_type": "Cd"}, "8": {"label": "*1", "atom_type": "Cs"}, "9": {"label": "*0", "atom_type": "Cs"}, "13": {"label": "*2", "atom_type": "H0"}}

>  <type>  (16) 
unop_12

>  <geom_source>  (16) 
Heuristics

$$$$

     RDKit          3D

 23 21  0  0  0  0  0  0  0  0999 V2000
   -2.2463   -1.6892   -0.3278 S   0  0  0  0  0  0  0  0  0  0  0  0
   -3.2509   -0.4343    0.5489 C   0  0  0  0  0  0  0  0  0  0  0  0
   -0.6530   -1.3439    0.5015 C   0  0  0  0  0  0  0  0  0  0  0  0
   -3.7107    0.6390   -0.4271 C   0  0  0  0  0  0  0  0  0  0  0  0
    3.8030    1.0777    0.5605 C   0  0  0  0  0  0  0  0  0  0  0  0
    3.6075    0.1561   -0.6020 C   0  0  0  0  0  0  0  0  0  0  0  0
   -0.0191   -0.0676   -0.0319 C   0  0  0  0  0  3  0  0  0  0  0  0
    2.3926   -0.2874   -0.9287 C   0  0  0  0  0  0  0  0  0  0  0  0
   -2.6980    0.0401    1.3863 H   0  0  0  0  0  0  0  0  0  0  0  0
   -4.1430   -0.9391    0.9754 H   0  0  0  0  0  0  0  0  0  0  0  0
   -4.3180    0.1835   -1.2379 H   0  0  0  0  0  0  0  0  0  0  0  0
   -2.8346    1.1546   -0.8734 H   0  0  0  0  0  0  0  0  0  0  0  0
   -4.3324    1.3879    0.1073 H   0  0  0  0  0  0  0  0  0  0  0  0
    0.0350   -2.1894    0.2942 H   0  0  0  0  0  0  0  0  0  0  0  0
   -0.7854   -1.2769    1.6017 H   0  0  0  0  0  0  0  0  0  0  0  0
    4.8798    1.3275    0.6630 H   0  0  0  0  0  0  0  0  0  0  0  0
    3.4576    0.5877    1.4954 H   0  0  0  0  0  0  0  0  0  0  0  0
    3.2304    2.0158    0.4014 H   0  0  0  0  0  0  0  0  0  0  0  0
    4.4672   -0.1558   -1.1877 H   0  0  0  0  0  0  0  0  0  0  0  0
   -0.6162    0.8238    0.2501 H   0  0  0  0  0  0  0  0  0  0  0  0
    0.0948   -0.1182   -1.1354 H   0  0  0  0  0  0  0  0  0  0  0  0
    2.2661   -0.9554   -1.7745 H   0  0  0  0  0  0  0  0  0  0  0  0
    1.3737    0.0634   -0.2592 H   0  0  0  0  0  0  0  0  0  0  0  0
  1  3  1  0
  1  2  1  0
  2  4  1  0
  2  9  1  0
  2 10  1  0
  3  7  1  0
  3 14  1  0
  3 15  1  0
  4 11  1  0
  4 12  1  0
  4 13  1  0
  5  6  1  0
  5 16  1  0
  5 17  1  0
  5 18  1  0
  6  8  2  3
  6 19  1  0
  7 20  1  0
  7 21  1  0
  8 22  1  0
  8 23  1  0
M  RAD  1   7   2
M  END
>  <reaction>  (17) 
rmg_rxn_355

>  <mol_properties>  (17) 
{"0": {"label": "*3", "atom_type": "Cd"}, "1": {"label": "*4", "atom_type": "Cd"}, "8": {"label": "*1", "atom_type": "Cs"}, "9": {"label": "*0", "atom_type": "Cs"}, "13": {"label": "*2", "atom_type": "H0"}}

>  <type>  (17) 
unop_13

>  <geom_source>  (17) 
AutoTST

$$$$

     RDKit          3D

 23 21  0  0  0  0  0  0  0  0999 V2000
    1.5590   -1.1681   -0.1181 C   0  0  0  0  0  0  0  0  0  0  0  0
    0.9725   -1.4101   -1.2799 C   0  0  0  0  0  0  0  0  0  0  0  0
    1.2501   -2.5897   -2.1548 C   0  0  0  0  0  0  0  0  0  0  0  0
    2.3088   -1.8389    0.2879 H   0  0  0  0  0  0  0  0  0  0  0  0
    0.2269   -0.7089   -1.6461 H   0  0  0  0  0  0  0  0  0  0  0  0
    0.3421   -3.1765   -2.3162 H   0  0  0  0  0  0  0  0  0  0  0  0
    2.0070   -3.2416   -1.7169 H   0  0  0  0  0  0  0  0  0  0  0  0
    1.5994   -2.2697   -3.1399 H   0  0  0  0  0  0  0  0  0  0  0  0
    1.5083    1.2030    0.9688 C   0  0  0  0  0  3  0  0  0  0  0  0
    0.2474    1.9619    0.5896 C   0  0  0  0  0  0  0  0  0  0  0  0
   -1.2932    1.2479    1.2182 S   0  0  0  0  0  0  0  0  0  0  0  0
   -1.2932   -0.3931    0.4533 C   0  0  0  0  0  0  0  0  0  0  0  0
   -1.2932   -0.3931   -1.0664 C   0  0  0  0  0  0  0  0  0  0  0  0
    1.5337    0.0128    0.4232 H   0  0  0  0  0  0  0  0  0  0  0  0
    2.3930    1.7414    0.6219 H   0  0  0  0  0  0  0  0  0  0  0  0
    1.5790    1.0810    2.0502 H   0  0  0  0  0  0  0  0  0  0  0  0
    0.2624    2.9650    1.0189 H   0  0  0  0  0  0  0  0  0  0  0  0
    0.1762    2.0841   -0.4924 H   0  0  0  0  0  0  0  0  0  0  0  0
   -0.4570   -0.9758    0.8434 H   0  0  0  0  0  0  0  0  0  0  0  0
   -2.2044   -0.8570    0.8346 H   0  0  0  0  0  0  0  0  0  0  0  0
   -0.3702    0.0304   -1.4658 H   0  0  0  0  0  0  0  0  0  0  0  0
   -2.1290    0.1893   -1.4558 H   0  0  0  0  0  0  0  0  0  0  0  0
   -1.3758   -1.4143   -1.4451 H   0  0  0  0  0  0  0  0  0  0  0  0
  1  2  2  3
  1  4  1  0
  1 14  1  0
  2  3  1  0
  2  5  1  0
  3  6  1  0
  3  7  1  0
  3  8  1  0
  9 10  1  0
  9 15  1  0
  9 16  1  0
 10 11  1  0
 10 17  1  0
 10 18  1  0
 11 12  1  0
 12 13  1  0
 12 19  1  0
 12 20  1  0
 13 21  1  0
 13 22  1  0
 13 23  1  0
M  RAD  1   9   2
M  END
>  <reaction>  (18) 
rmg_rxn_355

>  <mol_properties>  (18) 
{"0": {"label": "*3", "atom_type": "Cd"}, "1": {"label": "*4", "atom_type": "Cd"}, "8": {"label": "*1", "atom_type": "Cs"}, "9": {"label": "*0", "atom_type": "Cs"}, "13": {"label": "*2", "atom_type": "H0"}}

>  <type>  (18) 
unop_14

>  <geom_source>  (18) 
gaussian_log

$$$$
