
     RDKit          3D

 10  9  0  0  0  0  0  0  0  0999 V2000
    1.9281   -0.2104    0.0000 C   0  0  0  0  0  0  0  0  0  0  0  0
    0.6881    0.1708    0.0000 C   0  0  0  0  0  0  0  0  0  0  0  0
   -0.5547    0.5538   -0.0000 C   0  0  0  0  0  0  0  0  0  0  0  0
   -1.7319   -0.3629    0.0000 C   0  0  0  0  0  0  0  0  0  0  0  0
    2.4558   -0.3741   -0.9324 H   0  0  0  0  0  0  0  0  0  0  0  0
    2.4558   -0.3741    0.9324 H   0  0  0  0  0  0  0  0  0  0  0  0
   -0.7657    1.6194   -0.0000 H   0  0  0  0  0  0  0  0  0  0  0  0
   -2.3467   -0.1819    0.8869 H   0  0  0  0  0  0  0  0  0  0  0  0
   -1.4304   -1.4153    0.0000 H   0  0  0  0  0  0  0  0  0  0  0  0
   -2.3467   -0.1819   -0.8869 H   0  0  0  0  0  0  0  0  0  0  0  0
  1  2  2  0
  1  5  1  0
  1  6  1  0
  2  3  2  0
  3  4  1  0
  3  7  1  0
  4  8  1  0
  4  9  1  0
  4 10  1  0
M  END
>  <reaction>  (1) 
rmg_rxn_16804

>  <mol_properties>  (1) 
{"2": {"label": "donator", "atom_type": "Cd"}, "6": {"label": "d_hydrogen", "atom_type": "H0"}}

>  <type>  (1) 
r1h

$$$$

     RDKit          3D

  7  6  0  0  0  0  0  0  0  0999 V2000
    1.1443   -0.1870   -0.0026 C   0  0  0  0  0  0  0  0  0  0  0  0
   -0.1897    0.4747   -0.0008 C   0  0  0  0  0  0  0  0  0  0  0  0
   -1.4128   -0.3182   -0.0012 N   0  0  0  0  0  2  0  0  0  0  0  0
    1.7295    0.1072   -0.8768 H   0  0  0  0  0  0  0  0  0  0  0  0
    1.0018   -1.2707   -0.0040 H   0  0  0  0  0  0  0  0  0  0  0  0
    1.6793    0.0928    0.9085 H   0  0  0  0  0  0  0  0  0  0  0  0
   -0.2483    1.5721    0.0008 H   0  0  0  0  0  0  0  0  0  0  0  0
  1  2  1  0
  1  4  1  0
  1  5  1  0
  1  6  1  0
  2  3  2  0
  2  7  1  0
M  RAD  1   3   2
M  END
>  <reaction>  (2) 
rmg_rxn_16804

>  <mol_properties>  (2) 
{"2": {"label": "acceptor", "atom_type": "N3d"}}

>  <type>  (2) 
r2

$$$$

     RDKit          3D

  8  7  0  0  0  0  0  0  0  0999 V2000
    1.2099   -0.1388    0.0025 C   0  0  0  0  0  0  0  0  0  0  0  0
   -0.1788    0.4141    0.0007 C   0  0  0  0  0  0  0  0  0  0  0  0
   -1.2100   -0.3603    0.0013 N   0  0  0  0  0  0  0  0  0  0  0  0
    1.7355    0.2223   -0.8851 H   0  0  0  0  0  0  0  0  0  0  0  0
    1.7521    0.1663    0.9007 H   0  0  0  0  0  0  0  0  0  0  0  0
    1.1564   -1.2296   -0.0424 H   0  0  0  0  0  0  0  0  0  0  0  0
   -0.2911    1.5112   -0.0010 H   0  0  0  0  0  0  0  0  0  0  0  0
   -2.0699    0.2005   -0.0002 H   0  0  0  0  0  0  0  0  0  0  0  0
  1  2  1  0
  1  4  1  0
  1  5  1  0
  1  6  1  0
  2  3  2  3
  2  7  1  0
  3  8  1  0
M  END
>  <reaction>  (3) 
rmg_rxn_16804

>  <mol_properties>  (3) 
{"2": {"label": "acceptor", "atom_type": "N3d"}, "7": {"label": "a_hydrogen", "atom_type": "H0"}}

>  <type>  (3) 
r2h

$$$$

     RDKit          3D

 17 15  0  0  0  0  0  0  0  0999 V2000
    3.4047   -0.1336   -0.2583 C   0  0  0  0  0  0  0  0  0  0  0  0
    1.9685   -0.5393   -0.1768 C   0  0  0  0  0  0  0  0  0  0  0  0
    1.2472   -0.2535    0.8534 N   0  0  0  0  0  0  0  0  0  0  0  0
    4.0192   -1.0296   -0.3776 H   0  0  0  0  0  0  0  0  0  0  0  0
    3.6859    0.3616    0.6746 H   0  0  0  0  0  0  0  0  0  0  0  0
    3.5737    0.5431   -1.0994 H   0  0  0  0  0  0  0  0  0  0  0  0
    1.5455   -1.0936   -1.0313 H   0  0  0  0  0  0  0  0  0  0  0  0
   -2.9044   -1.3556   -0.1354 C   0  0  0  0  0  0  0  0  0  0  0  0
   -1.9881   -0.4459   -0.0097 C   0  0  0  0  0  0  0  0  0  0  0  0
   -1.0696    0.4661    0.1163 C   0  0  0  0  0  3  0  0  0  0  0  0
   -1.2691    1.9220   -0.1422 C   0  0  0  0  0  0  0  0  0  0  0  0
   -3.0496   -1.8667   -1.0800 H   0  0  0  0  0  0  0  0  0  0  0  0
   -3.5412   -1.6177    0.7015 H   0  0  0  0  0  0  0  0  0  0  0  0
    0.1215    0.0962    0.4953 H   0  0  0  0  0  0  0  0  0  0  0  0
   -1.0556    2.4955    0.7649 H   0  0  0  0  0  0  0  0  0  0  0  0
   -2.2939    2.1447   -0.4562 H   0  0  0  0  0  0  0  0  0  0  0  0
   -0.5879    2.2586   -0.9297 H   0  0  0  0  0  0  0  0  0  0  0  0
  1  2  1  0
  1  4  1  0
  1  5  1  0
  1  6  1  0
  2  3  2  3
  2  7  1  0
  3 14  1  0
  8  9  2  0
  8 12  1  0
  8 13  1  0
  9 10  2  0
 10 11  1  0
 11 15  1  0
 11 16  1  0
 11 17  1  0
M  RAD  1  10   2
M  END
>  <reaction>  (4) 
rmg_rxn_16804

>  <mol_properties>  (4) 
{"1": {"label": "*0", "atom_type": "Cd"}, "2": {"label": "*1", "atom_type": "N3d"}, "8": {"label": "*4", "atom_type": "Cdd"}, "9": {"label": "*3", "atom_type": "Cd"}, "13": {"label": "*2", "atom_type": "H0"}}

>  <type>  (4) 
ts

$$$$

     RDKit          3D

 17 15  0  0  0  0  0  0  0  0999 V2000
   -3.2208    0.1040    0.0001 C   0  0  0  0  0  0  0  0  0  0  0  0
   -1.7265    0.0657    0.0005 C   0  0  0  0  0  0  0  0  0  0  0  0
   -1.0809   -0.9958   -0.0008 N   0  0  0  0  0  0  0  0  0  0  0  0
   -3.5695    0.6383    0.8826 H   0  0  0  0  0  0  0  0  0  0  0  0
   -3.6247   -0.9045   -0.0017 H   0  0  0  0  0  0  0  0  0  0  0  0
   -3.5689    0.6413   -0.8808 H   0  0  0  0  0  0  0  0  0  0  0  0
   -1.2443    1.0577    0.0018 H   0  0  0  0  0  0  0  0  0  0  0  0
    1.3240    2.1634   -0.0002 C   0  0  0  0  0  0  0  0  0  0  0  0
    1.4668    0.8458   -0.0001 C   0  0  0  0  0  0  0  0  0  0  0  0
    1.3809   -0.4100    0.0001 C   0  0  0  0  0  3  0  0  0  0  0  0
    2.2075   -1.6285    0.0003 C   0  0  0  0  0  0  0  0  0  0  0  0
    1.3040    2.7232   -0.9204 H   0  0  0  0  0  0  0  0  0  0  0  0
    1.3038    2.7232    0.9200 H   0  0  0  0  0  0  0  0  0  0  0  0
    0.1091   -0.7988   -0.0004 H   0  0  0  0  0  0  0  0  0  0  0  0
    1.9898   -2.2298   -0.8822 H   0  0  0  0  0  0  0  0  0  0  0  0
    1.9896   -2.2297    0.8827 H   0  0  0  0  0  0  0  0  0  0  0  0
    3.2678   -1.3724    0.0004 H   0  0  0  0  0  0  0  0  0  0  0  0
  1  2  1  0
  1  4  1  0
  1  5  1  0
  1  6  1  0
  2  3  2  3
  2  7  1  0
  3 14  1  0
  8  9  2  0
  8 12  1  0
  8 13  1  0
  9 10  2  0
 10 11  1  0
 11 15  1  0
 11 16  1  0
 11 17  1  0
M  RAD  1  10   2
M  END
>  <reaction>  (5) 
rmg_rxn_16804

>  <mol_properties>  (5) 
{"1": {"label": "*0", "atom_type": "Cd"}, "2": {"label": "*1", "atom_type": "N3d"}, "8": {"label": "*4", "atom_type": "Cdd"}, "9": {"label": "*3", "atom_type": "Cd"}, "13": {"label": "*2", "atom_type": "H0"}}

>  <type>  (5) 
unop_1

>  <geom_source>  (5) 
crest_best.xyz

$$$$

     RDKit          3D

 17 15  0  0  0  0  0  0  0  0999 V2000
   -0.6760    2.0077    2.7601 C   0  0  0  0  0  0  0  0  0  0  0  0
   -0.7464    1.4217    1.3869 C   0  0  0  0  0  0  0  0  0  0  0  0
    0.3034    1.3226    0.6443 N   0  0  0  0  0  0  0  0  0  0  0  0
   -1.3422    2.8727    2.8101 H   0  0  0  0  0  0  0  0  0  0  0  0
    0.3469    2.3427    2.9497 H   0  0  0  0  0  0  0  0  0  0  0  0
   -0.9686    1.2738    3.5149 H   0  0  0  0  0  0  0  0  0  0  0  0
   -1.7307    1.0758    1.0296 H   0  0  0  0  0  0  0  0  0  0  0  0
    0.3061   -0.9092   -3.1566 C   0  0  0  0  0  0  0  0  0  0  0  0
    0.3061   -0.9092   -1.8593 C   0  0  0  0  0  0  0  0  0  0  0  0
    0.3061   -0.9092   -0.5588 C   0  0  0  0  0  3  0  0  0  0  0  0
    0.3061   -2.1321    0.2962 C   0  0  0  0  0  0  0  0  0  0  0  0
   -0.6262   -0.9105   -3.7091 H   0  0  0  0  0  0  0  0  0  0  0  0
    1.2385   -0.9105   -3.7091 H   0  0  0  0  0  0  0  0  0  0  0  0
    0.3047    0.2382    0.0598 H   0  0  0  0  0  0  0  0  0  0  0  0
    1.1930   -2.1401    0.9371 H   0  0  0  0  0  0  0  0  0  0  0  0
    0.3061   -3.0490   -0.3018 H   0  0  0  0  0  0  0  0  0  0  0  0
   -0.5808   -2.1401    0.9371 H   0  0  0  0  0  0  0  0  0  0  0  0
  1  2  1  0
  1  4  1  0
  1  5  1  0
  1  6  1  0
  2  3  2  3
  2  7  1  0
  3 14  1  0
  8  9  2  0
  8 12  1  0
  8 13  1  0
  9 10  2  0
 10 11  1  0
 11 15  1  0
 11 16  1  0
 11 17  1  0
M  RAD  1  10   2
M  END
>  <reaction>  (6) 
rmg_rxn_16804

>  <mol_properties>  (6) 
{"1": {"label": "*0", "atom_type": "Cd"}, "2": {"label": "*1", "atom_type": "N3d"}, "8": {"label": "*4", "atom_type": "Cdd"}, "9": {"label": "*3", "atom_type": "Cd"}, "13": {"label": "*2", "atom_type": "H0"}}

>  <type>  (6) 
unop_2

>  <geom_source>  (6) 
Heuristics

$$$$

     RDKit          3D

 17 15  0  0  0  0  0  0  0  0999 V2000
   -0.8655    3.1298    1.0920 C   0  0  0  0  0  0  0  0  0  0  0  0
   -0.3449    1.8654    0.4883 C   0  0  0  0  0  0  0  0  0  0  0  0
    0.2622    0.9802    1.2031 N   0  0  0  0  0  0  0  0  0  0  0  0
   -0.3931    3.9803    0.5937 H   0  0  0  0  0  0  0  0  0  0  0  0
   -0.5978    3.1523    2.1514 H   0  0  0  0  0  0  0  0  0  0  0  0
   -1.9508    3.1972    0.9852 H   0  0  0  0  0  0  0  0  0  0  0  0
   -0.4986    1.7154   -0.5934 H   0  0  0  0  0  0  0  0  0  0  0  0
    0.2650   -1.2517   -2.5978 C   0  0  0  0  0  0  0  0  0  0  0  0
    0.2650   -1.2517   -1.3005 C   0  0  0  0  0  0  0  0  0  0  0  0
    0.2650   -1.2517   -0.0000 C   0  0  0  0  0  3  0  0  0  0  0  0
    0.2650   -2.4745    0.8550 C   0  0  0  0  0  0  0  0  0  0  0  0
   -0.6674   -1.2530   -3.1503 H   0  0  0  0  0  0  0  0  0  0  0  0
    1.1973   -1.2530   -3.1503 H   0  0  0  0  0  0  0  0  0  0  0  0
    0.2636   -0.1043    0.6185 H   0  0  0  0  0  0  0  0  0  0  0  0
    1.1519   -2.4825    1.4959 H   0  0  0  0  0  0  0  0  0  0  0  0
    0.2650   -3.3914    0.2569 H   0  0  0  0  0  0  0  0  0  0  0  0
   -0.6219   -2.4825    1.4959 H   0  0  0  0  0  0  0  0  0  0  0  0
  1  2  1  0
  1  4  1  0
  1  5  1  0
  1  6  1  0
  2  3  2  3
  2  7  1  0
  3 14  1  0
  8  9  2  0
  8 12  1  0
  8 13  1  0
  9 10  2  0
 10 11  1  0
 11 15  1  0
 11 16  1  0
 11 17  1  0
M  RAD  1  10   2
M  END
>  <reaction>  (7) 
rmg_rxn_16804

>  <mol_properties>  (7) 
{"1": {"label": "*0", "atom_type": "Cd"}, "2": {"label": "*1", "atom_type": "N3d"}, "8": {"label": "*4", "atom_type": "Cdd"}, "9": {"label": "*3", "atom_type": "Cd"}, "13": {"label": "*2", "atom_type": "H0"}}

>  <type>  (7) 
unop_3

>  <geom_source>  (7) 
Heuristics

$$$$

     RDKit          3D

 17 15  0  0  0  0  0  0  0  0999 V2000
   -0.1074    2.0838    2.8620 C   0  0  0  0  0  0  0  0  0  0  0  0
   -0.4837    1.2337    1.6916 C   0  0  0  0  0  0  0  0  0  0  0  0
    0.1222    1.3446    0.5585 N   0  0  0  0  0  0  0  0  0  0  0  0
   -0.9816    2.6595    3.1766 H   0  0  0  0  0  0  0  0  0  0  0  0
    0.6779    2.7796    2.5558 H   0  0  0  0  0  0  0  0  0  0  0  0
    0.2480    1.4707    3.6936 H   0  0  0  0  0  0  0  0  0  0  0  0
   -1.3004    0.5058    1.8312 H   0  0  0  0  0  0  0  0  0  0  0  0
    0.1249   -0.8873   -3.2424 C   0  0  0  0  0  0  0  0  0  0  0  0
    0.1249   -0.8873   -1.9451 C   0  0  0  0  0  0  0  0  0  0  0  0
    0.1249   -0.8873   -0.6446 C   0  0  0  0  0  3  0  0  0  0  0  0
    0.1249   -2.1101    0.2104 C   0  0  0  0  0  0  0  0  0  0  0  0
   -0.8075   -0.8886   -3.7949 H   0  0  0  0  0  0  0  0  0  0  0  0
    1.0573   -0.8886   -3.7949 H   0  0  0  0  0  0  0  0  0  0  0  0
    0.1235    0.2601   -0.0260 H   0  0  0  0  0  0  0  0  0  0  0  0
    1.0118   -2.1181    0.8513 H   0  0  0  0  0  0  0  0  0  0  0  0
    0.1249   -3.0270   -0.3876 H   0  0  0  0  0  0  0  0  0  0  0  0
   -0.7620   -2.1181    0.8513 H   0  0  0  0  0  0  0  0  0  0  0  0
  1  2  1  0
  1  4  1  0
  1  5  1  0
  1  6  1  0
  2  3  2  3
  2  7  1  0
  3 14  1  0
  8  9  2  0
  8 12  1  0
  8 13  1  0
  9 10  2  0
 10 11  1  0
 11 15  1  0
 11 16  1  0
 11 17  1  0
M  RAD  1  10   2
M  END
>  <reaction>  (8) 
rmg_rxn_16804

>  <mol_properties>  (8) 
{"1": {"label": "*0", "atom_type": "Cd"}, "2": {"label": "*1", "atom_type": "N3d"}, "8": {"label": "*4", "atom_type": "Cdd"}, "9": {"label": "*3", "atom_type": "Cd"}, "13": {"label": "*2", "atom_type": "H0"}}

>  <type>  (8) 
unop_4

>  <geom_source>  (8) 
Heuristics

$$$$

     RDKit          3D

 17 15  0  0  0  0  0  0  0  0999 V2000
    1.2920    2.6939    1.6763 C   0  0  0  0  0  0  0  0  0  0  0  0
    0.6276    1.7740    0.7034 C   0  0  0  0  0  0  0  0  0  0  0  0
   -0.4212    1.0972    1.0277 N   0  0  0  0  0  0  0  0  0  0  0  0
    2.3270    2.3722    1.8170 H   0  0  0  0  0  0  0  0  0  0  0  0
    0.7723    2.6294    2.6356 H   0  0  0  0  0  0  0  0  0  0  0  0
    1.2730    3.7253    1.3162 H   0  0  0  0  0  0  0  0  0  0  0  0
    1.0670    1.6939   -0.3050 H   0  0  0  0  0  0  0  0  0  0  0  0
   -0.4185   -1.1346   -2.7732 C   0  0  0  0  0  0  0  0  0  0  0  0
   -0.4185   -1.1346   -1.4759 C   0  0  0  0  0  0  0  0  0  0  0  0
   -0.4185   -1.1346   -0.1754 C   0  0  0  0  0  3  0  0  0  0  0  0
   -0.4185   -2.3575    0.6796 C   0  0  0  0  0  0  0  0  0  0  0  0
   -1.3508   -1.1359   -3.3257 H   0  0  0  0  0  0  0  0  0  0  0  0
    0.5139   -1.1359   -3.3257 H   0  0  0  0  0  0  0  0  0  0  0  0
   -0.4199    0.0128    0.4431 H   0  0  0  0  0  0  0  0  0  0  0  0
    0.4684   -2.3655    1.3204 H   0  0  0  0  0  0  0  0  0  0  0  0
   -0.4185   -3.2744    0.0815 H   0  0  0  0  0  0  0  0  0  0  0  0
   -1.3054   -2.3655    1.3204 H   0  0  0  0  0  0  0  0  0  0  0  0
  1  2  1  0
  1  4  1  0
  1  5  1  0
  1  6  1  0
  2  3  2  3
  2  7  1  0
  3 14  1  0
  8  9  2  0
  8 12  1  0
  8 13  1  0
  9 10  2  0
 10 11  1  0
 11 15  1  0
 11 16  1  0
 11 17  1  0
M  RAD  1  10   2
M  END
>  <reaction>  (9) 
rmg_rxn_16804

>  <mol_properties>  (9) 
{"1": {"label": "*0", "atom_type": "Cd"}, "2": {"label": "*1", "atom_type": "N3d"}, "8": {"label": "*4", "atom_type": "Cdd"}, "9": {"label": "*3", "atom_type": "Cd"}, "13": {"label": "*2", "atom_type": "H0"}}

>  <type>  (9) 
unop_5

>  <geom_source>  (9) 
Heuristics

$$$$

     RDKit          3D

 17 15  0  0  0  0  0  0  0  0999 V2000
   -0.0022    2.2833    2.7804 C   0  0  0  0  0  0  0  0  0  0  0  0
   -0.0008    1.1338    1.8250 C   0  0  0  0  0  0  0  0  0  0  0  0
   -0.0010    1.3210    0.5491 N   0  0  0  0  0  0  0  0  0  0  0  0
   -0.8895    2.2148    3.4149 H   0  0  0  0  0  0  0  0  0  0  0  0
   -0.0498    3.2156    2.2120 H   0  0  0  0  0  0  0  0  0  0  0  0
    0.8962    2.2771    3.4023 H   0  0  0  0  0  0  0  0  0  0  0  0
    0.0005    0.1164    2.2508 H   0  0  0  0  0  0  0  0  0  0  0  0
    0.0017   -0.9109   -3.2519 C   0  0  0  0  0  0  0  0  0  0  0  0
    0.0017   -0.9109   -1.9546 C   0  0  0  0  0  0  0  0  0  0  0  0
    0.0017   -0.9109   -0.6541 C   0  0  0  0  0  3  0  0  0  0  0  0
    0.0017   -2.1337    0.2010 C   0  0  0  0  0  0  0  0  0  0  0  0
   -0.9306   -0.9122   -3.8044 H   0  0  0  0  0  0  0  0  0  0  0  0
    0.9341   -0.9122   -3.8044 H   0  0  0  0  0  0  0  0  0  0  0  0
    0.0003    0.2365   -0.0355 H   0  0  0  0  0  0  0  0  0  0  0  0
    0.8886   -2.1417    0.8418 H   0  0  0  0  0  0  0  0  0  0  0  0
    0.0018   -3.0506   -0.3971 H   0  0  0  0  0  0  0  0  0  0  0  0
   -0.8851   -2.1417    0.8418 H   0  0  0  0  0  0  0  0  0  0  0  0
  1  2  1  0
  1  4  1  0
  1  5  1  0
  1  6  1  0
  2  3  2  3
  2  7  1  0
  3 14  1  0
  8  9  2  0
  8 12  1  0
  8 13  1  0
  9 10  2  0
 10 11  1  0
 11 15  1  0
 11 16  1  0
 11 17  1  0
M  RAD  1  10   2
M  END
>  <reaction>  (10) 
rmg_rxn_16804

>  <mol_properties>  (10) 
{"1": {"label": "*0", "atom_type": "Cd"}, "2": {"label": "*1", "atom_type": "N3d"}, "8": {"label": "*4", "atom_type": "Cdd"}, "9": {"label": "*3", "atom_type": "Cd"}, "13": {"label": "*2", "atom_type": "H0"}}

>  <type>  (10) 
unop_6

>  <geom_source>  (10) 
Heuristics

$$$$

     RDKit          3D

 17 15  0  0  0  0  0  0  0  0999 V2000
    1.1835    2.2550    2.3176 C   0  0  0  0  0  0  0  0  0  0  0  0
    0.7827    1.6173    1.0265 C   0  0  0  0  0  0  0  0  0  0  0  0
   -0.4288    1.2279    0.8174 N   0  0  0  0  0  0  0  0  0  0  0  0
    1.9750    1.6573    2.7766 H   0  0  0  0  0  0  0  0  0  0  0  0
    0.3209    2.2676    2.9886 H   0  0  0  0  0  0  0  0  0  0  0  0
    1.5393    3.2755    2.1568 H   0  0  0  0  0  0  0  0  0  0  0  0
    1.5619    1.4909    0.2563 H   0  0  0  0  0  0  0  0  0  0  0  0
   -0.4261   -1.0040   -2.9835 C   0  0  0  0  0  0  0  0  0  0  0  0
   -0.4261   -1.0040   -1.6862 C   0  0  0  0  0  0  0  0  0  0  0  0
   -0.4261   -1.0040   -0.3857 C   0  0  0  0  0  3  0  0  0  0  0  0
   -0.4261   -2.2268    0.4693 C   0  0  0  0  0  0  0  0  0  0  0  0
   -1.3584   -1.0053   -3.5360 H   0  0  0  0  0  0  0  0  0  0  0  0
    0.5063   -1.0053   -3.5360 H   0  0  0  0  0  0  0  0  0  0  0  0
   -0.4275    0.1434    0.2328 H   0  0  0  0  0  0  0  0  0  0  0  0
    0.4608   -2.2348    1.1102 H   0  0  0  0  0  0  0  0  0  0  0  0
   -0.4261   -3.1438   -0.1288 H   0  0  0  0  0  0  0  0  0  0  0  0
   -1.3129   -2.2348    1.1102 H   0  0  0  0  0  0  0  0  0  0  0  0
  1  2  1  0
  1  4  1  0
  1  5  1  0
  1  6  1  0
  2  3  2  3
  2  7  1  0
  3 14  1  0
  8  9  2  0
  8 12  1  0
  8 13  1  0
  9 10  2  0
 10 11  1  0
 11 15  1  0
 11 16  1  0
 11 17  1  0
M  RAD  1  10   2
M  END
>  <reaction>  (11) 
rmg_rxn_16804

>  <mol_properties>  (11) 
{"1": {"label": "*0", "atom_type": "Cd"}, "2": {"label": "*1", "atom_type": "N3d"}, "8": {"label": "*4", "atom_type": "Cdd"}, "9": {"label": "*3", "atom_type": "Cd"}, "13": {"label": "*2", "atom_type": "H0"}}

>  <type>  (11) 
unop_7

>  <geom_source>  (11) 
Heuristics

$$$$

     RDKit          3D

 17 15  0  0  0  0  0  0  0  0999 V2000
    0.6717    2.0101    2.7598 C   0  0  0  0  0  0  0  0  0  0  0  0
    0.7435    1.4242    1.3866 C   0  0  0  0  0  0  0  0  0  0  0  0
   -0.3060    1.3226    0.6441 N   0  0  0  0  0  0  0  0  0  0  0  0
    1.0172    1.2648    3.4808 H   0  0  0  0  0  0  0  0  0  0  0  0
   -0.3688    2.2581    2.9846 H   0  0  0  0  0  0  0  0  0  0  0  0
    1.2886    2.9087    2.8353 H   0  0  0  0  0  0  0  0  0  0  0  0
    1.7287    1.0807    1.0293 H   0  0  0  0  0  0  0  0  0  0  0  0
   -0.3033   -0.9093   -3.1569 C   0  0  0  0  0  0  0  0  0  0  0  0
   -0.3033   -0.9093   -1.8596 C   0  0  0  0  0  0  0  0  0  0  0  0
   -0.3033   -0.9093   -0.5591 C   0  0  0  0  0  3  0  0  0  0  0  0
   -0.3032   -2.1321    0.2960 C   0  0  0  0  0  0  0  0  0  0  0  0
   -1.2356   -0.9106   -3.7094 H   0  0  0  0  0  0  0  0  0  0  0  0
    0.6291   -0.9106   -3.7094 H   0  0  0  0  0  0  0  0  0  0  0  0
   -0.3047    0.2381    0.0595 H   0  0  0  0  0  0  0  0  0  0  0  0
    0.5836   -2.1401    0.9368 H   0  0  0  0  0  0  0  0  0  0  0  0
   -0.3032   -3.0491   -0.3021 H   0  0  0  0  0  0  0  0  0  0  0  0
   -1.1901   -2.1401    0.9368 H   0  0  0  0  0  0  0  0  0  0  0  0
  1  2  1  0
  1  4  1  0
  1  5  1  0
  1  6  1  0
  2  3  2  3
  2  7  1  0
  3 14  1  0
  8  9  2  0
  8 12  1  0
  8 13  1  0
  9 10  2  0
 10 11  1  0
 11 15  1  0
 11 16  1  0
 11 17  1  0
M  RAD  1  10   2
M  END
>  <reaction>  (12) 
rmg_rxn_16804

>  <mol_properties>  (12) 
{"1": {"label": "*0", "atom_type": "Cd"}, "2": {"label": "*1", "atom_type": "N3d"}, "8": {"label": "*4", "atom_type": "Cdd"}, "9": {"label": "*3", "atom_type": "Cd"}, "13": {"label": "*2", "atom_type": "H0"}}

>  <type>  (12) 
unop_8

>  <geom_source>  (12) 
Heuristics

$$$$

     RDKit          3D

 17 15  0  0  0  0  0  0  0  0999 V2000
   -1.1887    2.2514    2.3179 C   0  0  0  0  0  0  0  0  0  0  0  0
   -0.7864    1.6147    1.0268 C   0  0  0  0  0  0  0  0  0  0  0  0
    0.4261    1.2282    0.8177 N   0  0  0  0  0  0  0  0  0  0  0  0
   -1.5843    3.2492    2.1120 H   0  0  0  0  0  0  0  0  0  0  0  0
   -0.3055    2.3498    2.9541 H   0  0  0  0  0  0  0  0  0  0  0  0
   -1.9464    1.6537    2.8302 H   0  0  0  0  0  0  0  0  0  0  0  0
   -1.5652    1.4864    0.2566 H   0  0  0  0  0  0  0  0  0  0  0  0
    0.4289   -1.0036   -2.9832 C   0  0  0  0  0  0  0  0  0  0  0  0
    0.4289   -1.0036   -1.6859 C   0  0  0  0  0  0  0  0  0  0  0  0
    0.4289   -1.0036   -0.3854 C   0  0  0  0  0  3  0  0  0  0  0  0
    0.4289   -2.2264    0.4696 C   0  0  0  0  0  0  0  0  0  0  0  0
   -0.5035   -1.0049   -3.5357 H   0  0  0  0  0  0  0  0  0  0  0  0
    1.3612   -1.0049   -3.5357 H   0  0  0  0  0  0  0  0  0  0  0  0
    0.4274    0.1438    0.2331 H   0  0  0  0  0  0  0  0  0  0  0  0
    1.3158   -2.2345    1.1105 H   0  0  0  0  0  0  0  0  0  0  0  0
    0.4289   -3.1434   -0.1285 H   0  0  0  0  0  0  0  0  0  0  0  0
   -0.4580   -2.2345    1.1104 H   0  0  0  0  0  0  0  0  0  0  0  0
  1  2  1  0
  1  4  1  0
  1  5  1  0
  1  6  1  0
  2  3  2  3
  2  7  1  0
  3 14  1  0
  8  9  2  0
  8 12  1  0
  8 13  1  0
  9 10  2  0
 10 11  1  0
 11 15  1  0
 11 16  1  0
 11 17  1  0
M  RAD  1  10   2
M  END
>  <reaction>  (13) 
rmg_rxn_16804

>  <mol_properties>  (13) 
{"1": {"label": "*0", "atom_type": "Cd"}, "2": {"label": "*1", "atom_type": "N3d"}, "8": {"label": "*4", "atom_type": "Cdd"}, "9": {"label": "*3", "atom_type": "Cd"}, "13": {"label": "*2", "atom_type": "H0"}}

>  <type>  (13) 
unop_9

>  <geom_source>  (13) 
Heuristics

$$$$

     RDKit          3D

 17 15  0  0  0  0  0  0  0  0999 V2000
   -3.2208    0.1040    0.0001 C   0  0  0  0  0  0  0  0  0  0  0  0
   -1.7265    0.0657    0.0005 C   0  0  0  0  0  0  0  0  0  0  0  0
   -1.0809   -0.9958   -0.0008 N   0  0  0  0  0  0  0  0  0  0  0  0
   -3.5695    0.6383    0.8826 H   0  0  0  0  0  0  0  0  0  0  0  0
   -3.6247   -0.9045   -0.0017 H   0  0  0  0  0  0  0  0  0  0  0  0
   -3.5689    0.6413   -0.8808 H   0  0  0  0  0  0  0  0  0  0  0  0
   -1.2443    1.0577    0.0018 H   0  0  0  0  0  0  0  0  0  0  0  0
    1.3240    2.1634   -0.0002 C   0  0  0  0  0  0  0  0  0  0  0  0
    1.4668    0.8458   -0.0001 C   0  0  0  0  0  0  0  0  0  0  0  0
    1.3809   -0.4100    0.0001 C   0  0  0  0  0  3  0  0  0  0  0  0
    2.2075   -1.6285    0.0003 C   0  0  0  0  0  0  0  0  0  0  0  0
    1.3040    2.7232   -0.9204 H   0  0  0  0  0  0  0  0  0  0  0  0
    1.3038    2.7232    0.9200 H   0  0  0  0  0  0  0  0  0  0  0  0
    0.1091   -0.7988   -0.0004 H   0  0  0  0  0  0  0  0  0  0  0  0
    1.9898   -2.2298   -0.8822 H   0  0  0  0  0  0  0  0  0  0  0  0
    1.9896   -2.2297    0.8827 H   0  0  0  0  0  0  0  0  0  0  0  0
    3.2678   -1.3724    0.0004 H   0  0  0  0  0  0  0  0  0  0  0  0
  1  2  1  0
  1  4  1  0
  1  5  1  0
  1  6  1  0
  2  3  2  3
  2  7  1  0
  3 14  1  0
  8  9  2  0
  8 12  1  0
  8 13  1  0
  9 10  2  0
 10 11  1  0
 11 15  1  0
 11 16  1  0
 11 17  1  0
M  RAD  1  10   2
M  END
>  <reaction>  (14) 
rmg_rxn_16804

>  <mol_properties>  (14) 
{"1": {"label": "*0", "atom_type": "Cd"}, "2": {"label": "*1", "atom_type": "N3d"}, "8": {"label": "*4", "atom_type": "Cdd"}, "9": {"label": "*3", "atom_type": "Cd"}, "13": {"label": "*2", "atom_type": "H0"}}

>  <type>  (14) 
unop_10

>  <geom_source>  (14) 
Heuristics

$$$$

     RDKit          3D

 17 15  0  0  0  0  0  0  0  0999 V2000
    0.8576    3.1323    1.0918 C   0  0  0  0  0  0  0  0  0  0  0  0
    0.3401    1.8666    0.4882 C   0  0  0  0  0  0  0  0  0  0  0  0
   -0.2648    0.9799    1.2030 N   0  0  0  0  0  0  0  0  0  0  0  0
    1.9362    3.1888    0.9245 H   0  0  0  0  0  0  0  0  0  0  0  0
    0.6712    3.1126    2.1686 H   0  0  0  0  0  0  0  0  0  0  0  0
    0.3705    4.0049    0.6501 H   0  0  0  0  0  0  0  0  0  0  0  0
    0.4942    1.7169   -0.5936 H   0  0  0  0  0  0  0  0  0  0  0  0
   -0.2620   -1.2520   -2.5980 C   0  0  0  0  0  0  0  0  0  0  0  0
   -0.2620   -1.2520   -1.3006 C   0  0  0  0  0  0  0  0  0  0  0  0
   -0.2620   -1.2520   -0.0001 C   0  0  0  0  0  3  0  0  0  0  0  0
   -0.2620   -2.4748    0.8549 C   0  0  0  0  0  0  0  0  0  0  0  0
   -1.1944   -1.2533   -3.1504 H   0  0  0  0  0  0  0  0  0  0  0  0
    0.6703   -1.2533   -3.1504 H   0  0  0  0  0  0  0  0  0  0  0  0
   -0.2635   -0.1046    0.6184 H   0  0  0  0  0  0  0  0  0  0  0  0
    0.6249   -2.4828    1.4957 H   0  0  0  0  0  0  0  0  0  0  0  0
   -0.2620   -3.3918    0.2568 H   0  0  0  0  0  0  0  0  0  0  0  0
   -1.1489   -2.4829    1.4957 H   0  0  0  0  0  0  0  0  0  0  0  0
  1  2  1  0
  1  4  1  0
  1  5  1  0
  1  6  1  0
  2  3  2  3
  2  7  1  0
  3 14  1  0
  8  9  2  0
  8 12  1  0
  8 13  1  0
  9 10  2  0
 10 11  1  0
 11 15  1  0
 11 16  1  0
 11 17  1  0
M  RAD  1  10   2
M  END
>  <reaction>  (15) 
rmg_rxn_16804

>  <mol_properties>  (15) 
{"1": {"label": "*0", "atom_type": "Cd"}, "2": {"label": "*1", "atom_type": "N3d"}, "8": {"label": "*4", "atom_type": "Cdd"}, "9": {"label": "*3", "atom_type": "Cd"}, "13": {"label": "*2", "atom_type": "H0"}}

>  <type>  (15) 
unop_11

>  <geom_source>  (15) 
Heuristics

$$$$

     RDKit          3D

 17 15  0  0  0  0  0  0  0  0999 V2000
   -1.2986    2.6901    1.6765 C   0  0  0  0  0  0  0  0  0  0  0  0
   -0.6319    1.7719    0.7036 C   0  0  0  0  0  0  0  0  0  0  0  0
    0.4186    1.0977    1.0279 N   0  0  0  0  0  0  0  0  0  0  0  0
   -1.3043    3.7013    1.2617 H   0  0  0  0  0  0  0  0  0  0  0  0
   -0.7248    2.6969    2.6067 H   0  0  0  0  0  0  0  0  0  0  0  0
   -2.3234    2.3697    1.8788 H   0  0  0  0  0  0  0  0  0  0  0  0
   -1.0711    1.6907   -0.3048 H   0  0  0  0  0  0  0  0  0  0  0  0
    0.4213   -1.1342   -2.7730 C   0  0  0  0  0  0  0  0  0  0  0  0
    0.4213   -1.1342   -1.4757 C   0  0  0  0  0  0  0  0  0  0  0  0
    0.4213   -1.1342   -0.1752 C   0  0  0  0  0  3  0  0  0  0  0  0
    0.4213   -2.3570    0.6798 C   0  0  0  0  0  0  0  0  0  0  0  0
   -0.5110   -1.1355   -3.3255 H   0  0  0  0  0  0  0  0  0  0  0  0
    1.3537   -1.1354   -3.3255 H   0  0  0  0  0  0  0  0  0  0  0  0
    0.4199    0.0133    0.4433 H   0  0  0  0  0  0  0  0  0  0  0  0
    1.3082   -2.3650    1.3207 H   0  0  0  0  0  0  0  0  0  0  0  0
    0.4213   -3.2739    0.0818 H   0  0  0  0  0  0  0  0  0  0  0  0
   -0.4656   -2.3650    1.3207 H   0  0  0  0  0  0  0  0  0  0  0  0
  1  2  1  0
  1  4  1  0
  1  5  1  0
  1  6  1  0
  2  3  2  3
  2  7  1  0
  3 14  1  0
  8  9  2  0
  8 12  1  0
  8 13  1  0
  9 10  2  0
 10 11  1  0
 11 15  1  0
 11 16  1  0
 11 17  1  0
M  RAD  1  10   2
M  END
>  <reaction>  (16) 
rmg_rxn_16804

>  <mol_properties>  (16) 
{"1": {"label": "*0", "atom_type": "Cd"}, "2": {"label": "*1", "atom_type": "N3d"}, "8": {"label": "*4", "atom_type": "Cdd"}, "9": {"label": "*3", "atom_type": "Cd"}, "13": {"label": "*2", "atom_type": "H0"}}

>  <type>  (16) 
unop_12

>  <geom_source>  (16) 
Heuristics

$$$$

     RDKit          3D

 17 15  0  0  0  0  0  0  0  0999 V2000
    0.1033    2.0846    2.8618 C   0  0  0  0  0  0  0  0  0  0  0  0
    0.4816    1.2354    1.6914 C   0  0  0  0  0  0  0  0  0  0  0  0
   -0.1245    1.3448    0.5583 N   0  0  0  0  0  0  0  0  0  0  0  0
   -0.1998    1.4350    3.6868 H   0  0  0  0  0  0  0  0  0  0  0  0
   -0.7454    2.7141    2.5824 H   0  0  0  0  0  0  0  0  0  0  0  0
    0.9397    2.7132    3.1766 H   0  0  0  0  0  0  0  0  0  0  0  0
    1.3001    0.5095    1.8310 H   0  0  0  0  0  0  0  0  0  0  0  0
   -0.1217   -0.8871   -3.2426 C   0  0  0  0  0  0  0  0  0  0  0  0
   -0.1217   -0.8871   -1.9453 C   0  0  0  0  0  0  0  0  0  0  0  0
   -0.1217   -0.8871   -0.6448 C   0  0  0  0  0  3  0  0  0  0  0  0
   -0.1217   -2.1099    0.2102 C   0  0  0  0  0  0  0  0  0  0  0  0
   -1.0541   -0.8884   -3.7951 H   0  0  0  0  0  0  0  0  0  0  0  0
    0.8106   -0.8883   -3.7951 H   0  0  0  0  0  0  0  0  0  0  0  0
   -0.1231    0.2603   -0.0263 H   0  0  0  0  0  0  0  0  0  0  0  0
    0.7652   -2.1179    0.8511 H   0  0  0  0  0  0  0  0  0  0  0  0
   -0.1217   -3.0268   -0.3878 H   0  0  0  0  0  0  0  0  0  0  0  0
   -1.0086   -2.1179    0.8511 H   0  0  0  0  0  0  0  0  0  0  0  0
  1  2  1  0
  1  4  1  0
  1  5  1  0
  1  6  1  0
  2  3  2  3
  2  7  1  0
  3 14  1  0
  8  9  2  0
  8 12  1  0
  8 13  1  0
  9 10  2  0
 10 11  1  0
 11 15  1  0
 11 16  1  0
 11 17  1  0
M  RAD  1  10   2
M  END
>  <reaction>  (17) 
rmg_rxn_16804

>  <mol_properties>  (17) 
{"1": {"label": "*0", "atom_type": "Cd"}, "2": {"label": "*1", "atom_type": "N3d"}, "8": {"label": "*4", "atom_type": "Cdd"}, "9": {"label": "*3", "atom_type": "Cd"}, "13": {"label": "*2", "atom_type": "H0"}}

>  <type>  (17) 
unop_13

>  <geom_source>  (17) 
Heuristics

$$$$

     RDKit          3D

 17 15  0  0  0  0  0  0  0  0999 V2000
   -0.0042    3.3240    0.8498 C   0  0  0  0  0  0  0  0  0  0  0  0
   -0.0025    1.8941    0.4147 C   0  0  0  0  0  0  0  0  0  0  0  0
   -0.0013    0.9310    1.2724 N   0  0  0  0  0  0  0  0  0  0  0  0
    0.8825    3.8181    0.4447 H   0  0  0  0  0  0  0  0  0  0  0  0
    0.0422    3.3617    1.9411 H   0  0  0  0  0  0  0  0  0  0  0  0
   -0.9032    3.8384    0.5019 H   0  0  0  0  0  0  0  0  0  0  0  0
   -0.0022    1.6905   -0.6693 H   0  0  0  0  0  0  0  0  0  0  0  0
    0.0015   -1.3008   -2.5285 C   0  0  0  0  0  0  0  0  0  0  0  0
    0.0015   -1.3008   -1.2312 C   0  0  0  0  0  0  0  0  0  0  0  0
    0.0015   -1.3008    0.0693 C   0  0  0  0  0  3  0  0  0  0  0  0
    0.0015   -2.5236    0.9243 C   0  0  0  0  0  0  0  0  0  0  0  0
   -0.9309   -1.3021   -3.0810 H   0  0  0  0  0  0  0  0  0  0  0  0
    0.9338   -1.3021   -3.0810 H   0  0  0  0  0  0  0  0  0  0  0  0
    0.0001   -0.1534    0.6878 H   0  0  0  0  0  0  0  0  0  0  0  0
    0.8884   -2.5317    1.5652 H   0  0  0  0  0  0  0  0  0  0  0  0
    0.0015   -3.4406    0.3262 H   0  0  0  0  0  0  0  0  0  0  0  0
   -0.8854   -2.5317    1.5652 H   0  0  0  0  0  0  0  0  0  0  0  0
  1  2  1  0
  1  4  1  0
  1  5  1  0
  1  6  1  0
  2  3  2  3
  2  7  1  0
  3 14  1  0
  8  9  2  0
  8 12  1  0
  8 13  1  0
  9 10  2  0
 10 11  1  0
 11 15  1  0
 11 16  1  0
 11 17  1  0
M  RAD  1  10   2
M  END
>  <reaction>  (18) 
rmg_rxn_16804

>  <mol_properties>  (18) 
{"1": {"label": "*0", "atom_type": "Cd"}, "2": {"label": "*1", "atom_type": "N3d"}, "8": {"label": "*4", "atom_type": "Cdd"}, "9": {"label": "*3", "atom_type": "Cd"}, "13": {"label": "*2", "atom_type": "H0"}}

>  <type>  (18) 
unop_14

>  <geom_source>  (18) 
Heuristics

$$$$

     RDKit          3D

 17 15  0  0  0  0  0  0  0  0999 V2000
   -0.8655    3.1298    1.0919 C   0  0  0  0  0  0  0  0  0  0  0  0
   -0.3449    1.8654    0.4883 C   0  0  0  0  0  0  0  0  0  0  0  0
    0.2622    0.9802    1.2031 N   0  0  0  0  0  0  0  0  0  0  0  0
   -0.3931    3.9803    0.5937 H   0  0  0  0  0  0  0  0  0  0  0  0
   -0.5978    3.1524    2.1514 H   0  0  0  0  0  0  0  0  0  0  0  0
   -1.9508    3.1972    0.9852 H   0  0  0  0  0  0  0  0  0  0  0  0
   -0.4986    1.7154   -0.5934 H   0  0  0  0  0  0  0  0  0  0  0  0
    0.2650   -1.2517   -2.5978 C   0  0  0  0  0  0  0  0  0  0  0  0
    0.2650   -1.2517   -1.3005 C   0  0  0  0  0  0  0  0  0  0  0  0
    0.2650   -1.2517   -0.0000 C   0  0  0  0  0  3  0  0  0  0  0  0
    0.2650   -2.4745    0.8550 C   0  0  0  0  0  0  0  0  0  0  0  0
   -0.6674   -1.2530   -3.1503 H   0  0  0  0  0  0  0  0  0  0  0  0
    1.1973   -1.2530   -3.1503 H   0  0  0  0  0  0  0  0  0  0  0  0
    0.2636   -0.1043    0.6185 H   0  0  0  0  0  0  0  0  0  0  0  0
    1.1519   -2.4825    1.4959 H   0  0  0  0  0  0  0  0  0  0  0  0
    0.2650   -3.3914    0.2570 H   0  0  0  0  0  0  0  0  0  0  0  0
   -0.6219   -2.4825    1.4959 H   0  0  0  0  0  0  0  0  0  0  0  0
  1  2  1  0
  1  4  1  0
  1  5  1  0
  1  6  1  0
  2  3  2  3
  2  7  1  0
  3 14  1  0
  8  9  2  0
  8 12  1  0
  8 13  1  0
  9 10  2  0
 10 11  1  0
 11 15  1  0
 11 16  1  0
 11 17  1  0
M  RAD  1  10   2
M  END
>  <reaction>  (19) 
rmg_rxn_16804

>  <mol_properties>  (19) 
{"1": {"label": "*0", "atom_type": "Cd"}, "2": {"label": "*1", "atom_type": "N3d"}, "8": {"label": "*4", "atom_type": "Cdd"}, "9": {"label": "*3", "atom_type": "Cd"}, "13": {"label": "*2", "atom_type": "H0"}}

>  <type>  (19) 
unop_15

>  <geom_source>  (19) 
gaussian_log

$$$$
