
     RDKit          3D

  9  8  0  0  0  0  0  0  0  0999 V2000
   -1.2461    0.5037    0.0950 C   0  0  0  0  0  0  0  0  0  0  0  0
   -0.0155   -0.3334    0.0640 C   0  0  0  0  0  0  0  0  0  0  0  0
    1.0697    0.1457   -0.3733 N   0  0  0  0  0  0  0  0  0  0  0  0
    2.1001   -0.7834   -0.3224 O   0  0  0  0  0  0  0  0  0  0  0  0
   -2.0357    0.0440   -0.5039 H   0  0  0  0  0  0  0  0  0  0  0  0
   -1.6237    0.5897    1.1166 H   0  0  0  0  0  0  0  0  0  0  0  0
   -1.0397    1.4998   -0.2929 H   0  0  0  0  0  0  0  0  0  0  0  0
   -0.0537   -1.3634    0.4205 H   0  0  0  0  0  0  0  0  0  0  0  0
    2.8478   -0.2985   -0.6758 H   0  0  0  0  0  0  0  0  0  0  0  0
  1  2  1  0
  1  5  1  0
  1  6  1  0
  1  7  1  0
  2  3  2  3
  2  8  1  0
  3  4  1  0
  4  9  1  0
M  END
>  <reaction>  (1) 
rmg_rxn_193

>  <mol_properties>  (1) 
{"3": {"label": "donator", "atom_type": "O2s"}, "8": {"label": "d_hydrogen", "atom_type": "H0"}}

>  <type>  (1) 
r1h

$$$$

     RDKit          3D

 13 13  0  0  0  0  0  0  0  0999 V2000
   -1.1371    0.3608    0.3110 C   0  0  0  0  0  3  0  0  0  0  0  0
   -0.0045    1.3224    0.2943 C   0  0  0  0  0  0  0  0  0  0  0  0
    1.2245    0.6965    0.6137 O   0  0  0  0  0  0  0  0  0  0  0  0
    1.3926   -0.4921   -0.0955 C   0  0  0  0  0  0  0  0  0  0  0  0
    0.4387   -1.4537    0.2351 O   0  0  0  0  0  0  0  0  0  0  0  0
   -0.8659   -1.0349   -0.1206 C   0  0  0  0  0  0  0  0  0  0  0  0
   -2.1544    0.7285    0.3341 H   0  0  0  0  0  0  0  0  0  0  0  0
   -0.1488    2.1272    1.0165 H   0  0  0  0  0  0  0  0  0  0  0  0
    0.0825    1.7949   -0.7036 H   0  0  0  0  0  0  0  0  0  0  0  0
    1.3549   -0.2872   -1.1815 H   0  0  0  0  0  0  0  0  0  0  0  0
    2.3646   -0.8956    0.1787 H   0  0  0  0  0  0  0  0  0  0  0  0
   -1.5620   -1.7401    0.3358 H   0  0  0  0  0  0  0  0  0  0  0  0
   -0.9852   -1.1268   -1.2179 H   0  0  0  0  0  0  0  0  0  0  0  0
  1  2  1  0
  1  6  1  0
  1  7  1  0
  2  3  1  0
  2  8  1  0
  2  9  1  0
  3  4  1  0
  4  5  1  0
  4 10  1  0
  4 11  1  0
  5  6  1  0
  6 12  1  0
  6 13  1  0
M  RAD  1   1   2
M  END
>  <reaction>  (2) 
rmg_rxn_193

>  <mol_properties>  (2) 
{"0": {"label": "acceptor", "atom_type": "Cs"}}

>  <type>  (2) 
r2

$$$$

     RDKit          3D

 14 14  0  0  0  0  0  0  0  0999 V2000
   -1.1778    0.2241    0.1818 C   0  0  0  0  0  0  0  0  0  0  0  0
   -0.5633   -1.1636    0.0678 C   0  0  0  0  0  0  0  0  0  0  0  0
    0.6943   -1.1996    0.7146 O   0  0  0  0  0  0  0  0  0  0  0  0
    1.5547   -0.2288    0.2011 C   0  0  0  0  0  0  0  0  0  0  0  0
    1.0729    1.0696    0.3698 O   0  0  0  0  0  0  0  0  0  0  0  0
   -0.1607    1.2493   -0.2989 C   0  0  0  0  0  0  0  0  0  0  0  0
   -2.0927    0.2866   -0.4117 H   0  0  0  0  0  0  0  0  0  0  0  0
   -1.4303    0.4248    1.2248 H   0  0  0  0  0  0  0  0  0  0  0  0
   -1.1822   -1.9235    0.5431 H   0  0  0  0  0  0  0  0  0  0  0  0
   -0.4389   -1.4347   -0.9919 H   0  0  0  0  0  0  0  0  0  0  0  0
    1.7250   -0.4207   -0.8742 H   0  0  0  0  0  0  0  0  0  0  0  0
    2.4896   -0.3010    0.7524 H   0  0  0  0  0  0  0  0  0  0  0  0
   -0.0080    1.1481   -1.3844 H   0  0  0  0  0  0  0  0  0  0  0  0
   -0.4826    2.2695   -0.0942 H   0  0  0  0  0  0  0  0  0  0  0  0
  1  2  1  0
  1  6  1  0
  1  7  1  0
  1  8  1  0
  2  3  1  0
  2  9  1  0
  2 10  1  0
  3  4  1  0
  4  5  1  0
  4 11  1  0
  4 12  1  0
  5  6  1  0
  6 13  1  0
  6 14  1  0
M  END
>  <reaction>  (3) 
rmg_rxn_193

>  <mol_properties>  (3) 
{"0": {"label": "a_hydrogen", "atom_type": "H0"}, "1": {"label": "acceptor", "atom_type": "Cs"}}

>  <type>  (3) 
r2h

$$$$

     RDKit          3D

 22 21  0  0  0  0  0  0  0  0999 V2000
   -0.2086   -2.6240   -3.1212 C   0  0  0  0  0  0  0  0  0  0  0  0
    0.7867   -2.4491   -2.0274 C   0  0  0  0  0  0  0  0  0  0  0  0
    0.6338   -1.5338   -1.1634 N   0  0  0  0  0  0  0  0  0  0  0  0
    1.5880   -1.4675   -0.2258 O   0  0  0  0  0  0  0  0  0  0  0  0
    0.2706   -2.5162   -4.0971 H   0  0  0  0  0  0  0  0  0  0  0  0
   -0.6464   -3.6244   -3.0855 H   0  0  0  0  0  0  0  0  0  0  0  0
   -1.0043   -1.8859   -3.0339 H   0  0  0  0  0  0  0  0  0  0  0  0
    1.6487   -3.1145   -1.9749 H   0  0  0  0  0  0  0  0  0  0  0  0
    1.2610   -0.5586    0.4735 H   0  0  0  0  0  0  0  0  0  0  0  0
    0.7404    0.4662    1.1242 C   0  0  0  0  0  3  0  0  0  0  0  0
    0.6631    1.5873    0.1191 C   0  0  0  0  0  0  0  0  0  0  0  0
   -0.1813    2.6151    0.6223 O   0  0  0  0  0  0  0  0  0  0  0  0
   -1.4419    2.1141    0.9509 C   0  0  0  0  0  0  0  0  0  0  0  0
   -1.3937    1.1503    1.9593 O   0  0  0  0  0  0  0  0  0  0  0  0
   -0.6349    0.0190    1.5506 C   0  0  0  0  0  0  0  0  0  0  0  0
    1.4455    0.6260    1.9387 H   0  0  0  0  0  0  0  0  0  0  0  0
    1.6343    2.0397   -0.0699 H   0  0  0  0  0  0  0  0  0  0  0  0
    0.2590    1.2055   -0.8289 H   0  0  0  0  0  0  0  0  0  0  0  0
   -1.9138    1.6827    0.0503 H   0  0  0  0  0  0  0  0  0  0  0  0
   -2.0301    2.9470    1.3301 H   0  0  0  0  0  0  0  0  0  0  0  0
   -1.1370   -0.4812    0.7106 H   0  0  0  0  0  0  0  0  0  0  0  0
   -0.6028   -0.6633    2.3973 H   0  0  0  0  0  0  0  0  0  0  0  0
  1  2  1  0
  1  5  1  0
  1  6  1  0
  1  7  1  0
  2  3  2  3
  2  8  1  0
  3  4  1  0
  4  9  1  0
 10 11  1  0
 10 15  1  0
 10 16  1  0
 11 12  1  0
 11 17  1  0
 11 18  1  0
 12 13  1  0
 13 14  1  0
 13 19  1  0
 13 20  1  0
 14 15  1  0
 15 21  1  0
 15 22  1  0
M  RAD  1  10   2
M  END
>  <reaction>  (4) 
rmg_rxn_193

>  <mol_properties>  (4) 
{"2": {"label": "*0", "atom_type": "N3d"}, "3": {"label": "*1", "atom_type": "O2s"}, "8": {"label": "*2", "atom_type": "H0"}, "9": {"label": "*3", "atom_type": "Cs"}, "10": {"label": "*4", "atom_type": "Cs"}}

>  <type>  (4) 
ts

$$$$

     RDKit          3D

 22 21  0  0  0  0  0  0  0  0999 V2000
   -0.0301   -2.1531   -4.2479 C   0  0  0  0  0  0  0  0  0  0  0  0
   -0.0301   -2.1531   -2.7592 C   0  0  0  0  0  0  0  0  0  0  0  0
   -0.0301   -1.0610   -2.1224 N   0  0  0  0  0  0  0  0  0  0  0  0
   -0.0301   -1.2657   -0.7492 O   0  0  0  0  0  0  0  0  0  0  0  0
    0.8493   -2.6769   -4.6297 H   0  0  0  0  0  0  0  0  0  0  0  0
   -0.9095   -2.6769   -4.6297 H   0  0  0  0  0  0  0  0  0  0  0  0
   -0.0301   -1.1334   -4.6293 H   0  0  0  0  0  0  0  0  0  0  0  0
   -0.0301   -3.1006   -2.2191 H   0  0  0  0  0  0  0  0  0  0  0  0
   -0.0301   -0.1960   -0.3259 H   0  0  0  0  0  0  0  0  0  0  0  0
   -0.0301    1.0228    0.1565 C   0  0  0  0  0  3  0  0  0  0  0  0
   -1.2650    1.2552    1.0153 C   0  0  0  0  0  0  0  0  0  0  0  0
   -0.9087    1.8911    2.2278 O   0  0  0  0  0  0  0  0  0  0  0  0
    0.0508    1.1539    2.9222 C   0  0  0  0  0  0  0  0  0  0  0  0
    1.2386    0.9965    2.2074 O   0  0  0  0  0  0  0  0  0  0  0  0
    1.0183    0.3039    0.9936 C   0  0  0  0  0  0  0  0  0  0  0  0
    0.3672    1.9839   -0.1757 H   0  0  0  0  0  0  0  0  0  0  0  0
   -1.9881    1.9033    0.5221 H   0  0  0  0  0  0  0  0  0  0  0  0
   -1.7571    0.2953    1.2351 H   0  0  0  0  0  0  0  0  0  0  0  0
   -0.3611    0.1592    3.1735 H   0  0  0  0  0  0  0  0  0  0  0  0
    0.2895    1.7060    3.8284 H   0  0  0  0  0  0  0  0  0  0  0  0
    0.6869   -0.7229    1.2118 H   0  0  0  0  0  0  0  0  0  0  0  0
    1.9796    0.2504    0.4843 H   0  0  0  0  0  0  0  0  0  0  0  0
  1  2  1  0
  1  5  1  0
  1  6  1  0
  1  7  1  0
  2  3  2  3
  2  8  1  0
  3  4  1  0
  4  9  1  0
 10 11  1  0
 10 15  1  0
 10 16  1  0
 11 12  1  0
 11 17  1  0
 11 18  1  0
 12 13  1  0
 13 14  1  0
 13 19  1  0
 13 20  1  0
 14 15  1  0
 15 21  1  0
 15 22  1  0
M  RAD  1  10   2
M  END
>  <reaction>  (5) 
rmg_rxn_193

>  <mol_properties>  (5) 
{"2": {"label": "*0", "atom_type": "N3d"}, "3": {"label": "*1", "atom_type": "O2s"}, "8": {"label": "*2", "atom_type": "H0"}, "9": {"label": "*3", "atom_type": "Cs"}, "10": {"label": "*4", "atom_type": "Cs"}}

>  <type>  (5) 
unop_1

>  <geom_source>  (5) 
Heuristics

$$$$

     RDKit          3D

 22 21  0  0  0  0  0  0  0  0999 V2000
    0.6469   -2.6444   -3.6243 C   0  0  0  0  0  0  0  0  0  0  0  0
    0.6469   -2.6444   -2.1356 C   0  0  0  0  0  0  0  0  0  0  0  0
    0.6469   -1.5523   -1.4988 N   0  0  0  0  0  0  0  0  0  0  0  0
    0.6469   -1.7570   -0.1256 O   0  0  0  0  0  0  0  0  0  0  0  0
    1.5263   -3.1682   -4.0061 H   0  0  0  0  0  0  0  0  0  0  0  0
   -0.2325   -3.1682   -4.0061 H   0  0  0  0  0  0  0  0  0  0  0  0
    0.6469   -1.6247   -4.0057 H   0  0  0  0  0  0  0  0  0  0  0  0
    0.6469   -3.5919   -1.5955 H   0  0  0  0  0  0  0  0  0  0  0  0
    0.6469   -0.6873    0.2978 H   0  0  0  0  0  0  0  0  0  0  0  0
    0.6469    0.5315    0.7801 C   0  0  0  0  0  3  0  0  0  0  0  0
   -0.0661    1.4807   -0.1723 C   0  0  0  0  0  0  0  0  0  0  0  0
   -0.5624    2.6032    0.5314 O   0  0  0  0  0  0  0  0  0  0  0  0
   -1.4053    2.2145    1.5730 C   0  0  0  0  0  0  0  0  0  0  0  0
   -0.7652    1.4177    2.5227 O   0  0  0  0  0  0  0  0  0  0  0  0
   -0.2818    0.2202    1.9451 C   0  0  0  0  0  0  0  0  0  0  0  0
    1.5540    1.0084    1.1565 H   0  0  0  0  0  0  0  0  0  0  0  0
    0.6025    1.8638   -0.9420 H   0  0  0  0  0  0  0  0  0  0  0  0
   -0.8998    0.9606   -0.6686 H   0  0  0  0  0  0  0  0  0  0  0  0
   -2.2725    1.6677    1.1591 H   0  0  0  0  0  0  0  0  0  0  0  0
   -1.7334    3.1199    2.0786 H   0  0  0  0  0  0  0  0  0  0  0  0
   -1.1307   -0.3886    1.5978 H   0  0  0  0  0  0  0  0  0  0  0  0
    0.2277   -0.3266    2.7374 H   0  0  0  0  0  0  0  0  0  0  0  0
  1  2  1  0
  1  5  1  0
  1  6  1  0
  1  7  1  0
  2  3  2  3
  2  8  1  0
  3  4  1  0
  4  9  1  0
 10 11  1  0
 10 15  1  0
 10 16  1  0
 11 12  1  0
 11 17  1  0
 11 18  1  0
 12 13  1  0
 13 14  1  0
 13 19  1  0
 13 20  1  0
 14 15  1  0
 15 21  1  0
 15 22  1  0
M  RAD  1  10   2
M  END
>  <reaction>  (6) 
rmg_rxn_193

>  <mol_properties>  (6) 
{"2": {"label": "*0", "atom_type": "N3d"}, "3": {"label": "*1", "atom_type": "O2s"}, "8": {"label": "*2", "atom_type": "H0"}, "9": {"label": "*3", "atom_type": "Cs"}, "10": {"label": "*4", "atom_type": "Cs"}}

>  <type>  (6) 
unop_2

>  <geom_source>  (6) 
Heuristics

$$$$

     RDKit          3D

 22 21  0  0  0  0  0  0  0  0999 V2000
   -0.4016   -2.3374   -4.1170 C   0  0  0  0  0  0  0  0  0  0  0  0
   -0.4016   -2.3374   -2.6283 C   0  0  0  0  0  0  0  0  0  0  0  0
   -0.4016   -1.2454   -1.9915 N   0  0  0  0  0  0  0  0  0  0  0  0
   -0.4016   -1.4500   -0.6183 O   0  0  0  0  0  0  0  0  0  0  0  0
    0.4779   -2.8613   -4.4988 H   0  0  0  0  0  0  0  0  0  0  0  0
   -1.2810   -2.8613   -4.4988 H   0  0  0  0  0  0  0  0  0  0  0  0
   -0.4016   -1.3178   -4.4984 H   0  0  0  0  0  0  0  0  0  0  0  0
   -0.4016   -3.2850   -2.0882 H   0  0  0  0  0  0  0  0  0  0  0  0
   -0.4016   -0.3804   -0.1950 H   0  0  0  0  0  0  0  0  0  0  0  0
   -0.4016    0.8384    0.2874 C   0  0  0  0  0  3  0  0  0  0  0  0
   -1.1145    0.8787    1.6315 C   0  0  0  0  0  0  0  0  0  0  0  0
   -0.4989    1.8224    2.4871 O   0  0  0  0  0  0  0  0  0  0  0  0
    0.8589    1.5464    2.6502 C   0  0  0  0  0  0  0  0  0  0  0  0
    1.5714    1.5922    1.4516 O   0  0  0  0  0  0  0  0  0  0  0  0
    1.0870    0.6339    0.5304 C   0  0  0  0  0  0  0  0  0  0  0  0
   -0.5575    1.7844   -0.2347 H   0  0  0  0  0  0  0  0  0  0  0  0
   -2.1565    1.1796    1.5310 H   0  0  0  0  0  0  0  0  0  0  0  0
   -1.0875   -0.1160    2.1023 H   0  0  0  0  0  0  0  0  0  0  0  0
    0.9781    0.5483    3.1105 H   0  0  0  0  0  0  0  0  0  0  0  0
    1.2695    2.3158    3.3001 H   0  0  0  0  0  0  0  0  0  0  0  0
    1.2689   -0.3780    0.9237 H   0  0  0  0  0  0  0  0  0  0  0  0
    1.6690    0.7542   -0.3823 H   0  0  0  0  0  0  0  0  0  0  0  0
  1  2  1  0
  1  5  1  0
  1  6  1  0
  1  7  1  0
  2  3  2  3
  2  8  1  0
  3  4  1  0
  4  9  1  0
 10 11  1  0
 10 15  1  0
 10 16  1  0
 11 12  1  0
 11 17  1  0
 11 18  1  0
 12 13  1  0
 13 14  1  0
 13 19  1  0
 13 20  1  0
 14 15  1  0
 15 21  1  0
 15 22  1  0
M  RAD  1  10   2
M  END
>  <reaction>  (7) 
rmg_rxn_193

>  <mol_properties>  (7) 
{"2": {"label": "*0", "atom_type": "N3d"}, "3": {"label": "*1", "atom_type": "O2s"}, "8": {"label": "*2", "atom_type": "H0"}, "9": {"label": "*3", "atom_type": "Cs"}, "10": {"label": "*4", "atom_type": "Cs"}}

>  <type>  (7) 
unop_3

>  <geom_source>  (7) 
Heuristics

$$$$

     RDKit          3D

 22 21  0  0  0  0  0  0  0  0999 V2000
   -0.1546   -2.9449   -3.5767 C   0  0  0  0  0  0  0  0  0  0  0  0
   -0.1546   -2.9449   -2.0881 C   0  0  0  0  0  0  0  0  0  0  0  0
   -0.1546   -1.8528   -1.4513 N   0  0  0  0  0  0  0  0  0  0  0  0
   -0.1546   -2.0575   -0.0781 O   0  0  0  0  0  0  0  0  0  0  0  0
    0.7248   -3.4687   -3.9585 H   0  0  0  0  0  0  0  0  0  0  0  0
   -1.0340   -3.4687   -3.9585 H   0  0  0  0  0  0  0  0  0  0  0  0
   -0.1546   -1.9252   -3.9581 H   0  0  0  0  0  0  0  0  0  0  0  0
   -0.1546   -3.8924   -1.5479 H   0  0  0  0  0  0  0  0  0  0  0  0
   -0.1546   -0.9878    0.3453 H   0  0  0  0  0  0  0  0  0  0  0  0
   -0.1546    0.2310    0.8277 C   0  0  0  0  0  3  0  0  0  0  0  0
    1.0804    0.9882    0.3605 C   0  0  0  0  0  0  0  0  0  0  0  0
    1.3994    2.0204    1.2738 O   0  0  0  0  0  0  0  0  0  0  0  0
    0.3210    2.8870    1.4540 C   0  0  0  0  0  0  0  0  0  0  0  0
   -0.8076    2.2509    1.9720 O   0  0  0  0  0  0  0  0  0  0  0  0
   -1.2665    1.2333    1.1030 C   0  0  0  0  0  0  0  0  0  0  0  0
    0.0787   -0.3134    1.7448 H   0  0  0  0  0  0  0  0  0  0  0  0
    1.9552    0.3423    0.2993 H   0  0  0  0  0  0  0  0  0  0  0  0
    0.9022    1.4215   -0.6356 H   0  0  0  0  0  0  0  0  0  0  0  0
    0.0649    3.3606    0.4885 H   0  0  0  0  0  0  0  0  0  0  0  0
    0.6282    3.6398    2.1766 H   0  0  0  0  0  0  0  0  0  0  0  0
   -1.6098    1.6838    0.1591 H   0  0  0  0  0  0  0  0  0  0  0  0
   -2.1228    0.7682    1.5895 H   0  0  0  0  0  0  0  0  0  0  0  0
  1  2  1  0
  1  5  1  0
  1  6  1  0
  1  7  1  0
  2  3  2  3
  2  8  1  0
  3  4  1  0
  4  9  1  0
 10 11  1  0
 10 15  1  0
 10 16  1  0
 11 12  1  0
 11 17  1  0
 11 18  1  0
 12 13  1  0
 13 14  1  0
 13 19  1  0
 13 20  1  0
 14 15  1  0
 15 21  1  0
 15 22  1  0
M  RAD  1  10   2
M  END
>  <reaction>  (8) 
rmg_rxn_193

>  <mol_properties>  (8) 
{"2": {"label": "*0", "atom_type": "N3d"}, "3": {"label": "*1", "atom_type": "O2s"}, "8": {"label": "*2", "atom_type": "H0"}, "9": {"label": "*3", "atom_type": "Cs"}, "10": {"label": "*4", "atom_type": "Cs"}}

>  <type>  (8) 
unop_4

>  <geom_source>  (8) 
Heuristics

$$$$

     RDKit          3D

 22 21  0  0  0  0  0  0  0  0999 V2000
   -0.4082   -2.7098   -3.8595 C   0  0  0  0  0  0  0  0  0  0  0  0
   -0.4082   -2.7098   -2.3709 C   0  0  0  0  0  0  0  0  0  0  0  0
   -0.4082   -1.6177   -1.7341 N   0  0  0  0  0  0  0  0  0  0  0  0
   -0.4082   -1.8224   -0.3609 O   0  0  0  0  0  0  0  0  0  0  0  0
    0.4712   -3.2336   -4.2413 H   0  0  0  0  0  0  0  0  0  0  0  0
   -1.2876   -3.2336   -4.2413 H   0  0  0  0  0  0  0  0  0  0  0  0
   -0.4082   -1.6901   -4.2409 H   0  0  0  0  0  0  0  0  0  0  0  0
   -0.4082   -3.6573   -1.8307 H   0  0  0  0  0  0  0  0  0  0  0  0
   -0.4082   -0.7527    0.0625 H   0  0  0  0  0  0  0  0  0  0  0  0
   -0.4082    0.4661    0.5449 C   0  0  0  0  0  3  0  0  0  0  0  0
   -0.4082    0.4361    2.0666 C   0  0  0  0  0  0  0  0  0  0  0  0
   -0.2596    1.7441    2.5846 O   0  0  0  0  0  0  0  0  0  0  0  0
    0.8975    2.3524    2.0972 C   0  0  0  0  0  0  0  0  0  0  0  0
    0.8982    2.4867    0.7085 O   0  0  0  0  0  0  0  0  0  0  0  0
    0.8230    1.2257    0.0717 C   0  0  0  0  0  0  0  0  0  0  0  0
   -1.3069    0.9755    0.1918 H   0  0  0  0  0  0  0  0  0  0  0  0
   -1.3428    0.0449    2.4663 H   0  0  0  0  0  0  0  0  0  0  0  0
    0.4142   -0.1985    2.4309 H   0  0  0  0  0  0  0  0  0  0  0  0
    1.7806    1.7654    2.4099 H   0  0  0  0  0  0  0  0  0  0  0  0
    0.9386    3.3541    2.5190 H   0  0  0  0  0  0  0  0  0  0  0  0
    1.7320    0.6466    0.2956 H   0  0  0  0  0  0  0  0  0  0  0  0
    0.7966    1.4169   -1.0002 H   0  0  0  0  0  0  0  0  0  0  0  0
  1  2  1  0
  1  5  1  0
  1  6  1  0
  1  7  1  0
  2  3  2  3
  2  8  1  0
  3  4  1  0
  4  9  1  0
 10 11  1  0
 10 15  1  0
 10 16  1  0
 11 12  1  0
 11 17  1  0
 11 18  1  0
 12 13  1  0
 13 14  1  0
 13 19  1  0
 13 20  1  0
 14 15  1  0
 15 21  1  0
 15 22  1  0
M  RAD  1  10   2
M  END
>  <reaction>  (9) 
rmg_rxn_193

>  <mol_properties>  (9) 
{"2": {"label": "*0", "atom_type": "N3d"}, "3": {"label": "*1", "atom_type": "O2s"}, "8": {"label": "*2", "atom_type": "H0"}, "9": {"label": "*3", "atom_type": "Cs"}, "10": {"label": "*4", "atom_type": "Cs"}}

>  <type>  (9) 
unop_5

>  <geom_source>  (9) 
Heuristics

$$$$

     RDKit          3D

 22 21  0  0  0  0  0  0  0  0999 V2000
   -0.1927   -2.8723   -3.7515 C   0  0  0  0  0  0  0  0  0  0  0  0
   -0.1927   -2.8723   -2.2628 C   0  0  0  0  0  0  0  0  0  0  0  0
   -0.1927   -1.7803   -1.6260 N   0  0  0  0  0  0  0  0  0  0  0  0
   -0.1927   -1.9849   -0.2528 O   0  0  0  0  0  0  0  0  0  0  0  0
    0.6867   -3.3962   -4.1333 H   0  0  0  0  0  0  0  0  0  0  0  0
   -1.0721   -3.3962   -4.1333 H   0  0  0  0  0  0  0  0  0  0  0  0
   -0.1927   -1.8526   -4.1329 H   0  0  0  0  0  0  0  0  0  0  0  0
   -0.1927   -3.8198   -1.7227 H   0  0  0  0  0  0  0  0  0  0  0  0
   -0.1927   -0.9153    0.1706 H   0  0  0  0  0  0  0  0  0  0  0  0
   -0.1927    0.3036    0.6530 C   0  0  0  0  0  3  0  0  0  0  0  0
    1.2333    0.7983    0.8488 C   0  0  0  0  0  0  0  0  0  0  0  0
    1.3043    1.6665    1.9635 O   0  0  0  0  0  0  0  0  0  0  0  0
    0.4188    2.7361    1.8283 C   0  0  0  0  0  0  0  0  0  0  0  0
   -0.9136    2.3319    1.7403 O   0  0  0  0  0  0  0  0  0  0  0  0
   -1.1251    1.5058    0.6114 C   0  0  0  0  0  0  0  0  0  0  0  0
   -0.4706   -0.3427    1.4878 H   0  0  0  0  0  0  0  0  0  0  0  0
    1.9251   -0.0199    1.0441 H   0  0  0  0  0  0  0  0  0  0  0  0
    1.5748    1.3298   -0.0527 H   0  0  0  0  0  0  0  0  0  0  0  0
    0.6850    3.3219    0.9293 H   0  0  0  0  0  0  0  0  0  0  0  0
    0.5126    3.3486    2.7222 H   0  0  0  0  0  0  0  0  0  0  0  0
   -0.9495    2.0871   -0.3068 H   0  0  0  0  0  0  0  0  0  0  0  0
   -2.1729    1.2096    0.6316 H   0  0  0  0  0  0  0  0  0  0  0  0
  1  2  1  0
  1  5  1  0
  1  6  1  0
  1  7  1  0
  2  3  2  3
  2  8  1  0
  3  4  1  0
  4  9  1  0
 10 11  1  0
 10 15  1  0
 10 16  1  0
 11 12  1  0
 11 17  1  0
 11 18  1  0
 12 13  1  0
 13 14  1  0
 13 19  1  0
 13 20  1  0
 14 15  1  0
 15 21  1  0
 15 22  1  0
M  RAD  1  10   2
M  END
>  <reaction>  (10) 
rmg_rxn_193

>  <mol_properties>  (10) 
{"2": {"label": "*0", "atom_type": "N3d"}, "3": {"label": "*1", "atom_type": "O2s"}, "8": {"label": "*2", "atom_type": "H0"}, "9": {"label": "*3", "atom_type": "Cs"}, "10": {"label": "*4", "atom_type": "Cs"}}

>  <type>  (10) 
unop_6

>  <geom_source>  (10) 
Heuristics

$$$$

     RDKit          3D

 22 21  0  0  0  0  0  0  0  0999 V2000
   -0.1283   -2.8391   -3.8346 C   0  0  0  0  0  0  0  0  0  0  0  0
   -0.1283   -2.8391   -2.3459 C   0  0  0  0  0  0  0  0  0  0  0  0
   -0.1283   -1.7470   -1.7091 N   0  0  0  0  0  0  0  0  0  0  0  0
   -0.1283   -1.9517   -0.3359 O   0  0  0  0  0  0  0  0  0  0  0  0
    0.7512   -3.3629   -4.2164 H   0  0  0  0  0  0  0  0  0  0  0  0
   -1.0077   -3.3629   -4.2164 H   0  0  0  0  0  0  0  0  0  0  0  0
   -0.1283   -1.8194   -4.2160 H   0  0  0  0  0  0  0  0  0  0  0  0
   -0.1283   -3.7866   -1.8058 H   0  0  0  0  0  0  0  0  0  0  0  0
   -0.1283   -0.8820    0.0874 H   0  0  0  0  0  0  0  0  0  0  0  0
   -0.1283    0.3368    0.5698 C   0  0  0  0  0  3  0  0  0  0  0  0
    1.1067    0.5692    1.4286 C   0  0  0  0  0  0  0  0  0  0  0  0
    0.8080    1.4548    2.4907 O   0  0  0  0  0  0  0  0  0  0  0  0
    0.2973    2.6622    2.0135 C   0  0  0  0  0  0  0  0  0  0  0  0
   -0.8902    2.5060    1.2979 O   0  0  0  0  0  0  0  0  0  0  0  0
   -0.6991    1.6870    0.1603 C   0  0  0  0  0  0  0  0  0  0  0  0
   -0.8741   -0.2125    1.1476 H   0  0  0  0  0  0  0  0  0  0  0  0
    1.4673   -0.3533    1.8816 H   0  0  0  0  0  0  0  0  0  0  0  0
    1.9178    0.9914    0.8157 H   0  0  0  0  0  0  0  0  0  0  0  0
    1.0518    3.1517    1.3706 H   0  0  0  0  0  0  0  0  0  0  0  0
    0.0746    3.2834    2.8781 H   0  0  0  0  0  0  0  0  0  0  0  0
   -0.0151    2.1879   -0.5418 H   0  0  0  0  0  0  0  0  0  0  0  0
   -1.6706    1.5891   -0.3222 H   0  0  0  0  0  0  0  0  0  0  0  0
  1  2  1  0
  1  5  1  0
  1  6  1  0
  1  7  1  0
  2  3  2  3
  2  8  1  0
  3  4  1  0
  4  9  1  0
 10 11  1  0
 10 15  1  0
 10 16  1  0
 11 12  1  0
 11 17  1  0
 11 18  1  0
 12 13  1  0
 13 14  1  0
 13 19  1  0
 13 20  1  0
 14 15  1  0
 15 21  1  0
 15 22  1  0
M  RAD  1  10   2
M  END
>  <reaction>  (11) 
rmg_rxn_193

>  <mol_properties>  (11) 
{"2": {"label": "*0", "atom_type": "N3d"}, "3": {"label": "*1", "atom_type": "O2s"}, "8": {"label": "*2", "atom_type": "H0"}, "9": {"label": "*3", "atom_type": "Cs"}, "10": {"label": "*4", "atom_type": "Cs"}}

>  <type>  (11) 
unop_7

>  <geom_source>  (11) 
Heuristics

$$$$

     RDKit          3D

 22 21  0  0  0  0  0  0  0  0999 V2000
    0.3729   -2.1903   -4.1624 C   0  0  0  0  0  0  0  0  0  0  0  0
    0.3729   -2.1903   -2.6737 C   0  0  0  0  0  0  0  0  0  0  0  0
    0.3729   -1.0982   -2.0369 N   0  0  0  0  0  0  0  0  0  0  0  0
    0.3729   -1.3029   -0.6637 O   0  0  0  0  0  0  0  0  0  0  0  0
    1.2523   -2.7141   -4.5442 H   0  0  0  0  0  0  0  0  0  0  0  0
   -0.5065   -2.7141   -4.5442 H   0  0  0  0  0  0  0  0  0  0  0  0
    0.3729   -1.1706   -4.5438 H   0  0  0  0  0  0  0  0  0  0  0  0
    0.3729   -3.1378   -2.1336 H   0  0  0  0  0  0  0  0  0  0  0  0
    0.3729   -0.2332   -0.2403 H   0  0  0  0  0  0  0  0  0  0  0  0
    0.3729    0.9856    0.2420 C   0  0  0  0  0  3  0  0  0  0  0  0
   -1.0531    1.4803    0.4379 C   0  0  0  0  0  0  0  0  0  0  0  0
   -1.1897    2.1003    1.7022 O   0  0  0  0  0  0  0  0  0  0  0  0
   -0.8150    1.2365    2.7317 C   0  0  0  0  0  0  0  0  0  0  0  0
    0.5171    0.8311    2.6444 O   0  0  0  0  0  0  0  0  0  0  0  0
    0.7618    0.1308    1.4398 C   0  0  0  0  0  0  0  0  0  0  0  0
    1.0475    1.8410    0.1722 H   0  0  0  0  0  0  0  0  0  0  0  0
   -1.3323    2.2237   -0.3076 H   0  0  0  0  0  0  0  0  0  0  0  0
   -1.7577    0.6377    0.3642 H   0  0  0  0  0  0  0  0  0  0  0  0
   -1.4711    0.3468    2.7217 H   0  0  0  0  0  0  0  0  0  0  0  0
   -0.9270    1.7804    3.6670 H   0  0  0  0  0  0  0  0  0  0  0  0
    0.1849   -0.8068    1.4367 H   0  0  0  0  0  0  0  0  0  0  0  0
    1.8213   -0.1214    1.4335 H   0  0  0  0  0  0  0  0  0  0  0  0
  1  2  1  0
  1  5  1  0
  1  6  1  0
  1  7  1  0
  2  3  2  3
  2  8  1  0
  3  4  1  0
  4  9  1  0
 10 11  1  0
 10 15  1  0
 10 16  1  0
 11 12  1  0
 11 17  1  0
 11 18  1  0
 12 13  1  0
 13 14  1  0
 13 19  1  0
 13 20  1  0
 14 15  1  0
 15 21  1  0
 15 22  1  0
M  RAD  1  10   2
M  END
>  <reaction>  (12) 
rmg_rxn_193

>  <mol_properties>  (12) 
{"2": {"label": "*0", "atom_type": "N3d"}, "3": {"label": "*1", "atom_type": "O2s"}, "8": {"label": "*2", "atom_type": "H0"}, "9": {"label": "*3", "atom_type": "Cs"}, "10": {"label": "*4", "atom_type": "Cs"}}

>  <type>  (12) 
unop_8

>  <geom_source>  (12) 
Heuristics

$$$$

     RDKit          3D

 22 21  0  0  0  0  0  0  0  0999 V2000
    0.0695   -2.9798   -3.4222 C   0  0  0  0  0  0  0  0  0  0  0  0
    0.0695   -2.9798   -1.9336 C   0  0  0  0  0  0  0  0  0  0  0  0
    0.0695   -1.8877   -1.2968 N   0  0  0  0  0  0  0  0  0  0  0  0
    0.0695   -2.0924    0.0764 O   0  0  0  0  0  0  0  0  0  0  0  0
    0.9489   -3.5036   -3.8040 H   0  0  0  0  0  0  0  0  0  0  0  0
   -0.8100   -3.5036   -3.8040 H   0  0  0  0  0  0  0  0  0  0  0  0
    0.0695   -1.9601   -3.8036 H   0  0  0  0  0  0  0  0  0  0  0  0
    0.0695   -3.9273   -1.3934 H   0  0  0  0  0  0  0  0  0  0  0  0
    0.0695   -1.0227    0.4998 H   0  0  0  0  0  0  0  0  0  0  0  0
    0.0695    0.1961    0.9822 C   0  0  0  0  0  3  0  0  0  0  0  0
    0.7825    1.1453    0.0297 C   0  0  0  0  0  0  0  0  0  0  0  0
    1.0180    2.3898    0.6599 O   0  0  0  0  0  0  0  0  0  0  0  0
   -0.1698    2.9518    1.1287 C   0  0  0  0  0  0  0  0  0  0  0  0
   -0.8110    2.1556    2.0781 O   0  0  0  0  0  0  0  0  0  0  0  0
   -1.1625    0.8963    1.5377 C   0  0  0  0  0  0  0  0  0  0  0  0
    0.7396   -0.0654    1.8034 H   0  0  0  0  0  0  0  0  0  0  0  0
    1.7540    0.7606   -0.2774 H   0  0  0  0  0  0  0  0  0  0  0  0
    0.1728    1.3009   -0.8736 H   0  0  0  0  0  0  0  0  0  0  0  0
   -0.8525    3.1306    0.2778 H   0  0  0  0  0  0  0  0  0  0  0  0
    0.0862    3.8910    1.6140 H   0  0  0  0  0  0  0  0  0  0  0  0
   -1.9090    1.0344    0.7405 H   0  0  0  0  0  0  0  0  0  0  0  0
   -1.6257    0.3278    2.3431 H   0  0  0  0  0  0  0  0  0  0  0  0
  1  2  1  0
  1  5  1  0
  1  6  1  0
  1  7  1  0
  2  3  2  3
  2  8  1  0
  3  4  1  0
  4  9  1  0
 10 11  1  0
 10 15  1  0
 10 16  1  0
 11 12  1  0
 11 17  1  0
 11 18  1  0
 12 13  1  0
 13 14  1  0
 13 19  1  0
 13 20  1  0
 14 15  1  0
 15 21  1  0
 15 22  1  0
M  RAD  1  10   2
M  END
>  <reaction>  (13) 
rmg_rxn_193

>  <mol_properties>  (13) 
{"2": {"label": "*0", "atom_type": "N3d"}, "3": {"label": "*1", "atom_type": "O2s"}, "8": {"label": "*2", "atom_type": "H0"}, "9": {"label": "*3", "atom_type": "Cs"}, "10": {"label": "*4", "atom_type": "Cs"}}

>  <type>  (13) 
unop_9

>  <geom_source>  (13) 
Heuristics

$$$$

     RDKit          3D

 22 21  0  0  0  0  0  0  0  0999 V2000
    0.6318   -2.3775   -3.9185 C   0  0  0  0  0  0  0  0  0  0  0  0
    0.6318   -2.3775   -2.4299 C   0  0  0  0  0  0  0  0  0  0  0  0
    0.6318   -1.2854   -1.7931 N   0  0  0  0  0  0  0  0  0  0  0  0
    0.6318   -1.4901   -0.4199 O   0  0  0  0  0  0  0  0  0  0  0  0
    1.5112   -2.9013   -4.3003 H   0  0  0  0  0  0  0  0  0  0  0  0
   -0.2477   -2.9013   -4.3003 H   0  0  0  0  0  0  0  0  0  0  0  0
    0.6318   -1.3578   -4.3000 H   0  0  0  0  0  0  0  0  0  0  0  0
    0.6318   -3.3250   -1.8897 H   0  0  0  0  0  0  0  0  0  0  0  0
    0.6318   -0.4204    0.0035 H   0  0  0  0  0  0  0  0  0  0  0  0
    0.6318    0.7984    0.4859 C   0  0  0  0  0  3  0  0  0  0  0  0
   -0.6032    1.5555    0.0187 C   0  0  0  0  0  0  0  0  0  0  0  0
   -1.0959    2.3813    1.0564 O   0  0  0  0  0  0  0  0  0  0  0  0
   -1.3701    1.6394    2.2056 C   0  0  0  0  0  0  0  0  0  0  0  0
   -0.2424    1.0025    2.7242 O   0  0  0  0  0  0  0  0  0  0  0  0
    0.3044    0.0893    1.7922 C   0  0  0  0  0  0  0  0  0  0  0  0
    1.4491    1.5032    0.6503 H   0  0  0  0  0  0  0  0  0  0  0  0
   -0.3855    2.2088   -0.8252 H   0  0  0  0  0  0  0  0  0  0  0  0
   -1.3864    0.8457   -0.2887 H   0  0  0  0  0  0  0  0  0  0  0  0
   -2.1464    0.8855    1.9796 H   0  0  0  0  0  0  0  0  0  0  0  0
   -1.7254    2.3351    2.9626 H   0  0  0  0  0  0  0  0  0  0  0  0
   -0.4149   -0.7237    1.6096 H   0  0  0  0  0  0  0  0  0  0  0  0
    1.1916   -0.3391    2.2566 H   0  0  0  0  0  0  0  0  0  0  0  0
  1  2  1  0
  1  5  1  0
  1  6  1  0
  1  7  1  0
  2  3  2  3
  2  8  1  0
  3  4  1  0
  4  9  1  0
 10 11  1  0
 10 15  1  0
 10 16  1  0
 11 12  1  0
 11 17  1  0
 11 18  1  0
 12 13  1  0
 13 14  1  0
 13 19  1  0
 13 20  1  0
 14 15  1  0
 15 21  1  0
 15 22  1  0
M  RAD  1  10   2
M  END
>  <reaction>  (14) 
rmg_rxn_193

>  <mol_properties>  (14) 
{"2": {"label": "*0", "atom_type": "N3d"}, "3": {"label": "*1", "atom_type": "O2s"}, "8": {"label": "*2", "atom_type": "H0"}, "9": {"label": "*3", "atom_type": "Cs"}, "10": {"label": "*4", "atom_type": "Cs"}}

>  <type>  (14) 
unop_10

>  <geom_source>  (14) 
Heuristics

$$$$

     RDKit          3D

 22 21  0  0  0  0  0  0  0  0999 V2000
   -0.1526   -2.8509   -3.8076 C   0  0  0  0  0  0  0  0  0  0  0  0
   -0.1526   -2.8509   -2.3190 C   0  0  0  0  0  0  0  0  0  0  0  0
   -0.1526   -1.7589   -1.6822 N   0  0  0  0  0  0  0  0  0  0  0  0
   -0.1526   -1.9635   -0.3090 O   0  0  0  0  0  0  0  0  0  0  0  0
    0.7268   -3.3748   -4.1894 H   0  0  0  0  0  0  0  0  0  0  0  0
   -1.0320   -3.3748   -4.1894 H   0  0  0  0  0  0  0  0  0  0  0  0
   -0.1526   -1.8312   -4.1891 H   0  0  0  0  0  0  0  0  0  0  0  0
   -0.1526   -3.7984   -1.7788 H   0  0  0  0  0  0  0  0  0  0  0  0
   -0.1526   -0.8939    0.1144 H   0  0  0  0  0  0  0  0  0  0  0  0
   -0.1526    0.3250    0.5968 C   0  0  0  0  0  3  0  0  0  0  0  0
    0.5604    0.3652    1.9409 C   0  0  0  0  0  0  0  0  0  0  0  0
    0.1464    1.4958    2.6838 O   0  0  0  0  0  0  0  0  0  0  0  0
    0.3596    2.6754    1.9700 C   0  0  0  0  0  0  0  0  0  0  0  0
   -0.3520    2.7220    0.7709 O   0  0  0  0  0  0  0  0  0  0  0  0
    0.0303    1.6692   -0.0933 C   0  0  0  0  0  0  0  0  0  0  0  0
   -1.2168    0.1404    0.7557 H   0  0  0  0  0  0  0  0  0  0  0  0
    0.3335   -0.5096    2.5487 H   0  0  0  0  0  0  0  0  0  0  0  0
    1.6499    0.4051    1.7883 H   0  0  0  0  0  0  0  0  0  0  0  0
    1.4393    2.7882    1.7610 H   0  0  0  0  0  0  0  0  0  0  0  0
    0.0047    3.4965    2.5888 H   0  0  0  0  0  0  0  0  0  0  0  0
    1.0825    1.8008   -0.3889 H   0  0  0  0  0  0  0  0  0  0  0  0
   -0.5875    1.7562   -0.9860 H   0  0  0  0  0  0  0  0  0  0  0  0
  1  2  1  0
  1  5  1  0
  1  6  1  0
  1  7  1  0
  2  3  2  3
  2  8  1  0
  3  4  1  0
  4  9  1  0
 10 11  1  0
 10 15  1  0
 10 16  1  0
 11 12  1  0
 11 17  1  0
 11 18  1  0
 12 13  1  0
 13 14  1  0
 13 19  1  0
 13 20  1  0
 14 15  1  0
 15 21  1  0
 15 22  1  0
M  RAD  1  10   2
M  END
>  <reaction>  (15) 
rmg_rxn_193

>  <mol_properties>  (15) 
{"2": {"label": "*0", "atom_type": "N3d"}, "3": {"label": "*1", "atom_type": "O2s"}, "8": {"label": "*2", "atom_type": "H0"}, "9": {"label": "*3", "atom_type": "Cs"}, "10": {"label": "*4", "atom_type": "Cs"}}

>  <type>  (15) 
unop_11

>  <geom_source>  (15) 
Heuristics

$$$$

     RDKit          3D

 22 21  0  0  0  0  0  0  0  0999 V2000
    0.4082   -2.8822   -3.4239 C   0  0  0  0  0  0  0  0  0  0  0  0
    0.4082   -2.8822   -1.9353 C   0  0  0  0  0  0  0  0  0  0  0  0
    0.4082   -1.7901   -1.2985 N   0  0  0  0  0  0  0  0  0  0  0  0
    0.4082   -1.9948    0.0747 O   0  0  0  0  0  0  0  0  0  0  0  0
    1.2876   -3.4060   -3.8057 H   0  0  0  0  0  0  0  0  0  0  0  0
   -0.4712   -3.4060   -3.8057 H   0  0  0  0  0  0  0  0  0  0  0  0
    0.4082   -1.8625   -3.8054 H   0  0  0  0  0  0  0  0  0  0  0  0
    0.4082   -3.8297   -1.3951 H   0  0  0  0  0  0  0  0  0  0  0  0
    0.4082   -0.9251    0.4981 H   0  0  0  0  0  0  0  0  0  0  0  0
    0.4082    0.2937    0.9805 C   0  0  0  0  0  3  0  0  0  0  0  0
    0.4082    1.3132   -0.1496 C   0  0  0  0  0  0  0  0  0  0  0  0
    0.2596    2.6215    0.3678 O   0  0  0  0  0  0  0  0  0  0  0  0
   -0.8975    2.7314    1.1395 C   0  0  0  0  0  0  0  0  0  0  0  0
   -0.8982    1.8790    2.2439 O   0  0  0  0  0  0  0  0  0  0  0  0
   -0.8230    0.5237    1.8453 C   0  0  0  0  0  0  0  0  0  0  0  0
    1.3069    0.4235    1.5865 H   0  0  0  0  0  0  0  0  0  0  0  0
    1.3428    1.3015   -0.7088 H   0  0  0  0  0  0  0  0  0  0  0  0
   -0.4142    1.0998   -0.8496 H   0  0  0  0  0  0  0  0  0  0  0  0
   -1.7806    2.5175    0.5098 H   0  0  0  0  0  0  0  0  0  0  0  0
   -0.9386    3.7505    1.5175 H   0  0  0  0  0  0  0  0  0  0  0  0
   -1.7320    0.2547    1.2857 H   0  0  0  0  0  0  0  0  0  0  0  0
   -0.7966   -0.0705    2.7577 H   0  0  0  0  0  0  0  0  0  0  0  0
  1  2  1  0
  1  5  1  0
  1  6  1  0
  1  7  1  0
  2  3  2  3
  2  8  1  0
  3  4  1  0
  4  9  1  0
 10 11  1  0
 10 15  1  0
 10 16  1  0
 11 12  1  0
 11 17  1  0
 11 18  1  0
 12 13  1  0
 13 14  1  0
 13 19  1  0
 13 20  1  0
 14 15  1  0
 15 21  1  0
 15 22  1  0
M  RAD  1  10   2
M  END
>  <reaction>  (16) 
rmg_rxn_193

>  <mol_properties>  (16) 
{"2": {"label": "*0", "atom_type": "N3d"}, "3": {"label": "*1", "atom_type": "O2s"}, "8": {"label": "*2", "atom_type": "H0"}, "9": {"label": "*3", "atom_type": "Cs"}, "10": {"label": "*4", "atom_type": "Cs"}}

>  <type>  (16) 
unop_12

>  <geom_source>  (16) 
Heuristics

$$$$

     RDKit          3D

 22 21  0  0  0  0  0  0  0  0999 V2000
   -2.2069    1.4264    0.7293 O   0  0  0  0  0  0  0  0  0  0  0  0
   -2.9483   -0.5767   -0.3617 O   0  0  0  0  0  0  0  0  0  0  0  0
    1.0191   -1.7215   -0.6162 O   0  0  0  0  0  1  0  0  0  0  0  0
    1.9420   -0.7819   -1.0115 N   0  0  0  0  0  2  0  0  0  0  0  0
   -0.7040   -0.4396    0.4963 C   0  0  0  0  0  0  0  0  0  0  0  0
   -0.9622    1.0365    0.1919 C   0  0  0  0  0  0  0  0  0  0  0  0
   -2.0417   -1.1790    0.5357 C   0  0  0  0  0  0  0  0  0  0  0  0
   -3.2685    0.7435    0.0682 C   0  0  0  0  0  0  0  0  0  0  0  0
    3.9366    0.5378   -0.6880 C   0  0  0  0  0  0  0  0  0  0  0  0
    2.9424   -0.4823   -0.2491 C   0  0  0  0  0  3  0  0  0  0  0  0
   -0.1920   -0.5480    1.4772 H   0  0  0  0  0  0  0  0  0  0  0  0
    0.0156   -0.9142   -0.3777 H   0  0  0  0  0  0  0  0  0  0  0  0
   -0.9353    1.2180   -0.9073 H   0  0  0  0  0  0  0  0  0  0  0  0
   -0.1600    1.6532    0.6491 H   0  0  0  0  0  0  0  0  0  0  0  0
   -1.8839   -2.2364    0.2367 H   0  0  0  0  0  0  0  0  0  0  0  0
   -2.4582   -1.1834    1.5697 H   0  0  0  0  0  0  0  0  0  0  0  0
   -4.1404    0.6959    0.7544 H   0  0  0  0  0  0  0  0  0  0  0  0
   -3.5817    1.3377   -0.8162 H   0  0  0  0  0  0  0  0  0  0  0  0
    4.4175    0.2115   -1.6340 H   0  0  0  0  0  0  0  0  0  0  0  0
    3.4295    1.5123   -0.8488 H   0  0  0  0  0  0  0  0  0  0  0  0
    4.7179    0.6609    0.0910 H   0  0  0  0  0  0  0  0  0  0  0  0
    3.0623   -0.9707    0.7109 H   0  0  0  0  0  0  0  0  0  0  0  0
  1  8  1  0
  1  6  1  0
  2  8  1  0
  2  7  1  0
  3  4  1  0
  4 10  1  0
  5  7  1  0
  5 12  1  0
  5 11  1  0
  5  6  1  0
  6 13  1  0
  6 14  1  0
  7 16  1  0
  7 15  1  0
  8 17  1  0
  8 18  1  0
  9 19  1  0
  9 10  1  0
  9 21  1  0
  9 20  1  0
 10 22  1  0
M  RAD  3   3   2   4   2  10   2
M  END
>  <reaction>  (17) 
rmg_rxn_193

>  <mol_properties>  (17) 
{"2": {"label": "*0", "atom_type": "N3d"}, "3": {"label": "*1", "atom_type": "O2s"}, "8": {"label": "*2", "atom_type": "H0"}, "9": {"label": "*3", "atom_type": "Cs"}, "10": {"label": "*4", "atom_type": "Cs"}}

>  <type>  (17) 
unop_13

>  <geom_source>  (17) 
AutoTST

$$$$

     RDKit          3D

 22 21  0  0  0  0  0  0  0  0999 V2000
    0.6469   -2.6444   -3.6243 C   0  0  0  0  0  0  0  0  0  0  0  0
    0.6469   -2.6444   -2.1356 C   0  0  0  0  0  0  0  0  0  0  0  0
    0.6469   -1.5523   -1.4988 N   0  0  0  0  0  0  0  0  0  0  0  0
    0.6469   -1.7570   -0.1256 O   0  0  0  0  0  0  0  0  0  0  0  0
    1.5263   -3.1682   -4.0061 H   0  0  0  0  0  0  0  0  0  0  0  0
   -0.2325   -3.1682   -4.0061 H   0  0  0  0  0  0  0  0  0  0  0  0
    0.6469   -1.6247   -4.0057 H   0  0  0  0  0  0  0  0  0  0  0  0
    0.6469   -3.5919   -1.5955 H   0  0  0  0  0  0  0  0  0  0  0  0
    0.6469   -0.6873    0.2978 H   0  0  0  0  0  0  0  0  0  0  0  0
    0.6469    0.5315    0.7801 C   0  0  0  0  0  3  0  0  0  0  0  0
   -0.0661    1.4807   -0.1723 C   0  0  0  0  0  0  0  0  0  0  0  0
   -0.5624    2.6031    0.5314 O   0  0  0  0  0  0  0  0  0  0  0  0
   -1.4053    2.2144    1.5730 C   0  0  0  0  0  0  0  0  0  0  0  0
   -0.7652    1.4177    2.5227 O   0  0  0  0  0  0  0  0  0  0  0  0
   -0.2818    0.2202    1.9451 C   0  0  0  0  0  0  0  0  0  0  0  0
    1.5540    1.0084    1.1565 H   0  0  0  0  0  0  0  0  0  0  0  0
    0.6026    1.8638   -0.9420 H   0  0  0  0  0  0  0  0  0  0  0  0
   -0.8998    0.9606   -0.6686 H   0  0  0  0  0  0  0  0  0  0  0  0
   -2.2725    1.6677    1.1591 H   0  0  0  0  0  0  0  0  0  0  0  0
   -1.7334    3.1199    2.0785 H   0  0  0  0  0  0  0  0  0  0  0  0
   -1.1307   -0.3886    1.5978 H   0  0  0  0  0  0  0  0  0  0  0  0
    0.2277   -0.3266    2.7374 H   0  0  0  0  0  0  0  0  0  0  0  0
  1  2  1  0
  1  5  1  0
  1  6  1  0
  1  7  1  0
  2  3  2  3
  2  8  1  0
  3  4  1  0
  4  9  1  0
 10 11  1  0
 10 15  1  0
 10 16  1  0
 11 12  1  0
 11 17  1  0
 11 18  1  0
 12 13  1  0
 13 14  1  0
 13 19  1  0
 13 20  1  0
 14 15  1  0
 15 21  1  0
 15 22  1  0
M  RAD  1  10   2
M  END
>  <reaction>  (18) 
rmg_rxn_193

>  <mol_properties>  (18) 
{"2": {"label": "*0", "atom_type": "N3d"}, "3": {"label": "*1", "atom_type": "O2s"}, "8": {"label": "*2", "atom_type": "H0"}, "9": {"label": "*3", "atom_type": "Cs"}, "10": {"label": "*4", "atom_type": "Cs"}}

>  <type>  (18) 
unop_14

>  <geom_source>  (18) 
gaussian_log

$$$$
