
     RDKit          3D

  9  8  0  0  0  0  0  0  0  0999 V2000
    1.1303   -0.2933   -0.7510 C   0  0  0  0  0  0  0  0  0  0  0  0
    0.2866    0.4560   -0.0588 C   0  0  0  0  0  0  0  0  0  0  0  0
   -0.9719   -0.0331    0.5823 C   0  0  0  0  0  0  0  0  0  0  0  0
    2.0274    0.1230   -1.1916 H   0  0  0  0  0  0  0  0  0  0  0  0
    0.9532   -1.3530   -0.9023 H   0  0  0  0  0  0  0  0  0  0  0  0
    0.5065    1.5132    0.0659 H   0  0  0  0  0  0  0  0  0  0  0  0
   -0.9526    0.1426    1.6610 H   0  0  0  0  0  0  0  0  0  0  0  0
   -1.1182   -1.1002    0.4106 H   0  0  0  0  0  0  0  0  0  0  0  0
   -1.8412    0.5010    0.1901 H   0  0  0  0  0  0  0  0  0  0  0  0
  1  2  2  3
  1  4  1  0
  1  5  1  0
  2  3  1  0
  2  6  1  0
  3  7  1  0
  3  8  1  0
  3  9  1  0
M  END
>  <reaction>  (1) 
rmg_rxn_15541

>  <mol_properties>  (1) 
{"2": {"label": "donator", "atom_type": "Cs"}, "6": {"label": "d_hydrogen", "atom_type": "H0"}}

>  <type>  (1) 
r1h

$$$$

     RDKit          3D

  5  4  0  0  0  0  0  0  0  0999 V2000
    0.8934    0.3742    0.4948 O   0  0  0  0  0  0  0  0  0  0  0  0
    0.1582   -0.1610   -0.5904 N   0  0  0  0  0  0  0  0  0  0  0  0
   -1.0297   -0.3739   -0.4689 C   0  0  0  0  0  3  0  0  0  0  0  0
    1.7804    0.4382    0.1306 H   0  0  0  0  0  0  0  0  0  0  0  0
   -1.8023   -0.2775    0.2859 H   0  0  0  0  0  0  0  0  0  0  0  0
  1  2  1  0
  1  4  1  0
  2  3  2  3
  3  5  1  0
M  RAD  1   3   2
M  END
>  <reaction>  (2) 
rmg_rxn_15541

>  <mol_properties>  (2) 
{"2": {"label": "acceptor", "atom_type": "Cd"}}

>  <type>  (2) 
r2

$$$$

     RDKit          3D

  6  5  0  0  0  0  0  0  0  0999 V2000
    1.2314    0.0428    0.5088 O   0  0  0  0  0  0  0  0  0  0  0  0
    0.2987    0.2341   -0.4915 N   0  0  0  0  0  0  0  0  0  0  0  0
   -0.8599   -0.1122   -0.1290 C   0  0  0  0  0  0  0  0  0  0  0  0
    2.0507    0.3401    0.1082 H   0  0  0  0  0  0  0  0  0  0  0  0
   -1.0700   -0.5112    0.8610 H   0  0  0  0  0  0  0  0  0  0  0  0
   -1.6509    0.0064   -0.8574 H   0  0  0  0  0  0  0  0  0  0  0  0
  1  2  1  0
  1  4  1  0
  2  3  2  3
  3  5  1  0
  3  6  1  0
M  END
>  <reaction>  (3) 
rmg_rxn_15541

>  <mol_properties>  (3) 
{"2": {"label": "acceptor", "atom_type": "Cd"}, "5": {"label": "a_hydrogen", "atom_type": "H0"}}

>  <type>  (3) 
r2h

$$$$

     RDKit          3D

 14 12  0  0  0  0  0  0  0  0999 V2000
   -2.3867   -0.2647    1.6429 O   0  0  0  0  0  0  0  0  0  0  0  0
   -1.1682   -0.2311    0.9507 N   0  0  0  0  0  0  0  0  0  0  0  0
   -0.5455    0.8356    1.0440 C   0  0  0  0  0  3  0  0  0  0  0  0
   -2.7158   -1.1452    1.4472 H   0  0  0  0  0  0  0  0  0  0  0  0
   -0.8085    1.7443    1.5841 H   0  0  0  0  0  0  0  0  0  0  0  0
    1.3290   -0.5221   -2.5228 C   0  0  0  0  0  0  0  0  0  0  0  0
    1.6165   -0.5228   -1.2237 C   0  0  0  0  0  0  0  0  0  0  0  0
    1.7505    0.6829   -0.3985 C   0  0  0  0  0  0  0  0  0  0  0  0
    1.2154   -1.4447   -3.0770 H   0  0  0  0  0  0  0  0  0  0  0  0
    1.2023    0.4040   -3.0730 H   0  0  0  0  0  0  0  0  0  0  0  0
    1.7275   -1.4736   -0.7114 H   0  0  0  0  0  0  0  0  0  0  0  0
    0.7161    0.7936    0.2758 H   0  0  0  0  0  0  0  0  0  0  0  0
    1.8060    1.6116   -0.9653 H   0  0  0  0  0  0  0  0  0  0  0  0
    2.5273    0.6279    0.3630 H   0  0  0  0  0  0  0  0  0  0  0  0
  1  2  1  0
  1  4  1  0
  2  3  2  3
  3  5  1  0
  6  7  2  3
  6  9  1  0
  6 10  1  0
  7  8  1  0
  7 11  1  0
  8 12  1  0
  8 13  1  0
  8 14  1  0
M  RAD  1   3   2
M  END
>  <reaction>  (4) 
rmg_rxn_15541

>  <mol_properties>  (4) 
{"1": {"label": "*4", "atom_type": "N3d"}, "2": {"label": "*3", "atom_type": "Cd"}, "6": {"label": "*0", "atom_type": "Cd"}, "7": {"label": "*1", "atom_type": "Cs"}, "11": {"label": "*2", "atom_type": "H0"}}

>  <type>  (4) 
ts

$$$$

     RDKit          3D

 14 12  0  0  0  0  0  0  0  0999 V2000
   -3.2005   -0.2835   -0.0429 O   0  0  0  0  0  0  0  0  0  0  0  0
   -1.9297    0.3060    0.0494 N   0  0  0  0  0  0  0  0  0  0  0  0
   -0.9181   -0.4091   -0.0109 C   0  0  0  0  0  0  0  0  0  0  0  0
   -3.8170    0.4585    0.0291 H   0  0  0  0  0  0  0  0  0  0  0  0
   -0.8482   -1.4840   -0.1312 H   0  0  0  0  0  0  0  0  0  0  0  0
    3.1376   -0.7114    0.1988 C   0  0  0  0  0  0  0  0  0  0  0  0
    2.3545    0.1824   -0.4303 C   0  0  0  0  0  0  0  0  0  0  0  0
    1.3250    0.9397    0.2068 C   0  0  0  0  0  3  0  0  0  0  0  0
    3.8891   -1.2754   -0.3236 H   0  0  0  0  0  0  0  0  0  0  0  0
    3.0521   -0.8809    1.2591 H   0  0  0  0  0  0  0  0  0  0  0  0
    2.4614    0.3104   -1.5005 H   0  0  0  0  0  0  0  0  0  0  0  0
    0.1777    0.2303    0.0804 H   0  0  0  0  0  0  0  0  0  0  0  0
    1.0209    1.8562   -0.2800 H   0  0  0  0  0  0  0  0  0  0  0  0
    1.3875    1.0150    1.2853 H   0  0  0  0  0  0  0  0  0  0  0  0
  1  2  1  0
  1  4  1  0
  2  3  2  3
  3  5  1  0
  3 12  1  0
  6  7  2  3
  6  9  1  0
  6 10  1  0
  7  8  1  0
  7 11  1  0
  8 13  1  0
  8 14  1  0
M  RAD  1   8   2
M  END
>  <reaction>  (5) 
rmg_rxn_15541

>  <mol_properties>  (5) 
{"1": {"label": "*4", "atom_type": "N3d"}, "2": {"label": "*3", "atom_type": "Cd"}, "6": {"label": "*0", "atom_type": "Cd"}, "7": {"label": "*1", "atom_type": "Cs"}, "11": {"label": "*2", "atom_type": "H0"}}

>  <type>  (5) 
unop_1

>  <geom_source>  (5) 
crest_best.xyz

$$$$

     RDKit          3D

 14 12  0  0  0  0  0  0  0  0999 V2000
   -1.5413    1.1187    2.5618 O   0  0  0  0  0  0  0  0  0  0  0  0
   -0.7123    0.2325    1.9026 N   0  0  0  0  0  0  0  0  0  0  0  0
   -0.9312    0.2167    0.6595 C   0  0  0  0  0  0  0  0  0  0  0  0
   -1.2742    1.0323    3.4790 H   0  0  0  0  0  0  0  0  0  0  0  0
   -1.6900    0.8388    0.1896 H   0  0  0  0  0  0  0  0  0  0  0  0
    1.1645   -1.0463   -3.0796 C   0  0  0  0  0  0  0  0  0  0  0  0
    1.1645   -1.0463   -1.7559 C   0  0  0  0  0  0  0  0  0  0  0  0
    1.1645    0.1759   -0.8954 C   0  0  0  0  0  3  0  0  0  0  0  0
    1.1645   -1.9690   -3.6461 H   0  0  0  0  0  0  0  0  0  0  0  0
    1.1645   -0.1207   -3.6456 H   0  0  0  0  0  0  0  0  0  0  0  0
    1.1645   -1.9989   -1.2324 H   0  0  0  0  0  0  0  0  0  0  0  0
    0.1113    0.1964   -0.1139 H   0  0  0  0  0  0  0  0  0  0  0  0
    1.1645    1.0863   -1.4960 H   0  0  0  0  0  0  0  0  0  0  0  0
    2.0422    0.1930   -0.2441 H   0  0  0  0  0  0  0  0  0  0  0  0
  1  2  1  0
  1  4  1  0
  2  3  2  3
  3  5  1  0
  3 12  1  0
  6  7  2  3
  6  9  1  0
  6 10  1  0
  7  8  1  0
  7 11  1  0
  8 13  1  0
  8 14  1  0
M  RAD  1   8   2
M  END
>  <reaction>  (6) 
rmg_rxn_15541

>  <mol_properties>  (6) 
{"1": {"label": "*4", "atom_type": "N3d"}, "2": {"label": "*3", "atom_type": "Cd"}, "6": {"label": "*0", "atom_type": "Cd"}, "7": {"label": "*1", "atom_type": "Cs"}, "11": {"label": "*2", "atom_type": "H0"}}

>  <type>  (6) 
unop_2

>  <geom_source>  (6) 
Heuristics

$$$$

     RDKit          3D

 14 12  0  0  0  0  0  0  0  0999 V2000
    3.2005    0.2841    0.0409 O   0  0  0  0  0  0  0  0  0  0  0  0
    1.9299   -0.3058   -0.0521 N   0  0  0  0  0  0  0  0  0  0  0  0
    0.9179    0.4078    0.0180 C   0  0  0  0  0  0  0  0  0  0  0  0
    3.8174   -0.4567   -0.0397 H   0  0  0  0  0  0  0  0  0  0  0  0
    0.8475    1.4814    0.1489 H   0  0  0  0  0  0  0  0  0  0  0  0
   -3.1364    0.7121   -0.2023 C   0  0  0  0  0  0  0  0  0  0  0  0
   -2.3556   -0.1818    0.4295 C   0  0  0  0  0  0  0  0  0  0  0  0
   -1.3251   -0.9405   -0.2044 C   0  0  0  0  0  3  0  0  0  0  0  0
   -3.8888    1.2771    0.3177 H   0  0  0  0  0  0  0  0  0  0  0  0
   -3.0481    0.8805   -1.2626 H   0  0  0  0  0  0  0  0  0  0  0  0
   -2.4654   -0.3089    1.4996 H   0  0  0  0  0  0  0  0  0  0  0  0
   -0.1777   -0.2315   -0.0759 H   0  0  0  0  0  0  0  0  0  0  0  0
   -1.3849   -1.0166   -1.2829 H   0  0  0  0  0  0  0  0  0  0  0  0
   -1.0229   -1.8567    0.2840 H   0  0  0  0  0  0  0  0  0  0  0  0
  1  2  1  0
  1  4  1  0
  2  3  2  3
  3  5  1  0
  3 12  1  0
  6  7  2  3
  6  9  1  0
  6 10  1  0
  7  8  1  0
  7 11  1  0
  8 13  1  0
  8 14  1  0
M  RAD  1   8   2
M  END
>  <reaction>  (7) 
rmg_rxn_15541

>  <mol_properties>  (7) 
{"1": {"label": "*4", "atom_type": "N3d"}, "2": {"label": "*3", "atom_type": "Cd"}, "6": {"label": "*0", "atom_type": "Cd"}, "7": {"label": "*1", "atom_type": "Cs"}, "11": {"label": "*2", "atom_type": "H0"}}

>  <type>  (7) 
unop_3

>  <geom_source>  (7) 
Heuristics

$$$$

     RDKit          3D

 14 12  0  0  0  0  0  0  0  0999 V2000
   -1.9749   -0.2270    2.3447 O   0  0  0  0  0  0  0  0  0  0  0  0
   -1.1494   -0.3340    1.2429 N   0  0  0  0  0  0  0  0  0  0  0  0
   -0.6856    0.7858    0.8901 C   0  0  0  0  0  0  0  0  0  0  0  0
   -2.2525   -1.1315    2.5028 H   0  0  0  0  0  0  0  0  0  0  0  0
   -0.9248    1.7104    1.4112 H   0  0  0  0  0  0  0  0  0  0  0  0
    1.4101   -0.4772   -2.8490 C   0  0  0  0  0  0  0  0  0  0  0  0
    1.4101   -0.4772   -1.5253 C   0  0  0  0  0  0  0  0  0  0  0  0
    1.4101    0.7450   -0.6648 C   0  0  0  0  0  3  0  0  0  0  0  0
    1.4101   -1.3999   -3.4155 H   0  0  0  0  0  0  0  0  0  0  0  0
    1.4101    0.4484   -3.4150 H   0  0  0  0  0  0  0  0  0  0  0  0
    1.4101   -1.4298   -1.0018 H   0  0  0  0  0  0  0  0  0  0  0  0
    0.3569    0.7655    0.1167 H   0  0  0  0  0  0  0  0  0  0  0  0
    1.4101    1.6554   -1.2654 H   0  0  0  0  0  0  0  0  0  0  0  0
    2.2878    0.7621   -0.0135 H   0  0  0  0  0  0  0  0  0  0  0  0
  1  2  1  0
  1  4  1  0
  2  3  2  3
  3  5  1  0
  3 12  1  0
  6  7  2  3
  6  9  1  0
  6 10  1  0
  7  8  1  0
  7 11  1  0
  8 13  1  0
  8 14  1  0
M  RAD  1   8   2
M  END
>  <reaction>  (8) 
rmg_rxn_15541

>  <mol_properties>  (8) 
{"1": {"label": "*4", "atom_type": "N3d"}, "2": {"label": "*3", "atom_type": "Cd"}, "6": {"label": "*0", "atom_type": "Cd"}, "7": {"label": "*1", "atom_type": "Cs"}, "11": {"label": "*2", "atom_type": "H0"}}

>  <type>  (8) 
unop_4

>  <geom_source>  (8) 
Heuristics

$$$$

     RDKit          3D

 14 12  0  0  0  0  0  0  0  0999 V2000
    3.2003    0.2836    0.0440 O   0  0  0  0  0  0  0  0  0  0  0  0
    1.9295   -0.3061   -0.0476 N   0  0  0  0  0  0  0  0  0  0  0  0
    0.9179    0.4094    0.0063 C   0  0  0  0  0  0  0  0  0  0  0  0
    3.8166   -0.4592   -0.0218 H   0  0  0  0  0  0  0  0  0  0  0  0
    0.8475    1.4848    0.1206 H   0  0  0  0  0  0  0  0  0  0  0  0
   -3.1378    0.7114   -0.1967 C   0  0  0  0  0  0  0  0  0  0  0  0
   -2.3534   -0.1824    0.4309 C   0  0  0  0  0  0  0  0  0  0  0  0
   -1.3252   -0.9399   -0.2081 C   0  0  0  0  0  3  0  0  0  0  0  0
   -3.8881    1.2756    0.3271 H   0  0  0  0  0  0  0  0  0  0  0  0
   -3.0542    0.8809   -1.2571 H   0  0  0  0  0  0  0  0  0  0  0  0
   -2.4583   -0.3104    1.5013 H   0  0  0  0  0  0  0  0  0  0  0  0
   -0.1778   -0.2305   -0.0839 H   0  0  0  0  0  0  0  0  0  0  0  0
   -1.3899   -1.0154   -1.2865 H   0  0  0  0  0  0  0  0  0  0  0  0
   -1.0204   -1.8564    0.2782 H   0  0  0  0  0  0  0  0  0  0  0  0
  1  2  1  0
  1  4  1  0
  2  3  2  3
  3  5  1  0
  3 12  1  0
  6  7  2  3
  6  9  1  0
  6 10  1  0
  7  8  1  0
  7 11  1  0
  8 13  1  0
  8 14  1  0
M  RAD  1   8   2
M  END
>  <reaction>  (9) 
rmg_rxn_15541

>  <mol_properties>  (9) 
{"1": {"label": "*4", "atom_type": "N3d"}, "2": {"label": "*3", "atom_type": "Cd"}, "6": {"label": "*0", "atom_type": "Cd"}, "7": {"label": "*1", "atom_type": "Cs"}, "11": {"label": "*2", "atom_type": "H0"}}

>  <type>  (9) 
unop_5

>  <geom_source>  (9) 
Heuristics

$$$$

     RDKit          3D

 14 12  0  0  0  0  0  0  0  0999 V2000
   -1.8668    1.2582    2.2803 O   0  0  0  0  0  0  0  0  0  0  0  0
   -0.6969    0.6494    1.8710 N   0  0  0  0  0  0  0  0  0  0  0  0
   -0.8307    0.0703    0.7574 C   0  0  0  0  0  0  0  0  0  0  0  0
   -1.6295    1.6518    3.1222 H   0  0  0  0  0  0  0  0  0  0  0  0
   -1.7690    0.0672    0.2068 H   0  0  0  0  0  0  0  0  0  0  0  0
    1.2650   -1.1928   -2.9818 C   0  0  0  0  0  0  0  0  0  0  0  0
    1.2650   -1.1928   -1.6581 C   0  0  0  0  0  0  0  0  0  0  0  0
    1.2650    0.0294   -0.7975 C   0  0  0  0  0  3  0  0  0  0  0  0
    1.2650   -2.1155   -3.5483 H   0  0  0  0  0  0  0  0  0  0  0  0
    1.2650   -0.2672   -3.5478 H   0  0  0  0  0  0  0  0  0  0  0  0
    1.2650   -2.1454   -1.1345 H   0  0  0  0  0  0  0  0  0  0  0  0
    0.2117    0.0499   -0.0161 H   0  0  0  0  0  0  0  0  0  0  0  0
    1.2650    0.9398   -1.3981 H   0  0  0  0  0  0  0  0  0  0  0  0
    2.1427    0.0465   -0.1463 H   0  0  0  0  0  0  0  0  0  0  0  0
  1  2  1  0
  1  4  1  0
  2  3  2  3
  3  5  1  0
  3 12  1  0
  6  7  2  3
  6  9  1  0
  6 10  1  0
  7  8  1  0
  7 11  1  0
  8 13  1  0
  8 14  1  0
M  RAD  1   8   2
M  END
>  <reaction>  (10) 
rmg_rxn_15541

>  <mol_properties>  (10) 
{"1": {"label": "*4", "atom_type": "N3d"}, "2": {"label": "*3", "atom_type": "Cd"}, "6": {"label": "*0", "atom_type": "Cd"}, "7": {"label": "*1", "atom_type": "Cs"}, "11": {"label": "*2", "atom_type": "H0"}}

>  <type>  (10) 
unop_6

>  <geom_source>  (10) 
Heuristics

$$$$

     RDKit          3D

 14 12  0  0  0  0  0  0  0  0999 V2000
   -2.4933    0.9602    1.4562 O   0  0  0  0  0  0  0  0  0  0  0  0
   -1.5486    0.2622    0.7300 N   0  0  0  0  0  0  0  0  0  0  0  0
   -0.4222    0.2602    1.2998 C   0  0  0  0  0  0  0  0  0  0  0  0
   -3.2856    0.8838    0.9209 H   0  0  0  0  0  0  0  0  0  0  0  0
   -0.2449    0.7580    2.2508 H   0  0  0  0  0  0  0  0  0  0  0  0
    1.6735   -1.0028   -2.4394 C   0  0  0  0  0  0  0  0  0  0  0  0
    1.6735   -1.0028   -1.1156 C   0  0  0  0  0  0  0  0  0  0  0  0
    1.6735    0.2193   -0.2551 C   0  0  0  0  0  3  0  0  0  0  0  0
    1.6735   -1.9256   -3.0058 H   0  0  0  0  0  0  0  0  0  0  0  0
    1.6735   -0.0772   -3.0054 H   0  0  0  0  0  0  0  0  0  0  0  0
    1.6735   -1.9555   -0.5921 H   0  0  0  0  0  0  0  0  0  0  0  0
    0.6203    0.2399    0.5264 H   0  0  0  0  0  0  0  0  0  0  0  0
    1.6735    1.1298   -0.8557 H   0  0  0  0  0  0  0  0  0  0  0  0
    2.5512    0.2364    0.3961 H   0  0  0  0  0  0  0  0  0  0  0  0
  1  2  1  0
  1  4  1  0
  2  3  2  3
  3  5  1  0
  3 12  1  0
  6  7  2  3
  6  9  1  0
  6 10  1  0
  7  8  1  0
  7 11  1  0
  8 13  1  0
  8 14  1  0
M  RAD  1   8   2
M  END
>  <reaction>  (11) 
rmg_rxn_15541

>  <mol_properties>  (11) 
{"1": {"label": "*4", "atom_type": "N3d"}, "2": {"label": "*3", "atom_type": "Cd"}, "6": {"label": "*0", "atom_type": "Cd"}, "7": {"label": "*1", "atom_type": "Cs"}, "11": {"label": "*2", "atom_type": "H0"}}

>  <type>  (11) 
unop_7

>  <geom_source>  (11) 
Heuristics

$$$$

     RDKit          3D

 14 12  0  0  0  0  0  0  0  0999 V2000
    3.2000   -0.2860   -0.0372 O   0  0  0  0  0  0  0  0  0  0  0  0
    1.9304    0.3055    0.0591 N   0  0  0  0  0  0  0  0  0  0  0  0
    0.9170   -0.4035   -0.0335 C   0  0  0  0  0  0  0  0  0  0  0  0
    3.8184    0.4511    0.0636 H   0  0  0  0  0  0  0  0  0  0  0  0
    0.8445   -1.4739   -0.1876 H   0  0  0  0  0  0  0  0  0  0  0  0
   -3.1325   -0.7147    0.2103 C   0  0  0  0  0  0  0  0  0  0  0  0
   -2.3579    0.1801   -0.4279 C   0  0  0  0  0  0  0  0  0  0  0  0
   -1.3260    0.9431    0.1986 C   0  0  0  0  0  3  0  0  0  0  0  0
   -3.8858   -1.2834   -0.3043 H   0  0  0  0  0  0  0  0  0  0  0  0
   -3.0379   -0.8804    1.2704 H   0  0  0  0  0  0  0  0  0  0  0  0
   -2.4737    0.3042   -1.4976 H   0  0  0  0  0  0  0  0  0  0  0  0
   -0.1779    0.2362    0.0657 H   0  0  0  0  0  0  0  0  0  0  0  0
   -1.3802    1.0218    1.2773 H   0  0  0  0  0  0  0  0  0  0  0  0
   -1.0289    1.8589   -0.2937 H   0  0  0  0  0  0  0  0  0  0  0  0
  1  2  1  0
  1  4  1  0
  2  3  2  3
  3  5  1  0
  3 12  1  0
  6  7  2  3
  6  9  1  0
  6 10  1  0
  7  8  1  0
  7 11  1  0
  8 13  1  0
  8 14  1  0
M  RAD  1   8   2
M  END
>  <reaction>  (12) 
rmg_rxn_15541

>  <mol_properties>  (12) 
{"1": {"label": "*4", "atom_type": "N3d"}, "2": {"label": "*3", "atom_type": "Cd"}, "6": {"label": "*0", "atom_type": "Cd"}, "7": {"label": "*1", "atom_type": "Cs"}, "11": {"label": "*2", "atom_type": "H0"}}

>  <type>  (12) 
unop_8

>  <geom_source>  (12) 
Heuristics

$$$$

     RDKit          3D

 14 12  0  0  0  0  0  0  0  0999 V2000
   -1.9976    0.9764    2.3566 O   0  0  0  0  0  0  0  0  0  0  0  0
   -0.8582    1.0519    1.5800 N   0  0  0  0  0  0  0  0  0  0  0  0
   -0.7495    0.0622    0.8040 C   0  0  0  0  0  0  0  0  0  0  0  0
   -1.9570    1.7737    2.8884 H   0  0  0  0  0  0  0  0  0  0  0  0
   -1.4823   -0.7413    0.7719 H   0  0  0  0  0  0  0  0  0  0  0  0
    1.3462   -1.2009   -2.9352 C   0  0  0  0  0  0  0  0  0  0  0  0
    1.3462   -1.2009   -1.6114 C   0  0  0  0  0  0  0  0  0  0  0  0
    1.3462    0.0213   -0.7509 C   0  0  0  0  0  3  0  0  0  0  0  0
    1.3462   -2.1236   -3.5016 H   0  0  0  0  0  0  0  0  0  0  0  0
    1.3462   -0.2753   -3.5012 H   0  0  0  0  0  0  0  0  0  0  0  0
    1.3462   -2.1535   -1.0879 H   0  0  0  0  0  0  0  0  0  0  0  0
    0.2930    0.0418    0.0306 H   0  0  0  0  0  0  0  0  0  0  0  0
    1.3462    0.9317   -1.3515 H   0  0  0  0  0  0  0  0  0  0  0  0
    2.2239    0.0384   -0.0997 H   0  0  0  0  0  0  0  0  0  0  0  0
  1  2  1  0
  1  4  1  0
  2  3  2  3
  3  5  1  0
  3 12  1  0
  6  7  2  3
  6  9  1  0
  6 10  1  0
  7  8  1  0
  7 11  1  0
  8 13  1  0
  8 14  1  0
M  RAD  1   8   2
M  END
>  <reaction>  (13) 
rmg_rxn_15541

>  <mol_properties>  (13) 
{"1": {"label": "*4", "atom_type": "N3d"}, "2": {"label": "*3", "atom_type": "Cd"}, "6": {"label": "*0", "atom_type": "Cd"}, "7": {"label": "*1", "atom_type": "Cs"}, "11": {"label": "*2", "atom_type": "H0"}}

>  <type>  (13) 
unop_9

>  <geom_source>  (13) 
Heuristics

$$$$

     RDKit          3D

 14 12  0  0  0  0  0  0  0  0999 V2000
    3.2000    0.2857   -0.0373 O   0  0  0  0  0  0  0  0  0  0  0  0
    1.9303   -0.3056    0.0585 N   0  0  0  0  0  0  0  0  0  0  0  0
    0.9172    0.4041   -0.0333 C   0  0  0  0  0  0  0  0  0  0  0  0
    3.8182   -0.4517    0.0625 H   0  0  0  0  0  0  0  0  0  0  0  0
    0.8456    1.4748   -0.1854 H   0  0  0  0  0  0  0  0  0  0  0  0
   -3.1324    0.7150    0.2095 C   0  0  0  0  0  0  0  0  0  0  0  0
   -2.3583   -0.1811   -0.4275 C   0  0  0  0  0  0  0  0  0  0  0  0
   -1.3257   -0.9425    0.1995 C   0  0  0  0  0  3  0  0  0  0  0  0
   -3.8868    1.2819   -0.3055 H   0  0  0  0  0  0  0  0  0  0  0  0
   -3.0366    0.8831    1.2691 H   0  0  0  0  0  0  0  0  0  0  0  0
   -2.4755   -0.3078   -1.4968 H   0  0  0  0  0  0  0  0  0  0  0  0
   -0.1779   -0.2352    0.0653 H   0  0  0  0  0  0  0  0  0  0  0  0
   -1.0283   -1.8589   -0.2916 H   0  0  0  0  0  0  0  0  0  0  0  0
   -1.3792   -1.0197    1.2783 H   0  0  0  0  0  0  0  0  0  0  0  0
  1  2  1  0
  1  4  1  0
  2  3  2  3
  3  5  1  0
  3 12  1  0
  6  7  2  3
  6  9  1  0
  6 10  1  0
  7  8  1  0
  7 11  1  0
  8 13  1  0
  8 14  1  0
M  RAD  1   8   2
M  END
>  <reaction>  (14) 
rmg_rxn_15541

>  <mol_properties>  (14) 
{"1": {"label": "*4", "atom_type": "N3d"}, "2": {"label": "*3", "atom_type": "Cd"}, "6": {"label": "*0", "atom_type": "Cd"}, "7": {"label": "*1", "atom_type": "Cs"}, "11": {"label": "*2", "atom_type": "H0"}}

>  <type>  (14) 
unop_10

>  <geom_source>  (14) 
Heuristics

$$$$

     RDKit          3D

 14 12  0  0  0  0  0  0  0  0999 V2000
   -2.1908    1.3685    1.7153 O   0  0  0  0  0  0  0  0  0  0  0  0
   -1.5499    0.6114    0.7545 N   0  0  0  0  0  0  0  0  0  0  0  0
   -0.5187    0.0442    1.2109 C   0  0  0  0  0  0  0  0  0  0  0  0
   -2.9412    1.7361    1.2443 H   0  0  0  0  0  0  0  0  0  0  0  0
   -0.1961    0.1562    2.2438 H   0  0  0  0  0  0  0  0  0  0  0  0
    1.5770   -1.2188   -2.5283 C   0  0  0  0  0  0  0  0  0  0  0  0
    1.5770   -1.2188   -1.2045 C   0  0  0  0  0  0  0  0  0  0  0  0
    1.5770    0.0033   -0.3440 C   0  0  0  0  0  3  0  0  0  0  0  0
    1.5770   -2.1416   -3.0948 H   0  0  0  0  0  0  0  0  0  0  0  0
    1.5770   -0.2932   -3.0943 H   0  0  0  0  0  0  0  0  0  0  0  0
    1.5770   -2.1715   -0.6810 H   0  0  0  0  0  0  0  0  0  0  0  0
    0.5238    0.0239    0.4374 H   0  0  0  0  0  0  0  0  0  0  0  0
    1.5770    0.9138   -0.9446 H   0  0  0  0  0  0  0  0  0  0  0  0
    2.4547    0.0205    0.3072 H   0  0  0  0  0  0  0  0  0  0  0  0
  1  2  1  0
  1  4  1  0
  2  3  2  3
  3  5  1  0
  3 12  1  0
  6  7  2  3
  6  9  1  0
  6 10  1  0
  7  8  1  0
  7 11  1  0
  8 13  1  0
  8 14  1  0
M  RAD  1   8   2
M  END
>  <reaction>  (15) 
rmg_rxn_15541

>  <mol_properties>  (15) 
{"1": {"label": "*4", "atom_type": "N3d"}, "2": {"label": "*3", "atom_type": "Cd"}, "6": {"label": "*0", "atom_type": "Cd"}, "7": {"label": "*1", "atom_type": "Cs"}, "11": {"label": "*2", "atom_type": "H0"}}

>  <type>  (15) 
unop_11

>  <geom_source>  (15) 
Heuristics

$$$$

     RDKit          3D

 14 12  0  0  0  0  0  0  0  0999 V2000
    3.2006    0.2839    0.0427 O   0  0  0  0  0  0  0  0  0  0  0  0
    1.9298   -0.3059   -0.0502 N   0  0  0  0  0  0  0  0  0  0  0  0
    0.9179    0.4084    0.0117 C   0  0  0  0  0  0  0  0  0  0  0  0
    3.8171   -0.4579   -0.0309 H   0  0  0  0  0  0  0  0  0  0  0  0
    0.8466    1.4829    0.1346 H   0  0  0  0  0  0  0  0  0  0  0  0
   -3.1374    0.7115   -0.1998 C   0  0  0  0  0  0  0  0  0  0  0  0
   -2.3543   -0.1816    0.4304 C   0  0  0  0  0  0  0  0  0  0  0  0
   -1.3253   -0.9404   -0.2058 C   0  0  0  0  0  3  0  0  0  0  0  0
   -3.8880    1.2769    0.3224 H   0  0  0  0  0  0  0  0  0  0  0  0
   -3.0526    0.8792   -1.2604 H   0  0  0  0  0  0  0  0  0  0  0  0
   -2.4608   -0.3079    1.5009 H   0  0  0  0  0  0  0  0  0  0  0  0
   -0.1777   -0.2315   -0.0803 H   0  0  0  0  0  0  0  0  0  0  0  0
   -1.3880   -1.0170   -1.2842 H   0  0  0  0  0  0  0  0  0  0  0  0
   -1.0220   -1.8565    0.2821 H   0  0  0  0  0  0  0  0  0  0  0  0
  1  2  1  0
  1  4  1  0
  2  3  2  3
  3  5  1  0
  3 12  1  0
  6  7  2  3
  6  9  1  0
  6 10  1  0
  7  8  1  0
  7 11  1  0
  8 13  1  0
  8 14  1  0
M  RAD  1   8   2
M  END
>  <reaction>  (16) 
rmg_rxn_15541

>  <mol_properties>  (16) 
{"1": {"label": "*4", "atom_type": "N3d"}, "2": {"label": "*3", "atom_type": "Cd"}, "6": {"label": "*0", "atom_type": "Cd"}, "7": {"label": "*1", "atom_type": "Cs"}, "11": {"label": "*2", "atom_type": "H0"}}

>  <type>  (16) 
unop_12

>  <geom_source>  (16) 
Heuristics

$$$$

     RDKit          3D

 14 12  0  0  0  0  0  0  0  0999 V2000
   -1.8556    1.4226    2.1301 O   0  0  0  0  0  0  0  0  0  0  0  0
   -1.4353    0.9316    0.9097 N   0  0  0  0  0  0  0  0  0  0  0  0
   -0.6540   -0.0513    1.0402 C   0  0  0  0  0  0  0  0  0  0  0  0
   -2.4314    2.1511    1.8898 H   0  0  0  0  0  0  0  0  0  0  0  0
   -0.3629   -0.4443    2.0120 H   0  0  0  0  0  0  0  0  0  0  0  0
    1.4417   -1.3143   -2.6990 C   0  0  0  0  0  0  0  0  0  0  0  0
    1.4417   -1.3143   -1.3752 C   0  0  0  0  0  0  0  0  0  0  0  0
    1.4417   -0.0922   -0.5147 C   0  0  0  0  0  3  0  0  0  0  0  0
    1.4417   -2.2371   -3.2655 H   0  0  0  0  0  0  0  0  0  0  0  0
    1.4417   -0.3887   -3.2650 H   0  0  0  0  0  0  0  0  0  0  0  0
    1.4417   -2.2670   -0.8517 H   0  0  0  0  0  0  0  0  0  0  0  0
    0.3885   -0.0716    0.2668 H   0  0  0  0  0  0  0  0  0  0  0  0
    1.4417    0.8183   -1.1153 H   0  0  0  0  0  0  0  0  0  0  0  0
    2.3194   -0.0750    0.1365 H   0  0  0  0  0  0  0  0  0  0  0  0
  1  2  1  0
  1  4  1  0
  2  3  2  3
  3  5  1  0
  3 12  1  0
  6  7  2  3
  6  9  1  0
  6 10  1  0
  7  8  1  0
  7 11  1  0
  8 13  1  0
  8 14  1  0
M  RAD  1   8   2
M  END
>  <reaction>  (17) 
rmg_rxn_15541

>  <mol_properties>  (17) 
{"1": {"label": "*4", "atom_type": "N3d"}, "2": {"label": "*3", "atom_type": "Cd"}, "6": {"label": "*0", "atom_type": "Cd"}, "7": {"label": "*1", "atom_type": "Cs"}, "11": {"label": "*2", "atom_type": "H0"}}

>  <type>  (17) 
unop_13

>  <geom_source>  (17) 
Heuristics

$$$$

     RDKit          3D

 14 12  0  0  0  0  0  0  0  0999 V2000
   -1.4302    0.6331    2.7598 O   0  0  0  0  0  0  0  0  0  0  0  0
   -0.8173   -0.0969    1.7605 N   0  0  0  0  0  0  0  0  0  0  0  0
   -0.9411    0.4526    0.6309 C   0  0  0  0  0  0  0  0  0  0  0  0
   -1.2631    0.1137    3.5486 H   0  0  0  0  0  0  0  0  0  0  0  0
   -1.4732    1.3910    0.4901 H   0  0  0  0  0  0  0  0  0  0  0  0
    1.1546   -0.8105   -3.1083 C   0  0  0  0  0  0  0  0  0  0  0  0
    1.1546   -0.8105   -1.7846 C   0  0  0  0  0  0  0  0  0  0  0  0
    1.1546    0.4117   -0.9240 C   0  0  0  0  0  3  0  0  0  0  0  0
    1.1546   -1.7332   -3.6748 H   0  0  0  0  0  0  0  0  0  0  0  0
    1.1546    0.1151   -3.6743 H   0  0  0  0  0  0  0  0  0  0  0  0
    1.1546   -1.7631   -1.2610 H   0  0  0  0  0  0  0  0  0  0  0  0
    0.1014    0.4323   -0.1426 H   0  0  0  0  0  0  0  0  0  0  0  0
    1.1546    1.3222   -1.5246 H   0  0  0  0  0  0  0  0  0  0  0  0
    2.0323    0.4288   -0.2728 H   0  0  0  0  0  0  0  0  0  0  0  0
  1  2  1  0
  1  4  1  0
  2  3  2  3
  3  5  1  0
  3 12  1  0
  6  7  2  3
  6  9  1  0
  6 10  1  0
  7  8  1  0
  7 11  1  0
  8 13  1  0
  8 14  1  0
M  RAD  1   8   2
M  END
>  <reaction>  (18) 
rmg_rxn_15541

>  <mol_properties>  (18) 
{"1": {"label": "*4", "atom_type": "N3d"}, "2": {"label": "*3", "atom_type": "Cd"}, "6": {"label": "*0", "atom_type": "Cd"}, "7": {"label": "*1", "atom_type": "Cs"}, "11": {"label": "*2", "atom_type": "H0"}}

>  <type>  (18) 
unop_14

>  <geom_source>  (18) 
Heuristics

$$$$

     RDKit          3D

 14 12  0  0  0  0  0  0  0  0999 V2000
   -3.2005   -0.2835   -0.0429 O   0  0  0  0  0  0  0  0  0  0  0  0
   -1.9297    0.3060    0.0494 N   0  0  0  0  0  0  0  0  0  0  0  0
   -0.9181   -0.4091   -0.0109 C   0  0  0  0  0  0  0  0  0  0  0  0
   -3.8170    0.4585    0.0291 H   0  0  0  0  0  0  0  0  0  0  0  0
   -0.8482   -1.4840   -0.1312 H   0  0  0  0  0  0  0  0  0  0  0  0
    3.1376   -0.7114    0.1988 C   0  0  0  0  0  0  0  0  0  0  0  0
    2.3545    0.1824   -0.4303 C   0  0  0  0  0  0  0  0  0  0  0  0
    1.3250    0.9397    0.2068 C   0  0  0  0  0  3  0  0  0  0  0  0
    3.8891   -1.2754   -0.3236 H   0  0  0  0  0  0  0  0  0  0  0  0
    3.0521   -0.8809    1.2591 H   0  0  0  0  0  0  0  0  0  0  0  0
    2.4614    0.3104   -1.5005 H   0  0  0  0  0  0  0  0  0  0  0  0
    0.1777    0.2303    0.0804 H   0  0  0  0  0  0  0  0  0  0  0  0
    1.0209    1.8562   -0.2800 H   0  0  0  0  0  0  0  0  0  0  0  0
    1.3875    1.0150    1.2853 H   0  0  0  0  0  0  0  0  0  0  0  0
  1  2  1  0
  1  4  1  0
  2  3  2  3
  3  5  1  0
  3 12  1  0
  6  7  2  3
  6  9  1  0
  6 10  1  0
  7  8  1  0
  7 11  1  0
  8 13  1  0
  8 14  1  0
M  RAD  1   8   2
M  END
>  <reaction>  (19) 
rmg_rxn_15541

>  <mol_properties>  (19) 
{"1": {"label": "*4", "atom_type": "N3d"}, "2": {"label": "*3", "atom_type": "Cd"}, "6": {"label": "*0", "atom_type": "Cd"}, "7": {"label": "*1", "atom_type": "Cs"}, "11": {"label": "*2", "atom_type": "H0"}}

>  <type>  (19) 
unop_15

>  <geom_source>  (19) 
Heuristics

$$$$

     RDKit          3D

 14 12  0  0  0  0  0  0  0  0999 V2000
   -2.5874    0.3651    1.5038 O   0  0  0  0  0  0  0  0  0  0  0  0
   -1.4560   -0.0375    0.8218 N   0  0  0  0  0  0  0  0  0  0  0  0
   -0.4147    0.5239    1.2622 C   0  0  0  0  0  0  0  0  0  0  0  0
   -3.2910   -0.1273    1.0767 H   0  0  0  0  0  0  0  0  0  0  0  0
   -0.4353    1.2371    2.0834 H   0  0  0  0  0  0  0  0  0  0  0  0
    1.6810   -0.7392   -2.4770 C   0  0  0  0  0  0  0  0  0  0  0  0
    1.6810   -0.7392   -1.1533 C   0  0  0  0  0  0  0  0  0  0  0  0
    1.6810    0.4830   -0.2927 C   0  0  0  0  0  3  0  0  0  0  0  0
    1.6810   -1.6619   -3.0435 H   0  0  0  0  0  0  0  0  0  0  0  0
    1.6810    0.1864   -3.0430 H   0  0  0  0  0  0  0  0  0  0  0  0
    1.6810   -1.6918   -0.6297 H   0  0  0  0  0  0  0  0  0  0  0  0
    0.6278    0.5036    0.4887 H   0  0  0  0  0  0  0  0  0  0  0  0
    1.6810    1.3935   -0.8933 H   0  0  0  0  0  0  0  0  0  0  0  0
    2.5587    0.5001    0.3585 H   0  0  0  0  0  0  0  0  0  0  0  0
  1  2  1  0
  1  4  1  0
  2  3  2  3
  3  5  1  0
  3 12  1  0
  6  7  2  3
  6  9  1  0
  6 10  1  0
  7  8  1  0
  7 11  1  0
  8 13  1  0
  8 14  1  0
M  RAD  1   8   2
M  END
>  <reaction>  (20) 
rmg_rxn_15541

>  <mol_properties>  (20) 
{"1": {"label": "*4", "atom_type": "N3d"}, "2": {"label": "*3", "atom_type": "Cd"}, "6": {"label": "*0", "atom_type": "Cd"}, "7": {"label": "*1", "atom_type": "Cs"}, "11": {"label": "*2", "atom_type": "H0"}}

>  <type>  (20) 
unop_16

>  <geom_source>  (20) 
Heuristics

$$$$

     RDKit          3D

 14 12  0  0  0  0  0  0  0  0999 V2000
   -1.5947    0.0914    2.6901 O   0  0  0  0  0  0  0  0  0  0  0  0
   -0.9759   -0.2916    1.5165 N   0  0  0  0  0  0  0  0  0  0  0  0
   -0.8497    0.6736    0.7127 C   0  0  0  0  0  0  0  0  0  0  0  0
   -1.6262   -0.7206    3.1998 H   0  0  0  0  0  0  0  0  0  0  0  0
   -1.1969    1.6784    0.9435 H   0  0  0  0  0  0  0  0  0  0  0  0
    1.2460   -0.5895   -3.0264 C   0  0  0  0  0  0  0  0  0  0  0  0
    1.2460   -0.5895   -1.7027 C   0  0  0  0  0  0  0  0  0  0  0  0
    1.2460    0.6327   -0.8422 C   0  0  0  0  0  3  0  0  0  0  0  0
    1.2460   -1.5122   -3.5929 H   0  0  0  0  0  0  0  0  0  0  0  0
    1.2460    0.3361   -3.5924 H   0  0  0  0  0  0  0  0  0  0  0  0
    1.2460   -1.5421   -1.1792 H   0  0  0  0  0  0  0  0  0  0  0  0
    0.1928    0.6532   -0.0607 H   0  0  0  0  0  0  0  0  0  0  0  0
    1.2460    1.5431   -1.4428 H   0  0  0  0  0  0  0  0  0  0  0  0
    2.1237    0.6498   -0.1910 H   0  0  0  0  0  0  0  0  0  0  0  0
  1  2  1  0
  1  4  1  0
  2  3  2  3
  3  5  1  0
  3 12  1  0
  6  7  2  3
  6  9  1  0
  6 10  1  0
  7  8  1  0
  7 11  1  0
  8 13  1  0
  8 14  1  0
M  RAD  1   8   2
M  END
>  <reaction>  (21) 
rmg_rxn_15541

>  <mol_properties>  (21) 
{"1": {"label": "*4", "atom_type": "N3d"}, "2": {"label": "*3", "atom_type": "Cd"}, "6": {"label": "*0", "atom_type": "Cd"}, "7": {"label": "*1", "atom_type": "Cs"}, "11": {"label": "*2", "atom_type": "H0"}}

>  <type>  (21) 
unop_17

>  <geom_source>  (21) 
Heuristics

$$$$

     RDKit          3D

 14 12  0  0  0  0  0  0  0  0999 V2000
   -1.7378    1.1334    2.4575 O   0  0  0  0  0  0  0  0  0  0  0  0
   -1.1942    1.1303    1.1880 N   0  0  0  0  0  0  0  0  0  0  0  0
   -0.7506   -0.0072    0.8674 C   0  0  0  0  0  0  0  0  0  0  0  0
   -2.0307    2.0397    2.5713 H   0  0  0  0  0  0  0  0  0  0  0  0
   -0.8034   -0.8664    1.5327 H   0  0  0  0  0  0  0  0  0  0  0  0
    1.3451   -1.2703   -2.8717 C   0  0  0  0  0  0  0  0  0  0  0  0
    1.3451   -1.2703   -1.5480 C   0  0  0  0  0  0  0  0  0  0  0  0
    1.3451   -0.0481   -0.6875 C   0  0  0  0  0  3  0  0  0  0  0  0
    1.3451   -2.1930   -3.4382 H   0  0  0  0  0  0  0  0  0  0  0  0
    1.3451   -0.3447   -3.4377 H   0  0  0  0  0  0  0  0  0  0  0  0
    1.3451   -2.2229   -1.0245 H   0  0  0  0  0  0  0  0  0  0  0  0
    0.2919   -0.0276    0.0940 H   0  0  0  0  0  0  0  0  0  0  0  0
    1.3451    0.8623   -1.2881 H   0  0  0  0  0  0  0  0  0  0  0  0
    2.2228   -0.0310   -0.0363 H   0  0  0  0  0  0  0  0  0  0  0  0
  1  2  1  0
  1  4  1  0
  2  3  2  3
  3  5  1  0
  3 12  1  0
  6  7  2  3
  6  9  1  0
  6 10  1  0
  7  8  1  0
  7 11  1  0
  8 13  1  0
  8 14  1  0
M  RAD  1   8   2
M  END
>  <reaction>  (22) 
rmg_rxn_15541

>  <mol_properties>  (22) 
{"1": {"label": "*4", "atom_type": "N3d"}, "2": {"label": "*3", "atom_type": "Cd"}, "6": {"label": "*0", "atom_type": "Cd"}, "7": {"label": "*1", "atom_type": "Cs"}, "11": {"label": "*2", "atom_type": "H0"}}

>  <type>  (22) 
unop_18

>  <geom_source>  (22) 
Heuristics

$$$$

     RDKit          3D

 14 12  0  0  0  0  0  0  0  0999 V2000
   -2.3845   -0.1233    1.8640 O   0  0  0  0  0  0  0  0  0  0  0  0
   -1.3133   -0.2419    1.0005 N   0  0  0  0  0  0  0  0  0  0  0  0
   -0.5145    0.7301    1.1032 C   0  0  0  0  0  0  0  0  0  0  0  0
   -2.9016   -0.9113    1.6858 H   0  0  0  0  0  0  0  0  0  0  0  0
   -0.6757    1.5511    1.7986 H   0  0  0  0  0  0  0  0  0  0  0  0
    1.5812   -0.5329   -2.6360 C   0  0  0  0  0  0  0  0  0  0  0  0
    1.5812   -0.5329   -1.3122 C   0  0  0  0  0  0  0  0  0  0  0  0
    1.5812    0.6893   -0.4517 C   0  0  0  0  0  3  0  0  0  0  0  0
    1.5812   -1.4556   -3.2025 H   0  0  0  0  0  0  0  0  0  0  0  0
    1.5812    0.3927   -3.2020 H   0  0  0  0  0  0  0  0  0  0  0  0
    1.5812   -1.4855   -0.7887 H   0  0  0  0  0  0  0  0  0  0  0  0
    0.5280    0.7098    0.3297 H   0  0  0  0  0  0  0  0  0  0  0  0
    1.5812    1.5997   -1.0523 H   0  0  0  0  0  0  0  0  0  0  0  0
    2.4589    0.7064    0.1995 H   0  0  0  0  0  0  0  0  0  0  0  0
  1  2  1  0
  1  4  1  0
  2  3  2  3
  3  5  1  0
  3 12  1  0
  6  7  2  3
  6  9  1  0
  6 10  1  0
  7  8  1  0
  7 11  1  0
  8 13  1  0
  8 14  1  0
M  RAD  1   8   2
M  END
>  <reaction>  (23) 
rmg_rxn_15541

>  <mol_properties>  (23) 
{"1": {"label": "*4", "atom_type": "N3d"}, "2": {"label": "*3", "atom_type": "Cd"}, "6": {"label": "*0", "atom_type": "Cd"}, "7": {"label": "*1", "atom_type": "Cs"}, "11": {"label": "*2", "atom_type": "H0"}}

>  <type>  (23) 
unop_19

>  <geom_source>  (23) 
Heuristics

$$$$

     RDKit          3D

 14 12  0  0  0  0  0  0  0  0999 V2000
   -2.2922    0.6555    0.1902 O   0  0  0  0  0  0  0  0  0  0  0  0
   -2.5264   -0.6816   -0.0275 N   0  0  0  0  0  0  0  0  0  0  0  0
    0.9159    0.7246    0.1340 C   0  0  0  0  0  0  0  0  0  0  0  0
    0.8938   -0.7255   -0.2297 C   0  0  0  0  0  0  0  0  0  0  0  0
    2.0340    1.4467    0.0338 C   0  0  0  0  0  3  0  0  0  0  0  0
   -1.5565   -1.5324    0.0304 C   0  0  0  0  0  0  0  0  0  0  0  0
    0.0023    1.1930    0.4856 H   0  0  0  0  0  0  0  0  0  0  0  0
    2.0276    2.4979    0.3032 H   0  0  0  0  0  0  0  0  0  0  0  0
    2.9588    0.9975   -0.3158 H   0  0  0  0  0  0  0  0  0  0  0  0
    1.1634   -0.8585   -1.2988 H   0  0  0  0  0  0  0  0  0  0  0  0
    1.5985   -1.2945    0.4127 H   0  0  0  0  0  0  0  0  0  0  0  0
   -1.7500   -2.5822   -0.1423 H   0  0  0  0  0  0  0  0  0  0  0  0
   -0.4126   -1.1579    0.2807 H   0  0  0  0  0  0  0  0  0  0  0  0
   -3.0565    1.3174    0.1435 H   0  0  0  0  0  0  0  0  0  0  0  0
  1  2  1  0
  1 14  1  0
  2  6  2  3
  3  4  2  3
  3  5  1  0
  3  7  1  0
  4 10  1  0
  4 11  1  0
  5  8  1  0
  5  9  1  0
  6 12  1  0
  6 13  1  0
M  RAD  1   5   2
M  END
>  <reaction>  (24) 
rmg_rxn_15541

>  <mol_properties>  (24) 
{"1": {"label": "*4", "atom_type": "N3d"}, "2": {"label": "*3", "atom_type": "Cd"}, "6": {"label": "*0", "atom_type": "Cd"}, "7": {"label": "*1", "atom_type": "Cs"}, "11": {"label": "*2", "atom_type": "H0"}}

>  <type>  (24) 
unop_20

>  <geom_source>  (24) 
AutoTST

$$$$

     RDKit          3D

 14 12  0  0  0  0  0  0  0  0999 V2000
   -1.9749   -0.2270    2.3447 O   0  0  0  0  0  0  0  0  0  0  0  0
   -1.1494   -0.3340    1.2429 N   0  0  0  0  0  0  0  0  0  0  0  0
   -0.6856    0.7858    0.8901 C   0  0  0  0  0  0  0  0  0  0  0  0
   -2.2525   -1.1315    2.5028 H   0  0  0  0  0  0  0  0  0  0  0  0
   -0.9248    1.7104    1.4112 H   0  0  0  0  0  0  0  0  0  0  0  0
    1.4101   -0.4772   -2.8490 C   0  0  0  0  0  0  0  0  0  0  0  0
    1.4101   -0.4772   -1.5253 C   0  0  0  0  0  0  0  0  0  0  0  0
    1.4101    0.7450   -0.6648 C   0  0  0  0  0  3  0  0  0  0  0  0
    1.4101   -1.4000   -3.4155 H   0  0  0  0  0  0  0  0  0  0  0  0
    1.4101    0.4484   -3.4150 H   0  0  0  0  0  0  0  0  0  0  0  0
    1.4101   -1.4299   -1.0018 H   0  0  0  0  0  0  0  0  0  0  0  0
    0.3569    0.7655    0.1167 H   0  0  0  0  0  0  0  0  0  0  0  0
    1.4101    1.6554   -1.2654 H   0  0  0  0  0  0  0  0  0  0  0  0
    2.2878    0.7621   -0.0135 H   0  0  0  0  0  0  0  0  0  0  0  0
  1  2  1  0
  1  4  1  0
  2  3  2  3
  3  5  1  0
  3 12  1  0
  6  7  2  3
  6  9  1  0
  6 10  1  0
  7  8  1  0
  7 11  1  0
  8 13  1  0
  8 14  1  0
M  RAD  1   8   2
M  END
>  <reaction>  (25) 
rmg_rxn_15541

>  <mol_properties>  (25) 
{"1": {"label": "*4", "atom_type": "N3d"}, "2": {"label": "*3", "atom_type": "Cd"}, "6": {"label": "*0", "atom_type": "Cd"}, "7": {"label": "*1", "atom_type": "Cs"}, "11": {"label": "*2", "atom_type": "H0"}}

>  <type>  (25) 
unop_21

>  <geom_source>  (25) 
gaussian_log

$$$$
