
     RDKit          3D

  9  8  0  0  0  0  0  0  0  0999 V2000
    1.8437   -0.0883   -0.0000 C   0  0  0  0  0  0  0  0  0  0  0  0
    0.4169    0.3594   -0.0000 C   0  0  0  0  0  0  0  0  0  0  0  0
   -0.5487   -0.5001    0.0000 N   0  0  0  0  0  0  0  0  0  0  0  0
   -1.7663    0.1898   -0.0000 O   0  0  0  0  0  0  0  0  0  0  0  0
    2.3411    0.3161   -0.8852 H   0  0  0  0  0  0  0  0  0  0  0  0
    2.3384    0.3075    0.8906 H   0  0  0  0  0  0  0  0  0  0  0  0
    1.9129   -1.1787   -0.0052 H   0  0  0  0  0  0  0  0  0  0  0  0
    0.2322    1.4481   -0.0000 H   0  0  0  0  0  0  0  0  0  0  0  0
   -2.4173   -0.5369    0.0000 H   0  0  0  0  0  0  0  0  0  0  0  0
  1  2  1  0
  1  5  1  0
  1  6  1  0
  1  7  1  0
  2  3  2  3
  2  8  1  0
  3  4  1  0
  4  9  1  0
M  END
>  <reaction>  (1) 
rmg_rxn_1137

>  <mol_properties>  (1) 
{"3": {"label": "donator", "atom_type": "O2s"}, "8": {"label": "d_hydrogen", "atom_type": "H0"}}

>  <type>  (1) 
r1h

$$$$

     RDKit          3D

  1  0  0  0  0  0  0  0  0  0999 V2000
    0.0000    0.0000    0.0000 O   0  0  0  0  0 15  0  0  0  0  0  0
M  END
>  <reaction>  (2) 
rmg_rxn_1137

>  <mol_properties>  (2) 
{"0": {"label": "acceptor", "atom_type": "O2s"}}

>  <type>  (2) 
r2

$$$$

     RDKit          3D

  2  1  0  0  0  0  0  0  0  0999 V2000
    0.0000    0.0000    0.1079 O   0  0  0  0  0  1  0  0  0  0  0  0
    0.0000    0.0000   -0.8631 H   0  0  0  0  0  0  0  0  0  0  0  0
  1  2  1  0
M  RAD  1   1   2
M  END
>  <reaction>  (3) 
rmg_rxn_1137

>  <mol_properties>  (3) 
{"0": {"label": "acceptor", "atom_type": "O2s"}, "1": {"label": "a_hydrogen", "atom_type": "H0"}}

>  <type>  (3) 
r2h

$$$$

     RDKit          3D

 10  8  0  0  0  0  0  0  0  0999 V2000
   -2.8838   -0.5206    0.0000 O   0  0  0  0  0  1  0  0  0  0  0  0
    2.4868   -0.4204   -0.0000 C   0  0  0  0  0  0  0  0  0  0  0  0
    1.2206    0.3752   -0.0000 C   0  0  0  0  0  0  0  0  0  0  0  0
    0.0683   -0.2107   -0.0000 N   0  0  0  0  0  0  0  0  0  0  0  0
   -0.9340    0.7659   -0.0000 O   0  0  0  0  0  1  0  0  0  0  0  0
    3.0706   -0.1556   -0.8852 H   0  0  0  0  0  0  0  0  0  0  0  0
    3.0658   -0.1633    0.8906 H   0  0  0  0  0  0  0  0  0  0  0  0
    2.2766   -1.4926   -0.0052 H   0  0  0  0  0  0  0  0  0  0  0  0
    1.3186    1.4751   -0.0000 H   0  0  0  0  0  0  0  0  0  0  0  0
   -1.9112    0.1211    0.0000 H   0  0  0  0  0  0  0  0  0  0  0  0
  1 10  1  0
  2  3  1  0
  2  6  1  0
  2  7  1  0
  2  8  1  0
  3  4  2  3
  3  9  1  0
  4  5  1  0
M  RAD  2   1   2   5   2
M  END
>  <reaction>  (4) 
rmg_rxn_1137

>  <mol_properties>  (4) 
{"0": {"label": "*1", "atom_type": "O2s"}, "3": {"label": "*4", "atom_type": "N3d"}, "4": {"label": "*3", "atom_type": "O2s"}, "9": {"label": "*2", "atom_type": "H0"}}

>  <type>  (4) 
ts

$$$$

     RDKit          3D

 10  8  0  0  0  0  0  0  0  0999 V2000
    0.0000    1.9226    2.0761 O   0  0  0  0  0  1  0  0  0  0  0  0
    0.0000   -1.0195   -2.4182 C   0  0  0  0  0  0  0  0  0  0  0  0
    0.0000   -1.0195   -0.9228 C   0  0  0  0  0  0  0  0  0  0  0  0
    0.0000    0.0896   -0.2588 N   0  0  0  0  0  0  0  0  0  0  0  0
    0.0000   -0.2041    1.1095 O   0  0  0  0  0  1  0  0  0  0  0  0
    0.8852   -1.5543   -2.7717 H   0  0  0  0  0  0  0  0  0  0  0  0
   -0.8906   -1.5452   -2.7717 H   0  0  0  0  0  0  0  0  0  0  0  0
    0.0052    0.0002   -2.8106 H   0  0  0  0  0  0  0  0  0  0  0  0
    0.0000   -2.0030   -0.4207 H   0  0  0  0  0  0  0  0  0  0  0  0
    0.0000    0.8617    1.5939 H   0  0  0  0  0  0  0  0  0  0  0  0
  1 10  1  0
  2  3  1  0
  2  6  1  0
  2  7  1  0
  2  8  1  0
  3  4  2  3
  3  9  1  0
  4  5  1  0
M  RAD  2   1   2   5   2
M  END
>  <reaction>  (5) 
rmg_rxn_1137

>  <mol_properties>  (5) 
{"0": {"label": "*1", "atom_type": "O2s"}, "3": {"label": "*4", "atom_type": "N3d"}, "4": {"label": "*3", "atom_type": "O2s"}, "9": {"label": "*2", "atom_type": "H0"}}

>  <type>  (5) 
unop_1

>  <geom_source>  (5) 
Heuristics

$$$$

     RDKit          3D

 10  8  0  0  0  0  0  0  0  0999 V2000
    1.6493    1.0887    0.6068 O   0  0  0  0  0  1  0  0  0  0  0  0
    3.2114    0.3987   -0.8393 O   0  0  0  0  0  1  0  0  0  0  0  0
    0.4460    0.4658    0.8414 N   0  0  0  0  0  2  0  0  0  0  0  0
   -1.6155   -0.5632    0.1229 C   0  0  0  0  0  0  0  0  0  0  0  0
   -0.3132    0.1113   -0.1434 C   0  0  0  0  0  3  0  0  0  0  0  0
   -1.4421   -1.5114    0.6738 H   0  0  0  0  0  0  0  0  0  0  0  0
   -2.2664    0.1018    0.7285 H   0  0  0  0  0  0  0  0  0  0  0  0
   -2.1243   -0.7906   -0.8372 H   0  0  0  0  0  0  0  0  0  0  0  0
   -0.0067    0.3026   -1.1650 H   0  0  0  0  0  0  0  0  0  0  0  0
    2.4615    0.3963    0.0115 H   0  0  0  0  0  0  0  0  0  0  0  0
  1  3  1  0
  2 10  1  0
  3  5  1  0
  4  8  1  0
  4  5  1  0
  4  7  1  0
  4  6  1  0
  5  9  1  0
M  RAD  4   1   2   2   2   3   2   5   2
M  END
>  <reaction>  (6) 
rmg_rxn_1137

>  <mol_properties>  (6) 
{"0": {"label": "*1", "atom_type": "O2s"}, "3": {"label": "*4", "atom_type": "N3d"}, "4": {"label": "*3", "atom_type": "O2s"}, "9": {"label": "*2", "atom_type": "H0"}}

>  <type>  (6) 
unop_2

>  <geom_source>  (6) 
AutoTST

$$$$

     RDKit          3D

 10  8  0  0  0  0  0  0  0  0999 V2000
    0.7867    0.0091    1.2071 O   0  0  0  0  0  0  0  0  0  0  0  0
    2.7347    0.6038    2.1264 O   0  0  0  0  0 15  0  0  0  0  0  0
    0.6656    0.7946    0.0832 N   0  0  0  0  0  0  0  0  0  0  0  0
   -1.1413   -0.6282   -0.7347 C   0  0  0  0  0  0  0  0  0  0  0  0
   -0.2096    0.5378   -0.8377 C   0  0  0  0  0  0  0  0  0  0  0  0
   -1.7700   -0.5300    0.1751 H   0  0  0  0  0  0  0  0  0  0  0  0
   -1.8019   -0.6602   -1.6263 H   0  0  0  0  0  0  0  0  0  0  0  0
   -0.5600   -1.5727   -0.6841 H   0  0  0  0  0  0  0  0  0  0  0  0
   -0.2674    1.1843   -1.7036 H   0  0  0  0  0  0  0  0  0  0  0  0
    1.5633    0.2615    1.9946 H   0  0  0  0  0  0  0  0  0  0  0  0
  1  3  1  0
  1 10  1  0
  3  5  2  3
  4  5  1  0
  4  6  1  0
  4  7  1  0
  4  8  1  0
  5  9  1  0
M  END
>  <reaction>  (7) 
rmg_rxn_1137

>  <mol_properties>  (7) 
{"0": {"label": "*1", "atom_type": "O2s"}, "3": {"label": "*4", "atom_type": "N3d"}, "4": {"label": "*3", "atom_type": "O2s"}, "9": {"label": "*2", "atom_type": "H0"}}

>  <type>  (7) 
unop_3

>  <geom_source>  (7) 
gaussian_log

$$$$
