
     RDKit          3D

 11 10  0  0  0  0  0  0  0  0999 V2000
    0.0000    1.2570   -0.2618 C   0  0  0  0  0  0  0  0  0  0  0  0
    0.0000    0.0000    0.5915 C   0  0  0  0  0  0  0  0  0  0  0  0
    0.0000   -1.2570   -0.2618 C   0  0  0  0  0  0  0  0  0  0  0  0
   -0.8872    1.2968   -0.9019 H   0  0  0  0  0  0  0  0  0  0  0  0
    0.8847    1.2783   -0.9058 H   0  0  0  0  0  0  0  0  0  0  0  0
    0.0131    2.1556    0.3633 H   0  0  0  0  0  0  0  0  0  0  0  0
   -0.8824    0.0000    1.2409 H   0  0  0  0  0  0  0  0  0  0  0  0
    0.8824    0.0000    1.2409 H   0  0  0  0  0  0  0  0  0  0  0  0
    0.8872   -1.2968   -0.9019 H   0  0  0  0  0  0  0  0  0  0  0  0
   -0.0131   -2.1556    0.3633 H   0  0  0  0  0  0  0  0  0  0  0  0
   -0.8847   -1.2783   -0.9058 H   0  0  0  0  0  0  0  0  0  0  0  0
  1  2  1  0
  1  4  1  0
  1  5  1  0
  1  6  1  0
  2  3  1  0
  2  7  1  0
  2  8  1  0
  3  9  1  0
  3 10  1  0
  3 11  1  0
M  END
>  <reaction>  (1) 
rmg_rxn_1134

>  <mol_properties>  (1) 
{"2": {"label": "donator", "atom_type": "Cs"}, "10": {"label": "d_hydrogen", "atom_type": "H0"}}

>  <type>  (1) 
r1h

$$$$

     RDKit          3D

  1  0  0  0  0  0  0  0  0  0999 V2000
    0.0000    0.0000    0.0000 O   0  0  0  0  0 15  0  0  0  0  0  0
M  END
>  <reaction>  (2) 
rmg_rxn_1134

>  <mol_properties>  (2) 
{"0": {"label": "acceptor", "atom_type": "O2s"}}

>  <type>  (2) 
r2

$$$$

     RDKit          3D

  2  1  0  0  0  0  0  0  0  0999 V2000
    0.0000    0.0000    0.1079 O   0  0  0  0  0  1  0  0  0  0  0  0
    0.0000    0.0000   -0.8631 H   0  0  0  0  0  0  0  0  0  0  0  0
  1  2  1  0
M  RAD  1   1   2
M  END
>  <reaction>  (3) 
rmg_rxn_1134

>  <mol_properties>  (3) 
{"0": {"label": "acceptor", "atom_type": "O2s"}, "1": {"label": "a_hydrogen", "atom_type": "H0"}}

>  <type>  (3) 
r2h

$$$$

     RDKit          3D

 12 10  0  0  0  0  0  0  0  0999 V2000
   -2.0146   -0.5713   -0.0932 O   0  0  0  0  0 15  0  0  0  0  0  0
    1.0666    0.4890   -0.2353 C   0  0  0  0  0  0  0  0  0  0  0  0
    1.1437   -0.9915    0.1174 C   0  0  0  0  0  0  0  0  0  0  0  0
   -0.2806    1.0705    0.1699 C   0  0  0  0  0  0  0  0  0  0  0  0
    1.8803    1.0390    0.2849 H   0  0  0  0  0  0  0  0  0  0  0  0
    1.1998    0.6106   -1.3315 H   0  0  0  0  0  0  0  0  0  0  0  0
    2.1264   -1.3987   -0.2012 H   0  0  0  0  0  0  0  0  0  0  0  0
    1.0392   -1.1330    1.2144 H   0  0  0  0  0  0  0  0  0  0  0  0
    0.3394   -1.5535   -0.4037 H   0  0  0  0  0  0  0  0  0  0  0  0
   -0.4096    1.0204    1.2722 H   0  0  0  0  0  0  0  0  0  0  0  0
   -0.3496    2.1297   -0.1563 H   0  0  0  0  0  0  0  0  0  0  0  0
   -1.2873    0.4473   -0.2448 H   0  0  0  0  0  0  0  0  0  0  0  0
  2  3  1  0
  2  4  1  0
  2  5  1  0
  2  6  1  0
  3  7  1  0
  3  8  1  0
  3  9  1  0
  4 10  1  0
  4 11  1  0
  4 12  1  0
M  END
>  <reaction>  (4) 
rmg_rxn_1134

>  <mol_properties>  (4) 
{"0": {"label": "*3", "atom_type": "O2s"}, "1": {"label": "*0", "atom_type": "Cs"}, "3": {"label": "*1", "atom_type": "Cs"}, "11": {"label": "*2", "atom_type": "H0"}}

>  <type>  (4) 
ts

$$$$

     RDKit          3D

 12 10  0  0  0  0  0  0  0  0999 V2000
   -1.9455   -0.4872    0.0936 O   0  0  0  0  0  1  0  0  0  0  0  0
   -0.1222    1.1044   -0.2746 C   0  0  0  0  0  3  0  0  0  0  0  0
    1.0315    0.4309    0.3740 C   0  0  0  0  0  0  0  0  0  0  0  0
    1.2651   -0.9689   -0.1801 C   0  0  0  0  0  0  0  0  0  0  0  0
   -1.1686    0.3546   -0.0310 H   0  0  0  0  0  0  0  0  0  0  0  0
   -0.1283    1.0978   -1.3579 H   0  0  0  0  0  0  0  0  0  0  0  0
   -0.4689    2.0290    0.1709 H   0  0  0  0  0  0  0  0  0  0  0  0
    0.8873    0.3887    1.4549 H   0  0  0  0  0  0  0  0  0  0  0  0
    1.9113    1.0596    0.1839 H   0  0  0  0  0  0  0  0  0  0  0  0
    1.5021   -0.9343   -1.2406 H   0  0  0  0  0  0  0  0  0  0  0  0
    2.0802   -1.4595    0.3438 H   0  0  0  0  0  0  0  0  0  0  0  0
    0.3552   -1.5504   -0.0482 H   0  0  0  0  0  0  0  0  0  0  0  0
  1  5  1  0
  2  3  1  0
  2  6  1  0
  2  7  1  0
  3  4  1  0
  3  8  1  0
  3  9  1  0
  4 10  1  0
  4 11  1  0
  4 12  1  0
M  RAD  2   1   2   2   2
M  END
>  <reaction>  (5) 
rmg_rxn_1134

>  <mol_properties>  (5) 
{"0": {"label": "*3", "atom_type": "O2s"}, "1": {"label": "*0", "atom_type": "Cs"}, "3": {"label": "*1", "atom_type": "Cs"}, "11": {"label": "*2", "atom_type": "H0"}}

>  <type>  (5) 
unop_1

>  <geom_source>  (5) 
Heuristics

$$$$

     RDKit          3D

 12 10  0  0  0  0  0  0  0  0999 V2000
   -1.4710    1.5975    0.1099 O   0  0  0  0  0  1  0  0  0  0  0  0
    0.5381    0.3478    0.8494 C   0  0  0  0  0  3  0  0  0  0  0  0
    0.5381   -1.0642    0.2887 C   0  0  0  0  0  0  0  0  0  0  0  0
    0.5381   -1.0642   -1.2306 C   0  0  0  0  0  0  0  0  0  0  0  0
   -0.5266    1.0101    0.4575 H   0  0  0  0  0  0  0  0  0  0  0  0
    1.4228    0.8926    0.5053 H   0  0  0  0  0  0  0  0  0  0  0  0
    0.5511    0.3353    1.9440 H   0  0  0  0  0  0  0  0  0  0  0  0
   -0.3444   -1.6015    0.6534 H   0  0  0  0  0  0  0  0  0  0  0  0
    1.4205   -1.6015    0.6534 H   0  0  0  0  0  0  0  0  0  0  0  0
    1.4253   -0.5570   -1.6230 H   0  0  0  0  0  0  0  0  0  0  0  0
    0.5250   -2.0861   -1.6230 H   0  0  0  0  0  0  0  0  0  0  0  0
   -0.3467   -0.5433   -1.6099 H   0  0  0  0  0  0  0  0  0  0  0  0
  1  5  1  0
  2  3  1  0
  2  6  1  0
  2  7  1  0
  3  4  1  0
  3  8  1  0
  3  9  1  0
  4 10  1  0
  4 11  1  0
  4 12  1  0
M  RAD  2   1   2   2   2
M  END
>  <reaction>  (6) 
rmg_rxn_1134

>  <mol_properties>  (6) 
{"0": {"label": "*3", "atom_type": "O2s"}, "1": {"label": "*0", "atom_type": "Cs"}, "3": {"label": "*1", "atom_type": "Cs"}, "11": {"label": "*2", "atom_type": "H0"}}

>  <type>  (6) 
unop_2

>  <geom_source>  (6) 
Heuristics

$$$$

     RDKit          3D

 12 10  0  0  0  0  0  0  0  0999 V2000
    1.8180    1.6447    0.3790 O   0  0  0  0  0 15  0  0  0  0  0  0
   -0.4000   -0.6077   -0.4246 C   0  0  0  0  0  0  0  0  0  0  0  0
   -1.1850    0.6189    0.0243 C   0  0  0  0  0  0  0  0  0  0  0  0
    0.9974   -0.6044    0.1792 C   0  0  0  0  0  0  0  0  0  0  0  0
   -0.9375   -1.5290   -0.1124 H   0  0  0  0  0  0  0  0  0  0  0  0
   -0.3170   -0.6027   -1.5324 H   0  0  0  0  0  0  0  0  0  0  0  0
   -2.1936    0.6050   -0.4400 H   0  0  0  0  0  0  0  0  0  0  0  0
   -1.3024    0.6191    1.1291 H   0  0  0  0  0  0  0  0  0  0  0  0
   -0.6611    1.5470   -0.2896 H   0  0  0  0  0  0  0  0  0  0  0  0
    0.9423   -0.6755    1.2865 H   0  0  0  0  0  0  0  0  0  0  0  0
    1.5810   -1.4644   -0.2116 H   0  0  0  0  0  0  0  0  0  0  0  0
    1.6579    0.4491    0.0125 H   0  0  0  0  0  0  0  0  0  0  0  0
  2  3  1  0
  2  4  1  0
  2  5  1  0
  2  6  1  0
  3  7  1  0
  3  8  1  0
  3  9  1  0
  4 10  1  0
  4 11  1  0
  4 12  1  0
M  END
>  <reaction>  (7) 
rmg_rxn_1134

>  <mol_properties>  (7) 
{"0": {"label": "*3", "atom_type": "O2s"}, "1": {"label": "*0", "atom_type": "Cs"}, "3": {"label": "*1", "atom_type": "Cs"}, "11": {"label": "*2", "atom_type": "H0"}}

>  <type>  (7) 
unop_3

>  <geom_source>  (7) 
AutoTST

$$$$

     RDKit          3D

 12 10  0  0  0  0  0  0  0  0999 V2000
   -1.9455   -0.4872    0.0936 O   0  0  0  0  0  1  0  0  0  0  0  0
   -0.1222    1.1044   -0.2746 C   0  0  0  0  0  3  0  0  0  0  0  0
    1.0315    0.4309    0.3740 C   0  0  0  0  0  0  0  0  0  0  0  0
    1.2651   -0.9689   -0.1801 C   0  0  0  0  0  0  0  0  0  0  0  0
   -1.1686    0.3546   -0.0310 H   0  0  0  0  0  0  0  0  0  0  0  0
   -0.1283    1.0978   -1.3579 H   0  0  0  0  0  0  0  0  0  0  0  0
   -0.4689    2.0290    0.1709 H   0  0  0  0  0  0  0  0  0  0  0  0
    0.8873    0.3887    1.4549 H   0  0  0  0  0  0  0  0  0  0  0  0
    1.9113    1.0596    0.1839 H   0  0  0  0  0  0  0  0  0  0  0  0
    1.5021   -0.9343   -1.2406 H   0  0  0  0  0  0  0  0  0  0  0  0
    2.0802   -1.4595    0.3438 H   0  0  0  0  0  0  0  0  0  0  0  0
    0.3552   -1.5504   -0.0482 H   0  0  0  0  0  0  0  0  0  0  0  0
  1  5  1  0
  2  3  1  0
  2  6  1  0
  2  7  1  0
  3  4  1  0
  3  8  1  0
  3  9  1  0
  4 10  1  0
  4 11  1  0
  4 12  1  0
M  RAD  2   1   2   2   2
M  END
>  <reaction>  (8) 
rmg_rxn_1134

>  <mol_properties>  (8) 
{"0": {"label": "*3", "atom_type": "O2s"}, "1": {"label": "*0", "atom_type": "Cs"}, "3": {"label": "*1", "atom_type": "Cs"}, "11": {"label": "*2", "atom_type": "H0"}}

>  <type>  (8) 
unop_4

>  <geom_source>  (8) 
gaussian_log

$$$$
