
     RDKit          3D

 14 13  0  0  0  0  0  0  0  0999 V2000
    2.5054    0.2488   -0.1285 C   0  0  0  0  0  0  0  0  0  0  0  0
    1.6536   -0.7670   -0.1134 C   0  0  0  0  0  0  0  0  0  0  0  0
    0.3356   -0.7549    0.2027 O   0  0  0  0  0  0  0  0  0  0  0  0
   -0.2915    0.4928    0.3821 C   0  0  0  0  0  0  0  0  0  0  0  0
    0.0856    1.1552    1.5361 O   0  0  0  0  0  0  0  0  0  0  0  0
   -0.2716    0.4873    2.7263 C   0  0  0  0  0  0  0  0  0  0  0  0
    2.2401    1.2518    0.1721 H   0  0  0  0  0  0  0  0  0  0  0  0
    3.5238    0.0603   -0.4356 H   0  0  0  0  0  0  0  0  0  0  0  0
    1.9585   -1.7731   -0.3755 H   0  0  0  0  0  0  0  0  0  0  0  0
   -1.3614    0.2581    0.3922 H   0  0  0  0  0  0  0  0  0  0  0  0
   -0.0461    1.1566   -0.4508 H   0  0  0  0  0  0  0  0  0  0  0  0
    0.2742   -0.4533    2.8364 H   0  0  0  0  0  0  0  0  0  0  0  0
   -0.0163    1.1503    3.5504 H   0  0  0  0  0  0  0  0  0  0  0  0
   -1.3482    0.2791    2.7513 H   0  0  0  0  0  0  0  0  0  0  0  0
  1  2  2  3
  1  7  1  0
  1  8  1  0
  2  3  1  0
  2  9  1  0
  3  4  1  0
  4  5  1  0
  4 10  1  0
  4 11  1  0
  5  6  1  0
  6 12  1  0
  6 13  1  0
  6 14  1  0
M  END
>  <reaction>  (1) 
rmg_rxn_15477

>  <mol_properties>  (1) 
{"5": {"label": "donator", "atom_type": "Cs"}, "11": {"label": "d_hydrogen", "atom_type": "H0"}}

>  <type>  (1) 
r1h

$$$$

     RDKit          3D

  5  4  0  0  0  0  0  0  0  0999 V2000
    0.8934    0.3742    0.4948 O   0  0  0  0  0  0  0  0  0  0  0  0
    0.1582   -0.1610   -0.5904 N   0  0  0  0  0  0  0  0  0  0  0  0
   -1.0297   -0.3739   -0.4689 C   0  0  0  0  0  3  0  0  0  0  0  0
    1.7805    0.4382    0.1306 H   0  0  0  0  0  0  0  0  0  0  0  0
   -1.8023   -0.2775    0.2859 H   0  0  0  0  0  0  0  0  0  0  0  0
  1  2  1  0
  1  4  1  0
  2  3  2  3
  3  5  1  0
M  RAD  1   3   2
M  END
>  <reaction>  (2) 
rmg_rxn_15477

>  <mol_properties>  (2) 
{"2": {"label": "acceptor", "atom_type": "Cd"}}

>  <type>  (2) 
r2

$$$$

     RDKit          3D

  6  5  0  0  0  0  0  0  0  0999 V2000
    1.2314    0.0428    0.5088 O   0  0  0  0  0  0  0  0  0  0  0  0
    0.2987    0.2341   -0.4915 N   0  0  0  0  0  0  0  0  0  0  0  0
   -0.8599   -0.1122   -0.1290 C   0  0  0  0  0  0  0  0  0  0  0  0
    2.0507    0.3401    0.1082 H   0  0  0  0  0  0  0  0  0  0  0  0
   -1.0700   -0.5112    0.8610 H   0  0  0  0  0  0  0  0  0  0  0  0
   -1.6509    0.0064   -0.8574 H   0  0  0  0  0  0  0  0  0  0  0  0
  1  2  1  0
  1  4  1  0
  2  3  2  3
  3  5  1  0
  3  6  1  0
M  END
>  <reaction>  (3) 
rmg_rxn_15477

>  <mol_properties>  (3) 
{"2": {"label": "acceptor", "atom_type": "Cd"}, "5": {"label": "a_hydrogen", "atom_type": "H0"}}

>  <type>  (3) 
r2h

$$$$

     RDKit          3D

 19 17  0  0  0  0  0  0  0  0999 V2000
    3.3057   -1.6346    1.0845 O   0  0  0  0  0  0  0  0  0  0  0  0
    2.6688   -0.4010    0.8706 N   0  0  0  0  0  0  0  0  0  0  0  0
    1.6401   -0.4747    0.1780 C   0  0  0  0  0  3  0  0  0  0  0  0
    4.0601   -1.3903    1.6253 H   0  0  0  0  0  0  0  0  0  0  0  0
    1.1815   -1.3547   -0.2720 H   0  0  0  0  0  0  0  0  0  0  0  0
   -1.9351   -1.0953   -1.3974 C   0  0  0  0  0  0  0  0  0  0  0  0
   -1.7806   -1.0365   -0.0822 C   0  0  0  0  0  0  0  0  0  0  0  0
   -1.6147    0.0633    0.6941 O   0  0  0  0  0  0  0  0  0  0  0  0
   -1.8264    1.3226    0.1162 C   0  0  0  0  0  0  0  0  0  0  0  0
   -0.8316    1.7120   -0.7754 O   0  0  0  0  0  0  0  0  0  0  0  0
    0.4202    1.8996   -0.2145 C   0  0  0  0  0  0  0  0  0  0  0  0
   -1.9042   -0.2269   -2.0393 H   0  0  0  0  0  0  0  0  0  0  0  0
   -2.0830   -2.0627   -1.8547 H   0  0  0  0  0  0  0  0  0  0  0  0
   -1.7691   -1.9259    0.5359 H   0  0  0  0  0  0  0  0  0  0  0  0
   -1.8754    2.0125    0.9638 H   0  0  0  0  0  0  0  0  0  0  0  0
   -2.7605    1.3275   -0.4503 H   0  0  0  0  0  0  0  0  0  0  0  0
    0.9893    0.7836   -0.0263 H   0  0  0  0  0  0  0  0  0  0  0  0
    1.0540    2.4277   -0.9226 H   0  0  0  0  0  0  0  0  0  0  0  0
    0.3926    2.3736    0.7716 H   0  0  0  0  0  0  0  0  0  0  0  0
  1  2  1  0
  1  4  1  0
  2  3  2  3
  3  5  1  0
  6  7  2  3
  6 12  1  0
  6 13  1  0
  7  8  1  0
  7 14  1  0
  8  9  1  0
  9 10  1  0
  9 15  1  0
  9 16  1  0
 10 11  1  0
 11 17  1  0
 11 18  1  0
 11 19  1  0
M  RAD  1   3   2
M  END
>  <reaction>  (4) 
rmg_rxn_15477

>  <mol_properties>  (4) 
{"1": {"label": "*4", "atom_type": "N3d"}, "2": {"label": "*3", "atom_type": "Cd"}, "9": {"label": "*0", "atom_type": "O2s"}, "10": {"label": "*1", "atom_type": "Cs"}, "16": {"label": "*2", "atom_type": "H0"}}

>  <type>  (4) 
ts

$$$$

     RDKit          3D

 19 17  0  0  0  0  0  0  0  0999 V2000
    3.4819   -0.4888    0.1633 O   0  0  0  0  0  0  0  0  0  0  0  0
    2.3837    0.3940    0.1821 N   0  0  0  0  0  0  0  0  0  0  0  0
    1.5122    0.3242   -0.6921 C   0  0  0  0  0  0  0  0  0  0  0  0
    4.0046   -0.2366    0.9370 H   0  0  0  0  0  0  0  0  0  0  0  0
    1.4220   -0.3515   -1.5336 H   0  0  0  0  0  0  0  0  0  0  0  0
   -1.5788   -1.7838   -1.0020 C   0  0  0  0  0  0  0  0  0  0  0  0
   -0.9387   -1.6199    0.1417 C   0  0  0  0  0  0  0  0  0  0  0  0
   -1.0223   -0.5725    1.0138 O   0  0  0  0  0  0  0  0  0  0  0  0
   -1.9591    0.4302    0.7530 C   0  0  0  0  0  0  0  0  0  0  0  0
   -1.6895    1.1966   -0.3796 O   0  0  0  0  0  0  0  0  0  0  0  0
   -0.5254    1.9559   -0.3222 C   0  0  0  0  0  3  0  0  0  0  0  0
   -2.2583   -1.0537   -1.4031 H   0  0  0  0  0  0  0  0  0  0  0  0
   -1.4185   -2.6725   -1.5828 H   0  0  0  0  0  0  0  0  0  0  0  0
   -0.2355   -2.3436    0.5300 H   0  0  0  0  0  0  0  0  0  0  0  0
   -1.9547    1.0552    1.6596 H   0  0  0  0  0  0  0  0  0  0  0  0
   -2.9590    0.0040    0.5893 H   0  0  0  0  0  0  0  0  0  0  0  0
    0.5305    1.1602   -0.5176 H   0  0  0  0  0  0  0  0  0  0  0  0
   -0.5347    2.6560   -1.1503 H   0  0  0  0  0  0  0  0  0  0  0  0
   -0.3587    2.4234    0.6479 H   0  0  0  0  0  0  0  0  0  0  0  0
  1  2  1  0
  1  4  1  0
  2  3  2  3
  3  5  1  0
  3 17  1  0
  6  7  2  3
  6 12  1  0
  6 13  1  0
  7  8  1  0
  7 14  1  0
  8  9  1  0
  9 10  1  0
  9 15  1  0
  9 16  1  0
 10 11  1  0
 11 18  1  0
 11 19  1  0
M  RAD  1  11   2
M  END
>  <reaction>  (5) 
rmg_rxn_15477

>  <mol_properties>  (5) 
{"1": {"label": "*4", "atom_type": "N3d"}, "2": {"label": "*3", "atom_type": "Cd"}, "9": {"label": "*0", "atom_type": "O2s"}, "10": {"label": "*1", "atom_type": "Cs"}, "16": {"label": "*2", "atom_type": "H0"}}

>  <type>  (5) 
unop_1

>  <geom_source>  (5) 
crest_best.xyz

$$$$

     RDKit          3D

 19 17  0  0  0  0  0  0  0  0999 V2000
    3.2268   -1.2478    1.4364 O   0  0  0  0  0  0  0  0  0  0  0  0
    2.4746   -0.7326    0.3992 N   0  0  0  0  0  0  0  0  0  0  0  0
    1.3082   -0.4237    0.7702 C   0  0  0  0  0  0  0  0  0  0  0  0
    4.0725   -1.4365    1.0249 H   0  0  0  0  0  0  0  0  0  0  0  0
    0.9630   -0.5583    1.7931 H   0  0  0  0  0  0  0  0  0  0  0  0
   -1.6961   -1.1612   -1.7501 C   0  0  0  0  0  0  0  0  0  0  0  0
   -1.6961   -1.1612   -0.4243 C   0  0  0  0  0  0  0  0  0  0  0  0
   -1.6961   -0.0983    0.4168 O   0  0  0  0  0  0  0  0  0  0  0  0
   -1.8882    1.1829   -0.1342 C   0  0  0  0  0  0  0  0  0  0  0  0
   -0.8147    1.6491   -0.8710 O   0  0  0  0  0  0  0  0  0  0  0  0
    0.3617    1.8412   -0.1163 C   0  0  0  0  0  3  0  0  0  0  0  0
   -1.6464   -0.2609   -2.3447 H   0  0  0  0  0  0  0  0  0  0  0  0
   -1.7246   -2.1113   -2.2634 H   0  0  0  0  0  0  0  0  0  0  0  0
   -1.6993   -2.0814    0.1476 H   0  0  0  0  0  0  0  0  0  0  0  0
   -2.0810    1.8236    0.7331 H   0  0  0  0  0  0  0  0  0  0  0  0
   -2.7473    1.1731   -0.8100 H   0  0  0  0  0  0  0  0  0  0  0  0
    0.8374    0.7029    0.3293 H   0  0  0  0  0  0  0  0  0  0  0  0
    1.0915    2.3017   -0.7790 H   0  0  0  0  0  0  0  0  0  0  0  0
    0.1770    2.5075    0.7353 H   0  0  0  0  0  0  0  0  0  0  0  0
  1  2  1  0
  1  4  1  0
  2  3  2  3
  3  5  1  0
  3 17  1  0
  6  7  2  3
  6 12  1  0
  6 13  1  0
  7  8  1  0
  7 14  1  0
  8  9  1  0
  9 10  1  0
  9 15  1  0
  9 16  1  0
 10 11  1  0
 11 18  1  0
 11 19  1  0
M  RAD  1  11   2
M  END
>  <reaction>  (6) 
rmg_rxn_15477

>  <mol_properties>  (6) 
{"1": {"label": "*4", "atom_type": "N3d"}, "2": {"label": "*3", "atom_type": "Cd"}, "9": {"label": "*0", "atom_type": "O2s"}, "10": {"label": "*1", "atom_type": "Cs"}, "16": {"label": "*2", "atom_type": "H0"}}

>  <type>  (6) 
unop_2

>  <geom_source>  (6) 
Heuristics

$$$$

     RDKit          3D

 19 17  0  0  0  0  0  0  0  0999 V2000
    2.2461   -2.2506    0.5564 O   0  0  0  0  0  0  0  0  0  0  0  0
    1.4001   -1.2069    0.2370 N   0  0  0  0  0  0  0  0  0  0  0  0
    1.6221   -0.1858    0.9452 C   0  0  0  0  0  0  0  0  0  0  0  0
    1.9747   -2.9479   -0.0437 H   0  0  0  0  0  0  0  0  0  0  0  0
    2.3954   -0.1590    1.7100 H   0  0  0  0  0  0  0  0  0  0  0  0
   -1.3822   -0.9233   -1.5751 C   0  0  0  0  0  0  0  0  0  0  0  0
   -1.3822   -0.9233   -0.2493 C   0  0  0  0  0  0  0  0  0  0  0  0
   -1.3822    0.1396    0.5918 O   0  0  0  0  0  0  0  0  0  0  0  0
   -1.5743    1.4208    0.0407 C   0  0  0  0  0  0  0  0  0  0  0  0
   -0.5009    1.8870   -0.6960 O   0  0  0  0  0  0  0  0  0  0  0  0
    0.6756    2.0791    0.0587 C   0  0  0  0  0  3  0  0  0  0  0  0
   -1.3326   -0.0230   -2.1697 H   0  0  0  0  0  0  0  0  0  0  0  0
   -1.4107   -1.8735   -2.0884 H   0  0  0  0  0  0  0  0  0  0  0  0
   -1.3854   -1.8435    0.3226 H   0  0  0  0  0  0  0  0  0  0  0  0
   -1.7671    2.0615    0.9081 H   0  0  0  0  0  0  0  0  0  0  0  0
   -2.4334    1.4110   -0.6350 H   0  0  0  0  0  0  0  0  0  0  0  0
    1.1512    0.9408    0.5042 H   0  0  0  0  0  0  0  0  0  0  0  0
    1.4054    2.5396   -0.6040 H   0  0  0  0  0  0  0  0  0  0  0  0
    0.4908    2.7453    0.9102 H   0  0  0  0  0  0  0  0  0  0  0  0
  1  2  1  0
  1  4  1  0
  2  3  2  3
  3  5  1  0
  3 17  1  0
  6  7  2  3
  6 12  1  0
  6 13  1  0
  7  8  1  0
  7 14  1  0
  8  9  1  0
  9 10  1  0
  9 15  1  0
  9 16  1  0
 10 11  1  0
 11 18  1  0
 11 19  1  0
M  RAD  1  11   2
M  END
>  <reaction>  (7) 
rmg_rxn_15477

>  <mol_properties>  (7) 
{"1": {"label": "*4", "atom_type": "N3d"}, "2": {"label": "*3", "atom_type": "Cd"}, "9": {"label": "*0", "atom_type": "O2s"}, "10": {"label": "*1", "atom_type": "Cs"}, "16": {"label": "*2", "atom_type": "H0"}}

>  <type>  (7) 
unop_3

>  <geom_source>  (7) 
Heuristics

$$$$

     RDKit          3D

 19 17  0  0  0  0  0  0  0  0999 V2000
    2.9394   -1.3234    1.8578 O   0  0  0  0  0  0  0  0  0  0  0  0
    2.5935   -0.5082    0.7982 N   0  0  0  0  0  0  0  0  0  0  0  0
    1.3425   -0.4403    0.6437 C   0  0  0  0  0  0  0  0  0  0  0  0
    3.8979   -1.2865    1.8626 H   0  0  0  0  0  0  0  0  0  0  0  0
    0.6425   -0.9721    1.2847 H   0  0  0  0  0  0  0  0  0  0  0  0
   -1.6618   -1.1779   -1.8766 C   0  0  0  0  0  0  0  0  0  0  0  0
   -1.6618   -1.1779   -0.5508 C   0  0  0  0  0  0  0  0  0  0  0  0
   -1.6618   -0.1150    0.2903 O   0  0  0  0  0  0  0  0  0  0  0  0
   -1.8539    1.1663   -0.2608 C   0  0  0  0  0  0  0  0  0  0  0  0
   -0.7804    1.6325   -0.9975 O   0  0  0  0  0  0  0  0  0  0  0  0
    0.3960    1.8245   -0.2428 C   0  0  0  0  0  3  0  0  0  0  0  0
   -1.6121   -0.2776   -2.4712 H   0  0  0  0  0  0  0  0  0  0  0  0
   -1.6903   -2.1280   -2.3899 H   0  0  0  0  0  0  0  0  0  0  0  0
   -1.6650   -2.0980    0.0211 H   0  0  0  0  0  0  0  0  0  0  0  0
   -2.0467    1.8069    0.6066 H   0  0  0  0  0  0  0  0  0  0  0  0
   -2.7130    1.1565   -0.9365 H   0  0  0  0  0  0  0  0  0  0  0  0
    0.8717    0.6863    0.2027 H   0  0  0  0  0  0  0  0  0  0  0  0
    1.1258    2.2850   -0.9055 H   0  0  0  0  0  0  0  0  0  0  0  0
    0.2112    2.4908    0.6087 H   0  0  0  0  0  0  0  0  0  0  0  0
  1  2  1  0
  1  4  1  0
  2  3  2  3
  3  5  1  0
  3 17  1  0
  6  7  2  3
  6 12  1  0
  6 13  1  0
  7  8  1  0
  7 14  1  0
  8  9  1  0
  9 10  1  0
  9 15  1  0
  9 16  1  0
 10 11  1  0
 11 18  1  0
 11 19  1  0
M  RAD  1  11   2
M  END
>  <reaction>  (8) 
rmg_rxn_15477

>  <mol_properties>  (8) 
{"1": {"label": "*4", "atom_type": "N3d"}, "2": {"label": "*3", "atom_type": "Cd"}, "9": {"label": "*0", "atom_type": "O2s"}, "10": {"label": "*1", "atom_type": "Cs"}, "16": {"label": "*2", "atom_type": "H0"}}

>  <type>  (8) 
unop_4

>  <geom_source>  (8) 
Heuristics

$$$$

     RDKit          3D

 19 17  0  0  0  0  0  0  0  0999 V2000
    1.7225   -1.7028    2.2115 O   0  0  0  0  0  0  0  0  0  0  0  0
    1.0089   -0.9829    1.2737 N   0  0  0  0  0  0  0  0  0  0  0  0
    1.7654   -0.3110    0.5188 C   0  0  0  0  0  0  0  0  0  0  0  0
    1.0398   -2.1579    2.7085 H   0  0  0  0  0  0  0  0  0  0  0  0
    2.8488   -0.3173    0.6179 H   0  0  0  0  0  0  0  0  0  0  0  0
   -1.2389   -1.0486   -2.0015 C   0  0  0  0  0  0  0  0  0  0  0  0
   -1.2389   -1.0486   -0.6757 C   0  0  0  0  0  0  0  0  0  0  0  0
   -1.2389    0.0143    0.1654 O   0  0  0  0  0  0  0  0  0  0  0  0
   -1.4310    1.2955   -0.3857 C   0  0  0  0  0  0  0  0  0  0  0  0
   -0.3575    1.7617   -1.1224 O   0  0  0  0  0  0  0  0  0  0  0  0
    0.8189    1.9538   -0.3677 C   0  0  0  0  0  3  0  0  0  0  0  0
   -1.1893   -0.1483   -2.5961 H   0  0  0  0  0  0  0  0  0  0  0  0
   -1.2674   -1.9987   -2.5148 H   0  0  0  0  0  0  0  0  0  0  0  0
   -1.2421   -1.9688   -0.1038 H   0  0  0  0  0  0  0  0  0  0  0  0
   -1.6238    1.9362    0.4817 H   0  0  0  0  0  0  0  0  0  0  0  0
   -2.2901    1.2857   -1.0614 H   0  0  0  0  0  0  0  0  0  0  0  0
    1.2946    0.8155    0.0778 H   0  0  0  0  0  0  0  0  0  0  0  0
    1.5487    2.4143   -1.0304 H   0  0  0  0  0  0  0  0  0  0  0  0
    0.6341    2.6201    0.4838 H   0  0  0  0  0  0  0  0  0  0  0  0
  1  2  1  0
  1  4  1  0
  2  3  2  3
  3  5  1  0
  3 17  1  0
  6  7  2  3
  6 12  1  0
  6 13  1  0
  7  8  1  0
  7 14  1  0
  8  9  1  0
  9 10  1  0
  9 15  1  0
  9 16  1  0
 10 11  1  0
 11 18  1  0
 11 19  1  0
M  RAD  1  11   2
M  END
>  <reaction>  (9) 
rmg_rxn_15477

>  <mol_properties>  (9) 
{"1": {"label": "*4", "atom_type": "N3d"}, "2": {"label": "*3", "atom_type": "Cd"}, "9": {"label": "*0", "atom_type": "O2s"}, "10": {"label": "*1", "atom_type": "Cs"}, "16": {"label": "*2", "atom_type": "H0"}}

>  <type>  (9) 
unop_5

>  <geom_source>  (9) 
Heuristics

$$$$

     RDKit          3D

 19 17  0  0  0  0  0  0  0  0999 V2000
    3.4714   -0.4777    0.1652 O   0  0  0  0  0  0  0  0  0  0  0  0
    2.3694    0.4000    0.1874 N   0  0  0  0  0  0  0  0  0  0  0  0
    1.5089    0.3438   -0.6985 C   0  0  0  0  0  0  0  0  0  0  0  0
    3.9833   -0.2387    0.9503 H   0  0  0  0  0  0  0  0  0  0  0  0
    1.4316   -0.3157   -1.5540 H   0  0  0  0  0  0  0  0  0  0  0  0
   -1.5473   -1.7906   -1.0063 C   0  0  0  0  0  0  0  0  0  0  0  0
   -0.9142   -1.6208    0.1405 C   0  0  0  0  0  0  0  0  0  0  0  0
   -1.0150   -0.5763    1.0142 O   0  0  0  0  0  0  0  0  0  0  0  0
   -1.9633    0.4149    0.7513 C   0  0  0  0  0  0  0  0  0  0  0  0
   -1.6992    1.1868   -0.3789 O   0  0  0  0  0  0  0  0  0  0  0  0
   -0.5419    1.9563   -0.3180 C   0  0  0  0  0  3  0  0  0  0  0  0
   -2.2344   -1.0684   -1.4089 H   0  0  0  0  0  0  0  0  0  0  0  0
   -1.3731   -2.6760   -1.5882 H   0  0  0  0  0  0  0  0  0  0  0  0
   -0.2035   -2.3362    0.5303 H   0  0  0  0  0  0  0  0  0  0  0  0
   -1.9703    1.0384    1.6590 H   0  0  0  0  0  0  0  0  0  0  0  0
   -2.9572   -0.0233    0.5829 H   0  0  0  0  0  0  0  0  0  0  0  0
    0.5208    1.1713   -0.5188 H   0  0  0  0  0  0  0  0  0  0  0  0
   -0.5582    2.6610   -1.1421 H   0  0  0  0  0  0  0  0  0  0  0  0
   -0.3787    2.4197    0.6547 H   0  0  0  0  0  0  0  0  0  0  0  0
  1  2  1  0
  1  4  1  0
  2  3  2  3
  3  5  1  0
  3 17  1  0
  6  7  2  3
  6 12  1  0
  6 13  1  0
  7  8  1  0
  7 14  1  0
  8  9  1  0
  9 10  1  0
  9 15  1  0
  9 16  1  0
 10 11  1  0
 11 18  1  0
 11 19  1  0
M  RAD  1  11   2
M  END
>  <reaction>  (10) 
rmg_rxn_15477

>  <mol_properties>  (10) 
{"1": {"label": "*4", "atom_type": "N3d"}, "2": {"label": "*3", "atom_type": "Cd"}, "9": {"label": "*0", "atom_type": "O2s"}, "10": {"label": "*1", "atom_type": "Cs"}, "16": {"label": "*2", "atom_type": "H0"}}

>  <type>  (10) 
unop_6

>  <geom_source>  (10) 
Heuristics

$$$$

     RDKit          3D

 19 17  0  0  0  0  0  0  0  0999 V2000
    2.8497   -1.6015    1.7117 O   0  0  0  0  0  0  0  0  0  0  0  0
    2.4346   -0.3526    1.2934 N   0  0  0  0  0  0  0  0  0  0  0  0
    1.3793   -0.4125    0.6033 C   0  0  0  0  0  0  0  0  0  0  0  0
    3.6445   -1.4142    2.2149 H   0  0  0  0  0  0  0  0  0  0  0  0
    0.8769   -1.3514    0.3800 H   0  0  0  0  0  0  0  0  0  0  0  0
   -1.6250   -1.1501   -1.9170 C   0  0  0  0  0  0  0  0  0  0  0  0
   -1.6250   -1.1501   -0.5912 C   0  0  0  0  0  0  0  0  0  0  0  0
   -1.6250   -0.0872    0.2499 O   0  0  0  0  0  0  0  0  0  0  0  0
   -1.8171    1.1940   -0.3011 C   0  0  0  0  0  0  0  0  0  0  0  0
   -0.7437    1.6602   -1.0379 O   0  0  0  0  0  0  0  0  0  0  0  0
    0.4327    1.8523   -0.2832 C   0  0  0  0  0  3  0  0  0  0  0  0
   -1.5754   -0.2498   -2.5116 H   0  0  0  0  0  0  0  0  0  0  0  0
   -1.6535   -2.1002   -2.4303 H   0  0  0  0  0  0  0  0  0  0  0  0
   -1.6282   -2.0703   -0.0192 H   0  0  0  0  0  0  0  0  0  0  0  0
   -2.0099    1.8347    0.5662 H   0  0  0  0  0  0  0  0  0  0  0  0
   -2.6762    1.1842   -0.9769 H   0  0  0  0  0  0  0  0  0  0  0  0
    0.9084    0.7140    0.1624 H   0  0  0  0  0  0  0  0  0  0  0  0
    1.1626    2.3128   -0.9459 H   0  0  0  0  0  0  0  0  0  0  0  0
    0.2480    2.5186    0.5684 H   0  0  0  0  0  0  0  0  0  0  0  0
  1  2  1  0
  1  4  1  0
  2  3  2  3
  3  5  1  0
  3 17  1  0
  6  7  2  3
  6 12  1  0
  6 13  1  0
  7  8  1  0
  7 14  1  0
  8  9  1  0
  9 10  1  0
  9 15  1  0
  9 16  1  0
 10 11  1  0
 11 18  1  0
 11 19  1  0
M  RAD  1  11   2
M  END
>  <reaction>  (11) 
rmg_rxn_15477

>  <mol_properties>  (11) 
{"1": {"label": "*4", "atom_type": "N3d"}, "2": {"label": "*3", "atom_type": "Cd"}, "9": {"label": "*0", "atom_type": "O2s"}, "10": {"label": "*1", "atom_type": "Cs"}, "16": {"label": "*2", "atom_type": "H0"}}

>  <type>  (11) 
unop_7

>  <geom_source>  (11) 
Heuristics

$$$$

     RDKit          3D

 19 17  0  0  0  0  0  0  0  0999 V2000
    3.4641   -0.4774    0.1657 O   0  0  0  0  0  0  0  0  0  0  0  0
    2.3628    0.4012    0.1877 N   0  0  0  0  0  0  0  0  0  0  0  0
    1.5073    0.3520   -0.7035 C   0  0  0  0  0  0  0  0  0  0  0  0
    3.9715   -0.2445    0.9556 H   0  0  0  0  0  0  0  0  0  0  0  0
    1.4344   -0.3016   -1.5639 H   0  0  0  0  0  0  0  0  0  0  0  0
   -1.5463   -1.7928   -1.0054 C   0  0  0  0  0  0  0  0  0  0  0  0
   -0.9058   -1.6212    0.1370 C   0  0  0  0  0  0  0  0  0  0  0  0
   -1.0051   -0.5781    1.0125 O   0  0  0  0  0  0  0  0  0  0  0  0
   -1.9577    0.4107    0.7560 C   0  0  0  0  0  0  0  0  0  0  0  0
   -1.7019    1.1843   -0.3750 O   0  0  0  0  0  0  0  0  0  0  0  0
   -0.5475    1.9584   -0.3188 C   0  0  0  0  0  3  0  0  0  0  0  0
   -2.2394   -1.0734   -1.4026 H   0  0  0  0  0  0  0  0  0  0  0  0
   -1.3723   -2.6769   -1.5893 H   0  0  0  0  0  0  0  0  0  0  0  0
   -0.1890   -2.3336    0.5210 H   0  0  0  0  0  0  0  0  0  0  0  0
   -1.9613    1.0333    1.6642 H   0  0  0  0  0  0  0  0  0  0  0  0
   -2.9513   -0.0302    0.5927 H   0  0  0  0  0  0  0  0  0  0  0  0
    0.5177    1.1774   -0.5223 H   0  0  0  0  0  0  0  0  0  0  0  0
   -0.5694    2.6622   -1.1435 H   0  0  0  0  0  0  0  0  0  0  0  0
   -0.3827    2.4233    0.6528 H   0  0  0  0  0  0  0  0  0  0  0  0
  1  2  1  0
  1  4  1  0
  2  3  2  3
  3  5  1  0
  3 17  1  0
  6  7  2  3
  6 12  1  0
  6 13  1  0
  7  8  1  0
  7 14  1  0
  8  9  1  0
  9 10  1  0
  9 15  1  0
  9 16  1  0
 10 11  1  0
 11 18  1  0
 11 19  1  0
M  RAD  1  11   2
M  END
>  <reaction>  (12) 
rmg_rxn_15477

>  <mol_properties>  (12) 
{"1": {"label": "*4", "atom_type": "N3d"}, "2": {"label": "*3", "atom_type": "Cd"}, "9": {"label": "*0", "atom_type": "O2s"}, "10": {"label": "*1", "atom_type": "Cs"}, "16": {"label": "*2", "atom_type": "H0"}}

>  <type>  (12) 
unop_8

>  <geom_source>  (12) 
Heuristics

$$$$

     RDKit          3D

 19 17  0  0  0  0  0  0  0  0999 V2000
    2.2440   -1.3282    2.3482 O   0  0  0  0  0  0  0  0  0  0  0  0
    1.2307   -0.7848    1.5834 N   0  0  0  0  0  0  0  0  0  0  0  0
    1.6450   -0.4027    0.4538 C   0  0  0  0  0  0  0  0  0  0  0  0
    1.8007   -1.5721    3.1631 H   0  0  0  0  0  0  0  0  0  0  0  0
    2.6835   -0.5020    0.1455 H   0  0  0  0  0  0  0  0  0  0  0  0
   -1.3593   -1.1403   -2.0665 C   0  0  0  0  0  0  0  0  0  0  0  0
   -1.3593   -1.1403   -0.7407 C   0  0  0  0  0  0  0  0  0  0  0  0
   -1.3593   -0.0774    0.1004 O   0  0  0  0  0  0  0  0  0  0  0  0
   -1.5514    1.2039   -0.4507 C   0  0  0  0  0  0  0  0  0  0  0  0
   -0.4780    1.6701   -1.1874 O   0  0  0  0  0  0  0  0  0  0  0  0
    0.6984    1.8622   -0.4327 C   0  0  0  0  0  3  0  0  0  0  0  0
   -1.3097   -0.2399   -2.6611 H   0  0  0  0  0  0  0  0  0  0  0  0
   -1.3878   -2.0904   -2.5798 H   0  0  0  0  0  0  0  0  0  0  0  0
   -1.3625   -2.0604   -0.1688 H   0  0  0  0  0  0  0  0  0  0  0  0
   -1.7442    1.8445    0.4167 H   0  0  0  0  0  0  0  0  0  0  0  0
   -2.4105    1.1941   -1.1264 H   0  0  0  0  0  0  0  0  0  0  0  0
    1.1741    0.7239    0.0128 H   0  0  0  0  0  0  0  0  0  0  0  0
    1.4283    2.3226   -1.0954 H   0  0  0  0  0  0  0  0  0  0  0  0
    0.5137    2.5284    0.4188 H   0  0  0  0  0  0  0  0  0  0  0  0
  1  2  1  0
  1  4  1  0
  2  3  2  3
  3  5  1  0
  3 17  1  0
  6  7  2  3
  6 12  1  0
  6 13  1  0
  7  8  1  0
  7 14  1  0
  8  9  1  0
  9 10  1  0
  9 15  1  0
  9 16  1  0
 10 11  1  0
 11 18  1  0
 11 19  1  0
M  RAD  1  11   2
M  END
>  <reaction>  (13) 
rmg_rxn_15477

>  <mol_properties>  (13) 
{"1": {"label": "*4", "atom_type": "N3d"}, "2": {"label": "*3", "atom_type": "Cd"}, "9": {"label": "*0", "atom_type": "O2s"}, "10": {"label": "*1", "atom_type": "Cs"}, "16": {"label": "*2", "atom_type": "H0"}}

>  <type>  (13) 
unop_9

>  <geom_source>  (13) 
Heuristics

$$$$

     RDKit          3D

 19 17  0  0  0  0  0  0  0  0999 V2000
    3.4797   -0.4901   -0.1640 O   0  0  0  0  0  0  0  0  0  0  0  0
    2.3820    0.3932   -0.1804 N   0  0  0  0  0  0  0  0  0  0  0  0
    1.5117    0.3233    0.6949 C   0  0  0  0  0  0  0  0  0  0  0  0
    4.0013   -0.2377   -0.9385 H   0  0  0  0  0  0  0  0  0  0  0  0
    1.4219   -0.3530    1.5359 H   0  0  0  0  0  0  0  0  0  0  0  0
   -1.5859   -1.7822    1.0008 C   0  0  0  0  0  0  0  0  0  0  0  0
   -0.9391   -1.6198   -0.1394 C   0  0  0  0  0  0  0  0  0  0  0  0
   -1.0166   -0.5729   -1.0126 O   0  0  0  0  0  0  0  0  0  0  0  0
   -1.9537    0.4310   -0.7576 C   0  0  0  0  0  0  0  0  0  0  0  0
   -1.6896    1.1973    0.3763 O   0  0  0  0  0  0  0  0  0  0  0  0
   -0.5249    1.9562    0.3247 C   0  0  0  0  0  3  0  0  0  0  0  0
   -2.2669   -1.0511    1.3974 H   0  0  0  0  0  0  0  0  0  0  0  0
   -1.4301   -2.6708    1.5830 H   0  0  0  0  0  0  0  0  0  0  0  0
   -0.2343   -2.3444   -0.5230 H   0  0  0  0  0  0  0  0  0  0  0  0
   -2.9550    0.0060   -0.5994 H   0  0  0  0  0  0  0  0  0  0  0  0
   -1.9434    1.0557   -1.6643 H   0  0  0  0  0  0  0  0  0  0  0  0
    0.5301    1.1599    0.5215 H   0  0  0  0  0  0  0  0  0  0  0  0
   -0.3548    2.4259   -0.6438 H   0  0  0  0  0  0  0  0  0  0  0  0
   -0.5369    2.6544    1.1543 H   0  0  0  0  0  0  0  0  0  0  0  0
  1  2  1  0
  1  4  1  0
  2  3  2  3
  3  5  1  0
  3 17  1  0
  6  7  2  3
  6 12  1  0
  6 13  1  0
  7  8  1  0
  7 14  1  0
  8  9  1  0
  9 10  1  0
  9 15  1  0
  9 16  1  0
 10 11  1  0
 11 18  1  0
 11 19  1  0
M  RAD  1  11   2
M  END
>  <reaction>  (14) 
rmg_rxn_15477

>  <mol_properties>  (14) 
{"1": {"label": "*4", "atom_type": "N3d"}, "2": {"label": "*3", "atom_type": "Cd"}, "9": {"label": "*0", "atom_type": "O2s"}, "10": {"label": "*1", "atom_type": "Cs"}, "16": {"label": "*2", "atom_type": "H0"}}

>  <type>  (14) 
unop_10

>  <geom_source>  (14) 
Heuristics

$$$$

     RDKit          3D

 19 17  0  0  0  0  0  0  0  0999 V2000
    2.7863   -1.1708    2.1035 O   0  0  0  0  0  0  0  0  0  0  0  0
    1.5958   -0.5790    1.7299 N   0  0  0  0  0  0  0  0  0  0  0  0
    1.5019   -0.4575    0.4770 C   0  0  0  0  0  0  0  0  0  0  0  0
    2.7282   -1.2015    3.0605 H   0  0  0  0  0  0  0  0  0  0  0  0
    2.2823   -0.7889   -0.2047 H   0  0  0  0  0  0  0  0  0  0  0  0
   -1.5024   -1.1951   -2.0434 C   0  0  0  0  0  0  0  0  0  0  0  0
   -1.5024   -1.1951   -0.7176 C   0  0  0  0  0  0  0  0  0  0  0  0
   -1.5024   -0.1322    0.1235 O   0  0  0  0  0  0  0  0  0  0  0  0
   -1.6945    1.1491   -0.4275 C   0  0  0  0  0  0  0  0  0  0  0  0
   -0.6210    1.6153   -1.1643 O   0  0  0  0  0  0  0  0  0  0  0  0
    0.5554    1.8073   -0.4096 C   0  0  0  0  0  3  0  0  0  0  0  0
   -1.4528   -0.2948   -2.6380 H   0  0  0  0  0  0  0  0  0  0  0  0
   -1.5309   -2.1452   -2.5567 H   0  0  0  0  0  0  0  0  0  0  0  0
   -1.5056   -2.1152   -0.1456 H   0  0  0  0  0  0  0  0  0  0  0  0
   -1.8873    1.7897    0.4398 H   0  0  0  0  0  0  0  0  0  0  0  0
   -2.5536    1.1393   -1.1032 H   0  0  0  0  0  0  0  0  0  0  0  0
    1.0311    0.6691    0.0360 H   0  0  0  0  0  0  0  0  0  0  0  0
    1.2852    2.2678   -1.0722 H   0  0  0  0  0  0  0  0  0  0  0  0
    0.3706    2.4736    0.4420 H   0  0  0  0  0  0  0  0  0  0  0  0
  1  2  1  0
  1  4  1  0
  2  3  2  3
  3  5  1  0
  3 17  1  0
  6  7  2  3
  6 12  1  0
  6 13  1  0
  7  8  1  0
  7 14  1  0
  8  9  1  0
  9 10  1  0
  9 15  1  0
  9 16  1  0
 10 11  1  0
 11 18  1  0
 11 19  1  0
M  RAD  1  11   2
M  END
>  <reaction>  (15) 
rmg_rxn_15477

>  <mol_properties>  (15) 
{"1": {"label": "*4", "atom_type": "N3d"}, "2": {"label": "*3", "atom_type": "Cd"}, "9": {"label": "*0", "atom_type": "O2s"}, "10": {"label": "*1", "atom_type": "Cs"}, "16": {"label": "*2", "atom_type": "H0"}}

>  <type>  (15) 
unop_11

>  <geom_source>  (15) 
Heuristics

$$$$

     RDKit          3D

 19 17  0  0  0  0  0  0  0  0999 V2000
    3.2172   -1.4984    0.8744 O   0  0  0  0  0  0  0  0  0  0  0  0
    2.1740   -0.9497    0.1550 N   0  0  0  0  0  0  0  0  0  0  0  0
    1.3498   -0.3511    0.9007 C   0  0  0  0  0  0  0  0  0  0  0  0
    3.7576   -1.9142    0.1998 H   0  0  0  0  0  0  0  0  0  0  0  0
    1.4720   -0.2902    1.9800 H   0  0  0  0  0  0  0  0  0  0  0  0
   -1.6544   -1.0887   -1.6197 C   0  0  0  0  0  0  0  0  0  0  0  0
   -1.6544   -1.0887   -0.2938 C   0  0  0  0  0  0  0  0  0  0  0  0
   -1.6544   -0.0258    0.5473 O   0  0  0  0  0  0  0  0  0  0  0  0
   -1.8466    1.2555   -0.0038 C   0  0  0  0  0  0  0  0  0  0  0  0
   -0.7731    1.7217   -0.7405 O   0  0  0  0  0  0  0  0  0  0  0  0
    0.4033    1.9137    0.0142 C   0  0  0  0  0  3  0  0  0  0  0  0
   -1.6048   -0.1883   -2.2142 H   0  0  0  0  0  0  0  0  0  0  0  0
   -1.6829   -2.0388   -2.1330 H   0  0  0  0  0  0  0  0  0  0  0  0
   -1.6576   -2.0088    0.2781 H   0  0  0  0  0  0  0  0  0  0  0  0
   -2.0393    1.8961    0.8636 H   0  0  0  0  0  0  0  0  0  0  0  0
   -2.7056    1.2457   -0.6795 H   0  0  0  0  0  0  0  0  0  0  0  0
    0.8790    0.7755    0.4597 H   0  0  0  0  0  0  0  0  0  0  0  0
    1.1332    2.3742   -0.6485 H   0  0  0  0  0  0  0  0  0  0  0  0
    0.2186    2.5800    0.8657 H   0  0  0  0  0  0  0  0  0  0  0  0
  1  2  1  0
  1  4  1  0
  2  3  2  3
  3  5  1  0
  3 17  1  0
  6  7  2  3
  6 12  1  0
  6 13  1  0
  7  8  1  0
  7 14  1  0
  8  9  1  0
  9 10  1  0
  9 15  1  0
  9 16  1  0
 10 11  1  0
 11 18  1  0
 11 19  1  0
M  RAD  1  11   2
M  END
>  <reaction>  (16) 
rmg_rxn_15477

>  <mol_properties>  (16) 
{"1": {"label": "*4", "atom_type": "N3d"}, "2": {"label": "*3", "atom_type": "Cd"}, "9": {"label": "*0", "atom_type": "O2s"}, "10": {"label": "*1", "atom_type": "Cs"}, "16": {"label": "*2", "atom_type": "H0"}}

>  <type>  (16) 
unop_12

>  <geom_source>  (16) 
Heuristics

$$$$

     RDKit          3D

 19 17  0  0  0  0  0  0  0  0999 V2000
    3.4819   -0.4888    0.1633 O   0  0  0  0  0  0  0  0  0  0  0  0
    2.3837    0.3940    0.1821 N   0  0  0  0  0  0  0  0  0  0  0  0
    1.5122    0.3242   -0.6921 C   0  0  0  0  0  0  0  0  0  0  0  0
    4.0046   -0.2366    0.9370 H   0  0  0  0  0  0  0  0  0  0  0  0
    1.4220   -0.3515   -1.5336 H   0  0  0  0  0  0  0  0  0  0  0  0
   -1.5788   -1.7838   -1.0020 C   0  0  0  0  0  0  0  0  0  0  0  0
   -0.9387   -1.6199    0.1417 C   0  0  0  0  0  0  0  0  0  0  0  0
   -1.0223   -0.5725    1.0138 O   0  0  0  0  0  0  0  0  0  0  0  0
   -1.9591    0.4302    0.7530 C   0  0  0  0  0  0  0  0  0  0  0  0
   -1.6895    1.1966   -0.3796 O   0  0  0  0  0  0  0  0  0  0  0  0
   -0.5254    1.9559   -0.3222 C   0  0  0  0  0  3  0  0  0  0  0  0
   -2.2583   -1.0537   -1.4031 H   0  0  0  0  0  0  0  0  0  0  0  0
   -1.4185   -2.6725   -1.5828 H   0  0  0  0  0  0  0  0  0  0  0  0
   -0.2355   -2.3436    0.5300 H   0  0  0  0  0  0  0  0  0  0  0  0
   -1.9547    1.0552    1.6596 H   0  0  0  0  0  0  0  0  0  0  0  0
   -2.9590    0.0040    0.5893 H   0  0  0  0  0  0  0  0  0  0  0  0
    0.5305    1.1602   -0.5176 H   0  0  0  0  0  0  0  0  0  0  0  0
   -0.5347    2.6560   -1.1503 H   0  0  0  0  0  0  0  0  0  0  0  0
   -0.3587    2.4234    0.6479 H   0  0  0  0  0  0  0  0  0  0  0  0
  1  2  1  0
  1  4  1  0
  2  3  2  3
  3  5  1  0
  3 17  1  0
  6  7  2  3
  6 12  1  0
  6 13  1  0
  7  8  1  0
  7 14  1  0
  8  9  1  0
  9 10  1  0
  9 15  1  0
  9 16  1  0
 10 11  1  0
 11 18  1  0
 11 19  1  0
M  RAD  1  11   2
M  END
>  <reaction>  (17) 
rmg_rxn_15477

>  <mol_properties>  (17) 
{"1": {"label": "*4", "atom_type": "N3d"}, "2": {"label": "*3", "atom_type": "Cd"}, "9": {"label": "*0", "atom_type": "O2s"}, "10": {"label": "*1", "atom_type": "Cs"}, "16": {"label": "*2", "atom_type": "H0"}}

>  <type>  (17) 
unop_13

>  <geom_source>  (17) 
Heuristics

$$$$

     RDKit          3D

 19 17  0  0  0  0  0  0  0  0999 V2000
    1.4883   -2.1181    1.7039 O   0  0  0  0  0  0  0  0  0  0  0  0
    0.9702   -1.1317    0.8880 N   0  0  0  0  0  0  0  0  0  0  0  0
    1.8113   -0.2188    0.6586 C   0  0  0  0  0  0  0  0  0  0  0  0
    0.7601   -2.7356    1.7956 H   0  0  0  0  0  0  0  0  0  0  0  0
    2.8190   -0.2331    1.0685 H   0  0  0  0  0  0  0  0  0  0  0  0
   -1.1929   -0.9564   -1.8617 C   0  0  0  0  0  0  0  0  0  0  0  0
   -1.1929   -0.9564   -0.5359 C   0  0  0  0  0  0  0  0  0  0  0  0
   -1.1929    0.1065    0.3052 O   0  0  0  0  0  0  0  0  0  0  0  0
   -1.3851    1.3877   -0.2459 C   0  0  0  0  0  0  0  0  0  0  0  0
   -0.3116    1.8539   -0.9826 O   0  0  0  0  0  0  0  0  0  0  0  0
    0.8648    2.0460   -0.2279 C   0  0  0  0  0  3  0  0  0  0  0  0
   -1.1433   -0.0561   -2.4563 H   0  0  0  0  0  0  0  0  0  0  0  0
   -1.2214   -1.9065   -2.3750 H   0  0  0  0  0  0  0  0  0  0  0  0
   -1.1961   -1.8766    0.0360 H   0  0  0  0  0  0  0  0  0  0  0  0
   -1.5778    2.0284    0.6215 H   0  0  0  0  0  0  0  0  0  0  0  0
   -2.2441    1.3779   -0.9216 H   0  0  0  0  0  0  0  0  0  0  0  0
    1.3405    0.9077    0.2176 H   0  0  0  0  0  0  0  0  0  0  0  0
    1.5947    2.5065   -0.8906 H   0  0  0  0  0  0  0  0  0  0  0  0
    0.6801    2.7123    0.6236 H   0  0  0  0  0  0  0  0  0  0  0  0
  1  2  1  0
  1  4  1  0
  2  3  2  3
  3  5  1  0
  3 17  1  0
  6  7  2  3
  6 12  1  0
  6 13  1  0
  7  8  1  0
  7 14  1  0
  8  9  1  0
  9 10  1  0
  9 15  1  0
  9 16  1  0
 10 11  1  0
 11 18  1  0
 11 19  1  0
M  RAD  1  11   2
M  END
>  <reaction>  (18) 
rmg_rxn_15477

>  <mol_properties>  (18) 
{"1": {"label": "*4", "atom_type": "N3d"}, "2": {"label": "*3", "atom_type": "Cd"}, "9": {"label": "*0", "atom_type": "O2s"}, "10": {"label": "*1", "atom_type": "Cs"}, "16": {"label": "*2", "atom_type": "H0"}}

>  <type>  (18) 
unop_14

>  <geom_source>  (18) 
Heuristics

$$$$

     RDKit          3D

 19 17  0  0  0  0  0  0  0  0999 V2000
    2.8456   -1.8992    0.5108 O   0  0  0  0  0  0  0  0  0  0  0  0
    1.7826   -1.1181    0.1021 N   0  0  0  0  0  0  0  0  0  0  0  0
    1.4667   -0.2588    0.9711 C   0  0  0  0  0  0  0  0  0  0  0  0
    2.9787   -2.4969   -0.2275 H   0  0  0  0  0  0  0  0  0  0  0  0
    1.9878   -0.1668    1.9217 H   0  0  0  0  0  0  0  0  0  0  0  0
   -1.5376   -0.9964   -1.5492 C   0  0  0  0  0  0  0  0  0  0  0  0
   -1.5376   -0.9964   -0.2234 C   0  0  0  0  0  0  0  0  0  0  0  0
   -1.5376    0.0665    0.6177 O   0  0  0  0  0  0  0  0  0  0  0  0
   -1.7297    1.3477    0.0666 C   0  0  0  0  0  0  0  0  0  0  0  0
   -0.6562    1.8140   -0.6701 O   0  0  0  0  0  0  0  0  0  0  0  0
    0.5202    2.0060    0.0846 C   0  0  0  0  0  3  0  0  0  0  0  0
   -1.4880   -0.0961   -2.1438 H   0  0  0  0  0  0  0  0  0  0  0  0
   -1.5661   -1.9465   -2.0625 H   0  0  0  0  0  0  0  0  0  0  0  0
   -1.5408   -1.9165    0.3485 H   0  0  0  0  0  0  0  0  0  0  0  0
   -1.9225    1.9884    0.9340 H   0  0  0  0  0  0  0  0  0  0  0  0
   -2.5888    1.3380   -0.6091 H   0  0  0  0  0  0  0  0  0  0  0  0
    0.9959    0.8678    0.5301 H   0  0  0  0  0  0  0  0  0  0  0  0
    1.2500    2.4665   -0.5781 H   0  0  0  0  0  0  0  0  0  0  0  0
    0.3354    2.6723    0.9361 H   0  0  0  0  0  0  0  0  0  0  0  0
  1  2  1  0
  1  4  1  0
  2  3  2  3
  3  5  1  0
  3 17  1  0
  6  7  2  3
  6 12  1  0
  6 13  1  0
  7  8  1  0
  7 14  1  0
  8  9  1  0
  9 10  1  0
  9 15  1  0
  9 16  1  0
 10 11  1  0
 11 18  1  0
 11 19  1  0
M  RAD  1  11   2
M  END
>  <reaction>  (19) 
rmg_rxn_15477

>  <mol_properties>  (19) 
{"1": {"label": "*4", "atom_type": "N3d"}, "2": {"label": "*3", "atom_type": "Cd"}, "9": {"label": "*0", "atom_type": "O2s"}, "10": {"label": "*1", "atom_type": "Cs"}, "16": {"label": "*2", "atom_type": "H0"}}

>  <type>  (19) 
unop_15

>  <geom_source>  (19) 
Heuristics

$$$$

     RDKit          3D

 19 17  0  0  0  0  0  0  0  0999 V2000
    3.0478   -1.3424    1.6936 O   0  0  0  0  0  0  0  0  0  0  0  0
    2.0303   -0.4097    1.6510 N   0  0  0  0  0  0  0  0  0  0  0  0
    1.3985   -0.4501    0.5589 C   0  0  0  0  0  0  0  0  0  0  0  0
    3.4378   -1.2061    2.5593 H   0  0  0  0  0  0  0  0  0  0  0  0
    1.6479   -1.1479   -0.2377 H   0  0  0  0  0  0  0  0  0  0  0  0
   -1.6058   -1.1877   -1.9614 C   0  0  0  0  0  0  0  0  0  0  0  0
   -1.6058   -1.1877   -0.6356 C   0  0  0  0  0  0  0  0  0  0  0  0
   -1.6058   -0.1248    0.2055 O   0  0  0  0  0  0  0  0  0  0  0  0
   -1.7979    1.1565   -0.3456 C   0  0  0  0  0  0  0  0  0  0  0  0
   -0.7244    1.6227   -1.0823 O   0  0  0  0  0  0  0  0  0  0  0  0
    0.4520    1.8147   -0.3276 C   0  0  0  0  0  3  0  0  0  0  0  0
   -1.5562   -0.2873   -2.5560 H   0  0  0  0  0  0  0  0  0  0  0  0
   -1.6343   -2.1378   -2.4747 H   0  0  0  0  0  0  0  0  0  0  0  0
   -1.6090   -2.1078   -0.0637 H   0  0  0  0  0  0  0  0  0  0  0  0
   -1.9907    1.7971    0.5218 H   0  0  0  0  0  0  0  0  0  0  0  0
   -2.6570    1.1467   -1.0213 H   0  0  0  0  0  0  0  0  0  0  0  0
    0.9277    0.6765    0.1179 H   0  0  0  0  0  0  0  0  0  0  0  0
    1.1818    2.2752   -0.9903 H   0  0  0  0  0  0  0  0  0  0  0  0
    0.2672    2.4810    0.5239 H   0  0  0  0  0  0  0  0  0  0  0  0
  1  2  1  0
  1  4  1  0
  2  3  2  3
  3  5  1  0
  3 17  1  0
  6  7  2  3
  6 12  1  0
  6 13  1  0
  7  8  1  0
  7 14  1  0
  8  9  1  0
  9 10  1  0
  9 15  1  0
  9 16  1  0
 10 11  1  0
 11 18  1  0
 11 19  1  0
M  RAD  1  11   2
M  END
>  <reaction>  (20) 
rmg_rxn_15477

>  <mol_properties>  (20) 
{"1": {"label": "*4", "atom_type": "N3d"}, "2": {"label": "*3", "atom_type": "Cd"}, "9": {"label": "*0", "atom_type": "O2s"}, "10": {"label": "*1", "atom_type": "Cs"}, "16": {"label": "*2", "atom_type": "H0"}}

>  <type>  (20) 
unop_16

>  <geom_source>  (20) 
Heuristics

$$$$

     RDKit          3D

 19 17  0  0  0  0  0  0  0  0999 V2000
    1.6944   -2.3491    1.0351 O   0  0  0  0  0  0  0  0  0  0  0  0
    1.1112   -1.2090    0.5183 N   0  0  0  0  0  0  0  0  0  0  0  0
    1.7567   -0.1683    0.8244 C   0  0  0  0  0  0  0  0  0  0  0  0
    1.1149   -3.0513    0.7334 H   0  0  0  0  0  0  0  0  0  0  0  0
    2.6628   -0.1957    1.4259 H   0  0  0  0  0  0  0  0  0  0  0  0
   -1.2476   -0.9059   -1.6960 C   0  0  0  0  0  0  0  0  0  0  0  0
   -1.2476   -0.9059   -0.3702 C   0  0  0  0  0  0  0  0  0  0  0  0
   -1.2476    0.1570    0.4710 O   0  0  0  0  0  0  0  0  0  0  0  0
   -1.4397    1.4383   -0.0801 C   0  0  0  0  0  0  0  0  0  0  0  0
   -0.3663    1.9045   -0.8169 O   0  0  0  0  0  0  0  0  0  0  0  0
    0.8102    2.0965   -0.0621 C   0  0  0  0  0  3  0  0  0  0  0  0
   -1.1980   -0.0055   -2.2906 H   0  0  0  0  0  0  0  0  0  0  0  0
   -1.2761   -1.8560   -2.2093 H   0  0  0  0  0  0  0  0  0  0  0  0
   -1.2508   -1.8260    0.2018 H   0  0  0  0  0  0  0  0  0  0  0  0
   -1.6325    2.0789    0.7872 H   0  0  0  0  0  0  0  0  0  0  0  0
   -2.2988    1.4285   -0.7558 H   0  0  0  0  0  0  0  0  0  0  0  0
    1.2858    0.9583    0.3834 H   0  0  0  0  0  0  0  0  0  0  0  0
    1.5400    2.5570   -0.7248 H   0  0  0  0  0  0  0  0  0  0  0  0
    0.6254    2.7628    0.7894 H   0  0  0  0  0  0  0  0  0  0  0  0
  1  2  1  0
  1  4  1  0
  2  3  2  3
  3  5  1  0
  3 17  1  0
  6  7  2  3
  6 12  1  0
  6 13  1  0
  7  8  1  0
  7 14  1  0
  8  9  1  0
  9 10  1  0
  9 15  1  0
  9 16  1  0
 10 11  1  0
 11 18  1  0
 11 19  1  0
M  RAD  1  11   2
M  END
>  <reaction>  (21) 
rmg_rxn_15477

>  <mol_properties>  (21) 
{"1": {"label": "*4", "atom_type": "N3d"}, "2": {"label": "*3", "atom_type": "Cd"}, "9": {"label": "*0", "atom_type": "O2s"}, "10": {"label": "*1", "atom_type": "Cs"}, "16": {"label": "*2", "atom_type": "H0"}}

>  <type>  (21) 
unop_17

>  <geom_source>  (21) 
Heuristics

$$$$

     RDKit          3D

 19 17  0  0  0  0  0  0  0  0999 V2000
    0.1721    0.0234   -0.4237 O   0  0  0  0  0  0  0  0  0  0  0  0
    2.4800    0.0816   -0.5444 O   0  0  0  0  0  0  0  0  0  0  0  0
   -4.0860    0.3523    1.2636 O   0  0  0  0  0  0  0  0  0  0  0  0
   -4.0795   -0.3308    0.0712 N   0  0  0  0  0  0  0  0  0  0  0  0
    1.3409   -0.7667   -0.4765 C   0  0  0  0  0  0  0  0  0  0  0  0
   -0.9559   -0.8177   -0.3384 C   0  0  0  0  0  0  0  0  0  0  0  0
    2.8256    0.9320    0.5058 C   0  0  0  0  0  0  0  0  0  0  0  0
    3.8939    1.7116    0.4044 C   0  0  0  0  0  0  0  0  0  0  0  0
   -3.3019    0.0491   -0.8859 C   0  0  0  0  0  3  0  0  0  0  0  0
    1.3378   -1.4066   -1.3870 H   0  0  0  0  0  0  0  0  0  0  0  0
    1.4299   -1.4167    0.4246 H   0  0  0  0  0  0  0  0  0  0  0  0
   -1.9851   -0.1027   -0.3031 H   0  0  0  0  0  0  0  0  0  0  0  0
   -0.9363   -1.4243    0.5943 H   0  0  0  0  0  0  0  0  0  0  0  0
   -1.0360   -1.4780   -1.2306 H   0  0  0  0  0  0  0  0  0  0  0  0
    2.2254    0.9608    1.4079 H   0  0  0  0  0  0  0  0  0  0  0  0
    4.1644    2.3724    1.2176 H   0  0  0  0  0  0  0  0  0  0  0  0
    4.5036    1.6946   -0.4899 H   0  0  0  0  0  0  0  0  0  0  0  0
   -4.6960    0.0543    2.0143 H   0  0  0  0  0  0  0  0  0  0  0  0
   -3.2969   -0.4885   -1.8241 H   0  0  0  0  0  0  0  0  0  0  0  0
  1  6  1  0
  1  5  1  0
  2  7  1  0
  2  5  1  0
  3  4  1  0
  3 18  1  0
  4  9  2  3
  5 10  1  0
  5 11  1  0
  6 12  1  0
  6 13  1  0
  6 14  1  0
  7  8  2  3
  7 15  1  0
  8 16  1  0
  8 17  1  0
  9 19  1  0
M  RAD  1   9   2
M  END
>  <reaction>  (22) 
rmg_rxn_15477

>  <mol_properties>  (22) 
{"1": {"label": "*4", "atom_type": "N3d"}, "2": {"label": "*3", "atom_type": "Cd"}, "9": {"label": "*0", "atom_type": "O2s"}, "10": {"label": "*1", "atom_type": "Cs"}, "16": {"label": "*2", "atom_type": "H0"}}

>  <type>  (22) 
unop_18

>  <geom_source>  (22) 
AutoTST

$$$$

     RDKit          3D

 19 17  0  0  0  0  0  0  0  0999 V2000
    2.2461   -2.2506    0.5564 O   0  0  0  0  0  0  0  0  0  0  0  0
    1.4001   -1.2069    0.2370 N   0  0  0  0  0  0  0  0  0  0  0  0
    1.6221   -0.1858    0.9452 C   0  0  0  0  0  0  0  0  0  0  0  0
    1.9747   -2.9479   -0.0437 H   0  0  0  0  0  0  0  0  0  0  0  0
    2.3954   -0.1590    1.7100 H   0  0  0  0  0  0  0  0  0  0  0  0
   -1.3822   -0.9234   -1.5751 C   0  0  0  0  0  0  0  0  0  0  0  0
   -1.3822   -0.9234   -0.2493 C   0  0  0  0  0  0  0  0  0  0  0  0
   -1.3822    0.1396    0.5918 O   0  0  0  0  0  0  0  0  0  0  0  0
   -1.5743    1.4208    0.0408 C   0  0  0  0  0  0  0  0  0  0  0  0
   -0.5009    1.8870   -0.6960 O   0  0  0  0  0  0  0  0  0  0  0  0
    0.6756    2.0791    0.0587 C   0  0  0  0  0  3  0  0  0  0  0  0
   -1.3326   -0.0230   -2.1697 H   0  0  0  0  0  0  0  0  0  0  0  0
   -1.4107   -1.8735   -2.0884 H   0  0  0  0  0  0  0  0  0  0  0  0
   -1.3854   -1.8435    0.3226 H   0  0  0  0  0  0  0  0  0  0  0  0
   -1.7671    2.0615    0.9081 H   0  0  0  0  0  0  0  0  0  0  0  0
   -2.4334    1.4110   -0.6350 H   0  0  0  0  0  0  0  0  0  0  0  0
    1.1513    0.9408    0.5042 H   0  0  0  0  0  0  0  0  0  0  0  0
    1.4054    2.5396   -0.6040 H   0  0  0  0  0  0  0  0  0  0  0  0
    0.4908    2.7454    0.9103 H   0  0  0  0  0  0  0  0  0  0  0  0
  1  2  1  0
  1  4  1  0
  2  3  2  3
  3  5  1  0
  3 17  1  0
  6  7  2  3
  6 12  1  0
  6 13  1  0
  7  8  1  0
  7 14  1  0
  8  9  1  0
  9 10  1  0
  9 15  1  0
  9 16  1  0
 10 11  1  0
 11 18  1  0
 11 19  1  0
M  RAD  1  11   2
M  END
>  <reaction>  (23) 
rmg_rxn_15477

>  <mol_properties>  (23) 
{"1": {"label": "*4", "atom_type": "N3d"}, "2": {"label": "*3", "atom_type": "Cd"}, "9": {"label": "*0", "atom_type": "O2s"}, "10": {"label": "*1", "atom_type": "Cs"}, "16": {"label": "*2", "atom_type": "H0"}}

>  <type>  (23) 
unop_19

>  <geom_source>  (23) 
gaussian_log

$$$$
