
     RDKit          3D

 14 14  0  0  0  0  0  0  0  0999 V2000
   -1.1778    0.2241    0.1818 C   0  0  0  0  0  0  0  0  0  0  0  0
   -0.5633   -1.1636    0.0678 C   0  0  0  0  0  0  0  0  0  0  0  0
    0.6943   -1.1996    0.7146 O   0  0  0  0  0  0  0  0  0  0  0  0
    1.5547   -0.2288    0.2011 C   0  0  0  0  0  0  0  0  0  0  0  0
    1.0729    1.0696    0.3698 O   0  0  0  0  0  0  0  0  0  0  0  0
   -0.1607    1.2493   -0.2989 C   0  0  0  0  0  0  0  0  0  0  0  0
   -2.0927    0.2866   -0.4117 H   0  0  0  0  0  0  0  0  0  0  0  0
   -1.4303    0.4248    1.2248 H   0  0  0  0  0  0  0  0  0  0  0  0
   -1.1822   -1.9235    0.5431 H   0  0  0  0  0  0  0  0  0  0  0  0
   -0.4389   -1.4347   -0.9919 H   0  0  0  0  0  0  0  0  0  0  0  0
    1.7250   -0.4207   -0.8742 H   0  0  0  0  0  0  0  0  0  0  0  0
    2.4896   -0.3010    0.7524 H   0  0  0  0  0  0  0  0  0  0  0  0
   -0.0080    1.1481   -1.3844 H   0  0  0  0  0  0  0  0  0  0  0  0
   -0.4826    2.2695   -0.0942 H   0  0  0  0  0  0  0  0  0  0  0  0
  1  2  1  0
  1  6  1  0
  1  7  1  0
  1  8  1  0
  2  3  1  0
  2  9  1  0
  2 10  1  0
  3  4  1  0
  4  5  1  0
  4 11  1  0
  4 12  1  0
  5  6  1  0
  6 13  1  0
  6 14  1  0
M  END
>  <reaction>  (1) 
rmg_rxn_197

>  <mol_properties>  (1) 
{"0": {"label": "donator", "atom_type": "Cs"}, "6": {"label": "d_hydrogen", "atom_type": "H0"}}

>  <type>  (1) 
r1h

$$$$

     RDKit          3D

 13 12  0  0  0  0  0  0  0  0999 V2000
    2.0654   -0.2739   -0.0844 C   0  0  0  0  0  3  0  0  0  0  0  0
    0.6326   -0.4110   -0.4406 C   0  0  0  0  0  0  0  0  0  0  0  0
   -0.3055    0.4151    0.4359 C   0  0  0  0  0  0  0  0  0  0  0  0
   -1.7714    0.2357    0.0671 C   0  0  0  0  0  0  0  0  0  0  0  0
    2.3610    0.0676    0.8995 H   0  0  0  0  0  0  0  0  0  0  0  0
    2.8408   -0.6127   -0.7582 H   0  0  0  0  0  0  0  0  0  0  0  0
    0.3313   -1.4695   -0.3768 H   0  0  0  0  0  0  0  0  0  0  0  0
    0.4826   -0.1432   -1.4940 H   0  0  0  0  0  0  0  0  0  0  0  0
   -0.1518    0.1351    1.4826 H   0  0  0  0  0  0  0  0  0  0  0  0
   -0.0303    1.4705    0.3565 H   0  0  0  0  0  0  0  0  0  0  0  0
   -2.0768   -0.8084    0.1692 H   0  0  0  0  0  0  0  0  0  0  0  0
   -1.9546    0.5339   -0.9679 H   0  0  0  0  0  0  0  0  0  0  0  0
   -2.4194    0.8370    0.7066 H   0  0  0  0  0  0  0  0  0  0  0  0
  1  2  1  0
  1  5  1  0
  1  6  1  0
  2  3  1  0
  2  7  1  0
  2  8  1  0
  3  4  1  0
  3  9  1  0
  3 10  1  0
  4 11  1  0
  4 12  1  0
  4 13  1  0
M  RAD  1   1   2
M  END
>  <reaction>  (2) 
rmg_rxn_197

>  <mol_properties>  (2) 
{"0": {"label": "acceptor", "atom_type": "Cs"}}

>  <type>  (2) 
r2

$$$$

     RDKit          3D

 14 13  0  0  0  0  0  0  0  0999 V2000
    1.8106   -0.5953    0.5577 C   0  0  0  0  0  0  0  0  0  0  0  0
    0.5197    0.2064    0.6554 C   0  0  0  0  0  0  0  0  0  0  0  0
   -0.5206   -0.2080   -0.3788 C   0  0  0  0  0  0  0  0  0  0  0  0
   -1.8114    0.5937   -0.2812 C   0  0  0  0  0  0  0  0  0  0  0  0
    2.2725   -0.4752   -0.4251 H   0  0  0  0  0  0  0  0  0  0  0  0
    1.6214   -1.6612    0.7052 H   0  0  0  0  0  0  0  0  0  0  0  0
    2.5364   -0.2784    1.3084 H   0  0  0  0  0  0  0  0  0  0  0  0
    0.0930    0.0950    1.6574 H   0  0  0  0  0  0  0  0  0  0  0  0
    0.7393    1.2723    0.5354 H   0  0  0  0  0  0  0  0  0  0  0  0
   -0.7402   -1.2739   -0.2588 H   0  0  0  0  0  0  0  0  0  0  0  0
   -0.0938   -0.0965   -1.3808 H   0  0  0  0  0  0  0  0  0  0  0  0
   -1.6222    1.6596   -0.4287 H   0  0  0  0  0  0  0  0  0  0  0  0
   -2.2734    0.4736    0.7017 H   0  0  0  0  0  0  0  0  0  0  0  0
   -2.5373    0.2768   -1.0318 H   0  0  0  0  0  0  0  0  0  0  0  0
  1  2  1  0
  1  5  1  0
  1  6  1  0
  1  7  1  0
  2  3  1  0
  2  8  1  0
  2  9  1  0
  3  4  1  0
  3 10  1  0
  3 11  1  0
  4 12  1  0
  4 13  1  0
  4 14  1  0
M  END
>  <reaction>  (3) 
rmg_rxn_197

>  <mol_properties>  (3) 
{"0": {"label": "a_hydrogen", "atom_type": "H0"}, "1": {"label": "acceptor", "atom_type": "Cs"}}

>  <type>  (3) 
r2h

$$$$

     RDKit          3D

 27 26  0  0  0  0  0  0  0  0999 V2000
    0.8829    0.4960   -0.9884 C   0  0  0  0  0  3  0  0  0  0  0  0
   -0.2843    0.2617   -1.9130 C   0  0  0  0  0  0  0  0  0  0  0  0
   -0.7630    1.4978   -2.4271 O   0  0  0  0  0  0  0  0  0  0  0  0
   -1.0827    2.3799   -1.3938 C   0  0  0  0  0  0  0  0  0  0  0  0
    0.0101    2.6981   -0.5866 O   0  0  0  0  0  0  0  0  0  0  0  0
    0.5310    1.5348    0.0455 C   0  0  0  0  0  0  0  0  0  0  0  0
    1.0932   -0.6688   -0.3403 H   0  0  0  0  0  0  0  0  0  0  0  0
    1.8146    0.7048   -1.5116 H   0  0  0  0  0  0  0  0  0  0  0  0
   -0.0153   -0.3506   -2.7721 H   0  0  0  0  0  0  0  0  0  0  0  0
   -1.0994   -0.2426   -1.3704 H   0  0  0  0  0  0  0  0  0  0  0  0
   -1.8832    1.9399   -0.7707 H   0  0  0  0  0  0  0  0  0  0  0  0
   -1.4249    3.3047   -1.8535 H   0  0  0  0  0  0  0  0  0  0  0  0
   -0.2234    1.1367    0.7411 H   0  0  0  0  0  0  0  0  0  0  0  0
    1.3962    1.8545    0.6239 H   0  0  0  0  0  0  0  0  0  0  0  0
    1.1667   -1.8262    0.3287 C   0  0  0  0  0  0  0  0  0  0  0  0
    0.1585   -1.7638    1.4463 C   0  0  0  0  0  0  0  0  0  0  0  0
    0.0824   -3.0529    2.2666 C   0  0  0  0  0  0  0  0  0  0  0  0
   -0.9400   -2.9739    3.3926 C   0  0  0  0  0  0  0  0  0  0  0  0
    0.9508   -2.5732   -0.4351 H   0  0  0  0  0  0  0  0  0  0  0  0
    2.2059   -1.8768    0.6521 H   0  0  0  0  0  0  0  0  0  0  0  0
   -0.8340   -1.5477    1.0356 H   0  0  0  0  0  0  0  0  0  0  0  0
    0.4009   -0.9323    2.1161 H   0  0  0  0  0  0  0  0  0  0  0  0
   -0.1638   -3.8856    1.6010 H   0  0  0  0  0  0  0  0  0  0  0  0
    1.0714   -3.2724    2.6795 H   0  0  0  0  0  0  0  0  0  0  0  0
   -1.9414   -2.7829    2.9997 H   0  0  0  0  0  0  0  0  0  0  0  0
   -0.6970   -2.1657    4.0863 H   0  0  0  0  0  0  0  0  0  0  0  0
   -0.9768   -3.9034    3.9626 H   0  0  0  0  0  0  0  0  0  0  0  0
  1  2  1  0
  1  6  1  0
  1  8  1  0
  2  3  1  0
  2  9  1  0
  2 10  1  0
  3  4  1  0
  4  5  1  0
  4 11  1  0
  4 12  1  0
  5  6  1  0
  6 13  1  0
  6 14  1  0
  7 15  1  0
 15 16  1  0
 15 19  1  0
 15 20  1  0
 16 17  1  0
 16 21  1  0
 16 22  1  0
 17 18  1  0
 17 23  1  0
 17 24  1  0
 18 25  1  0
 18 26  1  0
 18 27  1  0
M  RAD  1   1   2
M  END
>  <reaction>  (4) 
rmg_rxn_197

>  <mol_properties>  (4) 
{"0": {"label": "*3", "atom_type": "Cs"}, "1": {"label": "*4", "atom_type": "Cs"}, "6": {"label": "*2", "atom_type": "H0"}, "14": {"label": "*1", "atom_type": "Cs"}, "15": {"label": "*0", "atom_type": "Cs"}}

>  <type>  (4) 
ts

$$$$

     RDKit          3D

 27 26  0  0  0  0  0  0  0  0999 V2000
    0.0550    0.6324   -0.4758 C   0  0  0  0  0  3  0  0  0  0  0  0
    0.0550    0.6324   -1.9979 C   0  0  0  0  0  0  0  0  0  0  0  0
    0.0550    1.9587   -2.4900 O   0  0  0  0  0  0  0  0  0  0  0  0
   -1.0278    2.6831   -1.9907 C   0  0  0  0  0  0  0  0  0  0  0  0
   -1.0165    2.7893   -0.5996 O   0  0  0  0  0  0  0  0  0  0  0  0
   -1.0844    1.5156    0.0123 C   0  0  0  0  0  0  0  0  0  0  0  0
   -0.0826   -0.5880   -0.0176 H   0  0  0  0  0  0  0  0  0  0  0  0
    1.0043    1.0309   -0.1128 H   0  0  0  0  0  0  0  0  0  0  0  0
    0.9408    0.1468   -2.4052 H   0  0  0  0  0  0  0  0  0  0  0  0
   -0.8325    0.1011   -2.3746 H   0  0  0  0  0  0  0  0  0  0  0  0
   -1.9704    2.2050   -2.3149 H   0  0  0  0  0  0  0  0  0  0  0  0
   -0.9555    3.6912   -2.3926 H   0  0  0  0  0  0  0  0  0  0  0  0
   -2.0521    1.0465   -0.2230 H   0  0  0  0  0  0  0  0  0  0  0  0
   -1.0391    1.6816    1.0877 H   0  0  0  0  0  0  0  0  0  0  0  0
   -0.2200   -1.8071    0.4402 C   0  0  0  0  0  0  0  0  0  0  0  0
    0.9681   -2.2186    1.2990 C   0  0  0  0  0  0  0  0  0  0  0  0
    0.5653   -3.0205    2.5312 C   0  0  0  0  0  0  0  0  0  0  0  0
    1.7534   -3.4320    3.3901 C   0  0  0  0  0  0  0  0  0  0  0  0
   -0.9184   -1.1886    1.0089 H   0  0  0  0  0  0  0  0  0  0  0  0
   -0.7684   -2.6830    0.0854 H   0  0  0  0  0  0  0  0  0  0  0  0
    1.5185   -1.3269    1.6161 H   0  0  0  0  0  0  0  0  0  0  0  0
    1.6674   -2.8103    0.6994 H   0  0  0  0  0  0  0  0  0  0  0  0
   -0.1340   -2.4288    3.1308 H   0  0  0  0  0  0  0  0  0  0  0  0
    0.0149   -3.9122    2.2142 H   0  0  0  0  0  0  0  0  0  0  0  0
    2.3019   -2.5561    3.7449 H   0  0  0  0  0  0  0  0  0  0  0  0
    2.4519   -4.0505    2.8214 H   0  0  0  0  0  0  0  0  0  0  0  0
    1.4368   -4.0037    4.2639 H   0  0  0  0  0  0  0  0  0  0  0  0
  1  2  1  0
  1  6  1  0
  1  8  1  0
  2  3  1  0
  2  9  1  0
  2 10  1  0
  3  4  1  0
  4  5  1  0
  4 11  1  0
  4 12  1  0
  5  6  1  0
  6 13  1  0
  6 14  1  0
  7 15  1  0
 15 16  1  0
 15 19  1  0
 15 20  1  0
 16 17  1  0
 16 21  1  0
 16 22  1  0
 17 18  1  0
 17 23  1  0
 17 24  1  0
 18 25  1  0
 18 26  1  0
 18 27  1  0
M  RAD  1   1   2
M  END
>  <reaction>  (5) 
rmg_rxn_197

>  <mol_properties>  (5) 
{"0": {"label": "*3", "atom_type": "Cs"}, "1": {"label": "*4", "atom_type": "Cs"}, "6": {"label": "*2", "atom_type": "H0"}, "14": {"label": "*1", "atom_type": "Cs"}, "15": {"label": "*0", "atom_type": "Cs"}}

>  <type>  (5) 
unop_1

>  <geom_source>  (5) 
Heuristics

$$$$

     RDKit          3D

 27 26  0  0  0  0  0  0  0  0999 V2000
    0.1555    0.9904    0.3668 C   0  0  0  0  0  3  0  0  0  0  0  0
    0.1555    0.9904   -1.1552 C   0  0  0  0  0  0  0  0  0  0  0  0
    0.1555    2.3167   -1.6473 O   0  0  0  0  0  0  0  0  0  0  0  0
   -0.9273    3.0411   -1.1480 C   0  0  0  0  0  0  0  0  0  0  0  0
   -0.9160    3.1473    0.2431 O   0  0  0  0  0  0  0  0  0  0  0  0
   -0.9839    1.8736    0.8549 C   0  0  0  0  0  0  0  0  0  0  0  0
    0.0180   -0.2300    0.8251 H   0  0  0  0  0  0  0  0  0  0  0  0
    1.1049    1.3889    0.7298 H   0  0  0  0  0  0  0  0  0  0  0  0
    1.0413    0.5048   -1.5625 H   0  0  0  0  0  0  0  0  0  0  0  0
   -0.7320    0.4591   -1.5319 H   0  0  0  0  0  0  0  0  0  0  0  0
   -1.8699    2.5630   -1.4722 H   0  0  0  0  0  0  0  0  0  0  0  0
   -0.8550    4.0492   -1.5500 H   0  0  0  0  0  0  0  0  0  0  0  0
   -1.9516    1.4045    0.6196 H   0  0  0  0  0  0  0  0  0  0  0  0
   -0.9386    2.0396    1.9304 H   0  0  0  0  0  0  0  0  0  0  0  0
   -0.1195   -1.4491    1.2828 C   0  0  0  0  0  0  0  0  0  0  0  0
    0.4777   -2.4747    0.3288 C   0  0  0  0  0  0  0  0  0  0  0  0
    0.7373   -3.8241    0.9886 C   0  0  0  0  0  0  0  0  0  0  0  0
    1.3345   -4.8497    0.0346 C   0  0  0  0  0  0  0  0  0  0  0  0
    0.5471   -1.2673    2.1292 H   0  0  0  0  0  0  0  0  0  0  0  0
   -1.0744   -1.7971    1.6839 H   0  0  0  0  0  0  0  0  0  0  0  0
    1.4166   -2.0906   -0.0827 H   0  0  0  0  0  0  0  0  0  0  0  0
   -0.1930   -2.6165   -0.5248 H   0  0  0  0  0  0  0  0  0  0  0  0
    1.4080   -3.6824    1.8423 H   0  0  0  0  0  0  0  0  0  0  0  0
   -0.2016   -4.2083    1.4002 H   0  0  0  0  0  0  0  0  0  0  0  0
    2.2894   -4.5018   -0.3665 H   0  0  0  0  0  0  0  0  0  0  0  0
    0.6679   -5.0316   -0.8118 H   0  0  0  0  0  0  0  0  0  0  0  0
    1.5099   -5.8049    0.5322 H   0  0  0  0  0  0  0  0  0  0  0  0
  1  2  1  0
  1  6  1  0
  1  8  1  0
  2  3  1  0
  2  9  1  0
  2 10  1  0
  3  4  1  0
  4  5  1  0
  4 11  1  0
  4 12  1  0
  5  6  1  0
  6 13  1  0
  6 14  1  0
  7 15  1  0
 15 16  1  0
 15 19  1  0
 15 20  1  0
 16 17  1  0
 16 21  1  0
 16 22  1  0
 17 18  1  0
 17 23  1  0
 17 24  1  0
 18 25  1  0
 18 26  1  0
 18 27  1  0
M  RAD  1   1   2
M  END
>  <reaction>  (6) 
rmg_rxn_197

>  <mol_properties>  (6) 
{"0": {"label": "*3", "atom_type": "Cs"}, "1": {"label": "*4", "atom_type": "Cs"}, "6": {"label": "*2", "atom_type": "H0"}, "14": {"label": "*1", "atom_type": "Cs"}, "15": {"label": "*0", "atom_type": "Cs"}}

>  <type>  (6) 
unop_2

>  <geom_source>  (6) 
Heuristics

$$$$

     RDKit          3D

 27 26  0  0  0  0  0  0  0  0999 V2000
    0.3055    0.5891   -0.5980 C   0  0  0  0  0  3  0  0  0  0  0  0
    0.3055    0.5891   -2.1200 C   0  0  0  0  0  0  0  0  0  0  0  0
    0.3055    1.9155   -2.6121 O   0  0  0  0  0  0  0  0  0  0  0  0
   -0.7772    2.6398   -2.1128 C   0  0  0  0  0  0  0  0  0  0  0  0
   -0.7660    2.7461   -0.7217 O   0  0  0  0  0  0  0  0  0  0  0  0
   -0.8339    1.4724   -0.1099 C   0  0  0  0  0  0  0  0  0  0  0  0
    0.1680   -0.6312   -0.1397 H   0  0  0  0  0  0  0  0  0  0  0  0
    1.2549    0.9876   -0.2350 H   0  0  0  0  0  0  0  0  0  0  0  0
    1.1913    0.1036   -2.5273 H   0  0  0  0  0  0  0  0  0  0  0  0
   -0.5820    0.0579   -2.4967 H   0  0  0  0  0  0  0  0  0  0  0  0
   -1.7198    2.1617   -2.4370 H   0  0  0  0  0  0  0  0  0  0  0  0
   -0.7050    3.6480   -2.5148 H   0  0  0  0  0  0  0  0  0  0  0  0
   -1.8015    1.0033   -0.3452 H   0  0  0  0  0  0  0  0  0  0  0  0
   -0.7886    1.6384    0.9656 H   0  0  0  0  0  0  0  0  0  0  0  0
    0.0306   -1.8503    0.3180 C   0  0  0  0  0  0  0  0  0  0  0  0
    0.7238   -2.0237    1.6627 C   0  0  0  0  0  0  0  0  0  0  0  0
    0.0647   -3.0793    2.5429 C   0  0  0  0  0  0  0  0  0  0  0  0
    0.7579   -3.2526    3.8875 C   0  0  0  0  0  0  0  0  0  0  0  0
   -1.0114   -1.5496    0.4508 H   0  0  0  0  0  0  0  0  0  0  0  0
    0.0346   -2.7851   -0.2477 H   0  0  0  0  0  0  0  0  0  0  0  0
    0.7342   -1.0678    2.1964 H   0  0  0  0  0  0  0  0  0  0  0  0
    1.7726   -2.2942    1.5031 H   0  0  0  0  0  0  0  0  0  0  0  0
   -0.9841   -2.8088    2.7025 H   0  0  0  0  0  0  0  0  0  0  0  0
    0.0542   -4.0351    2.0091 H   0  0  0  0  0  0  0  0  0  0  0  0
    0.7539   -2.3179    4.4532 H   0  0  0  0  0  0  0  0  0  0  0  0
    1.7999   -3.5533    3.7548 H   0  0  0  0  0  0  0  0  0  0  0  0
    0.2663   -4.0131    4.4963 H   0  0  0  0  0  0  0  0  0  0  0  0
  1  2  1  0
  1  6  1  0
  1  8  1  0
  2  3  1  0
  2  9  1  0
  2 10  1  0
  3  4  1  0
  4  5  1  0
  4 11  1  0
  4 12  1  0
  5  6  1  0
  6 13  1  0
  6 14  1  0
  7 15  1  0
 15 16  1  0
 15 19  1  0
 15 20  1  0
 16 17  1  0
 16 21  1  0
 16 22  1  0
 17 18  1  0
 17 23  1  0
 17 24  1  0
 18 25  1  0
 18 26  1  0
 18 27  1  0
M  RAD  1   1   2
M  END
>  <reaction>  (7) 
rmg_rxn_197

>  <mol_properties>  (7) 
{"0": {"label": "*3", "atom_type": "Cs"}, "1": {"label": "*4", "atom_type": "Cs"}, "6": {"label": "*2", "atom_type": "H0"}, "14": {"label": "*1", "atom_type": "Cs"}, "15": {"label": "*0", "atom_type": "Cs"}}

>  <type>  (7) 
unop_3

>  <geom_source>  (7) 
Heuristics

$$$$

     RDKit          3D

 27 26  0  0  0  0  0  0  0  0999 V2000
    1.0898    0.7565    0.1012 C   0  0  0  0  0  3  0  0  0  0  0  0
    1.0898    0.7565   -1.4209 C   0  0  0  0  0  0  0  0  0  0  0  0
    1.0898    2.0829   -1.9130 O   0  0  0  0  0  0  0  0  0  0  0  0
    0.0070    2.8072   -1.4136 C   0  0  0  0  0  0  0  0  0  0  0  0
    0.0183    2.9135   -0.0226 O   0  0  0  0  0  0  0  0  0  0  0  0
   -0.0496    1.6397    0.5893 C   0  0  0  0  0  0  0  0  0  0  0  0
    0.9522   -0.4639    0.5594 H   0  0  0  0  0  0  0  0  0  0  0  0
    2.0391    1.1550    0.4642 H   0  0  0  0  0  0  0  0  0  0  0  0
    1.9756    0.2710   -1.8282 H   0  0  0  0  0  0  0  0  0  0  0  0
    0.2023    0.2252   -1.7976 H   0  0  0  0  0  0  0  0  0  0  0  0
   -0.9356    2.3291   -1.7379 H   0  0  0  0  0  0  0  0  0  0  0  0
    0.0793    3.8153   -1.8156 H   0  0  0  0  0  0  0  0  0  0  0  0
   -1.0173    1.1706    0.3540 H   0  0  0  0  0  0  0  0  0  0  0  0
   -0.0043    1.8057    1.6647 H   0  0  0  0  0  0  0  0  0  0  0  0
    0.8148   -1.6830    1.0172 C   0  0  0  0  0  0  0  0  0  0  0  0
   -0.4905   -2.3118    0.5489 C   0  0  0  0  0  0  0  0  0  0  0  0
   -1.0751   -3.2950    1.5564 C   0  0  0  0  0  0  0  0  0  0  0  0
   -2.3805   -3.9238    1.0881 C   0  0  0  0  0  0  0  0  0  0  0  0
    1.5754   -2.4469    1.1954 H   0  0  0  0  0  0  0  0  0  0  0  0
    0.6722   -1.1351    1.9517 H   0  0  0  0  0  0  0  0  0  0  0  0
   -0.3290   -2.8278   -0.4030 H   0  0  0  0  0  0  0  0  0  0  0  0
   -1.2255   -1.5256    0.3477 H   0  0  0  0  0  0  0  0  0  0  0  0
   -0.3402   -4.0812    1.7576 H   0  0  0  0  0  0  0  0  0  0  0  0
   -1.2367   -2.7790    2.5084 H   0  0  0  0  0  0  0  0  0  0  0  0
   -2.2379   -4.4717    0.1536 H   0  0  0  0  0  0  0  0  0  0  0  0
   -3.1410   -3.1599    0.9099 H   0  0  0  0  0  0  0  0  0  0  0  0
   -2.7762   -4.6223    1.8272 H   0  0  0  0  0  0  0  0  0  0  0  0
  1  2  1  0
  1  6  1  0
  1  8  1  0
  2  3  1  0
  2  9  1  0
  2 10  1  0
  3  4  1  0
  4  5  1  0
  4 11  1  0
  4 12  1  0
  5  6  1  0
  6 13  1  0
  6 14  1  0
  7 15  1  0
 15 16  1  0
 15 19  1  0
 15 20  1  0
 16 17  1  0
 16 21  1  0
 16 22  1  0
 17 18  1  0
 17 23  1  0
 17 24  1  0
 18 25  1  0
 18 26  1  0
 18 27  1  0
M  RAD  1   1   2
M  END
>  <reaction>  (8) 
rmg_rxn_197

>  <mol_properties>  (8) 
{"0": {"label": "*3", "atom_type": "Cs"}, "1": {"label": "*4", "atom_type": "Cs"}, "6": {"label": "*2", "atom_type": "H0"}, "14": {"label": "*1", "atom_type": "Cs"}, "15": {"label": "*0", "atom_type": "Cs"}}

>  <type>  (8) 
unop_4

>  <geom_source>  (8) 
Heuristics

$$$$

     RDKit          3D

 27 26  0  0  0  0  0  0  0  0999 V2000
    0.4814    0.6025   -0.6057 C   0  0  0  0  0  3  0  0  0  0  0  0
    0.4814    0.6025   -2.1278 C   0  0  0  0  0  0  0  0  0  0  0  0
    0.4814    1.9289   -2.6199 O   0  0  0  0  0  0  0  0  0  0  0  0
   -0.6014    2.6532   -2.1205 C   0  0  0  0  0  0  0  0  0  0  0  0
   -0.5901    2.7595   -0.7295 O   0  0  0  0  0  0  0  0  0  0  0  0
   -0.6580    1.4858   -0.1176 C   0  0  0  0  0  0  0  0  0  0  0  0
    0.3438   -0.6178   -0.1475 H   0  0  0  0  0  0  0  0  0  0  0  0
    1.4307    1.0011   -0.2427 H   0  0  0  0  0  0  0  0  0  0  0  0
    1.3672    0.1170   -2.5351 H   0  0  0  0  0  0  0  0  0  0  0  0
   -0.4061    0.0713   -2.5045 H   0  0  0  0  0  0  0  0  0  0  0  0
   -1.5440    2.1752   -2.4448 H   0  0  0  0  0  0  0  0  0  0  0  0
   -0.5291    3.6614   -2.5225 H   0  0  0  0  0  0  0  0  0  0  0  0
   -1.6257    1.0167   -0.3529 H   0  0  0  0  0  0  0  0  0  0  0  0
   -0.6127    1.6518    0.9578 H   0  0  0  0  0  0  0  0  0  0  0  0
    0.2064   -1.8369    0.3103 C   0  0  0  0  0  0  0  0  0  0  0  0
    0.2033   -1.8650    1.8327 C   0  0  0  0  0  0  0  0  0  0  0  0
    0.0450   -3.2693    2.4040 C   0  0  0  0  0  0  0  0  0  0  0  0
    0.0418   -3.2974    3.9264 C   0  0  0  0  0  0  0  0  0  0  0  0
   -0.7262   -2.2410   -0.0905 H   0  0  0  0  0  0  0  0  0  0  0  0
    1.0257   -2.4385   -0.0905 H   0  0  0  0  0  0  0  0  0  0  0  0
   -0.6059   -1.2314    2.2101 H   0  0  0  0  0  0  0  0  0  0  0  0
    1.1332   -1.4274    2.2101 H   0  0  0  0  0  0  0  0  0  0  0  0
   -0.8849   -3.7069    2.0266 H   0  0  0  0  0  0  0  0  0  0  0  0
    0.8541   -3.9029    2.0266 H   0  0  0  0  0  0  0  0  0  0  0  0
   -0.7775   -2.6958    4.3272 H   0  0  0  0  0  0  0  0  0  0  0  0
    0.9745   -2.8933    4.3272 H   0  0  0  0  0  0  0  0  0  0  0  0
   -0.0727   -4.3133    4.3079 H   0  0  0  0  0  0  0  0  0  0  0  0
  1  2  1  0
  1  6  1  0
  1  8  1  0
  2  3  1  0
  2  9  1  0
  2 10  1  0
  3  4  1  0
  4  5  1  0
  4 11  1  0
  4 12  1  0
  5  6  1  0
  6 13  1  0
  6 14  1  0
  7 15  1  0
 15 16  1  0
 15 19  1  0
 15 20  1  0
 16 17  1  0
 16 21  1  0
 16 22  1  0
 17 18  1  0
 17 23  1  0
 17 24  1  0
 18 25  1  0
 18 26  1  0
 18 27  1  0
M  RAD  1   1   2
M  END
>  <reaction>  (9) 
rmg_rxn_197

>  <mol_properties>  (9) 
{"0": {"label": "*3", "atom_type": "Cs"}, "1": {"label": "*4", "atom_type": "Cs"}, "6": {"label": "*2", "atom_type": "H0"}, "14": {"label": "*1", "atom_type": "Cs"}, "15": {"label": "*0", "atom_type": "Cs"}}

>  <type>  (9) 
unop_5

>  <geom_source>  (9) 
Heuristics

$$$$

     RDKit          3D

 27 26  0  0  0  0  0  0  0  0999 V2000
    1.0857    0.6153   -0.2167 C   0  0  0  0  0  3  0  0  0  0  0  0
    1.0857    0.6153   -1.7387 C   0  0  0  0  0  0  0  0  0  0  0  0
    1.0857    1.9416   -2.2308 O   0  0  0  0  0  0  0  0  0  0  0  0
    0.0029    2.6659   -1.7315 C   0  0  0  0  0  0  0  0  0  0  0  0
    0.0142    2.7722   -0.3404 O   0  0  0  0  0  0  0  0  0  0  0  0
   -0.0537    1.4985    0.2714 C   0  0  0  0  0  0  0  0  0  0  0  0
    0.9482   -0.6051    0.2416 H   0  0  0  0  0  0  0  0  0  0  0  0
    2.0351    1.0138    0.1463 H   0  0  0  0  0  0  0  0  0  0  0  0
    1.9715    0.1297   -2.1460 H   0  0  0  0  0  0  0  0  0  0  0  0
    0.1982    0.0840   -2.1154 H   0  0  0  0  0  0  0  0  0  0  0  0
   -0.9397    2.1879   -2.0557 H   0  0  0  0  0  0  0  0  0  0  0  0
    0.0752    3.6741   -2.1335 H   0  0  0  0  0  0  0  0  0  0  0  0
   -1.0214    1.0294    0.0361 H   0  0  0  0  0  0  0  0  0  0  0  0
   -0.0084    1.6645    1.3469 H   0  0  0  0  0  0  0  0  0  0  0  0
    0.8108   -1.8242    0.6994 C   0  0  0  0  0  0  0  0  0  0  0  0
   -0.6555   -2.1857    0.8947 C   0  0  0  0  0  0  0  0  0  0  0  0
   -0.9065   -3.0017    2.1575 C   0  0  0  0  0  0  0  0  0  0  0  0
   -2.3727   -3.3632    2.3528 C   0  0  0  0  0  0  0  0  0  0  0  0
    1.4289   -2.7222    0.6269 H   0  0  0  0  0  0  0  0  0  0  0  0
    1.1836   -1.2340    1.5398 H   0  0  0  0  0  0  0  0  0  0  0  0
   -1.0136   -2.7491    0.0270 H   0  0  0  0  0  0  0  0  0  0  0  0
   -1.2571   -1.2718    0.9331 H   0  0  0  0  0  0  0  0  0  0  0  0
   -0.3048   -3.9156    2.1190 H   0  0  0  0  0  0  0  0  0  0  0  0
   -0.5483   -2.4383    3.0252 H   0  0  0  0  0  0  0  0  0  0  0  0
   -2.7456   -3.9534    1.5123 H   0  0  0  0  0  0  0  0  0  0  0  0
   -2.9909   -2.4652    2.4252 H   0  0  0  0  0  0  0  0  0  0  0  0
   -2.5235   -3.9462    3.2627 H   0  0  0  0  0  0  0  0  0  0  0  0
  1  2  1  0
  1  6  1  0
  1  8  1  0
  2  3  1  0
  2  9  1  0
  2 10  1  0
  3  4  1  0
  4  5  1  0
  4 11  1  0
  4 12  1  0
  5  6  1  0
  6 13  1  0
  6 14  1  0
  7 15  1  0
 15 16  1  0
 15 19  1  0
 15 20  1  0
 16 17  1  0
 16 21  1  0
 16 22  1  0
 17 18  1  0
 17 23  1  0
 17 24  1  0
 18 25  1  0
 18 26  1  0
 18 27  1  0
M  RAD  1   1   2
M  END
>  <reaction>  (10) 
rmg_rxn_197

>  <mol_properties>  (10) 
{"0": {"label": "*3", "atom_type": "Cs"}, "1": {"label": "*4", "atom_type": "Cs"}, "6": {"label": "*2", "atom_type": "H0"}, "14": {"label": "*1", "atom_type": "Cs"}, "15": {"label": "*0", "atom_type": "Cs"}}

>  <type>  (10) 
unop_6

>  <geom_source>  (10) 
Heuristics

$$$$

     RDKit          3D

 27 26  0  0  0  0  0  0  0  0999 V2000
    0.9038    0.5367   -0.4758 C   0  0  0  0  0  3  0  0  0  0  0  0
    0.9038    0.5367   -1.9979 C   0  0  0  0  0  0  0  0  0  0  0  0
    0.9038    1.8631   -2.4900 O   0  0  0  0  0  0  0  0  0  0  0  0
   -0.1790    2.5874   -1.9907 C   0  0  0  0  0  0  0  0  0  0  0  0
   -0.1678    2.6937   -0.5996 O   0  0  0  0  0  0  0  0  0  0  0  0
   -0.2356    1.4199    0.0123 C   0  0  0  0  0  0  0  0  0  0  0  0
    0.7662   -0.6837   -0.0176 H   0  0  0  0  0  0  0  0  0  0  0  0
    1.8531    0.9352   -0.1128 H   0  0  0  0  0  0  0  0  0  0  0  0
    1.7895    0.0512   -2.4052 H   0  0  0  0  0  0  0  0  0  0  0  0
    0.0162    0.0054   -2.3746 H   0  0  0  0  0  0  0  0  0  0  0  0
   -1.1216    2.1093   -2.3149 H   0  0  0  0  0  0  0  0  0  0  0  0
   -0.1068    3.5955   -2.3926 H   0  0  0  0  0  0  0  0  0  0  0  0
   -1.2033    0.9508   -0.2230 H   0  0  0  0  0  0  0  0  0  0  0  0
   -0.1904    1.5859    1.0877 H   0  0  0  0  0  0  0  0  0  0  0  0
    0.6288   -1.9028    0.4402 C   0  0  0  0  0  0  0  0  0  0  0  0
   -0.6211   -2.0395    1.2990 C   0  0  0  0  0  0  0  0  0  0  0  0
   -0.4069   -2.9109    2.5312 C   0  0  0  0  0  0  0  0  0  0  0  0
   -1.6568   -3.0476    3.3901 C   0  0  0  0  0  0  0  0  0  0  0  0
    0.9685   -2.8787    0.0854 H   0  0  0  0  0  0  0  0  0  0  0  0
    1.4474   -1.4553    1.0089 H   0  0  0  0  0  0  0  0  0  0  0  0
   -1.4346   -2.4606    0.6994 H   0  0  0  0  0  0  0  0  0  0  0  0
   -0.9592   -1.0476    1.6161 H   0  0  0  0  0  0  0  0  0  0  0  0
   -0.0688   -3.9028    2.2142 H   0  0  0  0  0  0  0  0  0  0  0  0
    0.4066   -2.4898    3.1308 H   0  0  0  0  0  0  0  0  0  0  0  0
   -2.4754   -3.4951    2.8214 H   0  0  0  0  0  0  0  0  0  0  0  0
   -1.9965   -2.0716    3.7449 H   0  0  0  0  0  0  0  0  0  0  0  0
   -1.4754   -3.6755    4.2639 H   0  0  0  0  0  0  0  0  0  0  0  0
  1  2  1  0
  1  6  1  0
  1  8  1  0
  2  3  1  0
  2  9  1  0
  2 10  1  0
  3  4  1  0
  4  5  1  0
  4 11  1  0
  4 12  1  0
  5  6  1  0
  6 13  1  0
  6 14  1  0
  7 15  1  0
 15 16  1  0
 15 19  1  0
 15 20  1  0
 16 17  1  0
 16 21  1  0
 16 22  1  0
 17 18  1  0
 17 23  1  0
 17 24  1  0
 18 25  1  0
 18 26  1  0
 18 27  1  0
M  RAD  1   1   2
M  END
>  <reaction>  (11) 
rmg_rxn_197

>  <mol_properties>  (11) 
{"0": {"label": "*3", "atom_type": "Cs"}, "1": {"label": "*4", "atom_type": "Cs"}, "6": {"label": "*2", "atom_type": "H0"}, "14": {"label": "*1", "atom_type": "Cs"}, "15": {"label": "*0", "atom_type": "Cs"}}

>  <type>  (11) 
unop_7

>  <geom_source>  (11) 
Heuristics

$$$$

     RDKit          3D

 27 26  0  0  0  0  0  0  0  0999 V2000
   -0.1049    0.7495   -0.2167 C   0  0  0  0  0  3  0  0  0  0  0  0
   -0.1049    0.7495   -1.7387 C   0  0  0  0  0  0  0  0  0  0  0  0
   -0.1049    2.0758   -2.2308 O   0  0  0  0  0  0  0  0  0  0  0  0
   -1.1877    2.8002   -1.7315 C   0  0  0  0  0  0  0  0  0  0  0  0
   -1.1764    2.9064   -0.3404 O   0  0  0  0  0  0  0  0  0  0  0  0
   -1.2443    1.6327    0.2714 C   0  0  0  0  0  0  0  0  0  0  0  0
   -0.2425   -0.4709    0.2416 H   0  0  0  0  0  0  0  0  0  0  0  0
    0.8444    1.1480    0.1463 H   0  0  0  0  0  0  0  0  0  0  0  0
    0.7808    0.2639   -2.1460 H   0  0  0  0  0  0  0  0  0  0  0  0
   -0.9924    0.2182   -2.1154 H   0  0  0  0  0  0  0  0  0  0  0  0
   -2.1303    2.3221   -2.0557 H   0  0  0  0  0  0  0  0  0  0  0  0
   -1.1154    3.8083   -2.1335 H   0  0  0  0  0  0  0  0  0  0  0  0
   -2.2120    1.1636    0.0361 H   0  0  0  0  0  0  0  0  0  0  0  0
   -1.1990    1.7987    1.3469 H   0  0  0  0  0  0  0  0  0  0  0  0
   -0.3799   -1.6900    0.6994 C   0  0  0  0  0  0  0  0  0  0  0  0
    0.9691   -2.3688    0.8947 C   0  0  0  0  0  0  0  0  0  0  0  0
    1.0321   -3.2202    2.1575 C   0  0  0  0  0  0  0  0  0  0  0  0
    2.3811   -3.8990    2.3528 C   0  0  0  0  0  0  0  0  0  0  0  0
   -0.6120   -1.0316    1.5398 H   0  0  0  0  0  0  0  0  0  0  0  0
   -1.1825   -2.4279    0.6269 H   0  0  0  0  0  0  0  0  0  0  0  0
    1.7590   -1.6118    0.9331 H   0  0  0  0  0  0  0  0  0  0  0  0
    1.1928   -2.9978    0.0270 H   0  0  0  0  0  0  0  0  0  0  0  0
    0.8084   -2.5912    3.0252 H   0  0  0  0  0  0  0  0  0  0  0  0
    0.2421   -3.9772    2.1190 H   0  0  0  0  0  0  0  0  0  0  0  0
    3.1836   -3.1612    2.4252 H   0  0  0  0  0  0  0  0  0  0  0  0
    2.6132   -4.5574    1.5123 H   0  0  0  0  0  0  0  0  0  0  0  0
    2.3983   -4.5010    3.2627 H   0  0  0  0  0  0  0  0  0  0  0  0
  1  2  1  0
  1  6  1  0
  1  8  1  0
  2  3  1  0
  2  9  1  0
  2 10  1  0
  3  4  1  0
  4  5  1  0
  4 11  1  0
  4 12  1  0
  5  6  1  0
  6 13  1  0
  6 14  1  0
  7 15  1  0
 15 16  1  0
 15 19  1  0
 15 20  1  0
 16 17  1  0
 16 21  1  0
 16 22  1  0
 17 18  1  0
 17 23  1  0
 17 24  1  0
 18 25  1  0
 18 26  1  0
 18 27  1  0
M  RAD  1   1   2
M  END
>  <reaction>  (12) 
rmg_rxn_197

>  <mol_properties>  (12) 
{"0": {"label": "*3", "atom_type": "Cs"}, "1": {"label": "*4", "atom_type": "Cs"}, "6": {"label": "*2", "atom_type": "H0"}, "14": {"label": "*1", "atom_type": "Cs"}, "15": {"label": "*0", "atom_type": "Cs"}}

>  <type>  (12) 
unop_8

>  <geom_source>  (12) 
Heuristics

$$$$

     RDKit          3D

 27 26  0  0  0  0  0  0  0  0999 V2000
    0.8854    0.9081    0.3668 C   0  0  0  0  0  3  0  0  0  0  0  0
    0.8854    0.9081   -1.1552 C   0  0  0  0  0  0  0  0  0  0  0  0
    0.8854    2.2344   -1.6473 O   0  0  0  0  0  0  0  0  0  0  0  0
   -0.1974    2.9588   -1.1480 C   0  0  0  0  0  0  0  0  0  0  0  0
   -0.1861    3.0651    0.2431 O   0  0  0  0  0  0  0  0  0  0  0  0
   -0.2540    1.7913    0.8549 C   0  0  0  0  0  0  0  0  0  0  0  0
    0.7479   -0.3123    0.8251 H   0  0  0  0  0  0  0  0  0  0  0  0
    1.8348    1.3066    0.7298 H   0  0  0  0  0  0  0  0  0  0  0  0
    1.7712    0.4226   -1.5625 H   0  0  0  0  0  0  0  0  0  0  0  0
   -0.0021    0.3768   -1.5319 H   0  0  0  0  0  0  0  0  0  0  0  0
   -1.1399    2.4807   -1.4722 H   0  0  0  0  0  0  0  0  0  0  0  0
   -0.1251    3.9669   -1.5500 H   0  0  0  0  0  0  0  0  0  0  0  0
   -1.2216    1.3222    0.6196 H   0  0  0  0  0  0  0  0  0  0  0  0
   -0.2087    1.9573    1.9304 H   0  0  0  0  0  0  0  0  0  0  0  0
    0.6105   -1.5314    1.2828 C   0  0  0  0  0  0  0  0  0  0  0  0
   -0.2000   -2.3984    0.3288 C   0  0  0  0  0  0  0  0  0  0  0  0
   -0.7535   -3.6561    0.9886 C   0  0  0  0  0  0  0  0  0  0  0  0
   -1.5640   -4.5230    0.0346 C   0  0  0  0  0  0  0  0  0  0  0  0
    1.4640   -2.0832    1.6839 H   0  0  0  0  0  0  0  0  0  0  0  0
    0.0011   -1.2057    2.1292 H   0  0  0  0  0  0  0  0  0  0  0  0
    0.4223   -2.6858   -0.5248 H   0  0  0  0  0  0  0  0  0  0  0  0
   -1.0298   -1.8148   -0.0827 H   0  0  0  0  0  0  0  0  0  0  0  0
    0.0763   -4.2396    1.4002 H   0  0  0  0  0  0  0  0  0  0  0  0
   -1.3758   -3.3686    1.8423 H   0  0  0  0  0  0  0  0  0  0  0  0
   -0.9546   -4.8487   -0.8118 H   0  0  0  0  0  0  0  0  0  0  0  0
   -2.4175   -3.9712   -0.3665 H   0  0  0  0  0  0  0  0  0  0  0  0
   -1.9476   -5.4152    0.5322 H   0  0  0  0  0  0  0  0  0  0  0  0
  1  2  1  0
  1  6  1  0
  1  8  1  0
  2  3  1  0
  2  9  1  0
  2 10  1  0
  3  4  1  0
  4  5  1  0
  4 11  1  0
  4 12  1  0
  5  6  1  0
  6 13  1  0
  6 14  1  0
  7 15  1  0
 15 16  1  0
 15 19  1  0
 15 20  1  0
 16 17  1  0
 16 21  1  0
 16 22  1  0
 17 18  1  0
 17 23  1  0
 17 24  1  0
 18 25  1  0
 18 26  1  0
 18 27  1  0
M  RAD  1   1   2
M  END
>  <reaction>  (13) 
rmg_rxn_197

>  <mol_properties>  (13) 
{"0": {"label": "*3", "atom_type": "Cs"}, "1": {"label": "*4", "atom_type": "Cs"}, "6": {"label": "*2", "atom_type": "H0"}, "14": {"label": "*1", "atom_type": "Cs"}, "15": {"label": "*0", "atom_type": "Cs"}}

>  <type>  (13) 
unop_9

>  <geom_source>  (13) 
Heuristics

$$$$

     RDKit          3D

 27 26  0  0  0  0  0  0  0  0999 V2000
   -0.0775    0.8881    0.1012 C   0  0  0  0  0  3  0  0  0  0  0  0
   -0.0775    0.8881   -1.4209 C   0  0  0  0  0  0  0  0  0  0  0  0
   -0.0775    2.2144   -1.9130 O   0  0  0  0  0  0  0  0  0  0  0  0
   -1.1602    2.9388   -1.4136 C   0  0  0  0  0  0  0  0  0  0  0  0
   -1.1490    3.0450   -0.0226 O   0  0  0  0  0  0  0  0  0  0  0  0
   -1.2169    1.7713    0.5893 C   0  0  0  0  0  0  0  0  0  0  0  0
   -0.2150   -0.3323    0.5594 H   0  0  0  0  0  0  0  0  0  0  0  0
    0.8719    1.2866    0.4642 H   0  0  0  0  0  0  0  0  0  0  0  0
    0.8083    0.4026   -1.8282 H   0  0  0  0  0  0  0  0  0  0  0  0
   -0.9650    0.3568   -1.7976 H   0  0  0  0  0  0  0  0  0  0  0  0
   -2.1028    2.4607   -1.7379 H   0  0  0  0  0  0  0  0  0  0  0  0
   -1.0880    3.9469   -1.8156 H   0  0  0  0  0  0  0  0  0  0  0  0
   -2.1845    1.3022    0.3540 H   0  0  0  0  0  0  0  0  0  0  0  0
   -1.1716    1.9373    1.6647 H   0  0  0  0  0  0  0  0  0  0  0  0
   -0.3524   -1.5514    1.0172 C   0  0  0  0  0  0  0  0  0  0  0  0
    0.7802   -2.4550    0.5489 C   0  0  0  0  0  0  0  0  0  0  0  0
    1.1312   -3.5437    1.5564 C   0  0  0  0  0  0  0  0  0  0  0  0
    2.2639   -4.4473    1.0881 C   0  0  0  0  0  0  0  0  0  0  0  0
   -0.0915   -1.0490    1.9517 H   0  0  0  0  0  0  0  0  0  0  0  0
   -1.2639   -2.1269    1.1954 H   0  0  0  0  0  0  0  0  0  0  0  0
    1.6717   -1.8522    0.3477 H   0  0  0  0  0  0  0  0  0  0  0  0
    0.5078   -2.9221   -0.4030 H   0  0  0  0  0  0  0  0  0  0  0  0
    1.4036   -3.0766    2.5084 H   0  0  0  0  0  0  0  0  0  0  0  0
    0.2398   -4.1465    1.7576 H   0  0  0  0  0  0  0  0  0  0  0  0
    3.1754   -3.8719    0.9099 H   0  0  0  0  0  0  0  0  0  0  0  0
    2.0029   -4.9497    0.1536 H   0  0  0  0  0  0  0  0  0  0  0  0
    2.4941   -5.2164    1.8272 H   0  0  0  0  0  0  0  0  0  0  0  0
  1  2  1  0
  1  6  1  0
  1  8  1  0
  2  3  1  0
  2  9  1  0
  2 10  1  0
  3  4  1  0
  4  5  1  0
  4 11  1  0
  4 12  1  0
  5  6  1  0
  6 13  1  0
  6 14  1  0
  7 15  1  0
 15 16  1  0
 15 19  1  0
 15 20  1  0
 16 17  1  0
 16 21  1  0
 16 22  1  0
 17 18  1  0
 17 23  1  0
 17 24  1  0
 18 25  1  0
 18 26  1  0
 18 27  1  0
M  RAD  1   1   2
M  END
>  <reaction>  (14) 
rmg_rxn_197

>  <mol_properties>  (14) 
{"0": {"label": "*3", "atom_type": "Cs"}, "1": {"label": "*4", "atom_type": "Cs"}, "6": {"label": "*2", "atom_type": "H0"}, "14": {"label": "*1", "atom_type": "Cs"}, "15": {"label": "*0", "atom_type": "Cs"}}

>  <type>  (14) 
unop_10

>  <geom_source>  (14) 
Heuristics

$$$$

     RDKit          3D

 27 26  0  0  0  0  0  0  0  0999 V2000
    0.6499    0.5503   -0.5980 C   0  0  0  0  0  3  0  0  0  0  0  0
    0.6499    0.5503   -2.1200 C   0  0  0  0  0  0  0  0  0  0  0  0
    0.6499    1.8767   -2.6121 O   0  0  0  0  0  0  0  0  0  0  0  0
   -0.4329    2.6010   -2.1128 C   0  0  0  0  0  0  0  0  0  0  0  0
   -0.4216    2.7073   -0.7217 O   0  0  0  0  0  0  0  0  0  0  0  0
   -0.4895    1.4336   -0.1099 C   0  0  0  0  0  0  0  0  0  0  0  0
    0.5123   -0.6700   -0.1397 H   0  0  0  0  0  0  0  0  0  0  0  0
    1.5992    0.9488   -0.2350 H   0  0  0  0  0  0  0  0  0  0  0  0
    1.5356    0.0648   -2.5273 H   0  0  0  0  0  0  0  0  0  0  0  0
   -0.2376    0.0191   -2.4967 H   0  0  0  0  0  0  0  0  0  0  0  0
   -1.3755    2.1229   -2.4370 H   0  0  0  0  0  0  0  0  0  0  0  0
   -0.3606    3.6091   -2.5148 H   0  0  0  0  0  0  0  0  0  0  0  0
   -1.4572    0.9644   -0.3452 H   0  0  0  0  0  0  0  0  0  0  0  0
   -0.4443    1.5996    0.9656 H   0  0  0  0  0  0  0  0  0  0  0  0
    0.3749   -1.8892    0.3180 C   0  0  0  0  0  0  0  0  0  0  0  0
   -0.3395   -1.9038    1.6627 C   0  0  0  0  0  0  0  0  0  0  0  0
    0.0680   -3.0797    2.5429 C   0  0  0  0  0  0  0  0  0  0  0  0
   -0.6463   -3.0943    3.8875 C   0  0  0  0  0  0  0  0  0  0  0  0
    0.1629   -2.7995   -0.2477 H   0  0  0  0  0  0  0  0  0  0  0  0
    1.4577   -1.8279    0.4508 H   0  0  0  0  0  0  0  0  0  0  0  0
   -1.4222   -1.9341    1.5031 H   0  0  0  0  0  0  0  0  0  0  0  0
   -0.1369   -0.9696    2.1964 H   0  0  0  0  0  0  0  0  0  0  0  0
   -0.1345   -4.0139    2.0091 H   0  0  0  0  0  0  0  0  0  0  0  0
    1.1507   -3.0494    2.7025 H   0  0  0  0  0  0  0  0  0  0  0  0
   -1.7291   -3.1556    3.7548 H   0  0  0  0  0  0  0  0  0  0  0  0
   -0.4343   -2.1840    4.4532 H   0  0  0  0  0  0  0  0  0  0  0  0
   -0.3363   -3.9452    4.4963 H   0  0  0  0  0  0  0  0  0  0  0  0
  1  2  1  0
  1  6  1  0
  1  8  1  0
  2  3  1  0
  2  9  1  0
  2 10  1  0
  3  4  1  0
  4  5  1  0
  4 11  1  0
  4 12  1  0
  5  6  1  0
  6 13  1  0
  6 14  1  0
  7 15  1  0
 15 16  1  0
 15 19  1  0
 15 20  1  0
 16 17  1  0
 16 21  1  0
 16 22  1  0
 17 18  1  0
 17 23  1  0
 17 24  1  0
 18 25  1  0
 18 26  1  0
 18 27  1  0
M  RAD  1   1   2
M  END
>  <reaction>  (15) 
rmg_rxn_197

>  <mol_properties>  (15) 
{"0": {"label": "*3", "atom_type": "Cs"}, "1": {"label": "*4", "atom_type": "Cs"}, "6": {"label": "*2", "atom_type": "H0"}, "14": {"label": "*1", "atom_type": "Cs"}, "15": {"label": "*0", "atom_type": "Cs"}}

>  <type>  (15) 
unop_11

>  <geom_source>  (15) 
Heuristics

$$$$

     RDKit          3D

 27 26  0  0  0  0  0  0  0  0999 V2000
    0.5264    1.0021    0.4719 C   0  0  0  0  0  3  0  0  0  0  0  0
    0.5264    1.0021   -1.0501 C   0  0  0  0  0  0  0  0  0  0  0  0
    0.5264    2.3285   -1.5422 O   0  0  0  0  0  0  0  0  0  0  0  0
   -0.5563    3.0528   -1.0429 C   0  0  0  0  0  0  0  0  0  0  0  0
   -0.5451    3.1591    0.3482 O   0  0  0  0  0  0  0  0  0  0  0  0
   -0.6130    1.8854    0.9600 C   0  0  0  0  0  0  0  0  0  0  0  0
    0.3889   -0.2182    0.9302 H   0  0  0  0  0  0  0  0  0  0  0  0
    1.4758    1.4006    0.8349 H   0  0  0  0  0  0  0  0  0  0  0  0
    1.4122    0.5166   -1.4574 H   0  0  0  0  0  0  0  0  0  0  0  0
   -0.3611    0.4709   -1.4268 H   0  0  0  0  0  0  0  0  0  0  0  0
   -1.4989    2.5747   -1.3671 H   0  0  0  0  0  0  0  0  0  0  0  0
   -0.4841    4.0610   -1.4449 H   0  0  0  0  0  0  0  0  0  0  0  0
   -1.5806    1.4163    0.7247 H   0  0  0  0  0  0  0  0  0  0  0  0
   -0.5677    2.0514    2.0355 H   0  0  0  0  0  0  0  0  0  0  0  0
    0.2515   -1.4373    1.3880 C   0  0  0  0  0  0  0  0  0  0  0  0
    0.1374   -2.4496    0.2561 C   0  0  0  0  0  0  0  0  0  0  0  0
   -0.0241   -3.8825    0.7503 C   0  0  0  0  0  0  0  0  0  0  0  0
   -0.1382   -4.8947   -0.3816 C   0  0  0  0  0  0  0  0  0  0  0  0
    1.1140   -1.6551    2.0223 H   0  0  0  0  0  0  0  0  0  0  0  0
   -0.6379   -1.4576    2.0223 H   0  0  0  0  0  0  0  0  0  0  0  0
    1.0248   -2.3885   -0.3821 H   0  0  0  0  0  0  0  0  0  0  0  0
   -0.7142   -2.1925   -0.3821 H   0  0  0  0  0  0  0  0  0  0  0  0
    0.8275   -4.1395    1.3885 H   0  0  0  0  0  0  0  0  0  0  0  0
   -0.9116   -3.9435    1.3885 H   0  0  0  0  0  0  0  0  0  0  0  0
    0.7512   -4.8744   -1.0159 H   0  0  0  0  0  0  0  0  0  0  0  0
   -1.0008   -4.6770   -1.0159 H   0  0  0  0  0  0  0  0  0  0  0  0
   -0.2527   -5.9106   -0.0001 H   0  0  0  0  0  0  0  0  0  0  0  0
  1  2  1  0
  1  6  1  0
  1  8  1  0
  2  3  1  0
  2  9  1  0
  2 10  1  0
  3  4  1  0
  4  5  1  0
  4 11  1  0
  4 12  1  0
  5  6  1  0
  6 13  1  0
  6 14  1  0
  7 15  1  0
 15 16  1  0
 15 19  1  0
 15 20  1  0
 16 17  1  0
 16 21  1  0
 16 22  1  0
 17 18  1  0
 17 23  1  0
 17 24  1  0
 18 25  1  0
 18 26  1  0
 18 27  1  0
M  RAD  1   1   2
M  END
>  <reaction>  (16) 
rmg_rxn_197

>  <mol_properties>  (16) 
{"0": {"label": "*3", "atom_type": "Cs"}, "1": {"label": "*4", "atom_type": "Cs"}, "6": {"label": "*2", "atom_type": "H0"}, "14": {"label": "*1", "atom_type": "Cs"}, "15": {"label": "*0", "atom_type": "Cs"}}

>  <type>  (16) 
unop_12

>  <geom_source>  (16) 
Heuristics

$$$$

     RDKit          3D

 27 26  0  0  0  0  0  0  0  0999 V2000
    3.5020   -0.7598    0.2109 O   0  0  0  0  0  0  0  0  0  0  0  0
    2.8274    1.4395   -0.4684 O   0  0  0  0  0  0  0  0  0  0  0  0
   -1.7992   -0.4442    0.5089 C   0  0  0  0  0  0  0  0  0  0  0  0
   -3.1153   -0.9442   -0.1050 C   0  0  0  0  0  0  0  0  0  0  0  0
    2.1141   -1.0043    0.1445 C   0  0  0  0  0  0  0  0  0  0  0  0
    2.1353    1.4053    0.7602 C   0  0  0  0  0  0  0  0  0  0  0  0
   -0.8130    0.0622   -0.5417 C   0  0  0  0  0  0  0  0  0  0  0  0
   -3.9723    0.1901   -0.6659 C   0  0  0  0  0  0  0  0  0  0  0  0
    3.8323    0.4299   -0.5003 C   0  0  0  0  0  0  0  0  0  0  0  0
    1.3556    0.0983    0.8794 C   0  0  0  0  0  3  0  0  0  0  0  0
   -1.3219   -1.2868    1.0537 H   0  0  0  0  0  0  0  0  0  0  0  0
   -2.0017    0.3618    1.2471 H   0  0  0  0  0  0  0  0  0  0  0  0
   -2.9064   -1.6853   -0.9070 H   0  0  0  0  0  0  0  0  0  0  0  0
   -3.6978   -1.4620    0.6876 H   0  0  0  0  0  0  0  0  0  0  0  0
   -1.1946    0.9839   -1.0276 H   0  0  0  0  0  0  0  0  0  0  0  0
   -0.6316   -0.7165   -1.3128 H   0  0  0  0  0  0  0  0  0  0  0  0
    0.3171    0.3449    0.0353 H   0  0  0  0  0  0  0  0  0  0  0  0
   -3.4787    0.6589   -1.5422 H   0  0  0  0  0  0  0  0  0  0  0  0
   -4.1551    0.9608    0.1128 H   0  0  0  0  0  0  0  0  0  0  0  0
   -4.9512   -0.2164   -0.9969 H   0  0  0  0  0  0  0  0  0  0  0  0
    1.7727   -1.0600   -0.9141 H   0  0  0  0  0  0  0  0  0  0  0  0
    1.8936   -1.9838    0.6184 H   0  0  0  0  0  0  0  0  0  0  0  0
    1.4182    2.2511    0.7959 H   0  0  0  0  0  0  0  0  0  0  0  0
    2.8424    1.5234    1.6137 H   0  0  0  0  0  0  0  0  0  0  0  0
    4.7719    0.8454   -0.0783 H   0  0  0  0  0  0  0  0  0  0  0  0
    4.0383    0.1688   -1.5600 H   0  0  0  0  0  0  0  0  0  0  0  0
    1.2180   -0.1608    1.9517 H   0  0  0  0  0  0  0  0  0  0  0  0
  1  5  1  0
  1  9  1  0
  2  6  1  0
  2  9  1  0
  3  7  1  0
  3  4  1  0
  3 11  1  0
  3 12  1  0
  4  8  1  0
  4 13  1  0
  4 14  1  0
  5 10  1  0
  5 21  1  0
  5 22  1  0
  6 10  1  0
  6 23  1  0
  6 24  1  0
  7 15  1  0
  7 16  1  0
  7 17  1  0
  8 18  1  0
  8 19  1  0
  8 20  1  0
  9 25  1  0
  9 26  1  0
 10 27  1  0
M  RAD  1  10   2
M  END
>  <reaction>  (17) 
rmg_rxn_197

>  <mol_properties>  (17) 
{"0": {"label": "*3", "atom_type": "Cs"}, "1": {"label": "*4", "atom_type": "Cs"}, "6": {"label": "*2", "atom_type": "H0"}, "14": {"label": "*1", "atom_type": "Cs"}, "15": {"label": "*0", "atom_type": "Cs"}}

>  <type>  (17) 
unop_13

>  <geom_source>  (17) 
AutoTST

$$$$

     RDKit          3D

 27 26  0  0  0  0  0  0  0  0999 V2000
    0.1555    0.9904    0.3668 C   0  0  0  0  0  3  0  0  0  0  0  0
    0.1555    0.9904   -1.1552 C   0  0  0  0  0  0  0  0  0  0  0  0
    0.1555    2.3167   -1.6473 O   0  0  0  0  0  0  0  0  0  0  0  0
   -0.9273    3.0411   -1.1480 C   0  0  0  0  0  0  0  0  0  0  0  0
   -0.9160    3.1473    0.2431 O   0  0  0  0  0  0  0  0  0  0  0  0
   -0.9839    1.8736    0.8549 C   0  0  0  0  0  0  0  0  0  0  0  0
    0.0180   -0.2300    0.8251 H   0  0  0  0  0  0  0  0  0  0  0  0
    1.1049    1.3889    0.7298 H   0  0  0  0  0  0  0  0  0  0  0  0
    1.0413    0.5048   -1.5625 H   0  0  0  0  0  0  0  0  0  0  0  0
   -0.7320    0.4591   -1.5319 H   0  0  0  0  0  0  0  0  0  0  0  0
   -1.8699    2.5630   -1.4722 H   0  0  0  0  0  0  0  0  0  0  0  0
   -0.8550    4.0492   -1.5500 H   0  0  0  0  0  0  0  0  0  0  0  0
   -1.9516    1.4045    0.6196 H   0  0  0  0  0  0  0  0  0  0  0  0
   -0.9386    2.0396    1.9304 H   0  0  0  0  0  0  0  0  0  0  0  0
   -0.1195   -1.4491    1.2829 C   0  0  0  0  0  0  0  0  0  0  0  0
    0.4777   -2.4747    0.3288 C   0  0  0  0  0  0  0  0  0  0  0  0
    0.7373   -3.8241    0.9886 C   0  0  0  0  0  0  0  0  0  0  0  0
    1.3345   -4.8498    0.0346 C   0  0  0  0  0  0  0  0  0  0  0  0
    0.5471   -1.2673    2.1292 H   0  0  0  0  0  0  0  0  0  0  0  0
   -1.0744   -1.7971    1.6839 H   0  0  0  0  0  0  0  0  0  0  0  0
    1.4166   -2.0906   -0.0827 H   0  0  0  0  0  0  0  0  0  0  0  0
   -0.1930   -2.6165   -0.5248 H   0  0  0  0  0  0  0  0  0  0  0  0
    1.4080   -3.6824    1.8422 H   0  0  0  0  0  0  0  0  0  0  0  0
   -0.2016   -4.2083    1.4002 H   0  0  0  0  0  0  0  0  0  0  0  0
    2.2894   -4.5018   -0.3665 H   0  0  0  0  0  0  0  0  0  0  0  0
    0.6679   -5.0316   -0.8118 H   0  0  0  0  0  0  0  0  0  0  0  0
    1.5099   -5.8049    0.5322 H   0  0  0  0  0  0  0  0  0  0  0  0
  1  2  1  0
  1  6  1  0
  1  8  1  0
  2  3  1  0
  2  9  1  0
  2 10  1  0
  3  4  1  0
  4  5  1  0
  4 11  1  0
  4 12  1  0
  5  6  1  0
  6 13  1  0
  6 14  1  0
  7 15  1  0
 15 16  1  0
 15 19  1  0
 15 20  1  0
 16 17  1  0
 16 21  1  0
 16 22  1  0
 17 18  1  0
 17 23  1  0
 17 24  1  0
 18 25  1  0
 18 26  1  0
 18 27  1  0
M  RAD  1   1   2
M  END
>  <reaction>  (18) 
rmg_rxn_197

>  <mol_properties>  (18) 
{"0": {"label": "*3", "atom_type": "Cs"}, "1": {"label": "*4", "atom_type": "Cs"}, "6": {"label": "*2", "atom_type": "H0"}, "14": {"label": "*1", "atom_type": "Cs"}, "15": {"label": "*0", "atom_type": "Cs"}}

>  <type>  (18) 
unop_14

>  <geom_source>  (18) 
gaussian_log

$$$$
