
     RDKit          3D

  6  5  0  0  0  0  0  0  0  0999 V2000
   -0.4547   -0.0097   -0.0070 C   0  0  0  0  0  0  0  0  0  0  0  0
    0.8695   -0.1987   -0.6218 N   0  0  0  0  0  0  0  0  0  0  0  0
    1.0322   -1.2809   -1.0969 O   0  0  0  0  0  0  0  0  0  0  0  0
   -0.2820    0.2687    1.0347 H   0  0  0  0  0  0  0  0  0  0  0  0
   -1.0716   -0.9051   -0.0916 H   0  0  0  0  0  0  0  0  0  0  0  0
   -0.9130    0.8487   -0.5026 H   0  0  0  0  0  0  0  0  0  0  0  0
  1  2  1  0
  1  4  1  0
  1  5  1  0
  1  6  1  0
  2  3  2  0
M  END
>  <reaction>  (1) 
rmg_rxn_605

>  <mol_properties>  (1) 
{"0": {"label": "donator", "atom_type": "Cs"}, "3": {"label": "d_hydrogen", "atom_type": "H0"}}

>  <type>  (1) 
r1h

$$$$

     RDKit          3D

  8  7  0  0  0  0  0  0  0  0999 V2000
   -0.7853    0.0326    0.0393 C   0  0  0  0  0  0  0  0  0  0  0  0
    0.7379   -0.1211   -0.0579 C   0  0  0  0  0  0  0  0  0  0  0  0
    1.1315   -0.8282   -1.2106 N   0  0  0  0  0  1  0  0  0  0  0  0
   -1.2679   -0.9438    0.0768 H   0  0  0  0  0  0  0  0  0  0  0  0
   -1.0464    0.5840    0.9431 H   0  0  0  0  0  0  0  0  0  0  0  0
   -1.1718    0.5760   -0.8227 H   0  0  0  0  0  0  0  0  0  0  0  0
    1.2178    0.8698   -0.0686 H   0  0  0  0  0  0  0  0  0  0  0  0
    1.1219   -0.6479    0.8296 H   0  0  0  0  0  0  0  0  0  0  0  0
  1  2  1  0
  1  4  1  0
  1  5  1  0
  1  6  1  0
  2  3  1  0
  2  7  1  0
  2  8  1  0
M  RAD  1   3   3
M  END
>  <reaction>  (2) 
rmg_rxn_605

>  <mol_properties>  (2) 
{"2": {"label": "acceptor", "atom_type": "N3s"}}

>  <type>  (2) 
r2

$$$$

     RDKit          3D

  9  8  0  0  0  0  0  0  0  0999 V2000
   -1.0434   -0.0834    0.0221 C   0  0  0  0  0  0  0  0  0  0  0  0
    0.4680   -0.2131    0.0785 C   0  0  0  0  0  0  0  0  0  0  0  0
    0.9450   -1.3136   -0.7058 N   0  0  0  0  0  2  0  0  0  0  0  0
   -1.5170   -0.9919    0.3960 H   0  0  0  0  0  0  0  0  0  0  0  0
   -1.3864    0.7592    0.6249 H   0  0  0  0  0  0  0  0  0  0  0  0
   -1.3736    0.0696   -1.0061 H   0  0  0  0  0  0  0  0  0  0  0  0
    0.8045   -0.3309    1.1214 H   0  0  0  0  0  0  0  0  0  0  0  0
    0.9463    0.7186   -0.2648 H   0  0  0  0  0  0  0  0  0  0  0  0
    1.9638   -1.3321   -0.6157 H   0  0  0  0  0  0  0  0  0  0  0  0
  1  2  1  0
  1  4  1  0
  1  5  1  0
  1  6  1  0
  2  3  1  0
  2  7  1  0
  2  8  1  0
  3  9  1  0
M  RAD  1   3   2
M  END
>  <reaction>  (3) 
rmg_rxn_605

>  <mol_properties>  (3) 
{"0": {"label": "a_hydrogen", "atom_type": "H0"}, "3": {"label": "acceptor", "atom_type": "N3s"}}

>  <type>  (3) 
r2h

$$$$

     RDKit          3D

 14 12  0  0  0  0  0  0  0  0999 V2000
    1.5247    0.8292   -0.4446 C   0  0  0  0  0  0  0  0  0  0  0  0
    1.5777   -0.5223   -0.8170 N   0  0  0  0  0  0  0  0  0  0  0  0
    0.8318   -0.8402   -1.7219 O   0  0  0  0  0  1  0  0  0  0  0  0
    0.4984    0.9360    0.4097 H   0  0  0  0  0  0  0  0  0  0  0  0
    1.2250    1.5195   -1.2345 H   0  0  0  0  0  0  0  0  0  0  0  0
    2.3658    1.1271    0.1744 H   0  0  0  0  0  0  0  0  0  0  0  0
   -2.4638   -0.3826    1.7543 C   0  0  0  0  0  0  0  0  0  0  0  0
   -1.2262   -0.2562    0.8715 C   0  0  0  0  0  0  0  0  0  0  0  0
   -0.5385    0.9631    1.1190 N   0  0  0  0  0  2  0  0  0  0  0  0
   -3.1550    0.4392    1.5678 H   0  0  0  0  0  0  0  0  0  0  0  0
   -2.9763   -1.3217    1.5433 H   0  0  0  0  0  0  0  0  0  0  0  0
   -2.1878   -0.3675    2.8085 H   0  0  0  0  0  0  0  0  0  0  0  0
   -0.5437   -1.1039    1.0345 H   0  0  0  0  0  0  0  0  0  0  0  0
   -1.4976   -0.3046   -0.1940 H   0  0  0  0  0  0  0  0  0  0  0  0
  1  2  2  3
  1  5  1  0
  1  6  1  0
  2  3  1  0
  4  9  1  0
  7  8  1  0
  7 10  1  0
  7 11  1  0
  7 12  1  0
  8  9  1  0
  8 13  1  0
  8 14  1  0
M  RAD  2   3   2   9   2
M  END
>  <reaction>  (4) 
rmg_rxn_605

>  <mol_properties>  (4) 
{"0": {"label": "*3", "atom_type": "Cd"}, "1": {"label": "*4", "atom_type": "N3d"}, "3": {"label": "*2", "atom_type": "H0"}, "7": {"label": "*0", "atom_type": "Cs"}, "8": {"label": "*1", "atom_type": "N3s"}}

>  <type>  (4) 
ts

$$$$

     RDKit          3D

 14 12  0  0  0  0  0  0  0  0999 V2000
    0.9949    0.1222   -0.8940 C   0  0  0  0  0  0  0  0  0  0  0  0
    0.9949   -1.2236   -1.4908 N   0  0  0  0  0  0  0  0  0  0  0  0
    0.9949   -1.2236   -2.6839 O   0  0  0  0  0  1  0  0  0  0  0  0
   -0.0611    0.1936   -0.1214 H   0  0  0  0  0  0  0  0  0  0  0  0
    0.9949    0.9027   -1.6558 H   0  0  0  0  0  0  0  0  0  0  0  0
    1.8749    0.1817   -0.2502 H   0  0  0  0  0  0  0  0  0  0  0  0
   -1.4707    1.5190    2.6605 C   0  0  0  0  0  0  0  0  0  0  0  0
   -0.5874    0.5213    1.9333 C   0  0  0  0  0  0  0  0  0  0  0  0
   -1.0503    0.2605    0.6023 N   0  0  0  0  0  2  0  0  0  0  0  0
   -2.4923    1.1433    2.7285 H   0  0  0  0  0  0  0  0  0  0  0  0
   -1.1019    1.7039    3.6709 H   0  0  0  0  0  0  0  0  0  0  0  0
   -1.4958    2.4673    2.1224 H   0  0  0  0  0  0  0  0  0  0  0  0
    0.4526    0.8844    1.8970 H   0  0  0  0  0  0  0  0  0  0  0  0
   -0.5326   -0.4247    2.4962 H   0  0  0  0  0  0  0  0  0  0  0  0
  1  2  2  3
  1  5  1  0
  1  6  1  0
  2  3  1  0
  4  9  1  0
  7  8  1  0
  7 10  1  0
  7 11  1  0
  7 12  1  0
  8  9  1  0
  8 13  1  0
  8 14  1  0
M  RAD  2   3   2   9   2
M  END
>  <reaction>  (5) 
rmg_rxn_605

>  <mol_properties>  (5) 
{"0": {"label": "*3", "atom_type": "Cd"}, "1": {"label": "*4", "atom_type": "N3d"}, "3": {"label": "*2", "atom_type": "H0"}, "7": {"label": "*0", "atom_type": "Cs"}, "8": {"label": "*1", "atom_type": "N3s"}}

>  <type>  (5) 
unop_1

>  <geom_source>  (5) 
Heuristics

$$$$

     RDKit          3D

 14 12  0  0  0  0  0  0  0  0999 V2000
    1.2395    0.8272   -0.6948 C   0  0  0  0  0  0  0  0  0  0  0  0
    1.2395   -0.5186   -1.2916 N   0  0  0  0  0  0  0  0  0  0  0  0
    1.2395   -0.5186   -2.4847 O   0  0  0  0  0  1  0  0  0  0  0  0
    0.1835    0.8986    0.0778 H   0  0  0  0  0  0  0  0  0  0  0  0
    1.2395    1.6077   -1.4566 H   0  0  0  0  0  0  0  0  0  0  0  0
    2.1195    0.8867   -0.0510 H   0  0  0  0  0  0  0  0  0  0  0  0
   -1.9435   -0.3468    2.5279 C   0  0  0  0  0  0  0  0  0  0  0  0
   -1.0677   -0.3568    1.2881 C   0  0  0  0  0  0  0  0  0  0  0  0
   -0.8058    0.9655    0.8015 N   0  0  0  0  0  2  0  0  0  0  0  0
   -2.9018    0.1272    2.3124 H   0  0  0  0  0  0  0  0  0  0  0  0
   -2.1311   -1.3618    2.8824 H   0  0  0  0  0  0  0  0  0  0  0  0
   -1.4621    0.2159    3.3287 H   0  0  0  0  0  0  0  0  0  0  0  0
   -0.1139   -0.8685    1.4959 H   0  0  0  0  0  0  0  0  0  0  0  0
   -1.5373   -0.9562    0.4912 H   0  0  0  0  0  0  0  0  0  0  0  0
  1  2  2  3
  1  5  1  0
  1  6  1  0
  2  3  1  0
  4  9  1  0
  7  8  1  0
  7 10  1  0
  7 11  1  0
  7 12  1  0
  8  9  1  0
  8 13  1  0
  8 14  1  0
M  RAD  2   3   2   9   2
M  END
>  <reaction>  (6) 
rmg_rxn_605

>  <mol_properties>  (6) 
{"0": {"label": "*3", "atom_type": "Cd"}, "1": {"label": "*4", "atom_type": "N3d"}, "3": {"label": "*2", "atom_type": "H0"}, "7": {"label": "*0", "atom_type": "Cs"}, "8": {"label": "*1", "atom_type": "N3s"}}

>  <type>  (6) 
unop_2

>  <geom_source>  (6) 
Heuristics

$$$$

     RDKit          3D

 14 12  0  0  0  0  0  0  0  0999 V2000
    1.1050   -0.0453   -0.7723 C   0  0  0  0  0  0  0  0  0  0  0  0
    1.1050   -1.3910   -1.3691 N   0  0  0  0  0  0  0  0  0  0  0  0
    1.1050   -1.3910   -2.5623 O   0  0  0  0  0  1  0  0  0  0  0  0
    0.0489    0.0261    0.0002 H   0  0  0  0  0  0  0  0  0  0  0  0
    1.1050    0.7352   -1.5341 H   0  0  0  0  0  0  0  0  0  0  0  0
    1.9850    0.0142   -0.1285 H   0  0  0  0  0  0  0  0  0  0  0  0
   -1.8597    1.6990    2.3278 C   0  0  0  0  0  0  0  0  0  0  0  0
   -0.6261    0.9948    1.7926 C   0  0  0  0  0  0  0  0  0  0  0  0
   -0.9403    0.0930    0.7240 N   0  0  0  0  0  2  0  0  0  0  0  0
   -2.5796    0.9713    2.7040 H   0  0  0  0  0  0  0  0  0  0  0  0
   -1.5996    2.3804    3.1397 H   0  0  0  0  0  0  0  0  0  0  0  0
   -2.3433    2.2727    1.5362 H   0  0  0  0  0  0  0  0  0  0  0  0
    0.1168    1.7316    1.4462 H   0  0  0  0  0  0  0  0  0  0  0  0
   -0.1169    0.4450    2.6008 H   0  0  0  0  0  0  0  0  0  0  0  0
  1  2  2  3
  1  5  1  0
  1  6  1  0
  2  3  1  0
  4  9  1  0
  7  8  1  0
  7 10  1  0
  7 11  1  0
  7 12  1  0
  8  9  1  0
  8 13  1  0
  8 14  1  0
M  RAD  2   3   2   9   2
M  END
>  <reaction>  (7) 
rmg_rxn_605

>  <mol_properties>  (7) 
{"0": {"label": "*3", "atom_type": "Cd"}, "1": {"label": "*4", "atom_type": "N3d"}, "3": {"label": "*2", "atom_type": "H0"}, "7": {"label": "*0", "atom_type": "Cs"}, "8": {"label": "*1", "atom_type": "N3s"}}

>  <type>  (7) 
unop_3

>  <geom_source>  (7) 
Heuristics

$$$$

     RDKit          3D

 14 12  0  0  0  0  0  0  0  0999 V2000
    1.5962    0.3180   -0.1185 C   0  0  0  0  0  0  0  0  0  0  0  0
    1.5962   -1.0278   -0.7153 N   0  0  0  0  0  0  0  0  0  0  0  0
    1.5962   -1.0278   -1.9084 O   0  0  0  0  0  1  0  0  0  0  0  0
    0.5402    0.3894    0.6541 H   0  0  0  0  0  0  0  0  0  0  0  0
    1.5962    1.0984   -0.8802 H   0  0  0  0  0  0  0  0  0  0  0  0
    2.4762    0.3775    0.5254 H   0  0  0  0  0  0  0  0  0  0  0  0
   -2.8017    1.0363    1.0235 C   0  0  0  0  0  0  0  0  0  0  0  0
   -1.5984    0.2418    0.5491 C   0  0  0  0  0  0  0  0  0  0  0  0
   -0.4491    0.4562    1.3779 N   0  0  0  0  0  2  0  0  0  0  0  0
   -2.5785    2.1039    1.0177 H   0  0  0  0  0  0  0  0  0  0  0  0
   -3.6654    0.8596    0.3802 H   0  0  0  0  0  0  0  0  0  0  0  0
   -3.0660    0.7533    2.0431 H   0  0  0  0  0  0  0  0  0  0  0  0
   -1.8359   -0.8341    0.5200 H   0  0  0  0  0  0  0  0  0  0  0  0
   -1.3540    0.5012   -0.4938 H   0  0  0  0  0  0  0  0  0  0  0  0
  1  2  2  3
  1  5  1  0
  1  6  1  0
  2  3  1  0
  4  9  1  0
  7  8  1  0
  7 10  1  0
  7 11  1  0
  7 12  1  0
  8  9  1  0
  8 13  1  0
  8 14  1  0
M  RAD  2   3   2   9   2
M  END
>  <reaction>  (8) 
rmg_rxn_605

>  <mol_properties>  (8) 
{"0": {"label": "*3", "atom_type": "Cd"}, "1": {"label": "*4", "atom_type": "N3d"}, "3": {"label": "*2", "atom_type": "H0"}, "7": {"label": "*0", "atom_type": "Cs"}, "8": {"label": "*1", "atom_type": "N3s"}}

>  <type>  (8) 
unop_4

>  <geom_source>  (8) 
Heuristics

$$$$

     RDKit          3D

 14 12  0  0  0  0  0  0  0  0999 V2000
    1.2073   -0.0975   -0.6751 C   0  0  0  0  0  0  0  0  0  0  0  0
    1.2073   -1.4432   -1.2719 N   0  0  0  0  0  0  0  0  0  0  0  0
    1.2073   -1.4432   -2.4650 O   0  0  0  0  0  1  0  0  0  0  0  0
    0.1513   -0.0261    0.0975 H   0  0  0  0  0  0  0  0  0  0  0  0
    1.2073    0.6830   -1.4368 H   0  0  0  0  0  0  0  0  0  0  0  0
    2.0873   -0.0380   -0.0312 H   0  0  0  0  0  0  0  0  0  0  0  0
   -2.0363    1.5506    2.3316 C   0  0  0  0  0  0  0  0  0  0  0  0
   -0.8485    1.3481    1.4084 C   0  0  0  0  0  0  0  0  0  0  0  0
   -0.8379    0.0408    0.8213 N   0  0  0  0  0  2  0  0  0  0  0  0
   -2.0176    0.8198    3.1409 H   0  0  0  0  0  0  0  0  0  0  0  0
   -2.0262    2.5509    2.7681 H   0  0  0  0  0  0  0  0  0  0  0  0
   -2.9702    1.4219    1.7832 H   0  0  0  0  0  0  0  0  0  0  0  0
   -0.8472    2.1097    0.6117 H   0  0  0  0  0  0  0  0  0  0  0  0
    0.0946    1.5144    1.9540 H   0  0  0  0  0  0  0  0  0  0  0  0
  1  2  2  3
  1  5  1  0
  1  6  1  0
  2  3  1  0
  4  9  1  0
  7  8  1  0
  7 10  1  0
  7 11  1  0
  7 12  1  0
  8  9  1  0
  8 13  1  0
  8 14  1  0
M  RAD  2   3   2   9   2
M  END
>  <reaction>  (9) 
rmg_rxn_605

>  <mol_properties>  (9) 
{"0": {"label": "*3", "atom_type": "Cd"}, "1": {"label": "*4", "atom_type": "N3d"}, "3": {"label": "*2", "atom_type": "H0"}, "7": {"label": "*0", "atom_type": "Cs"}, "8": {"label": "*1", "atom_type": "N3s"}}

>  <type>  (9) 
unop_5

>  <geom_source>  (9) 
Heuristics

$$$$

     RDKit          3D

 14 12  0  0  0  0  0  0  0  0999 V2000
    1.5152    0.0442   -0.1747 C   0  0  0  0  0  0  0  0  0  0  0  0
    1.5152   -1.3016   -0.7715 N   0  0  0  0  0  0  0  0  0  0  0  0
    1.5152   -1.3016   -1.9646 O   0  0  0  0  0  1  0  0  0  0  0  0
    0.4592    0.1156    0.5979 H   0  0  0  0  0  0  0  0  0  0  0  0
    1.5152    0.8246   -0.9364 H   0  0  0  0  0  0  0  0  0  0  0  0
    2.3952    0.1037    0.4691 H   0  0  0  0  0  0  0  0  0  0  0  0
   -2.4733    1.6718    1.2709 C   0  0  0  0  0  0  0  0  0  0  0  0
   -1.6120    0.6726    0.5198 C   0  0  0  0  0  0  0  0  0  0  0  0
   -0.5301    0.1824    1.3217 N   0  0  0  0  0  2  0  0  0  0  0  0
   -1.8753    2.5275    1.5864 H   0  0  0  0  0  0  0  0  0  0  0  0
   -3.2905    2.0327    0.6441 H   0  0  0  0  0  0  0  0  0  0  0  0
   -2.8991    1.2114    2.1633 H   0  0  0  0  0  0  0  0  0  0  0  0
   -2.2238   -0.1745    0.1693 H   0  0  0  0  0  0  0  0  0  0  0  0
   -1.2116    1.1268   -0.4011 H   0  0  0  0  0  0  0  0  0  0  0  0
  1  2  2  3
  1  5  1  0
  1  6  1  0
  2  3  1  0
  4  9  1  0
  7  8  1  0
  7 10  1  0
  7 11  1  0
  7 12  1  0
  8  9  1  0
  8 13  1  0
  8 14  1  0
M  RAD  2   3   2   9   2
M  END
>  <reaction>  (10) 
rmg_rxn_605

>  <mol_properties>  (10) 
{"0": {"label": "*3", "atom_type": "Cd"}, "1": {"label": "*4", "atom_type": "N3d"}, "3": {"label": "*2", "atom_type": "H0"}, "7": {"label": "*0", "atom_type": "Cs"}, "8": {"label": "*1", "atom_type": "N3s"}}

>  <type>  (10) 
unop_6

>  <geom_source>  (10) 
Heuristics

$$$$

     RDKit          3D

 14 12  0  0  0  0  0  0  0  0999 V2000
    1.3816   -0.1222   -0.3429 C   0  0  0  0  0  0  0  0  0  0  0  0
    1.3816   -1.4680   -0.9397 N   0  0  0  0  0  0  0  0  0  0  0  0
    1.3816   -1.4680   -2.1328 O   0  0  0  0  0  1  0  0  0  0  0  0
    0.3256   -0.0508    0.4297 H   0  0  0  0  0  0  0  0  0  0  0  0
    1.3816    0.6583   -1.1047 H   0  0  0  0  0  0  0  0  0  0  0  0
    2.2616   -0.0627    0.3009 H   0  0  0  0  0  0  0  0  0  0  0  0
   -2.0853    1.9075    1.7845 C   0  0  0  0  0  0  0  0  0  0  0  0
   -1.4803    1.0857    0.6607 C   0  0  0  0  0  0  0  0  0  0  0  0
   -0.6637    0.0161    1.1534 N   0  0  0  0  0  2  0  0  0  0  0  0
   -1.2993    2.3431    2.4025 H   0  0  0  0  0  0  0  0  0  0  0  0
   -2.7029    2.7158    1.3891 H   0  0  0  0  0  0  0  0  0  0  0  0
   -2.7063    1.2785    2.4235 H   0  0  0  0  0  0  0  0  0  0  0  0
   -2.2737    0.6758    0.0147 H   0  0  0  0  0  0  0  0  0  0  0  0
   -0.8827    1.7283   -0.0061 H   0  0  0  0  0  0  0  0  0  0  0  0
  1  2  2  3
  1  5  1  0
  1  6  1  0
  2  3  1  0
  4  9  1  0
  7  8  1  0
  7 10  1  0
  7 11  1  0
  7 12  1  0
  8  9  1  0
  8 13  1  0
  8 14  1  0
M  RAD  2   3   2   9   2
M  END
>  <reaction>  (11) 
rmg_rxn_605

>  <mol_properties>  (11) 
{"0": {"label": "*3", "atom_type": "Cd"}, "1": {"label": "*4", "atom_type": "N3d"}, "3": {"label": "*2", "atom_type": "H0"}, "7": {"label": "*0", "atom_type": "Cs"}, "8": {"label": "*1", "atom_type": "N3s"}}

>  <type>  (11) 
unop_7

>  <geom_source>  (11) 
Heuristics

$$$$

     RDKit          3D

 14 12  0  0  0  0  0  0  0  0999 V2000
    0.9722    0.3874   -0.9486 C   0  0  0  0  0  0  0  0  0  0  0  0
    0.9722   -0.9584   -1.5454 N   0  0  0  0  0  0  0  0  0  0  0  0
    0.9722   -0.9584   -2.7385 O   0  0  0  0  0  1  0  0  0  0  0  0
   -0.0838    0.4588   -0.1760 H   0  0  0  0  0  0  0  0  0  0  0  0
    0.9722    1.1679   -1.7104 H   0  0  0  0  0  0  0  0  0  0  0  0
    1.8522    0.4469   -0.3048 H   0  0  0  0  0  0  0  0  0  0  0  0
   -1.2927    0.9255    2.9537 C   0  0  0  0  0  0  0  0  0  0  0  0
   -0.6776    0.0819    1.8517 C   0  0  0  0  0  0  0  0  0  0  0  0
   -1.0731    0.5257    0.5477 N   0  0  0  0  0  2  0  0  0  0  0  0
   -2.3813    0.8841    2.9013 H   0  0  0  0  0  0  0  0  0  0  0  0
   -0.9797    0.5721    3.9377 H   0  0  0  0  0  0  0  0  0  0  0  0
   -0.9900    1.9680    2.8481 H   0  0  0  0  0  0  0  0  0  0  0  0
    0.4219    0.0942    1.9272 H   0  0  0  0  0  0  0  0  0  0  0  0
   -0.9536   -0.9774    1.9797 H   0  0  0  0  0  0  0  0  0  0  0  0
  1  2  2  3
  1  5  1  0
  1  6  1  0
  2  3  1  0
  4  9  1  0
  7  8  1  0
  7 10  1  0
  7 11  1  0
  7 12  1  0
  8  9  1  0
  8 13  1  0
  8 14  1  0
M  RAD  2   3   2   9   2
M  END
>  <reaction>  (12) 
rmg_rxn_605

>  <mol_properties>  (12) 
{"0": {"label": "*3", "atom_type": "Cd"}, "1": {"label": "*4", "atom_type": "N3d"}, "3": {"label": "*2", "atom_type": "H0"}, "7": {"label": "*0", "atom_type": "Cs"}, "8": {"label": "*1", "atom_type": "N3s"}}

>  <type>  (12) 
unop_8

>  <geom_source>  (12) 
Heuristics

$$$$

     RDKit          3D

 14 12  0  0  0  0  0  0  0  0999 V2000
    1.5778    0.6133   -0.2126 C   0  0  0  0  0  0  0  0  0  0  0  0
    1.5778   -0.7324   -0.8094 N   0  0  0  0  0  0  0  0  0  0  0  0
    1.5778   -0.7324   -2.0025 O   0  0  0  0  0  1  0  0  0  0  0  0
    0.5218    0.6847    0.5600 H   0  0  0  0  0  0  0  0  0  0  0  0
    1.5778    1.3938   -0.9744 H   0  0  0  0  0  0  0  0  0  0  0  0
    2.4579    0.6728    0.4312 H   0  0  0  0  0  0  0  0  0  0  0  0
   -2.8598    0.2324    1.2219 C   0  0  0  0  0  0  0  0  0  0  0  0
   -1.4681   -0.1037    0.7174 C   0  0  0  0  0  0  0  0  0  0  0  0
   -0.4674    0.7516    1.2838 N   0  0  0  0  0  2  0  0  0  0  0  0
   -3.1170    1.2619    0.9700 H   0  0  0  0  0  0  0  0  0  0  0  0
   -3.6065   -0.4292    0.7795 H   0  0  0  0  0  0  0  0  0  0  0  0
   -2.9058    0.1297    2.3067 H   0  0  0  0  0  0  0  0  0  0  0  0
   -1.2227   -1.1550    0.9395 H   0  0  0  0  0  0  0  0  0  0  0  0
   -1.4315   -0.0357   -0.3821 H   0  0  0  0  0  0  0  0  0  0  0  0
  1  2  2  3
  1  5  1  0
  1  6  1  0
  2  3  1  0
  4  9  1  0
  7  8  1  0
  7 10  1  0
  7 11  1  0
  7 12  1  0
  8  9  1  0
  8 13  1  0
  8 14  1  0
M  RAD  2   3   2   9   2
M  END
>  <reaction>  (13) 
rmg_rxn_605

>  <mol_properties>  (13) 
{"0": {"label": "*3", "atom_type": "Cd"}, "1": {"label": "*4", "atom_type": "N3d"}, "3": {"label": "*2", "atom_type": "H0"}, "7": {"label": "*0", "atom_type": "Cs"}, "8": {"label": "*1", "atom_type": "N3s"}}

>  <type>  (13) 
unop_9

>  <geom_source>  (13) 
Heuristics

$$$$

     RDKit          3D

 14 12  0  0  0  0  0  0  0  0999 V2000
    1.0601    0.6568   -0.8825 C   0  0  0  0  0  0  0  0  0  0  0  0
    1.0601   -0.6890   -1.4793 N   0  0  0  0  0  0  0  0  0  0  0  0
    1.0601   -0.6890   -2.6724 O   0  0  0  0  0  1  0  0  0  0  0  0
    0.0041    0.7282   -0.1099 H   0  0  0  0  0  0  0  0  0  0  0  0
    1.0601    1.4373   -1.6443 H   0  0  0  0  0  0  0  0  0  0  0  0
    1.9401    0.7163   -0.2387 H   0  0  0  0  0  0  0  0  0  0  0  0
   -1.4582    0.1872    2.9383 C   0  0  0  0  0  0  0  0  0  0  0  0
   -0.8549   -0.2281    1.6087 C   0  0  0  0  0  0  0  0  0  0  0  0
   -0.9851    0.7951    0.6138 N   0  0  0  0  0  2  0  0  0  0  0  0
   -2.5198    0.4081    2.8215 H   0  0  0  0  0  0  0  0  0  0  0  0
   -1.3490   -0.6045    3.6816 H   0  0  0  0  0  0  0  0  0  0  0  0
   -0.9669    1.0852    3.3147 H   0  0  0  0  0  0  0  0  0  0  0  0
    0.2091   -0.4868    1.7340 H   0  0  0  0  0  0  0  0  0  0  0  0
   -1.3262   -1.1562    1.2465 H   0  0  0  0  0  0  0  0  0  0  0  0
  1  2  2  3
  1  5  1  0
  1  6  1  0
  2  3  1  0
  4  9  1  0
  7  8  1  0
  7 10  1  0
  7 11  1  0
  7 12  1  0
  8  9  1  0
  8 13  1  0
  8 14  1  0
M  RAD  2   3   2   9   2
M  END
>  <reaction>  (14) 
rmg_rxn_605

>  <mol_properties>  (14) 
{"0": {"label": "*3", "atom_type": "Cd"}, "1": {"label": "*4", "atom_type": "N3d"}, "3": {"label": "*2", "atom_type": "H0"}, "7": {"label": "*0", "atom_type": "Cs"}, "8": {"label": "*1", "atom_type": "N3s"}}

>  <type>  (14) 
unop_10

>  <geom_source>  (14) 
Heuristics

$$$$

     RDKit          3D

 14 12  0  0  0  0  0  0  0  0999 V2000
    1.2647   -0.1462   -0.5447 C   0  0  0  0  0  0  0  0  0  0  0  0
    1.2647   -1.4920   -1.1415 N   0  0  0  0  0  0  0  0  0  0  0  0
    1.2647   -1.4920   -2.3346 O   0  0  0  0  0  1  0  0  0  0  0  0
    0.2087   -0.0748    0.2279 H   0  0  0  0  0  0  0  0  0  0  0  0
    1.2647    0.6342   -1.3065 H   0  0  0  0  0  0  0  0  0  0  0  0
    2.1447   -0.0867    0.0991 H   0  0  0  0  0  0  0  0  0  0  0  0
   -1.9048    1.7276    2.2635 C   0  0  0  0  0  0  0  0  0  0  0  0
   -1.2051    1.3607    0.9673 C   0  0  0  0  0  0  0  0  0  0  0  0
   -0.7806   -0.0080    0.9517 N   0  0  0  0  0  2  0  0  0  0  0  0
   -1.2374    1.5737    3.1123 H   0  0  0  0  0  0  0  0  0  0  0  0
   -2.2199    2.7724    2.2557 H   0  0  0  0  0  0  0  0  0  0  0  0
   -2.7858    1.1016    2.4102 H   0  0  0  0  0  0  0  0  0  0  0  0
   -1.8668    1.5510    0.1067 H   0  0  0  0  0  0  0  0  0  0  0  0
   -0.3360    2.0178    0.8009 H   0  0  0  0  0  0  0  0  0  0  0  0
  1  2  2  3
  1  5  1  0
  1  6  1  0
  2  3  1  0
  4  9  1  0
  7  8  1  0
  7 10  1  0
  7 11  1  0
  7 12  1  0
  8  9  1  0
  8 13  1  0
  8 14  1  0
M  RAD  2   3   2   9   2
M  END
>  <reaction>  (15) 
rmg_rxn_605

>  <mol_properties>  (15) 
{"0": {"label": "*3", "atom_type": "Cd"}, "1": {"label": "*4", "atom_type": "N3d"}, "3": {"label": "*2", "atom_type": "H0"}, "7": {"label": "*0", "atom_type": "Cs"}, "8": {"label": "*1", "atom_type": "N3s"}}

>  <type>  (15) 
unop_11

>  <geom_source>  (15) 
Heuristics

$$$$

     RDKit          3D

 14 12  0  0  0  0  0  0  0  0999 V2000
    1.4436    0.8145   -0.4364 C   0  0  0  0  0  0  0  0  0  0  0  0
    1.4436   -0.5313   -1.0332 N   0  0  0  0  0  0  0  0  0  0  0  0
    1.4436   -0.5313   -2.2263 O   0  0  0  0  0  1  0  0  0  0  0  0
    0.3876    0.8859    0.3362 H   0  0  0  0  0  0  0  0  0  0  0  0
    1.4436    1.5949   -1.1982 H   0  0  0  0  0  0  0  0  0  0  0  0
    2.3236    0.8740    0.2074 H   0  0  0  0  0  0  0  0  0  0  0  0
   -2.5276   -0.3458    1.8353 C   0  0  0  0  0  0  0  0  0  0  0  0
   -1.2776   -0.3081    0.9750 C   0  0  0  0  0  0  0  0  0  0  0  0
   -0.6017    0.9528    1.0599 N   0  0  0  0  0  2  0  0  0  0  0  0
   -3.2269    0.4311    1.5239 H   0  0  0  0  0  0  0  0  0  0  0  0
   -3.0272   -1.3129    1.7570 H   0  0  0  0  0  0  0  0  0  0  0  0
   -2.2743   -0.1710    2.8816 H   0  0  0  0  0  0  0  0  0  0  0  0
   -0.5870   -1.1165    1.2655 H   0  0  0  0  0  0  0  0  0  0  0  0
   -1.5288   -0.5212   -0.0768 H   0  0  0  0  0  0  0  0  0  0  0  0
  1  2  2  3
  1  5  1  0
  1  6  1  0
  2  3  1  0
  4  9  1  0
  7  8  1  0
  7 10  1  0
  7 11  1  0
  7 12  1  0
  8  9  1  0
  8 13  1  0
  8 14  1  0
M  RAD  2   3   2   9   2
M  END
>  <reaction>  (16) 
rmg_rxn_605

>  <mol_properties>  (16) 
{"0": {"label": "*3", "atom_type": "Cd"}, "1": {"label": "*4", "atom_type": "N3d"}, "3": {"label": "*2", "atom_type": "H0"}, "7": {"label": "*0", "atom_type": "Cs"}, "8": {"label": "*1", "atom_type": "N3s"}}

>  <type>  (16) 
unop_12

>  <geom_source>  (16) 
Heuristics

$$$$

     RDKit          3D

 14 12  0  0  0  0  0  0  0  0999 V2000
    1.2395    0.8272   -0.6948 C   0  0  0  0  0  0  0  0  0  0  0  0
    1.2395   -0.5186   -1.2916 N   0  0  0  0  0  0  0  0  0  0  0  0
    1.2395   -0.5186   -2.4847 O   0  0  0  0  0  1  0  0  0  0  0  0
    0.1835    0.8986    0.0778 H   0  0  0  0  0  0  0  0  0  0  0  0
    1.2395    1.6077   -1.4566 H   0  0  0  0  0  0  0  0  0  0  0  0
    2.1195    0.8867   -0.0510 H   0  0  0  0  0  0  0  0  0  0  0  0
   -1.9435   -0.3468    2.5279 C   0  0  0  0  0  0  0  0  0  0  0  0
   -1.0677   -0.3568    1.2881 C   0  0  0  0  0  0  0  0  0  0  0  0
   -0.8058    0.9655    0.8015 N   0  0  0  0  0  2  0  0  0  0  0  0
   -2.9018    0.1272    2.3125 H   0  0  0  0  0  0  0  0  0  0  0  0
   -2.1311   -1.3618    2.8824 H   0  0  0  0  0  0  0  0  0  0  0  0
   -1.4621    0.2159    3.3287 H   0  0  0  0  0  0  0  0  0  0  0  0
   -0.1139   -0.8685    1.4959 H   0  0  0  0  0  0  0  0  0  0  0  0
   -1.5373   -0.9562    0.4912 H   0  0  0  0  0  0  0  0  0  0  0  0
  1  2  2  3
  1  5  1  0
  1  6  1  0
  2  3  1  0
  4  9  1  0
  7  8  1  0
  7 10  1  0
  7 11  1  0
  7 12  1  0
  8  9  1  0
  8 13  1  0
  8 14  1  0
M  RAD  2   3   2   9   2
M  END
>  <reaction>  (17) 
rmg_rxn_605

>  <mol_properties>  (17) 
{"0": {"label": "*3", "atom_type": "Cd"}, "1": {"label": "*4", "atom_type": "N3d"}, "3": {"label": "*2", "atom_type": "H0"}, "7": {"label": "*0", "atom_type": "Cs"}, "8": {"label": "*1", "atom_type": "N3s"}}

>  <type>  (17) 
unop_13

>  <geom_source>  (17) 
gaussian_log

$$$$
