
     RDKit          3D

 12 11  0  0  0  0  0  0  0  0999 V2000
    1.8075    0.1979    0.4695 C   0  0  0  0  0  0  0  0  0  0  0  0
    1.0072   -0.8859   -0.7259 S   0  0  0  0  0  0  0  0  0  0  0  0
   -0.7258   -0.6904   -0.2447 C   0  0  0  0  0  0  0  0  0  0  0  0
   -1.0856   -1.2776    1.1108 C   0  0  0  0  0  0  0  0  0  0  0  0
    1.7126   -0.1777    1.4878 H   0  0  0  0  0  0  0  0  0  0  0  0
    1.4024    1.2089    0.4095 H   0  0  0  0  0  0  0  0  0  0  0  0
    2.8647    0.2298    0.2095 H   0  0  0  0  0  0  0  0  0  0  0  0
   -1.2866   -1.1892   -1.0369 H   0  0  0  0  0  0  0  0  0  0  0  0
   -0.9814    0.3707   -0.2917 H   0  0  0  0  0  0  0  0  0  0  0  0
   -0.5492   -0.7768    1.9180 H   0  0  0  0  0  0  0  0  0  0  0  0
   -0.8418   -2.3397    1.1503 H   0  0  0  0  0  0  0  0  0  0  0  0
   -2.1545   -1.1604    1.3035 H   0  0  0  0  0  0  0  0  0  0  0  0
  1  2  1  0
  1  5  1  0
  1  6  1  0
  1  7  1  0
  2  3  1  0
  3  4  1  0
  3  8  1  0
  3  9  1  0
  4 10  1  0
  4 11  1  0
  4 12  1  0
M  END
>  <reaction>  (1) 
rmg_rxn_526

>  <mol_properties>  (1) 
{"0": {"label": "donator", "atom_type": "Cs"}, "4": {"label": "d_hydrogen", "atom_type": "H0"}}

>  <type>  (1) 
r1h

$$$$

     RDKit          3D

 13 13  0  0  0  0  0  0  0  0999 V2000
   -1.1371    0.3608    0.3110 C   0  0  0  0  0  3  0  0  0  0  0  0
   -0.0045    1.3224    0.2943 C   0  0  0  0  0  0  0  0  0  0  0  0
    1.2245    0.6965    0.6137 O   0  0  0  0  0  0  0  0  0  0  0  0
    1.3926   -0.4921   -0.0955 C   0  0  0  0  0  0  0  0  0  0  0  0
    0.4387   -1.4537    0.2351 O   0  0  0  0  0  0  0  0  0  0  0  0
   -0.8659   -1.0349   -0.1206 C   0  0  0  0  0  0  0  0  0  0  0  0
   -2.1544    0.7285    0.3341 H   0  0  0  0  0  0  0  0  0  0  0  0
   -0.1488    2.1272    1.0165 H   0  0  0  0  0  0  0  0  0  0  0  0
    0.0825    1.7949   -0.7036 H   0  0  0  0  0  0  0  0  0  0  0  0
    1.3549   -0.2872   -1.1815 H   0  0  0  0  0  0  0  0  0  0  0  0
    2.3646   -0.8956    0.1787 H   0  0  0  0  0  0  0  0  0  0  0  0
   -1.5620   -1.7401    0.3358 H   0  0  0  0  0  0  0  0  0  0  0  0
   -0.9852   -1.1268   -1.2179 H   0  0  0  0  0  0  0  0  0  0  0  0
  1  2  1  0
  1  6  1  0
  1  7  1  0
  2  3  1  0
  2  8  1  0
  2  9  1  0
  3  4  1  0
  4  5  1  0
  4 10  1  0
  4 11  1  0
  5  6  1  0
  6 12  1  0
  6 13  1  0
M  RAD  1   1   2
M  END
>  <reaction>  (2) 
rmg_rxn_526

>  <mol_properties>  (2) 
{"0": {"label": "acceptor", "atom_type": "Cs"}}

>  <type>  (2) 
r2

$$$$

     RDKit          3D

 14 14  0  0  0  0  0  0  0  0999 V2000
   -1.1778    0.2241    0.1818 C   0  0  0  0  0  0  0  0  0  0  0  0
   -0.5633   -1.1636    0.0678 C   0  0  0  0  0  0  0  0  0  0  0  0
    0.6943   -1.1996    0.7146 O   0  0  0  0  0  0  0  0  0  0  0  0
    1.5547   -0.2288    0.2011 C   0  0  0  0  0  0  0  0  0  0  0  0
    1.0729    1.0696    0.3698 O   0  0  0  0  0  0  0  0  0  0  0  0
   -0.1607    1.2493   -0.2989 C   0  0  0  0  0  0  0  0  0  0  0  0
   -2.0927    0.2866   -0.4117 H   0  0  0  0  0  0  0  0  0  0  0  0
   -1.4303    0.4248    1.2248 H   0  0  0  0  0  0  0  0  0  0  0  0
   -1.1822   -1.9235    0.5431 H   0  0  0  0  0  0  0  0  0  0  0  0
   -0.4389   -1.4347   -0.9919 H   0  0  0  0  0  0  0  0  0  0  0  0
    1.7250   -0.4207   -0.8742 H   0  0  0  0  0  0  0  0  0  0  0  0
    2.4896   -0.3010    0.7524 H   0  0  0  0  0  0  0  0  0  0  0  0
   -0.0080    1.1481   -1.3844 H   0  0  0  0  0  0  0  0  0  0  0  0
   -0.4826    2.2695   -0.0942 H   0  0  0  0  0  0  0  0  0  0  0  0
  1  2  1  0
  1  6  1  0
  1  7  1  0
  1  8  1  0
  2  3  1  0
  2  9  1  0
  2 10  1  0
  3  4  1  0
  4  5  1  0
  4 11  1  0
  4 12  1  0
  5  6  1  0
  6 13  1  0
  6 14  1  0
M  END
>  <reaction>  (3) 
rmg_rxn_526

>  <mol_properties>  (3) 
{"0": {"label": "a_hydrogen", "atom_type": "H0"}, "1": {"label": "acceptor", "atom_type": "Cs"}}

>  <type>  (3) 
r2h

$$$$

     RDKit          3D

 25 24  0  0  0  0  0  0  0  0999 V2000
    0.4252   -0.0044    1.9205 C   0  0  0  0  0  0  0  0  0  0  0  0
   -1.1683   -0.6542    2.3061 S   0  0  0  0  0  0  0  0  0  0  0  0
   -0.8851   -2.4268    2.0812 C   0  0  0  0  0  0  0  0  0  0  0  0
   -0.6386   -2.8581    0.6452 C   0  0  0  0  0  0  0  0  0  0  0  0
    0.6330    0.0507    0.6354 H   0  0  0  0  0  0  0  0  0  0  0  0
    1.2485   -0.5923    2.3263 H   0  0  0  0  0  0  0  0  0  0  0  0
    0.4837    1.0356    2.2362 H   0  0  0  0  0  0  0  0  0  0  0  0
   -1.7852   -2.9005    2.4760 H   0  0  0  0  0  0  0  0  0  0  0  0
   -0.0557   -2.7216    2.7275 H   0  0  0  0  0  0  0  0  0  0  0  0
    0.2543   -2.3836    0.2365 H   0  0  0  0  0  0  0  0  0  0  0  0
   -1.4850   -2.5954    0.0098 H   0  0  0  0  0  0  0  0  0  0  0  0
   -0.4952   -3.9396    0.5954 H   0  0  0  0  0  0  0  0  0  0  0  0
    0.8195    0.2572   -0.7370 C   0  0  0  0  0  3  0  0  0  0  0  0
   -0.5640    0.3519   -1.3223 C   0  0  0  0  0  0  0  0  0  0  0  0
   -0.5023    0.8887   -2.6403 O   0  0  0  0  0  0  0  0  0  0  0  0
    0.1573    2.1173   -2.6504 C   0  0  0  0  0  0  0  0  0  0  0  0
    1.4813    2.0322   -2.2147 O   0  0  0  0  0  0  0  0  0  0  0  0
    1.5451    1.5697   -0.8713 C   0  0  0  0  0  0  0  0  0  0  0  0
    1.3918   -0.6012   -1.0847 H   0  0  0  0  0  0  0  0  0  0  0  0
   -1.0476   -0.6193   -1.4028 H   0  0  0  0  0  0  0  0  0  0  0  0
   -1.1977    0.9981   -0.6961 H   0  0  0  0  0  0  0  0  0  0  0  0
   -0.3920    2.8352   -2.0138 H   0  0  0  0  0  0  0  0  0  0  0  0
    0.1794    2.4640   -3.6814 H   0  0  0  0  0  0  0  0  0  0  0  0
    1.0874    2.3232   -0.2111 H   0  0  0  0  0  0  0  0  0  0  0  0
    2.6012    1.4889   -0.6190 H   0  0  0  0  0  0  0  0  0  0  0  0
  1  2  1  0
  1  5  1  0
  1  6  1  0
  1  7  1  0
  2  3  1  0
  3  4  1  0
  3  8  1  0
  3  9  1  0
  4 10  1  0
  4 11  1  0
  4 12  1  0
 13 14  1  0
 13 18  1  0
 13 19  1  0
 14 15  1  0
 14 20  1  0
 14 21  1  0
 15 16  1  0
 16 17  1  0
 16 22  1  0
 16 23  1  0
 17 18  1  0
 18 24  1  0
 18 25  1  0
M  RAD  1  13   2
M  END
>  <reaction>  (4) 
rmg_rxn_526

>  <mol_properties>  (4) 
{"0": {"label": "*1", "atom_type": "Cs"}, "1": {"label": "*0", "atom_type": "S2s"}, "4": {"label": "*2", "atom_type": "H0"}, "12": {"label": "*3", "atom_type": "Cs"}, "13": {"label": "*4", "atom_type": "Cs"}}

>  <type>  (4) 
ts

$$$$

     RDKit          3D

 25 24  0  0  0  0  0  0  0  0999 V2000
   -0.2313    0.0958    1.7326 C   0  0  0  0  0  0  0  0  0  0  0  0
   -1.8744   -0.4831    2.1904 S   0  0  0  0  0  0  0  0  0  0  0  0
   -1.8744   -2.1232    1.4267 C   0  0  0  0  0  0  0  0  0  0  0  0
   -1.8744   -2.1232   -0.0937 C   0  0  0  0  0  0  0  0  0  0  0  0
   -0.1164    0.2714    0.4422 H   0  0  0  0  0  0  0  0  0  0  0  0
    0.5357   -0.5973    2.0807 H   0  0  0  0  0  0  0  0  0  0  0  0
   -0.0848    1.0551    2.2269 H   0  0  0  0  0  0  0  0  0  0  0  0
   -2.7784   -2.6012    1.8076 H   0  0  0  0  0  0  0  0  0  0  0  0
   -1.0252   -2.6881    1.8180 H   0  0  0  0  0  0  0  0  0  0  0  0
   -0.9674   -1.6670   -0.4930 H   0  0  0  0  0  0  0  0  0  0  0  0
   -2.7304   -1.5700   -0.4814 H   0  0  0  0  0  0  0  0  0  0  0  0
   -1.9228   -3.1464   -0.4732 H   0  0  0  0  0  0  0  0  0  0  0  0
   -0.0013    0.4475   -0.8517 C   0  0  0  0  0  3  0  0  0  0  0  0
    0.3446    1.8968   -1.1627 C   0  0  0  0  0  0  0  0  0  0  0  0
    1.3916    1.9599   -2.1120 O   0  0  0  0  0  0  0  0  0  0  0  0
    2.5162    1.2617   -1.6714 C   0  0  0  0  0  0  0  0  0  0  0  0
    2.2674   -0.0953   -1.4635 O   0  0  0  0  0  0  0  0  0  0  0  0
    1.2759   -0.2887   -0.4731 C   0  0  0  0  0  0  0  0  0  0  0  0
   -0.4406   -0.0186   -1.7357 H   0  0  0  0  0  0  0  0  0  0  0  0
   -0.5002    2.4342   -1.5914 H   0  0  0  0  0  0  0  0  0  0  0  0
    0.6518    2.4166   -0.2422 H   0  0  0  0  0  0  0  0  0  0  0  0
    2.8860    1.7152   -0.7335 H   0  0  0  0  0  0  0  0  0  0  0  0
    3.2697    1.3364   -2.4522 H   0  0  0  0  0  0  0  0  0  0  0  0
    1.6487    0.0774    0.4959 H   0  0  0  0  0  0  0  0  0  0  0  0
    1.1181   -1.3634   -0.3931 H   0  0  0  0  0  0  0  0  0  0  0  0
  1  2  1  0
  1  5  1  0
  1  6  1  0
  1  7  1  0
  2  3  1  0
  3  4  1  0
  3  8  1  0
  3  9  1  0
  4 10  1  0
  4 11  1  0
  4 12  1  0
 13 14  1  0
 13 18  1  0
 13 19  1  0
 14 15  1  0
 14 20  1  0
 14 21  1  0
 15 16  1  0
 16 17  1  0
 16 22  1  0
 16 23  1  0
 17 18  1  0
 18 24  1  0
 18 25  1  0
M  RAD  1  13   2
M  END
>  <reaction>  (5) 
rmg_rxn_526

>  <mol_properties>  (5) 
{"0": {"label": "*1", "atom_type": "Cs"}, "1": {"label": "*0", "atom_type": "S2s"}, "4": {"label": "*2", "atom_type": "H0"}, "12": {"label": "*3", "atom_type": "Cs"}, "13": {"label": "*4", "atom_type": "Cs"}}

>  <type>  (5) 
unop_1

>  <geom_source>  (5) 
Heuristics

$$$$

     RDKit          3D

 25 24  0  0  0  0  0  0  0  0999 V2000
    0.5820   -0.3066    1.9565 C   0  0  0  0  0  0  0  0  0  0  0  0
   -1.0611   -0.8854    2.4143 S   0  0  0  0  0  0  0  0  0  0  0  0
   -1.0611   -2.5256    1.6507 C   0  0  0  0  0  0  0  0  0  0  0  0
   -1.0611   -2.5256    0.1303 C   0  0  0  0  0  0  0  0  0  0  0  0
    0.6968   -0.1309    0.6661 H   0  0  0  0  0  0  0  0  0  0  0  0
    1.3490   -0.9996    2.3046 H   0  0  0  0  0  0  0  0  0  0  0  0
    0.7285    0.6528    2.4509 H   0  0  0  0  0  0  0  0  0  0  0  0
   -1.9651   -3.0035    2.0316 H   0  0  0  0  0  0  0  0  0  0  0  0
   -0.2119   -3.0904    2.0419 H   0  0  0  0  0  0  0  0  0  0  0  0
   -0.1541   -2.0694   -0.2690 H   0  0  0  0  0  0  0  0  0  0  0  0
   -1.9171   -1.9724   -0.2574 H   0  0  0  0  0  0  0  0  0  0  0  0
   -1.1095   -3.5488   -0.2492 H   0  0  0  0  0  0  0  0  0  0  0  0
    0.8120    0.0452   -0.6277 C   0  0  0  0  0  3  0  0  0  0  0  0
   -0.5299    0.4308   -1.2337 C   0  0  0  0  0  0  0  0  0  0  0  0
   -0.3381    1.1462   -2.4390 O   0  0  0  0  0  0  0  0  0  0  0  0
    0.4604    2.2722   -2.2368 C   0  0  0  0  0  0  0  0  0  0  0  0
    1.7368    1.9574   -1.7696 O   0  0  0  0  0  0  0  0  0  0  0  0
    1.6765    1.2934   -0.5219 C   0  0  0  0  0  0  0  0  0  0  0  0
    1.3053   -0.6845   -1.2727 H   0  0  0  0  0  0  0  0  0  0  0  0
   -1.1317   -0.4429   -1.4801 H   0  0  0  0  0  0  0  0  0  0  0  0
   -1.0989    1.0517   -0.5249 H   0  0  0  0  0  0  0  0  0  0  0  0
   -0.0363    2.9508   -1.5193 H   0  0  0  0  0  0  0  0  0  0  0  0
    0.5804    2.7610   -3.2011 H   0  0  0  0  0  0  0  0  0  0  0  0
    1.2628    1.9750    0.2370 H   0  0  0  0  0  0  0  0  0  0  0  0
    2.7023    1.0560   -0.2432 H   0  0  0  0  0  0  0  0  0  0  0  0
  1  2  1  0
  1  5  1  0
  1  6  1  0
  1  7  1  0
  2  3  1  0
  3  4  1  0
  3  8  1  0
  3  9  1  0
  4 10  1  0
  4 11  1  0
  4 12  1  0
 13 14  1  0
 13 18  1  0
 13 19  1  0
 14 15  1  0
 14 20  1  0
 14 21  1  0
 15 16  1  0
 16 17  1  0
 16 22  1  0
 16 23  1  0
 17 18  1  0
 18 24  1  0
 18 25  1  0
M  RAD  1  13   2
M  END
>  <reaction>  (6) 
rmg_rxn_526

>  <mol_properties>  (6) 
{"0": {"label": "*1", "atom_type": "Cs"}, "1": {"label": "*0", "atom_type": "S2s"}, "4": {"label": "*2", "atom_type": "H0"}, "12": {"label": "*3", "atom_type": "Cs"}, "13": {"label": "*4", "atom_type": "Cs"}}

>  <type>  (6) 
unop_2

>  <geom_source>  (6) 
Heuristics

$$$$

     RDKit          3D

 25 24  0  0  0  0  0  0  0  0999 V2000
   -0.1815    0.4456    1.8965 C   0  0  0  0  0  0  0  0  0  0  0  0
   -1.8247   -0.1332    2.3543 S   0  0  0  0  0  0  0  0  0  0  0  0
   -1.8247   -1.7733    1.5906 C   0  0  0  0  0  0  0  0  0  0  0  0
   -1.8247   -1.7733    0.0703 C   0  0  0  0  0  0  0  0  0  0  0  0
   -0.0667    0.6213    0.6061 H   0  0  0  0  0  0  0  0  0  0  0  0
    0.5855   -0.2474    2.2446 H   0  0  0  0  0  0  0  0  0  0  0  0
   -0.0351    1.4050    2.3908 H   0  0  0  0  0  0  0  0  0  0  0  0
   -2.7287   -2.2513    1.9716 H   0  0  0  0  0  0  0  0  0  0  0  0
   -0.9754   -2.3382    1.9819 H   0  0  0  0  0  0  0  0  0  0  0  0
   -0.9177   -1.3172   -0.3290 H   0  0  0  0  0  0  0  0  0  0  0  0
   -2.6806   -1.2201   -0.3175 H   0  0  0  0  0  0  0  0  0  0  0  0
   -1.8731   -2.7966   -0.3093 H   0  0  0  0  0  0  0  0  0  0  0  0
    0.0484    0.7974   -0.6877 C   0  0  0  0  0  3  0  0  0  0  0  0
    1.0486    1.9050   -0.9870 C   0  0  0  0  0  0  0  0  0  0  0  0
    1.7662    1.6133   -2.1708 O   0  0  0  0  0  0  0  0  0  0  0  0
    2.4035    0.3753   -2.0834 C   0  0  0  0  0  0  0  0  0  0  0  0
    1.5132   -0.6836   -1.9031 O   0  0  0  0  0  0  0  0  0  0  0  0
    0.7795   -0.5375   -0.7023 C   0  0  0  0  0  0  0  0  0  0  0  0
   -0.7293    0.7938   -1.4539 H   0  0  0  0  0  0  0  0  0  0  0  0
    0.5583    2.8645   -1.1460 H   0  0  0  0  0  0  0  0  0  0  0  0
    1.7530    2.0133   -0.1480 H   0  0  0  0  0  0  0  0  0  0  0  0
    3.1274    0.3929   -1.2480 H   0  0  0  0  0  0  0  0  0  0  0  0
    2.9173    0.2087   -3.0276 H   0  0  0  0  0  0  0  0  0  0  0  0
    1.4650   -0.6010    0.1567 H   0  0  0  0  0  0  0  0  0  0  0  0
    0.0908   -1.3797   -0.6513 H   0  0  0  0  0  0  0  0  0  0  0  0
  1  2  1  0
  1  5  1  0
  1  6  1  0
  1  7  1  0
  2  3  1  0
  3  4  1  0
  3  8  1  0
  3  9  1  0
  4 10  1  0
  4 11  1  0
  4 12  1  0
 13 14  1  0
 13 18  1  0
 13 19  1  0
 14 15  1  0
 14 20  1  0
 14 21  1  0
 15 16  1  0
 16 17  1  0
 16 22  1  0
 16 23  1  0
 17 18  1  0
 18 24  1  0
 18 25  1  0
M  RAD  1  13   2
M  END
>  <reaction>  (7) 
rmg_rxn_526

>  <mol_properties>  (7) 
{"0": {"label": "*1", "atom_type": "Cs"}, "1": {"label": "*0", "atom_type": "S2s"}, "4": {"label": "*2", "atom_type": "H0"}, "12": {"label": "*3", "atom_type": "Cs"}, "13": {"label": "*4", "atom_type": "Cs"}}

>  <type>  (7) 
unop_3

>  <geom_source>  (7) 
Heuristics

$$$$

     RDKit          3D

 25 24  0  0  0  0  0  0  0  0999 V2000
    0.4737    0.3822    2.2783 C   0  0  0  0  0  0  0  0  0  0  0  0
   -1.1694   -0.1967    2.7361 S   0  0  0  0  0  0  0  0  0  0  0  0
   -1.1694   -1.8368    1.9725 C   0  0  0  0  0  0  0  0  0  0  0  0
   -1.1694   -1.8368    0.4521 C   0  0  0  0  0  0  0  0  0  0  0  0
    0.5886    0.5578    0.9879 H   0  0  0  0  0  0  0  0  0  0  0  0
    1.2408   -0.3109    2.6264 H   0  0  0  0  0  0  0  0  0  0  0  0
    0.6202    1.3416    2.7727 H   0  0  0  0  0  0  0  0  0  0  0  0
   -2.0734   -2.3148    2.3534 H   0  0  0  0  0  0  0  0  0  0  0  0
   -0.3201   -2.4017    2.3637 H   0  0  0  0  0  0  0  0  0  0  0  0
   -0.2624   -1.3806    0.0528 H   0  0  0  0  0  0  0  0  0  0  0  0
   -2.0253   -1.2836    0.0644 H   0  0  0  0  0  0  0  0  0  0  0  0
   -1.2178   -2.8600    0.0726 H   0  0  0  0  0  0  0  0  0  0  0  0
    0.7037    0.7340   -0.3059 C   0  0  0  0  0  3  0  0  0  0  0  0
    0.4513   -0.5722   -1.0453 C   0  0  0  0  0  0  0  0  0  0  0  0
    1.1075   -0.5631   -2.2986 O   0  0  0  0  0  0  0  0  0  0  0  0
    0.7115    0.5310   -3.0684 C   0  0  0  0  0  0  0  0  0  0  0  0
    1.0105    1.7549   -2.4691 O   0  0  0  0  0  0  0  0  0  0  0  0
    0.3482    1.8926   -1.2266 C   0  0  0  0  0  0  0  0  0  0  0  0
    1.7586    0.7982   -0.0323 H   0  0  0  0  0  0  0  0  0  0  0  0
    0.8350   -1.4315   -0.4968 H   0  0  0  0  0  0  0  0  0  0  0  0
   -0.6294   -0.7160   -1.1978 H   0  0  0  0  0  0  0  0  0  0  0  0
   -0.3758    0.4715   -3.2594 H   0  0  0  0  0  0  0  0  0  0  0  0
    1.2644    0.4853   -4.0039 H   0  0  0  0  0  0  0  0  0  0  0  0
   -0.7398    1.9222   -1.3920 H   0  0  0  0  0  0  0  0  0  0  0  0
    0.6557    2.8516   -0.8120 H   0  0  0  0  0  0  0  0  0  0  0  0
  1  2  1  0
  1  5  1  0
  1  6  1  0
  1  7  1  0
  2  3  1  0
  3  4  1  0
  3  8  1  0
  3  9  1  0
  4 10  1  0
  4 11  1  0
  4 12  1  0
 13 14  1  0
 13 18  1  0
 13 19  1  0
 14 15  1  0
 14 20  1  0
 14 21  1  0
 15 16  1  0
 16 17  1  0
 16 22  1  0
 16 23  1  0
 17 18  1  0
 18 24  1  0
 18 25  1  0
M  RAD  1  13   2
M  END
>  <reaction>  (8) 
rmg_rxn_526

>  <mol_properties>  (8) 
{"0": {"label": "*1", "atom_type": "Cs"}, "1": {"label": "*0", "atom_type": "S2s"}, "4": {"label": "*2", "atom_type": "H0"}, "12": {"label": "*3", "atom_type": "Cs"}, "13": {"label": "*4", "atom_type": "Cs"}}

>  <type>  (8) 
unop_4

>  <geom_source>  (8) 
Heuristics

$$$$

     RDKit          3D

 25 24  0  0  0  0  0  0  0  0999 V2000
    0.1166    0.5196    2.1613 C   0  0  0  0  0  0  0  0  0  0  0  0
   -1.5265   -0.0593    2.6191 S   0  0  0  0  0  0  0  0  0  0  0  0
   -1.5265   -1.6994    1.8554 C   0  0  0  0  0  0  0  0  0  0  0  0
   -1.5265   -1.6994    0.3351 C   0  0  0  0  0  0  0  0  0  0  0  0
    0.2314    0.6952    0.8709 H   0  0  0  0  0  0  0  0  0  0  0  0
    0.8836   -0.1735    2.5094 H   0  0  0  0  0  0  0  0  0  0  0  0
    0.2630    1.4789    2.6556 H   0  0  0  0  0  0  0  0  0  0  0  0
   -2.4306   -2.1774    2.2364 H   0  0  0  0  0  0  0  0  0  0  0  0
   -0.6773   -2.2643    2.2467 H   0  0  0  0  0  0  0  0  0  0  0  0
   -0.6195   -1.2432   -0.0642 H   0  0  0  0  0  0  0  0  0  0  0  0
   -2.3825   -1.1462   -0.0527 H   0  0  0  0  0  0  0  0  0  0  0  0
   -1.5750   -2.7226   -0.0445 H   0  0  0  0  0  0  0  0  0  0  0  0
    0.3466    0.8713   -0.4229 C   0  0  0  0  0  3  0  0  0  0  0  0
    1.7455    1.3597   -0.7710 C   0  0  0  0  0  0  0  0  0  0  0  0
    1.9147    1.4081   -2.1748 O   0  0  0  0  0  0  0  0  0  0  0  0
    1.6597    0.1665   -2.7577 C   0  0  0  0  0  0  0  0  0  0  0  0
    0.3548   -0.2779   -2.5431 O   0  0  0  0  0  0  0  0  0  0  0  0
    0.0868   -0.4332   -1.1627 C   0  0  0  0  0  0  0  0  0  0  0  0
   -0.3866    1.6177   -0.7348 H   0  0  0  0  0  0  0  0  0  0  0  0
    1.9301    2.3662   -0.3981 H   0  0  0  0  0  0  0  0  0  0  0  0
    2.4990    0.6870   -0.3335 H   0  0  0  0  0  0  0  0  0  0  0  0
    2.3720   -0.5794   -2.3595 H   0  0  0  0  0  0  0  0  0  0  0  0
    1.7901    0.2805   -3.8316 H   0  0  0  0  0  0  0  0  0  0  0  0
    0.7237   -1.2320   -0.7527 H   0  0  0  0  0  0  0  0  0  0  0  0
   -0.9521   -0.7492   -1.0787 H   0  0  0  0  0  0  0  0  0  0  0  0
  1  2  1  0
  1  5  1  0
  1  6  1  0
  1  7  1  0
  2  3  1  0
  3  4  1  0
  3  8  1  0
  3  9  1  0
  4 10  1  0
  4 11  1  0
  4 12  1  0
 13 14  1  0
 13 18  1  0
 13 19  1  0
 14 15  1  0
 14 20  1  0
 14 21  1  0
 15 16  1  0
 16 17  1  0
 16 22  1  0
 16 23  1  0
 17 18  1  0
 18 24  1  0
 18 25  1  0
M  RAD  1  13   2
M  END
>  <reaction>  (9) 
rmg_rxn_526

>  <mol_properties>  (9) 
{"0": {"label": "*1", "atom_type": "Cs"}, "1": {"label": "*0", "atom_type": "S2s"}, "4": {"label": "*2", "atom_type": "H0"}, "12": {"label": "*3", "atom_type": "Cs"}, "13": {"label": "*4", "atom_type": "Cs"}}

>  <type>  (9) 
unop_5

>  <geom_source>  (9) 
Heuristics

$$$$

     RDKit          3D

 25 24  0  0  0  0  0  0  0  0999 V2000
    0.3029    0.3653    2.2580 C   0  0  0  0  0  0  0  0  0  0  0  0
   -1.3402   -0.2135    2.7157 S   0  0  0  0  0  0  0  0  0  0  0  0
   -1.3402   -1.8536    1.9521 C   0  0  0  0  0  0  0  0  0  0  0  0
   -1.3402   -1.8536    0.4317 C   0  0  0  0  0  0  0  0  0  0  0  0
    0.4177    0.5410    0.9676 H   0  0  0  0  0  0  0  0  0  0  0  0
    1.0699   -0.3277    2.6061 H   0  0  0  0  0  0  0  0  0  0  0  0
    0.4494    1.3247    2.7523 H   0  0  0  0  0  0  0  0  0  0  0  0
   -2.2443   -2.3316    2.3330 H   0  0  0  0  0  0  0  0  0  0  0  0
   -0.4910   -2.4185    2.3434 H   0  0  0  0  0  0  0  0  0  0  0  0
   -0.4332   -1.3975    0.0324 H   0  0  0  0  0  0  0  0  0  0  0  0
   -2.1962   -1.3004    0.0440 H   0  0  0  0  0  0  0  0  0  0  0  0
   -1.3886   -2.8769    0.0522 H   0  0  0  0  0  0  0  0  0  0  0  0
    0.5329    0.7171   -0.3263 C   0  0  0  0  0  3  0  0  0  0  0  0
    1.0148   -0.5616   -0.9965 C   0  0  0  0  0  0  0  0  0  0  0  0
    1.8233   -0.2556   -2.1164 O   0  0  0  0  0  0  0  0  0  0  0  0
    1.1436    0.5580   -3.0233 C   0  0  0  0  0  0  0  0  0  0  0  0
    0.7645    1.7842   -2.4765 O   0  0  0  0  0  0  0  0  0  0  0  0
   -0.1110    1.6075   -1.3795 C   0  0  0  0  0  0  0  0  0  0  0  0
    1.3839    1.2372    0.1178 H   0  0  0  0  0  0  0  0  0  0  0  0
    1.6232   -1.1681   -0.3270 H   0  0  0  0  0  0  0  0  0  0  0  0
    0.1530   -1.1653   -1.3200 H   0  0  0  0  0  0  0  0  0  0  0  0
    0.2466    0.0273   -3.3921 H   0  0  0  0  0  0  0  0  0  0  0  0
    1.8256    0.7670   -3.8445 H   0  0  0  0  0  0  0  0  0  0  0  0
   -1.0521    1.1564   -1.7299 H   0  0  0  0  0  0  0  0  0  0  0  0
   -0.3332    2.6010   -0.9924 H   0  0  0  0  0  0  0  0  0  0  0  0
  1  2  1  0
  1  5  1  0
  1  6  1  0
  1  7  1  0
  2  3  1  0
  3  4  1  0
  3  8  1  0
  3  9  1  0
  4 10  1  0
  4 11  1  0
  4 12  1  0
 13 14  1  0
 13 18  1  0
 13 19  1  0
 14 15  1  0
 14 20  1  0
 14 21  1  0
 15 16  1  0
 16 17  1  0
 16 22  1  0
 16 23  1  0
 17 18  1  0
 18 24  1  0
 18 25  1  0
M  RAD  1  13   2
M  END
>  <reaction>  (10) 
rmg_rxn_526

>  <mol_properties>  (10) 
{"0": {"label": "*1", "atom_type": "Cs"}, "1": {"label": "*0", "atom_type": "S2s"}, "4": {"label": "*2", "atom_type": "H0"}, "12": {"label": "*3", "atom_type": "Cs"}, "13": {"label": "*4", "atom_type": "Cs"}}

>  <type>  (10) 
unop_6

>  <geom_source>  (10) 
Heuristics

$$$$

     RDKit          3D

 25 24  0  0  0  0  0  0  0  0999 V2000
    0.2445    0.2873    2.2418 C   0  0  0  0  0  0  0  0  0  0  0  0
   -1.3986   -0.2915    2.6996 S   0  0  0  0  0  0  0  0  0  0  0  0
   -1.3986   -1.9317    1.9360 C   0  0  0  0  0  0  0  0  0  0  0  0
   -1.3986   -1.9317    0.4156 C   0  0  0  0  0  0  0  0  0  0  0  0
    0.3593    0.4630    0.9514 H   0  0  0  0  0  0  0  0  0  0  0  0
    1.0115   -0.4057    2.5899 H   0  0  0  0  0  0  0  0  0  0  0  0
    0.3910    1.2467    2.7362 H   0  0  0  0  0  0  0  0  0  0  0  0
   -2.3027   -2.4096    2.3169 H   0  0  0  0  0  0  0  0  0  0  0  0
   -0.5494   -2.4965    2.3272 H   0  0  0  0  0  0  0  0  0  0  0  0
   -0.4916   -1.4755    0.0163 H   0  0  0  0  0  0  0  0  0  0  0  0
   -2.2546   -1.3784    0.0279 H   0  0  0  0  0  0  0  0  0  0  0  0
   -1.4471   -2.9549    0.0361 H   0  0  0  0  0  0  0  0  0  0  0  0
    0.4745    0.6391   -0.3424 C   0  0  0  0  0  3  0  0  0  0  0  0
    1.5742   -0.2503   -0.9047 C   0  0  0  0  0  0  0  0  0  0  0  0
    2.2171    0.3891   -1.9907 O   0  0  0  0  0  0  0  0  0  0  0  0
    1.3023    0.7403   -2.9838 C   0  0  0  0  0  0  0  0  0  0  0  0
    0.3277    1.6321   -2.5352 O   0  0  0  0  0  0  0  0  0  0  0  0
   -0.4349    1.0715   -1.4837 C   0  0  0  0  0  0  0  0  0  0  0  0
    0.9218    1.5213    0.1196 H   0  0  0  0  0  0  0  0  0  0  0  0
    2.3449   -0.4622   -0.1648 H   0  0  0  0  0  0  0  0  0  0  0  0
    1.1487   -1.2078   -1.2421 H   0  0  0  0  0  0  0  0  0  0  0  0
    0.8142   -0.1721   -3.3729 H   0  0  0  0  0  0  0  0  0  0  0  0
    1.8586    1.2397   -3.7739 H   0  0  0  0  0  0  0  0  0  0  0  0
   -1.0018    0.2069   -1.8619 H   0  0  0  0  0  0  0  0  0  0  0  0
   -1.1463    1.8346   -1.1710 H   0  0  0  0  0  0  0  0  0  0  0  0
  1  2  1  0
  1  5  1  0
  1  6  1  0
  1  7  1  0
  2  3  1  0
  3  4  1  0
  3  8  1  0
  3  9  1  0
  4 10  1  0
  4 11  1  0
  4 12  1  0
 13 14  1  0
 13 18  1  0
 13 19  1  0
 14 15  1  0
 14 20  1  0
 14 21  1  0
 15 16  1  0
 16 17  1  0
 16 22  1  0
 16 23  1  0
 17 18  1  0
 18 24  1  0
 18 25  1  0
M  RAD  1  13   2
M  END
>  <reaction>  (11) 
rmg_rxn_526

>  <mol_properties>  (11) 
{"0": {"label": "*1", "atom_type": "Cs"}, "1": {"label": "*0", "atom_type": "S2s"}, "4": {"label": "*2", "atom_type": "H0"}, "12": {"label": "*3", "atom_type": "Cs"}, "13": {"label": "*4", "atom_type": "Cs"}}

>  <type>  (11) 
unop_7

>  <geom_source>  (11) 
Heuristics

$$$$

     RDKit          3D

 25 24  0  0  0  0  0  0  0  0999 V2000
   -0.0422   -0.2220    1.7090 C   0  0  0  0  0  0  0  0  0  0  0  0
   -1.6853   -0.8008    2.1668 S   0  0  0  0  0  0  0  0  0  0  0  0
   -1.6853   -2.4409    1.4032 C   0  0  0  0  0  0  0  0  0  0  0  0
   -1.6853   -2.4409   -0.1172 C   0  0  0  0  0  0  0  0  0  0  0  0
    0.0726   -0.0463    0.4186 H   0  0  0  0  0  0  0  0  0  0  0  0
    0.7248   -0.9150    2.0571 H   0  0  0  0  0  0  0  0  0  0  0  0
    0.1043    0.7374    2.2033 H   0  0  0  0  0  0  0  0  0  0  0  0
   -2.5893   -2.9189    1.7841 H   0  0  0  0  0  0  0  0  0  0  0  0
   -0.8361   -3.0058    1.7944 H   0  0  0  0  0  0  0  0  0  0  0  0
   -0.7783   -1.9848   -0.5165 H   0  0  0  0  0  0  0  0  0  0  0  0
   -2.5413   -1.8877   -0.5049 H   0  0  0  0  0  0  0  0  0  0  0  0
   -1.7337   -3.4642   -0.4968 H   0  0  0  0  0  0  0  0  0  0  0  0
    0.1878    0.1298   -0.8752 C   0  0  0  0  0  3  0  0  0  0  0  0
   -0.2007    1.5515   -1.2553 C   0  0  0  0  0  0  0  0  0  0  0  0
    0.7475    2.0977   -2.1520 O   0  0  0  0  0  0  0  0  0  0  0  0
    2.0337    2.0587   -1.6130 C   0  0  0  0  0  0  0  0  0  0  0  0
    2.4689    0.7624   -1.3363 O   0  0  0  0  0  0  0  0  0  0  0  0
    1.6297    0.1316   -0.3880 C   0  0  0  0  0  0  0  0  0  0  0  0
    0.1012   -0.5166   -1.7507 H   0  0  0  0  0  0  0  0  0  0  0  0
   -1.1660    1.5893   -1.7584 H   0  0  0  0  0  0  0  0  0  0  0  0
   -0.2578    2.1803   -0.3536 H   0  0  0  0  0  0  0  0  0  0  0  0
    2.0622    2.6613   -0.6866 H   0  0  0  0  0  0  0  0  0  0  0  0
    2.7091    2.4746   -2.3574 H   0  0  0  0  0  0  0  0  0  0  0  0
    1.7014    0.6605    0.5748 H   0  0  0  0  0  0  0  0  0  0  0  0
    2.0147   -0.8781   -0.2512 H   0  0  0  0  0  0  0  0  0  0  0  0
  1  2  1  0
  1  5  1  0
  1  6  1  0
  1  7  1  0
  2  3  1  0
  3  4  1  0
  3  8  1  0
  3  9  1  0
  4 10  1  0
  4 11  1  0
  4 12  1  0
 13 14  1  0
 13 18  1  0
 13 19  1  0
 14 15  1  0
 14 20  1  0
 14 21  1  0
 15 16  1  0
 16 17  1  0
 16 22  1  0
 16 23  1  0
 17 18  1  0
 18 24  1  0
 18 25  1  0
M  RAD  1  13   2
M  END
>  <reaction>  (12) 
rmg_rxn_526

>  <mol_properties>  (12) 
{"0": {"label": "*1", "atom_type": "Cs"}, "1": {"label": "*0", "atom_type": "S2s"}, "4": {"label": "*2", "atom_type": "H0"}, "12": {"label": "*3", "atom_type": "Cs"}, "13": {"label": "*4", "atom_type": "Cs"}}

>  <type>  (12) 
unop_8

>  <geom_source>  (12) 
Heuristics

$$$$

     RDKit          3D

 25 24  0  0  0  0  0  0  0  0999 V2000
    0.6699    0.2361    2.2537 C   0  0  0  0  0  0  0  0  0  0  0  0
   -0.9733   -0.3428    2.7115 S   0  0  0  0  0  0  0  0  0  0  0  0
   -0.9733   -1.9829    1.9479 C   0  0  0  0  0  0  0  0  0  0  0  0
   -0.9733   -1.9829    0.4275 C   0  0  0  0  0  0  0  0  0  0  0  0
    0.7847    0.4117    0.9633 H   0  0  0  0  0  0  0  0  0  0  0  0
    1.4369   -0.4570    2.6018 H   0  0  0  0  0  0  0  0  0  0  0  0
    0.8163    1.1955    2.7481 H   0  0  0  0  0  0  0  0  0  0  0  0
   -1.8773   -2.4609    2.3288 H   0  0  0  0  0  0  0  0  0  0  0  0
   -0.1240   -2.5478    2.3391 H   0  0  0  0  0  0  0  0  0  0  0  0
   -0.0663   -1.5267    0.0282 H   0  0  0  0  0  0  0  0  0  0  0  0
   -1.8292   -1.4297    0.0398 H   0  0  0  0  0  0  0  0  0  0  0  0
   -1.0217   -3.0061    0.0480 H   0  0  0  0  0  0  0  0  0  0  0  0
    0.8998    0.5879   -0.3305 C   0  0  0  0  0  3  0  0  0  0  0  0
   -0.0068   -0.3767   -1.0816 C   0  0  0  0  0  0  0  0  0  0  0  0
    0.3084   -0.3757   -2.4607 O   0  0  0  0  0  0  0  0  0  0  0  0
    0.2242    0.9093   -2.9975 C   0  0  0  0  0  0  0  0  0  0  0  0
    1.1090    1.8076   -2.4004 O   0  0  0  0  0  0  0  0  0  0  0  0
    0.8445    1.9449   -1.0174 C   0  0  0  0  0  0  0  0  0  0  0  0
    1.9248    0.2126   -0.3502 H   0  0  0  0  0  0  0  0  0  0  0  0
    0.1118   -1.4019   -0.7336 H   0  0  0  0  0  0  0  0  0  0  0  0
   -1.0601   -0.0870   -0.9456 H   0  0  0  0  0  0  0  0  0  0  0  0
   -0.8097    1.2854   -2.8894 H   0  0  0  0  0  0  0  0  0  0  0  0
    0.4948    0.8391   -4.0486 H   0  0  0  0  0  0  0  0  0  0  0  0
   -0.1489    2.3980   -0.8770 H   0  0  0  0  0  0  0  0  0  0  0  0
    1.5911    2.6323   -0.6221 H   0  0  0  0  0  0  0  0  0  0  0  0
  1  2  1  0
  1  5  1  0
  1  6  1  0
  1  7  1  0
  2  3  1  0
  3  4  1  0
  3  8  1  0
  3  9  1  0
  4 10  1  0
  4 11  1  0
  4 12  1  0
 13 14  1  0
 13 18  1  0
 13 19  1  0
 14 15  1  0
 14 20  1  0
 14 21  1  0
 15 16  1  0
 16 17  1  0
 16 22  1  0
 16 23  1  0
 17 18  1  0
 18 24  1  0
 18 25  1  0
M  RAD  1  13   2
M  END
>  <reaction>  (13) 
rmg_rxn_526

>  <mol_properties>  (13) 
{"0": {"label": "*1", "atom_type": "Cs"}, "1": {"label": "*0", "atom_type": "S2s"}, "4": {"label": "*2", "atom_type": "H0"}, "12": {"label": "*3", "atom_type": "Cs"}, "13": {"label": "*4", "atom_type": "Cs"}}

>  <type>  (13) 
unop_9

>  <geom_source>  (13) 
Heuristics

$$$$

     RDKit          3D

 25 24  0  0  0  0  0  0  0  0999 V2000
    0.2730   -0.3743    1.7928 C   0  0  0  0  0  0  0  0  0  0  0  0
   -1.3701   -0.9531    2.2506 S   0  0  0  0  0  0  0  0  0  0  0  0
   -1.3701   -2.5933    1.4870 C   0  0  0  0  0  0  0  0  0  0  0  0
   -1.3701   -2.5933   -0.0334 C   0  0  0  0  0  0  0  0  0  0  0  0
    0.3878   -0.1986    0.5024 H   0  0  0  0  0  0  0  0  0  0  0  0
    1.0400   -1.0673    2.1409 H   0  0  0  0  0  0  0  0  0  0  0  0
    0.4195    0.5851    2.2872 H   0  0  0  0  0  0  0  0  0  0  0  0
   -2.2741   -3.0712    1.8679 H   0  0  0  0  0  0  0  0  0  0  0  0
   -0.5209   -3.1581    1.8782 H   0  0  0  0  0  0  0  0  0  0  0  0
   -0.4631   -2.1371   -0.4327 H   0  0  0  0  0  0  0  0  0  0  0  0
   -2.2261   -2.0400   -0.4211 H   0  0  0  0  0  0  0  0  0  0  0  0
   -1.4185   -3.6165   -0.4129 H   0  0  0  0  0  0  0  0  0  0  0  0
    0.5030   -0.0225   -0.7914 C   0  0  0  0  0  3  0  0  0  0  0  0
   -0.5033    1.0099   -1.2795 C   0  0  0  0  0  0  0  0  0  0  0  0
    0.0740    1.8241   -2.2821 O   0  0  0  0  0  0  0  0  0  0  0  0
    1.2391    2.4400   -1.8241 C   0  0  0  0  0  0  0  0  0  0  0  0
    2.2275    1.5278   -1.4536 O   0  0  0  0  0  0  0  0  0  0  0  0
    1.7866    0.6948   -0.3986 C   0  0  0  0  0  0  0  0  0  0  0  0
    0.7144   -0.7313   -1.5943 H   0  0  0  0  0  0  0  0  0  0  0  0
   -1.3828    0.5440   -1.7219 H   0  0  0  0  0  0  0  0  0  0  0  0
   -0.8336    1.6404   -0.4397 H   0  0  0  0  0  0  0  0  0  0  0  0
    0.9971    3.0894   -0.9628 H   0  0  0  0  0  0  0  0  0  0  0  0
    1.6366    3.0316   -2.6458 H   0  0  0  0  0  0  0  0  0  0  0  0
    1.6175    1.3031    0.5032 H   0  0  0  0  0  0  0  0  0  0  0  0
    2.5963   -0.0035   -0.1912 H   0  0  0  0  0  0  0  0  0  0  0  0
  1  2  1  0
  1  5  1  0
  1  6  1  0
  1  7  1  0
  2  3  1  0
  3  4  1  0
  3  8  1  0
  3  9  1  0
  4 10  1  0
  4 11  1  0
  4 12  1  0
 13 14  1  0
 13 18  1  0
 13 19  1  0
 14 15  1  0
 14 20  1  0
 14 21  1  0
 15 16  1  0
 16 17  1  0
 16 22  1  0
 16 23  1  0
 17 18  1  0
 18 24  1  0
 18 25  1  0
M  RAD  1  13   2
M  END
>  <reaction>  (14) 
rmg_rxn_526

>  <mol_properties>  (14) 
{"0": {"label": "*1", "atom_type": "Cs"}, "1": {"label": "*0", "atom_type": "S2s"}, "4": {"label": "*2", "atom_type": "H0"}, "12": {"label": "*3", "atom_type": "Cs"}, "13": {"label": "*4", "atom_type": "Cs"}}

>  <type>  (14) 
unop_10

>  <geom_source>  (14) 
Heuristics

$$$$

     RDKit          3D

 25 24  0  0  0  0  0  0  0  0999 V2000
    0.2627    0.3155    2.2483 C   0  0  0  0  0  0  0  0  0  0  0  0
   -1.3804   -0.2633    2.7061 S   0  0  0  0  0  0  0  0  0  0  0  0
   -1.3804   -1.9034    1.9425 C   0  0  0  0  0  0  0  0  0  0  0  0
   -1.3804   -1.9034    0.4221 C   0  0  0  0  0  0  0  0  0  0  0  0
    0.3776    0.4912    0.9579 H   0  0  0  0  0  0  0  0  0  0  0  0
    1.0297   -0.3775    2.5964 H   0  0  0  0  0  0  0  0  0  0  0  0
    0.4092    1.2749    2.7427 H   0  0  0  0  0  0  0  0  0  0  0  0
   -2.2844   -2.3814    2.3234 H   0  0  0  0  0  0  0  0  0  0  0  0
   -0.5311   -2.4683    2.3337 H   0  0  0  0  0  0  0  0  0  0  0  0
   -0.4734   -1.4473    0.0228 H   0  0  0  0  0  0  0  0  0  0  0  0
   -2.2364   -1.3502    0.0344 H   0  0  0  0  0  0  0  0  0  0  0  0
   -1.4288   -2.9267    0.0426 H   0  0  0  0  0  0  0  0  0  0  0  0
    0.4927    0.6673   -0.3359 C   0  0  0  0  0  3  0  0  0  0  0  0
    1.9281    0.4247   -0.7803 C   0  0  0  0  0  0  0  0  0  0  0  0
    2.1786    1.0749   -2.0115 O   0  0  0  0  0  0  0  0  0  0  0  0
    1.2760    0.6643   -2.9928 C   0  0  0  0  0  0  0  0  0  0  0  0
   -0.0497    0.9537   -2.6682 O   0  0  0  0  0  0  0  0  0  0  0  0
   -0.4414    0.2958   -1.4787 C   0  0  0  0  0  0  0  0  0  0  0  0
    0.3626    1.7228   -0.0892 H   0  0  0  0  0  0  0  0  0  0  0  0
    2.6482    0.8196   -0.0649 H   0  0  0  0  0  0  0  0  0  0  0  0
    2.1105   -0.6552   -0.8917 H   0  0  0  0  0  0  0  0  0  0  0  0
    1.3843   -0.4232   -3.1596 H   0  0  0  0  0  0  0  0  0  0  0  0
    1.5138    1.2133   -3.9011 H   0  0  0  0  0  0  0  0  0  0  0  0
   -0.4257   -0.7932   -1.6392 H   0  0  0  0  0  0  0  0  0  0  0  0
   -1.4692    0.5955   -1.2785 H   0  0  0  0  0  0  0  0  0  0  0  0
  1  2  1  0
  1  5  1  0
  1  6  1  0
  1  7  1  0
  2  3  1  0
  3  4  1  0
  3  8  1  0
  3  9  1  0
  4 10  1  0
  4 11  1  0
  4 12  1  0
 13 14  1  0
 13 18  1  0
 13 19  1  0
 14 15  1  0
 14 20  1  0
 14 21  1  0
 15 16  1  0
 16 17  1  0
 16 22  1  0
 16 23  1  0
 17 18  1  0
 18 24  1  0
 18 25  1  0
M  RAD  1  13   2
M  END
>  <reaction>  (15) 
rmg_rxn_526

>  <mol_properties>  (15) 
{"0": {"label": "*1", "atom_type": "Cs"}, "1": {"label": "*0", "atom_type": "S2s"}, "4": {"label": "*2", "atom_type": "H0"}, "12": {"label": "*3", "atom_type": "Cs"}, "13": {"label": "*4", "atom_type": "Cs"}}

>  <type>  (15) 
unop_11

>  <geom_source>  (15) 
Heuristics

$$$$

     RDKit          3D

 25 24  0  0  0  0  0  0  0  0999 V2000
    0.7377   -0.0502    2.1390 C   0  0  0  0  0  0  0  0  0  0  0  0
   -0.9054   -0.6290    2.5968 S   0  0  0  0  0  0  0  0  0  0  0  0
   -0.9054   -2.2692    1.8332 C   0  0  0  0  0  0  0  0  0  0  0  0
   -0.9054   -2.2692    0.3128 C   0  0  0  0  0  0  0  0  0  0  0  0
    0.8525    0.1255    0.8486 H   0  0  0  0  0  0  0  0  0  0  0  0
    1.5047   -0.7432    2.4871 H   0  0  0  0  0  0  0  0  0  0  0  0
    0.8841    0.9092    2.6334 H   0  0  0  0  0  0  0  0  0  0  0  0
   -1.8095   -2.7471    2.2141 H   0  0  0  0  0  0  0  0  0  0  0  0
   -0.0562   -2.8340    2.2244 H   0  0  0  0  0  0  0  0  0  0  0  0
    0.0016   -1.8130   -0.0865 H   0  0  0  0  0  0  0  0  0  0  0  0
   -1.7614   -1.7159   -0.0749 H   0  0  0  0  0  0  0  0  0  0  0  0
   -0.9539   -3.2924   -0.0667 H   0  0  0  0  0  0  0  0  0  0  0  0
    0.9677    0.3016   -0.4452 C   0  0  0  0  0  3  0  0  0  0  0  0
   -0.3378   -0.0438   -1.1475 C   0  0  0  0  0  0  0  0  0  0  0  0
   -0.2598    0.2859   -2.5210 O   0  0  0  0  0  0  0  0  0  0  0  0
    0.0629    1.6313   -2.7004 C   0  0  0  0  0  0  0  0  0  0  0  0
    1.3000    1.9719   -2.1527 O   0  0  0  0  0  0  0  0  0  0  0  0
    1.3209    1.7491   -0.7558 C   0  0  0  0  0  0  0  0  0  0  0  0
    1.7612   -0.3524   -0.8119 H   0  0  0  0  0  0  0  0  0  0  0  0
   -0.5605   -1.1085   -1.0927 H   0  0  0  0  0  0  0  0  0  0  0  0
   -1.1715    0.5064   -0.6848 H   0  0  0  0  0  0  0  0  0  0  0  0
   -0.7249    2.2614   -2.2484 H   0  0  0  0  0  0  0  0  0  0  0  0
    0.1235    1.8093   -3.7718 H   0  0  0  0  0  0  0  0  0  0  0  0
    0.6039    2.4254   -0.2655 H   0  0  0  0  0  0  0  0  0  0  0  0
    2.3217    2.0069   -0.4121 H   0  0  0  0  0  0  0  0  0  0  0  0
  1  2  1  0
  1  5  1  0
  1  6  1  0
  1  7  1  0
  2  3  1  0
  3  4  1  0
  3  8  1  0
  3  9  1  0
  4 10  1  0
  4 11  1  0
  4 12  1  0
 13 14  1  0
 13 18  1  0
 13 19  1  0
 14 15  1  0
 14 20  1  0
 14 21  1  0
 15 16  1  0
 16 17  1  0
 16 22  1  0
 16 23  1  0
 17 18  1  0
 18 24  1  0
 18 25  1  0
M  RAD  1  13   2
M  END
>  <reaction>  (16) 
rmg_rxn_526

>  <mol_properties>  (16) 
{"0": {"label": "*1", "atom_type": "Cs"}, "1": {"label": "*0", "atom_type": "S2s"}, "4": {"label": "*2", "atom_type": "H0"}, "12": {"label": "*3", "atom_type": "Cs"}, "13": {"label": "*4", "atom_type": "Cs"}}

>  <type>  (16) 
unop_12

>  <geom_source>  (16) 
Heuristics

$$$$

     RDKit          3D

 25 24  0  0  0  0  0  0  0  0999 V2000
   -2.3460    0.5348   -0.9269 S   0  0  0  0  0  0  0  0  0  0  0  0
    3.3135    0.5512   -1.1898 O   0  0  0  0  0  0  0  0  0  0  0  0
    3.2867   -0.2535    0.9982 O   0  0  0  0  0  0  0  0  0  0  0  0
    1.4121   -0.7515   -0.4501 C   0  0  0  0  0  0  0  0  0  0  0  0
    1.9213    0.3709   -1.3522 C   0  0  0  0  0  0  0  0  0  0  0  0
    1.8928   -0.4850    0.9750 C   0  0  0  0  0  0  0  0  0  0  0  0
   -2.9802   -0.2257    0.6033 C   0  0  0  0  0  0  0  0  0  0  0  0
   -4.1083    0.6196    1.1750 C   0  0  0  0  0  0  0  0  0  0  0  0
    3.5935    0.8496    0.1656 C   0  0  0  0  0  0  0  0  0  0  0  0
   -1.0791   -0.7439   -1.1793 C   0  0  0  0  0  3  0  0  0  0  0  0
    1.8165   -1.7252   -0.8032 H   0  0  0  0  0  0  0  0  0  0  0  0
    0.0806   -0.7945   -0.4822 H   0  0  0  0  0  0  0  0  0  0  0  0
    1.3741    1.3177   -1.1412 H   0  0  0  0  0  0  0  0  0  0  0  0
    1.7171    0.1006   -2.4094 H   0  0  0  0  0  0  0  0  0  0  0  0
    1.3428    0.3773    1.4159 H   0  0  0  0  0  0  0  0  0  0  0  0
    1.6679   -1.3741    1.6006 H   0  0  0  0  0  0  0  0  0  0  0  0
   -3.3624   -1.2454    0.3828 H   0  0  0  0  0  0  0  0  0  0  0  0
   -2.1612   -0.2978    1.3508 H   0  0  0  0  0  0  0  0  0  0  0  0
   -4.9410    0.6914    0.4435 H   0  0  0  0  0  0  0  0  0  0  0  0
   -3.7392    1.6399    1.4126 H   0  0  0  0  0  0  0  0  0  0  0  0
   -4.4900    0.1513    2.1067 H   0  0  0  0  0  0  0  0  0  0  0  0
    3.0747    1.7794    0.5011 H   0  0  0  0  0  0  0  0  0  0  0  0
    4.6805    1.0525    0.2535 H   0  0  0  0  0  0  0  0  0  0  0  0
   -1.5636   -1.7055   -1.4479 H   0  0  0  0  0  0  0  0  0  0  0  0
   -0.4034   -0.4342   -2.0027 H   0  0  0  0  0  0  0  0  0  0  0  0
  1 10  1  0
  1  7  1  0
  2  5  1  0
  2  9  1  0
  3  6  1  0
  3  9  1  0
  4  5  1  0
  4  6  1  0
  4 11  1  0
  4 12  1  0
  5 13  1  0
  5 14  1  0
  6 15  1  0
  6 16  1  0
  7  8  1  0
  7 17  1  0
  7 18  1  0
  8 19  1  0
  8 20  1  0
  8 21  1  0
  9 22  1  0
  9 23  1  0
 10 24  1  0
 10 25  1  0
M  RAD  1  10   2
M  END
>  <reaction>  (17) 
rmg_rxn_526

>  <mol_properties>  (17) 
{"0": {"label": "*1", "atom_type": "Cs"}, "1": {"label": "*0", "atom_type": "S2s"}, "4": {"label": "*2", "atom_type": "H0"}, "12": {"label": "*3", "atom_type": "Cs"}, "13": {"label": "*4", "atom_type": "Cs"}}

>  <type>  (17) 
unop_13

>  <geom_source>  (17) 
AutoTST

$$$$

     RDKit          3D

 25 24  0  0  0  0  0  0  0  0999 V2000
    0.5820   -0.3066    1.9565 C   0  0  0  0  0  0  0  0  0  0  0  0
   -1.0611   -0.8854    2.4143 S   0  0  0  0  0  0  0  0  0  0  0  0
   -1.0611   -2.5256    1.6507 C   0  0  0  0  0  0  0  0  0  0  0  0
   -1.0611   -2.5256    0.1303 C   0  0  0  0  0  0  0  0  0  0  0  0
    0.6968   -0.1310    0.6661 H   0  0  0  0  0  0  0  0  0  0  0  0
    1.3490   -0.9997    2.3046 H   0  0  0  0  0  0  0  0  0  0  0  0
    0.7285    0.6528    2.4508 H   0  0  0  0  0  0  0  0  0  0  0  0
   -1.9651   -3.0036    2.0316 H   0  0  0  0  0  0  0  0  0  0  0  0
   -0.2119   -3.0905    2.0419 H   0  0  0  0  0  0  0  0  0  0  0  0
   -0.1541   -2.0694   -0.2690 H   0  0  0  0  0  0  0  0  0  0  0  0
   -1.9171   -1.9724   -0.2574 H   0  0  0  0  0  0  0  0  0  0  0  0
   -1.1095   -3.5488   -0.2492 H   0  0  0  0  0  0  0  0  0  0  0  0
    0.8120    0.0452   -0.6277 C   0  0  0  0  0  3  0  0  0  0  0  0
   -0.5299    0.4308   -1.2337 C   0  0  0  0  0  0  0  0  0  0  0  0
   -0.3382    1.1462   -2.4390 O   0  0  0  0  0  0  0  0  0  0  0  0
    0.4604    2.2722   -2.2368 C   0  0  0  0  0  0  0  0  0  0  0  0
    1.7368    1.9574   -1.7696 O   0  0  0  0  0  0  0  0  0  0  0  0
    1.6765    1.2934   -0.5219 C   0  0  0  0  0  0  0  0  0  0  0  0
    1.3053   -0.6845   -1.2727 H   0  0  0  0  0  0  0  0  0  0  0  0
   -1.1317   -0.4429   -1.4801 H   0  0  0  0  0  0  0  0  0  0  0  0
   -1.0989    1.0517   -0.5249 H   0  0  0  0  0  0  0  0  0  0  0  0
   -0.0363    2.9508   -1.5193 H   0  0  0  0  0  0  0  0  0  0  0  0
    0.5804    2.7610   -3.2011 H   0  0  0  0  0  0  0  0  0  0  0  0
    1.2628    1.9750    0.2370 H   0  0  0  0  0  0  0  0  0  0  0  0
    2.7023    1.0560   -0.2432 H   0  0  0  0  0  0  0  0  0  0  0  0
  1  2  1  0
  1  5  1  0
  1  6  1  0
  1  7  1  0
  2  3  1  0
  3  4  1  0
  3  8  1  0
  3  9  1  0
  4 10  1  0
  4 11  1  0
  4 12  1  0
 13 14  1  0
 13 18  1  0
 13 19  1  0
 14 15  1  0
 14 20  1  0
 14 21  1  0
 15 16  1  0
 16 17  1  0
 16 22  1  0
 16 23  1  0
 17 18  1  0
 18 24  1  0
 18 25  1  0
M  RAD  1  13   2
M  END
>  <reaction>  (18) 
rmg_rxn_526

>  <mol_properties>  (18) 
{"0": {"label": "*1", "atom_type": "Cs"}, "1": {"label": "*0", "atom_type": "S2s"}, "4": {"label": "*2", "atom_type": "H0"}, "12": {"label": "*3", "atom_type": "Cs"}, "13": {"label": "*4", "atom_type": "Cs"}}

>  <type>  (18) 
unop_14

>  <geom_source>  (18) 
gaussian_log

$$$$
