
     RDKit          3D

  3  2  0  0  0  0  0  0  0  0999 V2000
    0.9943   -0.1797    0.0000 O   0  0  0  0  0  1  0  0  0  0  0  0
   -0.1595    0.4394    0.0000 O   0  0  0  0  0  0  0  0  0  0  0  0
   -0.8348   -0.2597    0.0000 H   0  0  0  0  0  0  0  0  0  0  0  0
  1  2  1  0
  2  3  1  0
M  RAD  1   1   2
M  END
>  <reaction>  (1) 
rmg_rxn_1527

>  <mol_properties>  (1) 
{"1": {"label": "donator", "atom_type": "O2s"}, "2": {"label": "d_hydrogen", "atom_type": "H0"}}

>  <type>  (1) 
r1h

$$$$

     RDKit          3D

  4  3  0  0  0  0  0  0  0  0999 V2000
   -0.8019    0.4189    0.0192 N   0  0  0  0  0  0  0  0  0  0  0  0
    0.3609    0.8266    0.0061 N   0  0  0  0  0  0  0  0  0  0  0  0
    0.8339    1.9183    0.0142 O   0  0  0  0  0  1  0  0  0  0  0  0
   -0.7779   -0.6002    0.0040 H   0  0  0  0  0  0  0  0  0  0  0  0
  1  2  2  3
  1  4  1  0
  2  3  1  0
M  RAD  1   3   2
M  END
>  <reaction>  (2) 
rmg_rxn_1527

>  <mol_properties>  (2) 
{"0": {"label": "acceptor", "atom_type": "N3s"}}

>  <type>  (2) 
r2

$$$$

     RDKit          3D

  5  4  0  0  0  0  0  0  0  0999 V2000
   -0.4583    0.0384    0.1517 N   0  0  0  0  0  0  0  0  0  0  0  0
    0.7454   -0.3487    0.5322 N   0  0  0  0  0  0  0  0  0  0  0  0
    0.7566   -1.0388    1.5193 O   0  0  0  0  0  0  0  0  0  0  0  0
   -1.2688   -0.2521    0.6850 H   0  0  0  0  0  0  0  0  0  0  0  0
   -0.5137    0.6154   -0.6670 H   0  0  0  0  0  0  0  0  0  0  0  0
  1  2  1  0
  1  4  1  0
  1  5  1  0
  2  3  2  0
M  END
>  <reaction>  (3) 
rmg_rxn_1527

>  <mol_properties>  (3) 
{"0": {"label": "a_hydrogen", "atom_type": "H0"}, "1": {"label": "acceptor", "atom_type": "N3s"}}

>  <type>  (3) 
r2h

$$$$

     RDKit          3D

  7  5  0  0  0  0  0  0  0  0999 V2000
    0.7385   -1.9896   -0.3388 O   0  0  0  0  0  1  0  0  0  0  0  0
   -0.3437   -1.6403    0.2190 O   0  0  0  0  0  0  0  0  0  0  0  0
   -0.2100   -0.5633    0.6119 H   0  0  0  0  0  0  0  0  0  0  0  0
    0.0138    0.6763    1.0224 N   0  0  0  0  0  0  0  0  0  0  0  0
   -0.0920    1.6695    0.2569 N   0  0  0  0  0  0  0  0  0  0  0  0
   -0.4622    1.6432   -0.8725 O   0  0  0  0  0  1  0  0  0  0  0  0
    0.3556    0.9434    1.9380 H   0  0  0  0  0  0  0  0  0  0  0  0
  1  2  1  0
  2  3  1  0
  4  5  2  3
  4  7  1  0
  5  6  1  0
M  RAD  2   1   2   6   2
M  END
>  <reaction>  (4) 
rmg_rxn_1527

>  <mol_properties>  (4) 
{"0": {"label": "*0", "atom_type": "O2s"}, "1": {"label": "*1", "atom_type": "O2s"}, "2": {"label": "*2", "atom_type": "H0"}, "3": {"label": "*3", "atom_type": "N3d"}, "4": {"label": "*4", "atom_type": "N3d"}}

>  <type>  (4) 
ts

$$$$

     RDKit          3D

  7  5  0  0  0  0  0  0  0  0999 V2000
    2.5066   -0.2143   -0.0001 O   0  0  0  0  0  1  0  0  0  0  0  0
    1.5462    0.6534    0.0001 O   0  0  0  0  0  0  0  0  0  0  0  0
    0.5146    0.1056   -0.0000 H   0  0  0  0  0  0  0  0  0  0  0  0
   -0.4388   -0.6538    0.0000 N   0  0  0  0  0  0  0  0  0  0  0  0
   -1.6427   -0.4198    0.0000 N   0  0  0  0  0  0  0  0  0  0  0  0
   -2.2547    0.5964   -0.0001 O   0  0  0  0  0  1  0  0  0  0  0  0
   -0.1310   -1.6211    0.0001 H   0  0  0  0  0  0  0  0  0  0  0  0
  1  2  1  0
  2  3  1  0
  4  5  2  3
  4  7  1  0
  5  6  1  0
M  RAD  2   1   2   6   2
M  END
>  <reaction>  (5) 
rmg_rxn_1527

>  <mol_properties>  (5) 
{"0": {"label": "*0", "atom_type": "O2s"}, "1": {"label": "*1", "atom_type": "O2s"}, "2": {"label": "*2", "atom_type": "H0"}, "3": {"label": "*3", "atom_type": "N3d"}, "4": {"label": "*4", "atom_type": "N3d"}}

>  <type>  (5) 
unop_1

>  <geom_source>  (5) 
crest_best.xyz

$$$$

     RDKit          3D

  7  5  0  0  0  0  0  0  0  0999 V2000
    0.5950   -1.4573   -1.6229 O   0  0  0  0  0  1  0  0  0  0  0  0
    0.5950   -1.4573   -0.3135 O   0  0  0  0  0  0  0  0  0  0  0  0
    0.5950   -0.3348    0.0039 H   0  0  0  0  0  0  0  0  0  0  0  0
    0.5950    0.8347    0.3346 N   0  0  0  0  0  0  0  0  0  0  0  0
   -0.3994    1.3058    1.0644 N   0  0  0  0  0  0  0  0  0  0  0  0
   -1.4948    0.9944    0.6720 O   0  0  0  0  0  1  0  0  0  0  0  0
    1.5255    1.0702    0.6261 H   0  0  0  0  0  0  0  0  0  0  0  0
  1  2  1  0
  2  3  1  0
  4  5  2  3
  4  7  1  0
  5  6  1  0
M  RAD  2   1   2   6   2
M  END
>  <reaction>  (6) 
rmg_rxn_1527

>  <mol_properties>  (6) 
{"0": {"label": "*0", "atom_type": "O2s"}, "1": {"label": "*1", "atom_type": "O2s"}, "2": {"label": "*2", "atom_type": "H0"}, "3": {"label": "*3", "atom_type": "N3d"}, "4": {"label": "*4", "atom_type": "N3d"}}

>  <type>  (6) 
unop_2

>  <geom_source>  (6) 
Heuristics

$$$$

     RDKit          3D

  7  5  0  0  0  0  0  0  0  0999 V2000
   -2.5068   -0.2143   -0.0004 O   0  0  0  0  0  1  0  0  0  0  0  0
   -1.5461    0.6533    0.0004 O   0  0  0  0  0  0  0  0  0  0  0  0
   -0.5146    0.1055   -0.0003 H   0  0  0  0  0  0  0  0  0  0  0  0
    0.4388   -0.6539    0.0002 N   0  0  0  0  0  0  0  0  0  0  0  0
    1.6428   -0.4198    0.0001 N   0  0  0  0  0  0  0  0  0  0  0  0
    2.2547    0.5964   -0.0003 O   0  0  0  0  0  1  0  0  0  0  0  0
    0.1310   -1.6211    0.0005 H   0  0  0  0  0  0  0  0  0  0  0  0
  1  2  1  0
  2  3  1  0
  4  5  2  3
  4  7  1  0
  5  6  1  0
M  RAD  2   1   2   6   2
M  END
>  <reaction>  (7) 
rmg_rxn_1527

>  <mol_properties>  (7) 
{"0": {"label": "*0", "atom_type": "O2s"}, "1": {"label": "*1", "atom_type": "O2s"}, "2": {"label": "*2", "atom_type": "H0"}, "3": {"label": "*3", "atom_type": "N3d"}, "4": {"label": "*4", "atom_type": "N3d"}}

>  <type>  (7) 
unop_3

>  <geom_source>  (7) 
Heuristics

$$$$

     RDKit          3D

  7  5  0  0  0  0  0  0  0  0999 V2000
    0.2535   -1.6111   -0.8986 O   0  0  0  0  0  1  0  0  0  0  0  0
    0.2535   -1.6111    0.4108 O   0  0  0  0  0  0  0  0  0  0  0  0
    0.2535   -0.4886    0.7282 H   0  0  0  0  0  0  0  0  0  0  0  0
    0.2535    0.6809    1.0588 N   0  0  0  0  0  0  0  0  0  0  0  0
   -0.3207    1.5788    0.2793 N   0  0  0  0  0  0  0  0  0  0  0  0
   -0.4901    1.2152   -0.8564 O   0  0  0  0  0  1  0  0  0  0  0  0
    0.4136    0.9425    2.0140 H   0  0  0  0  0  0  0  0  0  0  0  0
  1  2  1  0
  2  3  1  0
  4  5  2  3
  4  7  1  0
  5  6  1  0
M  RAD  2   1   2   6   2
M  END
>  <reaction>  (8) 
rmg_rxn_1527

>  <mol_properties>  (8) 
{"0": {"label": "*0", "atom_type": "O2s"}, "1": {"label": "*1", "atom_type": "O2s"}, "2": {"label": "*2", "atom_type": "H0"}, "3": {"label": "*3", "atom_type": "N3d"}, "4": {"label": "*4", "atom_type": "N3d"}}

>  <type>  (8) 
unop_4

>  <geom_source>  (8) 
Heuristics

$$$$

     RDKit          3D

  7  5  0  0  0  0  0  0  0  0999 V2000
   -2.5065   -0.2144    0.0001 O   0  0  0  0  0  1  0  0  0  0  0  0
   -1.5462    0.6534   -0.0001 O   0  0  0  0  0  0  0  0  0  0  0  0
   -0.5146    0.1056    0.0001 H   0  0  0  0  0  0  0  0  0  0  0  0
    0.4388   -0.6538   -0.0001 N   0  0  0  0  0  0  0  0  0  0  0  0
    1.6427   -0.4198    0.0000 N   0  0  0  0  0  0  0  0  0  0  0  0
    2.2547    0.5963    0.0001 O   0  0  0  0  0  1  0  0  0  0  0  0
    0.1309   -1.6211   -0.0002 H   0  0  0  0  0  0  0  0  0  0  0  0
  1  2  1  0
  2  3  1  0
  4  5  2  3
  4  7  1  0
  5  6  1  0
M  RAD  2   1   2   6   2
M  END
>  <reaction>  (9) 
rmg_rxn_1527

>  <mol_properties>  (9) 
{"0": {"label": "*0", "atom_type": "O2s"}, "1": {"label": "*1", "atom_type": "O2s"}, "2": {"label": "*2", "atom_type": "H0"}, "3": {"label": "*3", "atom_type": "N3d"}, "4": {"label": "*4", "atom_type": "N3d"}}

>  <type>  (9) 
unop_5

>  <geom_source>  (9) 
Heuristics

$$$$

     RDKit          3D

  7  5  0  0  0  0  0  0  0  0999 V2000
    0.4188   -1.3589   -1.9030 O   0  0  0  0  0  1  0  0  0  0  0  0
    0.4188   -1.3589   -0.5936 O   0  0  0  0  0  0  0  0  0  0  0  0
    0.4188   -0.2364   -0.2762 H   0  0  0  0  0  0  0  0  0  0  0  0
    0.4188    0.9331    0.0545 N   0  0  0  0  0  0  0  0  0  0  0  0
   -0.1554    1.2899    1.1888 N   0  0  0  0  0  0  0  0  0  0  0  0
   -1.1746    0.6981    1.4375 O   0  0  0  0  0  1  0  0  0  0  0  0
    1.2711    1.4014   -0.1917 H   0  0  0  0  0  0  0  0  0  0  0  0
  1  2  1  0
  2  3  1  0
  4  5  2  3
  4  7  1  0
  5  6  1  0
M  RAD  2   1   2   6   2
M  END
>  <reaction>  (10) 
rmg_rxn_1527

>  <mol_properties>  (10) 
{"0": {"label": "*0", "atom_type": "O2s"}, "1": {"label": "*1", "atom_type": "O2s"}, "2": {"label": "*2", "atom_type": "H0"}, "3": {"label": "*3", "atom_type": "N3d"}, "4": {"label": "*4", "atom_type": "N3d"}}

>  <type>  (10) 
unop_6

>  <geom_source>  (10) 
Heuristics

$$$$

     RDKit          3D

  7  5  0  0  0  0  0  0  0  0999 V2000
   -0.4717   -1.5862   -1.0647 O   0  0  0  0  0  1  0  0  0  0  0  0
   -0.4717   -1.5862    0.2447 O   0  0  0  0  0  0  0  0  0  0  0  0
   -0.4717   -0.4637    0.5621 H   0  0  0  0  0  0  0  0  0  0  0  0
   -0.4717    0.7058    0.8928 N   0  0  0  0  0  0  0  0  0  0  0  0
    0.5227    1.4893    0.5177 N   0  0  0  0  0  0  0  0  0  0  0  0
    0.9842    1.2238   -0.5628 O   0  0  0  0  0  1  0  0  0  0  0  0
   -0.8859    0.8918    1.7873 H   0  0  0  0  0  0  0  0  0  0  0  0
  1  2  1  0
  2  3  1  0
  4  5  2  3
  4  7  1  0
  5  6  1  0
M  RAD  2   1   2   6   2
M  END
>  <reaction>  (11) 
rmg_rxn_1527

>  <mol_properties>  (11) 
{"0": {"label": "*0", "atom_type": "O2s"}, "1": {"label": "*1", "atom_type": "O2s"}, "2": {"label": "*2", "atom_type": "H0"}, "3": {"label": "*3", "atom_type": "N3d"}, "4": {"label": "*4", "atom_type": "N3d"}}

>  <type>  (11) 
unop_7

>  <geom_source>  (11) 
Heuristics

$$$$

     RDKit          3D

  7  5  0  0  0  0  0  0  0  0999 V2000
   -2.5065    0.2143   -0.0006 O   0  0  0  0  0  1  0  0  0  0  0  0
   -1.5462   -0.6534    0.0006 O   0  0  0  0  0  0  0  0  0  0  0  0
   -0.5146   -0.1056    0.0003 H   0  0  0  0  0  0  0  0  0  0  0  0
    0.4388    0.6538    0.0004 N   0  0  0  0  0  0  0  0  0  0  0  0
    1.6427    0.4198    0.0000 N   0  0  0  0  0  0  0  0  0  0  0  0
    2.2547   -0.5964   -0.0004 O   0  0  0  0  0  1  0  0  0  0  0  0
    0.1310    1.6211    0.0006 H   0  0  0  0  0  0  0  0  0  0  0  0
  1  2  1  0
  2  3  1  0
  4  5  2  3
  4  7  1  0
  5  6  1  0
M  RAD  2   1   2   6   2
M  END
>  <reaction>  (12) 
rmg_rxn_1527

>  <mol_properties>  (12) 
{"0": {"label": "*0", "atom_type": "O2s"}, "1": {"label": "*1", "atom_type": "O2s"}, "2": {"label": "*2", "atom_type": "H0"}, "3": {"label": "*3", "atom_type": "N3d"}, "4": {"label": "*4", "atom_type": "N3d"}}

>  <type>  (12) 
unop_8

>  <geom_source>  (12) 
Heuristics

$$$$

     RDKit          3D

  7  5  0  0  0  0  0  0  0  0999 V2000
   -0.0000   -1.2737   -2.0562 O   0  0  0  0  0  1  0  0  0  0  0  0
   -0.0000   -1.2737   -0.7468 O   0  0  0  0  0  0  0  0  0  0  0  0
   -0.0000   -0.1512   -0.4294 H   0  0  0  0  0  0  0  0  0  0  0  0
   -0.0000    1.0183   -0.0987 N   0  0  0  0  0  0  0  0  0  0  0  0
   -0.0000    1.3332    1.1836 N   0  0  0  0  0  0  0  0  0  0  0  0
    0.0000    0.3862    1.9278 O   0  0  0  0  0  1  0  0  0  0  0  0
   -0.0000    1.7776   -0.7543 H   0  0  0  0  0  0  0  0  0  0  0  0
  1  2  1  0
  2  3  1  0
  4  5  2  3
  4  7  1  0
  5  6  1  0
M  RAD  2   1   2   6   2
M  END
>  <reaction>  (13) 
rmg_rxn_1527

>  <mol_properties>  (13) 
{"0": {"label": "*0", "atom_type": "O2s"}, "1": {"label": "*1", "atom_type": "O2s"}, "2": {"label": "*2", "atom_type": "H0"}, "3": {"label": "*3", "atom_type": "N3d"}, "4": {"label": "*4", "atom_type": "N3d"}}

>  <type>  (13) 
unop_9

>  <geom_source>  (13) 
Heuristics

$$$$

     RDKit          3D

  7  5  0  0  0  0  0  0  0  0999 V2000
    2.5066    0.2144    0.0001 O   0  0  0  0  0  1  0  0  0  0  0  0
    1.5463   -0.6534   -0.0001 O   0  0  0  0  0  0  0  0  0  0  0  0
    0.5146   -0.1057    0.0005 H   0  0  0  0  0  0  0  0  0  0  0  0
   -0.4387    0.6538    0.0001 N   0  0  0  0  0  0  0  0  0  0  0  0
   -1.6427    0.4198   -0.0002 N   0  0  0  0  0  0  0  0  0  0  0  0
   -2.2548   -0.5963    0.0001 O   0  0  0  0  0  1  0  0  0  0  0  0
   -0.1308    1.6210   -0.0002 H   0  0  0  0  0  0  0  0  0  0  0  0
  1  2  1  0
  2  3  1  0
  4  5  2  3
  4  7  1  0
  5  6  1  0
M  RAD  2   1   2   6   2
M  END
>  <reaction>  (14) 
rmg_rxn_1527

>  <mol_properties>  (14) 
{"0": {"label": "*0", "atom_type": "O2s"}, "1": {"label": "*1", "atom_type": "O2s"}, "2": {"label": "*2", "atom_type": "H0"}, "3": {"label": "*3", "atom_type": "N3d"}, "4": {"label": "*4", "atom_type": "N3d"}}

>  <type>  (14) 
unop_10

>  <geom_source>  (14) 
Heuristics

$$$$

     RDKit          3D

  7  5  0  0  0  0  0  0  0  0999 V2000
   -0.6016   -1.5340   -1.3222 O   0  0  0  0  0  1  0  0  0  0  0  0
   -0.6016   -1.5340   -0.0128 O   0  0  0  0  0  0  0  0  0  0  0  0
   -0.6016   -0.4115    0.3046 H   0  0  0  0  0  0  0  0  0  0  0  0
   -0.6016    0.7580    0.6353 N   0  0  0  0  0  0  0  0  0  0  0  0
    0.5467    1.3853    0.8126 N   0  0  0  0  0  0  0  0  0  0  0  0
    1.3723    1.1597   -0.0348 O   0  0  0  0  0  1  0  0  0  0  0  0
   -1.3184    0.9177    1.3187 H   0  0  0  0  0  0  0  0  0  0  0  0
  1  2  1  0
  2  3  1  0
  4  5  2  3
  4  7  1  0
  5  6  1  0
M  RAD  2   1   2   6   2
M  END
>  <reaction>  (15) 
rmg_rxn_1527

>  <mol_properties>  (15) 
{"0": {"label": "*0", "atom_type": "O2s"}, "1": {"label": "*1", "atom_type": "O2s"}, "2": {"label": "*2", "atom_type": "H0"}, "3": {"label": "*3", "atom_type": "N3d"}, "4": {"label": "*4", "atom_type": "N3d"}}

>  <type>  (15) 
unop_11

>  <geom_source>  (15) 
Heuristics

$$$$

     RDKit          3D

  7  5  0  0  0  0  0  0  0  0999 V2000
    2.5066    0.2143   -0.0003 O   0  0  0  0  0  1  0  0  0  0  0  0
    1.5462   -0.6533    0.0002 O   0  0  0  0  0  0  0  0  0  0  0  0
    0.5146   -0.1055    0.0002 H   0  0  0  0  0  0  0  0  0  0  0  0
   -0.4388    0.6539    0.0002 N   0  0  0  0  0  0  0  0  0  0  0  0
   -1.6427    0.4198    0.0000 N   0  0  0  0  0  0  0  0  0  0  0  0
   -2.2547   -0.5964   -0.0002 O   0  0  0  0  0  1  0  0  0  0  0  0
   -0.1310    1.6211    0.0002 H   0  0  0  0  0  0  0  0  0  0  0  0
  1  2  1  0
  2  3  1  0
  4  5  2  3
  4  7  1  0
  5  6  1  0
M  RAD  2   1   2   6   2
M  END
>  <reaction>  (16) 
rmg_rxn_1527

>  <mol_properties>  (16) 
{"0": {"label": "*0", "atom_type": "O2s"}, "1": {"label": "*1", "atom_type": "O2s"}, "2": {"label": "*2", "atom_type": "H0"}, "3": {"label": "*3", "atom_type": "N3d"}, "4": {"label": "*4", "atom_type": "N3d"}}

>  <type>  (16) 
unop_12

>  <geom_source>  (16) 
Heuristics

$$$$

     RDKit          3D

  7  5  0  0  0  0  0  0  0  0999 V2000
   -0.5950   -1.4573   -1.6229 O   0  0  0  0  0  1  0  0  0  0  0  0
   -0.5950   -1.4573   -0.3135 O   0  0  0  0  0  0  0  0  0  0  0  0
   -0.5950   -0.3348    0.0039 H   0  0  0  0  0  0  0  0  0  0  0  0
   -0.5950    0.8347    0.3346 N   0  0  0  0  0  0  0  0  0  0  0  0
    0.3994    1.3058    1.0644 N   0  0  0  0  0  0  0  0  0  0  0  0
    1.4948    0.9944    0.6720 O   0  0  0  0  0  1  0  0  0  0  0  0
   -1.5255    1.0702    0.6261 H   0  0  0  0  0  0  0  0  0  0  0  0
  1  2  1  0
  2  3  1  0
  4  5  2  3
  4  7  1  0
  5  6  1  0
M  RAD  2   1   2   6   2
M  END
>  <reaction>  (17) 
rmg_rxn_1527

>  <mol_properties>  (17) 
{"0": {"label": "*0", "atom_type": "O2s"}, "1": {"label": "*1", "atom_type": "O2s"}, "2": {"label": "*2", "atom_type": "H0"}, "3": {"label": "*3", "atom_type": "N3d"}, "4": {"label": "*4", "atom_type": "N3d"}}

>  <type>  (17) 
unop_13

>  <geom_source>  (17) 
Heuristics

$$$$

     RDKit          3D

  7  5  0  0  0  0  0  0  0  0999 V2000
    0.6016   -1.5340   -1.3222 O   0  0  0  0  0  1  0  0  0  0  0  0
    0.6016   -1.5340   -0.0128 O   0  0  0  0  0  0  0  0  0  0  0  0
    0.6016   -0.4115    0.3046 H   0  0  0  0  0  0  0  0  0  0  0  0
    0.6016    0.7580    0.6353 N   0  0  0  0  0  0  0  0  0  0  0  0
   -0.5467    1.3853    0.8126 N   0  0  0  0  0  0  0  0  0  0  0  0
   -1.3723    1.1597   -0.0348 O   0  0  0  0  0  1  0  0  0  0  0  0
    1.3184    0.9177    1.3187 H   0  0  0  0  0  0  0  0  0  0  0  0
  1  2  1  0
  2  3  1  0
  4  5  2  3
  4  7  1  0
  5  6  1  0
M  RAD  2   1   2   6   2
M  END
>  <reaction>  (18) 
rmg_rxn_1527

>  <mol_properties>  (18) 
{"0": {"label": "*0", "atom_type": "O2s"}, "1": {"label": "*1", "atom_type": "O2s"}, "2": {"label": "*2", "atom_type": "H0"}, "3": {"label": "*3", "atom_type": "N3d"}, "4": {"label": "*4", "atom_type": "N3d"}}

>  <type>  (18) 
unop_14

>  <geom_source>  (18) 
Heuristics

$$$$

     RDKit          3D

  7  5  0  0  0  0  0  0  0  0999 V2000
    2.5066   -0.2143   -0.0001 O   0  0  0  0  0  1  0  0  0  0  0  0
    1.5462    0.6534    0.0001 O   0  0  0  0  0  0  0  0  0  0  0  0
    0.5146    0.1056   -0.0000 H   0  0  0  0  0  0  0  0  0  0  0  0
   -0.4388   -0.6538    0.0000 N   0  0  0  0  0  0  0  0  0  0  0  0
   -1.6427   -0.4198    0.0000 N   0  0  0  0  0  0  0  0  0  0  0  0
   -2.2547    0.5964   -0.0001 O   0  0  0  0  0  1  0  0  0  0  0  0
   -0.1310   -1.6211    0.0001 H   0  0  0  0  0  0  0  0  0  0  0  0
  1  2  1  0
  2  3  1  0
  4  5  2  3
  4  7  1  0
  5  6  1  0
M  RAD  2   1   2   6   2
M  END
>  <reaction>  (19) 
rmg_rxn_1527

>  <mol_properties>  (19) 
{"0": {"label": "*0", "atom_type": "O2s"}, "1": {"label": "*1", "atom_type": "O2s"}, "2": {"label": "*2", "atom_type": "H0"}, "3": {"label": "*3", "atom_type": "N3d"}, "4": {"label": "*4", "atom_type": "N3d"}}

>  <type>  (19) 
unop_15

>  <geom_source>  (19) 
Heuristics

$$$$

     RDKit          3D

  7  5  0  0  0  0  0  0  0  0999 V2000
   -0.2535   -1.6111   -0.8986 O   0  0  0  0  0  1  0  0  0  0  0  0
   -0.2535   -1.6111    0.4108 O   0  0  0  0  0  0  0  0  0  0  0  0
   -0.2535   -0.4886    0.7282 H   0  0  0  0  0  0  0  0  0  0  0  0
   -0.2535    0.6809    1.0588 N   0  0  0  0  0  0  0  0  0  0  0  0
    0.3207    1.5788    0.2793 N   0  0  0  0  0  0  0  0  0  0  0  0
    0.4901    1.2152   -0.8564 O   0  0  0  0  0  1  0  0  0  0  0  0
   -0.4136    0.9425    2.0140 H   0  0  0  0  0  0  0  0  0  0  0  0
  1  2  1  0
  2  3  1  0
  4  5  2  3
  4  7  1  0
  5  6  1  0
M  RAD  2   1   2   6   2
M  END
>  <reaction>  (20) 
rmg_rxn_1527

>  <mol_properties>  (20) 
{"0": {"label": "*0", "atom_type": "O2s"}, "1": {"label": "*1", "atom_type": "O2s"}, "2": {"label": "*2", "atom_type": "H0"}, "3": {"label": "*3", "atom_type": "N3d"}, "4": {"label": "*4", "atom_type": "N3d"}}

>  <type>  (20) 
unop_16

>  <geom_source>  (20) 
Heuristics

$$$$

     RDKit          3D

  7  5  0  0  0  0  0  0  0  0999 V2000
    0.4717   -1.5862   -1.0647 O   0  0  0  0  0  1  0  0  0  0  0  0
    0.4717   -1.5862    0.2447 O   0  0  0  0  0  0  0  0  0  0  0  0
    0.4717   -0.4637    0.5621 H   0  0  0  0  0  0  0  0  0  0  0  0
    0.4717    0.7058    0.8928 N   0  0  0  0  0  0  0  0  0  0  0  0
   -0.5227    1.4893    0.5177 N   0  0  0  0  0  0  0  0  0  0  0  0
   -0.9842    1.2238   -0.5628 O   0  0  0  0  0  1  0  0  0  0  0  0
    0.8859    0.8918    1.7873 H   0  0  0  0  0  0  0  0  0  0  0  0
  1  2  1  0
  2  3  1  0
  4  5  2  3
  4  7  1  0
  5  6  1  0
M  RAD  2   1   2   6   2
M  END
>  <reaction>  (21) 
rmg_rxn_1527

>  <mol_properties>  (21) 
{"0": {"label": "*0", "atom_type": "O2s"}, "1": {"label": "*1", "atom_type": "O2s"}, "2": {"label": "*2", "atom_type": "H0"}, "3": {"label": "*3", "atom_type": "N3d"}, "4": {"label": "*4", "atom_type": "N3d"}}

>  <type>  (21) 
unop_17

>  <geom_source>  (21) 
Heuristics

$$$$

     RDKit          3D

  7  5  0  0  0  0  0  0  0  0999 V2000
   -0.4188   -1.3589   -1.9030 O   0  0  0  0  0  1  0  0  0  0  0  0
   -0.4188   -1.3589   -0.5936 O   0  0  0  0  0  0  0  0  0  0  0  0
   -0.4188   -0.2364   -0.2762 H   0  0  0  0  0  0  0  0  0  0  0  0
   -0.4188    0.9331    0.0545 N   0  0  0  0  0  0  0  0  0  0  0  0
    0.1554    1.2899    1.1888 N   0  0  0  0  0  0  0  0  0  0  0  0
    1.1746    0.6982    1.4375 O   0  0  0  0  0  1  0  0  0  0  0  0
   -1.2711    1.4014   -0.1917 H   0  0  0  0  0  0  0  0  0  0  0  0
  1  2  1  0
  2  3  1  0
  4  5  2  3
  4  7  1  0
  5  6  1  0
M  RAD  2   1   2   6   2
M  END
>  <reaction>  (22) 
rmg_rxn_1527

>  <mol_properties>  (22) 
{"0": {"label": "*0", "atom_type": "O2s"}, "1": {"label": "*1", "atom_type": "O2s"}, "2": {"label": "*2", "atom_type": "H0"}, "3": {"label": "*3", "atom_type": "N3d"}, "4": {"label": "*4", "atom_type": "N3d"}}

>  <type>  (22) 
unop_18

>  <geom_source>  (22) 
Heuristics

$$$$

     RDKit          3D

  7  5  0  0  0  0  0  0  0  0999 V2000
    0.0000   -1.6167   -0.8429 O   0  0  0  0  0  1  0  0  0  0  0  0
    0.0000   -1.6167    0.4665 O   0  0  0  0  0  0  0  0  0  0  0  0
    0.0000   -0.4943    0.7839 H   0  0  0  0  0  0  0  0  0  0  0  0
    0.0000    0.6753    1.1146 N   0  0  0  0  0  0  0  0  0  0  0  0
    0.0000    1.6150    0.1870 N   0  0  0  0  0  0  0  0  0  0  0  0
   -0.0000    1.1979   -0.9430 O   0  0  0  0  0  1  0  0  0  0  0  0
    0.0000    0.9788    2.0707 H   0  0  0  0  0  0  0  0  0  0  0  0
  1  2  1  0
  2  3  1  0
  4  5  2  3
  4  7  1  0
  5  6  1  0
M  RAD  2   1   2   6   2
M  END
>  <reaction>  (23) 
rmg_rxn_1527

>  <mol_properties>  (23) 
{"0": {"label": "*0", "atom_type": "O2s"}, "1": {"label": "*1", "atom_type": "O2s"}, "2": {"label": "*2", "atom_type": "H0"}, "3": {"label": "*3", "atom_type": "N3d"}, "4": {"label": "*4", "atom_type": "N3d"}}

>  <type>  (23) 
unop_19

>  <geom_source>  (23) 
Heuristics

$$$$

     RDKit          3D

  7  5  0  0  0  0  0  0  0  0999 V2000
    0.4717   -1.5862   -1.0647 O   0  0  0  0  0  1  0  0  0  0  0  0
    0.4717   -1.5862    0.2447 O   0  0  0  0  0  0  0  0  0  0  0  0
    0.4717   -0.4637    0.5621 H   0  0  0  0  0  0  0  0  0  0  0  0
    0.4717    0.7058    0.8928 N   0  0  0  0  0  0  0  0  0  0  0  0
   -0.5227    1.4893    0.5177 N   0  0  0  0  0  0  0  0  0  0  0  0
   -0.9842    1.2238   -0.5628 O   0  0  0  0  0  1  0  0  0  0  0  0
    0.8859    0.8918    1.7873 H   0  0  0  0  0  0  0  0  0  0  0  0
  1  2  1  0
  2  3  1  0
  4  5  2  3
  4  7  1  0
  5  6  1  0
M  RAD  2   1   2   6   2
M  END
>  <reaction>  (24) 
rmg_rxn_1527

>  <mol_properties>  (24) 
{"0": {"label": "*0", "atom_type": "O2s"}, "1": {"label": "*1", "atom_type": "O2s"}, "2": {"label": "*2", "atom_type": "H0"}, "3": {"label": "*3", "atom_type": "N3d"}, "4": {"label": "*4", "atom_type": "N3d"}}

>  <type>  (24) 
unop_20

>  <geom_source>  (24) 
gaussian_log

$$$$
