
     RDKit          3D

  9  8  0  0  0  0  0  0  0  0999 V2000
   -1.5470   -0.0755   -0.1976 C   0  0  0  0  0  0  0  0  0  0  0  0
   -0.2885    0.4507    0.1749 O   0  0  0  0  0  0  0  0  0  0  0  0
   -0.1502    1.7216   -0.3294 N   0  0  0  0  0  0  0  0  0  0  0  0
    0.9626    2.2353   -0.0219 C   0  0  0  0  0  0  0  0  0  0  0  0
   -1.6392   -0.1356   -1.2844 H   0  0  0  0  0  0  0  0  0  0  0  0
   -2.3597    0.5337    0.2044 H   0  0  0  0  0  0  0  0  0  0  0  0
   -1.5879   -1.0750    0.2318 H   0  0  0  0  0  0  0  0  0  0  0  0
    1.1497    3.2381   -0.3820 H   0  0  0  0  0  0  0  0  0  0  0  0
    1.7060    1.7101    0.5739 H   0  0  0  0  0  0  0  0  0  0  0  0
  1  2  1  0
  1  5  1  0
  1  6  1  0
  1  7  1  0
  2  3  1  0
  3  4  2  3
  4  8  1  0
  4  9  1  0
M  END
>  <reaction>  (1) 
rmg_rxn_15575

>  <mol_properties>  (1) 
{"0": {"label": "donator", "atom_type": "Cs"}, "4": {"label": "d_hydrogen", "atom_type": "H0"}}

>  <type>  (1) 
r1h

$$$$

     RDKit          3D

  4  3  0  0  0  0  0  0  0  0999 V2000
    0.0000    0.0000    0.0000 C   0  0  0  0  0  3  0  0  0  0  0  0
    1.0638   -0.1747    0.0540 H   0  0  0  0  0  0  0  0  0  0  0  0
   -0.6833   -0.8351   -0.0280 H   0  0  0  0  0  0  0  0  0  0  0  0
   -0.3805    1.0098   -0.0260 H   0  0  0  0  0  0  0  0  0  0  0  0
  1  2  1  0
  1  3  1  0
  1  4  1  0
M  RAD  1   1   2
M  END
>  <reaction>  (2) 
rmg_rxn_15575

>  <mol_properties>  (2) 
{"0": {"label": "acceptor", "atom_type": "Cs"}}

>  <type>  (2) 
r2

$$$$

     RDKit          3D

  5  4  0  0  0  0  0  0  0  0999 V2000
    0.0000    0.0000    0.0000 C   0  0  0  0  0  0  0  0  0  0  0  0
   -0.6486   -0.7720   -0.4113 H   0  0  0  0  0  0  0  0  0  0  0  0
   -0.3482    0.9787   -0.3267 H   0  0  0  0  0  0  0  0  0  0  0  0
   -0.0223   -0.0487    1.0876 H   0  0  0  0  0  0  0  0  0  0  0  0
    1.0191   -0.1580   -0.3496 H   0  0  0  0  0  0  0  0  0  0  0  0
  1  2  1  0
  1  3  1  0
  1  4  1  0
  1  5  1  0
M  END
>  <reaction>  (3) 
rmg_rxn_15575

>  <mol_properties>  (3) 
{"0": {"label": "acceptor", "atom_type": "Cs"}, "4": {"label": "a_hydrogen", "atom_type": "H0"}}

>  <type>  (3) 
r2h

$$$$

     RDKit          3D

 13 11  0  0  0  0  0  0  0  0999 V2000
    1.6467   -0.5279    2.0209 C   0  0  0  0  0  3  0  0  0  0  0  0
    1.7095   -1.4255    1.4136 H   0  0  0  0  0  0  0  0  0  0  0  0
    1.5101   -0.7200    3.0811 H   0  0  0  0  0  0  0  0  0  0  0  0
    2.4144    0.2080    1.8010 H   0  0  0  0  0  0  0  0  0  0  0  0
   -0.6198    0.6056    1.1056 C   0  0  0  0  0  0  0  0  0  0  0  0
   -0.4514    0.7492   -0.2671 O   0  0  0  0  0  0  0  0  0  0  0  0
   -0.5165   -0.4768   -0.8929 N   0  0  0  0  0  0  0  0  0  0  0  0
   -0.3021   -0.3799   -2.1345 C   0  0  0  0  0  0  0  0  0  0  0  0
    0.4575    0.0715    1.6057 H   0  0  0  0  0  0  0  0  0  0  0  0
   -1.4384   -0.0657    1.3655 H   0  0  0  0  0  0  0  0  0  0  0  0
   -0.7114    1.6000    1.5353 H   0  0  0  0  0  0  0  0  0  0  0  0
   -0.3441   -1.2981   -2.7048 H   0  0  0  0  0  0  0  0  0  0  0  0
   -0.0865    0.5688   -2.6208 H   0  0  0  0  0  0  0  0  0  0  0  0
  1  2  1  0
  1  3  1  0
  1  4  1  0
  5  6  1  0
  5  9  1  0
  5 10  1  0
  5 11  1  0
  6  7  1  0
  7  8  2  3
  8 12  1  0
  8 13  1  0
M  RAD  1   1   2
M  END
>  <reaction>  (4) 
rmg_rxn_15575

>  <mol_properties>  (4) 
{"0": {"label": "*3", "atom_type": "Cs"}, "1": {"label": "*4", "atom_type": "H0"}, "4": {"label": "*1", "atom_type": "Cs"}, "5": {"label": "*0", "atom_type": "O2s"}, "8": {"label": "*2", "atom_type": "H0"}}

>  <type>  (4) 
ts

$$$$

     RDKit          3D

 13 11  0  0  0  0  0  0  0  0999 V2000
    2.4457   -0.6220    0.2237 C   0  0  0  0  0  0  0  0  0  0  0  0
    3.2255    0.0077    0.6236 H   0  0  0  0  0  0  0  0  0  0  0  0
    2.7752   -1.1608   -0.6525 H   0  0  0  0  0  0  0  0  0  0  0  0
    2.0403   -1.2831    0.9751 H   0  0  0  0  0  0  0  0  0  0  0  0
    0.4895    0.9778   -0.5532 C   0  0  0  0  0  3  0  0  0  0  0  0
   -0.5639    0.9156    0.3349 O   0  0  0  0  0  0  0  0  0  0  0  0
   -1.4125   -0.1328    0.3633 N   0  0  0  0  0  0  0  0  0  0  0  0
   -1.2340   -1.1732   -0.3308 C   0  0  0  0  0  0  0  0  0  0  0  0
    1.4996    0.1581   -0.1488 H   0  0  0  0  0  0  0  0  0  0  0  0
    0.8987    1.9796   -0.4984 H   0  0  0  0  0  0  0  0  0  0  0  0
    0.2547    0.6586   -1.5680 H   0  0  0  0  0  0  0  0  0  0  0  0
   -1.9869   -1.9345   -0.2291 H   0  0  0  0  0  0  0  0  0  0  0  0
   -0.3992   -1.3738   -0.9974 H   0  0  0  0  0  0  0  0  0  0  0  0
  1  2  1  0
  1  3  1  0
  1  4  1  0
  1  9  1  0
  5  6  1  0
  5 10  1  0
  5 11  1  0
  6  7  1  0
  7  8  2  3
  8 12  1  0
  8 13  1  0
M  RAD  1   5   2
M  END
>  <reaction>  (5) 
rmg_rxn_15575

>  <mol_properties>  (5) 
{"0": {"label": "*3", "atom_type": "Cs"}, "1": {"label": "*4", "atom_type": "H0"}, "4": {"label": "*1", "atom_type": "Cs"}, "5": {"label": "*0", "atom_type": "O2s"}, "8": {"label": "*2", "atom_type": "H0"}}

>  <type>  (5) 
unop_1

>  <geom_source>  (5) 
crest_best.xyz

$$$$

     RDKit          3D

 13 11  0  0  0  0  0  0  0  0999 V2000
    1.6953   -0.5187    1.9662 C   0  0  0  0  0  0  0  0  0  0  0  0
    2.2622    0.1580    2.6037 H   0  0  0  0  0  0  0  0  0  0  0  0
    2.3485   -1.3130    1.6084 H   0  0  0  0  0  0  0  0  0  0  0  0
    0.9534   -0.8679    2.6828 H   0  0  0  0  0  0  0  0  0  0  0  0
   -0.4426    0.7037    1.0793 C   0  0  0  0  0  3  0  0  0  0  0  0
   -0.4426    0.7616   -0.3335 O   0  0  0  0  0  0  0  0  0  0  0  0
   -0.4426   -0.5122   -0.8493 N   0  0  0  0  0  0  0  0  0  0  0  0
   -0.4426   -0.5122   -2.1129 C   0  0  0  0  0  0  0  0  0  0  0  0
    0.6280    0.0915    1.5235 H   0  0  0  0  0  0  0  0  0  0  0  0
   -1.3347    0.1935    1.4495 H   0  0  0  0  0  0  0  0  0  0  0  0
   -0.4426    1.7386    1.4172 H   0  0  0  0  0  0  0  0  0  0  0  0
   -0.4426   -1.4793   -2.5977 H   0  0  0  0  0  0  0  0  0  0  0  0
   -0.4426    0.4042   -2.6990 H   0  0  0  0  0  0  0  0  0  0  0  0
  1  2  1  0
  1  3  1  0
  1  4  1  0
  1  9  1  0
  5  6  1  0
  5 10  1  0
  5 11  1  0
  6  7  1  0
  7  8  2  3
  8 12  1  0
  8 13  1  0
M  RAD  1   5   2
M  END
>  <reaction>  (6) 
rmg_rxn_15575

>  <mol_properties>  (6) 
{"0": {"label": "*3", "atom_type": "Cs"}, "1": {"label": "*4", "atom_type": "H0"}, "4": {"label": "*1", "atom_type": "Cs"}, "5": {"label": "*0", "atom_type": "O2s"}, "8": {"label": "*2", "atom_type": "H0"}}

>  <type>  (6) 
unop_2

>  <geom_source>  (6) 
Heuristics

$$$$

     RDKit          3D

 13 11  0  0  0  0  0  0  0  0999 V2000
   -3.0156    0.0328    0.0120 C   0  0  0  0  0  0  0  0  0  0  0  0
   -3.3066   -0.3943    0.9575 H   0  0  0  0  0  0  0  0  0  0  0  0
   -3.6969    0.7840   -0.3144 H   0  0  0  0  0  0  0  0  0  0  0  0
   -1.9938    0.3760    0.0135 H   0  0  0  0  0  0  0  0  0  0  0  0
    0.6462   -1.7117    0.0019 C   0  0  0  0  0  3  0  0  0  0  0  0
    1.2528   -0.5216   -0.0082 O   0  0  0  0  0  0  0  0  0  0  0  0
    0.4083    0.5621    0.0082 N   0  0  0  0  0  0  0  0  0  0  0  0
    0.9756    1.7016    0.0003 C   0  0  0  0  0  0  0  0  0  0  0  0
   -3.2178   -0.6454   -0.8138 H   0  0  0  0  0  0  0  0  0  0  0  0
   -0.4232   -1.7794    0.0216 H   0  0  0  0  0  0  0  0  0  0  0  0
    1.3120   -2.5482   -0.0114 H   0  0  0  0  0  0  0  0  0  0  0  0
    0.3256    2.5569    0.0129 H   0  0  0  0  0  0  0  0  0  0  0  0
    2.0502    1.8470   -0.0180 H   0  0  0  0  0  0  0  0  0  0  0  0
  1  2  1  0
  1  3  1  0
  1  4  1  0
  1  9  1  0
  5  6  1  0
  5 10  1  0
  5 11  1  0
  6  7  1  0
  7  8  2  3
  8 12  1  0
  8 13  1  0
M  RAD  1   5   2
M  END
>  <reaction>  (7) 
rmg_rxn_15575

>  <mol_properties>  (7) 
{"0": {"label": "*3", "atom_type": "Cs"}, "1": {"label": "*4", "atom_type": "H0"}, "4": {"label": "*1", "atom_type": "Cs"}, "5": {"label": "*0", "atom_type": "O2s"}, "8": {"label": "*2", "atom_type": "H0"}}

>  <type>  (7) 
unop_3

>  <geom_source>  (7) 
Heuristics

$$$$

     RDKit          3D

 13 11  0  0  0  0  0  0  0  0999 V2000
    2.4437    0.6217    0.2237 C   0  0  0  0  0  0  0  0  0  0  0  0
    2.7536    1.1814   -0.6465 H   0  0  0  0  0  0  0  0  0  0  0  0
    3.2357   -0.0087    0.5976 H   0  0  0  0  0  0  0  0  0  0  0  0
    2.0445    1.2634    0.9952 H   0  0  0  0  0  0  0  0  0  0  0  0
    0.4887   -0.9799   -0.5525 C   0  0  0  0  0  3  0  0  0  0  0  0
   -0.5653   -0.9158    0.3349 O   0  0  0  0  0  0  0  0  0  0  0  0
   -1.4116    0.1344    0.3628 N   0  0  0  0  0  0  0  0  0  0  0  0
   -1.2303    1.1744   -0.3312 C   0  0  0  0  0  0  0  0  0  0  0  0
    1.4984   -0.1597   -0.1485 H   0  0  0  0  0  0  0  0  0  0  0  0
    0.2547   -0.6623   -1.5679 H   0  0  0  0  0  0  0  0  0  0  0  0
    0.8974   -1.9818   -0.4956 H   0  0  0  0  0  0  0  0  0  0  0  0
   -1.9814    1.9376   -0.2299 H   0  0  0  0  0  0  0  0  0  0  0  0
   -0.3949    1.3727   -0.9975 H   0  0  0  0  0  0  0  0  0  0  0  0
  1  2  1  0
  1  3  1  0
  1  4  1  0
  1  9  1  0
  5  6  1  0
  5 10  1  0
  5 11  1  0
  6  7  1  0
  7  8  2  3
  8 12  1  0
  8 13  1  0
M  RAD  1   5   2
M  END
>  <reaction>  (8) 
rmg_rxn_15575

>  <mol_properties>  (8) 
{"0": {"label": "*3", "atom_type": "Cs"}, "1": {"label": "*4", "atom_type": "H0"}, "4": {"label": "*1", "atom_type": "Cs"}, "5": {"label": "*0", "atom_type": "O2s"}, "8": {"label": "*2", "atom_type": "H0"}}

>  <type>  (8) 
unop_4

>  <geom_source>  (8) 
Heuristics

$$$$

     RDKit          3D

 13 11  0  0  0  0  0  0  0  0999 V2000
    2.4453   -0.6218   -0.2237 C   0  0  0  0  0  0  0  0  0  0  0  0
    3.2273    0.0077   -0.6193 H   0  0  0  0  0  0  0  0  0  0  0  0
    2.0408   -1.2799   -0.9784 H   0  0  0  0  0  0  0  0  0  0  0  0
    2.7713   -1.1639    0.6517 H   0  0  0  0  0  0  0  0  0  0  0  0
    0.4893    0.9784    0.5529 C   0  0  0  0  0  3  0  0  0  0  0  0
   -0.5644    0.9157   -0.3349 O   0  0  0  0  0  0  0  0  0  0  0  0
   -1.4124   -0.1333   -0.3630 N   0  0  0  0  0  0  0  0  0  0  0  0
   -1.2329   -1.1736    0.3309 C   0  0  0  0  0  0  0  0  0  0  0  0
    1.4994    0.1588    0.1486 H   0  0  0  0  0  0  0  0  0  0  0  0
    0.2548    0.6595    1.5679 H   0  0  0  0  0  0  0  0  0  0  0  0
    0.8982    1.9803    0.4975 H   0  0  0  0  0  0  0  0  0  0  0  0
   -1.9852   -1.9356    0.2292 H   0  0  0  0  0  0  0  0  0  0  0  0
   -0.3976   -1.3738    0.9969 H   0  0  0  0  0  0  0  0  0  0  0  0
  1  2  1  0
  1  3  1  0
  1  4  1  0
  1  9  1  0
  5  6  1  0
  5 10  1  0
  5 11  1  0
  6  7  1  0
  7  8  2  3
  8 12  1  0
  8 13  1  0
M  RAD  1   5   2
M  END
>  <reaction>  (9) 
rmg_rxn_15575

>  <mol_properties>  (9) 
{"0": {"label": "*3", "atom_type": "Cs"}, "1": {"label": "*4", "atom_type": "H0"}, "4": {"label": "*1", "atom_type": "Cs"}, "5": {"label": "*0", "atom_type": "O2s"}, "8": {"label": "*2", "atom_type": "H0"}}

>  <type>  (9) 
unop_5

>  <geom_source>  (9) 
Heuristics

$$$$

     RDKit          3D

 13 11  0  0  0  0  0  0  0  0999 V2000
    2.4466    0.6218    0.2236 C   0  0  0  0  0  0  0  0  0  0  0  0
    2.0423    1.2817    0.9768 H   0  0  0  0  0  0  0  0  0  0  0  0
    2.7749    1.1620   -0.6521 H   0  0  0  0  0  0  0  0  0  0  0  0
    3.2269   -0.0086    0.6214 H   0  0  0  0  0  0  0  0  0  0  0  0
    0.4897   -0.9771   -0.5533 C   0  0  0  0  0  3  0  0  0  0  0  0
   -0.5639   -0.9156    0.3348 O   0  0  0  0  0  0  0  0  0  0  0  0
   -1.4130    0.1323    0.3631 N   0  0  0  0  0  0  0  0  0  0  0  0
   -1.2347    1.1731   -0.3304 C   0  0  0  0  0  0  0  0  0  0  0  0
    1.4996   -0.1575   -0.1484 H   0  0  0  0  0  0  0  0  0  0  0  0
    0.2549   -0.6575   -1.5679 H   0  0  0  0  0  0  0  0  0  0  0  0
    0.8991   -1.9789   -0.4988 H   0  0  0  0  0  0  0  0  0  0  0  0
   -1.9882    1.9339   -0.2290 H   0  0  0  0  0  0  0  0  0  0  0  0
   -0.3998    1.3743   -0.9967 H   0  0  0  0  0  0  0  0  0  0  0  0
  1  2  1  0
  1  3  1  0
  1  4  1  0
  1  9  1  0
  5  6  1  0
  5 10  1  0
  5 11  1  0
  6  7  1  0
  7  8  2  3
  8 12  1  0
  8 13  1  0
M  RAD  1   5   2
M  END
>  <reaction>  (10) 
rmg_rxn_15575

>  <mol_properties>  (10) 
{"0": {"label": "*3", "atom_type": "Cs"}, "1": {"label": "*4", "atom_type": "H0"}, "4": {"label": "*1", "atom_type": "Cs"}, "5": {"label": "*0", "atom_type": "O2s"}, "8": {"label": "*2", "atom_type": "H0"}}

>  <type>  (10) 
unop_6

>  <geom_source>  (10) 
Heuristics

$$$$

     RDKit          3D

 13 11  0  0  0  0  0  0  0  0999 V2000
    1.6964   -0.5203    1.9731 C   0  0  0  0  0  0  0  0  0  0  0  0
    2.5199   -0.3613    1.2785 H   0  0  0  0  0  0  0  0  0  0  0  0
    1.7000   -1.5560    2.3093 H   0  0  0  0  0  0  0  0  0  0  0  0
    1.2624    0.0052    2.8224 H   0  0  0  0  0  0  0  0  0  0  0  0
   -0.4414    0.7022    1.0862 C   0  0  0  0  0  3  0  0  0  0  0  0
   -0.4415    0.7601   -0.3267 O   0  0  0  0  0  0  0  0  0  0  0  0
   -0.4415   -0.5138   -0.8424 N   0  0  0  0  0  0  0  0  0  0  0  0
   -0.4415   -0.5138   -2.1060 C   0  0  0  0  0  0  0  0  0  0  0  0
    0.6292    0.0900    1.5303 H   0  0  0  0  0  0  0  0  0  0  0  0
   -1.3336    0.1920    1.4563 H   0  0  0  0  0  0  0  0  0  0  0  0
   -0.4415    1.7371    1.4240 H   0  0  0  0  0  0  0  0  0  0  0  0
   -0.4415   -1.4809   -2.5908 H   0  0  0  0  0  0  0  0  0  0  0  0
   -0.4415    0.4027   -2.6922 H   0  0  0  0  0  0  0  0  0  0  0  0
  1  2  1  0
  1  3  1  0
  1  4  1  0
  1  9  1  0
  5  6  1  0
  5 10  1  0
  5 11  1  0
  6  7  1  0
  7  8  2  3
  8 12  1  0
  8 13  1  0
M  RAD  1   5   2
M  END
>  <reaction>  (11) 
rmg_rxn_15575

>  <mol_properties>  (11) 
{"0": {"label": "*3", "atom_type": "Cs"}, "1": {"label": "*4", "atom_type": "H0"}, "4": {"label": "*1", "atom_type": "Cs"}, "5": {"label": "*0", "atom_type": "O2s"}, "8": {"label": "*2", "atom_type": "H0"}}

>  <type>  (11) 
unop_7

>  <geom_source>  (11) 
Heuristics

$$$$

     RDKit          3D

 13 11  0  0  0  0  0  0  0  0999 V2000
    2.4444   -0.6223    0.2237 C   0  0  0  0  0  0  0  0  0  0  0  0
    2.0456   -1.2620    0.9969 H   0  0  0  0  0  0  0  0  0  0  0  0
    3.2372    0.0083    0.5955 H   0  0  0  0  0  0  0  0  0  0  0  0
    2.7532   -1.1841   -0.6455 H   0  0  0  0  0  0  0  0  0  0  0  0
    0.4892    0.9787   -0.5533 C   0  0  0  0  0  3  0  0  0  0  0  0
   -0.5639    0.9157    0.3352 O   0  0  0  0  0  0  0  0  0  0  0  0
   -1.4117   -0.1335    0.3636 N   0  0  0  0  0  0  0  0  0  0  0  0
   -1.2330   -1.1733   -0.3314 C   0  0  0  0  0  0  0  0  0  0  0  0
    1.4992    0.1588   -0.1494 H   0  0  0  0  0  0  0  0  0  0  0  0
    0.8982    1.9806   -0.4977 H   0  0  0  0  0  0  0  0  0  0  0  0
    0.2543    0.6603   -1.5682 H   0  0  0  0  0  0  0  0  0  0  0  0
   -1.9853   -1.9352   -0.2294 H   0  0  0  0  0  0  0  0  0  0  0  0
   -0.3987   -1.3728   -0.9988 H   0  0  0  0  0  0  0  0  0  0  0  0
  1  2  1  0
  1  3  1  0
  1  4  1  0
  1  9  1  0
  5  6  1  0
  5 10  1  0
  5 11  1  0
  6  7  1  0
  7  8  2  3
  8 12  1  0
  8 13  1  0
M  RAD  1   5   2
M  END
>  <reaction>  (12) 
rmg_rxn_15575

>  <mol_properties>  (12) 
{"0": {"label": "*3", "atom_type": "Cs"}, "1": {"label": "*4", "atom_type": "H0"}, "4": {"label": "*1", "atom_type": "Cs"}, "5": {"label": "*0", "atom_type": "O2s"}, "8": {"label": "*2", "atom_type": "H0"}}

>  <type>  (12) 
unop_8

>  <geom_source>  (12) 
Heuristics

$$$$

     RDKit          3D

 13 11  0  0  0  0  0  0  0  0999 V2000
    1.6937   -0.5157    1.9672 C   0  0  0  0  0  0  0  0  0  0  0  0
    1.9609   -0.1166    2.9445 H   0  0  0  0  0  0  0  0  0  0  0  0
    2.5970   -0.8166    1.4386 H   0  0  0  0  0  0  0  0  0  0  0  0
    1.1145   -1.3050    2.4438 H   0  0  0  0  0  0  0  0  0  0  0  0
   -0.4441    0.7068    1.0803 C   0  0  0  0  0  3  0  0  0  0  0  0
   -0.4442    0.7647   -0.3326 O   0  0  0  0  0  0  0  0  0  0  0  0
   -0.4442   -0.5092   -0.8483 N   0  0  0  0  0  0  0  0  0  0  0  0
   -0.4442   -0.5092   -2.1119 C   0  0  0  0  0  0  0  0  0  0  0  0
    0.6265    0.0946    1.5244 H   0  0  0  0  0  0  0  0  0  0  0  0
   -1.3363    0.1966    1.4504 H   0  0  0  0  0  0  0  0  0  0  0  0
   -0.4442    1.7417    1.4181 H   0  0  0  0  0  0  0  0  0  0  0  0
   -0.4442   -1.4763   -2.5967 H   0  0  0  0  0  0  0  0  0  0  0  0
   -0.4442    0.4073   -2.6981 H   0  0  0  0  0  0  0  0  0  0  0  0
  1  2  1  0
  1  3  1  0
  1  4  1  0
  1  9  1  0
  5  6  1  0
  5 10  1  0
  5 11  1  0
  6  7  1  0
  7  8  2  3
  8 12  1  0
  8 13  1  0
M  RAD  1   5   2
M  END
>  <reaction>  (13) 
rmg_rxn_15575

>  <mol_properties>  (13) 
{"0": {"label": "*3", "atom_type": "Cs"}, "1": {"label": "*4", "atom_type": "H0"}, "4": {"label": "*1", "atom_type": "Cs"}, "5": {"label": "*0", "atom_type": "O2s"}, "8": {"label": "*2", "atom_type": "H0"}}

>  <type>  (13) 
unop_9

>  <geom_source>  (13) 
Heuristics

$$$$

     RDKit          3D

 13 11  0  0  0  0  0  0  0  0999 V2000
    1.6974   -0.5202    1.9699 C   0  0  0  0  0  0  0  0  0  0  0  0
    1.7233   -1.5360    1.5784 H   0  0  0  0  0  0  0  0  0  0  0  0
    1.1348   -0.5048    2.9021 H   0  0  0  0  0  0  0  0  0  0  0  0
    2.5566    0.1229    2.1541 H   0  0  0  0  0  0  0  0  0  0  0  0
   -0.4405    0.7022    1.0830 C   0  0  0  0  0  3  0  0  0  0  0  0
   -0.4405    0.7602   -0.3298 O   0  0  0  0  0  0  0  0  0  0  0  0
   -0.4405   -0.5137   -0.8456 N   0  0  0  0  0  0  0  0  0  0  0  0
   -0.4405   -0.5137   -2.1092 C   0  0  0  0  0  0  0  0  0  0  0  0
    0.6301    0.0901    1.5272 H   0  0  0  0  0  0  0  0  0  0  0  0
   -1.3326    0.1920    1.4532 H   0  0  0  0  0  0  0  0  0  0  0  0
   -0.4405    1.7371    1.4208 H   0  0  0  0  0  0  0  0  0  0  0  0
   -0.4405   -1.4808   -2.5940 H   0  0  0  0  0  0  0  0  0  0  0  0
   -0.4405    0.4028   -2.6953 H   0  0  0  0  0  0  0  0  0  0  0  0
  1  2  1  0
  1  3  1  0
  1  4  1  0
  1  9  1  0
  5  6  1  0
  5 10  1  0
  5 11  1  0
  6  7  1  0
  7  8  2  3
  8 12  1  0
  8 13  1  0
M  RAD  1   5   2
M  END
>  <reaction>  (14) 
rmg_rxn_15575

>  <mol_properties>  (14) 
{"0": {"label": "*3", "atom_type": "Cs"}, "1": {"label": "*4", "atom_type": "H0"}, "4": {"label": "*1", "atom_type": "Cs"}, "5": {"label": "*0", "atom_type": "O2s"}, "8": {"label": "*2", "atom_type": "H0"}}

>  <type>  (14) 
unop_10

>  <geom_source>  (14) 
Heuristics

$$$$

     RDKit          3D

 13 11  0  0  0  0  0  0  0  0999 V2000
    3.0179   -0.0425   -0.0167 C   0  0  0  0  0  0  0  0  0  0  0  0
    3.3065    0.3858   -0.9620 H   0  0  0  0  0  0  0  0  0  0  0  0
    1.9957   -0.3836   -0.0116 H   0  0  0  0  0  0  0  0  0  0  0  0
    3.7007   -0.7896    0.3123 H   0  0  0  0  0  0  0  0  0  0  0  0
   -0.6355    1.7131    0.0030 C   0  0  0  0  0  3  0  0  0  0  0  0
   -1.2501    0.5270   -0.0010 O   0  0  0  0  0  0  0  0  0  0  0  0
   -0.4129   -0.5623    0.0035 N   0  0  0  0  0  0  0  0  0  0  0  0
   -0.9880   -1.6979   -0.0019 C   0  0  0  0  0  0  0  0  0  0  0  0
    3.2327    0.6260    0.8119 H   0  0  0  0  0  0  0  0  0  0  0  0
    0.4345    1.7736    0.0102 H   0  0  0  0  0  0  0  0  0  0  0  0
   -1.2959    2.5539    0.0000 H   0  0  0  0  0  0  0  0  0  0  0  0
   -0.3440   -2.5577    0.0009 H   0  0  0  0  0  0  0  0  0  0  0  0
   -2.0637   -1.8359   -0.0098 H   0  0  0  0  0  0  0  0  0  0  0  0
  1  2  1  0
  1  3  1  0
  1  4  1  0
  1  9  1  0
  5  6  1  0
  5 10  1  0
  5 11  1  0
  6  7  1  0
  7  8  2  3
  8 12  1  0
  8 13  1  0
M  RAD  1   5   2
M  END
>  <reaction>  (15) 
rmg_rxn_15575

>  <mol_properties>  (15) 
{"0": {"label": "*3", "atom_type": "Cs"}, "1": {"label": "*4", "atom_type": "H0"}, "4": {"label": "*1", "atom_type": "Cs"}, "5": {"label": "*0", "atom_type": "O2s"}, "8": {"label": "*2", "atom_type": "H0"}}

>  <type>  (15) 
unop_11

>  <geom_source>  (15) 
Heuristics

$$$$

     RDKit          3D

 13 11  0  0  0  0  0  0  0  0999 V2000
    1.6895   -0.5172    1.9689 C   0  0  0  0  0  0  0  0  0  0  0  0
    1.6649   -0.5481    3.0571 H   0  0  0  0  0  0  0  0  0  0  0  0
    2.5777    0.0210    1.6411 H   0  0  0  0  0  0  0  0  0  0  0  0
    1.7241   -1.6049    2.0081 H   0  0  0  0  0  0  0  0  0  0  0  0
   -0.4483    0.7053    1.0820 C   0  0  0  0  0  3  0  0  0  0  0  0
   -0.4483    0.7632   -0.3309 O   0  0  0  0  0  0  0  0  0  0  0  0
   -0.4483   -0.5107   -0.8466 N   0  0  0  0  0  0  0  0  0  0  0  0
   -0.4483   -0.5107   -2.1102 C   0  0  0  0  0  0  0  0  0  0  0  0
    0.6223    0.0931    1.5261 H   0  0  0  0  0  0  0  0  0  0  0  0
   -1.3404    0.1951    1.4521 H   0  0  0  0  0  0  0  0  0  0  0  0
   -0.4483    1.7402    1.4198 H   0  0  0  0  0  0  0  0  0  0  0  0
   -0.4483   -1.4778   -2.5950 H   0  0  0  0  0  0  0  0  0  0  0  0
   -0.4483    0.4058   -2.6964 H   0  0  0  0  0  0  0  0  0  0  0  0
  1  2  1  0
  1  3  1  0
  1  4  1  0
  1  9  1  0
  5  6  1  0
  5 10  1  0
  5 11  1  0
  6  7  1  0
  7  8  2  3
  8 12  1  0
  8 13  1  0
M  RAD  1   5   2
M  END
>  <reaction>  (16) 
rmg_rxn_15575

>  <mol_properties>  (16) 
{"0": {"label": "*3", "atom_type": "Cs"}, "1": {"label": "*4", "atom_type": "H0"}, "4": {"label": "*1", "atom_type": "Cs"}, "5": {"label": "*0", "atom_type": "O2s"}, "8": {"label": "*2", "atom_type": "H0"}}

>  <type>  (16) 
unop_12

>  <geom_source>  (16) 
Heuristics

$$$$

     RDKit          3D

 13 11  0  0  0  0  0  0  0  0999 V2000
    2.4457   -0.6224    0.2237 C   0  0  0  0  0  0  0  0  0  0  0  0
    2.0407   -1.2810    0.9775 H   0  0  0  0  0  0  0  0  0  0  0  0
    3.2267    0.0076    0.6207 H   0  0  0  0  0  0  0  0  0  0  0  0
    2.7734   -1.1639   -0.6515 H   0  0  0  0  0  0  0  0  0  0  0  0
    0.4897    0.9775   -0.5536 C   0  0  0  0  0  3  0  0  0  0  0  0
   -0.5633    0.9156    0.3350 O   0  0  0  0  0  0  0  0  0  0  0  0
   -1.4123   -0.1325    0.3637 N   0  0  0  0  0  0  0  0  0  0  0  0
   -1.2350   -1.1727   -0.3310 C   0  0  0  0  0  0  0  0  0  0  0  0
    1.4997    0.1577   -0.1493 H   0  0  0  0  0  0  0  0  0  0  0  0
    0.8992    1.9792   -0.4988 H   0  0  0  0  0  0  0  0  0  0  0  0
    0.2545    0.6586   -1.5682 H   0  0  0  0  0  0  0  0  0  0  0  0
   -1.9885   -1.9335   -0.2291 H   0  0  0  0  0  0  0  0  0  0  0  0
   -0.4011   -1.3735   -0.9986 H   0  0  0  0  0  0  0  0  0  0  0  0
  1  2  1  0
  1  3  1  0
  1  4  1  0
  1  9  1  0
  5  6  1  0
  5 10  1  0
  5 11  1  0
  6  7  1  0
  7  8  2  3
  8 12  1  0
  8 13  1  0
M  RAD  1   5   2
M  END
>  <reaction>  (17) 
rmg_rxn_15575

>  <mol_properties>  (17) 
{"0": {"label": "*3", "atom_type": "Cs"}, "1": {"label": "*4", "atom_type": "H0"}, "4": {"label": "*1", "atom_type": "Cs"}, "5": {"label": "*0", "atom_type": "O2s"}, "8": {"label": "*2", "atom_type": "H0"}}

>  <type>  (17) 
unop_13

>  <geom_source>  (17) 
Heuristics

$$$$

     RDKit          3D

 13 11  0  0  0  0  0  0  0  0999 V2000
    3.0135   -0.0484    0.0161 C   0  0  0  0  0  0  0  0  0  0  0  0
    1.9931   -0.3938    0.0178 H   0  0  0  0  0  0  0  0  0  0  0  0
    3.3125    0.3754    0.9598 H   0  0  0  0  0  0  0  0  0  0  0  0
    3.6976   -0.7827   -0.3342 H   0  0  0  0  0  0  0  0  0  0  0  0
   -0.6277    1.7139   -0.0010 C   0  0  0  0  0  3  0  0  0  0  0  0
   -1.2471    0.5304   -0.0035 O   0  0  0  0  0  0  0  0  0  0  0  0
   -0.4142   -0.5623    0.0022 N   0  0  0  0  0  0  0  0  0  0  0  0
   -0.9937   -1.6957    0.0012 C   0  0  0  0  0  0  0  0  0  0  0  0
    3.2248    0.6164   -0.8138 H   0  0  0  0  0  0  0  0  0  0  0  0
    0.4426    1.7700    0.0054 H   0  0  0  0  0  0  0  0  0  0  0  0
   -1.2845    2.5574   -0.0057 H   0  0  0  0  0  0  0  0  0  0  0  0
   -0.3530   -2.5579    0.0058 H   0  0  0  0  0  0  0  0  0  0  0  0
   -2.0700   -1.8294   -0.0037 H   0  0  0  0  0  0  0  0  0  0  0  0
  1  2  1  0
  1  3  1  0
  1  4  1  0
  1  9  1  0
  5  6  1  0
  5 10  1  0
  5 11  1  0
  6  7  1  0
  7  8  2  3
  8 12  1  0
  8 13  1  0
M  RAD  1   5   2
M  END
>  <reaction>  (18) 
rmg_rxn_15575

>  <mol_properties>  (18) 
{"0": {"label": "*3", "atom_type": "Cs"}, "1": {"label": "*4", "atom_type": "H0"}, "4": {"label": "*1", "atom_type": "Cs"}, "5": {"label": "*0", "atom_type": "O2s"}, "8": {"label": "*2", "atom_type": "H0"}}

>  <type>  (18) 
unop_14

>  <geom_source>  (18) 
Heuristics

$$$$

     RDKit          3D

 13 11  0  0  0  0  0  0  0  0999 V2000
    1.6955   -0.5206    1.9677 C   0  0  0  0  0  0  0  0  0  0  0  0
    1.4942   -1.5873    2.0539 H   0  0  0  0  0  0  0  0  0  0  0  0
    1.2947   -0.0040    2.8386 H   0  0  0  0  0  0  0  0  0  0  0  0
    2.7593   -0.2996    1.8952 H   0  0  0  0  0  0  0  0  0  0  0  0
   -0.4424    0.7019    1.0809 C   0  0  0  0  0  3  0  0  0  0  0  0
   -0.4424    0.7598   -0.3320 O   0  0  0  0  0  0  0  0  0  0  0  0
   -0.4424   -0.5141   -0.8477 N   0  0  0  0  0  0  0  0  0  0  0  0
   -0.4424   -0.5141   -2.1114 C   0  0  0  0  0  0  0  0  0  0  0  0
    0.6282    0.0897    1.5250 H   0  0  0  0  0  0  0  0  0  0  0  0
   -1.3345    0.1917    1.4510 H   0  0  0  0  0  0  0  0  0  0  0  0
   -0.4424    1.7368    1.4187 H   0  0  0  0  0  0  0  0  0  0  0  0
   -0.4424   -1.4812   -2.5962 H   0  0  0  0  0  0  0  0  0  0  0  0
   -0.4424    0.4024   -2.6975 H   0  0  0  0  0  0  0  0  0  0  0  0
  1  2  1  0
  1  3  1  0
  1  4  1  0
  1  9  1  0
  5  6  1  0
  5 10  1  0
  5 11  1  0
  6  7  1  0
  7  8  2  3
  8 12  1  0
  8 13  1  0
M  RAD  1   5   2
M  END
>  <reaction>  (19) 
rmg_rxn_15575

>  <mol_properties>  (19) 
{"0": {"label": "*3", "atom_type": "Cs"}, "1": {"label": "*4", "atom_type": "H0"}, "4": {"label": "*1", "atom_type": "Cs"}, "5": {"label": "*0", "atom_type": "O2s"}, "8": {"label": "*2", "atom_type": "H0"}}

>  <type>  (19) 
unop_15

>  <geom_source>  (19) 
Heuristics

$$$$

     RDKit          3D

 13 11  0  0  0  0  0  0  0  0999 V2000
    3.0120   -0.0505    0.0147 C   0  0  0  0  0  0  0  0  0  0  0  0
    1.9918   -0.3972    0.0186 H   0  0  0  0  0  0  0  0  0  0  0  0
    3.3055    0.3862    0.9546 H   0  0  0  0  0  0  0  0  0  0  0  0
    3.6973   -0.7936   -0.3168 H   0  0  0  0  0  0  0  0  0  0  0  0
   -0.6245    1.7142   -0.0003 C   0  0  0  0  0  3  0  0  0  0  0  0
   -1.2457    0.5316   -0.0049 O   0  0  0  0  0  0  0  0  0  0  0  0
   -0.4145   -0.5624    0.0043 N   0  0  0  0  0  0  0  0  0  0  0  0
   -0.9959   -1.6948    0.0008 C   0  0  0  0  0  0  0  0  0  0  0  0
    3.2199    0.6101   -0.8211 H   0  0  0  0  0  0  0  0  0  0  0  0
    0.4458    1.7688    0.0097 H   0  0  0  0  0  0  0  0  0  0  0  0
   -1.2802    2.5587   -0.0073 H   0  0  0  0  0  0  0  0  0  0  0  0
   -0.3567   -2.5582    0.0081 H   0  0  0  0  0  0  0  0  0  0  0  0
   -2.0724   -1.8266   -0.0087 H   0  0  0  0  0  0  0  0  0  0  0  0
  1  2  1  0
  1  3  1  0
  1  4  1  0
  1  9  1  0
  5  6  1  0
  5 10  1  0
  5 11  1  0
  6  7  1  0
  7  8  2  3
  8 12  1  0
  8 13  1  0
M  RAD  1   5   2
M  END
>  <reaction>  (20) 
rmg_rxn_15575

>  <mol_properties>  (20) 
{"0": {"label": "*3", "atom_type": "Cs"}, "1": {"label": "*4", "atom_type": "H0"}, "4": {"label": "*1", "atom_type": "Cs"}, "5": {"label": "*0", "atom_type": "O2s"}, "8": {"label": "*2", "atom_type": "H0"}}

>  <type>  (20) 
unop_16

>  <geom_source>  (20) 
Heuristics

$$$$

     RDKit          3D

 13 11  0  0  0  0  0  0  0  0999 V2000
    1.6929   -0.5216    1.9665 C   0  0  0  0  0  0  0  0  0  0  0  0
    1.3977   -1.3988    2.5403 H   0  0  0  0  0  0  0  0  0  0  0  0
    1.6061    0.3664    2.5906 H   0  0  0  0  0  0  0  0  0  0  0  0
    2.7255   -0.7865    1.7441 H   0  0  0  0  0  0  0  0  0  0  0  0
   -0.4449    0.7008    1.0796 C   0  0  0  0  0  3  0  0  0  0  0  0
   -0.4450    0.7587   -0.3332 O   0  0  0  0  0  0  0  0  0  0  0  0
   -0.4450   -0.5151   -0.8490 N   0  0  0  0  0  0  0  0  0  0  0  0
   -0.4450   -0.5151   -2.1126 C   0  0  0  0  0  0  0  0  0  0  0  0
    0.6256    0.0887    1.5238 H   0  0  0  0  0  0  0  0  0  0  0  0
   -1.3371    0.1906    1.4498 H   0  0  0  0  0  0  0  0  0  0  0  0
   -0.4450    1.7357    1.4174 H   0  0  0  0  0  0  0  0  0  0  0  0
   -0.4450   -1.4822   -2.5974 H   0  0  0  0  0  0  0  0  0  0  0  0
   -0.4450    0.4014   -2.6988 H   0  0  0  0  0  0  0  0  0  0  0  0
  1  2  1  0
  1  3  1  0
  1  4  1  0
  1  9  1  0
  5  6  1  0
  5 10  1  0
  5 11  1  0
  6  7  1  0
  7  8  2  3
  8 12  1  0
  8 13  1  0
M  RAD  1   5   2
M  END
>  <reaction>  (21) 
rmg_rxn_15575

>  <mol_properties>  (21) 
{"0": {"label": "*3", "atom_type": "Cs"}, "1": {"label": "*4", "atom_type": "H0"}, "4": {"label": "*1", "atom_type": "Cs"}, "5": {"label": "*0", "atom_type": "O2s"}, "8": {"label": "*2", "atom_type": "H0"}}

>  <type>  (21) 
unop_17

>  <geom_source>  (21) 
Heuristics

$$$$

     RDKit          3D

 13 11  0  0  0  0  0  0  0  0999 V2000
    3.0226   -0.0306   -0.0104 C   0  0  0  0  0  0  0  0  0  0  0  0
    3.2256    0.6085    0.8197 H   0  0  0  0  0  0  0  0  0  0  0  0
    3.2933    0.4338   -0.9457 H   0  0  0  0  0  0  0  0  0  0  0  0
    3.7017   -0.8024    0.2546 H   0  0  0  0  0  0  0  0  0  0  0  0
   -0.6483    1.7116    0.0010 C   0  0  0  0  0  3  0  0  0  0  0  0
   -1.2545    0.5212    0.0036 O   0  0  0  0  0  0  0  0  0  0  0  0
   -0.4095   -0.5623   -0.0029 N   0  0  0  0  0  0  0  0  0  0  0  0
   -0.9768   -1.7018   -0.0012 C   0  0  0  0  0  0  0  0  0  0  0  0
    2.0001   -0.3754   -0.0153 H   0  0  0  0  0  0  0  0  0  0  0  0
    0.4214    1.7797   -0.0065 H   0  0  0  0  0  0  0  0  0  0  0  0
   -1.3144    2.5478    0.0047 H   0  0  0  0  0  0  0  0  0  0  0  0
   -0.3269   -2.5571   -0.0065 H   0  0  0  0  0  0  0  0  0  0  0  0
   -2.0516   -1.8469    0.0048 H   0  0  0  0  0  0  0  0  0  0  0  0
  1  2  1  0
  1  3  1  0
  1  4  1  0
  1  9  1  0
  5  6  1  0
  5 10  1  0
  5 11  1  0
  6  7  1  0
  7  8  2  3
  8 12  1  0
  8 13  1  0
M  RAD  1   5   2
M  END
>  <reaction>  (22) 
rmg_rxn_15575

>  <mol_properties>  (22) 
{"0": {"label": "*3", "atom_type": "Cs"}, "1": {"label": "*4", "atom_type": "H0"}, "4": {"label": "*1", "atom_type": "Cs"}, "5": {"label": "*0", "atom_type": "O2s"}, "8": {"label": "*2", "atom_type": "H0"}}

>  <type>  (22) 
unop_18

>  <geom_source>  (22) 
Heuristics

$$$$

     RDKit          3D

 13 11  0  0  0  0  0  0  0  0999 V2000
    1.6948   -0.5212    1.9679 C   0  0  0  0  0  0  0  0  0  0  0  0
    2.4891    0.2065    2.1276 H   0  0  0  0  0  0  0  0  0  0  0  0
    2.1283   -1.5148    1.8646 H   0  0  0  0  0  0  0  0  0  0  0  0
    0.9754   -0.5422    2.7850 H   0  0  0  0  0  0  0  0  0  0  0  0
   -0.4430    0.7013    1.0810 C   0  0  0  0  0  3  0  0  0  0  0  0
   -0.4430    0.7592   -0.3319 O   0  0  0  0  0  0  0  0  0  0  0  0
   -0.4430   -0.5147   -0.8476 N   0  0  0  0  0  0  0  0  0  0  0  0
   -0.4430   -0.5147   -2.1112 C   0  0  0  0  0  0  0  0  0  0  0  0
    0.6276    0.0891    1.5251 H   0  0  0  0  0  0  0  0  0  0  0  0
   -1.3351    0.1911    1.4511 H   0  0  0  0  0  0  0  0  0  0  0  0
   -0.4430    1.7362    1.4188 H   0  0  0  0  0  0  0  0  0  0  0  0
   -0.4430   -1.4818   -2.5960 H   0  0  0  0  0  0  0  0  0  0  0  0
   -0.4430    0.4018   -2.6974 H   0  0  0  0  0  0  0  0  0  0  0  0
  1  2  1  0
  1  3  1  0
  1  4  1  0
  1  9  1  0
  5  6  1  0
  5 10  1  0
  5 11  1  0
  6  7  1  0
  7  8  2  3
  8 12  1  0
  8 13  1  0
M  RAD  1   5   2
M  END
>  <reaction>  (23) 
rmg_rxn_15575

>  <mol_properties>  (23) 
{"0": {"label": "*3", "atom_type": "Cs"}, "1": {"label": "*4", "atom_type": "H0"}, "4": {"label": "*1", "atom_type": "Cs"}, "5": {"label": "*0", "atom_type": "O2s"}, "8": {"label": "*2", "atom_type": "H0"}}

>  <type>  (23) 
unop_19

>  <geom_source>  (23) 
Heuristics

$$$$

     RDKit          3D

 13 11  0  0  0  0  0  0  0  0999 V2000
    2.4457   -0.6220    0.2237 C   0  0  0  0  0  0  0  0  0  0  0  0
    3.2255    0.0077    0.6236 H   0  0  0  0  0  0  0  0  0  0  0  0
    2.7752   -1.1608   -0.6525 H   0  0  0  0  0  0  0  0  0  0  0  0
    2.0403   -1.2831    0.9751 H   0  0  0  0  0  0  0  0  0  0  0  0
    0.4895    0.9778   -0.5532 C   0  0  0  0  0  3  0  0  0  0  0  0
   -0.5639    0.9156    0.3349 O   0  0  0  0  0  0  0  0  0  0  0  0
   -1.4125   -0.1328    0.3633 N   0  0  0  0  0  0  0  0  0  0  0  0
   -1.2340   -1.1732   -0.3308 C   0  0  0  0  0  0  0  0  0  0  0  0
    1.4996    0.1581   -0.1488 H   0  0  0  0  0  0  0  0  0  0  0  0
    0.8987    1.9796   -0.4984 H   0  0  0  0  0  0  0  0  0  0  0  0
    0.2547    0.6586   -1.5680 H   0  0  0  0  0  0  0  0  0  0  0  0
   -1.9869   -1.9345   -0.2291 H   0  0  0  0  0  0  0  0  0  0  0  0
   -0.3992   -1.3738   -0.9974 H   0  0  0  0  0  0  0  0  0  0  0  0
  1  2  1  0
  1  3  1  0
  1  4  1  0
  1  9  1  0
  5  6  1  0
  5 10  1  0
  5 11  1  0
  6  7  1  0
  7  8  2  3
  8 12  1  0
  8 13  1  0
M  RAD  1   5   2
M  END
>  <reaction>  (24) 
rmg_rxn_15575

>  <mol_properties>  (24) 
{"0": {"label": "*3", "atom_type": "Cs"}, "1": {"label": "*4", "atom_type": "H0"}, "4": {"label": "*1", "atom_type": "Cs"}, "5": {"label": "*0", "atom_type": "O2s"}, "8": {"label": "*2", "atom_type": "H0"}}

>  <type>  (24) 
unop_20

>  <geom_source>  (24) 
Heuristics

$$$$

     RDKit          3D

 13 11  0  0  0  0  0  0  0  0999 V2000
    1.6987   -0.5201    1.9719 C   0  0  0  0  0  0  0  0  0  0  0  0
    2.0244   -1.2582    1.2406 H   0  0  0  0  0  0  0  0  0  0  0  0
    1.1706   -1.0204    2.7823 H   0  0  0  0  0  0  0  0  0  0  0  0
    2.1289    0.3488    2.4677 H   0  0  0  0  0  0  0  0  0  0  0  0
   -0.4392    0.7024    1.0851 C   0  0  0  0  0  3  0  0  0  0  0  0
   -0.4392    0.7603   -0.3278 O   0  0  0  0  0  0  0  0  0  0  0  0
   -0.4392   -0.5136   -0.8435 N   0  0  0  0  0  0  0  0  0  0  0  0
   -0.4392   -0.5136   -2.1071 C   0  0  0  0  0  0  0  0  0  0  0  0
    0.6314    0.0902    1.5292 H   0  0  0  0  0  0  0  0  0  0  0  0
   -1.3313    0.1922    1.4552 H   0  0  0  0  0  0  0  0  0  0  0  0
   -0.4392    1.7373    1.4229 H   0  0  0  0  0  0  0  0  0  0  0  0
   -0.4392   -1.4806   -2.5920 H   0  0  0  0  0  0  0  0  0  0  0  0
   -0.4392    0.4029   -2.6933 H   0  0  0  0  0  0  0  0  0  0  0  0
  1  2  1  0
  1  3  1  0
  1  4  1  0
  1  9  1  0
  5  6  1  0
  5 10  1  0
  5 11  1  0
  6  7  1  0
  7  8  2  3
  8 12  1  0
  8 13  1  0
M  RAD  1   5   2
M  END
>  <reaction>  (25) 
rmg_rxn_15575

>  <mol_properties>  (25) 
{"0": {"label": "*3", "atom_type": "Cs"}, "1": {"label": "*4", "atom_type": "H0"}, "4": {"label": "*1", "atom_type": "Cs"}, "5": {"label": "*0", "atom_type": "O2s"}, "8": {"label": "*2", "atom_type": "H0"}}

>  <type>  (25) 
unop_21

>  <geom_source>  (25) 
Heuristics

$$$$

     RDKit          3D

 13 11  0  0  0  0  0  0  0  0999 V2000
    1.6949   -0.5214    1.9708 C   0  0  0  0  0  0  0  0  0  0  0  0
    2.5830    0.0167    1.6431 H   0  0  0  0  0  0  0  0  0  0  0  0
    1.9355   -1.5759    2.0973 H   0  0  0  0  0  0  0  0  0  0  0  0
    1.0703   -0.2750    2.8281 H   0  0  0  0  0  0  0  0  0  0  0  0
   -0.4429    0.7011    1.0840 C   0  0  0  0  0  3  0  0  0  0  0  0
   -0.4430    0.7590   -0.3289 O   0  0  0  0  0  0  0  0  0  0  0  0
   -0.4430   -0.5149   -0.8446 N   0  0  0  0  0  0  0  0  0  0  0  0
   -0.4430   -0.5149   -2.1083 C   0  0  0  0  0  0  0  0  0  0  0  0
    0.6276    0.0889    1.5281 H   0  0  0  0  0  0  0  0  0  0  0  0
   -1.3351    0.1909    1.4541 H   0  0  0  0  0  0  0  0  0  0  0  0
   -0.4430    1.7360    1.4218 H   0  0  0  0  0  0  0  0  0  0  0  0
   -0.4430   -1.4820   -2.5931 H   0  0  0  0  0  0  0  0  0  0  0  0
   -0.4430    0.4016   -2.6944 H   0  0  0  0  0  0  0  0  0  0  0  0
  1  2  1  0
  1  3  1  0
  1  4  1  0
  1  9  1  0
  5  6  1  0
  5 10  1  0
  5 11  1  0
  6  7  1  0
  7  8  2  3
  8 12  1  0
  8 13  1  0
M  RAD  1   5   2
M  END
>  <reaction>  (26) 
rmg_rxn_15575

>  <mol_properties>  (26) 
{"0": {"label": "*3", "atom_type": "Cs"}, "1": {"label": "*4", "atom_type": "H0"}, "4": {"label": "*1", "atom_type": "Cs"}, "5": {"label": "*0", "atom_type": "O2s"}, "8": {"label": "*2", "atom_type": "H0"}}

>  <type>  (26) 
unop_22

>  <geom_source>  (26) 
Heuristics

$$$$

     RDKit          3D

 13 11  0  0  0  0  0  0  0  0999 V2000
    1.6897   -0.5214    1.9674 C   0  0  0  0  0  0  0  0  0  0  0  0
    1.4592   -1.0195    2.9079 H   0  0  0  0  0  0  0  0  0  0  0  0
    2.0719    0.4779    2.1700 H   0  0  0  0  0  0  0  0  0  0  0  0
    2.4226   -1.2924    1.7345 H   0  0  0  0  0  0  0  0  0  0  0  0
   -0.4481    0.7010    1.0805 C   0  0  0  0  0  3  0  0  0  0  0  0
   -0.4481    0.7590   -0.3324 O   0  0  0  0  0  0  0  0  0  0  0  0
   -0.4481   -0.5149   -0.8481 N   0  0  0  0  0  0  0  0  0  0  0  0
   -0.4481   -0.5149   -2.1117 C   0  0  0  0  0  0  0  0  0  0  0  0
    0.6225    0.0889    1.5246 H   0  0  0  0  0  0  0  0  0  0  0  0
   -1.3402    0.1909    1.4506 H   0  0  0  0  0  0  0  0  0  0  0  0
   -0.4481    1.7359    1.4183 H   0  0  0  0  0  0  0  0  0  0  0  0
   -0.4481   -1.4820   -2.5965 H   0  0  0  0  0  0  0  0  0  0  0  0
   -0.4481    0.4016   -2.6979 H   0  0  0  0  0  0  0  0  0  0  0  0
  1  2  1  0
  1  3  1  0
  1  4  1  0
  1  9  1  0
  5  6  1  0
  5 10  1  0
  5 11  1  0
  6  7  1  0
  7  8  2  3
  8 12  1  0
  8 13  1  0
M  RAD  1   5   2
M  END
>  <reaction>  (27) 
rmg_rxn_15575

>  <mol_properties>  (27) 
{"0": {"label": "*3", "atom_type": "Cs"}, "1": {"label": "*4", "atom_type": "H0"}, "4": {"label": "*1", "atom_type": "Cs"}, "5": {"label": "*0", "atom_type": "O2s"}, "8": {"label": "*2", "atom_type": "H0"}}

>  <type>  (27) 
unop_23

>  <geom_source>  (27) 
Heuristics

$$$$

     RDKit          3D

 13 11  0  0  0  0  0  0  0  0999 V2000
    1.6983   -0.5197    1.9733 C   0  0  0  0  0  0  0  0  0  0  0  0
    2.3159   -0.8279    1.1311 H   0  0  0  0  0  0  0  0  0  0  0  0
    1.4032   -1.3969    2.5471 H   0  0  0  0  0  0  0  0  0  0  0  0
    1.6278    0.2733    2.7162 H   0  0  0  0  0  0  0  0  0  0  0  0
   -0.4395    0.7027    1.0864 C   0  0  0  0  0  3  0  0  0  0  0  0
   -0.4395    0.7606   -0.3264 O   0  0  0  0  0  0  0  0  0  0  0  0
   -0.4395   -0.5132   -0.8422 N   0  0  0  0  0  0  0  0  0  0  0  0
   -0.4395   -0.5132   -2.1058 C   0  0  0  0  0  0  0  0  0  0  0  0
    0.6311    0.0905    1.5306 H   0  0  0  0  0  0  0  0  0  0  0  0
   -1.3316    0.1925    1.4566 H   0  0  0  0  0  0  0  0  0  0  0  0
   -0.4395    1.7376    1.4243 H   0  0  0  0  0  0  0  0  0  0  0  0
   -0.4395   -1.4803   -2.5906 H   0  0  0  0  0  0  0  0  0  0  0  0
   -0.4395    0.4032   -2.6919 H   0  0  0  0  0  0  0  0  0  0  0  0
  1  2  1  0
  1  3  1  0
  1  4  1  0
  1  9  1  0
  5  6  1  0
  5 10  1  0
  5 11  1  0
  6  7  1  0
  7  8  2  3
  8 12  1  0
  8 13  1  0
M  RAD  1   5   2
M  END
>  <reaction>  (28) 
rmg_rxn_15575

>  <mol_properties>  (28) 
{"0": {"label": "*3", "atom_type": "Cs"}, "1": {"label": "*4", "atom_type": "H0"}, "4": {"label": "*1", "atom_type": "Cs"}, "5": {"label": "*0", "atom_type": "O2s"}, "8": {"label": "*2", "atom_type": "H0"}}

>  <type>  (28) 
unop_24

>  <geom_source>  (28) 
Heuristics

$$$$

     RDKit          3D

 13 11  0  0  0  0  0  0  0  0999 V2000
    3.0164   -0.0474    0.0107 C   0  0  0  0  0  0  0  0  0  0  0  0
    3.3064    0.3942    0.9498 H   0  0  0  0  0  0  0  0  0  0  0  0
    3.6968   -0.8048   -0.3027 H   0  0  0  0  0  0  0  0  0  0  0  0
    1.9939   -0.3886    0.0155 H   0  0  0  0  0  0  0  0  0  0  0  0
   -0.6289    1.7138    0.0034 C   0  0  0  0  0  3  0  0  0  0  0  0
   -1.2476    0.5299   -0.0115 O   0  0  0  0  0  0  0  0  0  0  0  0
   -0.4145   -0.5624    0.0129 N   0  0  0  0  0  0  0  0  0  0  0  0
   -0.9934   -1.6960   -0.0005 C   0  0  0  0  0  0  0  0  0  0  0  0
    3.2216    0.6170   -0.8255 H   0  0  0  0  0  0  0  0  0  0  0  0
    0.4410    1.7704    0.0319 H   0  0  0  0  0  0  0  0  0  0  0  0
   -1.2859    2.5570   -0.0158 H   0  0  0  0  0  0  0  0  0  0  0  0
   -0.3526   -2.5580    0.0185 H   0  0  0  0  0  0  0  0  0  0  0  0
   -2.0693   -1.8301   -0.0291 H   0  0  0  0  0  0  0  0  0  0  0  0
  1  2  1  0
  1  3  1  0
  1  4  1  0
  1  9  1  0
  5  6  1  0
  5 10  1  0
  5 11  1  0
  6  7  1  0
  7  8  2  3
  8 12  1  0
  8 13  1  0
M  RAD  1   5   2
M  END
>  <reaction>  (29) 
rmg_rxn_15575

>  <mol_properties>  (29) 
{"0": {"label": "*3", "atom_type": "Cs"}, "1": {"label": "*4", "atom_type": "H0"}, "4": {"label": "*1", "atom_type": "Cs"}, "5": {"label": "*0", "atom_type": "O2s"}, "8": {"label": "*2", "atom_type": "H0"}}

>  <type>  (29) 
unop_25

>  <geom_source>  (29) 
Heuristics

$$$$

     RDKit          3D

 13 11  0  0  0  0  0  0  0  0999 V2000
   -0.6462   -1.0236   -0.9804 O   0  0  0  0  0  0  0  0  0  0  0  0
   -1.7717   -0.2227   -1.0852 N   0  0  0  0  0  0  0  0  0  0  0  0
    1.8079    0.7606    0.0697 C   0  0  0  0  0  0  0  0  0  0  0  0
    0.0996   -1.1677    0.2236 C   0  0  0  0  0  3  0  0  0  0  0  0
   -2.2380    0.5151   -0.1250 C   0  0  0  0  0  0  0  0  0  0  0  0
    1.2039    1.4396   -0.5666 H   0  0  0  0  0  0  0  0  0  0  0  0
    2.2589    1.3382    0.9027 H   0  0  0  0  0  0  0  0  0  0  0  0
    2.6128    0.3011   -0.5400 H   0  0  0  0  0  0  0  0  0  0  0  0
    1.0631   -0.1501    0.5417 H   0  0  0  0  0  0  0  0  0  0  0  0
   -1.7595    0.5561    0.8442 H   0  0  0  0  0  0  0  0  0  0  0  0
   -3.1248    1.1105   -0.2929 H   0  0  0  0  0  0  0  0  0  0  0  0
   -0.5164   -1.6891    0.9860 H   0  0  0  0  0  0  0  0  0  0  0  0
    1.0104   -1.7679    0.0223 H   0  0  0  0  0  0  0  0  0  0  0  0
  1  4  1  0
  1  2  1  0
  2  5  2  3
  3  6  1  0
  3  7  1  0
  3  8  1  0
  3  9  1  0
  4 12  1  0
  4 13  1  0
  5 10  1  0
  5 11  1  0
M  RAD  1   4   2
M  END
>  <reaction>  (30) 
rmg_rxn_15575

>  <mol_properties>  (30) 
{"0": {"label": "*3", "atom_type": "Cs"}, "1": {"label": "*4", "atom_type": "H0"}, "4": {"label": "*1", "atom_type": "Cs"}, "5": {"label": "*0", "atom_type": "O2s"}, "8": {"label": "*2", "atom_type": "H0"}}

>  <type>  (30) 
unop_26

>  <geom_source>  (30) 
AutoTST

$$$$

     RDKit          3D

 13 11  0  0  0  0  0  0  0  0999 V2000
    1.6964   -0.5203    1.9731 C   0  0  0  0  0  0  0  0  0  0  0  0
    2.5199   -0.3613    1.2785 H   0  0  0  0  0  0  0  0  0  0  0  0
    1.7000   -1.5560    2.3093 H   0  0  0  0  0  0  0  0  0  0  0  0
    1.2624    0.0052    2.8224 H   0  0  0  0  0  0  0  0  0  0  0  0
   -0.4414    0.7022    1.0862 C   0  0  0  0  0  3  0  0  0  0  0  0
   -0.4415    0.7601   -0.3267 O   0  0  0  0  0  0  0  0  0  0  0  0
   -0.4415   -0.5138   -0.8424 N   0  0  0  0  0  0  0  0  0  0  0  0
   -0.4415   -0.5138   -2.1060 C   0  0  0  0  0  0  0  0  0  0  0  0
    0.6291    0.0900    1.5304 H   0  0  0  0  0  0  0  0  0  0  0  0
   -1.3336    0.1920    1.4564 H   0  0  0  0  0  0  0  0  0  0  0  0
   -0.4415    1.7371    1.4240 H   0  0  0  0  0  0  0  0  0  0  0  0
   -0.4415   -1.4809   -2.5908 H   0  0  0  0  0  0  0  0  0  0  0  0
   -0.4415    0.4027   -2.6922 H   0  0  0  0  0  0  0  0  0  0  0  0
  1  2  1  0
  1  3  1  0
  1  4  1  0
  1  9  1  0
  5  6  1  0
  5 10  1  0
  5 11  1  0
  6  7  1  0
  7  8  2  3
  8 12  1  0
  8 13  1  0
M  RAD  1   5   2
M  END
>  <reaction>  (31) 
rmg_rxn_15575

>  <mol_properties>  (31) 
{"0": {"label": "*3", "atom_type": "Cs"}, "1": {"label": "*4", "atom_type": "H0"}, "4": {"label": "*1", "atom_type": "Cs"}, "5": {"label": "*0", "atom_type": "O2s"}, "8": {"label": "*2", "atom_type": "H0"}}

>  <type>  (31) 
unop_27

>  <geom_source>  (31) 
gaussian_log

$$$$
