
     RDKit          3D

 10  9  0  0  0  0  0  0  0  0999 V2000
    2.0403   -0.0576    0.0117 C   0  0  0  0  0  0  0  0  0  0  0  0
    0.5945   -0.0168    0.1897 C   0  0  0  0  0  0  0  0  0  0  0  0
   -0.5945    0.0168    0.3361 C   0  0  0  0  0  0  0  0  0  0  0  0
   -2.0403    0.0576    0.5141 C   0  0  0  0  0  0  0  0  0  0  0  0
    2.4704    0.9425    0.0886 H   0  0  0  0  0  0  0  0  0  0  0  0
    2.3007   -0.4623   -0.9678 H   0  0  0  0  0  0  0  0  0  0  0  0
    2.5086   -0.6855    0.7715 H   0  0  0  0  0  0  0  0  0  0  0  0
   -2.3710    1.0616    0.7853 H   0  0  0  0  0  0  0  0  0  0  0  0
   -2.3547   -0.6262    1.3045 H   0  0  0  0  0  0  0  0  0  0  0  0
   -2.5540   -0.2301   -0.4048 H   0  0  0  0  0  0  0  0  0  0  0  0
  1  2  1  0
  1  5  1  0
  1  6  1  0
  1  7  1  0
  2  3  3  0
  3  4  1  0
  4  8  1  0
  4  9  1  0
  4 10  1  0
M  END
>  <reaction>  (1) 
rmg_rxn_50

>  <mol_properties>  (1) 
{"3": {"label": "donator", "atom_type": "Cs"}, "9": {"label": "d_hydrogen", "atom_type": "H0"}}

>  <type>  (1) 
r1h

$$$$

     RDKit          3D

  8  7  0  0  0  0  0  0  0  0999 V2000
   -0.9728    0.1768    0.1542 C   0  0  0  0  0  0  0  0  0  0  0  0
    0.4518   -0.2348    0.0047 C   0  0  0  0  0  3  0  0  0  0  0  0
    1.3116    0.0208    0.9062 N   0  0  0  0  0  2  0  0  0  0  0  0
    2.5018   -0.1901    1.0428 O   0  0  0  0  0  1  0  0  0  0  0  0
   -1.2701    0.8423   -0.6593 H   0  0  0  0  0  0  0  0  0  0  0  0
   -1.6318   -0.6936    0.1212 H   0  0  0  0  0  0  0  0  0  0  0  0
   -1.1258    0.6936    1.1003 H   0  0  0  0  0  0  0  0  0  0  0  0
    0.7882   -0.7655   -0.8838 H   0  0  0  0  0  0  0  0  0  0  0  0
  1  2  1  0
  1  7  1  0
  1  6  1  0
  1  5  1  0
  2  3  1  0
  2  8  1  0
  3  4  1  0
M  RAD  3   2   2   3   2   4   2
M  END
>  <reaction>  (2) 
rmg_rxn_50

>  <mol_properties>  (2) 
{"3": {"label": "acceptor", "atom_type": "O2s"}}

>  <type>  (2) 
r2

$$$$

     RDKit          3D

  9  8  0  0  0  0  0  0  0  0999 V2000
   -1.2461    0.5037    0.0950 C   0  0  0  0  0  0  0  0  0  0  0  0
   -0.0155   -0.3334    0.0640 C   0  0  0  0  0  0  0  0  0  0  0  0
    1.0697    0.1457   -0.3733 N   0  0  0  0  0  0  0  0  0  0  0  0
    2.1001   -0.7834   -0.3224 O   0  0  0  0  0  0  0  0  0  0  0  0
   -2.0357    0.0440   -0.5039 H   0  0  0  0  0  0  0  0  0  0  0  0
   -1.6237    0.5897    1.1166 H   0  0  0  0  0  0  0  0  0  0  0  0
   -1.0397    1.4998   -0.2929 H   0  0  0  0  0  0  0  0  0  0  0  0
   -0.0537   -1.3634    0.4205 H   0  0  0  0  0  0  0  0  0  0  0  0
    2.8478   -0.2985   -0.6758 H   0  0  0  0  0  0  0  0  0  0  0  0
  1  2  1  0
  1  5  1  0
  1  6  1  0
  1  7  1  0
  2  3  2  3
  2  8  1  0
  3  4  1  0
  4  9  1  0
M  END
>  <reaction>  (3) 
rmg_rxn_50

>  <mol_properties>  (3) 
{"3": {"label": "acceptor", "atom_type": "O2s"}, "8": {"label": "a_hydrogen", "atom_type": "H0"}}

>  <type>  (3) 
r2h

$$$$

     RDKit          3D

 18 16  0  0  0  0  0  0  0  0999 V2000
   -2.1688    1.8820    0.1523 C   0  0  0  0  0  0  0  0  0  0  0  0
   -1.2747    1.4328    1.2565 C   0  0  0  0  0  0  0  0  0  0  0  0
   -0.3985    0.5398    1.0461 N   0  0  0  0  0  0  0  0  0  0  0  0
    0.3691    0.1713    2.0432 O   0  0  0  0  0  0  0  0  0  0  0  0
   -3.2173    1.7088    0.4072 H   0  0  0  0  0  0  0  0  0  0  0  0
   -2.0533    2.9535   -0.0288 H   0  0  0  0  0  0  0  0  0  0  0  0
   -1.9348    1.3422   -0.7643 H   0  0  0  0  0  0  0  0  0  0  0  0
   -1.3772    1.8757    2.2472 H   0  0  0  0  0  0  0  0  0  0  0  0
    0.0261   -1.1880   -2.7526 C   0  0  0  0  0  0  0  0  0  0  0  0
    0.6861   -1.3559   -1.4701 C   0  0  0  0  0  3  0  0  0  0  0  0
    1.2405   -1.5014   -0.4055 C   0  0  0  0  0  0  0  0  0  0  0  0
    1.8002   -1.5738    0.8819 C   0  0  0  0  0  0  0  0  0  0  0  0
    0.1335   -0.1631   -3.1115 H   0  0  0  0  0  0  0  0  0  0  0  0
   -1.0380   -1.4163   -2.6727 H   0  0  0  0  0  0  0  0  0  0  0  0
    0.4594   -1.8551   -3.5009 H   0  0  0  0  0  0  0  0  0  0  0  0
    2.8209   -1.2093    0.9752 H   0  0  0  0  0  0  0  0  0  0  0  0
    1.6163   -2.4975    1.4264 H   0  0  0  0  0  0  0  0  0  0  0  0
    1.1010   -0.6842    1.5548 H   0  0  0  0  0  0  0  0  0  0  0  0
  1  2  1  0
  1  5  1  0
  1  6  1  0
  1  7  1  0
  2  3  2  3
  2  8  1  0
  3  4  1  0
  4 18  1  0
  9 10  1  0
  9 13  1  0
  9 14  1  0
  9 15  1  0
 10 11  2  0
 11 12  2  0
 12 16  1  0
 12 17  1  0
M  RAD  1  10   2
M  END
>  <reaction>  (4) 
rmg_rxn_50

>  <mol_properties>  (4) 
{"2": {"label": "*0", "atom_type": "N3d"}, "3": {"label": "*1", "atom_type": "O2s"}, "10": {"label": "*4", "atom_type": "Cdd"}, "11": {"label": "*3", "atom_type": "Cd"}, "17": {"label": "*2", "atom_type": "H0"}}

>  <type>  (4) 
ts

$$$$

     RDKit          3D

 18 16  0  0  0  0  0  0  0  0999 V2000
   -2.2408    0.7732    3.5026 C   0  0  0  0  0  0  0  0  0  0  0  0
   -1.1607    1.1688    2.5576 C   0  0  0  0  0  0  0  0  0  0  0  0
   -1.0025    0.5405    1.4721 N   0  0  0  0  0  0  0  0  0  0  0  0
    0.0507    1.0550    0.7281 O   0  0  0  0  0  0  0  0  0  0  0  0
   -1.8185    0.5009    4.4727 H   0  0  0  0  0  0  0  0  0  0  0  0
   -2.9255    1.6076    3.6708 H   0  0  0  0  0  0  0  0  0  0  0  0
   -2.8012   -0.0729    3.1086 H   0  0  0  0  0  0  0  0  0  0  0  0
   -0.5051    2.0044    2.8059 H   0  0  0  0  0  0  0  0  0  0  0  0
    1.1519   -0.9621   -4.2625 C   0  0  0  0  0  0  0  0  0  0  0  0
    1.1519   -0.9621   -2.8053 C   0  0  0  0  0  3  0  0  0  0  0  0
    1.1519   -0.9621   -1.6068 C   0  0  0  0  0  0  0  0  0  0  0  0
    1.1519   -0.9621   -0.1495 C   0  0  0  0  0  0  0  0  0  0  0  0
    2.1685   -0.8851   -4.6519 H   0  0  0  0  0  0  0  0  0  0  0  0
    0.5769   -0.1202   -4.6519 H   0  0  0  0  0  0  0  0  0  0  0  0
    0.7103   -1.8810   -4.6519 H   0  0  0  0  0  0  0  0  0  0  0  0
    2.1711   -0.9865    0.2398 H   0  0  0  0  0  0  0  0  0  0  0  0
    0.6212   -1.8326    0.2398 H   0  0  0  0  0  0  0  0  0  0  0  0
    0.5657    0.1117    0.3177 H   0  0  0  0  0  0  0  0  0  0  0  0
  1  2  1  0
  1  5  1  0
  1  6  1  0
  1  7  1  0
  2  3  2  3
  2  8  1  0
  3  4  1  0
  4 18  1  0
  9 10  1  0
  9 13  1  0
  9 14  1  0
  9 15  1  0
 10 11  2  0
 11 12  2  0
 12 16  1  0
 12 17  1  0
M  RAD  1  10   2
M  END
>  <reaction>  (5) 
rmg_rxn_50

>  <mol_properties>  (5) 
{"2": {"label": "*0", "atom_type": "N3d"}, "3": {"label": "*1", "atom_type": "O2s"}, "10": {"label": "*4", "atom_type": "Cdd"}, "11": {"label": "*3", "atom_type": "Cd"}, "17": {"label": "*2", "atom_type": "H0"}}

>  <type>  (5) 
unop_1

>  <geom_source>  (5) 
Heuristics

$$$$

     RDKit          3D

 18 16  0  0  0  0  0  0  0  0999 V2000
   -2.7608    2.0808    0.3564 C   0  0  0  0  0  0  0  0  0  0  0  0
   -1.6550    1.6437    1.2520 C   0  0  0  0  0  0  0  0  0  0  0  0
   -0.7259    0.9116    0.8059 N   0  0  0  0  0  0  0  0  0  0  0  0
    0.2087    0.6105    1.7875 O   0  0  0  0  0  0  0  0  0  0  0  0
   -3.7234    1.7375    0.7426 H   0  0  0  0  0  0  0  0  0  0  0  0
   -2.8030    3.1714    0.3061 H   0  0  0  0  0  0  0  0  0  0  0  0
   -2.6184    1.6838   -0.6473 H   0  0  0  0  0  0  0  0  0  0  0  0
   -1.6494    1.9581    2.2963 H   0  0  0  0  0  0  0  0  0  0  0  0
    1.3099   -1.4066   -3.2032 C   0  0  0  0  0  0  0  0  0  0  0  0
    1.3099   -1.4066   -1.7459 C   0  0  0  0  0  3  0  0  0  0  0  0
    1.3099   -1.4066   -0.5474 C   0  0  0  0  0  0  0  0  0  0  0  0
    1.3099   -1.4066    0.9098 C   0  0  0  0  0  0  0  0  0  0  0  0
    2.3265   -1.3296   -3.5925 H   0  0  0  0  0  0  0  0  0  0  0  0
    0.7348   -0.5647   -3.5925 H   0  0  0  0  0  0  0  0  0  0  0  0
    0.8683   -2.3255   -3.5925 H   0  0  0  0  0  0  0  0  0  0  0  0
    2.3291   -1.4310    1.2992 H   0  0  0  0  0  0  0  0  0  0  0  0
    0.7791   -2.2771    1.2992 H   0  0  0  0  0  0  0  0  0  0  0  0
    0.7236   -0.3328    1.3771 H   0  0  0  0  0  0  0  0  0  0  0  0
  1  2  1  0
  1  5  1  0
  1  6  1  0
  1  7  1  0
  2  3  2  3
  2  8  1  0
  3  4  1  0
  4 18  1  0
  9 10  1  0
  9 13  1  0
  9 14  1  0
  9 15  1  0
 10 11  2  0
 11 12  2  0
 12 16  1  0
 12 17  1  0
M  RAD  1  10   2
M  END
>  <reaction>  (6) 
rmg_rxn_50

>  <mol_properties>  (6) 
{"2": {"label": "*0", "atom_type": "N3d"}, "3": {"label": "*1", "atom_type": "O2s"}, "10": {"label": "*4", "atom_type": "Cdd"}, "11": {"label": "*3", "atom_type": "Cd"}, "17": {"label": "*2", "atom_type": "H0"}}

>  <type>  (6) 
unop_2

>  <geom_source>  (6) 
Heuristics

$$$$

     RDKit          3D

 18 16  0  0  0  0  0  0  0  0999 V2000
   -1.4066    1.1795    3.9667 C   0  0  0  0  0  0  0  0  0  0  0  0
   -0.8569    1.4345    2.6069 C   0  0  0  0  0  0  0  0  0  0  0  0
   -0.7670    0.4918    1.7694 N   0  0  0  0  0  0  0  0  0  0  0  0
   -0.2328    0.9242    0.5630 O   0  0  0  0  0  0  0  0  0  0  0  0
   -0.6690    1.4356    4.7309 H   0  0  0  0  0  0  0  0  0  0  0  0
   -2.2867    1.8015    4.1455 H   0  0  0  0  0  0  0  0  0  0  0  0
   -1.6830    0.1322    4.0761 H   0  0  0  0  0  0  0  0  0  0  0  0
   -0.5314    2.4394    2.3356 H   0  0  0  0  0  0  0  0  0  0  0  0
    0.8684   -1.0930   -4.4276 C   0  0  0  0  0  0  0  0  0  0  0  0
    0.8684   -1.0930   -2.9704 C   0  0  0  0  0  3  0  0  0  0  0  0
    0.8684   -1.0930   -1.7719 C   0  0  0  0  0  0  0  0  0  0  0  0
    0.8684   -1.0930   -0.3146 C   0  0  0  0  0  0  0  0  0  0  0  0
    1.8850   -1.0159   -4.8170 H   0  0  0  0  0  0  0  0  0  0  0  0
    0.2934   -0.2511   -4.8170 H   0  0  0  0  0  0  0  0  0  0  0  0
    0.4268   -2.0119   -4.8170 H   0  0  0  0  0  0  0  0  0  0  0  0
    1.8876   -1.1173    0.0747 H   0  0  0  0  0  0  0  0  0  0  0  0
    0.3377   -1.9635    0.0747 H   0  0  0  0  0  0  0  0  0  0  0  0
    0.2822   -0.0191    0.1526 H   0  0  0  0  0  0  0  0  0  0  0  0
  1  2  1  0
  1  5  1  0
  1  6  1  0
  1  7  1  0
  2  3  2  3
  2  8  1  0
  3  4  1  0
  4 18  1  0
  9 10  1  0
  9 13  1  0
  9 14  1  0
  9 15  1  0
 10 11  2  0
 11 12  2  0
 12 16  1  0
 12 17  1  0
M  RAD  1  10   2
M  END
>  <reaction>  (7) 
rmg_rxn_50

>  <mol_properties>  (7) 
{"2": {"label": "*0", "atom_type": "N3d"}, "3": {"label": "*1", "atom_type": "O2s"}, "10": {"label": "*4", "atom_type": "Cdd"}, "11": {"label": "*3", "atom_type": "Cd"}, "17": {"label": "*2", "atom_type": "H0"}}

>  <type>  (7) 
unop_3

>  <geom_source>  (7) 
Heuristics

$$$$

     RDKit          3D

 18 16  0  0  0  0  0  0  0  0999 V2000
    0.6994    3.3821    1.3699 C   0  0  0  0  0  0  0  0  0  0  0  0
   -0.0867    2.1724    1.7371 C   0  0  0  0  0  0  0  0  0  0  0  0
   -0.1770    1.2028    0.9310 N   0  0  0  0  0  0  0  0  0  0  0  0
   -0.9482    0.1717    1.4502 O   0  0  0  0  0  0  0  0  0  0  0  0
    0.0629    4.2700    1.3845 H   0  0  0  0  0  0  0  0  0  0  0  0
    1.5030    3.5486    2.0910 H   0  0  0  0  0  0  0  0  0  0  0  0
    1.1305    3.2699    0.3765 H   0  0  0  0  0  0  0  0  0  0  0  0
   -0.5854    2.1258    2.7059 H   0  0  0  0  0  0  0  0  0  0  0  0
    0.1529   -1.8455   -3.5405 C   0  0  0  0  0  0  0  0  0  0  0  0
    0.1529   -1.8455   -2.0832 C   0  0  0  0  0  3  0  0  0  0  0  0
    0.1529   -1.8455   -0.8847 C   0  0  0  0  0  0  0  0  0  0  0  0
    0.1529   -1.8455    0.5725 C   0  0  0  0  0  0  0  0  0  0  0  0
    1.1695   -1.7684   -3.9298 H   0  0  0  0  0  0  0  0  0  0  0  0
   -0.4221   -1.0036   -3.9298 H   0  0  0  0  0  0  0  0  0  0  0  0
   -0.2887   -2.7644   -3.9298 H   0  0  0  0  0  0  0  0  0  0  0  0
    1.1721   -1.8698    0.9619 H   0  0  0  0  0  0  0  0  0  0  0  0
   -0.3778   -2.7160    0.9619 H   0  0  0  0  0  0  0  0  0  0  0  0
   -0.4333   -0.7716    1.0398 H   0  0  0  0  0  0  0  0  0  0  0  0
  1  2  1  0
  1  5  1  0
  1  6  1  0
  1  7  1  0
  2  3  2  3
  2  8  1  0
  3  4  1  0
  4 18  1  0
  9 10  1  0
  9 13  1  0
  9 14  1  0
  9 15  1  0
 10 11  2  0
 11 12  2  0
 12 16  1  0
 12 17  1  0
M  RAD  1  10   2
M  END
>  <reaction>  (8) 
rmg_rxn_50

>  <mol_properties>  (8) 
{"2": {"label": "*0", "atom_type": "N3d"}, "3": {"label": "*1", "atom_type": "O2s"}, "10": {"label": "*4", "atom_type": "Cdd"}, "11": {"label": "*3", "atom_type": "Cd"}, "17": {"label": "*2", "atom_type": "H0"}}

>  <type>  (8) 
unop_4

>  <geom_source>  (8) 
Heuristics

$$$$

     RDKit          3D

 18 16  0  0  0  0  0  0  0  0999 V2000
   -0.8722    1.5976    4.0252 C   0  0  0  0  0  0  0  0  0  0  0  0
   -0.8636    1.5819    2.5366 C   0  0  0  0  0  0  0  0  0  0  0  0
   -0.3366    0.6167    1.9131 N   0  0  0  0  0  0  0  0  0  0  0  0
   -0.4268    0.7818    0.5375 O   0  0  0  0  0  0  0  0  0  0  0  0
   -0.3534    2.4828    4.4007 H   0  0  0  0  0  0  0  0  0  0  0  0
   -1.8972    1.6401    4.4007 H   0  0  0  0  0  0  0  0  0  0  0  0
   -0.3858    0.7067    4.4189 H   0  0  0  0  0  0  0  0  0  0  0  0
   -1.3144    2.4078    1.9851 H   0  0  0  0  0  0  0  0  0  0  0  0
    0.6744   -1.2354   -4.4531 C   0  0  0  0  0  0  0  0  0  0  0  0
    0.6744   -1.2354   -2.9959 C   0  0  0  0  0  3  0  0  0  0  0  0
    0.6744   -1.2354   -1.7974 C   0  0  0  0  0  0  0  0  0  0  0  0
    0.6744   -1.2354   -0.3401 C   0  0  0  0  0  0  0  0  0  0  0  0
    1.6910   -1.1583   -4.8425 H   0  0  0  0  0  0  0  0  0  0  0  0
    0.0994   -0.3935   -4.8425 H   0  0  0  0  0  0  0  0  0  0  0  0
    0.2328   -2.1543   -4.8425 H   0  0  0  0  0  0  0  0  0  0  0  0
    1.6936   -1.2597    0.0492 H   0  0  0  0  0  0  0  0  0  0  0  0
    0.1437   -2.1059    0.0492 H   0  0  0  0  0  0  0  0  0  0  0  0
    0.0882   -0.1615    0.1271 H   0  0  0  0  0  0  0  0  0  0  0  0
  1  2  1  0
  1  5  1  0
  1  6  1  0
  1  7  1  0
  2  3  2  3
  2  8  1  0
  3  4  1  0
  4 18  1  0
  9 10  1  0
  9 13  1  0
  9 14  1  0
  9 15  1  0
 10 11  2  0
 11 12  2  0
 12 16  1  0
 12 17  1  0
M  RAD  1  10   2
M  END
>  <reaction>  (9) 
rmg_rxn_50

>  <mol_properties>  (9) 
{"2": {"label": "*0", "atom_type": "N3d"}, "3": {"label": "*1", "atom_type": "O2s"}, "10": {"label": "*4", "atom_type": "Cdd"}, "11": {"label": "*3", "atom_type": "Cd"}, "17": {"label": "*2", "atom_type": "H0"}}

>  <type>  (9) 
unop_5

>  <geom_source>  (9) 
Heuristics

$$$$

     RDKit          3D

 18 16  0  0  0  0  0  0  0  0999 V2000
    0.9637    2.9213    2.5508 C   0  0  0  0  0  0  0  0  0  0  0  0
   -0.0664    1.8931    2.2382 C   0  0  0  0  0  0  0  0  0  0  0  0
    0.0031    1.2276    1.1656 N   0  0  0  0  0  0  0  0  0  0  0  0
   -1.0427    0.3214    1.0532 O   0  0  0  0  0  0  0  0  0  0  0  0
    0.4991    3.9027    2.6719 H   0  0  0  0  0  0  0  0  0  0  0  0
    1.4673    2.6838    3.4908 H   0  0  0  0  0  0  0  0  0  0  0  0
    1.7039    2.9741    1.7543 H   0  0  0  0  0  0  0  0  0  0  0  0
   -0.8828    1.7157    2.9394 H   0  0  0  0  0  0  0  0  0  0  0  0
    0.0584   -1.6957   -3.9374 C   0  0  0  0  0  0  0  0  0  0  0  0
    0.0584   -1.6957   -2.4802 C   0  0  0  0  0  3  0  0  0  0  0  0
    0.0584   -1.6957   -1.2817 C   0  0  0  0  0  0  0  0  0  0  0  0
    0.0584   -1.6957    0.1756 C   0  0  0  0  0  0  0  0  0  0  0  0
    1.0750   -1.6187   -4.3268 H   0  0  0  0  0  0  0  0  0  0  0  0
   -0.5166   -0.8538   -4.3267 H   0  0  0  0  0  0  0  0  0  0  0  0
   -0.3832   -2.6146   -4.3268 H   0  0  0  0  0  0  0  0  0  0  0  0
    1.0776   -1.7201    0.5649 H   0  0  0  0  0  0  0  0  0  0  0  0
   -0.4723   -2.5662    0.5649 H   0  0  0  0  0  0  0  0  0  0  0  0
   -0.5278   -0.6219    0.6428 H   0  0  0  0  0  0  0  0  0  0  0  0
  1  2  1  0
  1  5  1  0
  1  6  1  0
  1  7  1  0
  2  3  2  3
  2  8  1  0
  3  4  1  0
  4 18  1  0
  9 10  1  0
  9 13  1  0
  9 14  1  0
  9 15  1  0
 10 11  2  0
 11 12  2  0
 12 16  1  0
 12 17  1  0
M  RAD  1  10   2
M  END
>  <reaction>  (10) 
rmg_rxn_50

>  <mol_properties>  (10) 
{"2": {"label": "*0", "atom_type": "N3d"}, "3": {"label": "*1", "atom_type": "O2s"}, "10": {"label": "*4", "atom_type": "Cdd"}, "11": {"label": "*3", "atom_type": "Cd"}, "17": {"label": "*2", "atom_type": "H0"}}

>  <type>  (10) 
unop_6

>  <geom_source>  (10) 
Heuristics

$$$$

     RDKit          3D

 18 16  0  0  0  0  0  0  0  0999 V2000
    0.5615    2.3029    3.5026 C   0  0  0  0  0  0  0  0  0  0  0  0
   -0.3554    1.6084    2.5576 C   0  0  0  0  0  0  0  0  0  0  0  0
    0.0875    1.1356    1.4721 N   0  0  0  0  0  0  0  0  0  0  0  0
   -0.9148    0.5279    0.7281 O   0  0  0  0  0  0  0  0  0  0  0  0
    0.2300    3.3302    3.6708 H   0  0  0  0  0  0  0  0  0  0  0  0
    0.5622    1.8005    4.4727 H   0  0  0  0  0  0  0  0  0  0  0  0
    1.5763    2.3168    3.1086 H   0  0  0  0  0  0  0  0  0  0  0  0
   -1.4128    1.5089    2.8059 H   0  0  0  0  0  0  0  0  0  0  0  0
    0.1863   -1.4892   -4.2625 C   0  0  0  0  0  0  0  0  0  0  0  0
    0.1863   -1.4892   -2.8053 C   0  0  0  0  0  3  0  0  0  0  0  0
    0.1863   -1.4892   -1.6068 C   0  0  0  0  0  0  0  0  0  0  0  0
    0.1863   -1.4892   -0.1495 C   0  0  0  0  0  0  0  0  0  0  0  0
    1.2029   -1.4122   -4.6519 H   0  0  0  0  0  0  0  0  0  0  0  0
   -0.3887   -0.6473   -4.6519 H   0  0  0  0  0  0  0  0  0  0  0  0
   -0.2553   -2.4082   -4.6519 H   0  0  0  0  0  0  0  0  0  0  0  0
    1.2055   -1.5136    0.2398 H   0  0  0  0  0  0  0  0  0  0  0  0
   -0.3444   -2.3597    0.2398 H   0  0  0  0  0  0  0  0  0  0  0  0
   -0.3999   -0.4154    0.3177 H   0  0  0  0  0  0  0  0  0  0  0  0
  1  2  1  0
  1  5  1  0
  1  6  1  0
  1  7  1  0
  2  3  2  3
  2  8  1  0
  3  4  1  0
  4 18  1  0
  9 10  1  0
  9 13  1  0
  9 14  1  0
  9 15  1  0
 10 11  2  0
 11 12  2  0
 12 16  1  0
 12 17  1  0
M  RAD  1  10   2
M  END
>  <reaction>  (11) 
rmg_rxn_50

>  <mol_properties>  (11) 
{"2": {"label": "*0", "atom_type": "N3d"}, "3": {"label": "*1", "atom_type": "O2s"}, "10": {"label": "*4", "atom_type": "Cdd"}, "11": {"label": "*3", "atom_type": "Cd"}, "17": {"label": "*2", "atom_type": "H0"}}

>  <type>  (11) 
unop_7

>  <geom_source>  (11) 
Heuristics

$$$$

     RDKit          3D

 18 16  0  0  0  0  0  0  0  0999 V2000
   -2.9784    0.7693    2.5508 C   0  0  0  0  0  0  0  0  0  0  0  0
   -1.5564    1.0797    2.2382 C   0  0  0  0  0  0  0  0  0  0  0  0
   -1.0343    0.6613    1.1656 N   0  0  0  0  0  0  0  0  0  0  0  0
    0.2936    1.0509    1.0532 O   0  0  0  0  0  0  0  0  0  0  0  0
   -3.0510    0.2173    3.4908 H   0  0  0  0  0  0  0  0  0  0  0  0
   -3.5526    1.6908    2.6719 H   0  0  0  0  0  0  0  0  0  0  0  0
   -3.4232    0.1752    1.7543 H   0  0  0  0  0  0  0  0  0  0  0  0
   -0.9657    1.6704    2.9394 H   0  0  0  0  0  0  0  0  0  0  0  0
    1.3947   -0.9662   -3.9374 C   0  0  0  0  0  0  0  0  0  0  0  0
    1.3947   -0.9662   -2.4802 C   0  0  0  0  0  3  0  0  0  0  0  0
    1.3947   -0.9662   -1.2817 C   0  0  0  0  0  0  0  0  0  0  0  0
    1.3947   -0.9662    0.1756 C   0  0  0  0  0  0  0  0  0  0  0  0
    2.4113   -0.8892   -4.3268 H   0  0  0  0  0  0  0  0  0  0  0  0
    0.8197   -0.1243   -4.3267 H   0  0  0  0  0  0  0  0  0  0  0  0
    0.9532   -1.8851   -4.3268 H   0  0  0  0  0  0  0  0  0  0  0  0
    2.4140   -0.9906    0.5649 H   0  0  0  0  0  0  0  0  0  0  0  0
    0.8640   -1.8367    0.5649 H   0  0  0  0  0  0  0  0  0  0  0  0
    0.8085    0.1076    0.6428 H   0  0  0  0  0  0  0  0  0  0  0  0
  1  2  1  0
  1  5  1  0
  1  6  1  0
  1  7  1  0
  2  3  2  3
  2  8  1  0
  3  4  1  0
  4 18  1  0
  9 10  1  0
  9 13  1  0
  9 14  1  0
  9 15  1  0
 10 11  2  0
 11 12  2  0
 12 16  1  0
 12 17  1  0
M  RAD  1  10   2
M  END
>  <reaction>  (12) 
rmg_rxn_50

>  <mol_properties>  (12) 
{"2": {"label": "*0", "atom_type": "N3d"}, "3": {"label": "*1", "atom_type": "O2s"}, "10": {"label": "*4", "atom_type": "Cdd"}, "11": {"label": "*3", "atom_type": "Cd"}, "17": {"label": "*2", "atom_type": "H0"}}

>  <type>  (12) 
unop_8

>  <geom_source>  (12) 
Heuristics

$$$$

     RDKit          3D

 18 16  0  0  0  0  0  0  0  0999 V2000
   -0.2572    3.4476    0.3564 C   0  0  0  0  0  0  0  0  0  0  0  0
   -0.4875    2.2810    1.2520 C   0  0  0  0  0  0  0  0  0  0  0  0
   -0.3742    1.1036    0.8059 N   0  0  0  0  0  0  0  0  0  0  0  0
   -0.6264    0.1546    1.7875 O   0  0  0  0  0  0  0  0  0  0  0  0
   -1.1516    4.0729    0.3061 H   0  0  0  0  0  0  0  0  0  0  0  0
    0.5522    4.0715    0.7426 H   0  0  0  0  0  0  0  0  0  0  0  0
   -0.0003    3.1131   -0.6473 H   0  0  0  0  0  0  0  0  0  0  0  0
   -0.7550    2.4463    2.2963 H   0  0  0  0  0  0  0  0  0  0  0  0
    0.4748   -1.8625   -3.2032 C   0  0  0  0  0  0  0  0  0  0  0  0
    0.4748   -1.8625   -1.7459 C   0  0  0  0  0  3  0  0  0  0  0  0
    0.4748   -1.8625   -0.5474 C   0  0  0  0  0  0  0  0  0  0  0  0
    0.4748   -1.8625    0.9098 C   0  0  0  0  0  0  0  0  0  0  0  0
    1.4914   -1.7855   -3.5925 H   0  0  0  0  0  0  0  0  0  0  0  0
   -0.1003   -1.0206   -3.5925 H   0  0  0  0  0  0  0  0  0  0  0  0
    0.0332   -2.7814   -3.5925 H   0  0  0  0  0  0  0  0  0  0  0  0
    1.4940   -1.8869    1.2992 H   0  0  0  0  0  0  0  0  0  0  0  0
   -0.0560   -2.7330    1.2992 H   0  0  0  0  0  0  0  0  0  0  0  0
   -0.1115   -0.7887    1.3771 H   0  0  0  0  0  0  0  0  0  0  0  0
  1  2  1  0
  1  5  1  0
  1  6  1  0
  1  7  1  0
  2  3  2  3
  2  8  1  0
  3  4  1  0
  4 18  1  0
  9 10  1  0
  9 13  1  0
  9 14  1  0
  9 15  1  0
 10 11  2  0
 11 12  2  0
 12 16  1  0
 12 17  1  0
M  RAD  1  10   2
M  END
>  <reaction>  (13) 
rmg_rxn_50

>  <mol_properties>  (13) 
{"2": {"label": "*0", "atom_type": "N3d"}, "3": {"label": "*1", "atom_type": "O2s"}, "10": {"label": "*4", "atom_type": "Cdd"}, "11": {"label": "*3", "atom_type": "Cd"}, "17": {"label": "*2", "atom_type": "H0"}}

>  <type>  (13) 
unop_9

>  <geom_source>  (13) 
Heuristics

$$$$

     RDKit          3D

 18 16  0  0  0  0  0  0  0  0999 V2000
   -3.2231    1.2409    1.3699 C   0  0  0  0  0  0  0  0  0  0  0  0
   -1.7804    1.2479    1.7371 C   0  0  0  0  0  0  0  0  0  0  0  0
   -0.9160    0.7994    0.9310 N   0  0  0  0  0  0  0  0  0  0  0  0
    0.3684    0.8904    1.4502 O   0  0  0  0  0  0  0  0  0  0  0  0
   -3.7977    0.6549    2.0910 H   0  0  0  0  0  0  0  0  0  0  0  0
   -3.6257    2.2564    1.3845 H   0  0  0  0  0  0  0  0  0  0  0  0
   -3.3618    0.8175    0.3765 H   0  0  0  0  0  0  0  0  0  0  0  0
   -1.4715    1.6421    2.7059 H   0  0  0  0  0  0  0  0  0  0  0  0
    1.4696   -1.1267   -3.5405 C   0  0  0  0  0  0  0  0  0  0  0  0
    1.4696   -1.1267   -2.0832 C   0  0  0  0  0  3  0  0  0  0  0  0
    1.4696   -1.1267   -0.8847 C   0  0  0  0  0  0  0  0  0  0  0  0
    1.4696   -1.1267    0.5725 C   0  0  0  0  0  0  0  0  0  0  0  0
    2.4862   -1.0497   -3.9298 H   0  0  0  0  0  0  0  0  0  0  0  0
    0.8946   -0.2848   -3.9298 H   0  0  0  0  0  0  0  0  0  0  0  0
    1.0280   -2.0456   -3.9298 H   0  0  0  0  0  0  0  0  0  0  0  0
    2.4888   -1.1511    0.9619 H   0  0  0  0  0  0  0  0  0  0  0  0
    0.9389   -1.9972    0.9619 H   0  0  0  0  0  0  0  0  0  0  0  0
    0.8834   -0.0529    1.0398 H   0  0  0  0  0  0  0  0  0  0  0  0
  1  2  1  0
  1  5  1  0
  1  6  1  0
  1  7  1  0
  2  3  2  3
  2  8  1  0
  3  4  1  0
  4 18  1  0
  9 10  1  0
  9 13  1  0
  9 14  1  0
  9 15  1  0
 10 11  2  0
 11 12  2  0
 12 16  1  0
 12 17  1  0
M  RAD  1  10   2
M  END
>  <reaction>  (14) 
rmg_rxn_50

>  <mol_properties>  (14) 
{"2": {"label": "*0", "atom_type": "N3d"}, "3": {"label": "*1", "atom_type": "O2s"}, "10": {"label": "*4", "atom_type": "Cdd"}, "11": {"label": "*3", "atom_type": "Cd"}, "17": {"label": "*2", "atom_type": "H0"}}

>  <type>  (14) 
unop_10

>  <geom_source>  (14) 
Heuristics

$$$$

     RDKit          3D

 18 16  0  0  0  0  0  0  0  0999 V2000
   -0.2314    1.8210    3.9667 C   0  0  0  0  0  0  0  0  0  0  0  0
   -0.7432    1.4966    2.6069 C   0  0  0  0  0  0  0  0  0  0  0  0
    0.0011    0.9112    1.7694 N   0  0  0  0  0  0  0  0  0  0  0  0
   -0.6515    0.6956    0.5630 O   0  0  0  0  0  0  0  0  0  0  0  0
   -0.2786    2.8977    4.1455 H   0  0  0  0  0  0  0  0  0  0  0  0
   -0.8457    1.3391    4.7309 H   0  0  0  0  0  0  0  0  0  0  0  0
    0.7990    1.4871    4.0761 H   0  0  0  0  0  0  0  0  0  0  0  0
   -1.7645    1.7663    2.3356 H   0  0  0  0  0  0  0  0  0  0  0  0
    0.4497   -1.3215   -4.4276 C   0  0  0  0  0  0  0  0  0  0  0  0
    0.4497   -1.3215   -2.9704 C   0  0  0  0  0  3  0  0  0  0  0  0
    0.4497   -1.3215   -1.7719 C   0  0  0  0  0  0  0  0  0  0  0  0
    0.4497   -1.3215   -0.3146 C   0  0  0  0  0  0  0  0  0  0  0  0
    1.4663   -1.2445   -4.8170 H   0  0  0  0  0  0  0  0  0  0  0  0
   -0.1253   -0.4796   -4.8170 H   0  0  0  0  0  0  0  0  0  0  0  0
    0.0081   -2.2405   -4.8170 H   0  0  0  0  0  0  0  0  0  0  0  0
    1.4689   -1.3459    0.0747 H   0  0  0  0  0  0  0  0  0  0  0  0
   -0.0810   -2.1920    0.0747 H   0  0  0  0  0  0  0  0  0  0  0  0
   -0.1365   -0.2477    0.1526 H   0  0  0  0  0  0  0  0  0  0  0  0
  1  2  1  0
  1  5  1  0
  1  6  1  0
  1  7  1  0
  2  3  2  3
  2  8  1  0
  3  4  1  0
  4 18  1  0
  9 10  1  0
  9 13  1  0
  9 14  1  0
  9 15  1  0
 10 11  2  0
 11 12  2  0
 12 16  1  0
 12 17  1  0
M  RAD  1  10   2
M  END
>  <reaction>  (15) 
rmg_rxn_50

>  <mol_properties>  (15) 
{"2": {"label": "*0", "atom_type": "N3d"}, "3": {"label": "*1", "atom_type": "O2s"}, "10": {"label": "*4", "atom_type": "Cdd"}, "11": {"label": "*3", "atom_type": "Cd"}, "17": {"label": "*2", "atom_type": "H0"}}

>  <type>  (15) 
unop_11

>  <geom_source>  (15) 
Heuristics

$$$$

     RDKit          3D

 18 16  0  0  0  0  0  0  0  0999 V2000
   -1.6190    2.9658   -0.0563 C   0  0  0  0  0  0  0  0  0  0  0  0
   -1.1372    2.0831    1.0414 C   0  0  0  0  0  0  0  0  0  0  0  0
   -0.5452    0.9987    0.7732 N   0  0  0  0  0  0  0  0  0  0  0  0
   -0.1731    0.3170    1.9240 O   0  0  0  0  0  0  0  0  0  0  0  0
   -2.6995    3.1098    0.0161 H   0  0  0  0  0  0  0  0  0  0  0  0
   -1.1558    3.9525    0.0161 H   0  0  0  0  0  0  0  0  0  0  0  0
   -1.3822    2.5320   -1.0263 H   0  0  0  0  0  0  0  0  0  0  0  0
   -1.2971    2.3761    2.0797 H   0  0  0  0  0  0  0  0  0  0  0  0
    0.9281   -1.7001   -3.0667 C   0  0  0  0  0  0  0  0  0  0  0  0
    0.9281   -1.7001   -1.6094 C   0  0  0  0  0  3  0  0  0  0  0  0
    0.9281   -1.7001   -0.4109 C   0  0  0  0  0  0  0  0  0  0  0  0
    0.9281   -1.7001    1.0464 C   0  0  0  0  0  0  0  0  0  0  0  0
    1.9447   -1.6231   -3.4560 H   0  0  0  0  0  0  0  0  0  0  0  0
    0.3531   -0.8582   -3.4560 H   0  0  0  0  0  0  0  0  0  0  0  0
    0.4865   -2.6190   -3.4560 H   0  0  0  0  0  0  0  0  0  0  0  0
    1.9473   -1.7245    1.4357 H   0  0  0  0  0  0  0  0  0  0  0  0
    0.3974   -2.5706    1.4357 H   0  0  0  0  0  0  0  0  0  0  0  0
    0.3419   -0.6263    1.5136 H   0  0  0  0  0  0  0  0  0  0  0  0
  1  2  1  0
  1  5  1  0
  1  6  1  0
  1  7  1  0
  2  3  2  3
  2  8  1  0
  3  4  1  0
  4 18  1  0
  9 10  1  0
  9 13  1  0
  9 14  1  0
  9 15  1  0
 10 11  2  0
 11 12  2  0
 12 16  1  0
 12 17  1  0
M  RAD  1  10   2
M  END
>  <reaction>  (16) 
rmg_rxn_50

>  <mol_properties>  (16) 
{"2": {"label": "*0", "atom_type": "N3d"}, "3": {"label": "*1", "atom_type": "O2s"}, "10": {"label": "*4", "atom_type": "Cdd"}, "11": {"label": "*3", "atom_type": "Cd"}, "17": {"label": "*2", "atom_type": "H0"}}

>  <type>  (16) 
unop_12

>  <geom_source>  (16) 
Heuristics

$$$$

     RDKit          3D

 18 16  0  0  0  0  0  0  0  0999 V2000
   -0.5093    0.7120   -0.5041 O   0  0  0  0  0  1  0  0  0  0  0  0
   -1.8182    1.0566   -0.2485 N   0  0  0  0  0  2  0  0  0  0  0  0
   -4.1027    0.5765    0.3652 C   0  0  0  0  0  0  0  0  0  0  0  0
    4.2083    0.5210    0.5721 C   0  0  0  0  0  0  0  0  0  0  0  0
   -2.6946    0.1686    0.0960 C   0  0  0  0  0  3  0  0  0  0  0  0
    0.7743   -1.3306   -0.7874 C   0  0  0  0  0  0  0  0  0  0  0  0
    2.9923   -0.1347    0.0907 C   0  0  0  0  0  2  0  0  0  0  0  0
    1.9903   -0.6750   -0.3060 C   0  0  0  0  0  2  0  0  0  0  0  0
   -4.1292    1.3084    1.1996 H   0  0  0  0  0  0  0  0  0  0  0  0
   -4.7050   -0.3130    0.6453 H   0  0  0  0  0  0  0  0  0  0  0  0
   -4.5409    1.0380   -0.5445 H   0  0  0  0  0  0  0  0  0  0  0  0
    4.6751    1.0904   -0.2579 H   0  0  0  0  0  0  0  0  0  0  0  0
    4.9207   -0.2454    0.9410 H   0  0  0  0  0  0  0  0  0  0  0  0
    3.9519    1.2155    1.3984 H   0  0  0  0  0  0  0  0  0  0  0  0
   -2.4131   -0.8732    0.1911 H   0  0  0  0  0  0  0  0  0  0  0  0
    0.8231   -2.4151   -0.5583 H   0  0  0  0  0  0  0  0  0  0  0  0
    0.6863   -1.1879   -1.8841 H   0  0  0  0  0  0  0  0  0  0  0  0
   -0.1092   -0.5120   -0.4087 H   0  0  0  0  0  0  0  0  0  0  0  0
  1  2  1  0
  2  5  1  0
  3 11  1  0
  3  9  1  0
  3  5  1  0
  3 10  1  0
  4 12  1  0
  4 14  1  0
  4  7  1  0
  4 13  1  0
  5 15  1  0
  6 18  1  0
  6  8  1  0
  6 17  1  0
  6 16  1  0
  7  8  1  0
M  RAD  5   1   2   2   2   5   2   7   3   8   3
M  END
>  <reaction>  (17) 
rmg_rxn_50

>  <mol_properties>  (17) 
{"2": {"label": "*0", "atom_type": "N3d"}, "3": {"label": "*1", "atom_type": "O2s"}, "10": {"label": "*4", "atom_type": "Cdd"}, "11": {"label": "*3", "atom_type": "Cd"}, "17": {"label": "*2", "atom_type": "H0"}}

>  <type>  (17) 
unop_13

>  <geom_source>  (17) 
AutoTST

$$$$

     RDKit          3D

 18 16  0  0  0  0  0  0  0  0999 V2000
   -2.7608    2.0808    0.3564 C   0  0  0  0  0  0  0  0  0  0  0  0
   -1.6550    1.6437    1.2520 C   0  0  0  0  0  0  0  0  0  0  0  0
   -0.7259    0.9116    0.8059 N   0  0  0  0  0  0  0  0  0  0  0  0
    0.2087    0.6105    1.7875 O   0  0  0  0  0  0  0  0  0  0  0  0
   -3.7233    1.7375    0.7426 H   0  0  0  0  0  0  0  0  0  0  0  0
   -2.8030    3.1714    0.3061 H   0  0  0  0  0  0  0  0  0  0  0  0
   -2.6184    1.6838   -0.6473 H   0  0  0  0  0  0  0  0  0  0  0  0
   -1.6494    1.9581    2.2963 H   0  0  0  0  0  0  0  0  0  0  0  0
    1.3098   -1.4066   -3.2032 C   0  0  0  0  0  0  0  0  0  0  0  0
    1.3098   -1.4066   -1.7459 C   0  0  0  0  0  3  0  0  0  0  0  0
    1.3098   -1.4066   -0.5474 C   0  0  0  0  0  0  0  0  0  0  0  0
    1.3098   -1.4066    0.9099 C   0  0  0  0  0  0  0  0  0  0  0  0
    2.3264   -1.3296   -3.5925 H   0  0  0  0  0  0  0  0  0  0  0  0
    0.7348   -0.5647   -3.5925 H   0  0  0  0  0  0  0  0  0  0  0  0
    0.8683   -2.3255   -3.5925 H   0  0  0  0  0  0  0  0  0  0  0  0
    2.3291   -1.4310    1.2992 H   0  0  0  0  0  0  0  0  0  0  0  0
    0.7792   -2.2771    1.2992 H   0  0  0  0  0  0  0  0  0  0  0  0
    0.7237   -0.3328    1.3771 H   0  0  0  0  0  0  0  0  0  0  0  0
  1  2  1  0
  1  5  1  0
  1  6  1  0
  1  7  1  0
  2  3  2  3
  2  8  1  0
  3  4  1  0
  4 18  1  0
  9 10  1  0
  9 13  1  0
  9 14  1  0
  9 15  1  0
 10 11  2  0
 11 12  2  0
 12 16  1  0
 12 17  1  0
M  RAD  1  10   2
M  END
>  <reaction>  (18) 
rmg_rxn_50

>  <mol_properties>  (18) 
{"2": {"label": "*0", "atom_type": "N3d"}, "3": {"label": "*1", "atom_type": "O2s"}, "10": {"label": "*4", "atom_type": "Cdd"}, "11": {"label": "*3", "atom_type": "Cd"}, "17": {"label": "*2", "atom_type": "H0"}}

>  <type>  (18) 
unop_14

>  <geom_source>  (18) 
gaussian_log

$$$$
