
     RDKit          3D

  9  8  0  0  0  0  0  0  0  0999 V2000
   -1.2461    0.5037    0.0950 C   0  0  0  0  0  0  0  0  0  0  0  0
   -0.0155   -0.3334    0.0640 C   0  0  0  0  0  0  0  0  0  0  0  0
    1.0697    0.1457   -0.3733 N   0  0  0  0  0  0  0  0  0  0  0  0
    2.1001   -0.7834   -0.3224 O   0  0  0  0  0  0  0  0  0  0  0  0
   -2.0357    0.0440   -0.5039 H   0  0  0  0  0  0  0  0  0  0  0  0
   -1.6237    0.5897    1.1166 H   0  0  0  0  0  0  0  0  0  0  0  0
   -1.0397    1.4998   -0.2929 H   0  0  0  0  0  0  0  0  0  0  0  0
   -0.0537   -1.3634    0.4205 H   0  0  0  0  0  0  0  0  0  0  0  0
    2.8478   -0.2985   -0.6758 H   0  0  0  0  0  0  0  0  0  0  0  0
  1  2  1  0
  1  5  1  0
  1  6  1  0
  1  7  1  0
  2  3  2  3
  2  8  1  0
  3  4  1  0
  4  9  1  0
M  END
>  <reaction>  (1) 
rmg_rxn_681

>  <mol_properties>  (1) 
{"3": {"label": "donator", "atom_type": "O2s"}, "8": {"label": "d_hydrogen", "atom_type": "H0"}}

>  <type>  (1) 
r1h

$$$$

     RDKit          3D

 14 13  0  0  0  0  0  0  0  0999 V2000
    2.7687   -0.0362   -0.0732 C   0  0  0  0  0  3  0  0  0  0  0  0
    1.6543    0.2105    0.6386 O   0  0  0  0  0  0  0  0  0  0  0  0
    1.8652    0.6968    1.9544 C   0  0  0  0  0  0  0  0  0  0  0  0
    0.5252    0.9355    2.6156 C   0  0  0  0  0  0  0  0  0  0  0  0
   -0.2992    2.0181    1.9317 C   0  0  0  0  0  0  0  0  0  0  0  0
    2.5851   -0.4757   -1.0422 H   0  0  0  0  0  0  0  0  0  0  0  0
    3.6974   -0.2083    0.4611 H   0  0  0  0  0  0  0  0  0  0  0  0
    2.4441    1.6271    1.9039 H   0  0  0  0  0  0  0  0  0  0  0  0
    2.4506   -0.0397    2.5179 H   0  0  0  0  0  0  0  0  0  0  0  0
    0.7150    1.2089    3.6572 H   0  0  0  0  0  0  0  0  0  0  0  0
   -0.0287   -0.0066    2.6327 H   0  0  0  0  0  0  0  0  0  0  0  0
   -0.5056    1.7522    0.8949 H   0  0  0  0  0  0  0  0  0  0  0  0
   -1.2524    2.1635    2.4416 H   0  0  0  0  0  0  0  0  0  0  0  0
    0.2319    2.9729    1.9340 H   0  0  0  0  0  0  0  0  0  0  0  0
  1  2  1  0
  1  6  1  0
  1  7  1  0
  2  3  1  0
  3  4  1  0
  3  8  1  0
  3  9  1  0
  4  5  1  0
  4 10  1  0
  4 11  1  0
  5 12  1  0
  5 13  1  0
  5 14  1  0
M  RAD  1   1   2
M  END
>  <reaction>  (2) 
rmg_rxn_681

>  <mol_properties>  (2) 
{"0": {"label": "acceptor", "atom_type": "Cs"}}

>  <type>  (2) 
r2

$$$$

     RDKit          3D

 15 14  0  0  0  0  0  0  0  0999 V2000
   -1.2811   -0.4129    1.0228 C   0  0  0  0  0  0  0  0  0  0  0  0
   -1.0023   -0.5809   -0.4650 C   0  0  0  0  0  0  0  0  0  0  0  0
   -2.0576    0.0568   -1.3449 C   0  0  0  0  0  0  0  0  0  0  0  0
   -2.0663    1.4464   -1.1307 O   0  0  0  0  0  0  0  0  0  0  0  0
   -3.0424    2.1072   -1.8849 C   0  0  0  0  0  0  0  0  0  0  0  0
   -2.2382   -0.8657    1.2935 H   0  0  0  0  0  0  0  0  0  0  0  0
   -1.3219    0.6426    1.2914 H   0  0  0  0  0  0  0  0  0  0  0  0
   -0.5042   -0.8881    1.6236 H   0  0  0  0  0  0  0  0  0  0  0  0
   -0.0316   -0.1460   -0.7167 H   0  0  0  0  0  0  0  0  0  0  0  0
   -0.9494   -1.6429   -0.7203 H   0  0  0  0  0  0  0  0  0  0  0  0
   -1.8518   -0.1570   -2.4041 H   0  0  0  0  0  0  0  0  0  0  0  0
   -3.0491   -0.3636   -1.1124 H   0  0  0  0  0  0  0  0  0  0  0  0
   -4.0521    1.7545   -1.6343 H   0  0  0  0  0  0  0  0  0  0  0  0
   -2.8850    1.9634   -2.9626 H   0  0  0  0  0  0  0  0  0  0  0  0
   -2.9730    3.1700   -1.6570 H   0  0  0  0  0  0  0  0  0  0  0  0
  1  2  1  0
  1  6  1  0
  1  7  1  0
  1  8  1  0
  2  3  1  0
  2  9  1  0
  2 10  1  0
  3  4  1  0
  3 11  1  0
  3 12  1  0
  4  5  1  0
  5 13  1  0
  5 14  1  0
  5 15  1  0
M  END
>  <reaction>  (3) 
rmg_rxn_681

>  <mol_properties>  (3) 
{"0": {"label": "a_hydrogen", "atom_type": "H0"}, "1": {"label": "acceptor", "atom_type": "Cs"}}

>  <type>  (3) 
r2h

$$$$

     RDKit          3D

 23 21  0  0  0  0  0  0  0  0999 V2000
   -0.3302   -1.9437   -2.3284 C   0  0  0  0  0  0  0  0  0  0  0  0
    0.0501   -2.2138   -0.9128 C   0  0  0  0  0  0  0  0  0  0  0  0
    0.4438   -1.2669   -0.1652 N   0  0  0  0  0  0  0  0  0  0  0  0
    0.7626   -1.5912    1.0819 O   0  0  0  0  0  0  0  0  0  0  0  0
    0.2871   -2.5303   -3.0133 H   0  0  0  0  0  0  0  0  0  0  0  0
   -1.3704   -2.2252   -2.5117 H   0  0  0  0  0  0  0  0  0  0  0  0
   -0.2046   -0.8867   -2.5584 H   0  0  0  0  0  0  0  0  0  0  0  0
   -0.0099   -3.2313   -0.5249 H   0  0  0  0  0  0  0  0  0  0  0  0
    1.1289   -0.5037    1.5853 H   0  0  0  0  0  0  0  0  0  0  0  0
    1.3900    0.7068    1.9459 C   0  0  0  0  0  3  0  0  0  0  0  0
    0.7603    1.5478    1.0884 O   0  0  0  0  0  0  0  0  0  0  0  0
   -0.6472    1.6380    1.2723 C   0  0  0  0  0  0  0  0  0  0  0  0
   -1.2398    2.4627    0.1516 C   0  0  0  0  0  0  0  0  0  0  0  0
   -1.1146    1.7976   -1.2124 C   0  0  0  0  0  0  0  0  0  0  0  0
    2.4692    0.8068    1.8534 H   0  0  0  0  0  0  0  0  0  0  0  0
    1.0221    0.7442    2.9776 H   0  0  0  0  0  0  0  0  0  0  0  0
   -0.8447    2.1001    2.2473 H   0  0  0  0  0  0  0  0  0  0  0  0
   -1.0698    0.6275    1.2759 H   0  0  0  0  0  0  0  0  0  0  0  0
   -0.7537    3.4418    0.1439 H   0  0  0  0  0  0  0  0  0  0  0  0
   -2.2926    2.6360    0.3910 H   0  0  0  0  0  0  0  0  0  0  0  0
   -1.5440    2.4267   -1.9935 H   0  0  0  0  0  0  0  0  0  0  0  0
   -0.0695    1.6064   -1.4549 H   0  0  0  0  0  0  0  0  0  0  0  0
   -1.6332    0.8366   -1.2225 H   0  0  0  0  0  0  0  0  0  0  0  0
  1  2  1  0
  1  5  1  0
  1  6  1  0
  1  7  1  0
  2  3  2  3
  2  8  1  0
  3  4  1  0
  4  9  1  0
 10 11  1  0
 10 15  1  0
 10 16  1  0
 11 12  1  0
 12 13  1  0
 12 17  1  0
 12 18  1  0
 13 14  1  0
 13 19  1  0
 13 20  1  0
 14 21  1  0
 14 22  1  0
 14 23  1  0
M  RAD  1  10   2
M  END
>  <reaction>  (4) 
rmg_rxn_681

>  <mol_properties>  (4) 
{"2": {"label": "*0", "atom_type": "N3d"}, "3": {"label": "*1", "atom_type": "O2s"}, "8": {"label": "*2", "atom_type": "H0"}, "9": {"label": "*3", "atom_type": "Cs"}, "10": {"label": "*4", "atom_type": "O2s"}}

>  <type>  (4) 
ts

$$$$

     RDKit          3D

 23 21  0  0  0  0  0  0  0  0999 V2000
    0.7721   -2.1718   -4.2227 C   0  0  0  0  0  0  0  0  0  0  0  0
    0.7721   -2.1718   -2.7341 C   0  0  0  0  0  0  0  0  0  0  0  0
    0.7721   -1.0797   -2.0973 N   0  0  0  0  0  0  0  0  0  0  0  0
    0.7721   -1.2844   -0.7241 O   0  0  0  0  0  0  0  0  0  0  0  0
    1.6515   -2.6956   -4.6045 H   0  0  0  0  0  0  0  0  0  0  0  0
   -0.1073   -2.6956   -4.6045 H   0  0  0  0  0  0  0  0  0  0  0  0
    0.7721   -1.1521   -4.6042 H   0  0  0  0  0  0  0  0  0  0  0  0
    0.7721   -3.1193   -2.1939 H   0  0  0  0  0  0  0  0  0  0  0  0
    0.7721   -0.2147   -0.3007 H   0  0  0  0  0  0  0  0  0  0  0  0
    0.7721    1.0006    0.1803 C   0  0  0  0  0  3  0  0  0  0  0  0
   -0.3825    1.1503    0.9565 O   0  0  0  0  0  0  0  0  0  0  0  0
   -0.1652    1.9112    2.1188 C   0  0  0  0  0  0  0  0  0  0  0  0
   -1.4512    1.9904    2.9155 C   0  0  0  0  0  0  0  0  0  0  0  0
   -1.9306    0.6342    3.4157 C   0  0  0  0  0  0  0  0  0  0  0  0
    1.1604    1.9716   -0.1562 H   0  0  0  0  0  0  0  0  0  0  0  0
    1.5674    0.4860    0.7365 H   0  0  0  0  0  0  0  0  0  0  0  0
    0.1780    2.9202    1.8464 H   0  0  0  0  0  0  0  0  0  0  0  0
    0.6286    1.4478    2.7260 H   0  0  0  0  0  0  0  0  0  0  0  0
   -2.2190    2.4528    2.2899 H   0  0  0  0  0  0  0  0  0  0  0  0
   -1.2820    2.6645    3.7597 H   0  0  0  0  0  0  0  0  0  0  0  0
   -2.8544    0.7314    3.9880 H   0  0  0  0  0  0  0  0  0  0  0  0
   -2.1162   -0.0419    2.5812 H   0  0  0  0  0  0  0  0  0  0  0  0
   -1.1822    0.1709    4.0635 H   0  0  0  0  0  0  0  0  0  0  0  0
  1  2  1  0
  1  5  1  0
  1  6  1  0
  1  7  1  0
  2  3  2  3
  2  8  1  0
  3  4  1  0
  4  9  1  0
 10 11  1  0
 10 15  1  0
 10 16  1  0
 11 12  1  0
 12 13  1  0
 12 17  1  0
 12 18  1  0
 13 14  1  0
 13 19  1  0
 13 20  1  0
 14 21  1  0
 14 22  1  0
 14 23  1  0
M  RAD  1  10   2
M  END
>  <reaction>  (5) 
rmg_rxn_681

>  <mol_properties>  (5) 
{"2": {"label": "*0", "atom_type": "N3d"}, "3": {"label": "*1", "atom_type": "O2s"}, "8": {"label": "*2", "atom_type": "H0"}, "9": {"label": "*3", "atom_type": "Cs"}, "10": {"label": "*4", "atom_type": "O2s"}}

>  <type>  (5) 
unop_1

>  <geom_source>  (5) 
Heuristics

$$$$

     RDKit          3D

 23 21  0  0  0  0  0  0  0  0999 V2000
    0.7451   -2.8578   -2.7572 C   0  0  0  0  0  0  0  0  0  0  0  0
    0.7451   -2.8578   -1.2685 C   0  0  0  0  0  0  0  0  0  0  0  0
    0.7451   -1.7658   -0.6317 N   0  0  0  0  0  0  0  0  0  0  0  0
    0.7451   -1.9704    0.7415 O   0  0  0  0  0  0  0  0  0  0  0  0
    1.6245   -3.3817   -3.1390 H   0  0  0  0  0  0  0  0  0  0  0  0
   -0.1343   -3.3817   -3.1390 H   0  0  0  0  0  0  0  0  0  0  0  0
    0.7451   -1.8381   -3.1386 H   0  0  0  0  0  0  0  0  0  0  0  0
    0.7451   -3.8053   -0.7284 H   0  0  0  0  0  0  0  0  0  0  0  0
    0.7451   -0.9008    1.1648 H   0  0  0  0  0  0  0  0  0  0  0  0
    0.7451    0.3146    1.6458 C   0  0  0  0  0  3  0  0  0  0  0  0
    0.0785    1.1345    0.7286 O   0  0  0  0  0  0  0  0  0  0  0  0
   -0.3460    2.3514    1.2907 C   0  0  0  0  0  0  0  0  0  0  0  0
   -1.0882    3.1567    0.2442 C   0  0  0  0  0  0  0  0  0  0  0  0
   -2.3637    2.4797   -0.2397 C   0  0  0  0  0  0  0  0  0  0  0  0
    1.6470    0.8017    2.0409 H   0  0  0  0  0  0  0  0  0  0  0  0
    0.0982    0.0491    2.4930 H   0  0  0  0  0  0  0  0  0  0  0  0
    0.5228    2.9154    1.6613 H   0  0  0  0  0  0  0  0  0  0  0  0
   -1.0021    2.1559    2.1538 H   0  0  0  0  0  0  0  0  0  0  0  0
   -0.4149    3.3353   -0.5982 H   0  0  0  0  0  0  0  0  0  0  0  0
   -1.3216    4.1340    0.6758 H   0  0  0  0  0  0  0  0  0  0  0  0
   -2.8724    3.0899   -0.9874 H   0  0  0  0  0  0  0  0  0  0  0  0
   -2.1413    1.5100   -0.6851 H   0  0  0  0  0  0  0  0  0  0  0  0
   -3.0573    2.3175    0.5891 H   0  0  0  0  0  0  0  0  0  0  0  0
  1  2  1  0
  1  5  1  0
  1  6  1  0
  1  7  1  0
  2  3  2  3
  2  8  1  0
  3  4  1  0
  4  9  1  0
 10 11  1  0
 10 15  1  0
 10 16  1  0
 11 12  1  0
 12 13  1  0
 12 17  1  0
 12 18  1  0
 13 14  1  0
 13 19  1  0
 13 20  1  0
 14 21  1  0
 14 22  1  0
 14 23  1  0
M  RAD  1  10   2
M  END
>  <reaction>  (6) 
rmg_rxn_681

>  <mol_properties>  (6) 
{"2": {"label": "*0", "atom_type": "N3d"}, "3": {"label": "*1", "atom_type": "O2s"}, "8": {"label": "*2", "atom_type": "H0"}, "9": {"label": "*3", "atom_type": "Cs"}, "10": {"label": "*4", "atom_type": "O2s"}}

>  <type>  (6) 
unop_2

>  <geom_source>  (6) 
Heuristics

$$$$

     RDKit          3D

 23 21  0  0  0  0  0  0  0  0999 V2000
    0.2798   -2.1395   -4.4658 C   0  0  0  0  0  0  0  0  0  0  0  0
    0.2798   -2.1395   -2.9771 C   0  0  0  0  0  0  0  0  0  0  0  0
    0.2798   -1.0474   -2.3403 N   0  0  0  0  0  0  0  0  0  0  0  0
    0.2798   -1.2521   -0.9671 O   0  0  0  0  0  0  0  0  0  0  0  0
    1.1592   -2.6633   -4.8476 H   0  0  0  0  0  0  0  0  0  0  0  0
   -0.5996   -2.6633   -4.8476 H   0  0  0  0  0  0  0  0  0  0  0  0
    0.2798   -1.1198   -4.8472 H   0  0  0  0  0  0  0  0  0  0  0  0
    0.2798   -3.0870   -2.4370 H   0  0  0  0  0  0  0  0  0  0  0  0
    0.2798   -0.1824   -0.5437 H   0  0  0  0  0  0  0  0  0  0  0  0
    0.2798    1.0329   -0.0627 C   0  0  0  0  0  3  0  0  0  0  0  0
   -0.3868    1.0030    1.1672 O   0  0  0  0  0  0  0  0  0  0  0  0
    0.0348    2.0194    2.0426 C   0  0  0  0  0  0  0  0  0  0  0  0
   -0.7065    1.8901    3.3572 C   0  0  0  0  0  0  0  0  0  0  0  0
   -0.4057    0.5891    4.0894 C   0  0  0  0  0  0  0  0  0  0  0  0
    0.1111    1.9819   -0.5898 H   0  0  0  0  0  0  0  0  0  0  0  0
    1.3625    0.8965    0.0626 H   0  0  0  0  0  0  0  0  0  0  0  0
   -0.1563    3.0044    1.5916 H   0  0  0  0  0  0  0  0  0  0  0  0
    1.1208    1.9412    2.2108 H   0  0  0  0  0  0  0  0  0  0  0  0
   -1.7786    1.9711    3.1604 H   0  0  0  0  0  0  0  0  0  0  0  0
   -0.4336    2.7452    3.9819 H   0  0  0  0  0  0  0  0  0  0  0  0
   -0.9524    0.5338    5.0319 H   0  0  0  0  0  0  0  0  0  0  0  0
   -0.6871   -0.2706    3.4812 H   0  0  0  0  0  0  0  0  0  0  0  0
    0.6604    0.5064    4.3150 H   0  0  0  0  0  0  0  0  0  0  0  0
  1  2  1  0
  1  5  1  0
  1  6  1  0
  1  7  1  0
  2  3  2  3
  2  8  1  0
  3  4  1  0
  4  9  1  0
 10 11  1  0
 10 15  1  0
 10 16  1  0
 11 12  1  0
 12 13  1  0
 12 17  1  0
 12 18  1  0
 13 14  1  0
 13 19  1  0
 13 20  1  0
 14 21  1  0
 14 22  1  0
 14 23  1  0
M  RAD  1  10   2
M  END
>  <reaction>  (7) 
rmg_rxn_681

>  <mol_properties>  (7) 
{"2": {"label": "*0", "atom_type": "N3d"}, "3": {"label": "*1", "atom_type": "O2s"}, "8": {"label": "*2", "atom_type": "H0"}, "9": {"label": "*3", "atom_type": "Cs"}, "10": {"label": "*4", "atom_type": "O2s"}}

>  <type>  (7) 
unop_3

>  <geom_source>  (7) 
Heuristics

$$$$

     RDKit          3D

 23 21  0  0  0  0  0  0  0  0999 V2000
   -0.9125   -2.8241   -3.0857 C   0  0  0  0  0  0  0  0  0  0  0  0
   -0.9125   -2.8241   -1.5971 C   0  0  0  0  0  0  0  0  0  0  0  0
   -0.9125   -1.7321   -0.9603 N   0  0  0  0  0  0  0  0  0  0  0  0
   -0.9125   -1.9367    0.4129 O   0  0  0  0  0  0  0  0  0  0  0  0
   -0.0331   -3.3480   -3.4675 H   0  0  0  0  0  0  0  0  0  0  0  0
   -1.7919   -3.3480   -3.4675 H   0  0  0  0  0  0  0  0  0  0  0  0
   -0.9125   -1.8044   -3.4672 H   0  0  0  0  0  0  0  0  0  0  0  0
   -0.9125   -3.7716   -1.0569 H   0  0  0  0  0  0  0  0  0  0  0  0
   -0.9125   -0.8671    0.8363 H   0  0  0  0  0  0  0  0  0  0  0  0
   -0.9125    0.3483    1.3173 C   0  0  0  0  0  3  0  0  0  0  0  0
    0.2421    0.9886    0.8538 O   0  0  0  0  0  0  0  0  0  0  0  0
    0.7466    1.9333    1.7648 C   0  0  0  0  0  0  0  0  0  0  0  0
    1.9681    2.6031    1.1698 C   0  0  0  0  0  0  0  0  0  0  0  0
    1.6606    3.3976   -0.0925 C   0  0  0  0  0  0  0  0  0  0  0  0
   -0.7235   -0.1969    2.2522 H   0  0  0  0  0  0  0  0  0  0  0  0
   -1.7264    1.0643    1.4949 H   0  0  0  0  0  0  0  0  0  0  0  0
    1.0061    1.4378    2.7121 H   0  0  0  0  0  0  0  0  0  0  0  0
   -0.0261    2.6857    1.9896 H   0  0  0  0  0  0  0  0  0  0  0  0
    2.7160    1.8348    0.9573 H   0  0  0  0  0  0  0  0  0  0  0  0
    2.3960    3.2594    1.9326 H   0  0  0  0  0  0  0  0  0  0  0  0
    2.5614    3.8685   -0.4888 H   0  0  0  0  0  0  0  0  0  0  0  0
    1.2464    2.7501   -0.8653 H   0  0  0  0  0  0  0  0  0  0  0  0
    0.9320    4.1862    0.1111 H   0  0  0  0  0  0  0  0  0  0  0  0
  1  2  1  0
  1  5  1  0
  1  6  1  0
  1  7  1  0
  2  3  2  3
  2  8  1  0
  3  4  1  0
  4  9  1  0
 10 11  1  0
 10 15  1  0
 10 16  1  0
 11 12  1  0
 12 13  1  0
 12 17  1  0
 12 18  1  0
 13 14  1  0
 13 19  1  0
 13 20  1  0
 14 21  1  0
 14 22  1  0
 14 23  1  0
M  RAD  1  10   2
M  END
>  <reaction>  (8) 
rmg_rxn_681

>  <mol_properties>  (8) 
{"2": {"label": "*0", "atom_type": "N3d"}, "3": {"label": "*1", "atom_type": "O2s"}, "8": {"label": "*2", "atom_type": "H0"}, "9": {"label": "*3", "atom_type": "Cs"}, "10": {"label": "*4", "atom_type": "O2s"}}

>  <type>  (8) 
unop_4

>  <geom_source>  (8) 
Heuristics

$$$$

     RDKit          3D

 23 21  0  0  0  0  0  0  0  0999 V2000
   -0.1523   -2.2469   -4.4701 C   0  0  0  0  0  0  0  0  0  0  0  0
   -0.1523   -2.2469   -2.9814 C   0  0  0  0  0  0  0  0  0  0  0  0
   -0.1523   -1.1548   -2.3446 N   0  0  0  0  0  0  0  0  0  0  0  0
   -0.1523   -1.3595   -0.9714 O   0  0  0  0  0  0  0  0  0  0  0  0
    0.7271   -2.7707   -4.8519 H   0  0  0  0  0  0  0  0  0  0  0  0
   -1.0317   -2.7707   -4.8519 H   0  0  0  0  0  0  0  0  0  0  0  0
   -0.1523   -1.2272   -4.8515 H   0  0  0  0  0  0  0  0  0  0  0  0
   -0.1523   -3.1944   -2.4413 H   0  0  0  0  0  0  0  0  0  0  0  0
   -0.1523   -0.2898   -0.5481 H   0  0  0  0  0  0  0  0  0  0  0  0
   -0.1523    0.9255   -0.0671 C   0  0  0  0  0  3  0  0  0  0  0  0
   -0.1523    0.8299    1.3290 O   0  0  0  0  0  0  0  0  0  0  0  0
   -0.1550    2.0848    1.9631 C   0  0  0  0  0  0  0  0  0  0  0  0
   -0.1159    1.8895    3.4647 C   0  0  0  0  0  0  0  0  0  0  0  0
    1.1569    1.2066    3.9472 C   0  0  0  0  0  0  0  0  0  0  0  0
   -1.0425    1.4537   -0.4350 H   0  0  0  0  0  0  0  0  0  0  0  0
    0.7379    1.4539   -0.4345 H   0  0  0  0  0  0  0  0  0  0  0  0
   -1.0551    2.6477    1.6745 H   0  0  0  0  0  0  0  0  0  0  0  0
    0.7177    2.6716    1.6346 H   0  0  0  0  0  0  0  0  0  0  0  0
   -0.9910    1.3057    3.7615 H   0  0  0  0  0  0  0  0  0  0  0  0
   -0.2167    2.8721    3.9338 H   0  0  0  0  0  0  0  0  0  0  0  0
    1.1514    1.0876    5.0317 H   0  0  0  0  0  0  0  0  0  0  0  0
    1.2605    0.2195    3.4966 H   0  0  0  0  0  0  0  0  0  0  0  0
    2.0394    1.7927    3.6788 H   0  0  0  0  0  0  0  0  0  0  0  0
  1  2  1  0
  1  5  1  0
  1  6  1  0
  1  7  1  0
  2  3  2  3
  2  8  1  0
  3  4  1  0
  4  9  1  0
 10 11  1  0
 10 15  1  0
 10 16  1  0
 11 12  1  0
 12 13  1  0
 12 17  1  0
 12 18  1  0
 13 14  1  0
 13 19  1  0
 13 20  1  0
 14 21  1  0
 14 22  1  0
 14 23  1  0
M  RAD  1  10   2
M  END
>  <reaction>  (9) 
rmg_rxn_681

>  <mol_properties>  (9) 
{"2": {"label": "*0", "atom_type": "N3d"}, "3": {"label": "*1", "atom_type": "O2s"}, "8": {"label": "*2", "atom_type": "H0"}, "9": {"label": "*3", "atom_type": "Cs"}, "10": {"label": "*4", "atom_type": "O2s"}}

>  <type>  (9) 
unop_5

>  <geom_source>  (9) 
Heuristics

$$$$

     RDKit          3D

 23 21  0  0  0  0  0  0  0  0999 V2000
   -1.0266   -2.6087   -3.6067 C   0  0  0  0  0  0  0  0  0  0  0  0
   -1.0266   -2.6087   -2.1180 C   0  0  0  0  0  0  0  0  0  0  0  0
   -1.0266   -1.5166   -1.4812 N   0  0  0  0  0  0  0  0  0  0  0  0
   -1.0266   -1.7213   -0.1080 O   0  0  0  0  0  0  0  0  0  0  0  0
   -0.1472   -3.1325   -3.9885 H   0  0  0  0  0  0  0  0  0  0  0  0
   -1.9060   -3.1325   -3.9885 H   0  0  0  0  0  0  0  0  0  0  0  0
   -1.0266   -1.5890   -3.9881 H   0  0  0  0  0  0  0  0  0  0  0  0
   -1.0266   -3.5562   -1.5779 H   0  0  0  0  0  0  0  0  0  0  0  0
   -1.0266   -0.6516    0.3153 H   0  0  0  0  0  0  0  0  0  0  0  0
   -1.0266    0.5637    0.7963 C   0  0  0  0  0  3  0  0  0  0  0  0
    0.3067    0.9587    0.9527 O   0  0  0  0  0  0  0  0  0  0  0  0
    0.5216    1.7072    2.1234 C   0  0  0  0  0  0  0  0  0  0  0  0
    1.9761    2.1243    2.1936 C   0  0  0  0  0  0  0  0  0  0  0  0
    2.3908    3.0461    1.0545 C   0  0  0  0  0  0  0  0  0  0  0  0
   -1.3603   -0.0683    1.6306 H   0  0  0  0  0  0  0  0  0  0  0  0
   -1.6983    1.4304    0.7309 H   0  0  0  0  0  0  0  0  0  0  0  0
    0.2535    1.1069    3.0055 H   0  0  0  0  0  0  0  0  0  0  0  0
   -0.1280    2.5970    2.1229 H   0  0  0  0  0  0  0  0  0  0  0  0
    2.5957    1.2238    2.1925 H   0  0  0  0  0  0  0  0  0  0  0  0
    2.1375    2.6187    3.1555 H   0  0  0  0  0  0  0  0  0  0  0  0
    3.4410    3.3287    1.1409 H   0  0  0  0  0  0  0  0  0  0  0  0
    2.2474    2.5579    0.0906 H   0  0  0  0  0  0  0  0  0  0  0  0
    1.7956    3.9627    1.0586 H   0  0  0  0  0  0  0  0  0  0  0  0
  1  2  1  0
  1  5  1  0
  1  6  1  0
  1  7  1  0
  2  3  2  3
  2  8  1  0
  3  4  1  0
  4  9  1  0
 10 11  1  0
 10 15  1  0
 10 16  1  0
 11 12  1  0
 12 13  1  0
 12 17  1  0
 12 18  1  0
 13 14  1  0
 13 19  1  0
 13 20  1  0
 14 21  1  0
 14 22  1  0
 14 23  1  0
M  RAD  1  10   2
M  END
>  <reaction>  (10) 
rmg_rxn_681

>  <mol_properties>  (10) 
{"2": {"label": "*0", "atom_type": "N3d"}, "3": {"label": "*1", "atom_type": "O2s"}, "8": {"label": "*2", "atom_type": "H0"}, "9": {"label": "*3", "atom_type": "Cs"}, "10": {"label": "*4", "atom_type": "O2s"}}

>  <type>  (10) 
unop_6

>  <geom_source>  (10) 
Heuristics

$$$$

     RDKit          3D

 23 21  0  0  0  0  0  0  0  0999 V2000
   -0.8418   -2.4260   -4.0701 C   0  0  0  0  0  0  0  0  0  0  0  0
   -0.8418   -2.4260   -2.5814 C   0  0  0  0  0  0  0  0  0  0  0  0
   -0.8418   -1.3339   -1.9446 N   0  0  0  0  0  0  0  0  0  0  0  0
   -0.8418   -1.5386   -0.5714 O   0  0  0  0  0  0  0  0  0  0  0  0
    0.0376   -2.9498   -4.4519 H   0  0  0  0  0  0  0  0  0  0  0  0
   -1.7212   -2.9498   -4.4519 H   0  0  0  0  0  0  0  0  0  0  0  0
   -0.8418   -1.4063   -4.4515 H   0  0  0  0  0  0  0  0  0  0  0  0
   -0.8418   -3.3735   -2.0413 H   0  0  0  0  0  0  0  0  0  0  0  0
   -0.8418   -0.4689   -0.1481 H   0  0  0  0  0  0  0  0  0  0  0  0
   -0.8418    0.7464    0.3329 C   0  0  0  0  0  3  0  0  0  0  0  0
    0.3128    0.8961    1.1091 O   0  0  0  0  0  0  0  0  0  0  0  0
    0.0943    1.6524    2.2742 C   0  0  0  0  0  0  0  0  0  0  0  0
    1.3981    1.7969    3.0317 C   0  0  0  0  0  0  0  0  0  0  0  0
    2.4599    2.5652    2.2560 C   0  0  0  0  0  0  0  0  0  0  0  0
   -1.6373    0.2316    0.8888 H   0  0  0  0  0  0  0  0  0  0  0  0
   -1.2298    1.7176   -0.0032 H   0  0  0  0  0  0  0  0  0  0  0  0
   -0.6607    1.1592    2.9041 H   0  0  0  0  0  0  0  0  0  0  0  0
   -0.3003    2.6456    2.0066 H   0  0  0  0  0  0  0  0  0  0  0  0
    1.7656    0.7987    3.2833 H   0  0  0  0  0  0  0  0  0  0  0  0
    1.1829    2.3029    3.9769 H   0  0  0  0  0  0  0  0  0  0  0  0
    3.3811    2.6531    2.8338 H   0  0  0  0  0  0  0  0  0  0  0  0
    2.6928    2.0620    1.3177 H   0  0  0  0  0  0  0  0  0  0  0  0
    2.1152    3.5749    2.0191 H   0  0  0  0  0  0  0  0  0  0  0  0
  1  2  1  0
  1  5  1  0
  1  6  1  0
  1  7  1  0
  2  3  2  3
  2  8  1  0
  3  4  1  0
  4  9  1  0
 10 11  1  0
 10 15  1  0
 10 16  1  0
 11 12  1  0
 12 13  1  0
 12 17  1  0
 12 18  1  0
 13 14  1  0
 13 19  1  0
 13 20  1  0
 14 21  1  0
 14 22  1  0
 14 23  1  0
M  RAD  1  10   2
M  END
>  <reaction>  (11) 
rmg_rxn_681

>  <mol_properties>  (11) 
{"2": {"label": "*0", "atom_type": "N3d"}, "3": {"label": "*1", "atom_type": "O2s"}, "8": {"label": "*2", "atom_type": "H0"}, "9": {"label": "*3", "atom_type": "Cs"}, "10": {"label": "*4", "atom_type": "O2s"}}

>  <type>  (11) 
unop_7

>  <geom_source>  (11) 
Heuristics

$$$$

     RDKit          3D

 23 21  0  0  0  0  0  0  0  0999 V2000
    1.0845   -2.3524   -3.7607 C   0  0  0  0  0  0  0  0  0  0  0  0
    1.0845   -2.3524   -2.2720 C   0  0  0  0  0  0  0  0  0  0  0  0
    1.0845   -1.2603   -1.6352 N   0  0  0  0  0  0  0  0  0  0  0  0
    1.0845   -1.4650   -0.2620 O   0  0  0  0  0  0  0  0  0  0  0  0
    1.9639   -2.8762   -4.1425 H   0  0  0  0  0  0  0  0  0  0  0  0
    0.2050   -2.8762   -4.1425 H   0  0  0  0  0  0  0  0  0  0  0  0
    1.0845   -1.3327   -4.1421 H   0  0  0  0  0  0  0  0  0  0  0  0
    1.0845   -3.2999   -1.7319 H   0  0  0  0  0  0  0  0  0  0  0  0
    1.0845   -0.3953    0.1614 H   0  0  0  0  0  0  0  0  0  0  0  0
    1.0845    0.8200    0.6424 C   0  0  0  0  0  3  0  0  0  0  0  0
   -0.2488    1.2151    0.7987 O   0  0  0  0  0  0  0  0  0  0  0  0
   -0.4627    1.9681    1.9667 C   0  0  0  0  0  0  0  0  0  0  0  0
   -1.9321    2.3194    2.0764 C   0  0  0  0  0  0  0  0  0  0  0  0
   -2.8306    1.0987    2.2241 C   0  0  0  0  0  0  0  0  0  0  0  0
    1.7566    1.6865    0.5767 H   0  0  0  0  0  0  0  0  0  0  0  0
    1.4178    0.1883    1.4769 H   0  0  0  0  0  0  0  0  0  0  0  0
    0.1477    2.8829    1.9388 H   0  0  0  0  0  0  0  0  0  0  0  0
   -0.1448    1.3890    2.8484 H   0  0  0  0  0  0  0  0  0  0  0  0
   -2.2189    2.8920    1.1906 H   0  0  0  0  0  0  0  0  0  0  0  0
   -2.0551    2.9834    2.9365 H   0  0  0  0  0  0  0  0  0  0  0  0
   -3.8787    1.3906    2.3049 H   0  0  0  0  0  0  0  0  0  0  0  0
   -2.7266    0.4361    1.3649 H   0  0  0  0  0  0  0  0  0  0  0  0
   -2.5710    0.5298    3.1204 H   0  0  0  0  0  0  0  0  0  0  0  0
  1  2  1  0
  1  5  1  0
  1  6  1  0
  1  7  1  0
  2  3  2  3
  2  8  1  0
  3  4  1  0
  4  9  1  0
 10 11  1  0
 10 15  1  0
 10 16  1  0
 11 12  1  0
 12 13  1  0
 12 17  1  0
 12 18  1  0
 13 14  1  0
 13 19  1  0
 13 20  1  0
 14 21  1  0
 14 22  1  0
 14 23  1  0
M  RAD  1  10   2
M  END
>  <reaction>  (12) 
rmg_rxn_681

>  <mol_properties>  (12) 
{"2": {"label": "*0", "atom_type": "N3d"}, "3": {"label": "*1", "atom_type": "O2s"}, "8": {"label": "*2", "atom_type": "H0"}, "9": {"label": "*3", "atom_type": "Cs"}, "10": {"label": "*4", "atom_type": "O2s"}}

>  <type>  (12) 
unop_8

>  <geom_source>  (12) 
Heuristics

$$$$

     RDKit          3D

 23 21  0  0  0  0  0  0  0  0999 V2000
   -0.4802   -2.9867   -2.6798 C   0  0  0  0  0  0  0  0  0  0  0  0
   -0.4802   -2.9867   -1.1912 C   0  0  0  0  0  0  0  0  0  0  0  0
   -0.4802   -1.8946   -0.5544 N   0  0  0  0  0  0  0  0  0  0  0  0
   -0.4802   -2.0993    0.8188 O   0  0  0  0  0  0  0  0  0  0  0  0
    0.3992   -3.5105   -3.0616 H   0  0  0  0  0  0  0  0  0  0  0  0
   -1.3596   -3.5105   -3.0616 H   0  0  0  0  0  0  0  0  0  0  0  0
   -0.4802   -1.9670   -3.0612 H   0  0  0  0  0  0  0  0  0  0  0  0
   -0.4802   -3.9342   -0.6510 H   0  0  0  0  0  0  0  0  0  0  0  0
   -0.4802   -1.0296    1.2422 H   0  0  0  0  0  0  0  0  0  0  0  0
   -0.4802    0.1857    1.7232 C   0  0  0  0  0  3  0  0  0  0  0  0
    0.1865    1.0057    0.8059 O   0  0  0  0  0  0  0  0  0  0  0  0
    0.6157    2.2203    1.3694 C   0  0  0  0  0  0  0  0  0  0  0  0
    1.2899    3.0587    0.3030 C   0  0  0  0  0  0  0  0  0  0  0  0
    0.3511    3.4584   -0.8275 C   0  0  0  0  0  0  0  0  0  0  0  0
    0.1665   -0.0802    2.5705 H   0  0  0  0  0  0  0  0  0  0  0  0
   -1.3818    0.6733    2.1181 H   0  0  0  0  0  0  0  0  0  0  0  0
    1.3127    2.0228    2.1973 H   0  0  0  0  0  0  0  0  0  0  0  0
   -0.2463    2.7630    1.7892 H   0  0  0  0  0  0  0  0  0  0  0  0
    2.1390    2.4969   -0.0947 H   0  0  0  0  0  0  0  0  0  0  0  0
    1.6985    3.9507    0.7859 H   0  0  0  0  0  0  0  0  0  0  0  0
    0.8695    4.0639   -1.5723 H   0  0  0  0  0  0  0  0  0  0  0  0
   -0.0515    2.5764   -1.3255 H   0  0  0  0  0  0  0  0  0  0  0  0
   -0.4904    4.0428   -0.4471 H   0  0  0  0  0  0  0  0  0  0  0  0
  1  2  1  0
  1  5  1  0
  1  6  1  0
  1  7  1  0
  2  3  2  3
  2  8  1  0
  3  4  1  0
  4  9  1  0
 10 11  1  0
 10 15  1  0
 10 16  1  0
 11 12  1  0
 12 13  1  0
 12 17  1  0
 12 18  1  0
 13 14  1  0
 13 19  1  0
 13 20  1  0
 14 21  1  0
 14 22  1  0
 14 23  1  0
M  RAD  1  10   2
M  END
>  <reaction>  (13) 
rmg_rxn_681

>  <mol_properties>  (13) 
{"2": {"label": "*0", "atom_type": "N3d"}, "3": {"label": "*1", "atom_type": "O2s"}, "8": {"label": "*2", "atom_type": "H0"}, "9": {"label": "*3", "atom_type": "Cs"}, "10": {"label": "*4", "atom_type": "O2s"}}

>  <type>  (13) 
unop_9

>  <geom_source>  (13) 
Heuristics

$$$$

     RDKit          3D

 23 21  0  0  0  0  0  0  0  0999 V2000
    1.0842   -2.6084   -3.2153 C   0  0  0  0  0  0  0  0  0  0  0  0
    1.0842   -2.6084   -1.7266 C   0  0  0  0  0  0  0  0  0  0  0  0
    1.0842   -1.5164   -1.0898 N   0  0  0  0  0  0  0  0  0  0  0  0
    1.0842   -1.7210    0.2834 O   0  0  0  0  0  0  0  0  0  0  0  0
    1.9636   -3.1323   -3.5971 H   0  0  0  0  0  0  0  0  0  0  0  0
    0.2047   -3.1323   -3.5971 H   0  0  0  0  0  0  0  0  0  0  0  0
    1.0842   -1.5887   -3.5967 H   0  0  0  0  0  0  0  0  0  0  0  0
    1.0842   -3.5559   -1.1865 H   0  0  0  0  0  0  0  0  0  0  0  0
    1.0842   -0.6514    0.7067 H   0  0  0  0  0  0  0  0  0  0  0  0
    1.0842    0.5640    1.1877 C   0  0  0  0  0  3  0  0  0  0  0  0
   -0.0705    1.2043    0.7242 O   0  0  0  0  0  0  0  0  0  0  0  0
   -0.5719    2.1529    1.6329 C   0  0  0  0  0  0  0  0  0  0  0  0
   -1.8374    2.7673    1.0712 C   0  0  0  0  0  0  0  0  0  0  0  0
   -2.9645    1.7589    0.8916 C   0  0  0  0  0  0  0  0  0  0  0  0
    1.8984    1.2797    1.3653 H   0  0  0  0  0  0  0  0  0  0  0  0
    0.8948    0.0192    2.1226 H   0  0  0  0  0  0  0  0  0  0  0  0
    0.1829    2.9322    1.8145 H   0  0  0  0  0  0  0  0  0  0  0  0
   -0.7827    1.6692    2.6001 H   0  0  0  0  0  0  0  0  0  0  0  0
   -1.5991    3.2386    0.1142 H   0  0  0  0  0  0  0  0  0  0  0  0
   -2.1518    3.5663    1.7483 H   0  0  0  0  0  0  0  0  0  0  0  0
   -3.8590    2.2377    0.4906 H   0  0  0  0  0  0  0  0  0  0  0  0
   -2.6670    0.9647    0.2069 H   0  0  0  0  0  0  0  0  0  0  0  0
   -3.2304    1.2976    1.8460 H   0  0  0  0  0  0  0  0  0  0  0  0
  1  2  1  0
  1  5  1  0
  1  6  1  0
  1  7  1  0
  2  3  2  3
  2  8  1  0
  3  4  1  0
  4  9  1  0
 10 11  1  0
 10 15  1  0
 10 16  1  0
 11 12  1  0
 12 13  1  0
 12 17  1  0
 12 18  1  0
 13 14  1  0
 13 19  1  0
 13 20  1  0
 14 21  1  0
 14 22  1  0
 14 23  1  0
M  RAD  1  10   2
M  END
>  <reaction>  (14) 
rmg_rxn_681

>  <mol_properties>  (14) 
{"2": {"label": "*0", "atom_type": "N3d"}, "3": {"label": "*1", "atom_type": "O2s"}, "8": {"label": "*2", "atom_type": "H0"}, "9": {"label": "*3", "atom_type": "Cs"}, "10": {"label": "*4", "atom_type": "O2s"}}

>  <type>  (14) 
unop_10

>  <geom_source>  (14) 
Heuristics

$$$$

     RDKit          3D

 23 21  0  0  0  0  0  0  0  0999 V2000
   -0.4939   -2.3252   -4.3542 C   0  0  0  0  0  0  0  0  0  0  0  0
   -0.4939   -2.3252   -2.8656 C   0  0  0  0  0  0  0  0  0  0  0  0
   -0.4939   -1.2331   -2.2288 N   0  0  0  0  0  0  0  0  0  0  0  0
   -0.4939   -1.4378   -0.8556 O   0  0  0  0  0  0  0  0  0  0  0  0
    0.3855   -2.8490   -4.7360 H   0  0  0  0  0  0  0  0  0  0  0  0
   -1.3733   -2.8490   -4.7360 H   0  0  0  0  0  0  0  0  0  0  0  0
   -0.4939   -1.3055   -4.7357 H   0  0  0  0  0  0  0  0  0  0  0  0
   -0.4939   -3.2727   -2.3254 H   0  0  0  0  0  0  0  0  0  0  0  0
   -0.4939   -0.3681   -0.4322 H   0  0  0  0  0  0  0  0  0  0  0  0
   -0.4939    0.8472    0.0488 C   0  0  0  0  0  3  0  0  0  0  0  0
    0.1727    0.8173    1.2787 O   0  0  0  0  0  0  0  0  0  0  0  0
   -0.2528    1.8303    2.1561 C   0  0  0  0  0  0  0  0  0  0  0  0
    0.5435    1.7487    3.4421 C   0  0  0  0  0  0  0  0  0  0  0  0
    2.0322    1.9998    3.2421 C   0  0  0  0  0  0  0  0  0  0  0  0
   -1.5768    0.7107    0.1737 H   0  0  0  0  0  0  0  0  0  0  0  0
   -0.3251    1.7963   -0.4778 H   0  0  0  0  0  0  0  0  0  0  0  0
   -1.3271    1.7178    2.3643 H   0  0  0  0  0  0  0  0  0  0  0  0
   -0.1118    2.8163    1.6853 H   0  0  0  0  0  0  0  0  0  0  0  0
    0.3853    0.7626    3.8862 H   0  0  0  0  0  0  0  0  0  0  0  0
    0.1290    2.4809    4.1406 H   0  0  0  0  0  0  0  0  0  0  0  0
    2.5712    1.9379    4.1886 H   0  0  0  0  0  0  0  0  0  0  0  0
    2.4593    1.2665    2.5581 H   0  0  0  0  0  0  0  0  0  0  0  0
    2.2068    2.9933    2.8214 H   0  0  0  0  0  0  0  0  0  0  0  0
  1  2  1  0
  1  5  1  0
  1  6  1  0
  1  7  1  0
  2  3  2  3
  2  8  1  0
  3  4  1  0
  4  9  1  0
 10 11  1  0
 10 15  1  0
 10 16  1  0
 11 12  1  0
 12 13  1  0
 12 17  1  0
 12 18  1  0
 13 14  1  0
 13 19  1  0
 13 20  1  0
 14 21  1  0
 14 22  1  0
 14 23  1  0
M  RAD  1  10   2
M  END
>  <reaction>  (15) 
rmg_rxn_681

>  <mol_properties>  (15) 
{"2": {"label": "*0", "atom_type": "N3d"}, "3": {"label": "*1", "atom_type": "O2s"}, "8": {"label": "*2", "atom_type": "H0"}, "9": {"label": "*3", "atom_type": "Cs"}, "10": {"label": "*4", "atom_type": "O2s"}}

>  <type>  (15) 
unop_11

>  <geom_source>  (15) 
Heuristics

$$$$

     RDKit          3D

 23 21  0  0  0  0  0  0  0  0999 V2000
    0.1523   -3.0069   -2.5500 C   0  0  0  0  0  0  0  0  0  0  0  0
    0.1523   -3.0069   -1.0613 C   0  0  0  0  0  0  0  0  0  0  0  0
    0.1523   -1.9148   -0.4245 N   0  0  0  0  0  0  0  0  0  0  0  0
    0.1523   -2.1195    0.9487 O   0  0  0  0  0  0  0  0  0  0  0  0
    1.0317   -3.5307   -2.9318 H   0  0  0  0  0  0  0  0  0  0  0  0
   -0.7271   -3.5307   -2.9318 H   0  0  0  0  0  0  0  0  0  0  0  0
    0.1523   -1.9872   -2.9314 H   0  0  0  0  0  0  0  0  0  0  0  0
    0.1523   -3.9544   -0.5212 H   0  0  0  0  0  0  0  0  0  0  0  0
    0.1523   -1.0498    1.3721 H   0  0  0  0  0  0  0  0  0  0  0  0
    0.1523    0.1655    1.8531 C   0  0  0  0  0  3  0  0  0  0  0  0
    0.1523    1.0512    0.7697 O   0  0  0  0  0  0  0  0  0  0  0  0
    0.1550    2.4002    1.1662 C   0  0  0  0  0  0  0  0  0  0  0  0
    0.1159    3.2854   -0.0624 C   0  0  0  0  0  0  0  0  0  0  0  0
   -1.1569    3.1177   -0.8815 C   0  0  0  0  0  0  0  0  0  0  0  0
    1.0425    0.2989    2.4828 H   0  0  0  0  0  0  0  0  0  0  0  0
   -0.7379    0.2993    2.4826 H   0  0  0  0  0  0  0  0  0  0  0  0
    1.0551    2.6131    1.7618 H   0  0  0  0  0  0  0  0  0  0  0  0
   -0.7176    2.6033    1.8073 H   0  0  0  0  0  0  0  0  0  0  0  0
    0.9911    3.0629   -0.6783 H   0  0  0  0  0  0  0  0  0  0  0  0
    0.2167    4.3229    0.2681 H   0  0  0  0  0  0  0  0  0  0  0  0
   -1.1514    3.7731   -1.7537 H   0  0  0  0  0  0  0  0  0  0  0  0
   -1.2605    2.0896   -1.2284 H   0  0  0  0  0  0  0  0  0  0  0  0
   -2.0394    3.3614   -0.2847 H   0  0  0  0  0  0  0  0  0  0  0  0
  1  2  1  0
  1  5  1  0
  1  6  1  0
  1  7  1  0
  2  3  2  3
  2  8  1  0
  3  4  1  0
  4  9  1  0
 10 11  1  0
 10 15  1  0
 10 16  1  0
 11 12  1  0
 12 13  1  0
 12 17  1  0
 12 18  1  0
 13 14  1  0
 13 19  1  0
 13 20  1  0
 14 21  1  0
 14 22  1  0
 14 23  1  0
M  RAD  1  10   2
M  END
>  <reaction>  (16) 
rmg_rxn_681

>  <mol_properties>  (16) 
{"2": {"label": "*0", "atom_type": "N3d"}, "3": {"label": "*1", "atom_type": "O2s"}, "8": {"label": "*2", "atom_type": "H0"}, "9": {"label": "*3", "atom_type": "Cs"}, "10": {"label": "*4", "atom_type": "O2s"}}

>  <type>  (16) 
unop_12

>  <geom_source>  (16) 
Heuristics

$$$$

     RDKit          3D

 23 21  0  0  0  0  0  0  0  0999 V2000
   -1.1242    0.5071   -0.2017 O   0  0  0  0  0  0  0  0  0  0  0  0
    2.0672    1.1449   -1.3175 O   0  0  0  0  0  1  0  0  0  0  0  0
    3.3367    0.7823   -0.9332 N   0  0  0  0  0  2  0  0  0  0  0  0
   -3.2982    0.0791    0.7367 C   0  0  0  0  0  0  0  0  0  0  0  0
   -1.9323   -0.5018    0.3678 C   0  0  0  0  0  0  0  0  0  0  0  0
   -4.0775    0.5293   -0.4973 C   0  0  0  0  0  0  0  0  0  0  0  0
    4.8980   -0.3607    0.5198 C   0  0  0  0  0  0  0  0  0  0  0  0
    0.1258   -0.0402   -0.5556 C   0  0  0  0  0  0  0  0  0  0  0  0
    3.5200    0.0318    0.1041 C   0  0  0  0  0  3  0  0  0  0  0  0
   -3.1616    0.9434    1.4225 H   0  0  0  0  0  0  0  0  0  0  0  0
   -3.8890   -0.6958    1.2715 H   0  0  0  0  0  0  0  0  0  0  0  0
   -1.4648   -0.8925    1.3006 H   0  0  0  0  0  0  0  0  0  0  0  0
   -2.0809   -1.3475   -0.3431 H   0  0  0  0  0  0  0  0  0  0  0  0
   -3.5302    1.3352   -1.0306 H   0  0  0  0  0  0  0  0  0  0  0  0
   -5.0687    0.9218   -0.1869 H   0  0  0  0  0  0  0  0  0  0  0  0
   -4.2356   -0.3264   -1.1878 H   0  0  0  0  0  0  0  0  0  0  0  0
    4.9860   -1.4669    0.5041 H   0  0  0  0  0  0  0  0  0  0  0  0
    5.0896    0.0043    1.5501 H   0  0  0  0  0  0  0  0  0  0  0  0
    5.6588    0.0723   -0.1646 H   0  0  0  0  0  0  0  0  0  0  0  0
    0.0137   -0.8346   -1.3267 H   0  0  0  0  0  0  0  0  0  0  0  0
    0.6604   -0.4363    0.3365 H   0  0  0  0  0  0  0  0  0  0  0  0
    0.8348    0.8696   -1.0492 H   0  0  0  0  0  0  0  0  0  0  0  0
    2.6722   -0.3184    0.6807 H   0  0  0  0  0  0  0  0  0  0  0  0
  1  8  1  0
  1  5  1  0
  2  3  1  0
  3  9  1  0
  4  5  1  0
  4 11  1  0
  4  6  1  0
  4 10  1  0
  5 13  1  0
  5 12  1  0
  6 14  1  0
  6 16  1  0
  6 15  1  0
  7 18  1  0
  7  9  1  0
  7 19  1  0
  7 17  1  0
  8 22  1  0
  8 21  1  0
  8 20  1  0
  9 23  1  0
M  RAD  3   2   2   3   2   9   2
M  END
>  <reaction>  (17) 
rmg_rxn_681

>  <mol_properties>  (17) 
{"2": {"label": "*0", "atom_type": "N3d"}, "3": {"label": "*1", "atom_type": "O2s"}, "8": {"label": "*2", "atom_type": "H0"}, "9": {"label": "*3", "atom_type": "Cs"}, "10": {"label": "*4", "atom_type": "O2s"}}

>  <type>  (17) 
unop_13

>  <geom_source>  (17) 
AutoTST

$$$$

     RDKit          3D

 23 21  0  0  0  0  0  0  0  0999 V2000
    0.7451   -2.8578   -2.7572 C   0  0  0  0  0  0  0  0  0  0  0  0
    0.7451   -2.8578   -1.2685 C   0  0  0  0  0  0  0  0  0  0  0  0
    0.7451   -1.7657   -0.6317 N   0  0  0  0  0  0  0  0  0  0  0  0
    0.7451   -1.9704    0.7415 O   0  0  0  0  0  0  0  0  0  0  0  0
    1.6245   -3.3817   -3.1390 H   0  0  0  0  0  0  0  0  0  0  0  0
   -0.1343   -3.3817   -3.1390 H   0  0  0  0  0  0  0  0  0  0  0  0
    0.7451   -1.8381   -3.1386 H   0  0  0  0  0  0  0  0  0  0  0  0
    0.7451   -3.8053   -0.7284 H   0  0  0  0  0  0  0  0  0  0  0  0
    0.7451   -0.9008    1.1648 H   0  0  0  0  0  0  0  0  0  0  0  0
    0.7451    0.3146    1.6458 C   0  0  0  0  0  3  0  0  0  0  0  0
    0.0785    1.1345    0.7286 O   0  0  0  0  0  0  0  0  0  0  0  0
   -0.3460    2.3514    1.2907 C   0  0  0  0  0  0  0  0  0  0  0  0
   -1.0882    3.1567    0.2442 C   0  0  0  0  0  0  0  0  0  0  0  0
   -2.3637    2.4796   -0.2397 C   0  0  0  0  0  0  0  0  0  0  0  0
    1.6470    0.8017    2.0409 H   0  0  0  0  0  0  0  0  0  0  0  0
    0.0982    0.0491    2.4930 H   0  0  0  0  0  0  0  0  0  0  0  0
    0.5228    2.9154    1.6612 H   0  0  0  0  0  0  0  0  0  0  0  0
   -1.0022    2.1559    2.1538 H   0  0  0  0  0  0  0  0  0  0  0  0
   -0.4149    3.3353   -0.5982 H   0  0  0  0  0  0  0  0  0  0  0  0
   -1.3216    4.1340    0.6758 H   0  0  0  0  0  0  0  0  0  0  0  0
   -2.8724    3.0899   -0.9874 H   0  0  0  0  0  0  0  0  0  0  0  0
   -2.1413    1.5100   -0.6851 H   0  0  0  0  0  0  0  0  0  0  0  0
   -3.0573    2.3175    0.5891 H   0  0  0  0  0  0  0  0  0  0  0  0
  1  2  1  0
  1  5  1  0
  1  6  1  0
  1  7  1  0
  2  3  2  3
  2  8  1  0
  3  4  1  0
  4  9  1  0
 10 11  1  0
 10 15  1  0
 10 16  1  0
 11 12  1  0
 12 13  1  0
 12 17  1  0
 12 18  1  0
 13 14  1  0
 13 19  1  0
 13 20  1  0
 14 21  1  0
 14 22  1  0
 14 23  1  0
M  RAD  1  10   2
M  END
>  <reaction>  (18) 
rmg_rxn_681

>  <mol_properties>  (18) 
{"2": {"label": "*0", "atom_type": "N3d"}, "3": {"label": "*1", "atom_type": "O2s"}, "8": {"label": "*2", "atom_type": "H0"}, "9": {"label": "*3", "atom_type": "Cs"}, "10": {"label": "*4", "atom_type": "O2s"}}

>  <type>  (18) 
unop_14

>  <geom_source>  (18) 
gaussian_log

$$$$
