
     RDKit          3D

 14 14  0  0  0  0  0  0  0  0999 V2000
   -1.1778    0.2241    0.1818 C   0  0  0  0  0  0  0  0  0  0  0  0
   -0.5633   -1.1636    0.0678 C   0  0  0  0  0  0  0  0  0  0  0  0
    0.6943   -1.1996    0.7146 O   0  0  0  0  0  0  0  0  0  0  0  0
    1.5547   -0.2288    0.2011 C   0  0  0  0  0  0  0  0  0  0  0  0
    1.0729    1.0696    0.3698 O   0  0  0  0  0  0  0  0  0  0  0  0
   -0.1607    1.2493   -0.2989 C   0  0  0  0  0  0  0  0  0  0  0  0
   -2.0927    0.2866   -0.4117 H   0  0  0  0  0  0  0  0  0  0  0  0
   -1.4303    0.4248    1.2248 H   0  0  0  0  0  0  0  0  0  0  0  0
   -1.1822   -1.9235    0.5431 H   0  0  0  0  0  0  0  0  0  0  0  0
   -0.4389   -1.4347   -0.9919 H   0  0  0  0  0  0  0  0  0  0  0  0
    1.7250   -0.4207   -0.8742 H   0  0  0  0  0  0  0  0  0  0  0  0
    2.4896   -0.3010    0.7524 H   0  0  0  0  0  0  0  0  0  0  0  0
   -0.0080    1.1481   -1.3844 H   0  0  0  0  0  0  0  0  0  0  0  0
   -0.4826    2.2695   -0.0942 H   0  0  0  0  0  0  0  0  0  0  0  0
  1  2  1  0
  1  6  1  0
  1  7  1  0
  1  8  1  0
  2  3  1  0
  2  9  1  0
  2 10  1  0
  3  4  1  0
  4  5  1  0
  4 11  1  0
  4 12  1  0
  5  6  1  0
  6 13  1  0
  6 14  1  0
M  END
>  <reaction>  (1) 
rmg_rxn_248

>  <mol_properties>  (1) 
{"1": {"label": "donator", "atom_type": "Cs"}, "8": {"label": "d_hydrogen", "atom_type": "H0"}}

>  <type>  (1) 
r1h

$$$$

     RDKit          3D

  9  8  0  0  0  0  0  0  0  0999 V2000
    1.3246   -0.8124   -0.0809 C   0  0  0  0  0  2  0  0  0  0  0  0
    0.4082    0.3080    0.1518 C   0  0  0  0  0  0  0  0  0  0  0  0
   -1.0545   -0.0277   -0.1520 C   0  0  0  0  0  0  0  0  0  0  0  0
    2.3933   -0.9471    0.0203 H   0  0  0  0  0  0  0  0  0  0  0  0
    0.4898    0.6406    1.1970 H   0  0  0  0  0  0  0  0  0  0  0  0
    0.7134    1.1680   -0.4624 H   0  0  0  0  0  0  0  0  0  0  0  0
   -1.4014   -0.8515    0.4727 H   0  0  0  0  0  0  0  0  0  0  0  0
   -1.1767   -0.3214   -1.1952 H   0  0  0  0  0  0  0  0  0  0  0  0
   -1.6915    0.8372    0.0370 H   0  0  0  0  0  0  0  0  0  0  0  0
  1  2  1  0
  1  4  1  0
  2  3  1  0
  2  5  1  0
  2  6  1  0
  3  7  1  0
  3  8  1  0
  3  9  1  0
M  RAD  1   1   3
M  END
>  <reaction>  (2) 
rmg_rxn_248

>  <mol_properties>  (2) 
{"0": {"label": "acceptor", "atom_type": "Cs"}}

>  <type>  (2) 
r2

$$$$

     RDKit          3D

 10  9  0  0  0  0  0  0  0  0999 V2000
    1.4352    0.2660   -0.1351 C   0  0  0  0  0  3  0  0  0  0  0  0
    0.2236   -0.3243    0.4850 C   0  0  0  0  0  0  0  0  0  0  0  0
   -0.8893    0.6872    0.7364 C   0  0  0  0  0  0  0  0  0  0  0  0
    2.3577   -0.2958   -0.1940 H   0  0  0  0  0  0  0  0  0  0  0  0
    1.3935    1.2286   -0.6287 H   0  0  0  0  0  0  0  0  0  0  0  0
   -0.1633   -1.1318   -0.1556 H   0  0  0  0  0  0  0  0  0  0  0  0
    0.4945   -0.8215    1.4240 H   0  0  0  0  0  0  0  0  0  0  0  0
   -1.1991    1.1627   -0.1967 H   0  0  0  0  0  0  0  0  0  0  0  0
   -1.7660    0.2103    1.1768 H   0  0  0  0  0  0  0  0  0  0  0  0
   -0.5545    1.4732    1.4159 H   0  0  0  0  0  0  0  0  0  0  0  0
  1  2  1  0
  1  4  1  0
  1  5  1  0
  2  3  1  0
  2  6  1  0
  2  7  1  0
  3  8  1  0
  3  9  1  0
  3 10  1  0
M  RAD  1   1   2
M  END
>  <reaction>  (3) 
rmg_rxn_248

>  <mol_properties>  (3) 
{"0": {"label": "acceptor", "atom_type": "Cs"}, "9": {"label": "a_hydrogen", "atom_type": "H0"}}

>  <type>  (3) 
r2h

$$$$

     RDKit          3D

 23 22  0  0  0  0  0  0  0  0999 V2000
    0.6121   -1.5013    2.2620 C   0  0  0  0  0  2  0  0  0  0  0  0
    0.1980   -2.8453    1.8084 C   0  0  0  0  0  0  0  0  0  0  0  0
    0.2538   -3.0304    0.2919 C   0  0  0  0  0  0  0  0  0  0  0  0
    0.9482   -1.2504    3.2620 H   0  0  0  0  0  0  0  0  0  0  0  0
    0.8223   -3.6046    2.2963 H   0  0  0  0  0  0  0  0  0  0  0  0
   -0.8286   -3.0446    2.1503 H   0  0  0  0  0  0  0  0  0  0  0  0
    1.2750   -2.9111   -0.0751 H   0  0  0  0  0  0  0  0  0  0  0  0
   -0.3756   -2.2942   -0.2101 H   0  0  0  0  0  0  0  0  0  0  0  0
   -0.0914   -4.0262    0.0105 H   0  0  0  0  0  0  0  0  0  0  0  0
    1.3706    0.4976   -0.4678 C   0  0  0  0  0  0  0  0  0  0  0  0
    0.2711    0.5259    0.5649 C   0  0  0  0  0  0  0  0  0  0  0  0
   -0.9823    0.2708    0.0014 O   0  0  0  0  0  0  0  0  0  0  0  0
   -1.2613    1.1473   -1.0585 C   0  0  0  0  0  0  0  0  0  0  0  0
   -0.3262    1.0621   -2.0856 O   0  0  0  0  0  0  0  0  0  0  0  0
    0.9705    1.4009   -1.6315 C   0  0  0  0  0  0  0  0  0  0  0  0
    2.3151    0.8267   -0.0307 H   0  0  0  0  0  0  0  0  0  0  0  0
    1.4980   -0.5229   -0.8349 H   0  0  0  0  0  0  0  0  0  0  0  0
    0.4529   -0.4373    1.4164 H   0  0  0  0  0  0  0  0  0  0  0  0
    0.2597    1.4372    1.1771 H   0  0  0  0  0  0  0  0  0  0  0  0
   -1.2988    2.1810   -0.6725 H   0  0  0  0  0  0  0  0  0  0  0  0
   -2.2258    0.8565   -1.4685 H   0  0  0  0  0  0  0  0  0  0  0  0
    0.9869    2.4549   -1.3171 H   0  0  0  0  0  0  0  0  0  0  0  0
    1.6404    1.2858   -2.4827 H   0  0  0  0  0  0  0  0  0  0  0  0
  1  2  1  0
  1  4  1  0
  2  3  1  0
  2  5  1  0
  2  6  1  0
  3  7  1  0
  3  8  1  0
  3  9  1  0
 10 11  1  0
 10 15  1  0
 10 16  1  0
 10 17  1  0
 11 12  1  0
 11 18  1  0
 11 19  1  0
 12 13  1  0
 13 14  1  0
 13 20  1  0
 13 21  1  0
 14 15  1  0
 15 22  1  0
 15 23  1  0
M  RAD  1   1   3
M  END
>  <reaction>  (4) 
rmg_rxn_248

>  <mol_properties>  (4) 
{"0": {"label": "*3", "atom_type": "Cs"}, "1": {"label": "*4", "atom_type": "Cs"}, "10": {"label": "*1", "atom_type": "Cs"}, "11": {"label": "*0", "atom_type": "O2s"}, "17": {"label": "*2", "atom_type": "H0"}}

>  <type>  (4) 
ts

$$$$

     RDKit          3D

 23 22  0  0  0  0  0  0  0  0999 V2000
   -0.0720   -2.1673    0.7925 C   0  0  0  0  0  3  0  0  0  0  0  0
    0.9440   -2.8021    1.6675 C   0  0  0  0  0  0  0  0  0  0  0  0
    0.4030   -3.2165    3.0316 C   0  0  0  0  0  0  0  0  0  0  0  0
   -1.1292   -2.2822    0.9952 H   0  0  0  0  0  0  0  0  0  0  0  0
    1.3645   -3.6864    1.1645 H   0  0  0  0  0  0  0  0  0  0  0  0
    1.7965   -2.1244    1.7950 H   0  0  0  0  0  0  0  0  0  0  0  0
   -0.4217   -3.9241    2.9229 H   0  0  0  0  0  0  0  0  0  0  0  0
    0.0292   -2.3507    3.5814 H   0  0  0  0  0  0  0  0  0  0  0  0
    1.1760   -3.6929    3.6362 H   0  0  0  0  0  0  0  0  0  0  0  0
    0.3082    0.2186   -1.7039 C   0  0  0  0  0  0  0  0  0  0  0  0
    0.3082    0.2186   -0.1818 C   0  0  0  0  0  3  0  0  0  0  0  0
   -0.7401    1.0312    0.3103 O   0  0  0  0  0  0  0  0  0  0  0  0
   -0.6492    2.3308   -0.1891 C   0  0  0  0  0  0  0  0  0  0  0  0
   -0.7401    2.3870   -1.5801 O   0  0  0  0  0  0  0  0  0  0  0  0
    0.3082    1.6603   -2.1920 C   0  0  0  0  0  0  0  0  0  0  0  0
    1.1822   -0.3138   -2.0857 H   0  0  0  0  0  0  0  0  0  0  0  0
   -0.5884   -0.2876   -2.0669 H   0  0  0  0  0  0  0  0  0  0  0  0
    0.1174   -0.9784    0.3070 H   0  0  0  0  0  0  0  0  0  0  0  0
    1.2718    0.5946    0.1949 H   0  0  0  0  0  0  0  0  0  0  0  0
    0.3061    2.7828    0.1352 H   0  0  0  0  0  0  0  0  0  0  0  0
   -1.4903    2.8913    0.2129 H   0  0  0  0  0  0  0  0  0  0  0  0
    1.2718    2.1377   -1.9567 H   0  0  0  0  0  0  0  0  0  0  0  0
    0.1492    1.7262   -3.2674 H   0  0  0  0  0  0  0  0  0  0  0  0
  1  2  1  0
  1  4  1  0
  1 18  1  0
  2  3  1  0
  2  5  1  0
  2  6  1  0
  3  7  1  0
  3  8  1  0
  3  9  1  0
 10 11  1  0
 10 15  1  0
 10 16  1  0
 10 17  1  0
 11 12  1  0
 11 19  1  0
 12 13  1  0
 13 14  1  0
 13 20  1  0
 13 21  1  0
 14 15  1  0
 15 22  1  0
 15 23  1  0
M  RAD  2   1   2  11   2
M  END
>  <reaction>  (5) 
rmg_rxn_248

>  <mol_properties>  (5) 
{"0": {"label": "*3", "atom_type": "Cs"}, "1": {"label": "*4", "atom_type": "Cs"}, "10": {"label": "*1", "atom_type": "Cs"}, "11": {"label": "*0", "atom_type": "O2s"}, "17": {"label": "*2", "atom_type": "H0"}}

>  <type>  (5) 
unop_1

>  <geom_source>  (5) 
Heuristics

$$$$

     RDKit          3D

 23 22  0  0  0  0  0  0  0  0999 V2000
   -0.0528   -1.9498    1.2094 C   0  0  0  0  0  3  0  0  0  0  0  0
    0.4003   -3.1539    0.4706 C   0  0  0  0  0  0  0  0  0  0  0  0
    0.7655   -4.3253    1.3759 C   0  0  0  0  0  0  0  0  0  0  0  0
   -0.3784   -2.0202    2.2394 H   0  0  0  0  0  0  0  0  0  0  0  0
   -0.3849   -3.4740   -0.2314 H   0  0  0  0  0  0  0  0  0  0  0  0
    1.2539   -2.8959   -0.1675 H   0  0  0  0  0  0  0  0  0  0  0  0
   -0.0878   -4.6213    1.9899 H   0  0  0  0  0  0  0  0  0  0  0  0
    1.5830   -4.0577    2.0479 H   0  0  0  0  0  0  0  0  0  0  0  0
    1.0768   -5.1937    0.7937 H   0  0  0  0  0  0  0  0  0  0  0  0
    0.3274    0.4361   -1.2870 C   0  0  0  0  0  0  0  0  0  0  0  0
    0.3274    0.4361    0.2351 C   0  0  0  0  0  3  0  0  0  0  0  0
   -0.7209    1.2487    0.7272 O   0  0  0  0  0  0  0  0  0  0  0  0
   -0.6300    2.5483    0.2279 C   0  0  0  0  0  0  0  0  0  0  0  0
   -0.7209    2.6045   -1.1632 O   0  0  0  0  0  0  0  0  0  0  0  0
    0.3274    1.8778   -1.7751 C   0  0  0  0  0  0  0  0  0  0  0  0
    1.2014   -0.0963   -1.6688 H   0  0  0  0  0  0  0  0  0  0  0  0
   -0.5692   -0.0700   -1.6500 H   0  0  0  0  0  0  0  0  0  0  0  0
    0.1367   -0.7609    0.7239 H   0  0  0  0  0  0  0  0  0  0  0  0
    1.2910    0.8121    0.6118 H   0  0  0  0  0  0  0  0  0  0  0  0
    0.3254    3.0003    0.5521 H   0  0  0  0  0  0  0  0  0  0  0  0
   -1.4710    3.1088    0.6299 H   0  0  0  0  0  0  0  0  0  0  0  0
    1.2910    2.3552   -1.5398 H   0  0  0  0  0  0  0  0  0  0  0  0
    0.1685    1.9437   -2.8505 H   0  0  0  0  0  0  0  0  0  0  0  0
  1  2  1  0
  1  4  1  0
  1 18  1  0
  2  3  1  0
  2  5  1  0
  2  6  1  0
  3  7  1  0
  3  8  1  0
  3  9  1  0
 10 11  1  0
 10 15  1  0
 10 16  1  0
 10 17  1  0
 11 12  1  0
 11 19  1  0
 12 13  1  0
 13 14  1  0
 13 20  1  0
 13 21  1  0
 14 15  1  0
 15 22  1  0
 15 23  1  0
M  RAD  2   1   2  11   2
M  END
>  <reaction>  (6) 
rmg_rxn_248

>  <mol_properties>  (6) 
{"0": {"label": "*3", "atom_type": "Cs"}, "1": {"label": "*4", "atom_type": "Cs"}, "10": {"label": "*1", "atom_type": "Cs"}, "11": {"label": "*0", "atom_type": "O2s"}, "17": {"label": "*2", "atom_type": "H0"}}

>  <type>  (6) 
unop_2

>  <geom_source>  (6) 
Heuristics

$$$$

     RDKit          3D

 23 22  0  0  0  0  0  0  0  0999 V2000
    0.0789   -2.1917    0.7464 C   0  0  0  0  0  3  0  0  0  0  0  0
    0.6619   -2.5809    2.0540 C   0  0  0  0  0  0  0  0  0  0  0  0
   -0.3352   -3.2515    2.9927 C   0  0  0  0  0  0  0  0  0  0  0  0
   -0.8525   -2.6237    0.4031 H   0  0  0  0  0  0  0  0  0  0  0  0
    1.5139   -3.2588    1.8916 H   0  0  0  0  0  0  0  0  0  0  0  0
    1.0975   -1.7002    2.5406 H   0  0  0  0  0  0  0  0  0  0  0  0
   -0.7486   -4.1544    2.5382 H   0  0  0  0  0  0  0  0  0  0  0  0
   -1.1668   -2.5818    3.2199 H   0  0  0  0  0  0  0  0  0  0  0  0
    0.1368   -3.5360    3.9341 H   0  0  0  0  0  0  0  0  0  0  0  0
    0.4591    0.1942   -1.7499 C   0  0  0  0  0  0  0  0  0  0  0  0
    0.4591    0.1942   -0.2279 C   0  0  0  0  0  3  0  0  0  0  0  0
   -0.5892    1.0068    0.2642 O   0  0  0  0  0  0  0  0  0  0  0  0
   -0.4983    2.3064   -0.2351 C   0  0  0  0  0  0  0  0  0  0  0  0
   -0.5892    2.3626   -1.6261 O   0  0  0  0  0  0  0  0  0  0  0  0
    0.4591    1.6359   -2.2380 C   0  0  0  0  0  0  0  0  0  0  0  0
    1.3331   -0.3382   -2.1318 H   0  0  0  0  0  0  0  0  0  0  0  0
   -0.4375   -0.3120   -2.1129 H   0  0  0  0  0  0  0  0  0  0  0  0
    0.2684   -1.0028    0.2609 H   0  0  0  0  0  0  0  0  0  0  0  0
    1.4227    0.5702    0.1489 H   0  0  0  0  0  0  0  0  0  0  0  0
    0.4570    2.7584    0.0891 H   0  0  0  0  0  0  0  0  0  0  0  0
   -1.3394    2.8669    0.1669 H   0  0  0  0  0  0  0  0  0  0  0  0
    1.4227    2.1133   -2.0027 H   0  0  0  0  0  0  0  0  0  0  0  0
    0.3001    1.7018   -3.3135 H   0  0  0  0  0  0  0  0  0  0  0  0
  1  2  1  0
  1  4  1  0
  1 18  1  0
  2  3  1  0
  2  5  1  0
  2  6  1  0
  3  7  1  0
  3  8  1  0
  3  9  1  0
 10 11  1  0
 10 15  1  0
 10 16  1  0
 10 17  1  0
 11 12  1  0
 11 19  1  0
 12 13  1  0
 13 14  1  0
 13 20  1  0
 13 21  1  0
 14 15  1  0
 15 22  1  0
 15 23  1  0
M  RAD  2   1   2  11   2
M  END
>  <reaction>  (7) 
rmg_rxn_248

>  <mol_properties>  (7) 
{"0": {"label": "*3", "atom_type": "Cs"}, "1": {"label": "*4", "atom_type": "Cs"}, "10": {"label": "*1", "atom_type": "Cs"}, "11": {"label": "*0", "atom_type": "O2s"}, "17": {"label": "*2", "atom_type": "H0"}}

>  <type>  (7) 
unop_3

>  <geom_source>  (7) 
Heuristics

$$$$

     RDKit          3D

 23 22  0  0  0  0  0  0  0  0999 V2000
    0.4060   -2.0595    1.0995 C   0  0  0  0  0  3  0  0  0  0  0  0
   -0.8319   -2.8175    0.7931 C   0  0  0  0  0  0  0  0  0  0  0  0
   -1.1314   -3.9292    1.7929 C   0  0  0  0  0  0  0  0  0  0  0  0
    0.8517   -2.0990    2.0852 H   0  0  0  0  0  0  0  0  0  0  0  0
   -1.6886   -2.1271    0.7568 H   0  0  0  0  0  0  0  0  0  0  0  0
   -0.7687   -3.2339   -0.2192 H   0  0  0  0  0  0  0  0  0  0  0  0
   -1.2378   -3.5248    2.8019 H   0  0  0  0  0  0  0  0  0  0  0  0
   -0.3241   -4.6637    1.8116 H   0  0  0  0  0  0  0  0  0  0  0  0
   -2.0564   -4.4497    1.5412 H   0  0  0  0  0  0  0  0  0  0  0  0
    0.7862    0.3265   -1.3969 C   0  0  0  0  0  0  0  0  0  0  0  0
    0.7862    0.3265    0.1252 C   0  0  0  0  0  3  0  0  0  0  0  0
   -0.2621    1.1391    0.6173 O   0  0  0  0  0  0  0  0  0  0  0  0
   -0.1712    2.4386    0.1180 C   0  0  0  0  0  0  0  0  0  0  0  0
   -0.2621    2.4948   -1.2731 O   0  0  0  0  0  0  0  0  0  0  0  0
    0.7862    1.7681   -1.8850 C   0  0  0  0  0  0  0  0  0  0  0  0
    1.6602   -0.2060   -1.7787 H   0  0  0  0  0  0  0  0  0  0  0  0
   -0.1104   -0.1797   -1.7599 H   0  0  0  0  0  0  0  0  0  0  0  0
    0.5954   -0.8706    0.6140 H   0  0  0  0  0  0  0  0  0  0  0  0
    1.7498    0.7024    0.5019 H   0  0  0  0  0  0  0  0  0  0  0  0
    0.7841    2.8907    0.4422 H   0  0  0  0  0  0  0  0  0  0  0  0
   -1.0123    2.9991    0.5199 H   0  0  0  0  0  0  0  0  0  0  0  0
    1.7498    2.2455   -1.6497 H   0  0  0  0  0  0  0  0  0  0  0  0
    0.6272    1.8340   -2.9604 H   0  0  0  0  0  0  0  0  0  0  0  0
  1  2  1  0
  1  4  1  0
  1 18  1  0
  2  3  1  0
  2  5  1  0
  2  6  1  0
  3  7  1  0
  3  8  1  0
  3  9  1  0
 10 11  1  0
 10 15  1  0
 10 16  1  0
 10 17  1  0
 11 12  1  0
 11 19  1  0
 12 13  1  0
 13 14  1  0
 13 20  1  0
 13 21  1  0
 14 15  1  0
 15 22  1  0
 15 23  1  0
M  RAD  2   1   2  11   2
M  END
>  <reaction>  (8) 
rmg_rxn_248

>  <mol_properties>  (8) 
{"0": {"label": "*3", "atom_type": "Cs"}, "1": {"label": "*4", "atom_type": "Cs"}, "10": {"label": "*1", "atom_type": "Cs"}, "11": {"label": "*0", "atom_type": "O2s"}, "17": {"label": "*2", "atom_type": "H0"}}

>  <type>  (8) 
unop_4

>  <geom_source>  (8) 
Heuristics

$$$$

     RDKit          3D

 23 22  0  0  0  0  0  0  0  0999 V2000
    0.1573   -2.1440    0.7756 C   0  0  0  0  0  3  0  0  0  0  0  0
    0.1213   -2.3699    2.2414 C   0  0  0  0  0  0  0  0  0  0  0  0
   -0.3844   -3.7536    2.6346 C   0  0  0  0  0  0  0  0  0  0  0  0
    0.1267   -2.9767    0.0845 H   0  0  0  0  0  0  0  0  0  0  0  0
    1.1275   -2.2224    2.6629 H   0  0  0  0  0  0  0  0  0  0  0  0
   -0.4947   -1.5986    2.7187 H   0  0  0  0  0  0  0  0  0  0  0  0
    0.2439   -4.5340    2.1997 H   0  0  0  0  0  0  0  0  0  0  0  0
   -1.4046   -3.9105    2.2795 H   0  0  0  0  0  0  0  0  0  0  0  0
   -0.3794   -3.8842    3.7176 H   0  0  0  0  0  0  0  0  0  0  0  0
    0.5375    0.2419   -1.7207 C   0  0  0  0  0  0  0  0  0  0  0  0
    0.5375    0.2419   -0.1987 C   0  0  0  0  0  3  0  0  0  0  0  0
   -0.5108    1.0545    0.2934 O   0  0  0  0  0  0  0  0  0  0  0  0
   -0.4199    2.3541   -0.2059 C   0  0  0  0  0  0  0  0  0  0  0  0
   -0.5108    2.4103   -1.5969 O   0  0  0  0  0  0  0  0  0  0  0  0
    0.5375    1.6836   -2.2088 C   0  0  0  0  0  0  0  0  0  0  0  0
    1.4115   -0.2905   -2.1026 H   0  0  0  0  0  0  0  0  0  0  0  0
   -0.3591   -0.2642   -2.0837 H   0  0  0  0  0  0  0  0  0  0  0  0
    0.3467   -0.9551    0.2901 H   0  0  0  0  0  0  0  0  0  0  0  0
    1.5011    0.6179    0.1780 H   0  0  0  0  0  0  0  0  0  0  0  0
    0.5354    2.8062    0.1183 H   0  0  0  0  0  0  0  0  0  0  0  0
   -1.2610    2.9146    0.1961 H   0  0  0  0  0  0  0  0  0  0  0  0
    1.5011    2.1610   -1.9735 H   0  0  0  0  0  0  0  0  0  0  0  0
    0.3785    1.7495   -3.2843 H   0  0  0  0  0  0  0  0  0  0  0  0
  1  2  1  0
  1  4  1  0
  1 18  1  0
  2  3  1  0
  2  5  1  0
  2  6  1  0
  3  7  1  0
  3  8  1  0
  3  9  1  0
 10 11  1  0
 10 15  1  0
 10 16  1  0
 10 17  1  0
 11 12  1  0
 11 19  1  0
 12 13  1  0
 13 14  1  0
 13 20  1  0
 13 21  1  0
 14 15  1  0
 15 22  1  0
 15 23  1  0
M  RAD  2   1   2  11   2
M  END
>  <reaction>  (9) 
rmg_rxn_248

>  <mol_properties>  (9) 
{"0": {"label": "*3", "atom_type": "Cs"}, "1": {"label": "*4", "atom_type": "Cs"}, "10": {"label": "*1", "atom_type": "Cs"}, "11": {"label": "*0", "atom_type": "O2s"}, "17": {"label": "*2", "atom_type": "H0"}}

>  <type>  (9) 
unop_5

>  <geom_source>  (9) 
Heuristics

$$$$

     RDKit          3D

 23 22  0  0  0  0  0  0  0  0999 V2000
    0.4061   -2.1332    0.9476 C   0  0  0  0  0  3  0  0  0  0  0  0
   -0.9628   -2.6291    1.2320 C   0  0  0  0  0  0  0  0  0  0  0  0
   -1.0261   -3.6196    2.3895 C   0  0  0  0  0  0  0  0  0  0  0  0
    1.1955   -2.2298    1.6821 H   0  0  0  0  0  0  0  0  0  0  0  0
   -1.6261   -1.7782    1.4510 H   0  0  0  0  0  0  0  0  0  0  0  0
   -1.3855   -3.0843    0.3285 H   0  0  0  0  0  0  0  0  0  0  0  0
   -0.6458   -3.1673    3.3080 H   0  0  0  0  0  0  0  0  0  0  0  0
   -0.4221   -4.5040    2.1785 H   0  0  0  0  0  0  0  0  0  0  0  0
   -2.0502   -3.9462    2.5759 H   0  0  0  0  0  0  0  0  0  0  0  0
    0.7863    0.2528   -1.5487 C   0  0  0  0  0  0  0  0  0  0  0  0
    0.7863    0.2528   -0.0267 C   0  0  0  0  0  3  0  0  0  0  0  0
   -0.2620    1.0654    0.4654 O   0  0  0  0  0  0  0  0  0  0  0  0
   -0.1711    2.3649   -0.0339 C   0  0  0  0  0  0  0  0  0  0  0  0
   -0.2620    2.4211   -1.4249 O   0  0  0  0  0  0  0  0  0  0  0  0
    0.7863    1.6944   -2.0368 C   0  0  0  0  0  0  0  0  0  0  0  0
    1.6603   -0.2797   -1.9306 H   0  0  0  0  0  0  0  0  0  0  0  0
   -0.1103   -0.2534   -1.9117 H   0  0  0  0  0  0  0  0  0  0  0  0
    0.5956   -0.9443    0.4621 H   0  0  0  0  0  0  0  0  0  0  0  0
    1.7499    0.6287    0.3500 H   0  0  0  0  0  0  0  0  0  0  0  0
    0.7843    2.8170    0.2903 H   0  0  0  0  0  0  0  0  0  0  0  0
   -1.0121    2.9254    0.3681 H   0  0  0  0  0  0  0  0  0  0  0  0
    1.7499    2.1718   -1.8015 H   0  0  0  0  0  0  0  0  0  0  0  0
    0.6274    1.7603   -3.1123 H   0  0  0  0  0  0  0  0  0  0  0  0
  1  2  1  0
  1  4  1  0
  1 18  1  0
  2  3  1  0
  2  5  1  0
  2  6  1  0
  3  7  1  0
  3  8  1  0
  3  9  1  0
 10 11  1  0
 10 15  1  0
 10 16  1  0
 10 17  1  0
 11 12  1  0
 11 19  1  0
 12 13  1  0
 13 14  1  0
 13 20  1  0
 13 21  1  0
 14 15  1  0
 15 22  1  0
 15 23  1  0
M  RAD  2   1   2  11   2
M  END
>  <reaction>  (10) 
rmg_rxn_248

>  <mol_properties>  (10) 
{"0": {"label": "*3", "atom_type": "Cs"}, "1": {"label": "*4", "atom_type": "Cs"}, "10": {"label": "*1", "atom_type": "Cs"}, "11": {"label": "*0", "atom_type": "O2s"}, "17": {"label": "*2", "atom_type": "H0"}}

>  <type>  (10) 
unop_6

>  <geom_source>  (10) 
Heuristics

$$$$

     RDKit          3D

 23 22  0  0  0  0  0  0  0  0999 V2000
    0.3166   -2.1742    0.8244 C   0  0  0  0  0  3  0  0  0  0  0  0
   -0.8464   -2.4618    1.6995 C   0  0  0  0  0  0  0  0  0  0  0  0
   -0.5578   -3.4998    2.7784 C   0  0  0  0  0  0  0  0  0  0  0  0
    1.3204   -2.4415    1.1291 H   0  0  0  0  0  0  0  0  0  0  0  0
   -1.1873   -1.5312    2.1787 H   0  0  0  0  0  0  0  0  0  0  0  0
   -1.6969   -2.7862    1.0882 H   0  0  0  0  0  0  0  0  0  0  0  0
    0.2616   -3.1725    3.4220 H   0  0  0  0  0  0  0  0  0  0  0  0
   -0.2712   -4.4544    2.3333 H   0  0  0  0  0  0  0  0  0  0  0  0
   -1.4318   -3.6695    3.4088 H   0  0  0  0  0  0  0  0  0  0  0  0
    0.6967    0.2117   -1.6719 C   0  0  0  0  0  0  0  0  0  0  0  0
    0.6967    0.2117   -0.1499 C   0  0  0  0  0  3  0  0  0  0  0  0
   -0.3515    1.0243    0.3422 O   0  0  0  0  0  0  0  0  0  0  0  0
   -0.2606    2.3239   -0.1571 C   0  0  0  0  0  0  0  0  0  0  0  0
   -0.3515    2.3801   -1.5482 O   0  0  0  0  0  0  0  0  0  0  0  0
    0.6967    1.6534   -2.1600 C   0  0  0  0  0  0  0  0  0  0  0  0
    1.5707   -0.3207   -2.0538 H   0  0  0  0  0  0  0  0  0  0  0  0
   -0.1998   -0.2944   -2.0350 H   0  0  0  0  0  0  0  0  0  0  0  0
    0.5060   -0.9853    0.3389 H   0  0  0  0  0  0  0  0  0  0  0  0
    1.6604    0.5877    0.2268 H   0  0  0  0  0  0  0  0  0  0  0  0
    0.6947    2.7760    0.1671 H   0  0  0  0  0  0  0  0  0  0  0  0
   -1.1017    2.8844    0.2449 H   0  0  0  0  0  0  0  0  0  0  0  0
    1.6604    2.1308   -1.9248 H   0  0  0  0  0  0  0  0  0  0  0  0
    0.5378    1.7193   -3.2355 H   0  0  0  0  0  0  0  0  0  0  0  0
  1  2  1  0
  1  4  1  0
  1 18  1  0
  2  3  1  0
  2  5  1  0
  2  6  1  0
  3  7  1  0
  3  8  1  0
  3  9  1  0
 10 11  1  0
 10 15  1  0
 10 16  1  0
 10 17  1  0
 11 12  1  0
 11 19  1  0
 12 13  1  0
 13 14  1  0
 13 20  1  0
 13 21  1  0
 14 15  1  0
 15 22  1  0
 15 23  1  0
M  RAD  2   1   2  11   2
M  END
>  <reaction>  (11) 
rmg_rxn_248

>  <mol_properties>  (11) 
{"0": {"label": "*3", "atom_type": "Cs"}, "1": {"label": "*4", "atom_type": "Cs"}, "10": {"label": "*1", "atom_type": "Cs"}, "11": {"label": "*0", "atom_type": "O2s"}, "17": {"label": "*2", "atom_type": "H0"}}

>  <type>  (11) 
unop_7

>  <geom_source>  (11) 
Heuristics

$$$$

     RDKit          3D

 23 22  0  0  0  0  0  0  0  0999 V2000
   -0.1675   -2.0935    0.9176 C   0  0  0  0  0  3  0  0  0  0  0  0
    0.9795   -2.9904    1.2020 C   0  0  0  0  0  0  0  0  0  0  0  0
    0.9941   -3.5311    2.6276 C   0  0  0  0  0  0  0  0  0  0  0  0
   -1.0417   -2.0905    1.5561 H   0  0  0  0  0  0  0  0  0  0  0  0
    0.9709   -3.8361    0.4973 H   0  0  0  0  0  0  0  0  0  0  0  0
    1.9192   -2.4653    0.9930 H   0  0  0  0  0  0  0  0  0  0  0  0
    0.0812   -4.0923    2.8387 H   0  0  0  0  0  0  0  0  0  0  0  0
    1.0601   -2.7172    3.3519 H   0  0  0  0  0  0  0  0  0  0  0  0
    1.8423   -4.1977    2.7897 H   0  0  0  0  0  0  0  0  0  0  0  0
    0.2127    0.2924   -1.5787 C   0  0  0  0  0  0  0  0  0  0  0  0
    0.2127    0.2924   -0.0567 C   0  0  0  0  0  3  0  0  0  0  0  0
   -0.8356    1.1050    0.4354 O   0  0  0  0  0  0  0  0  0  0  0  0
   -0.7447    2.4046   -0.0639 C   0  0  0  0  0  0  0  0  0  0  0  0
   -0.8356    2.4608   -1.4550 O   0  0  0  0  0  0  0  0  0  0  0  0
    0.2127    1.7341   -2.0668 C   0  0  0  0  0  0  0  0  0  0  0  0
    1.0867   -0.2400   -1.9606 H   0  0  0  0  0  0  0  0  0  0  0  0
   -0.6839   -0.2137   -1.9417 H   0  0  0  0  0  0  0  0  0  0  0  0
    0.0219   -0.9046    0.4321 H   0  0  0  0  0  0  0  0  0  0  0  0
    1.1763    0.6684    0.3200 H   0  0  0  0  0  0  0  0  0  0  0  0
    0.2106    2.8566    0.2603 H   0  0  0  0  0  0  0  0  0  0  0  0
   -1.5858    2.9651    0.3381 H   0  0  0  0  0  0  0  0  0  0  0  0
    1.1763    2.2115   -1.8315 H   0  0  0  0  0  0  0  0  0  0  0  0
    0.0537    1.8000   -3.1423 H   0  0  0  0  0  0  0  0  0  0  0  0
  1  2  1  0
  1  4  1  0
  1 18  1  0
  2  3  1  0
  2  5  1  0
  2  6  1  0
  3  7  1  0
  3  8  1  0
  3  9  1  0
 10 11  1  0
 10 15  1  0
 10 16  1  0
 10 17  1  0
 11 12  1  0
 11 19  1  0
 12 13  1  0
 13 14  1  0
 13 20  1  0
 13 21  1  0
 14 15  1  0
 15 22  1  0
 15 23  1  0
M  RAD  2   1   2  11   2
M  END
>  <reaction>  (12) 
rmg_rxn_248

>  <mol_properties>  (12) 
{"0": {"label": "*3", "atom_type": "Cs"}, "1": {"label": "*4", "atom_type": "Cs"}, "10": {"label": "*1", "atom_type": "Cs"}, "11": {"label": "*0", "atom_type": "O2s"}, "17": {"label": "*2", "atom_type": "H0"}}

>  <type>  (12) 
unop_8

>  <geom_source>  (12) 
Heuristics

$$$$

     RDKit          3D

 23 22  0  0  0  0  0  0  0  0999 V2000
    0.3025   -1.9827    1.2231 C   0  0  0  0  0  3  0  0  0  0  0  0
   -0.5024   -2.9864    0.4843 C   0  0  0  0  0  0  0  0  0  0  0  0
   -0.7441   -4.2725    1.2670 C   0  0  0  0  0  0  0  0  0  0  0  0
    0.4221   -2.0483    2.2970 H   0  0  0  0  0  0  0  0  0  0  0  0
   -1.4730   -2.5485    0.2048 H   0  0  0  0  0  0  0  0  0  0  0  0
   -0.0173   -3.2174   -0.4714 H   0  0  0  0  0  0  0  0  0  0  0  0
   -1.2638   -4.0638    2.2046 H   0  0  0  0  0  0  0  0  0  0  0  0
    0.2001   -4.7628    1.5111 H   0  0  0  0  0  0  0  0  0  0  0  0
   -1.3523   -4.9753    0.6959 H   0  0  0  0  0  0  0  0  0  0  0  0
    0.6827    0.4032   -1.2732 C   0  0  0  0  0  0  0  0  0  0  0  0
    0.6827    0.4032    0.2488 C   0  0  0  0  0  3  0  0  0  0  0  0
   -0.3656    1.2158    0.7409 O   0  0  0  0  0  0  0  0  0  0  0  0
   -0.2747    2.5153    0.2416 C   0  0  0  0  0  0  0  0  0  0  0  0
   -0.3656    2.5715   -1.1495 O   0  0  0  0  0  0  0  0  0  0  0  0
    0.6827    1.8448   -1.7613 C   0  0  0  0  0  0  0  0  0  0  0  0
    1.5567   -0.1293   -1.6551 H   0  0  0  0  0  0  0  0  0  0  0  0
   -0.2139   -0.1030   -1.6362 H   0  0  0  0  0  0  0  0  0  0  0  0
    0.4919   -0.7938    0.7376 H   0  0  0  0  0  0  0  0  0  0  0  0
    1.6463    0.7791    0.6255 H   0  0  0  0  0  0  0  0  0  0  0  0
    0.6806    2.9674    0.5658 H   0  0  0  0  0  0  0  0  0  0  0  0
   -1.1158    3.0759    0.6436 H   0  0  0  0  0  0  0  0  0  0  0  0
    1.6463    2.3222   -1.5260 H   0  0  0  0  0  0  0  0  0  0  0  0
    0.5237    1.9108   -2.8368 H   0  0  0  0  0  0  0  0  0  0  0  0
  1  2  1  0
  1  4  1  0
  1 18  1  0
  2  3  1  0
  2  5  1  0
  2  6  1  0
  3  7  1  0
  3  8  1  0
  3  9  1  0
 10 11  1  0
 10 15  1  0
 10 16  1  0
 10 17  1  0
 11 12  1  0
 11 19  1  0
 12 13  1  0
 13 14  1  0
 13 20  1  0
 13 21  1  0
 14 15  1  0
 15 22  1  0
 15 23  1  0
M  RAD  2   1   2  11   2
M  END
>  <reaction>  (13) 
rmg_rxn_248

>  <mol_properties>  (13) 
{"0": {"label": "*3", "atom_type": "Cs"}, "1": {"label": "*4", "atom_type": "Cs"}, "10": {"label": "*1", "atom_type": "Cs"}, "11": {"label": "*0", "atom_type": "O2s"}, "17": {"label": "*2", "atom_type": "H0"}}

>  <type>  (13) 
unop_9

>  <geom_source>  (13) 
Heuristics

$$$$

     RDKit          3D

 23 22  0  0  0  0  0  0  0  0999 V2000
   -0.1626   -2.0102    1.0755 C   0  0  0  0  0  3  0  0  0  0  0  0
    0.7784   -3.1155    0.7691 C   0  0  0  0  0  0  0  0  0  0  0  0
    1.1420   -3.9632    1.9833 C   0  0  0  0  0  0  0  0  0  0  0  0
   -0.7505   -2.0174    1.9845 H   0  0  0  0  0  0  0  0  0  0  0  0
    0.3447   -3.7660   -0.0059 H   0  0  0  0  0  0  0  0  0  0  0  0
    1.6886   -2.7093    0.3122 H   0  0  0  0  0  0  0  0  0  0  0  0
    0.2488   -4.4088    2.4265 H   0  0  0  0  0  0  0  0  0  0  0  0
    1.6276   -3.3567    2.7501 H   0  0  0  0  0  0  0  0  0  0  0  0
    1.8211   -4.7727    1.7122 H   0  0  0  0  0  0  0  0  0  0  0  0
    0.2176    0.3757   -1.4209 C   0  0  0  0  0  0  0  0  0  0  0  0
    0.2176    0.3757    0.1012 C   0  0  0  0  0  3  0  0  0  0  0  0
   -0.8307    1.1883    0.5933 O   0  0  0  0  0  0  0  0  0  0  0  0
   -0.7398    2.4878    0.0939 C   0  0  0  0  0  0  0  0  0  0  0  0
   -0.8307    2.5440   -1.2971 O   0  0  0  0  0  0  0  0  0  0  0  0
    0.2176    1.8173   -1.9090 C   0  0  0  0  0  0  0  0  0  0  0  0
    1.0916   -0.1568   -1.8027 H   0  0  0  0  0  0  0  0  0  0  0  0
   -0.6790   -0.1305   -1.7839 H   0  0  0  0  0  0  0  0  0  0  0  0
    0.0268   -0.8213    0.5900 H   0  0  0  0  0  0  0  0  0  0  0  0
    1.1812    0.7516    0.4779 H   0  0  0  0  0  0  0  0  0  0  0  0
    0.2155    2.9399    0.4182 H   0  0  0  0  0  0  0  0  0  0  0  0
   -1.5809    3.0483    0.4959 H   0  0  0  0  0  0  0  0  0  0  0  0
    1.1812    2.2947   -1.6737 H   0  0  0  0  0  0  0  0  0  0  0  0
    0.0586    1.8832   -2.9844 H   0  0  0  0  0  0  0  0  0  0  0  0
  1  2  1  0
  1  4  1  0
  1 18  1  0
  2  3  1  0
  2  5  1  0
  2  6  1  0
  3  7  1  0
  3  8  1  0
  3  9  1  0
 10 11  1  0
 10 15  1  0
 10 16  1  0
 10 17  1  0
 11 12  1  0
 11 19  1  0
 12 13  1  0
 13 14  1  0
 13 20  1  0
 13 21  1  0
 14 15  1  0
 15 22  1  0
 15 23  1  0
M  RAD  2   1   2  11   2
M  END
>  <reaction>  (14) 
rmg_rxn_248

>  <mol_properties>  (14) 
{"0": {"label": "*3", "atom_type": "Cs"}, "1": {"label": "*4", "atom_type": "Cs"}, "10": {"label": "*1", "atom_type": "Cs"}, "11": {"label": "*0", "atom_type": "O2s"}, "17": {"label": "*2", "atom_type": "H0"}}

>  <type>  (14) 
unop_10

>  <geom_source>  (14) 
Heuristics

$$$$

     RDKit          3D

 23 22  0  0  0  0  0  0  0  0999 V2000
    0.1956   -2.1640    0.7733 C   0  0  0  0  0  3  0  0  0  0  0  0
   -0.4794   -2.3527    2.0808 C   0  0  0  0  0  0  0  0  0  0  0  0
   -0.1055   -3.6553    2.7796 C   0  0  0  0  0  0  0  0  0  0  0  0
    1.0774   -2.7368    0.5158 H   0  0  0  0  0  0  0  0  0  0  0  0
   -0.2412   -1.5078    2.7451 H   0  0  0  0  0  0  0  0  0  0  0  0
   -1.5663   -2.3010    1.9459 H   0  0  0  0  0  0  0  0  0  0  0  0
    0.9709   -3.7043    2.9582 H   0  0  0  0  0  0  0  0  0  0  0  0
   -0.3818   -4.5174    2.1697 H   0  0  0  0  0  0  0  0  0  0  0  0
   -0.6095   -3.7471    3.7427 H   0  0  0  0  0  0  0  0  0  0  0  0
    0.5758    0.2219   -1.7230 C   0  0  0  0  0  0  0  0  0  0  0  0
    0.5758    0.2219   -0.2010 C   0  0  0  0  0  3  0  0  0  0  0  0
   -0.4725    1.0345    0.2911 O   0  0  0  0  0  0  0  0  0  0  0  0
   -0.3816    2.3341   -0.2082 C   0  0  0  0  0  0  0  0  0  0  0  0
   -0.4725    2.3903   -1.5993 O   0  0  0  0  0  0  0  0  0  0  0  0
    0.5758    1.6636   -2.2111 C   0  0  0  0  0  0  0  0  0  0  0  0
    1.4498   -0.3105   -2.1049 H   0  0  0  0  0  0  0  0  0  0  0  0
   -0.3208   -0.2842   -2.0860 H   0  0  0  0  0  0  0  0  0  0  0  0
    0.3850   -0.9751    0.2878 H   0  0  0  0  0  0  0  0  0  0  0  0
    1.5394    0.5979    0.1757 H   0  0  0  0  0  0  0  0  0  0  0  0
    0.5737    2.7862    0.1160 H   0  0  0  0  0  0  0  0  0  0  0  0
   -1.2227    2.8946    0.1938 H   0  0  0  0  0  0  0  0  0  0  0  0
    1.5394    2.1410   -1.9758 H   0  0  0  0  0  0  0  0  0  0  0  0
    0.4168    1.7295   -3.2866 H   0  0  0  0  0  0  0  0  0  0  0  0
  1  2  1  0
  1  4  1  0
  1 18  1  0
  2  3  1  0
  2  5  1  0
  2  6  1  0
  3  7  1  0
  3  8  1  0
  3  9  1  0
 10 11  1  0
 10 15  1  0
 10 16  1  0
 10 17  1  0
 11 12  1  0
 11 19  1  0
 12 13  1  0
 13 14  1  0
 13 20  1  0
 13 21  1  0
 14 15  1  0
 15 22  1  0
 15 23  1  0
M  RAD  2   1   2  11   2
M  END
>  <reaction>  (15) 
rmg_rxn_248

>  <mol_properties>  (15) 
{"0": {"label": "*3", "atom_type": "Cs"}, "1": {"label": "*4", "atom_type": "Cs"}, "10": {"label": "*1", "atom_type": "Cs"}, "11": {"label": "*0", "atom_type": "O2s"}, "17": {"label": "*2", "atom_type": "H0"}}

>  <type>  (15) 
unop_11

>  <geom_source>  (15) 
Heuristics

$$$$

     RDKit          3D

 23 22  0  0  0  0  0  0  0  0999 V2000
    0.1262   -1.9385    1.2667 C   0  0  0  0  0  3  0  0  0  0  0  0
   -0.0597   -3.1054    0.3697 C   0  0  0  0  0  0  0  0  0  0  0  0
    0.0116   -4.4476    1.0896 C   0  0  0  0  0  0  0  0  0  0  0  0
    0.0083   -2.0375    2.3383 H   0  0  0  0  0  0  0  0  0  0  0  0
   -1.0297   -3.0252   -0.1448 H   0  0  0  0  0  0  0  0  0  0  0  0
    0.6841   -3.0743   -0.4353 H   0  0  0  0  0  0  0  0  0  0  0  0
   -0.7510   -4.5105    1.8689 H   0  0  0  0  0  0  0  0  0  0  0  0
    0.9852   -4.5834    1.5642 H   0  0  0  0  0  0  0  0  0  0  0  0
   -0.1463   -5.2767    0.3985 H   0  0  0  0  0  0  0  0  0  0  0  0
    0.5064    0.4474   -1.2296 C   0  0  0  0  0  0  0  0  0  0  0  0
    0.5064    0.4474    0.2924 C   0  0  0  0  0  3  0  0  0  0  0  0
   -0.5419    1.2600    0.7845 O   0  0  0  0  0  0  0  0  0  0  0  0
   -0.4510    2.5596    0.2852 C   0  0  0  0  0  0  0  0  0  0  0  0
   -0.5419    2.6158   -1.1058 O   0  0  0  0  0  0  0  0  0  0  0  0
    0.5064    1.8891   -1.7177 C   0  0  0  0  0  0  0  0  0  0  0  0
    1.3804   -0.0850   -1.6115 H   0  0  0  0  0  0  0  0  0  0  0  0
   -0.3902   -0.0587   -1.5926 H   0  0  0  0  0  0  0  0  0  0  0  0
    0.3156   -0.7496    0.7812 H   0  0  0  0  0  0  0  0  0  0  0  0
    1.4700    0.8234    0.6691 H   0  0  0  0  0  0  0  0  0  0  0  0
    0.5043    3.0117    0.6094 H   0  0  0  0  0  0  0  0  0  0  0  0
   -1.2921    3.1201    0.6872 H   0  0  0  0  0  0  0  0  0  0  0  0
    1.4700    2.3665   -1.4824 H   0  0  0  0  0  0  0  0  0  0  0  0
    0.3474    1.9550   -2.7932 H   0  0  0  0  0  0  0  0  0  0  0  0
  1  2  1  0
  1  4  1  0
  1 18  1  0
  2  3  1  0
  2  5  1  0
  2  6  1  0
  3  7  1  0
  3  8  1  0
  3  9  1  0
 10 11  1  0
 10 15  1  0
 10 16  1  0
 10 17  1  0
 11 12  1  0
 11 19  1  0
 12 13  1  0
 13 14  1  0
 13 20  1  0
 13 21  1  0
 14 15  1  0
 15 22  1  0
 15 23  1  0
M  RAD  2   1   2  11   2
M  END
>  <reaction>  (16) 
rmg_rxn_248

>  <mol_properties>  (16) 
{"0": {"label": "*3", "atom_type": "Cs"}, "1": {"label": "*4", "atom_type": "Cs"}, "10": {"label": "*1", "atom_type": "Cs"}, "11": {"label": "*0", "atom_type": "O2s"}, "17": {"label": "*2", "atom_type": "H0"}}

>  <type>  (16) 
unop_12

>  <geom_source>  (16) 
Heuristics

$$$$

     RDKit          3D

 23 22  0  0  0  0  0  0  0  0999 V2000
   -3.1580   -0.4844    0.1760 O   0  0  0  0  0  0  0  0  0  0  0  0
   -1.2494    0.2552    1.4268 O   0  0  0  0  0  0  0  0  0  0  0  0
   -1.4633    0.8435   -0.8986 C   0  0  0  0  0  0  0  0  0  0  0  0
    2.9015   -0.9488    0.0941 C   0  0  0  0  0  0  0  0  0  0  0  0
   -2.9384    0.7275   -0.5122 C   0  0  0  0  0  0  0  0  0  0  0  0
    3.3859    0.4898   -0.0507 C   0  0  0  0  0  0  0  0  0  0  0  0
   -2.4693   -0.4804    1.4237 C   0  0  0  0  0  0  0  0  0  0  0  0
   -0.6173    0.1561    0.1700 C   0  0  0  0  0  3  0  0  0  0  0  0
    1.5133   -1.1253   -0.5052 C   0  0  0  0  0  3  0  0  0  0  0  0
    3.6100   -1.6327   -0.4200 H   0  0  0  0  0  0  0  0  0  0  0  0
    2.8668   -1.2204    1.1703 H   0  0  0  0  0  0  0  0  0  0  0  0
   -1.1771    1.9143   -0.9693 H   0  0  0  0  0  0  0  0  0  0  0  0
   -1.2816    0.3592   -1.8825 H   0  0  0  0  0  0  0  0  0  0  0  0
   -3.5624    0.7416   -1.4306 H   0  0  0  0  0  0  0  0  0  0  0  0
   -3.2496    1.5954    0.1143 H   0  0  0  0  0  0  0  0  0  0  0  0
    4.3979    0.5874    0.3957 H   0  0  0  0  0  0  0  0  0  0  0  0
    2.6969    1.1841    0.4759 H   0  0  0  0  0  0  0  0  0  0  0  0
    3.4423    0.7719   -1.1237 H   0  0  0  0  0  0  0  0  0  0  0  0
   -3.1396   -0.0570    2.2013 H   0  0  0  0  0  0  0  0  0  0  0  0
   -2.2562   -1.5311    1.7141 H   0  0  0  0  0  0  0  0  0  0  0  0
   -0.4100   -0.9072   -0.0914 H   0  0  0  0  0  0  0  0  0  0  0  0
    1.5224   -0.9007   -1.5931 H   0  0  0  0  0  0  0  0  0  0  0  0
    0.6353   -0.3382    0.1150 H   0  0  0  0  0  0  0  0  0  0  0  0
  1  5  1  0
  1  7  1  0
  2  8  1  0
  2  7  1  0
  3  8  1  0
  3  5  1  0
  3 12  1  0
  3 13  1  0
  4  9  1  0
  4  6  1  0
  4 10  1  0
  4 11  1  0
  5 14  1  0
  5 15  1  0
  6 16  1  0
  6 17  1  0
  6 18  1  0
  7 19  1  0
  7 20  1  0
  8 21  1  0
  9 22  1  0
  9 23  1  0
M  RAD  2   8   2   9   2
M  END
>  <reaction>  (17) 
rmg_rxn_248

>  <mol_properties>  (17) 
{"0": {"label": "*3", "atom_type": "Cs"}, "1": {"label": "*4", "atom_type": "Cs"}, "10": {"label": "*1", "atom_type": "Cs"}, "11": {"label": "*0", "atom_type": "O2s"}, "17": {"label": "*2", "atom_type": "H0"}}

>  <type>  (17) 
unop_13

>  <geom_source>  (17) 
AutoTST

$$$$

     RDKit          3D

 23 22  0  0  0  0  0  0  0  0999 V2000
   -0.0528   -1.9498    1.2094 C   0  0  0  0  0  3  0  0  0  0  0  0
    0.4003   -3.1539    0.4706 C   0  0  0  0  0  0  0  0  0  0  0  0
    0.7655   -4.3253    1.3759 C   0  0  0  0  0  0  0  0  0  0  0  0
   -0.3784   -2.0202    2.2394 H   0  0  0  0  0  0  0  0  0  0  0  0
   -0.3849   -3.4740   -0.2314 H   0  0  0  0  0  0  0  0  0  0  0  0
    1.2539   -2.8959   -0.1675 H   0  0  0  0  0  0  0  0  0  0  0  0
   -0.0878   -4.6213    1.9899 H   0  0  0  0  0  0  0  0  0  0  0  0
    1.5830   -4.0577    2.0479 H   0  0  0  0  0  0  0  0  0  0  0  0
    1.0768   -5.1937    0.7937 H   0  0  0  0  0  0  0  0  0  0  0  0
    0.3274    0.4361   -1.2870 C   0  0  0  0  0  0  0  0  0  0  0  0
    0.3274    0.4361    0.2351 C   0  0  0  0  0  3  0  0  0  0  0  0
   -0.7209    1.2487    0.7272 O   0  0  0  0  0  0  0  0  0  0  0  0
   -0.6300    2.5483    0.2279 C   0  0  0  0  0  0  0  0  0  0  0  0
   -0.7209    2.6045   -1.1632 O   0  0  0  0  0  0  0  0  0  0  0  0
    0.3274    1.8778   -1.7751 C   0  0  0  0  0  0  0  0  0  0  0  0
    1.2014   -0.0963   -1.6688 H   0  0  0  0  0  0  0  0  0  0  0  0
   -0.5692   -0.0700   -1.6500 H   0  0  0  0  0  0  0  0  0  0  0  0
    0.1367   -0.7609    0.7239 H   0  0  0  0  0  0  0  0  0  0  0  0
    1.2910    0.8121    0.6118 H   0  0  0  0  0  0  0  0  0  0  0  0
    0.3253    3.0004    0.5521 H   0  0  0  0  0  0  0  0  0  0  0  0
   -1.4710    3.1088    0.6299 H   0  0  0  0  0  0  0  0  0  0  0  0
    1.2910    2.3552   -1.5398 H   0  0  0  0  0  0  0  0  0  0  0  0
    0.1684    1.9437   -2.8505 H   0  0  0  0  0  0  0  0  0  0  0  0
  1  2  1  0
  1  4  1  0
  1 18  1  0
  2  3  1  0
  2  5  1  0
  2  6  1  0
  3  7  1  0
  3  8  1  0
  3  9  1  0
 10 11  1  0
 10 15  1  0
 10 16  1  0
 10 17  1  0
 11 12  1  0
 11 19  1  0
 12 13  1  0
 13 14  1  0
 13 20  1  0
 13 21  1  0
 14 15  1  0
 15 22  1  0
 15 23  1  0
M  RAD  2   1   2  11   2
M  END
>  <reaction>  (18) 
rmg_rxn_248

>  <mol_properties>  (18) 
{"0": {"label": "*3", "atom_type": "Cs"}, "1": {"label": "*4", "atom_type": "Cs"}, "10": {"label": "*1", "atom_type": "Cs"}, "11": {"label": "*0", "atom_type": "O2s"}, "17": {"label": "*2", "atom_type": "H0"}}

>  <type>  (18) 
unop_14

>  <geom_source>  (18) 
gaussian_log

$$$$
