
     RDKit          3D

 11 10  0  0  0  0  0  0  0  0999 V2000
   -1.2710    0.1907   -0.2084 C   0  0  0  0  0  0  0  0  0  0  0  0
    0.0202   -0.6130   -0.2928 C   0  0  0  0  0  0  0  0  0  0  0  0
    0.1086   -1.6953    0.7756 C   0  0  0  0  0  0  0  0  0  0  0  0
   -1.3607    0.6851    0.7620 H   0  0  0  0  0  0  0  0  0  0  0  0
   -2.1429   -0.4567   -0.3299 H   0  0  0  0  0  0  0  0  0  0  0  0
   -1.3158    0.9602   -0.9809 H   0  0  0  0  0  0  0  0  0  0  0  0
    0.8757    0.0616   -0.1992 H   0  0  0  0  0  0  0  0  0  0  0  0
    0.0997   -1.0712   -1.2825 H   0  0  0  0  0  0  0  0  0  0  0  0
   -0.7198   -2.4022    0.6850 H   0  0  0  0  0  0  0  0  0  0  0  0
    1.0395   -2.2596    0.6989 H   0  0  0  0  0  0  0  0  0  0  0  0
    0.0624   -1.2603    1.7770 H   0  0  0  0  0  0  0  0  0  0  0  0
  1  2  1  0
  1  4  1  0
  1  5  1  0
  1  6  1  0
  2  3  1  0
  2  7  1  0
  2  8  1  0
  3  9  1  0
  3 10  1  0
  3 11  1  0
M  END
>  <reaction>  (1) 
rmg_rxn_15490

>  <mol_properties>  (1) 
{"1": {"label": "donator", "atom_type": "Cs"}, "6": {"label": "d_hydrogen", "atom_type": "H0"}}

>  <type>  (1) 
r1h

$$$$

     RDKit          3D

  5  4  0  0  0  0  0  0  0  0999 V2000
    0.8934    0.3742    0.4948 O   0  0  0  0  0  0  0  0  0  0  0  0
    0.1582   -0.1610   -0.5904 N   0  0  0  0  0  0  0  0  0  0  0  0
   -1.0297   -0.3739   -0.4689 C   0  0  0  0  0  3  0  0  0  0  0  0
    1.7804    0.4382    0.1306 H   0  0  0  0  0  0  0  0  0  0  0  0
   -1.8023   -0.2775    0.2859 H   0  0  0  0  0  0  0  0  0  0  0  0
  1  2  1  0
  1  4  1  0
  2  3  2  3
  3  5  1  0
M  RAD  1   3   2
M  END
>  <reaction>  (2) 
rmg_rxn_15490

>  <mol_properties>  (2) 
{"2": {"label": "acceptor", "atom_type": "Cd"}}

>  <type>  (2) 
r2

$$$$

     RDKit          3D

  6  5  0  0  0  0  0  0  0  0999 V2000
    1.2314    0.0428    0.5088 O   0  0  0  0  0  0  0  0  0  0  0  0
    0.2987    0.2341   -0.4915 N   0  0  0  0  0  0  0  0  0  0  0  0
   -0.8599   -0.1122   -0.1290 C   0  0  0  0  0  0  0  0  0  0  0  0
    2.0507    0.3401    0.1082 H   0  0  0  0  0  0  0  0  0  0  0  0
   -1.0700   -0.5112    0.8610 H   0  0  0  0  0  0  0  0  0  0  0  0
   -1.6509    0.0064   -0.8574 H   0  0  0  0  0  0  0  0  0  0  0  0
  1  2  1  0
  1  4  1  0
  2  3  2  3
  3  5  1  0
  3  6  1  0
M  END
>  <reaction>  (3) 
rmg_rxn_15490

>  <mol_properties>  (3) 
{"2": {"label": "acceptor", "atom_type": "Cd"}, "5": {"label": "a_hydrogen", "atom_type": "H0"}}

>  <type>  (3) 
r2h

$$$$

     RDKit          3D

 16 14  0  0  0  0  0  0  0  0999 V2000
    2.7917   -0.3223    0.5250 O   0  0  0  0  0  0  0  0  0  0  0  0
    1.4018   -0.1449    0.4456 N   0  0  0  0  0  0  0  0  0  0  0  0
    0.9088   -0.4722   -0.6481 C   0  0  0  0  0  3  0  0  0  0  0  0
    2.9919   -0.0258    1.4158 H   0  0  0  0  0  0  0  0  0  0  0  0
    1.4276   -0.8690   -1.5210 H   0  0  0  0  0  0  0  0  0  0  0  0
   -1.8150    1.4562   -0.2317 C   0  0  0  0  0  0  0  0  0  0  0  0
   -1.7359   -0.0261   -0.5028 C   0  0  0  0  0  0  0  0  0  0  0  0
   -2.1674   -0.9161    0.6368 C   0  0  0  0  0  0  0  0  0  0  0  0
   -1.4454    2.0395   -1.0762 H   0  0  0  0  0  0  0  0  0  0  0  0
   -1.2208    1.7176    0.6466 H   0  0  0  0  0  0  0  0  0  0  0  0
   -2.8483    1.7621   -0.0391 H   0  0  0  0  0  0  0  0  0  0  0  0
   -0.5188   -0.2719   -0.6804 H   0  0  0  0  0  0  0  0  0  0  0  0
   -2.1892   -0.3076   -1.4555 H   0  0  0  0  0  0  0  0  0  0  0  0
   -2.0413   -1.9717    0.3924 H   0  0  0  0  0  0  0  0  0  0  0  0
   -1.5805   -0.7033    1.5330 H   0  0  0  0  0  0  0  0  0  0  0  0
   -3.2217   -0.7518    0.8813 H   0  0  0  0  0  0  0  0  0  0  0  0
  1  2  1  0
  1  4  1  0
  2  3  2  3
  3  5  1  0
  6  7  1  0
  6  9  1  0
  6 10  1  0
  6 11  1  0
  7  8  1  0
  7 12  1  0
  7 13  1  0
  8 14  1  0
  8 15  1  0
  8 16  1  0
M  RAD  1   3   2
M  END
>  <reaction>  (4) 
rmg_rxn_15490

>  <mol_properties>  (4) 
{"1": {"label": "*4", "atom_type": "N3d"}, "2": {"label": "*3", "atom_type": "Cd"}, "5": {"label": "*0", "atom_type": "Cs"}, "6": {"label": "*1", "atom_type": "Cs"}, "11": {"label": "*2", "atom_type": "H0"}}

>  <type>  (4) 
ts

$$$$

     RDKit          3D

 16 14  0  0  0  0  0  0  0  0999 V2000
    2.9944    0.0068    0.1624 O   0  0  0  0  0  0  0  0  0  0  0  0
    1.6031    0.2248    0.0407 N   0  0  0  0  0  0  0  0  0  0  0  0
    0.8621   -0.6982   -0.3177 C   0  0  0  0  0  0  0  0  0  0  0  0
    3.3453    0.8608    0.4493 H   0  0  0  0  0  0  0  0  0  0  0  0
    1.1088   -1.7216   -0.5744 H   0  0  0  0  0  0  0  0  0  0  0  0
   -1.7098    1.4118    0.0768 C   0  0  0  0  0  0  0  0  0  0  0  0
   -1.6695   -0.0003   -0.4427 C   0  0  0  0  0  3  0  0  0  0  0  0
   -2.4264   -1.0057    0.3854 C   0  0  0  0  0  0  0  0  0  0  0  0
   -1.0623    2.0564   -0.5125 H   0  0  0  0  0  0  0  0  0  0  0  0
   -1.3808    1.4468    1.1131 H   0  0  0  0  0  0  0  0  0  0  0  0
   -2.7248    1.8137    0.0302 H   0  0  0  0  0  0  0  0  0  0  0  0
   -0.3971   -0.3590   -0.3893 H   0  0  0  0  0  0  0  0  0  0  0  0
   -1.9116   -0.0646   -1.5023 H   0  0  0  0  0  0  0  0  0  0  0  0
   -3.4971   -0.7877    0.3732 H   0  0  0  0  0  0  0  0  0  0  0  0
   -2.2867   -2.0138    0.0003 H   0  0  0  0  0  0  0  0  0  0  0  0
   -2.0930   -0.9789    1.4212 H   0  0  0  0  0  0  0  0  0  0  0  0
  1  2  1  0
  1  4  1  0
  2  3  2  3
  3  5  1  0
  3 12  1  0
  6  7  1  0
  6  9  1  0
  6 10  1  0
  6 11  1  0
  7  8  1  0
  7 13  1  0
  8 14  1  0
  8 15  1  0
  8 16  1  0
M  RAD  1   7   2
M  END
>  <reaction>  (5) 
rmg_rxn_15490

>  <mol_properties>  (5) 
{"1": {"label": "*4", "atom_type": "N3d"}, "2": {"label": "*3", "atom_type": "Cd"}, "5": {"label": "*0", "atom_type": "Cs"}, "6": {"label": "*1", "atom_type": "Cs"}, "11": {"label": "*2", "atom_type": "H0"}}

>  <type>  (5) 
unop_1

>  <geom_source>  (5) 
crest_best.xyz

$$$$

     RDKit          3D

 16 14  0  0  0  0  0  0  0  0999 V2000
    1.9093   -1.0633    1.9290 O   0  0  0  0  0  0  0  0  0  0  0  0
    1.4817   -0.3251    0.8430 N   0  0  0  0  0  0  0  0  0  0  0  0
    0.6712   -0.9714    0.1227 C   0  0  0  0  0  0  0  0  0  0  0  0
    2.5076   -0.4657    2.3819 H   0  0  0  0  0  0  0  0  0  0  0  0
    0.3633   -1.9889    0.3541 H   0  0  0  0  0  0  0  0  0  0  0  0
   -1.4165    0.3328   -2.2695 C   0  0  0  0  0  0  0  0  0  0  0  0
   -1.4165    0.3328   -0.7462 C   0  0  0  0  0  3  0  0  0  0  0  0
   -1.4165    1.7386   -0.1595 C   0  0  0  0  0  0  0  0  0  0  0  0
   -0.5350    0.8471   -2.6602 H   0  0  0  0  0  0  0  0  0  0  0  0
   -2.2979    0.8470   -2.6602 H   0  0  0  0  0  0  0  0  0  0  0  0
   -1.4164   -0.6821   -2.6707 H   0  0  0  0  0  0  0  0  0  0  0  0
   -0.3670   -0.3228   -0.3094 H   0  0  0  0  0  0  0  0  0  0  0  0
   -2.2910   -0.2136   -0.3822 H   0  0  0  0  0  0  0  0  0  0  0  0
   -2.2979    2.2972   -0.4836 H   0  0  0  0  0  0  0  0  0  0  0  0
   -1.4165    1.7179    0.9316 H   0  0  0  0  0  0  0  0  0  0  0  0
   -0.5350    2.2972   -0.4836 H   0  0  0  0  0  0  0  0  0  0  0  0
  1  2  1  0
  1  4  1  0
  2  3  2  3
  3  5  1  0
  3 12  1  0
  6  7  1  0
  6  9  1  0
  6 10  1  0
  6 11  1  0
  7  8  1  0
  7 13  1  0
  8 14  1  0
  8 15  1  0
  8 16  1  0
M  RAD  1   7   2
M  END
>  <reaction>  (6) 
rmg_rxn_15490

>  <mol_properties>  (6) 
{"1": {"label": "*4", "atom_type": "N3d"}, "2": {"label": "*3", "atom_type": "Cd"}, "5": {"label": "*0", "atom_type": "Cs"}, "6": {"label": "*1", "atom_type": "Cs"}, "11": {"label": "*2", "atom_type": "H0"}}

>  <type>  (6) 
unop_2

>  <geom_source>  (6) 
Heuristics

$$$$

     RDKit          3D

 16 14  0  0  0  0  0  0  0  0999 V2000
    2.9939    0.0070   -0.1627 O   0  0  0  0  0  0  0  0  0  0  0  0
    1.6026    0.2244   -0.0406 N   0  0  0  0  0  0  0  0  0  0  0  0
    0.8620   -0.6988    0.3181 C   0  0  0  0  0  0  0  0  0  0  0  0
    3.3444    0.8610   -0.4500 H   0  0  0  0  0  0  0  0  0  0  0  0
    1.1089   -1.7223    0.5746 H   0  0  0  0  0  0  0  0  0  0  0  0
   -2.4267   -1.0050   -0.3858 C   0  0  0  0  0  0  0  0  0  0  0  0
   -1.6695   -0.0003    0.4427 C   0  0  0  0  0  3  0  0  0  0  0  0
   -1.7084    1.4119   -0.0765 C   0  0  0  0  0  0  0  0  0  0  0  0
   -2.2904   -2.0130    0.0010 H   0  0  0  0  0  0  0  0  0  0  0  0
   -2.0908   -0.9804   -1.4209 H   0  0  0  0  0  0  0  0  0  0  0  0
   -3.4969   -0.7845   -0.3765 H   0  0  0  0  0  0  0  0  0  0  0  0
   -0.3973   -0.3599    0.3897 H   0  0  0  0  0  0  0  0  0  0  0  0
   -1.9120   -0.0645    1.5023 H   0  0  0  0  0  0  0  0  0  0  0  0
   -1.0580    2.0552    0.5111 H   0  0  0  0  0  0  0  0  0  0  0  0
   -1.3820    1.4463   -1.1137 H   0  0  0  0  0  0  0  0  0  0  0  0
   -2.7225    1.8159   -0.0273 H   0  0  0  0  0  0  0  0  0  0  0  0
  1  2  1  0
  1  4  1  0
  2  3  2  3
  3  5  1  0
  3 12  1  0
  6  7  1  0
  6  9  1  0
  6 10  1  0
  6 11  1  0
  7  8  1  0
  7 13  1  0
  8 14  1  0
  8 15  1  0
  8 16  1  0
M  RAD  1   7   2
M  END
>  <reaction>  (7) 
rmg_rxn_15490

>  <mol_properties>  (7) 
{"1": {"label": "*4", "atom_type": "N3d"}, "2": {"label": "*3", "atom_type": "Cd"}, "5": {"label": "*0", "atom_type": "Cs"}, "6": {"label": "*1", "atom_type": "Cs"}, "11": {"label": "*2", "atom_type": "H0"}}

>  <type>  (7) 
unop_3

>  <geom_source>  (7) 
Heuristics

$$$$

     RDKit          3D

 16 14  0  0  0  0  0  0  0  0999 V2000
    2.9967    0.0056   -0.1595 O   0  0  0  0  0  0  0  0  0  0  0  0
    1.6065    0.2263   -0.0303 N   0  0  0  0  0  0  0  0  0  0  0  0
    0.8608   -0.7042    0.2975 C   0  0  0  0  0  0  0  0  0  0  0  0
    3.3518    0.8668   -0.4183 H   0  0  0  0  0  0  0  0  0  0  0  0
    1.1017   -1.7370    0.5198 H   0  0  0  0  0  0  0  0  0  0  0  0
   -2.4355   -1.0036   -0.3743 C   0  0  0  0  0  0  0  0  0  0  0  0
   -1.6674    0.0024    0.4425 C   0  0  0  0  0  3  0  0  0  0  0  0
   -1.7070    1.4126   -0.0825 C   0  0  0  0  0  0  0  0  0  0  0  0
   -2.2981   -2.0102    0.0152 H   0  0  0  0  0  0  0  0  0  0  0  0
   -2.1099   -0.9842   -1.4128 H   0  0  0  0  0  0  0  0  0  0  0  0
   -3.5050   -0.7800   -0.3552 H   0  0  0  0  0  0  0  0  0  0  0  0
   -0.3969   -0.3611    0.3793 H   0  0  0  0  0  0  0  0  0  0  0  0
   -1.9004   -0.0562    1.5045 H   0  0  0  0  0  0  0  0  0  0  0  0
   -1.3908    1.4416   -1.1231 H   0  0  0  0  0  0  0  0  0  0  0  0
   -2.7193    1.8199   -0.0251 H   0  0  0  0  0  0  0  0  0  0  0  0
   -1.0489    2.0561    0.4961 H   0  0  0  0  0  0  0  0  0  0  0  0
  1  2  1  0
  1  4  1  0
  2  3  2  3
  3  5  1  0
  3 12  1  0
  6  7  1  0
  6  9  1  0
  6 10  1  0
  6 11  1  0
  7  8  1  0
  7 13  1  0
  8 14  1  0
  8 15  1  0
  8 16  1  0
M  RAD  1   7   2
M  END
>  <reaction>  (8) 
rmg_rxn_15490

>  <mol_properties>  (8) 
{"1": {"label": "*4", "atom_type": "N3d"}, "2": {"label": "*3", "atom_type": "Cd"}, "5": {"label": "*0", "atom_type": "Cs"}, "6": {"label": "*1", "atom_type": "Cs"}, "11": {"label": "*2", "atom_type": "H0"}}

>  <type>  (8) 
unop_4

>  <geom_source>  (8) 
Heuristics

$$$$

     RDKit          3D

 16 14  0  0  0  0  0  0  0  0999 V2000
    2.9946    0.0067    0.1621 O   0  0  0  0  0  0  0  0  0  0  0  0
    1.6034    0.2249    0.0406 N   0  0  0  0  0  0  0  0  0  0  0  0
    0.8621   -0.6982   -0.3169 C   0  0  0  0  0  0  0  0  0  0  0  0
    3.3460    0.8609    0.4483 H   0  0  0  0  0  0  0  0  0  0  0  0
    1.1083   -1.7221   -0.5719 H   0  0  0  0  0  0  0  0  0  0  0  0
   -1.7100    1.4118    0.0770 C   0  0  0  0  0  0  0  0  0  0  0  0
   -1.6695   -0.0003   -0.4427 C   0  0  0  0  0  3  0  0  0  0  0  0
   -2.4267   -1.0057    0.3849 C   0  0  0  0  0  0  0  0  0  0  0  0
   -1.0618    2.0564   -0.5115 H   0  0  0  0  0  0  0  0  0  0  0  0
   -1.3821    1.4465    1.1137 H   0  0  0  0  0  0  0  0  0  0  0  0
   -2.7249    1.8139    0.0295 H   0  0  0  0  0  0  0  0  0  0  0  0
   -0.3971   -0.3589   -0.3888 H   0  0  0  0  0  0  0  0  0  0  0  0
   -1.9112   -0.0644   -1.5024 H   0  0  0  0  0  0  0  0  0  0  0  0
   -2.0929   -0.9801    1.4206 H   0  0  0  0  0  0  0  0  0  0  0  0
   -3.4973   -0.7868    0.3734 H   0  0  0  0  0  0  0  0  0  0  0  0
   -2.2881   -2.0136   -0.0011 H   0  0  0  0  0  0  0  0  0  0  0  0
  1  2  1  0
  1  4  1  0
  2  3  2  3
  3  5  1  0
  3 12  1  0
  6  7  1  0
  6  9  1  0
  6 10  1  0
  6 11  1  0
  7  8  1  0
  7 13  1  0
  8 14  1  0
  8 15  1  0
  8 16  1  0
M  RAD  1   7   2
M  END
>  <reaction>  (9) 
rmg_rxn_15490

>  <mol_properties>  (9) 
{"1": {"label": "*4", "atom_type": "N3d"}, "2": {"label": "*3", "atom_type": "Cd"}, "5": {"label": "*0", "atom_type": "Cs"}, "6": {"label": "*1", "atom_type": "Cs"}, "11": {"label": "*2", "atom_type": "H0"}}

>  <type>  (9) 
unop_5

>  <geom_source>  (9) 
Heuristics

$$$$

     RDKit          3D

 16 14  0  0  0  0  0  0  0  0999 V2000
    2.6184   -1.1630    0.6737 O   0  0  0  0  0  0  0  0  0  0  0  0
    1.4797   -0.8039   -0.0200 N   0  0  0  0  0  0  0  0  0  0  0  0
    0.4527   -0.8279    0.7137 C   0  0  0  0  0  0  0  0  0  0  0  0
    3.3098   -1.1038    0.0115 H   0  0  0  0  0  0  0  0  0  0  0  0
    0.4896   -1.1028    1.7656 H   0  0  0  0  0  0  0  0  0  0  0  0
   -1.6349    0.4764   -1.6786 C   0  0  0  0  0  0  0  0  0  0  0  0
   -1.6349    0.4764   -0.1553 C   0  0  0  0  0  3  0  0  0  0  0  0
   -1.6349    1.8822    0.4315 C   0  0  0  0  0  0  0  0  0  0  0  0
   -0.7535    0.9906   -2.0692 H   0  0  0  0  0  0  0  0  0  0  0  0
   -2.5164    0.9906   -2.0692 H   0  0  0  0  0  0  0  0  0  0  0  0
   -1.6349   -0.5385   -2.0798 H   0  0  0  0  0  0  0  0  0  0  0  0
   -0.5855   -0.1793    0.2815 H   0  0  0  0  0  0  0  0  0  0  0  0
   -2.5095   -0.0700    0.2087 H   0  0  0  0  0  0  0  0  0  0  0  0
   -2.5164    2.4407    0.1073 H   0  0  0  0  0  0  0  0  0  0  0  0
   -1.6349    1.8615    1.5226 H   0  0  0  0  0  0  0  0  0  0  0  0
   -0.7535    2.4407    0.1073 H   0  0  0  0  0  0  0  0  0  0  0  0
  1  2  1  0
  1  4  1  0
  2  3  2  3
  3  5  1  0
  3 12  1  0
  6  7  1  0
  6  9  1  0
  6 10  1  0
  6 11  1  0
  7  8  1  0
  7 13  1  0
  8 14  1  0
  8 15  1  0
  8 16  1  0
M  RAD  1   7   2
M  END
>  <reaction>  (10) 
rmg_rxn_15490

>  <mol_properties>  (10) 
{"1": {"label": "*4", "atom_type": "N3d"}, "2": {"label": "*3", "atom_type": "Cd"}, "5": {"label": "*0", "atom_type": "Cs"}, "6": {"label": "*1", "atom_type": "Cs"}, "11": {"label": "*2", "atom_type": "H0"}}

>  <type>  (10) 
unop_6

>  <geom_source>  (10) 
Heuristics

$$$$

     RDKit          3D

 16 14  0  0  0  0  0  0  0  0999 V2000
    2.9954   -0.0061    0.1602 O   0  0  0  0  0  0  0  0  0  0  0  0
    1.6047   -0.2251    0.0336 N   0  0  0  0  0  0  0  0  0  0  0  0
    0.8610    0.7038   -0.3031 C   0  0  0  0  0  0  0  0  0  0  0  0
    3.3487   -0.8655    0.4275 H   0  0  0  0  0  0  0  0  0  0  0  0
    1.1046    1.7338   -0.5354 H   0  0  0  0  0  0  0  0  0  0  0  0
   -2.4344    1.0027    0.3778 C   0  0  0  0  0  0  0  0  0  0  0  0
   -1.6678   -0.0016   -0.4426 C   0  0  0  0  0  3  0  0  0  0  0  0
   -1.7050   -1.4126    0.0803 C   0  0  0  0  0  0  0  0  0  0  0  0
   -3.5038    0.7785    0.3611 H   0  0  0  0  0  0  0  0  0  0  0  0
   -2.2985    2.0100   -0.0106 H   0  0  0  0  0  0  0  0  0  0  0  0
   -2.1061    0.9819    1.4154 H   0  0  0  0  0  0  0  0  0  0  0  0
   -0.3971    0.3622   -0.3819 H   0  0  0  0  0  0  0  0  0  0  0  0
   -1.9032    0.0586   -1.5039 H   0  0  0  0  0  0  0  0  0  0  0  0
   -1.0461   -2.0542   -0.4995 H   0  0  0  0  0  0  0  0  0  0  0  0
   -1.3882   -1.4426    1.1206 H   0  0  0  0  0  0  0  0  0  0  0  0
   -2.7166   -1.8215    0.0227 H   0  0  0  0  0  0  0  0  0  0  0  0
  1  2  1  0
  1  4  1  0
  2  3  2  3
  3  5  1  0
  3 12  1  0
  6  7  1  0
  6  9  1  0
  6 10  1  0
  6 11  1  0
  7  8  1  0
  7 13  1  0
  8 14  1  0
  8 15  1  0
  8 16  1  0
M  RAD  1   7   2
M  END
>  <reaction>  (11) 
rmg_rxn_15490

>  <mol_properties>  (11) 
{"1": {"label": "*4", "atom_type": "N3d"}, "2": {"label": "*3", "atom_type": "Cd"}, "5": {"label": "*0", "atom_type": "Cs"}, "6": {"label": "*1", "atom_type": "Cs"}, "11": {"label": "*2", "atom_type": "H0"}}

>  <type>  (11) 
unop_7

>  <geom_source>  (11) 
Heuristics

$$$$

     RDKit          3D

 16 14  0  0  0  0  0  0  0  0999 V2000
    1.7790   -1.4980    1.8796 O   0  0  0  0  0  0  0  0  0  0  0  0
    1.2427   -0.4411    1.1707 N   0  0  0  0  0  0  0  0  0  0  0  0
    0.7678   -0.8099    0.0608 C   0  0  0  0  0  0  0  0  0  0  0  0
    2.0977   -1.0861    2.6851 H   0  0  0  0  0  0  0  0  0  0  0  0
    0.7917   -1.8452   -0.2727 H   0  0  0  0  0  0  0  0  0  0  0  0
   -1.3199    0.4943   -2.3315 C   0  0  0  0  0  0  0  0  0  0  0  0
   -1.3199    0.4943   -0.8081 C   0  0  0  0  0  3  0  0  0  0  0  0
   -1.3199    1.9002   -0.2214 C   0  0  0  0  0  0  0  0  0  0  0  0
   -0.4385    1.0086   -2.7221 H   0  0  0  0  0  0  0  0  0  0  0  0
   -2.2014    1.0086   -2.7221 H   0  0  0  0  0  0  0  0  0  0  0  0
   -1.3199   -0.5205   -2.7326 H   0  0  0  0  0  0  0  0  0  0  0  0
   -0.2705   -0.1613   -0.3713 H   0  0  0  0  0  0  0  0  0  0  0  0
   -2.1944   -0.0520   -0.4441 H   0  0  0  0  0  0  0  0  0  0  0  0
   -2.2014    2.4587   -0.5456 H   0  0  0  0  0  0  0  0  0  0  0  0
   -1.3199    1.8795    0.8697 H   0  0  0  0  0  0  0  0  0  0  0  0
   -0.4384    2.4587   -0.5456 H   0  0  0  0  0  0  0  0  0  0  0  0
  1  2  1  0
  1  4  1  0
  2  3  2  3
  3  5  1  0
  3 12  1  0
  6  7  1  0
  6  9  1  0
  6 10  1  0
  6 11  1  0
  7  8  1  0
  7 13  1  0
  8 14  1  0
  8 15  1  0
  8 16  1  0
M  RAD  1   7   2
M  END
>  <reaction>  (12) 
rmg_rxn_15490

>  <mol_properties>  (12) 
{"1": {"label": "*4", "atom_type": "N3d"}, "2": {"label": "*3", "atom_type": "Cd"}, "5": {"label": "*0", "atom_type": "Cs"}, "6": {"label": "*1", "atom_type": "Cs"}, "11": {"label": "*2", "atom_type": "H0"}}

>  <type>  (12) 
unop_8

>  <geom_source>  (12) 
Heuristics

$$$$

     RDKit          3D

 16 14  0  0  0  0  0  0  0  0999 V2000
    1.6014   -2.2872    1.1440 O   0  0  0  0  0  0  0  0  0  0  0  0
    0.9782   -1.5224    0.1777 N   0  0  0  0  0  0  0  0  0  0  0  0
    0.8849   -0.3114    0.5219 C   0  0  0  0  0  0  0  0  0  0  0  0
    1.6062   -3.1670    0.7619 H   0  0  0  0  0  0  0  0  0  0  0  0
    1.2601    0.0585    1.4737 H   0  0  0  0  0  0  0  0  0  0  0  0
   -1.2027    0.9928   -1.8704 C   0  0  0  0  0  0  0  0  0  0  0  0
   -1.2027    0.9928   -0.3471 C   0  0  0  0  0  3  0  0  0  0  0  0
   -1.2027    2.3986    0.2396 C   0  0  0  0  0  0  0  0  0  0  0  0
   -0.3213    1.5070   -2.2610 H   0  0  0  0  0  0  0  0  0  0  0  0
   -2.0842    1.5070   -2.2610 H   0  0  0  0  0  0  0  0  0  0  0  0
   -1.2027   -0.0221   -2.2716 H   0  0  0  0  0  0  0  0  0  0  0  0
   -0.1533    0.3372    0.0897 H   0  0  0  0  0  0  0  0  0  0  0  0
   -2.0773    0.4464    0.0169 H   0  0  0  0  0  0  0  0  0  0  0  0
   -2.0842    2.9572   -0.0845 H   0  0  0  0  0  0  0  0  0  0  0  0
   -1.2027    2.3779    1.3307 H   0  0  0  0  0  0  0  0  0  0  0  0
   -0.3213    2.9572   -0.0845 H   0  0  0  0  0  0  0  0  0  0  0  0
  1  2  1  0
  1  4  1  0
  2  3  2  3
  3  5  1  0
  3 12  1  0
  6  7  1  0
  6  9  1  0
  6 10  1  0
  6 11  1  0
  7  8  1  0
  7 13  1  0
  8 14  1  0
  8 15  1  0
  8 16  1  0
M  RAD  1   7   2
M  END
>  <reaction>  (13) 
rmg_rxn_15490

>  <mol_properties>  (13) 
{"1": {"label": "*4", "atom_type": "N3d"}, "2": {"label": "*3", "atom_type": "Cd"}, "5": {"label": "*0", "atom_type": "Cs"}, "6": {"label": "*1", "atom_type": "Cs"}, "11": {"label": "*2", "atom_type": "H0"}}

>  <type>  (13) 
unop_9

>  <geom_source>  (13) 
Heuristics

$$$$

     RDKit          3D

 16 14  0  0  0  0  0  0  0  0999 V2000
    2.9979    0.0049    0.1587 O   0  0  0  0  0  0  0  0  0  0  0  0
    1.6081    0.2278    0.0294 N   0  0  0  0  0  0  0  0  0  0  0  0
    0.8608   -0.7028   -0.2948 C   0  0  0  0  0  0  0  0  0  0  0  0
    3.3549    0.8664    0.4142 H   0  0  0  0  0  0  0  0  0  0  0  0
    1.1007   -1.7366   -0.5135 H   0  0  0  0  0  0  0  0  0  0  0  0
   -1.7106    1.4124    0.0839 C   0  0  0  0  0  0  0  0  0  0  0  0
   -1.6674    0.0028   -0.4423 C   0  0  0  0  0  3  0  0  0  0  0  0
   -2.4349   -1.0055    0.3723 C   0  0  0  0  0  0  0  0  0  0  0  0
   -1.0498    2.0569   -0.4907 H   0  0  0  0  0  0  0  0  0  0  0  0
   -1.3998    1.4407    1.1260 H   0  0  0  0  0  0  0  0  0  0  0  0
   -2.7227    1.8193    0.0215 H   0  0  0  0  0  0  0  0  0  0  0  0
   -0.3965   -0.3591   -0.3774 H   0  0  0  0  0  0  0  0  0  0  0  0
   -1.8983   -0.0553   -1.5048 H   0  0  0  0  0  0  0  0  0  0  0  0
   -3.5049   -0.7843    0.3516 H   0  0  0  0  0  0  0  0  0  0  0  0
   -2.2946   -2.0115   -0.0180 H   0  0  0  0  0  0  0  0  0  0  0  0
   -2.1112   -0.9864    1.4114 H   0  0  0  0  0  0  0  0  0  0  0  0
  1  2  1  0
  1  4  1  0
  2  3  2  3
  3  5  1  0
  3 12  1  0
  6  7  1  0
  6  9  1  0
  6 10  1  0
  6 11  1  0
  7  8  1  0
  7 13  1  0
  8 14  1  0
  8 15  1  0
  8 16  1  0
M  RAD  1   7   2
M  END
>  <reaction>  (14) 
rmg_rxn_15490

>  <mol_properties>  (14) 
{"1": {"label": "*4", "atom_type": "N3d"}, "2": {"label": "*3", "atom_type": "Cd"}, "5": {"label": "*0", "atom_type": "Cs"}, "6": {"label": "*1", "atom_type": "Cs"}, "11": {"label": "*2", "atom_type": "H0"}}

>  <type>  (14) 
unop_10

>  <geom_source>  (14) 
Heuristics

$$$$

     RDKit          3D

 16 14  0  0  0  0  0  0  0  0999 V2000
    2.0346   -1.5111    1.6872 O   0  0  0  0  0  0  0  0  0  0  0  0
    0.9023   -0.8037    1.3342 N   0  0  0  0  0  0  0  0  0  0  0  0
    0.7690   -0.7204    0.0817 C   0  0  0  0  0  0  0  0  0  0  0  0
    2.0143   -1.4984    2.6460 H   0  0  0  0  0  0  0  0  0  0  0  0
    1.4781   -1.1634   -0.6144 H   0  0  0  0  0  0  0  0  0  0  0  0
   -1.3186    0.5838   -2.3106 C   0  0  0  0  0  0  0  0  0  0  0  0
   -1.3186    0.5838   -0.7872 C   0  0  0  0  0  3  0  0  0  0  0  0
   -1.3186    1.9896   -0.2005 C   0  0  0  0  0  0  0  0  0  0  0  0
   -0.4372    1.0981   -2.7012 H   0  0  0  0  0  0  0  0  0  0  0  0
   -2.2001    1.0981   -2.7012 H   0  0  0  0  0  0  0  0  0  0  0  0
   -1.3186   -0.4311   -2.7117 H   0  0  0  0  0  0  0  0  0  0  0  0
   -0.2692   -0.0718   -0.3504 H   0  0  0  0  0  0  0  0  0  0  0  0
   -2.1932    0.0374   -0.4232 H   0  0  0  0  0  0  0  0  0  0  0  0
   -2.2001    2.5482   -0.5247 H   0  0  0  0  0  0  0  0  0  0  0  0
   -1.3186    1.9689    0.8906 H   0  0  0  0  0  0  0  0  0  0  0  0
   -0.4372    2.5482   -0.5247 H   0  0  0  0  0  0  0  0  0  0  0  0
  1  2  1  0
  1  4  1  0
  2  3  2  3
  3  5  1  0
  3 12  1  0
  6  7  1  0
  6  9  1  0
  6 10  1  0
  6 11  1  0
  7  8  1  0
  7 13  1  0
  8 14  1  0
  8 15  1  0
  8 16  1  0
M  RAD  1   7   2
M  END
>  <reaction>  (15) 
rmg_rxn_15490

>  <mol_properties>  (15) 
{"1": {"label": "*4", "atom_type": "N3d"}, "2": {"label": "*3", "atom_type": "Cd"}, "5": {"label": "*0", "atom_type": "Cs"}, "6": {"label": "*1", "atom_type": "Cs"}, "11": {"label": "*2", "atom_type": "H0"}}

>  <type>  (15) 
unop_11

>  <geom_source>  (15) 
Heuristics

$$$$

     RDKit          3D

 16 14  0  0  0  0  0  0  0  0999 V2000
    2.9958    0.0062   -0.1605 O   0  0  0  0  0  0  0  0  0  0  0  0
    1.6049    0.2255   -0.0360 N   0  0  0  0  0  0  0  0  0  0  0  0
    0.8615   -0.7014    0.3070 C   0  0  0  0  0  0  0  0  0  0  0  0
    3.3489    0.8638   -0.4336 H   0  0  0  0  0  0  0  0  0  0  0  0
    1.1052   -1.7295    0.5470 H   0  0  0  0  0  0  0  0  0  0  0  0
   -2.4316   -1.0045   -0.3796 C   0  0  0  0  0  0  0  0  0  0  0  0
   -1.6683    0.0010    0.4425 C   0  0  0  0  0  3  0  0  0  0  0  0
   -1.7084    1.4123   -0.0795 C   0  0  0  0  0  0  0  0  0  0  0  0
   -3.5017   -0.7840   -0.3626 H   0  0  0  0  0  0  0  0  0  0  0  0
   -2.2923   -2.0120    0.0071 H   0  0  0  0  0  0  0  0  0  0  0  0
   -2.1034   -0.9807   -1.4172 H   0  0  0  0  0  0  0  0  0  0  0  0
   -0.3969   -0.3602    0.3833 H   0  0  0  0  0  0  0  0  0  0  0  0
   -1.9050   -0.0606    1.5035 H   0  0  0  0  0  0  0  0  0  0  0  0
   -2.7218    1.8173   -0.0262 H   0  0  0  0  0  0  0  0  0  0  0  0
   -1.0546    2.0560    0.5038 H   0  0  0  0  0  0  0  0  0  0  0  0
   -1.3871    1.4444   -1.1183 H   0  0  0  0  0  0  0  0  0  0  0  0
  1  2  1  0
  1  4  1  0
  2  3  2  3
  3  5  1  0
  3 12  1  0
  6  7  1  0
  6  9  1  0
  6 10  1  0
  6 11  1  0
  7  8  1  0
  7 13  1  0
  8 14  1  0
  8 15  1  0
  8 16  1  0
M  RAD  1   7   2
M  END
>  <reaction>  (16) 
rmg_rxn_15490

>  <mol_properties>  (16) 
{"1": {"label": "*4", "atom_type": "N3d"}, "2": {"label": "*3", "atom_type": "Cd"}, "5": {"label": "*0", "atom_type": "Cs"}, "6": {"label": "*1", "atom_type": "Cs"}, "11": {"label": "*2", "atom_type": "H0"}}

>  <type>  (16) 
unop_12

>  <geom_source>  (16) 
Heuristics

$$$$

     RDKit          3D

 16 14  0  0  0  0  0  0  0  0999 V2000
    1.4505   -2.0337    1.6388 O   0  0  0  0  0  0  0  0  0  0  0  0
    0.8221   -1.6090    0.4848 N   0  0  0  0  0  0  0  0  0  0  0  0
    0.9683   -0.3693    0.2967 C   0  0  0  0  0  0  0  0  0  0  0  0
    1.2638   -2.9744    1.6599 H   0  0  0  0  0  0  0  0  0  0  0  0
    1.5285    0.2656    0.9798 H   0  0  0  0  0  0  0  0  0  0  0  0
   -1.1194    0.9349   -2.0956 C   0  0  0  0  0  0  0  0  0  0  0  0
   -1.1194    0.9349   -0.5722 C   0  0  0  0  0  3  0  0  0  0  0  0
   -1.1194    2.3407    0.0145 C   0  0  0  0  0  0  0  0  0  0  0  0
   -0.2379    1.4492   -2.4862 H   0  0  0  0  0  0  0  0  0  0  0  0
   -2.0008    1.4492   -2.4862 H   0  0  0  0  0  0  0  0  0  0  0  0
   -1.1194   -0.0800   -2.4967 H   0  0  0  0  0  0  0  0  0  0  0  0
   -0.0699    0.2793   -0.1354 H   0  0  0  0  0  0  0  0  0  0  0  0
   -1.9939    0.3886   -0.2082 H   0  0  0  0  0  0  0  0  0  0  0  0
   -2.0008    2.8993   -0.3096 H   0  0  0  0  0  0  0  0  0  0  0  0
   -1.1194    2.3200    1.1056 H   0  0  0  0  0  0  0  0  0  0  0  0
   -0.2379    2.8993   -0.3096 H   0  0  0  0  0  0  0  0  0  0  0  0
  1  2  1  0
  1  4  1  0
  2  3  2  3
  3  5  1  0
  3 12  1  0
  6  7  1  0
  6  9  1  0
  6 10  1  0
  6 11  1  0
  7  8  1  0
  7 13  1  0
  8 14  1  0
  8 15  1  0
  8 16  1  0
M  RAD  1   7   2
M  END
>  <reaction>  (17) 
rmg_rxn_15490

>  <mol_properties>  (17) 
{"1": {"label": "*4", "atom_type": "N3d"}, "2": {"label": "*3", "atom_type": "Cd"}, "5": {"label": "*0", "atom_type": "Cs"}, "6": {"label": "*1", "atom_type": "Cs"}, "11": {"label": "*2", "atom_type": "H0"}}

>  <type>  (17) 
unop_13

>  <geom_source>  (17) 
Heuristics

$$$$

     RDKit          3D

 16 14  0  0  0  0  0  0  0  0999 V2000
    2.9971    0.0056    0.1587 O   0  0  0  0  0  0  0  0  0  0  0  0
    1.6066    0.2264    0.0334 N   0  0  0  0  0  0  0  0  0  0  0  0
    0.8612   -0.7025   -0.2998 C   0  0  0  0  0  0  0  0  0  0  0  0
    3.3522    0.8652    0.4230 H   0  0  0  0  0  0  0  0  0  0  0  0
    1.1033   -1.7335   -0.5295 H   0  0  0  0  0  0  0  0  0  0  0  0
   -1.7091    1.4124    0.0815 C   0  0  0  0  0  0  0  0  0  0  0  0
   -1.6677    0.0019   -0.4423 C   0  0  0  0  0  3  0  0  0  0  0  0
   -2.4343   -1.0045    0.3754 C   0  0  0  0  0  0  0  0  0  0  0  0
   -1.0491    2.0556   -0.4954 H   0  0  0  0  0  0  0  0  0  0  0  0
   -1.3963    1.4423    1.1230 H   0  0  0  0  0  0  0  0  0  0  0  0
   -2.7212    1.8197    0.0204 H   0  0  0  0  0  0  0  0  0  0  0  0
   -0.3966   -0.3602   -0.3793 H   0  0  0  0  0  0  0  0  0  0  0  0
   -1.9005   -0.0579   -1.5043 H   0  0  0  0  0  0  0  0  0  0  0  0
   -2.2957   -2.0113   -0.0136 H   0  0  0  0  0  0  0  0  0  0  0  0
   -2.1083   -0.9841    1.4138 H   0  0  0  0  0  0  0  0  0  0  0  0
   -3.5041   -0.7823    0.3566 H   0  0  0  0  0  0  0  0  0  0  0  0
  1  2  1  0
  1  4  1  0
  2  3  2  3
  3  5  1  0
  3 12  1  0
  6  7  1  0
  6  9  1  0
  6 10  1  0
  6 11  1  0
  7  8  1  0
  7 13  1  0
  8 14  1  0
  8 15  1  0
  8 16  1  0
M  RAD  1   7   2
M  END
>  <reaction>  (18) 
rmg_rxn_15490

>  <mol_properties>  (18) 
{"1": {"label": "*4", "atom_type": "N3d"}, "2": {"label": "*3", "atom_type": "Cd"}, "5": {"label": "*0", "atom_type": "Cs"}, "6": {"label": "*1", "atom_type": "Cs"}, "11": {"label": "*2", "atom_type": "H0"}}

>  <type>  (18) 
unop_14

>  <geom_source>  (18) 
Heuristics

$$$$

     RDKit          3D

 16 14  0  0  0  0  0  0  0  0999 V2000
    1.5772   -1.5949    1.9290 O   0  0  0  0  0  0  0  0  0  0  0  0
    0.7263   -1.5343    0.8430 N   0  0  0  0  0  0  0  0  0  0  0  0
    0.9517   -0.5224    0.1227 C   0  0  0  0  0  0  0  0  0  0  0  0
    1.3026   -2.3946    2.3819 H   0  0  0  0  0  0  0  0  0  0  0  0
    1.7311    0.2005    0.3541 H   0  0  0  0  0  0  0  0  0  0  0  0
   -1.1359    0.7818   -2.2695 C   0  0  0  0  0  0  0  0  0  0  0  0
   -1.1359    0.7818   -0.7462 C   0  0  0  0  0  3  0  0  0  0  0  0
   -1.1359    2.1876   -0.1595 C   0  0  0  0  0  0  0  0  0  0  0  0
   -0.2545    1.2961   -2.6602 H   0  0  0  0  0  0  0  0  0  0  0  0
   -2.0174    1.2961   -2.6602 H   0  0  0  0  0  0  0  0  0  0  0  0
   -1.1359   -0.2331   -2.6707 H   0  0  0  0  0  0  0  0  0  0  0  0
   -0.0865    0.1262   -0.3094 H   0  0  0  0  0  0  0  0  0  0  0  0
   -2.0105    0.2354   -0.3822 H   0  0  0  0  0  0  0  0  0  0  0  0
   -2.0174    2.7462   -0.4836 H   0  0  0  0  0  0  0  0  0  0  0  0
   -1.1359    2.1669    0.9316 H   0  0  0  0  0  0  0  0  0  0  0  0
   -0.2545    2.7462   -0.4836 H   0  0  0  0  0  0  0  0  0  0  0  0
  1  2  1  0
  1  4  1  0
  2  3  2  3
  3  5  1  0
  3 12  1  0
  6  7  1  0
  6  9  1  0
  6 10  1  0
  6 11  1  0
  7  8  1  0
  7 13  1  0
  8 14  1  0
  8 15  1  0
  8 16  1  0
M  RAD  1   7   2
M  END
>  <reaction>  (19) 
rmg_rxn_15490

>  <mol_properties>  (19) 
{"1": {"label": "*4", "atom_type": "N3d"}, "2": {"label": "*3", "atom_type": "Cd"}, "5": {"label": "*0", "atom_type": "Cs"}, "6": {"label": "*1", "atom_type": "Cs"}, "11": {"label": "*2", "atom_type": "H0"}}

>  <type>  (19) 
unop_15

>  <geom_source>  (19) 
Heuristics

$$$$

     RDKit          3D

 16 14  0  0  0  0  0  0  0  0999 V2000
    2.9953   -0.0064   -0.1608 O   0  0  0  0  0  0  0  0  0  0  0  0
    1.6043   -0.2252   -0.0368 N   0  0  0  0  0  0  0  0  0  0  0  0
    0.8615    0.7012    0.3088 C   0  0  0  0  0  0  0  0  0  0  0  0
    3.3479   -0.8634   -0.4366 H   0  0  0  0  0  0  0  0  0  0  0  0
    1.1059    1.7287    0.5511 H   0  0  0  0  0  0  0  0  0  0  0  0
   -1.7078   -1.4122   -0.0789 C   0  0  0  0  0  0  0  0  0  0  0  0
   -1.6685   -0.0008    0.4426 C   0  0  0  0  0  3  0  0  0  0  0  0
   -2.4309    1.0043   -0.3807 C   0  0  0  0  0  0  0  0  0  0  0  0
   -2.7212   -1.8174   -0.0267 H   0  0  0  0  0  0  0  0  0  0  0  0
   -1.0545   -2.0557    0.5053 H   0  0  0  0  0  0  0  0  0  0  0  0
   -1.3851   -1.4446   -1.1174 H   0  0  0  0  0  0  0  0  0  0  0  0
   -0.3970    0.3604    0.3848 H   0  0  0  0  0  0  0  0  0  0  0  0
   -1.9064    0.0612    1.5033 H   0  0  0  0  0  0  0  0  0  0  0  0
   -2.2920    2.0120    0.0055 H   0  0  0  0  0  0  0  0  0  0  0  0
   -2.1018    0.9800   -1.4180 H   0  0  0  0  0  0  0  0  0  0  0  0
   -3.5011    0.7839   -0.3644 H   0  0  0  0  0  0  0  0  0  0  0  0
  1  2  1  0
  1  4  1  0
  2  3  2  3
  3  5  1  0
  3 12  1  0
  6  7  1  0
  6  9  1  0
  6 10  1  0
  6 11  1  0
  7  8  1  0
  7 13  1  0
  8 14  1  0
  8 15  1  0
  8 16  1  0
M  RAD  1   7   2
M  END
>  <reaction>  (20) 
rmg_rxn_15490

>  <mol_properties>  (20) 
{"1": {"label": "*4", "atom_type": "N3d"}, "2": {"label": "*3", "atom_type": "Cd"}, "5": {"label": "*0", "atom_type": "Cs"}, "6": {"label": "*1", "atom_type": "Cs"}, "11": {"label": "*2", "atom_type": "H0"}}

>  <type>  (20) 
unop_16

>  <geom_source>  (20) 
Heuristics

$$$$

     RDKit          3D

 16 14  0  0  0  0  0  0  0  0999 V2000
    2.2482   -0.7569    1.6388 O   0  0  0  0  0  0  0  0  0  0  0  0
    1.5909   -0.3785    0.4848 N   0  0  0  0  0  0  0  0  0  0  0  0
    0.5409   -1.0535    0.2967 C   0  0  0  0  0  0  0  0  0  0  0  0
    3.0116   -0.1766    1.6599 H   0  0  0  0  0  0  0  0  0  0  0  0
    0.2159   -1.8354    0.9798 H   0  0  0  0  0  0  0  0  0  0  0  0
   -1.5468    0.2507   -2.0956 C   0  0  0  0  0  0  0  0  0  0  0  0
   -1.5468    0.2507   -0.5722 C   0  0  0  0  0  3  0  0  0  0  0  0
   -1.5468    1.6566    0.0145 C   0  0  0  0  0  0  0  0  0  0  0  0
   -0.6653    0.7650   -2.4862 H   0  0  0  0  0  0  0  0  0  0  0  0
   -2.4282    0.7650   -2.4862 H   0  0  0  0  0  0  0  0  0  0  0  0
   -1.5468   -0.7642   -2.4967 H   0  0  0  0  0  0  0  0  0  0  0  0
   -0.4973   -0.4049   -0.1354 H   0  0  0  0  0  0  0  0  0  0  0  0
   -2.4213   -0.2956   -0.2082 H   0  0  0  0  0  0  0  0  0  0  0  0
   -2.4282    2.2151   -0.3096 H   0  0  0  0  0  0  0  0  0  0  0  0
   -1.5468    1.6359    1.1056 H   0  0  0  0  0  0  0  0  0  0  0  0
   -0.6653    2.2151   -0.3096 H   0  0  0  0  0  0  0  0  0  0  0  0
  1  2  1  0
  1  4  1  0
  2  3  2  3
  3  5  1  0
  3 12  1  0
  6  7  1  0
  6  9  1  0
  6 10  1  0
  6 11  1  0
  7  8  1  0
  7 13  1  0
  8 14  1  0
  8 15  1  0
  8 16  1  0
M  RAD  1   7   2
M  END
>  <reaction>  (21) 
rmg_rxn_15490

>  <mol_properties>  (21) 
{"1": {"label": "*4", "atom_type": "N3d"}, "2": {"label": "*3", "atom_type": "Cd"}, "5": {"label": "*0", "atom_type": "Cs"}, "6": {"label": "*1", "atom_type": "Cs"}, "11": {"label": "*2", "atom_type": "H0"}}

>  <type>  (21) 
unop_17

>  <geom_source>  (21) 
Heuristics

$$$$

     RDKit          3D

 16 14  0  0  0  0  0  0  0  0999 V2000
    2.9944    0.0068    0.1624 O   0  0  0  0  0  0  0  0  0  0  0  0
    1.6031    0.2248    0.0407 N   0  0  0  0  0  0  0  0  0  0  0  0
    0.8621   -0.6982   -0.3177 C   0  0  0  0  0  0  0  0  0  0  0  0
    3.3453    0.8608    0.4493 H   0  0  0  0  0  0  0  0  0  0  0  0
    1.1088   -1.7216   -0.5744 H   0  0  0  0  0  0  0  0  0  0  0  0
   -1.7098    1.4118    0.0768 C   0  0  0  0  0  0  0  0  0  0  0  0
   -1.6695   -0.0003   -0.4427 C   0  0  0  0  0  3  0  0  0  0  0  0
   -2.4264   -1.0057    0.3854 C   0  0  0  0  0  0  0  0  0  0  0  0
   -1.0623    2.0564   -0.5125 H   0  0  0  0  0  0  0  0  0  0  0  0
   -1.3808    1.4468    1.1131 H   0  0  0  0  0  0  0  0  0  0  0  0
   -2.7248    1.8137    0.0302 H   0  0  0  0  0  0  0  0  0  0  0  0
   -0.3971   -0.3590   -0.3893 H   0  0  0  0  0  0  0  0  0  0  0  0
   -1.9116   -0.0646   -1.5023 H   0  0  0  0  0  0  0  0  0  0  0  0
   -3.4971   -0.7877    0.3732 H   0  0  0  0  0  0  0  0  0  0  0  0
   -2.2867   -2.0138    0.0003 H   0  0  0  0  0  0  0  0  0  0  0  0
   -2.0930   -0.9789    1.4212 H   0  0  0  0  0  0  0  0  0  0  0  0
  1  2  1  0
  1  4  1  0
  2  3  2  3
  3  5  1  0
  3 12  1  0
  6  7  1  0
  6  9  1  0
  6 10  1  0
  6 11  1  0
  7  8  1  0
  7 13  1  0
  8 14  1  0
  8 15  1  0
  8 16  1  0
M  RAD  1   7   2
M  END
>  <reaction>  (22) 
rmg_rxn_15490

>  <mol_properties>  (22) 
{"1": {"label": "*4", "atom_type": "N3d"}, "2": {"label": "*3", "atom_type": "Cd"}, "5": {"label": "*0", "atom_type": "Cs"}, "6": {"label": "*1", "atom_type": "Cs"}, "11": {"label": "*2", "atom_type": "H0"}}

>  <type>  (22) 
unop_18

>  <geom_source>  (22) 
Heuristics

$$$$

     RDKit          3D

 16 14  0  0  0  0  0  0  0  0999 V2000
    1.9778   -2.1884    0.6737 O   0  0  0  0  0  0  0  0  0  0  0  0
    1.1557   -1.3225   -0.0200 N   0  0  0  0  0  0  0  0  0  0  0  0
    0.7269   -0.3891    0.7137 C   0  0  0  0  0  0  0  0  0  0  0  0
    2.2278   -2.8357    0.0115 H   0  0  0  0  0  0  0  0  0  0  0  0
    0.9902   -0.3016    1.7656 H   0  0  0  0  0  0  0  0  0  0  0  0
   -1.3608    0.9152   -1.6786 C   0  0  0  0  0  0  0  0  0  0  0  0
   -1.3608    0.9152   -0.1553 C   0  0  0  0  0  3  0  0  0  0  0  0
   -1.3608    2.3210    0.4315 C   0  0  0  0  0  0  0  0  0  0  0  0
   -0.4793    1.4294   -2.0692 H   0  0  0  0  0  0  0  0  0  0  0  0
   -2.2422    1.4294   -2.0692 H   0  0  0  0  0  0  0  0  0  0  0  0
   -1.3608   -0.0997   -2.0798 H   0  0  0  0  0  0  0  0  0  0  0  0
   -0.3113    0.2596    0.2815 H   0  0  0  0  0  0  0  0  0  0  0  0
   -2.2353    0.3688    0.2087 H   0  0  0  0  0  0  0  0  0  0  0  0
   -2.2422    2.8796    0.1073 H   0  0  0  0  0  0  0  0  0  0  0  0
   -1.3608    2.3003    1.5226 H   0  0  0  0  0  0  0  0  0  0  0  0
   -0.4793    2.8796    0.1073 H   0  0  0  0  0  0  0  0  0  0  0  0
  1  2  1  0
  1  4  1  0
  2  3  2  3
  3  5  1  0
  3 12  1  0
  6  7  1  0
  6  9  1  0
  6 10  1  0
  6 11  1  0
  7  8  1  0
  7 13  1  0
  8 14  1  0
  8 15  1  0
  8 16  1  0
M  RAD  1   7   2
M  END
>  <reaction>  (23) 
rmg_rxn_15490

>  <mol_properties>  (23) 
{"1": {"label": "*4", "atom_type": "N3d"}, "2": {"label": "*3", "atom_type": "Cd"}, "5": {"label": "*0", "atom_type": "Cs"}, "6": {"label": "*1", "atom_type": "Cs"}, "11": {"label": "*2", "atom_type": "H0"}}

>  <type>  (23) 
unop_19

>  <geom_source>  (23) 
Heuristics

$$$$

     RDKit          3D

 16 14  0  0  0  0  0  0  0  0999 V2000
    2.5422   -0.7814    1.1440 O   0  0  0  0  0  0  0  0  0  0  0  0
    1.5815   -0.5567    0.1777 N   0  0  0  0  0  0  0  0  0  0  0  0
    0.4523   -1.0039    0.5219 C   0  0  0  0  0  0  0  0  0  0  0  0
    3.3349   -0.3998    0.7619 H   0  0  0  0  0  0  0  0  0  0  0  0
    0.2843   -1.5033    1.4737 H   0  0  0  0  0  0  0  0  0  0  0  0
   -1.6354    0.3003   -1.8704 C   0  0  0  0  0  0  0  0  0  0  0  0
   -1.6354    0.3003   -0.3471 C   0  0  0  0  0  3  0  0  0  0  0  0
   -1.6354    1.7061    0.2396 C   0  0  0  0  0  0  0  0  0  0  0  0
   -0.7539    0.8146   -2.2610 H   0  0  0  0  0  0  0  0  0  0  0  0
   -2.5168    0.8146   -2.2610 H   0  0  0  0  0  0  0  0  0  0  0  0
   -1.6354   -0.7146   -2.2716 H   0  0  0  0  0  0  0  0  0  0  0  0
   -0.5859   -0.3553    0.0897 H   0  0  0  0  0  0  0  0  0  0  0  0
   -2.5099   -0.2461    0.0169 H   0  0  0  0  0  0  0  0  0  0  0  0
   -2.5168    2.2647   -0.0845 H   0  0  0  0  0  0  0  0  0  0  0  0
   -1.6354    1.6854    1.3307 H   0  0  0  0  0  0  0  0  0  0  0  0
   -0.7539    2.2647   -0.0845 H   0  0  0  0  0  0  0  0  0  0  0  0
  1  2  1  0
  1  4  1  0
  2  3  2  3
  3  5  1  0
  3 12  1  0
  6  7  1  0
  6  9  1  0
  6 10  1  0
  6 11  1  0
  7  8  1  0
  7 13  1  0
  8 14  1  0
  8 15  1  0
  8 16  1  0
M  RAD  1   7   2
M  END
>  <reaction>  (24) 
rmg_rxn_15490

>  <mol_properties>  (24) 
{"1": {"label": "*4", "atom_type": "N3d"}, "2": {"label": "*3", "atom_type": "Cd"}, "5": {"label": "*0", "atom_type": "Cs"}, "6": {"label": "*1", "atom_type": "Cs"}, "11": {"label": "*2", "atom_type": "H0"}}

>  <type>  (24) 
unop_20

>  <geom_source>  (24) 
Heuristics

$$$$

     RDKit          3D

 16 14  0  0  0  0  0  0  0  0999 V2000
    1.9107   -1.2871    1.8796 O   0  0  0  0  0  0  0  0  0  0  0  0
    0.7258   -1.2686    1.1707 N   0  0  0  0  0  0  0  0  0  0  0  0
    0.8489   -0.6801    0.0608 C   0  0  0  0  0  0  0  0  0  0  0  0
    1.6803   -1.7542    2.6851 H   0  0  0  0  0  0  0  0  0  0  0  0
    1.7898   -0.2475   -0.2727 H   0  0  0  0  0  0  0  0  0  0  0  0
   -1.2388    0.6242   -2.3315 C   0  0  0  0  0  0  0  0  0  0  0  0
   -1.2388    0.6242   -0.8081 C   0  0  0  0  0  3  0  0  0  0  0  0
   -1.2388    2.0300   -0.2214 C   0  0  0  0  0  0  0  0  0  0  0  0
   -0.3573    1.1384   -2.7221 H   0  0  0  0  0  0  0  0  0  0  0  0
   -2.1203    1.1384   -2.7221 H   0  0  0  0  0  0  0  0  0  0  0  0
   -1.2388   -0.3907   -2.7326 H   0  0  0  0  0  0  0  0  0  0  0  0
   -0.1894   -0.0314   -0.3713 H   0  0  0  0  0  0  0  0  0  0  0  0
   -2.1133    0.0778   -0.4441 H   0  0  0  0  0  0  0  0  0  0  0  0
   -2.1203    2.5886   -0.5456 H   0  0  0  0  0  0  0  0  0  0  0  0
   -1.2388    2.0093    0.8697 H   0  0  0  0  0  0  0  0  0  0  0  0
   -0.3573    2.5886   -0.5456 H   0  0  0  0  0  0  0  0  0  0  0  0
  1  2  1  0
  1  4  1  0
  2  3  2  3
  3  5  1  0
  3 12  1  0
  6  7  1  0
  6  9  1  0
  6 10  1  0
  6 11  1  0
  7  8  1  0
  7 13  1  0
  8 14  1  0
  8 15  1  0
  8 16  1  0
M  RAD  1   7   2
M  END
>  <reaction>  (25) 
rmg_rxn_15490

>  <mol_properties>  (25) 
{"1": {"label": "*4", "atom_type": "N3d"}, "2": {"label": "*3", "atom_type": "Cd"}, "5": {"label": "*0", "atom_type": "Cs"}, "6": {"label": "*1", "atom_type": "Cs"}, "11": {"label": "*2", "atom_type": "H0"}}

>  <type>  (25) 
unop_21

>  <geom_source>  (25) 
Heuristics

$$$$

     RDKit          3D

 16 14  0  0  0  0  0  0  0  0999 V2000
    2.3968   -1.7374    0.4771 O   0  0  0  0  0  0  0  0  0  0  0  0
    1.3276   -1.0694   -0.0863 N   0  0  0  0  0  0  0  0  0  0  0  0
    0.5570   -0.5880    0.7900 C   0  0  0  0  0  0  0  0  0  0  0  0
    2.8916   -2.0465   -0.2843 H   0  0  0  0  0  0  0  0  0  0  0  0
    0.7383   -0.7012    1.8567 H   0  0  0  0  0  0  0  0  0  0  0  0
   -1.5307    0.7163   -1.6023 C   0  0  0  0  0  0  0  0  0  0  0  0
   -1.5307    0.7163   -0.0789 C   0  0  0  0  0  3  0  0  0  0  0  0
   -1.5307    2.1221    0.5078 C   0  0  0  0  0  0  0  0  0  0  0  0
   -0.6492    1.2305   -1.9929 H   0  0  0  0  0  0  0  0  0  0  0  0
   -2.4121    1.2305   -1.9929 H   0  0  0  0  0  0  0  0  0  0  0  0
   -1.5307   -0.2986   -2.0034 H   0  0  0  0  0  0  0  0  0  0  0  0
   -0.4812    0.0606    0.3579 H   0  0  0  0  0  0  0  0  0  0  0  0
   -2.4052    0.1699    0.2851 H   0  0  0  0  0  0  0  0  0  0  0  0
   -2.4121    2.6807    0.1836 H   0  0  0  0  0  0  0  0  0  0  0  0
   -1.5307    2.1014    1.5989 H   0  0  0  0  0  0  0  0  0  0  0  0
   -0.6492    2.6807    0.1836 H   0  0  0  0  0  0  0  0  0  0  0  0
  1  2  1  0
  1  4  1  0
  2  3  2  3
  3  5  1  0
  3 12  1  0
  6  7  1  0
  6  9  1  0
  6 10  1  0
  6 11  1  0
  7  8  1  0
  7 13  1  0
  8 14  1  0
  8 15  1  0
  8 16  1  0
M  RAD  1   7   2
M  END
>  <reaction>  (26) 
rmg_rxn_15490

>  <mol_properties>  (26) 
{"1": {"label": "*4", "atom_type": "N3d"}, "2": {"label": "*3", "atom_type": "Cd"}, "5": {"label": "*0", "atom_type": "Cs"}, "6": {"label": "*1", "atom_type": "Cs"}, "11": {"label": "*2", "atom_type": "H0"}}

>  <type>  (26) 
unop_22

>  <geom_source>  (26) 
Heuristics

$$$$

     RDKit          3D

 16 14  0  0  0  0  0  0  0  0999 V2000
    2.9950    0.0066    0.1614 O   0  0  0  0  0  0  0  0  0  0  0  0
    1.6039    0.2250    0.0386 N   0  0  0  0  0  0  0  0  0  0  0  0
    0.8618   -0.6998   -0.3126 C   0  0  0  0  0  0  0  0  0  0  0  0
    3.3469    0.8623    0.4419 H   0  0  0  0  0  0  0  0  0  0  0  0
    1.1070   -1.7257   -0.5612 H   0  0  0  0  0  0  0  0  0  0  0  0
   -1.7090    1.4120    0.0780 C   0  0  0  0  0  0  0  0  0  0  0  0
   -1.6690    0.0003   -0.4427 C   0  0  0  0  0  3  0  0  0  0  0  0
   -2.4288   -1.0050    0.3827 C   0  0  0  0  0  0  0  0  0  0  0  0
   -2.7232    1.8155    0.0282 H   0  0  0  0  0  0  0  0  0  0  0  0
   -1.0584    2.0562   -0.5083 H   0  0  0  0  0  0  0  0  0  0  0  0
   -1.3838    1.4456    1.1156 H   0  0  0  0  0  0  0  0  0  0  0  0
   -0.3970   -0.3594   -0.3868 H   0  0  0  0  0  0  0  0  0  0  0  0
   -1.9087   -0.0626   -1.5029 H   0  0  0  0  0  0  0  0  0  0  0  0
   -2.0978   -0.9797    1.4193 H   0  0  0  0  0  0  0  0  0  0  0  0
   -3.4993   -0.7858    0.3683 H   0  0  0  0  0  0  0  0  0  0  0  0
   -2.2895   -2.0129   -0.0031 H   0  0  0  0  0  0  0  0  0  0  0  0
  1  2  1  0
  1  4  1  0
  2  3  2  3
  3  5  1  0
  3 12  1  0
  6  7  1  0
  6  9  1  0
  6 10  1  0
  6 11  1  0
  7  8  1  0
  7 13  1  0
  8 14  1  0
  8 15  1  0
  8 16  1  0
M  RAD  1   7   2
M  END
>  <reaction>  (27) 
rmg_rxn_15490

>  <mol_properties>  (27) 
{"1": {"label": "*4", "atom_type": "N3d"}, "2": {"label": "*3", "atom_type": "Cd"}, "5": {"label": "*0", "atom_type": "Cs"}, "6": {"label": "*1", "atom_type": "Cs"}, "11": {"label": "*2", "atom_type": "H0"}}

>  <type>  (27) 
unop_23

>  <geom_source>  (27) 
Heuristics

$$$$

     RDKit          3D

 16 14  0  0  0  0  0  0  0  0999 V2000
    2.3252    0.3485    0.7588 O   0  0  0  0  0  0  0  0  0  0  0  0
    2.4887    0.6750   -0.5666 N   0  0  0  0  0  0  0  0  0  0  0  0
   -1.0205   -1.5283    0.5388 C   0  0  0  0  0  0  0  0  0  0  0  0
   -1.5268    0.8807   -0.0063 C   0  0  0  0  0  0  0  0  0  0  0  0
   -0.4470   -0.1900    0.0897 C   0  0  0  0  0  3  0  0  0  0  0  0
    1.5183    0.5127   -1.4032 C   0  0  0  0  0  0  0  0  0  0  0  0
   -1.7895   -1.8763   -0.1827 H   0  0  0  0  0  0  0  0  0  0  0  0
   -0.2062   -2.2812    0.5793 H   0  0  0  0  0  0  0  0  0  0  0  0
   -1.4745   -1.4352    1.5484 H   0  0  0  0  0  0  0  0  0  0  0  0
   -1.9962    1.0467    0.9868 H   0  0  0  0  0  0  0  0  0  0  0  0
   -1.0706    1.8317   -0.3513 H   0  0  0  0  0  0  0  0  0  0  0  0
   -2.3047    0.5749   -0.7373 H   0  0  0  0  0  0  0  0  0  0  0  0
    0.3469    0.1365    0.7955 H   0  0  0  0  0  0  0  0  0  0  0  0
    1.6554    0.7721   -2.4440 H   0  0  0  0  0  0  0  0  0  0  0  0
    0.4123    0.0542   -1.0159 H   0  0  0  0  0  0  0  0  0  0  0  0
    3.0892    0.4778    1.4099 H   0  0  0  0  0  0  0  0  0  0  0  0
  1  2  1  0
  1 16  1  0
  2  6  2  3
  3  5  1  0
  3  7  1  0
  3  8  1  0
  3  9  1  0
  4  5  1  0
  4 10  1  0
  4 11  1  0
  4 12  1  0
  5 13  1  0
  6 14  1  0
  6 15  1  0
M  RAD  1   5   2
M  END
>  <reaction>  (28) 
rmg_rxn_15490

>  <mol_properties>  (28) 
{"1": {"label": "*4", "atom_type": "N3d"}, "2": {"label": "*3", "atom_type": "Cd"}, "5": {"label": "*0", "atom_type": "Cs"}, "6": {"label": "*1", "atom_type": "Cs"}, "11": {"label": "*2", "atom_type": "H0"}}

>  <type>  (28) 
unop_24

>  <geom_source>  (28) 
AutoTST

$$$$

     RDKit          3D

 16 14  0  0  0  0  0  0  0  0999 V2000
    2.6184   -1.1629    0.6737 O   0  0  0  0  0  0  0  0  0  0  0  0
    1.4796   -0.8039   -0.0200 N   0  0  0  0  0  0  0  0  0  0  0  0
    0.4527   -0.8279    0.7137 C   0  0  0  0  0  0  0  0  0  0  0  0
    3.3098   -1.1038    0.0115 H   0  0  0  0  0  0  0  0  0  0  0  0
    0.4896   -1.1028    1.7656 H   0  0  0  0  0  0  0  0  0  0  0  0
   -1.6349    0.4764   -1.6786 C   0  0  0  0  0  0  0  0  0  0  0  0
   -1.6349    0.4764   -0.1553 C   0  0  0  0  0  3  0  0  0  0  0  0
   -1.6349    1.8822    0.4315 C   0  0  0  0  0  0  0  0  0  0  0  0
   -0.7535    0.9906   -2.0692 H   0  0  0  0  0  0  0  0  0  0  0  0
   -2.5164    0.9906   -2.0692 H   0  0  0  0  0  0  0  0  0  0  0  0
   -1.6349   -0.5385   -2.0798 H   0  0  0  0  0  0  0  0  0  0  0  0
   -0.5855   -0.1793    0.2815 H   0  0  0  0  0  0  0  0  0  0  0  0
   -2.5095   -0.0700    0.2087 H   0  0  0  0  0  0  0  0  0  0  0  0
   -2.5164    2.4407    0.1073 H   0  0  0  0  0  0  0  0  0  0  0  0
   -1.6349    1.8615    1.5226 H   0  0  0  0  0  0  0  0  0  0  0  0
   -0.7535    2.4407    0.1073 H   0  0  0  0  0  0  0  0  0  0  0  0
  1  2  1  0
  1  4  1  0
  2  3  2  3
  3  5  1  0
  3 12  1  0
  6  7  1  0
  6  9  1  0
  6 10  1  0
  6 11  1  0
  7  8  1  0
  7 13  1  0
  8 14  1  0
  8 15  1  0
  8 16  1  0
M  RAD  1   7   2
M  END
>  <reaction>  (29) 
rmg_rxn_15490

>  <mol_properties>  (29) 
{"1": {"label": "*4", "atom_type": "N3d"}, "2": {"label": "*3", "atom_type": "Cd"}, "5": {"label": "*0", "atom_type": "Cs"}, "6": {"label": "*1", "atom_type": "Cs"}, "11": {"label": "*2", "atom_type": "H0"}}

>  <type>  (29) 
unop_25

>  <geom_source>  (29) 
gaussian_log

$$$$
