
     RDKit          3D

  8  7  0  0  0  0  0  0  0  0999 V2000
    0.9548    0.1194   -0.0790 C   0  0  0  0  0  0  0  0  0  0  0  0
   -0.4838   -0.2649    0.0193 C   0  0  0  0  0  0  0  0  0  0  0  0
   -0.8933   -1.1081    0.8664 N   0  0  0  0  0  0  0  0  0  0  0  0
    1.3360   -0.0983   -1.0800 H   0  0  0  0  0  0  0  0  0  0  0  0
    1.0698    1.1948    0.0786 H   0  0  0  0  0  0  0  0  0  0  0  0
    1.5426   -0.4219    0.6602 H   0  0  0  0  0  0  0  0  0  0  0  0
   -1.1575    0.2324   -0.6905 H   0  0  0  0  0  0  0  0  0  0  0  0
   -1.8989   -1.2455    0.7886 H   0  0  0  0  0  0  0  0  0  0  0  0
  1  2  1  0
  1  4  1  0
  1  5  1  0
  1  6  1  0
  2  3  2  3
  2  7  1  0
  3  8  1  0
M  END
>  <reaction>  (1) 
rmg_rxn_16524

>  <mol_properties>  (1) 
{"2": {"label": "donator", "atom_type": "N3d"}, "7": {"label": "d_hydrogen", "atom_type": "H0"}}

>  <type>  (1) 
r1h

$$$$

     RDKit          3D

 11 10  0  0  0  0  0  0  0  0999 V2000
   -1.9423    0.2880    0.5808 C   0  0  0  0  0  0  0  0  0  0  0  0
   -0.3826    1.1347    0.2736 S   0  0  0  0  0  0  0  0  0  0  0  0
   -0.0855    1.8779    1.9329 C   0  0  0  0  0  0  0  0  0  0  0  0
    0.1622    0.8686    2.9726 C   0  0  0  0  0  3  0  0  0  0  0  0
   -2.7113    0.9909    0.9035 H   0  0  0  0  0  0  0  0  0  0  0  0
   -1.8284   -0.5029    1.3208 H   0  0  0  0  0  0  0  0  0  0  0  0
   -2.2503   -0.1583   -0.3638 H   0  0  0  0  0  0  0  0  0  0  0  0
    0.7847    2.5160    1.7689 H   0  0  0  0  0  0  0  0  0  0  0  0
   -0.9380    2.5164    2.1676 H   0  0  0  0  0  0  0  0  0  0  0  0
    1.1155    0.3601    3.0172 H   0  0  0  0  0  0  0  0  0  0  0  0
   -0.6473    0.4888    3.5808 H   0  0  0  0  0  0  0  0  0  0  0  0
  1  2  1  0
  1  5  1  0
  1  6  1  0
  1  7  1  0
  2  3  1  0
  3  4  1  0
  3  8  1  0
  3  9  1  0
  4 10  1  0
  4 11  1  0
M  RAD  1   4   2
M  END
>  <reaction>  (2) 
rmg_rxn_16524

>  <mol_properties>  (2) 
{"3": {"label": "acceptor", "atom_type": "Cs"}}

>  <type>  (2) 
r2

$$$$

     RDKit          3D

 12 11  0  0  0  0  0  0  0  0999 V2000
    1.8075    0.1979    0.4695 C   0  0  0  0  0  0  0  0  0  0  0  0
    1.0072   -0.8859   -0.7259 S   0  0  0  0  0  0  0  0  0  0  0  0
   -0.7258   -0.6904   -0.2447 C   0  0  0  0  0  0  0  0  0  0  0  0
   -1.0856   -1.2776    1.1108 C   0  0  0  0  0  0  0  0  0  0  0  0
    1.7126   -0.1777    1.4878 H   0  0  0  0  0  0  0  0  0  0  0  0
    1.4024    1.2089    0.4095 H   0  0  0  0  0  0  0  0  0  0  0  0
    2.8647    0.2298    0.2095 H   0  0  0  0  0  0  0  0  0  0  0  0
   -1.2866   -1.1892   -1.0369 H   0  0  0  0  0  0  0  0  0  0  0  0
   -0.9814    0.3707   -0.2917 H   0  0  0  0  0  0  0  0  0  0  0  0
   -0.5492   -0.7768    1.9180 H   0  0  0  0  0  0  0  0  0  0  0  0
   -0.8418   -2.3397    1.1503 H   0  0  0  0  0  0  0  0  0  0  0  0
   -2.1545   -1.1604    1.3035 H   0  0  0  0  0  0  0  0  0  0  0  0
  1  2  1  0
  1  5  1  0
  1  6  1  0
  1  7  1  0
  2  3  1  0
  3  4  1  0
  3  8  1  0
  3  9  1  0
  4 10  1  0
  4 11  1  0
  4 12  1  0
M  END
>  <reaction>  (3) 
rmg_rxn_16524

>  <mol_properties>  (3) 
{"0": {"label": "a_hydrogen", "atom_type": "H0"}, "4": {"label": "acceptor", "atom_type": "Cs"}}

>  <type>  (3) 
r2h

$$$$

     RDKit          3D

 19 17  0  0  0  0  0  0  0  0999 V2000
    0.7453   -1.1601   -3.4540 C   0  0  0  0  0  0  0  0  0  0  0  0
    1.0047   -0.8596   -2.0105 C   0  0  0  0  0  0  0  0  0  0  0  0
    1.2441    0.3050   -1.6012 N   0  0  0  0  0  0  0  0  0  0  0  0
    1.4710   -1.8905   -3.8192 H   0  0  0  0  0  0  0  0  0  0  0  0
   -0.2460   -1.6060   -3.5653 H   0  0  0  0  0  0  0  0  0  0  0  0
    0.8068   -0.2545   -4.0546 H   0  0  0  0  0  0  0  0  0  0  0  0
    0.9600   -1.7134   -1.3231 H   0  0  0  0  0  0  0  0  0  0  0  0
    1.4050    0.2605   -0.4029 H   0  0  0  0  0  0  0  0  0  0  0  0
   -1.7765    0.6749    0.0020 C   0  0  0  0  0  0  0  0  0  0  0  0
   -1.1484   -0.5240    1.1938 S   0  0  0  0  0  0  0  0  0  0  0  0
    0.3689    0.3132    1.7370 C   0  0  0  0  0  0  0  0  0  0  0  0
    1.6004   -0.0209    0.9462 C   0  0  0  0  0  3  0  0  0  0  0  0
   -1.0531    0.8671   -0.7887 H   0  0  0  0  0  0  0  0  0  0  0  0
   -2.0428    1.6074    0.4997 H   0  0  0  0  0  0  0  0  0  0  0  0
   -2.6759    0.2425   -0.4354 H   0  0  0  0  0  0  0  0  0  0  0  0
    0.1793    1.3879    1.7450 H   0  0  0  0  0  0  0  0  0  0  0  0
    0.5042    0.0131    2.7814 H   0  0  0  0  0  0  0  0  0  0  0  0
    1.8466   -1.0809    0.9190 H   0  0  0  0  0  0  0  0  0  0  0  0
    2.4643    0.6059    1.1641 H   0  0  0  0  0  0  0  0  0  0  0  0
  1  2  1  0
  1  4  1  0
  1  5  1  0
  1  6  1  0
  2  3  2  3
  2  7  1  0
  3  8  1  0
  9 10  1  0
  9 13  1  0
  9 14  1  0
  9 15  1  0
 10 11  1  0
 11 12  1  0
 11 16  1  0
 11 17  1  0
 12 18  1  0
 12 19  1  0
M  RAD  1  12   2
M  END
>  <reaction>  (4) 
rmg_rxn_16524

>  <mol_properties>  (4) 
{"1": {"label": "*0", "atom_type": "Cd"}, "2": {"label": "*1", "atom_type": "N3d"}, "7": {"label": "*2", "atom_type": "H0"}, "10": {"label": "*4", "atom_type": "Cs"}, "11": {"label": "*3", "atom_type": "Cs"}}

>  <type>  (4) 
ts

$$$$

     RDKit          3D

 19 17  0  0  0  0  0  0  0  0999 V2000
   -3.5461   -0.8905    0.2150 C   0  0  0  0  0  0  0  0  0  0  0  0
   -2.5958    0.2618    0.0027 C   0  0  0  0  0  0  0  0  0  0  0  0
   -2.8083    1.4352   -0.2337 N   0  0  0  0  0  2  0  0  0  0  0  0
   -3.3711   -1.3274    1.1966 H   0  0  0  0  0  0  0  0  0  0  0  0
   -4.5739   -0.5453    0.1462 H   0  0  0  0  0  0  0  0  0  0  0  0
   -3.3647   -1.6507   -0.5430 H   0  0  0  0  0  0  0  0  0  0  0  0
   -1.5146   -0.0874    0.0894 H   0  0  0  0  0  0  0  0  0  0  0  0
    2.4733    2.6833    0.1504 H   0  0  0  0  0  0  0  0  0  0  0  0
    0.1029   -0.8302   -0.2475 C   0  0  0  0  0  0  0  0  0  0  0  0
    1.8872   -1.0161    0.1092 S   0  0  0  0  0  0  0  0  0  0  0  0
    2.4796    0.6223   -0.4327 C   0  0  0  0  0  0  0  0  0  0  0  0
    1.9782    1.7583    0.4385 C   0  0  0  0  0  0  0  0  0  0  0  0
   -0.0040   -0.4590   -1.2634 H   0  0  0  0  0  0  0  0  0  0  0  0
   -0.3360   -0.1495    0.4800 H   0  0  0  0  0  0  0  0  0  0  0  0
   -0.3216   -1.8254   -0.1550 H   0  0  0  0  0  0  0  0  0  0  0  0
    3.5649    0.5429   -0.3801 H   0  0  0  0  0  0  0  0  0  0  0  0
    2.1827    0.7518   -1.4740 H   0  0  0  0  0  0  0  0  0  0  0  0
    2.1988    1.5589    1.4848 H   0  0  0  0  0  0  0  0  0  0  0  0
    0.9057    1.9021    0.3259 H   0  0  0  0  0  0  0  0  0  0  0  0
  1  2  1  0
  1  4  1  0
  1  5  1  0
  1  6  1  0
  2  3  2  0
  2  7  1  0
  8 12  1  0
  9 10  1  0
  9 13  1  0
  9 14  1  0
  9 15  1  0
 10 11  1  0
 11 12  1  0
 11 16  1  0
 11 17  1  0
 12 18  1  0
 12 19  1  0
M  RAD  1   3   2
M  END
>  <reaction>  (5) 
rmg_rxn_16524

>  <mol_properties>  (5) 
{"1": {"label": "*0", "atom_type": "Cd"}, "2": {"label": "*1", "atom_type": "N3d"}, "7": {"label": "*2", "atom_type": "H0"}, "10": {"label": "*4", "atom_type": "Cs"}, "11": {"label": "*3", "atom_type": "Cs"}}

>  <type>  (5) 
unop_1

>  <geom_source>  (5) 
crest_best.xyz

$$$$

     RDKit          3D

 19 17  0  0  0  0  0  0  0  0999 V2000
   -1.0184   -1.2454   -3.2189 C   0  0  0  0  0  0  0  0  0  0  0  0
   -1.0184   -1.2454   -1.7266 C   0  0  0  0  0  0  0  0  0  0  0  0
   -1.0184   -0.1728   -1.0589 N   0  0  0  0  0  0  0  0  0  0  0  0
   -0.1402   -1.7754   -3.5963 H   0  0  0  0  0  0  0  0  0  0  0  0
   -1.8967   -1.7754   -3.5963 H   0  0  0  0  0  0  0  0  0  0  0  0
   -1.0184   -0.2248   -3.5975 H   0  0  0  0  0  0  0  0  0  0  0  0
   -1.0184   -2.2351   -1.2519 H   0  0  0  0  0  0  0  0  0  0  0  0
   -1.0184   -0.4029    0.1407 H   0  0  0  0  0  0  0  0  0  0  0  0
    1.6194    0.4802   -0.2241 C   0  0  0  0  0  0  0  0  0  0  0  0
    0.9740    1.3248    1.2300 S   0  0  0  0  0  0  0  0  0  0  0  0
    0.2069   -0.0597    2.1062 C   0  0  0  0  0  0  0  0  0  0  0  0
   -1.0184   -0.6496    1.4264 C   0  0  0  0  0  3  0  0  0  0  0  0
    0.8222    0.0989   -0.8614 H   0  0  0  0  0  0  0  0  0  0  0  0
    2.2843   -0.3352    0.0634 H   0  0  0  0  0  0  0  0  0  0  0  0
    2.1921    1.2149   -0.7884 H   0  0  0  0  0  0  0  0  0  0  0  0
    0.9666   -0.8260    2.2769 H   0  0  0  0  0  0  0  0  0  0  0  0
   -0.0590    0.3492    3.0824 H   0  0  0  0  0  0  0  0  0  0  0  0
   -1.7803    0.1146    1.2694 H   0  0  0  0  0  0  0  0  0  0  0  0
   -1.4472   -1.4448    2.0406 H   0  0  0  0  0  0  0  0  0  0  0  0
  1  2  1  0
  1  4  1  0
  1  5  1  0
  1  6  1  0
  2  3  2  3
  2  7  1  0
  3  8  1  0
  9 10  1  0
  9 13  1  0
  9 14  1  0
  9 15  1  0
 10 11  1  0
 11 12  1  0
 11 16  1  0
 11 17  1  0
 12 18  1  0
 12 19  1  0
M  RAD  1  12   2
M  END
>  <reaction>  (6) 
rmg_rxn_16524

>  <mol_properties>  (6) 
{"1": {"label": "*0", "atom_type": "Cd"}, "2": {"label": "*1", "atom_type": "N3d"}, "7": {"label": "*2", "atom_type": "H0"}, "10": {"label": "*4", "atom_type": "Cs"}, "11": {"label": "*3", "atom_type": "Cs"}}

>  <type>  (6) 
unop_2

>  <geom_source>  (6) 
Heuristics

$$$$

     RDKit          3D

 19 17  0  0  0  0  0  0  0  0999 V2000
   -0.9120    0.2927   -3.0069 C   0  0  0  0  0  0  0  0  0  0  0  0
   -0.9120    0.2927   -1.5146 C   0  0  0  0  0  0  0  0  0  0  0  0
   -0.9120    1.3653   -0.8469 N   0  0  0  0  0  0  0  0  0  0  0  0
   -0.0337   -0.2373   -3.3843 H   0  0  0  0  0  0  0  0  0  0  0  0
   -1.7903   -0.2373   -3.3843 H   0  0  0  0  0  0  0  0  0  0  0  0
   -0.9120    1.3133   -3.3855 H   0  0  0  0  0  0  0  0  0  0  0  0
   -0.9120   -0.6970   -1.0400 H   0  0  0  0  0  0  0  0  0  0  0  0
   -0.9120    1.1352    0.3527 H   0  0  0  0  0  0  0  0  0  0  0  0
    0.8006   -0.8479   -0.6002 C   0  0  0  0  0  0  0  0  0  0  0  0
    1.3710   -0.6617    1.0982 S   0  0  0  0  0  0  0  0  0  0  0  0
   -0.2046   -0.4198    1.9540 C   0  0  0  0  0  0  0  0  0  0  0  0
   -0.9120    0.8885    1.6384 C   0  0  0  0  0  3  0  0  0  0  0  0
    0.3632    0.0722   -0.9864 H   0  0  0  0  0  0  0  0  0  0  0  0
    0.0791   -1.6620   -0.6806 H   0  0  0  0  0  0  0  0  0  0  0  0
    1.6741   -1.0952   -1.2018 H   0  0  0  0  0  0  0  0  0  0  0  0
   -0.8500   -1.2749    1.7409 H   0  0  0  0  0  0  0  0  0  0  0  0
    0.0506   -0.4687    3.0138 H   0  0  0  0  0  0  0  0  0  0  0  0
   -0.2703    1.7406    1.8645 H   0  0  0  0  0  0  0  0  0  0  0  0
   -1.8266    0.9775    2.2291 H   0  0  0  0  0  0  0  0  0  0  0  0
  1  2  1  0
  1  4  1  0
  1  5  1  0
  1  6  1  0
  2  3  2  3
  2  7  1  0
  3  8  1  0
  9 10  1  0
  9 13  1  0
  9 14  1  0
  9 15  1  0
 10 11  1  0
 11 12  1  0
 11 16  1  0
 11 17  1  0
 12 18  1  0
 12 19  1  0
M  RAD  1  12   2
M  END
>  <reaction>  (7) 
rmg_rxn_16524

>  <mol_properties>  (7) 
{"1": {"label": "*0", "atom_type": "Cd"}, "2": {"label": "*1", "atom_type": "N3d"}, "7": {"label": "*2", "atom_type": "H0"}, "10": {"label": "*4", "atom_type": "Cs"}, "11": {"label": "*3", "atom_type": "Cs"}}

>  <type>  (7) 
unop_3

>  <geom_source>  (7) 
Heuristics

$$$$

     RDKit          3D

 19 17  0  0  0  0  0  0  0  0999 V2000
   -0.4091   -1.7071   -3.3367 C   0  0  0  0  0  0  0  0  0  0  0  0
   -0.4091   -1.7071   -1.8443 C   0  0  0  0  0  0  0  0  0  0  0  0
   -0.4091   -0.6345   -1.1766 N   0  0  0  0  0  0  0  0  0  0  0  0
    0.4691   -2.2371   -3.7141 H   0  0  0  0  0  0  0  0  0  0  0  0
   -1.2874   -2.2371   -3.7141 H   0  0  0  0  0  0  0  0  0  0  0  0
   -0.4091   -0.6865   -3.7153 H   0  0  0  0  0  0  0  0  0  0  0  0
   -0.4091   -2.6968   -1.3697 H   0  0  0  0  0  0  0  0  0  0  0  0
   -0.4091   -0.8646    0.0229 H   0  0  0  0  0  0  0  0  0  0  0  0
    1.0389    1.4979   -0.1245 C   0  0  0  0  0  0  0  0  0  0  0  0
    0.1016    1.6521    1.4059 S   0  0  0  0  0  0  0  0  0  0  0  0
    0.2983   -0.0128    2.0860 C   0  0  0  0  0  0  0  0  0  0  0  0
   -0.4091   -1.1113    1.3086 C   0  0  0  0  0  3  0  0  0  0  0  0
    0.5676    0.8077   -0.8234 H   0  0  0  0  0  0  0  0  0  0  0  0
    2.0621    1.1781    0.0772 H   0  0  0  0  0  0  0  0  0  0  0  0
    1.0660    2.4869   -0.5798 H   0  0  0  0  0  0  0  0  0  0  0  0
    1.3657   -0.2253    2.1801 H   0  0  0  0  0  0  0  0  0  0  0  0
   -0.1037    0.0570    3.0982 H   0  0  0  0  0  0  0  0  0  0  0  0
   -1.4765   -0.9033    1.2277 H   0  0  0  0  0  0  0  0  0  0  0  0
   -0.2810   -2.0736    1.8096 H   0  0  0  0  0  0  0  0  0  0  0  0
  1  2  1  0
  1  4  1  0
  1  5  1  0
  1  6  1  0
  2  3  2  3
  2  7  1  0
  3  8  1  0
  9 10  1  0
  9 13  1  0
  9 14  1  0
  9 15  1  0
 10 11  1  0
 11 12  1  0
 11 16  1  0
 11 17  1  0
 12 18  1  0
 12 19  1  0
M  RAD  1  12   2
M  END
>  <reaction>  (8) 
rmg_rxn_16524

>  <mol_properties>  (8) 
{"1": {"label": "*0", "atom_type": "Cd"}, "2": {"label": "*1", "atom_type": "N3d"}, "7": {"label": "*2", "atom_type": "H0"}, "10": {"label": "*4", "atom_type": "Cs"}, "11": {"label": "*3", "atom_type": "Cs"}}

>  <type>  (8) 
unop_4

>  <geom_source>  (8) 
Heuristics

$$$$

     RDKit          3D

 19 17  0  0  0  0  0  0  0  0999 V2000
    0.5096    0.6610   -3.4172 C   0  0  0  0  0  0  0  0  0  0  0  0
    0.5096    0.6610   -1.9249 C   0  0  0  0  0  0  0  0  0  0  0  0
    0.5096    1.7336   -1.2572 N   0  0  0  0  0  0  0  0  0  0  0  0
    1.3878    0.1310   -3.7946 H   0  0  0  0  0  0  0  0  0  0  0  0
   -0.3687    0.1310   -3.7946 H   0  0  0  0  0  0  0  0  0  0  0  0
    0.5096    1.6816   -3.7958 H   0  0  0  0  0  0  0  0  0  0  0  0
    0.5096   -0.3287   -1.4503 H   0  0  0  0  0  0  0  0  0  0  0  0
    0.5096    1.5034   -0.0576 H   0  0  0  0  0  0  0  0  0  0  0  0
   -0.2425   -1.7123   -0.0282 C   0  0  0  0  0  0  0  0  0  0  0  0
   -0.4688   -1.3335    1.7182 S   0  0  0  0  0  0  0  0  0  0  0  0
   -0.7157    0.4571    1.6413 C   0  0  0  0  0  0  0  0  0  0  0  0
    0.5096    1.2567    1.2281 C   0  0  0  0  0  3  0  0  0  0  0  0
    0.6751   -1.2782   -0.4238 H   0  0  0  0  0  0  0  0  0  0  0  0
   -1.0961   -1.3688   -0.6140 H   0  0  0  0  0  0  0  0  0  0  0  0
   -0.1763   -2.7963   -0.1107 H   0  0  0  0  0  0  0  0  0  0  0  0
   -1.5591    0.6629    0.9781 H   0  0  0  0  0  0  0  0  0  0  0  0
   -1.0281    0.7327    2.6499 H   0  0  0  0  0  0  0  0  0  0  0  0
    1.3458    1.0595    1.8996 H   0  0  0  0  0  0  0  0  0  0  0  0
    0.2906    2.3267    1.2528 H   0  0  0  0  0  0  0  0  0  0  0  0
  1  2  1  0
  1  4  1  0
  1  5  1  0
  1  6  1  0
  2  3  2  3
  2  7  1  0
  3  8  1  0
  9 10  1  0
  9 13  1  0
  9 14  1  0
  9 15  1  0
 10 11  1  0
 11 12  1  0
 11 16  1  0
 11 17  1  0
 12 18  1  0
 12 19  1  0
M  RAD  1  12   2
M  END
>  <reaction>  (9) 
rmg_rxn_16524

>  <mol_properties>  (9) 
{"1": {"label": "*0", "atom_type": "Cd"}, "2": {"label": "*1", "atom_type": "N3d"}, "7": {"label": "*2", "atom_type": "H0"}, "10": {"label": "*4", "atom_type": "Cs"}, "11": {"label": "*3", "atom_type": "Cs"}}

>  <type>  (9) 
unop_5

>  <geom_source>  (9) 
Heuristics

$$$$

     RDKit          3D

 19 17  0  0  0  0  0  0  0  0999 V2000
    0.5465   -1.6464   -3.5156 C   0  0  0  0  0  0  0  0  0  0  0  0
    0.5465   -1.6464   -2.0233 C   0  0  0  0  0  0  0  0  0  0  0  0
    0.5465   -0.5738   -1.3556 N   0  0  0  0  0  0  0  0  0  0  0  0
    1.4248   -2.1764   -3.8930 H   0  0  0  0  0  0  0  0  0  0  0  0
   -0.3318   -2.1764   -3.8930 H   0  0  0  0  0  0  0  0  0  0  0  0
    0.5465   -0.6258   -3.8942 H   0  0  0  0  0  0  0  0  0  0  0  0
    0.5465   -2.6361   -1.5487 H   0  0  0  0  0  0  0  0  0  0  0  0
    0.5465   -0.8040   -0.1560 H   0  0  0  0  0  0  0  0  0  0  0  0
   -0.6976    1.8107    0.0236 C   0  0  0  0  0  0  0  0  0  0  0  0
   -0.9187    1.2734    1.7285 S   0  0  0  0  0  0  0  0  0  0  0  0
    0.5465    0.2340    1.9428 C   0  0  0  0  0  0  0  0  0  0  0  0
    0.5465   -1.0507    1.1297 C   0  0  0  0  0  3  0  0  0  0  0  0
   -0.7854    0.9830   -0.6794 H   0  0  0  0  0  0  0  0  0  0  0  0
    0.2662    2.3048   -0.1061 H   0  0  0  0  0  0  0  0  0  0  0  0
   -1.4888    2.5290   -0.1869 H   0  0  0  0  0  0  0  0  0  0  0  0
    1.4327    0.8346    1.7254 H   0  0  0  0  0  0  0  0  0  0  0  0
    0.5673    0.0091    3.0104 H   0  0  0  0  0  0  0  0  0  0  0  0
   -0.3323   -1.6543    1.3584 H   0  0  0  0  0  0  0  0  0  0  0  0
    1.4389   -1.6404    1.3517 H   0  0  0  0  0  0  0  0  0  0  0  0
  1  2  1  0
  1  4  1  0
  1  5  1  0
  1  6  1  0
  2  3  2  3
  2  7  1  0
  3  8  1  0
  9 10  1  0
  9 13  1  0
  9 14  1  0
  9 15  1  0
 10 11  1  0
 11 12  1  0
 11 16  1  0
 11 17  1  0
 12 18  1  0
 12 19  1  0
M  RAD  1  12   2
M  END
>  <reaction>  (10) 
rmg_rxn_16524

>  <mol_properties>  (10) 
{"1": {"label": "*0", "atom_type": "Cd"}, "2": {"label": "*1", "atom_type": "N3d"}, "7": {"label": "*2", "atom_type": "H0"}, "10": {"label": "*4", "atom_type": "Cs"}, "11": {"label": "*3", "atom_type": "Cs"}}

>  <type>  (10) 
unop_6

>  <geom_source>  (10) 
Heuristics

$$$$

     RDKit          3D

 19 17  0  0  0  0  0  0  0  0999 V2000
    0.9752    0.2908   -3.5821 C   0  0  0  0  0  0  0  0  0  0  0  0
    0.9752    0.2908   -2.0897 C   0  0  0  0  0  0  0  0  0  0  0  0
    0.9752    1.3634   -1.4221 N   0  0  0  0  0  0  0  0  0  0  0  0
    1.8534   -0.2392   -3.9595 H   0  0  0  0  0  0  0  0  0  0  0  0
    0.0969   -0.2392   -3.9595 H   0  0  0  0  0  0  0  0  0  0  0  0
    0.9752    1.3114   -3.9607 H   0  0  0  0  0  0  0  0  0  0  0  0
    0.9752   -0.6989   -1.6151 H   0  0  0  0  0  0  0  0  0  0  0  0
    0.9752    1.1332   -0.2225 H   0  0  0  0  0  0  0  0  0  0  0  0
   -1.1328   -1.5240    0.2238 C   0  0  0  0  0  0  0  0  0  0  0  0
   -1.0186   -0.9056    1.9117 S   0  0  0  0  0  0  0  0  0  0  0  0
   -0.4397    0.7817    1.6097 C   0  0  0  0  0  0  0  0  0  0  0  0
    0.9752    0.8866    1.0632 C   0  0  0  0  0  3  0  0  0  0  0  0
   -0.1545   -1.6000   -0.2495 H   0  0  0  0  0  0  0  0  0  0  0  0
   -1.7863   -0.8914   -0.3783 H   0  0  0  0  0  0  0  0  0  0  0  0
   -1.5681   -2.5207    0.2810 H   0  0  0  0  0  0  0  0  0  0  0  0
   -1.1524    1.2799    0.9485 H   0  0  0  0  0  0  0  0  0  0  0  0
   -0.5098    1.2720    2.5821 H   0  0  0  0  0  0  0  0  0  0  0  0
    1.6861    0.4000    1.7318 H   0  0  0  0  0  0  0  0  0  0  0  0
    1.2634    1.9347    0.9548 H   0  0  0  0  0  0  0  0  0  0  0  0
  1  2  1  0
  1  4  1  0
  1  5  1  0
  1  6  1  0
  2  3  2  3
  2  7  1  0
  3  8  1  0
  9 10  1  0
  9 13  1  0
  9 14  1  0
  9 15  1  0
 10 11  1  0
 11 12  1  0
 11 16  1  0
 11 17  1  0
 12 18  1  0
 12 19  1  0
M  RAD  1  12   2
M  END
>  <reaction>  (11) 
rmg_rxn_16524

>  <mol_properties>  (11) 
{"1": {"label": "*0", "atom_type": "Cd"}, "2": {"label": "*1", "atom_type": "N3d"}, "7": {"label": "*2", "atom_type": "H0"}, "10": {"label": "*4", "atom_type": "Cs"}, "11": {"label": "*3", "atom_type": "Cs"}}

>  <type>  (11) 
unop_7

>  <geom_source>  (11) 
Heuristics

$$$$

     RDKit          3D

 19 17  0  0  0  0  0  0  0  0999 V2000
    1.2153   -0.2834   -3.6988 C   0  0  0  0  0  0  0  0  0  0  0  0
    1.2153   -0.2834   -2.2065 C   0  0  0  0  0  0  0  0  0  0  0  0
    1.2153    0.7893   -1.5388 N   0  0  0  0  0  0  0  0  0  0  0  0
    2.0936   -0.8134   -4.0762 H   0  0  0  0  0  0  0  0  0  0  0  0
    0.3371   -0.8134   -4.0762 H   0  0  0  0  0  0  0  0  0  0  0  0
    1.2153    0.7373   -4.0774 H   0  0  0  0  0  0  0  0  0  0  0  0
    1.2153   -1.2731   -1.7318 H   0  0  0  0  0  0  0  0  0  0  0  0
    1.2153    0.5591   -0.3392 H   0  0  0  0  0  0  0  0  0  0  0  0
   -1.8707   -0.7478    0.3885 C   0  0  0  0  0  0  0  0  0  0  0  0
   -1.3050   -0.2925    2.0369 S   0  0  0  0  0  0  0  0  0  0  0  0
   -0.0100    0.9023    1.6263 C   0  0  0  0  0  0  0  0  0  0  0  0
    1.2153    0.3124    0.9465 C   0  0  0  0  0  3  0  0  0  0  0  0
   -1.1051   -1.2836   -0.1717 H   0  0  0  0  0  0  0  0  0  0  0  0
   -2.1884    0.1334   -0.1704 H   0  0  0  0  0  0  0  0  0  0  0  0
   -2.7285   -1.4061    0.5191 H   0  0  0  0  0  0  0  0  0  0  0  0
   -0.4504    1.6962    1.0187 H   0  0  0  0  0  0  0  0  0  0  0  0
    0.2633    1.3479    2.5842 H   0  0  0  0  0  0  0  0  0  0  0  0
    1.6605   -0.4705    1.5612 H   0  0  0  0  0  0  0  0  0  0  0  0
    1.9656    1.0881    0.7769 H   0  0  0  0  0  0  0  0  0  0  0  0
  1  2  1  0
  1  4  1  0
  1  5  1  0
  1  6  1  0
  2  3  2  3
  2  7  1  0
  3  8  1  0
  9 10  1  0
  9 13  1  0
  9 14  1  0
  9 15  1  0
 10 11  1  0
 11 12  1  0
 11 16  1  0
 11 17  1  0
 12 18  1  0
 12 19  1  0
M  RAD  1  12   2
M  END
>  <reaction>  (12) 
rmg_rxn_16524

>  <mol_properties>  (12) 
{"1": {"label": "*0", "atom_type": "Cd"}, "2": {"label": "*1", "atom_type": "N3d"}, "7": {"label": "*2", "atom_type": "H0"}, "10": {"label": "*4", "atom_type": "Cs"}, "11": {"label": "*3", "atom_type": "Cs"}}

>  <type>  (12) 
unop_8

>  <geom_source>  (12) 
Heuristics

$$$$

     RDKit          3D

 19 17  0  0  0  0  0  0  0  0999 V2000
   -1.2290   -0.6605   -3.1075 C   0  0  0  0  0  0  0  0  0  0  0  0
   -1.2290   -0.6605   -1.6152 C   0  0  0  0  0  0  0  0  0  0  0  0
   -1.2290    0.4121   -0.9475 N   0  0  0  0  0  0  0  0  0  0  0  0
   -0.3507   -1.1905   -3.4849 H   0  0  0  0  0  0  0  0  0  0  0  0
   -2.1072   -1.1905   -3.4849 H   0  0  0  0  0  0  0  0  0  0  0  0
   -1.2290    0.3601   -3.4861 H   0  0  0  0  0  0  0  0  0  0  0  0
   -1.2290   -1.6502   -1.1405 H   0  0  0  0  0  0  0  0  0  0  0  0
   -1.2290    0.1819    0.2521 H   0  0  0  0  0  0  0  0  0  0  0  0
    1.4568   -0.3097   -0.3819 C   0  0  0  0  0  0  0  0  0  0  0  0
    1.4453    0.6937    1.1139 S   0  0  0  0  0  0  0  0  0  0  0  0
    0.1859   -0.1696    2.0843 C   0  0  0  0  0  0  0  0  0  0  0  0
   -1.2290   -0.0647    1.5378 C   0  0  0  0  0  3  0  0  0  0  0  0
    0.5192   -0.2329   -0.9315 H   0  0  0  0  0  0  0  0  0  0  0  0
    1.6627   -1.3548   -0.1471 H   0  0  0  0  0  0  0  0  0  0  0  0
    2.2596    0.0710   -1.0120 H   0  0  0  0  0  0  0  0  0  0  0  0
    0.4870   -1.2141    2.1927 H   0  0  0  0  0  0  0  0  0  0  0  0
    0.2463    0.2845    3.0748 H   0  0  0  0  0  0  0  0  0  0  0  0
   -1.5317    0.9785    1.4431 H   0  0  0  0  0  0  0  0  0  0  0  0
   -1.9317   -0.5700    2.2043 H   0  0  0  0  0  0  0  0  0  0  0  0
  1  2  1  0
  1  4  1  0
  1  5  1  0
  1  6  1  0
  2  3  2  3
  2  7  1  0
  3  8  1  0
  9 10  1  0
  9 13  1  0
  9 14  1  0
  9 15  1  0
 10 11  1  0
 11 12  1  0
 11 16  1  0
 11 17  1  0
 12 18  1  0
 12 19  1  0
M  RAD  1  12   2
M  END
>  <reaction>  (13) 
rmg_rxn_16524

>  <mol_properties>  (13) 
{"1": {"label": "*0", "atom_type": "Cd"}, "2": {"label": "*1", "atom_type": "N3d"}, "7": {"label": "*2", "atom_type": "H0"}, "10": {"label": "*4", "atom_type": "Cs"}, "11": {"label": "*3", "atom_type": "Cs"}}

>  <type>  (13) 
unop_9

>  <geom_source>  (13) 
Heuristics

$$$$

     RDKit          3D

 19 17  0  0  0  0  0  0  0  0999 V2000
   -3.5461   -0.8905    0.2150 C   0  0  0  0  0  0  0  0  0  0  0  0
   -2.5958    0.2618    0.0027 C   0  0  0  0  0  0  0  0  0  0  0  0
   -2.8083    1.4352   -0.2337 N   0  0  0  0  0  2  0  0  0  0  0  0
   -3.3711   -1.3274    1.1966 H   0  0  0  0  0  0  0  0  0  0  0  0
   -4.5739   -0.5453    0.1462 H   0  0  0  0  0  0  0  0  0  0  0  0
   -3.3647   -1.6507   -0.5430 H   0  0  0  0  0  0  0  0  0  0  0  0
   -1.5146   -0.0874    0.0894 H   0  0  0  0  0  0  0  0  0  0  0  0
    2.4733    2.6833    0.1504 H   0  0  0  0  0  0  0  0  0  0  0  0
    0.1029   -0.8302   -0.2475 C   0  0  0  0  0  0  0  0  0  0  0  0
    1.8872   -1.0161    0.1092 S   0  0  0  0  0  0  0  0  0  0  0  0
    2.4796    0.6223   -0.4327 C   0  0  0  0  0  0  0  0  0  0  0  0
    1.9782    1.7583    0.4385 C   0  0  0  0  0  0  0  0  0  0  0  0
   -0.0040   -0.4590   -1.2634 H   0  0  0  0  0  0  0  0  0  0  0  0
   -0.3360   -0.1495    0.4800 H   0  0  0  0  0  0  0  0  0  0  0  0
   -0.3216   -1.8254   -0.1550 H   0  0  0  0  0  0  0  0  0  0  0  0
    3.5649    0.5429   -0.3801 H   0  0  0  0  0  0  0  0  0  0  0  0
    2.1827    0.7518   -1.4740 H   0  0  0  0  0  0  0  0  0  0  0  0
    2.1988    1.5589    1.4848 H   0  0  0  0  0  0  0  0  0  0  0  0
    0.9057    1.9021    0.3259 H   0  0  0  0  0  0  0  0  0  0  0  0
  1  2  1  0
  1  4  1  0
  1  5  1  0
  1  6  1  0
  2  3  2  0
  2  7  1  0
  8 12  1  0
  9 10  1  0
  9 13  1  0
  9 14  1  0
  9 15  1  0
 10 11  1  0
 11 12  1  0
 11 16  1  0
 11 17  1  0
 12 18  1  0
 12 19  1  0
M  RAD  1   3   2
M  END
>  <reaction>  (14) 
rmg_rxn_16524

>  <mol_properties>  (14) 
{"1": {"label": "*0", "atom_type": "Cd"}, "2": {"label": "*1", "atom_type": "N3d"}, "7": {"label": "*2", "atom_type": "H0"}, "10": {"label": "*4", "atom_type": "Cs"}, "11": {"label": "*3", "atom_type": "Cs"}}

>  <type>  (14) 
unop_10

>  <geom_source>  (14) 
Heuristics

$$$$

     RDKit          3D

 19 17  0  0  0  0  0  0  0  0999 V2000
   -0.0500    0.7570   -3.2386 C   0  0  0  0  0  0  0  0  0  0  0  0
   -0.0500    0.7570   -1.7462 C   0  0  0  0  0  0  0  0  0  0  0  0
   -0.0500    1.8296   -1.0786 N   0  0  0  0  0  0  0  0  0  0  0  0
    0.8283    0.2270   -3.6160 H   0  0  0  0  0  0  0  0  0  0  0  0
   -0.9282    0.2270   -3.6160 H   0  0  0  0  0  0  0  0  0  0  0  0
   -0.0500    1.7776   -3.6172 H   0  0  0  0  0  0  0  0  0  0  0  0
   -0.0500   -0.2327   -1.2716 H   0  0  0  0  0  0  0  0  0  0  0  0
   -0.0500    1.5995    0.1210 H   0  0  0  0  0  0  0  0  0  0  0  0
    0.4273   -1.4406   -0.3045 C   0  0  0  0  0  0  0  0  0  0  0  0
    0.2463   -1.4423    1.4876 S   0  0  0  0  0  0  0  0  0  0  0  0
   -0.7574    0.0445    1.7223 C   0  0  0  0  0  0  0  0  0  0  0  0
   -0.0500    1.3528    1.4067 C   0  0  0  0  0  3  0  0  0  0  0  0
    1.0192   -0.5951   -0.6536 H   0  0  0  0  0  0  0  0  0  0  0  0
   -0.5477   -1.4358   -0.7935 H   0  0  0  0  0  0  0  0  0  0  0  0
    0.9466   -2.3601   -0.5708 H   0  0  0  0  0  0  0  0  0  0  0  0
   -1.6719   -0.0577    1.1336 H   0  0  0  0  0  0  0  0  0  0  0  0
   -1.0492    0.0132    2.7734 H   0  0  0  0  0  0  0  0  0  0  0  0
    0.8553    1.4583    2.0054 H   0  0  0  0  0  0  0  0  0  0  0  0
   -0.7061    2.1999    1.6192 H   0  0  0  0  0  0  0  0  0  0  0  0
  1  2  1  0
  1  4  1  0
  1  5  1  0
  1  6  1  0
  2  3  2  3
  2  7  1  0
  3  8  1  0
  9 10  1  0
  9 13  1  0
  9 14  1  0
  9 15  1  0
 10 11  1  0
 11 12  1  0
 11 16  1  0
 11 17  1  0
 12 18  1  0
 12 19  1  0
M  RAD  1  12   2
M  END
>  <reaction>  (15) 
rmg_rxn_16524

>  <mol_properties>  (15) 
{"1": {"label": "*0", "atom_type": "Cd"}, "2": {"label": "*1", "atom_type": "N3d"}, "7": {"label": "*2", "atom_type": "H0"}, "10": {"label": "*4", "atom_type": "Cs"}, "11": {"label": "*3", "atom_type": "Cs"}}

>  <type>  (15) 
unop_11

>  <geom_source>  (15) 
Heuristics

$$$$

     RDKit          3D

 19 17  0  0  0  0  0  0  0  0999 V2000
   -1.1566   -0.1273   -3.0240 C   0  0  0  0  0  0  0  0  0  0  0  0
   -1.1566   -0.1273   -1.5317 C   0  0  0  0  0  0  0  0  0  0  0  0
   -1.1566    0.9453   -0.8640 N   0  0  0  0  0  0  0  0  0  0  0  0
   -0.2783   -0.6573   -3.4014 H   0  0  0  0  0  0  0  0  0  0  0  0
   -2.0348   -0.6573   -3.4014 H   0  0  0  0  0  0  0  0  0  0  0  0
   -1.1566    0.8933   -3.4026 H   0  0  0  0  0  0  0  0  0  0  0  0
   -1.1566   -1.1170   -1.0570 H   0  0  0  0  0  0  0  0  0  0  0  0
   -1.1566    0.7152    0.3356 H   0  0  0  0  0  0  0  0  0  0  0  0
    1.0684   -0.7061   -0.5301 C   0  0  0  0  0  0  0  0  0  0  0  0
    1.5565   -0.0083    1.0571 S   0  0  0  0  0  0  0  0  0  0  0  0
    0.0687   -0.3311    2.0345 C   0  0  0  0  0  0  0  0  0  0  0  0
   -1.1566    0.4685    1.6213 C   0  0  0  0  0  3  0  0  0  0  0  0
    0.2547   -0.1454   -0.9890 H   0  0  0  0  0  0  0  0  0  0  0  0
    0.7810   -1.7528   -0.4224 H   0  0  0  0  0  0  0  0  0  0  0  0
    1.9390   -0.6488   -1.1820 H   0  0  0  0  0  0  0  0  0  0  0  0
   -0.1371   -1.4037    2.0090 H   0  0  0  0  0  0  0  0  0  0  0  0
    0.3565   -0.0855    3.0581 H   0  0  0  0  0  0  0  0  0  0  0  0
   -0.9523    1.5389    1.6604 H   0  0  0  0  0  0  0  0  0  0  0  0
   -1.9941    0.2513    2.2882 H   0  0  0  0  0  0  0  0  0  0  0  0
  1  2  1  0
  1  4  1  0
  1  5  1  0
  1  6  1  0
  2  3  2  3
  2  7  1  0
  3  8  1  0
  9 10  1  0
  9 13  1  0
  9 14  1  0
  9 15  1  0
 10 11  1  0
 11 12  1  0
 11 16  1  0
 11 17  1  0
 12 18  1  0
 12 19  1  0
M  RAD  1  12   2
M  END
>  <reaction>  (16) 
rmg_rxn_16524

>  <mol_properties>  (16) 
{"1": {"label": "*0", "atom_type": "Cd"}, "2": {"label": "*1", "atom_type": "N3d"}, "7": {"label": "*2", "atom_type": "H0"}, "10": {"label": "*4", "atom_type": "Cs"}, "11": {"label": "*3", "atom_type": "Cs"}}

>  <type>  (16) 
unop_12

>  <geom_source>  (16) 
Heuristics

$$$$

     RDKit          3D

 19 17  0  0  0  0  0  0  0  0999 V2000
    1.1398   -0.9797   -3.6995 C   0  0  0  0  0  0  0  0  0  0  0  0
    1.1398   -0.9797   -2.2072 C   0  0  0  0  0  0  0  0  0  0  0  0
    1.1398    0.0929   -1.5395 N   0  0  0  0  0  0  0  0  0  0  0  0
    2.0181   -1.5097   -4.0769 H   0  0  0  0  0  0  0  0  0  0  0  0
    0.2616   -1.5097   -4.0769 H   0  0  0  0  0  0  0  0  0  0  0  0
    1.1398    0.0409   -4.0781 H   0  0  0  0  0  0  0  0  0  0  0  0
    1.1398   -1.9694   -1.7325 H   0  0  0  0  0  0  0  0  0  0  0  0
    1.1398   -0.1373   -0.3399 H   0  0  0  0  0  0  0  0  0  0  0  0
   -1.9716    0.5695    0.3387 C   0  0  0  0  0  0  0  0  0  0  0  0
   -1.3300    0.4293    2.0159 S   0  0  0  0  0  0  0  0  0  0  0  0
    0.4324    0.7146    1.7232 C   0  0  0  0  0  0  0  0  0  0  0  0
    1.1398   -0.3840    0.9458 C   0  0  0  0  0  3  0  0  0  0  0  0
   -1.6177   -0.2376   -0.3019 H   0  0  0  0  0  0  0  0  0  0  0  0
   -1.7062    1.5324   -0.0996 H   0  0  0  0  0  0  0  0  0  0  0  0
   -3.0566    0.5054    0.4087 H   0  0  0  0  0  0  0  0  0  0  0  0
    0.5499    1.6816    1.2288 H   0  0  0  0  0  0  0  0  0  0  0  0
    0.8622    0.8121    2.7215 H   0  0  0  0  0  0  0  0  0  0  0  0
    1.0321   -1.3456    1.4484 H   0  0  0  0  0  0  0  0  0  0  0  0
    2.2048   -0.1586    0.8542 H   0  0  0  0  0  0  0  0  0  0  0  0
  1  2  1  0
  1  4  1  0
  1  5  1  0
  1  6  1  0
  2  3  2  3
  2  7  1  0
  3  8  1  0
  9 10  1  0
  9 13  1  0
  9 14  1  0
  9 15  1  0
 10 11  1  0
 11 12  1  0
 11 16  1  0
 11 17  1  0
 12 18  1  0
 12 19  1  0
M  RAD  1  12   2
M  END
>  <reaction>  (17) 
rmg_rxn_16524

>  <mol_properties>  (17) 
{"1": {"label": "*0", "atom_type": "Cd"}, "2": {"label": "*1", "atom_type": "N3d"}, "7": {"label": "*2", "atom_type": "H0"}, "10": {"label": "*4", "atom_type": "Cs"}, "11": {"label": "*3", "atom_type": "Cs"}}

>  <type>  (17) 
unop_13

>  <geom_source>  (17) 
Heuristics

$$$$

     RDKit          3D

 19 17  0  0  0  0  0  0  0  0999 V2000
   -0.5465    0.6014   -3.0844 C   0  0  0  0  0  0  0  0  0  0  0  0
   -0.5465    0.6014   -1.5920 C   0  0  0  0  0  0  0  0  0  0  0  0
   -0.5465    1.6740   -0.9243 N   0  0  0  0  0  0  0  0  0  0  0  0
    0.3318    0.0714   -3.4618 H   0  0  0  0  0  0  0  0  0  0  0  0
   -1.4248    0.0714   -3.4618 H   0  0  0  0  0  0  0  0  0  0  0  0
   -0.5465    1.6220   -3.4629 H   0  0  0  0  0  0  0  0  0  0  0  0
   -0.5465   -0.3883   -1.1174 H   0  0  0  0  0  0  0  0  0  0  0  0
   -0.5465    1.4438    0.2753 H   0  0  0  0  0  0  0  0  0  0  0  0
    0.6976   -1.0517   -0.5256 C   0  0  0  0  0  0  0  0  0  0  0  0
    0.9187   -1.1835    1.2571 S   0  0  0  0  0  0  0  0  0  0  0  0
   -0.5465   -0.2972    1.8408 C   0  0  0  0  0  0  0  0  0  0  0  0
   -0.5465    1.1971    1.5609 C   0  0  0  0  0  3  0  0  0  0  0  0
    0.7854   -0.0225   -0.8723 H   0  0  0  0  0  0  0  0  0  0  0  0
   -0.2662   -1.4626   -0.8290 H   0  0  0  0  0  0  0  0  0  0  0  0
    1.4888   -1.6410   -0.9870 H   0  0  0  0  0  0  0  0  0  0  0  0
   -1.4327   -0.7748    1.4166 H   0  0  0  0  0  0  0  0  0  0  0  0
   -0.5673   -0.4834    2.9159 H   0  0  0  0  0  0  0  0  0  0  0  0
    0.3323    1.6733    1.9969 H   0  0  0  0  0  0  0  0  0  0  0  0
   -1.4389    1.6628    1.9855 H   0  0  0  0  0  0  0  0  0  0  0  0
  1  2  1  0
  1  4  1  0
  1  5  1  0
  1  6  1  0
  2  3  2  3
  2  7  1  0
  3  8  1  0
  9 10  1  0
  9 13  1  0
  9 14  1  0
  9 15  1  0
 10 11  1  0
 11 12  1  0
 11 16  1  0
 11 17  1  0
 12 18  1  0
 12 19  1  0
M  RAD  1  12   2
M  END
>  <reaction>  (18) 
rmg_rxn_16524

>  <mol_properties>  (18) 
{"1": {"label": "*0", "atom_type": "Cd"}, "2": {"label": "*1", "atom_type": "N3d"}, "7": {"label": "*2", "atom_type": "H0"}, "10": {"label": "*4", "atom_type": "Cs"}, "11": {"label": "*3", "atom_type": "Cs"}}

>  <type>  (18) 
unop_14

>  <geom_source>  (18) 
Heuristics

$$$$

     RDKit          3D

 19 17  0  0  0  0  0  0  0  0999 V2000
   -0.9120    0.2927   -3.0069 C   0  0  0  0  0  0  0  0  0  0  0  0
   -0.9120    0.2927   -1.5146 C   0  0  0  0  0  0  0  0  0  0  0  0
   -0.9120    1.3653   -0.8469 N   0  0  0  0  0  0  0  0  0  0  0  0
   -0.0337   -0.2373   -3.3843 H   0  0  0  0  0  0  0  0  0  0  0  0
   -1.7903   -0.2373   -3.3843 H   0  0  0  0  0  0  0  0  0  0  0  0
   -0.9120    1.3133   -3.3855 H   0  0  0  0  0  0  0  0  0  0  0  0
   -0.9120   -0.6970   -1.0400 H   0  0  0  0  0  0  0  0  0  0  0  0
   -0.9120    1.1352    0.3527 H   0  0  0  0  0  0  0  0  0  0  0  0
    0.8006   -0.8479   -0.6001 C   0  0  0  0  0  0  0  0  0  0  0  0
    1.3710   -0.6617    1.0982 S   0  0  0  0  0  0  0  0  0  0  0  0
   -0.2046   -0.4198    1.9540 C   0  0  0  0  0  0  0  0  0  0  0  0
   -0.9120    0.8885    1.6384 C   0  0  0  0  0  3  0  0  0  0  0  0
    0.3632    0.0722   -0.9865 H   0  0  0  0  0  0  0  0  0  0  0  0
    0.0791   -1.6620   -0.6806 H   0  0  0  0  0  0  0  0  0  0  0  0
    1.6741   -1.0952   -1.2018 H   0  0  0  0  0  0  0  0  0  0  0  0
   -0.8500   -1.2749    1.7409 H   0  0  0  0  0  0  0  0  0  0  0  0
    0.0506   -0.4687    3.0139 H   0  0  0  0  0  0  0  0  0  0  0  0
   -0.2703    1.7406    1.8645 H   0  0  0  0  0  0  0  0  0  0  0  0
   -1.8266    0.9775    2.2291 H   0  0  0  0  0  0  0  0  0  0  0  0
  1  2  1  0
  1  4  1  0
  1  5  1  0
  1  6  1  0
  2  3  2  3
  2  7  1  0
  3  8  1  0
  9 10  1  0
  9 13  1  0
  9 14  1  0
  9 15  1  0
 10 11  1  0
 11 12  1  0
 11 16  1  0
 11 17  1  0
 12 18  1  0
 12 19  1  0
M  RAD  1  12   2
M  END
>  <reaction>  (19) 
rmg_rxn_16524

>  <mol_properties>  (19) 
{"1": {"label": "*0", "atom_type": "Cd"}, "2": {"label": "*1", "atom_type": "N3d"}, "7": {"label": "*2", "atom_type": "H0"}, "10": {"label": "*4", "atom_type": "Cs"}, "11": {"label": "*3", "atom_type": "Cs"}}

>  <type>  (19) 
unop_15

>  <geom_source>  (19) 
gaussian_log

$$$$
