
     RDKit          3D

  9  8  0  0  0  0  0  0  0  0999 V2000
    1.0366    1.3666   -1.0040 O   0  0  0  0  0  1  0  0  0  0  0  0
    0.8763    0.9651    0.1786 N   0  0  0  0  0  0  0  0  0  0  0  0
    0.0999    0.0100    0.5787 C   0  0  0  0  0  3  0  0  0  0  0  0
   -0.7197   -0.7380   -0.4015 C   0  0  0  0  0  0  0  0  0  0  0  0
    1.4193    1.4472    0.9012 H   0  0  0  0  0  0  0  0  0  0  0  0
    0.0997   -0.1874    1.6410 H   0  0  0  0  0  0  0  0  0  0  0  0
   -1.3136   -1.5037    0.0930 H   0  0  0  0  0  0  0  0  0  0  0  0
   -1.3825   -0.0572   -0.9424 H   0  0  0  0  0  0  0  0  0  0  0  0
   -0.0802   -1.2049   -1.1555 H   0  0  0  0  0  0  0  0  0  0  0  0
  1  2  1  0
  2  3  1  0
  2  5  1  0
  3  4  1  0
  3  6  1  0
  4  7  1  0
  4  8  1  0
  4  9  1  0
M  CHG  2   1  -1   3   1
M  END
>  <reaction>  (1) 
rmg_rxn_16672

>  <mol_properties>  (1) 
{"3": {"label": "donator", "atom_type": "Cs"}, "6": {"label": "d_hydrogen", "atom_type": "H0"}}

>  <type>  (1) 
r1h

$$$$

     RDKit          3D

  7  6  0  0  0  0  0  0  0  0999 V2000
   -0.6441   -0.1356    0.0624 C   0  0  0  0  0  0  0  0  0  0  0  0
    0.8523    0.0148   -0.0333 C   0  0  0  0  0  0  0  0  0  0  0  0
    1.6700   -0.6077    0.6603 N   0  0  0  0  0  2  0  0  0  0  0  0
   -1.0940    0.8275    0.3091 H   0  0  0  0  0  0  0  0  0  0  0  0
   -0.9104   -0.8656    0.8237 H   0  0  0  0  0  0  0  0  0  0  0  0
   -1.0427   -0.4545   -0.9022 H   0  0  0  0  0  0  0  0  0  0  0  0
    1.2362    0.7308   -0.7748 H   0  0  0  0  0  0  0  0  0  0  0  0
  1  2  1  0
  1  4  1  0
  1  5  1  0
  1  6  1  0
  2  3  2  0
  2  7  1  0
M  RAD  1   3   2
M  END
>  <reaction>  (2) 
rmg_rxn_16672

>  <mol_properties>  (2) 
{"2": {"label": "acceptor", "atom_type": "N3d"}}

>  <type>  (2) 
r2

$$$$

     RDKit          3D

  8  7  0  0  0  0  0  0  0  0999 V2000
    0.9548    0.1194   -0.0790 C   0  0  0  0  0  0  0  0  0  0  0  0
   -0.4838   -0.2649    0.0193 C   0  0  0  0  0  0  0  0  0  0  0  0
   -0.8933   -1.1081    0.8664 N   0  0  0  0  0  0  0  0  0  0  0  0
    1.3360   -0.0983   -1.0800 H   0  0  0  0  0  0  0  0  0  0  0  0
    1.0698    1.1948    0.0786 H   0  0  0  0  0  0  0  0  0  0  0  0
    1.5426   -0.4219    0.6602 H   0  0  0  0  0  0  0  0  0  0  0  0
   -1.1575    0.2324   -0.6905 H   0  0  0  0  0  0  0  0  0  0  0  0
   -1.8989   -1.2455    0.7886 H   0  0  0  0  0  0  0  0  0  0  0  0
  1  2  1  0
  1  4  1  0
  1  5  1  0
  1  6  1  0
  2  3  2  3
  2  7  1  0
  3  8  1  0
M  END
>  <reaction>  (3) 
rmg_rxn_16672

>  <mol_properties>  (3) 
{"2": {"label": "acceptor", "atom_type": "N3d"}, "7": {"label": "a_hydrogen", "atom_type": "H0"}}

>  <type>  (3) 
r2h

$$$$

     RDKit          3D

 16 14  0  0  0  0  0  0  0  0999 V2000
    3.1708   -0.7163   -0.1236 C   0  0  0  0  0  0  0  0  0  0  0  0
    1.8263   -0.1004    0.1284 C   0  0  0  0  0  0  0  0  0  0  0  0
    1.5456    1.0607   -0.2526 N   0  0  0  0  0  2  0  0  0  0  0  0
    3.0480   -1.6332   -0.7037 H   0  0  0  0  0  0  0  0  0  0  0  0
    3.6322   -0.9913    0.8273 H   0  0  0  0  0  0  0  0  0  0  0  0
    3.8222   -0.0285   -0.6594 H   0  0  0  0  0  0  0  0  0  0  0  0
    1.0875   -0.7213    0.6485 H   0  0  0  0  0  0  0  0  0  0  0  0
   -1.2443   -1.4381    0.1611 O   0  0  0  0  0  1  0  0  0  0  0  0
   -1.8757   -0.5689   -0.5059 N   0  0  0  0  0  0  0  0  0  0  0  0
   -1.7857    0.7339   -0.3819 C   0  0  0  0  0  3  0  0  0  0  0  0
   -0.9059    1.3390    0.5702 C   0  0  0  0  0  0  0  0  0  0  0  0
   -2.5276   -0.9226   -1.2076 H   0  0  0  0  0  0  0  0  0  0  0  0
   -2.3700    1.3025   -1.0923 H   0  0  0  0  0  0  0  0  0  0  0  0
    0.2966    1.3116    0.0959 H   0  0  0  0  0  0  0  0  0  0  0  0
   -1.0842    2.3967    0.7366 H   0  0  0  0  0  0  0  0  0  0  0  0
   -0.7794    0.7641    1.4856 H   0  0  0  0  0  0  0  0  0  0  0  0
  1  2  1  0
  1  4  1  0
  1  5  1  0
  1  6  1  0
  2  3  2  0
  2  7  1  0
  8  9  1  0
  9 10  1  0
  9 12  1  0
 10 11  1  0
 10 13  1  0
 11 14  1  0
 11 15  1  0
 11 16  1  0
M  CHG  2   8  -1  10   1
M  RAD  1   3   2
M  END
>  <reaction>  (4) 
rmg_rxn_16672

>  <mol_properties>  (4) 
{"1": {"label": "*4", "atom_type": "Cd"}, "2": {"label": "*3", "atom_type": "N3d"}, "9": {"label": "*0", "atom_type": "Csc"}, "10": {"label": "*1", "atom_type": "Cs"}, "13": {"label": "*2", "atom_type": "H0"}}

>  <type>  (4) 
ts

$$$$

     RDKit          3D

 16 14  0  0  0  0  0  0  0  0999 V2000
    3.2458   -0.6426   -0.1597 C   0  0  0  0  0  0  0  0  0  0  0  0
    1.8525   -0.1887    0.1320 C   0  0  0  0  0  0  0  0  0  0  0  0
    1.4686    0.9652   -0.1374 N   0  0  0  0  0  0  0  0  0  0  0  0
    3.2121   -1.5006   -0.8291 H   0  0  0  0  0  0  0  0  0  0  0  0
    3.7234   -0.9564    0.7671 H   0  0  0  0  0  0  0  0  0  0  0  0
    3.8192    0.1593   -0.6162 H   0  0  0  0  0  0  0  0  0  0  0  0
    1.2167   -0.9549    0.5923 H   0  0  0  0  0  0  0  0  0  0  0  0
   -1.6421   -1.3991    0.4257 O   0  0  0  0  0  1  0  0  0  0  0  0
   -2.0479   -0.5469   -0.4249 N   0  0  0  0  0  0  0  0  0  0  0  0
   -1.7699    0.7516   -0.4156 C   0  0  0  0  0  0  0  0  0  0  0  0
   -0.9431    1.3281    0.5526 C   0  0  0  0  0  0  0  0  0  0  0  0
   -2.6546   -0.9025   -1.1730 H   0  0  0  0  0  0  0  0  0  0  0  0
   -2.1420    1.3170   -1.2563 H   0  0  0  0  0  0  0  0  0  0  0  0
    0.3394    1.1826    0.1438 H   0  0  0  0  0  0  0  0  0  0  0  0
   -0.9631    2.4029    0.6468 H   0  0  0  0  0  0  0  0  0  0  0  0
   -0.8586    0.7727    1.4787 H   0  0  0  0  0  0  0  0  0  0  0  0
  1  2  1  0
  1  4  1  0
  1  5  1  0
  1  6  1  0
  2  3  2  3
  2  7  1  0
  3 14  1  0
  8  9  1  0
  9 10  1  0
  9 12  1  0
 10 11  2  3
 10 13  1  0
 11 15  1  0
 11 16  1  0
M  RAD  1   8   2
M  END
>  <reaction>  (5) 
rmg_rxn_16672

>  <mol_properties>  (5) 
{"1": {"label": "*4", "atom_type": "Cd"}, "2": {"label": "*3", "atom_type": "N3d"}, "9": {"label": "*0", "atom_type": "Csc"}, "10": {"label": "*1", "atom_type": "Cs"}, "13": {"label": "*2", "atom_type": "H0"}}

>  <type>  (5) 
unop_1

>  <geom_source>  (5) 
crest_best.xyz

$$$$

     RDKit          3D

 16 14  0  0  0  0  0  0  0  0999 V2000
    0.6607    3.7184    1.3425 C   0  0  0  0  0  0  0  0  0  0  0  0
    0.7400    2.2403    1.1525 C   0  0  0  0  0  0  0  0  0  0  0  0
   -0.2812    1.5009    1.2342 N   0  0  0  0  0  0  0  0  0  0  0  0
    1.3061    4.0279    2.1686 H   0  0  0  0  0  0  0  0  0  0  0  0
   -0.3649    4.0191    1.5493 H   0  0  0  0  0  0  0  0  0  0  0  0
    1.0195    4.2337    0.4479 H   0  0  0  0  0  0  0  0  0  0  0  0
    1.7403    1.8423    0.9383 H   0  0  0  0  0  0  0  0  0  0  0  0
   -0.2812   -2.6470   -2.0480 O   0  0  0  0  0  1  0  0  0  0  0  0
   -0.2812   -2.6470   -0.7889 N   0  0  0  0  0  0  0  0  0  0  0  0
   -0.2812   -1.6136   -0.0097 C   0  0  0  0  0  0  0  0  0  0  0  0
   -0.2812   -0.2504   -0.5874 C   0  0  0  0  0  0  0  0  0  0  0  0
   -0.2812   -3.5644   -0.3331 H   0  0  0  0  0  0  0  0  0  0  0  0
   -0.2812   -1.8194    1.0510 H   0  0  0  0  0  0  0  0  0  0  0  0
   -0.2812    0.6544    0.3536 H   0  0  0  0  0  0  0  0  0  0  0  0
    0.5932   -0.1080   -1.2282 H   0  0  0  0  0  0  0  0  0  0  0  0
   -1.1556   -0.1080   -1.2282 H   0  0  0  0  0  0  0  0  0  0  0  0
  1  2  1  0
  1  4  1  0
  1  5  1  0
  1  6  1  0
  2  3  2  3
  2  7  1  0
  3 14  1  0
  8  9  1  0
  9 10  1  0
  9 12  1  0
 10 11  2  3
 10 13  1  0
 11 15  1  0
 11 16  1  0
M  RAD  1   8   2
M  END
>  <reaction>  (6) 
rmg_rxn_16672

>  <mol_properties>  (6) 
{"1": {"label": "*4", "atom_type": "Cd"}, "2": {"label": "*3", "atom_type": "N3d"}, "9": {"label": "*0", "atom_type": "Csc"}, "10": {"label": "*1", "atom_type": "Cs"}, "13": {"label": "*2", "atom_type": "H0"}}

>  <type>  (6) 
unop_2

>  <geom_source>  (6) 
Heuristics

$$$$

     RDKit          3D

 16 14  0  0  0  0  0  0  0  0999 V2000
    0.8550    2.4228    2.8712 C   0  0  0  0  0  0  0  0  0  0  0  0
    0.3445    1.4940    1.8206 C   0  0  0  0  0  0  0  0  0  0  0  0
   -0.2451    1.9158    0.7858 N   0  0  0  0  0  0  0  0  0  0  0  0
    0.3921    2.1938    3.8346 H   0  0  0  0  0  0  0  0  0  0  0  0
    0.6408    3.4551    2.6005 H   0  0  0  0  0  0  0  0  0  0  0  0
    1.9330    2.2940    2.9974 H   0  0  0  0  0  0  0  0  0  0  0  0
    0.5154    0.4260    2.0075 H   0  0  0  0  0  0  0  0  0  0  0  0
   -0.2451   -2.2321   -2.4964 O   0  0  0  0  0  1  0  0  0  0  0  0
   -0.2451   -2.2321   -1.2373 N   0  0  0  0  0  0  0  0  0  0  0  0
   -0.2451   -1.1987   -0.4580 C   0  0  0  0  0  0  0  0  0  0  0  0
   -0.2451    0.1645   -1.0358 C   0  0  0  0  0  0  0  0  0  0  0  0
   -0.2451   -3.1495   -0.7814 H   0  0  0  0  0  0  0  0  0  0  0  0
   -0.2451   -1.4045    0.6026 H   0  0  0  0  0  0  0  0  0  0  0  0
   -0.2451    1.0693   -0.0947 H   0  0  0  0  0  0  0  0  0  0  0  0
    0.6293    0.3068   -1.6765 H   0  0  0  0  0  0  0  0  0  0  0  0
   -1.1195    0.3068   -1.6765 H   0  0  0  0  0  0  0  0  0  0  0  0
  1  2  1  0
  1  4  1  0
  1  5  1  0
  1  6  1  0
  2  3  2  3
  2  7  1  0
  3 14  1  0
  8  9  1  0
  9 10  1  0
  9 12  1  0
 10 11  2  3
 10 13  1  0
 11 15  1  0
 11 16  1  0
M  RAD  1   8   2
M  END
>  <reaction>  (7) 
rmg_rxn_16672

>  <mol_properties>  (7) 
{"1": {"label": "*4", "atom_type": "Cd"}, "2": {"label": "*3", "atom_type": "N3d"}, "9": {"label": "*0", "atom_type": "Csc"}, "10": {"label": "*1", "atom_type": "Cs"}, "13": {"label": "*2", "atom_type": "H0"}}

>  <type>  (7) 
unop_3

>  <geom_source>  (7) 
Heuristics

$$$$

     RDKit          3D

 16 14  0  0  0  0  0  0  0  0999 V2000
    0.0856    3.8314    1.3925 C   0  0  0  0  0  0  0  0  0  0  0  0
    0.4790    2.4813    0.8932 C   0  0  0  0  0  0  0  0  0  0  0  0
   -0.1106    1.4307    1.2740 N   0  0  0  0  0  0  0  0  0  0  0  0
    0.9344    4.3141    1.8838 H   0  0  0  0  0  0  0  0  0  0  0  0
   -0.7426    3.7491    2.0941 H   0  0  0  0  0  0  0  0  0  0  0  0
   -0.2055    4.4729    0.5567 H   0  0  0  0  0  0  0  0  0  0  0  0
    1.3105    2.4638    0.1769 H   0  0  0  0  0  0  0  0  0  0  0  0
   -0.1107   -2.7172   -2.0082 O   0  0  0  0  0  1  0  0  0  0  0  0
   -0.1107   -2.7172   -0.7491 N   0  0  0  0  0  0  0  0  0  0  0  0
   -0.1107   -1.6838    0.0301 C   0  0  0  0  0  0  0  0  0  0  0  0
   -0.1107   -0.3206   -0.5476 C   0  0  0  0  0  0  0  0  0  0  0  0
   -0.1107   -3.6346   -0.2932 H   0  0  0  0  0  0  0  0  0  0  0  0
   -0.1107   -1.8896    1.0908 H   0  0  0  0  0  0  0  0  0  0  0  0
   -0.1107    0.5841    0.3934 H   0  0  0  0  0  0  0  0  0  0  0  0
    0.7638   -0.1783   -1.1884 H   0  0  0  0  0  0  0  0  0  0  0  0
   -0.9851   -0.1783   -1.1884 H   0  0  0  0  0  0  0  0  0  0  0  0
  1  2  1  0
  1  4  1  0
  1  5  1  0
  1  6  1  0
  2  3  2  3
  2  7  1  0
  3 14  1  0
  8  9  1  0
  9 10  1  0
  9 12  1  0
 10 11  2  3
 10 13  1  0
 11 15  1  0
 11 16  1  0
M  RAD  1   8   2
M  END
>  <reaction>  (8) 
rmg_rxn_16672

>  <mol_properties>  (8) 
{"1": {"label": "*4", "atom_type": "Cd"}, "2": {"label": "*3", "atom_type": "N3d"}, "9": {"label": "*0", "atom_type": "Csc"}, "10": {"label": "*1", "atom_type": "Cs"}, "13": {"label": "*2", "atom_type": "H0"}}

>  <type>  (8) 
unop_4

>  <geom_source>  (8) 
Heuristics

$$$$

     RDKit          3D

 16 14  0  0  0  0  0  0  0  0999 V2000
   -1.2864    2.8646    2.2937 C   0  0  0  0  0  0  0  0  0  0  0  0
   -0.6307    1.6774    1.6709 C   0  0  0  0  0  0  0  0  0  0  0  0
    0.3905    1.7881    0.9353 N   0  0  0  0  0  0  0  0  0  0  0  0
   -2.3288    2.9320    1.9721 H   0  0  0  0  0  0  0  0  0  0  0  0
   -0.7602    3.7764    2.0169 H   0  0  0  0  0  0  0  0  0  0  0  0
   -1.2949    2.7633    3.3820 H   0  0  0  0  0  0  0  0  0  0  0  0
   -1.0937    0.7077    1.8945 H   0  0  0  0  0  0  0  0  0  0  0  0
    0.3905   -2.3598   -2.3469 O   0  0  0  0  0  1  0  0  0  0  0  0
    0.3905   -2.3598   -1.0878 N   0  0  0  0  0  0  0  0  0  0  0  0
    0.3905   -1.3264   -0.3086 C   0  0  0  0  0  0  0  0  0  0  0  0
    0.3905    0.0368   -0.8863 C   0  0  0  0  0  0  0  0  0  0  0  0
    0.3905   -3.2772   -0.6319 H   0  0  0  0  0  0  0  0  0  0  0  0
    0.3905   -1.5322    0.7521 H   0  0  0  0  0  0  0  0  0  0  0  0
    0.3905    0.9416    0.0548 H   0  0  0  0  0  0  0  0  0  0  0  0
    1.2650    0.1791   -1.5270 H   0  0  0  0  0  0  0  0  0  0  0  0
   -0.4839    0.1791   -1.5270 H   0  0  0  0  0  0  0  0  0  0  0  0
  1  2  1  0
  1  4  1  0
  1  5  1  0
  1  6  1  0
  2  3  2  3
  2  7  1  0
  3 14  1  0
  8  9  1  0
  9 10  1  0
  9 12  1  0
 10 11  2  3
 10 13  1  0
 11 15  1  0
 11 16  1  0
M  RAD  1   8   2
M  END
>  <reaction>  (9) 
rmg_rxn_16672

>  <mol_properties>  (9) 
{"1": {"label": "*4", "atom_type": "Cd"}, "2": {"label": "*3", "atom_type": "N3d"}, "9": {"label": "*0", "atom_type": "Csc"}, "10": {"label": "*1", "atom_type": "Cs"}, "13": {"label": "*2", "atom_type": "H0"}}

>  <type>  (9) 
unop_5

>  <geom_source>  (9) 
Heuristics

$$$$

     RDKit          3D

 16 14  0  0  0  0  0  0  0  0999 V2000
    0.0000    3.8005    1.6228 C   0  0  0  0  0  0  0  0  0  0  0  0
    0.0000    2.5821    0.7612 C   0  0  0  0  0  0  0  0  0  0  0  0
    0.0000    1.4176    1.2515 N   0  0  0  0  0  0  0  0  0  0  0  0
    0.8783    4.4147    1.4080 H   0  0  0  0  0  0  0  0  0  0  0  0
    0.0000    3.5204    2.6747 H   0  0  0  0  0  0  0  0  0  0  0  0
   -0.8783    4.4147    1.4080 H   0  0  0  0  0  0  0  0  0  0  0  0
    0.0000    2.7659   -0.3209 H   0  0  0  0  0  0  0  0  0  0  0  0
   -0.0000   -2.7303   -2.0307 O   0  0  0  0  0  1  0  0  0  0  0  0
   -0.0000   -2.7303   -0.7716 N   0  0  0  0  0  0  0  0  0  0  0  0
   -0.0000   -1.6969    0.0076 C   0  0  0  0  0  0  0  0  0  0  0  0
   -0.0000   -0.3337   -0.5701 C   0  0  0  0  0  0  0  0  0  0  0  0
   -0.0000   -3.6477   -0.3157 H   0  0  0  0  0  0  0  0  0  0  0  0
   -0.0000   -1.9027    1.0683 H   0  0  0  0  0  0  0  0  0  0  0  0
    0.0000    0.5710    0.3710 H   0  0  0  0  0  0  0  0  0  0  0  0
    0.8744   -0.1914   -1.2108 H   0  0  0  0  0  0  0  0  0  0  0  0
   -0.8744   -0.1914   -1.2108 H   0  0  0  0  0  0  0  0  0  0  0  0
  1  2  1  0
  1  4  1  0
  1  5  1  0
  1  6  1  0
  2  3  2  3
  2  7  1  0
  3 14  1  0
  8  9  1  0
  9 10  1  0
  9 12  1  0
 10 11  2  3
 10 13  1  0
 11 15  1  0
 11 16  1  0
M  RAD  1   8   2
M  END
>  <reaction>  (10) 
rmg_rxn_16672

>  <mol_properties>  (10) 
{"1": {"label": "*4", "atom_type": "Cd"}, "2": {"label": "*3", "atom_type": "N3d"}, "9": {"label": "*0", "atom_type": "Csc"}, "10": {"label": "*1", "atom_type": "Cs"}, "13": {"label": "*2", "atom_type": "H0"}}

>  <type>  (10) 
unop_6

>  <geom_source>  (10) 
Heuristics

$$$$

     RDKit          3D

 16 14  0  0  0  0  0  0  0  0999 V2000
   -1.1764    3.3613    1.6985 C   0  0  0  0  0  0  0  0  0  0  0  0
   -0.7823    1.9467    1.4326 C   0  0  0  0  0  0  0  0  0  0  0  0
    0.3970    1.6323    1.1056 N   0  0  0  0  0  0  0  0  0  0  0  0
   -1.9795    3.6630    1.0213 H   0  0  0  0  0  0  0  0  0  0  0  0
   -0.3221    4.0232    1.5681 H   0  0  0  0  0  0  0  0  0  0  0  0
   -1.5637    3.4603    2.7158 H   0  0  0  0  0  0  0  0  0  0  0  0
   -1.5823    1.2029    1.5400 H   0  0  0  0  0  0  0  0  0  0  0  0
    0.3970   -2.5156   -2.1766 O   0  0  0  0  0  1  0  0  0  0  0  0
    0.3970   -2.5156   -0.9174 N   0  0  0  0  0  0  0  0  0  0  0  0
    0.3970   -1.4822   -0.1382 C   0  0  0  0  0  0  0  0  0  0  0  0
    0.3970   -0.1190   -0.7160 C   0  0  0  0  0  0  0  0  0  0  0  0
    0.3970   -3.4330   -0.4616 H   0  0  0  0  0  0  0  0  0  0  0  0
    0.3970   -1.6880    0.9224 H   0  0  0  0  0  0  0  0  0  0  0  0
    0.3970    0.7858    0.2251 H   0  0  0  0  0  0  0  0  0  0  0  0
    1.2714    0.0233   -1.3567 H   0  0  0  0  0  0  0  0  0  0  0  0
   -0.4775    0.0233   -1.3567 H   0  0  0  0  0  0  0  0  0  0  0  0
  1  2  1  0
  1  4  1  0
  1  5  1  0
  1  6  1  0
  2  3  2  3
  2  7  1  0
  3 14  1  0
  8  9  1  0
  9 10  1  0
  9 12  1  0
 10 11  2  3
 10 13  1  0
 11 15  1  0
 11 16  1  0
M  RAD  1   8   2
M  END
>  <reaction>  (11) 
rmg_rxn_16672

>  <mol_properties>  (11) 
{"1": {"label": "*4", "atom_type": "Cd"}, "2": {"label": "*3", "atom_type": "N3d"}, "9": {"label": "*0", "atom_type": "Csc"}, "10": {"label": "*1", "atom_type": "Cs"}, "13": {"label": "*2", "atom_type": "H0"}}

>  <type>  (11) 
unop_7

>  <geom_source>  (11) 
Heuristics

$$$$

     RDKit          3D

 16 14  0  0  0  0  0  0  0  0999 V2000
   -0.6607    3.7184    1.3425 C   0  0  0  0  0  0  0  0  0  0  0  0
   -0.7400    2.2403    1.1525 C   0  0  0  0  0  0  0  0  0  0  0  0
    0.2812    1.5009    1.2342 N   0  0  0  0  0  0  0  0  0  0  0  0
   -1.0195    4.2337    0.4479 H   0  0  0  0  0  0  0  0  0  0  0  0
    0.3649    4.0191    1.5493 H   0  0  0  0  0  0  0  0  0  0  0  0
   -1.3061    4.0279    2.1686 H   0  0  0  0  0  0  0  0  0  0  0  0
   -1.7403    1.8423    0.9383 H   0  0  0  0  0  0  0  0  0  0  0  0
    0.2812   -2.6470   -2.0480 O   0  0  0  0  0  1  0  0  0  0  0  0
    0.2812   -2.6470   -0.7889 N   0  0  0  0  0  0  0  0  0  0  0  0
    0.2812   -1.6136   -0.0097 C   0  0  0  0  0  0  0  0  0  0  0  0
    0.2812   -0.2504   -0.5874 C   0  0  0  0  0  0  0  0  0  0  0  0
    0.2812   -3.5644   -0.3331 H   0  0  0  0  0  0  0  0  0  0  0  0
    0.2812   -1.8194    1.0510 H   0  0  0  0  0  0  0  0  0  0  0  0
    0.2812    0.6544    0.3536 H   0  0  0  0  0  0  0  0  0  0  0  0
    1.1556   -0.1080   -1.2282 H   0  0  0  0  0  0  0  0  0  0  0  0
   -0.5932   -0.1080   -1.2282 H   0  0  0  0  0  0  0  0  0  0  0  0
  1  2  1  0
  1  4  1  0
  1  5  1  0
  1  6  1  0
  2  3  2  3
  2  7  1  0
  3 14  1  0
  8  9  1  0
  9 10  1  0
  9 12  1  0
 10 11  2  3
 10 13  1  0
 11 15  1  0
 11 16  1  0
M  RAD  1   8   2
M  END
>  <reaction>  (12) 
rmg_rxn_16672

>  <mol_properties>  (12) 
{"1": {"label": "*4", "atom_type": "Cd"}, "2": {"label": "*3", "atom_type": "N3d"}, "9": {"label": "*0", "atom_type": "Csc"}, "10": {"label": "*1", "atom_type": "Cs"}, "13": {"label": "*2", "atom_type": "H0"}}

>  <type>  (12) 
unop_8

>  <geom_source>  (12) 
Heuristics

$$$$

     RDKit          3D

 16 14  0  0  0  0  0  0  0  0999 V2000
    1.1764    3.3613    1.6985 C   0  0  0  0  0  0  0  0  0  0  0  0
    0.7823    1.9467    1.4326 C   0  0  0  0  0  0  0  0  0  0  0  0
   -0.3970    1.6323    1.1056 N   0  0  0  0  0  0  0  0  0  0  0  0
    1.5637    3.4603    2.7158 H   0  0  0  0  0  0  0  0  0  0  0  0
    0.3221    4.0232    1.5680 H   0  0  0  0  0  0  0  0  0  0  0  0
    1.9795    3.6630    1.0213 H   0  0  0  0  0  0  0  0  0  0  0  0
    1.5823    1.2029    1.5400 H   0  0  0  0  0  0  0  0  0  0  0  0
   -0.3970   -2.5156   -2.1766 O   0  0  0  0  0  1  0  0  0  0  0  0
   -0.3970   -2.5156   -0.9174 N   0  0  0  0  0  0  0  0  0  0  0  0
   -0.3970   -1.4822   -0.1382 C   0  0  0  0  0  0  0  0  0  0  0  0
   -0.3970   -0.1190   -0.7160 C   0  0  0  0  0  0  0  0  0  0  0  0
   -0.3970   -3.4330   -0.4616 H   0  0  0  0  0  0  0  0  0  0  0  0
   -0.3970   -1.6880    0.9224 H   0  0  0  0  0  0  0  0  0  0  0  0
   -0.3970    0.7858    0.2251 H   0  0  0  0  0  0  0  0  0  0  0  0
    0.4775    0.0233   -1.3567 H   0  0  0  0  0  0  0  0  0  0  0  0
   -1.2714    0.0233   -1.3567 H   0  0  0  0  0  0  0  0  0  0  0  0
  1  2  1  0
  1  4  1  0
  1  5  1  0
  1  6  1  0
  2  3  2  3
  2  7  1  0
  3 14  1  0
  8  9  1  0
  9 10  1  0
  9 12  1  0
 10 11  2  3
 10 13  1  0
 11 15  1  0
 11 16  1  0
M  RAD  1   8   2
M  END
>  <reaction>  (13) 
rmg_rxn_16672

>  <mol_properties>  (13) 
{"1": {"label": "*4", "atom_type": "Cd"}, "2": {"label": "*3", "atom_type": "N3d"}, "9": {"label": "*0", "atom_type": "Csc"}, "10": {"label": "*1", "atom_type": "Cs"}, "13": {"label": "*2", "atom_type": "H0"}}

>  <type>  (13) 
unop_9

>  <geom_source>  (13) 
Heuristics

$$$$

     RDKit          3D

 16 14  0  0  0  0  0  0  0  0999 V2000
    3.2458   -0.6426   -0.1597 C   0  0  0  0  0  0  0  0  0  0  0  0
    1.8525   -0.1887    0.1320 C   0  0  0  0  0  0  0  0  0  0  0  0
    1.4686    0.9652   -0.1374 N   0  0  0  0  0  0  0  0  0  0  0  0
    3.2121   -1.5006   -0.8291 H   0  0  0  0  0  0  0  0  0  0  0  0
    3.7234   -0.9564    0.7671 H   0  0  0  0  0  0  0  0  0  0  0  0
    3.8192    0.1593   -0.6162 H   0  0  0  0  0  0  0  0  0  0  0  0
    1.2167   -0.9549    0.5923 H   0  0  0  0  0  0  0  0  0  0  0  0
   -1.6421   -1.3991    0.4257 O   0  0  0  0  0  1  0  0  0  0  0  0
   -2.0479   -0.5469   -0.4249 N   0  0  0  0  0  0  0  0  0  0  0  0
   -1.7699    0.7516   -0.4156 C   0  0  0  0  0  0  0  0  0  0  0  0
   -0.9431    1.3281    0.5526 C   0  0  0  0  0  0  0  0  0  0  0  0
   -2.6546   -0.9025   -1.1730 H   0  0  0  0  0  0  0  0  0  0  0  0
   -2.1420    1.3170   -1.2563 H   0  0  0  0  0  0  0  0  0  0  0  0
    0.3394    1.1826    0.1438 H   0  0  0  0  0  0  0  0  0  0  0  0
   -0.9631    2.4029    0.6468 H   0  0  0  0  0  0  0  0  0  0  0  0
   -0.8586    0.7727    1.4787 H   0  0  0  0  0  0  0  0  0  0  0  0
  1  2  1  0
  1  4  1  0
  1  5  1  0
  1  6  1  0
  2  3  2  3
  2  7  1  0
  3 14  1  0
  8  9  1  0
  9 10  1  0
  9 12  1  0
 10 11  2  3
 10 13  1  0
 11 15  1  0
 11 16  1  0
M  RAD  1   8   2
M  END
>  <reaction>  (14) 
rmg_rxn_16672

>  <mol_properties>  (14) 
{"1": {"label": "*4", "atom_type": "Cd"}, "2": {"label": "*3", "atom_type": "N3d"}, "9": {"label": "*0", "atom_type": "Csc"}, "10": {"label": "*1", "atom_type": "Cs"}, "13": {"label": "*2", "atom_type": "H0"}}

>  <type>  (14) 
unop_10

>  <geom_source>  (14) 
Heuristics

$$$$

     RDKit          3D

 16 14  0  0  0  0  0  0  0  0999 V2000
   -0.8550    2.4228    2.8712 C   0  0  0  0  0  0  0  0  0  0  0  0
   -0.3445    1.4940    1.8206 C   0  0  0  0  0  0  0  0  0  0  0  0
    0.2451    1.9158    0.7858 N   0  0  0  0  0  0  0  0  0  0  0  0
   -1.9330    2.2940    2.9974 H   0  0  0  0  0  0  0  0  0  0  0  0
   -0.6408    3.4551    2.6005 H   0  0  0  0  0  0  0  0  0  0  0  0
   -0.3921    2.1938    3.8346 H   0  0  0  0  0  0  0  0  0  0  0  0
   -0.5154    0.4260    2.0075 H   0  0  0  0  0  0  0  0  0  0  0  0
    0.2451   -2.2321   -2.4964 O   0  0  0  0  0  1  0  0  0  0  0  0
    0.2451   -2.2321   -1.2373 N   0  0  0  0  0  0  0  0  0  0  0  0
    0.2451   -1.1987   -0.4580 C   0  0  0  0  0  0  0  0  0  0  0  0
    0.2451    0.1645   -1.0358 C   0  0  0  0  0  0  0  0  0  0  0  0
    0.2451   -3.1495   -0.7814 H   0  0  0  0  0  0  0  0  0  0  0  0
    0.2451   -1.4045    0.6026 H   0  0  0  0  0  0  0  0  0  0  0  0
    0.2451    1.0693   -0.0947 H   0  0  0  0  0  0  0  0  0  0  0  0
    1.1195    0.3068   -1.6765 H   0  0  0  0  0  0  0  0  0  0  0  0
   -0.6293    0.3068   -1.6765 H   0  0  0  0  0  0  0  0  0  0  0  0
  1  2  1  0
  1  4  1  0
  1  5  1  0
  1  6  1  0
  2  3  2  3
  2  7  1  0
  3 14  1  0
  8  9  1  0
  9 10  1  0
  9 12  1  0
 10 11  2  3
 10 13  1  0
 11 15  1  0
 11 16  1  0
M  RAD  1   8   2
M  END
>  <reaction>  (15) 
rmg_rxn_16672

>  <mol_properties>  (15) 
{"1": {"label": "*4", "atom_type": "Cd"}, "2": {"label": "*3", "atom_type": "N3d"}, "9": {"label": "*0", "atom_type": "Csc"}, "10": {"label": "*1", "atom_type": "Cs"}, "13": {"label": "*2", "atom_type": "H0"}}

>  <type>  (15) 
unop_11

>  <geom_source>  (15) 
Heuristics

$$$$

     RDKit          3D

 16 14  0  0  0  0  0  0  0  0999 V2000
    1.2864    2.8646    2.2937 C   0  0  0  0  0  0  0  0  0  0  0  0
    0.6307    1.6774    1.6709 C   0  0  0  0  0  0  0  0  0  0  0  0
   -0.3905    1.7881    0.9353 N   0  0  0  0  0  0  0  0  0  0  0  0
    1.2949    2.7633    3.3820 H   0  0  0  0  0  0  0  0  0  0  0  0
    0.7602    3.7764    2.0169 H   0  0  0  0  0  0  0  0  0  0  0  0
    2.3288    2.9320    1.9721 H   0  0  0  0  0  0  0  0  0  0  0  0
    1.0937    0.7077    1.8945 H   0  0  0  0  0  0  0  0  0  0  0  0
   -0.3905   -2.3598   -2.3469 O   0  0  0  0  0  1  0  0  0  0  0  0
   -0.3905   -2.3598   -1.0878 N   0  0  0  0  0  0  0  0  0  0  0  0
   -0.3905   -1.3264   -0.3086 C   0  0  0  0  0  0  0  0  0  0  0  0
   -0.3905    0.0368   -0.8863 C   0  0  0  0  0  0  0  0  0  0  0  0
   -0.3905   -3.2772   -0.6319 H   0  0  0  0  0  0  0  0  0  0  0  0
   -0.3905   -1.5322    0.7521 H   0  0  0  0  0  0  0  0  0  0  0  0
   -0.3905    0.9416    0.0548 H   0  0  0  0  0  0  0  0  0  0  0  0
    0.4839    0.1791   -1.5270 H   0  0  0  0  0  0  0  0  0  0  0  0
   -1.2650    0.1791   -1.5270 H   0  0  0  0  0  0  0  0  0  0  0  0
  1  2  1  0
  1  4  1  0
  1  5  1  0
  1  6  1  0
  2  3  2  3
  2  7  1  0
  3 14  1  0
  8  9  1  0
  9 10  1  0
  9 12  1  0
 10 11  2  3
 10 13  1  0
 11 15  1  0
 11 16  1  0
M  RAD  1   8   2
M  END
>  <reaction>  (16) 
rmg_rxn_16672

>  <mol_properties>  (16) 
{"1": {"label": "*4", "atom_type": "Cd"}, "2": {"label": "*3", "atom_type": "N3d"}, "9": {"label": "*0", "atom_type": "Csc"}, "10": {"label": "*1", "atom_type": "Cs"}, "13": {"label": "*2", "atom_type": "H0"}}

>  <type>  (16) 
unop_12

>  <geom_source>  (16) 
Heuristics

$$$$

     RDKit          3D

 16 14  0  0  0  0  0  0  0  0999 V2000
   -0.0856    3.8314    1.3925 C   0  0  0  0  0  0  0  0  0  0  0  0
   -0.4790    2.4813    0.8932 C   0  0  0  0  0  0  0  0  0  0  0  0
    0.1107    1.4307    1.2740 N   0  0  0  0  0  0  0  0  0  0  0  0
    0.2055    4.4729    0.5567 H   0  0  0  0  0  0  0  0  0  0  0  0
    0.7426    3.7491    2.0941 H   0  0  0  0  0  0  0  0  0  0  0  0
   -0.9344    4.3141    1.8838 H   0  0  0  0  0  0  0  0  0  0  0  0
   -1.3105    2.4638    0.1769 H   0  0  0  0  0  0  0  0  0  0  0  0
    0.1106   -2.7172   -2.0082 O   0  0  0  0  0  1  0  0  0  0  0  0
    0.1106   -2.7172   -0.7491 N   0  0  0  0  0  0  0  0  0  0  0  0
    0.1106   -1.6838    0.0301 C   0  0  0  0  0  0  0  0  0  0  0  0
    0.1106   -0.3206   -0.5476 C   0  0  0  0  0  0  0  0  0  0  0  0
    0.1106   -3.6346   -0.2932 H   0  0  0  0  0  0  0  0  0  0  0  0
    0.1106   -1.8896    1.0908 H   0  0  0  0  0  0  0  0  0  0  0  0
    0.1107    0.5841    0.3934 H   0  0  0  0  0  0  0  0  0  0  0  0
    0.9851   -0.1783   -1.1884 H   0  0  0  0  0  0  0  0  0  0  0  0
   -0.7638   -0.1783   -1.1884 H   0  0  0  0  0  0  0  0  0  0  0  0
  1  2  1  0
  1  4  1  0
  1  5  1  0
  1  6  1  0
  2  3  2  3
  2  7  1  0
  3 14  1  0
  8  9  1  0
  9 10  1  0
  9 12  1  0
 10 11  2  3
 10 13  1  0
 11 15  1  0
 11 16  1  0
M  RAD  1   8   2
M  END
>  <reaction>  (17) 
rmg_rxn_16672

>  <mol_properties>  (17) 
{"1": {"label": "*4", "atom_type": "Cd"}, "2": {"label": "*3", "atom_type": "N3d"}, "9": {"label": "*0", "atom_type": "Csc"}, "10": {"label": "*1", "atom_type": "Cs"}, "13": {"label": "*2", "atom_type": "H0"}}

>  <type>  (17) 
unop_13

>  <geom_source>  (17) 
Heuristics

$$$$

     RDKit          3D

 16 14  0  0  0  0  0  0  0  0999 V2000
    0.0000    2.2430    3.1202 C   0  0  0  0  0  0  0  0  0  0  0  0
    0.0000    1.4300    1.8688 C   0  0  0  0  0  0  0  0  0  0  0  0
    0.0000    1.9657    0.7245 N   0  0  0  0  0  0  0  0  0  0  0  0
   -0.8783    2.0042    3.7254 H   0  0  0  0  0  0  0  0  0  0  0  0
    0.0000    3.3051    2.8816 H   0  0  0  0  0  0  0  0  0  0  0  0
    0.8783    2.0042    3.7254 H   0  0  0  0  0  0  0  0  0  0  0  0
    0.0000    0.3415    2.0100 H   0  0  0  0  0  0  0  0  0  0  0  0
   -0.0000   -2.1822   -2.5577 O   0  0  0  0  0  1  0  0  0  0  0  0
   -0.0000   -2.1822   -1.2985 N   0  0  0  0  0  0  0  0  0  0  0  0
   -0.0000   -1.1488   -0.5193 C   0  0  0  0  0  0  0  0  0  0  0  0
   -0.0000    0.2144   -1.0971 C   0  0  0  0  0  0  0  0  0  0  0  0
   -0.0000   -3.0996   -0.8427 H   0  0  0  0  0  0  0  0  0  0  0  0
   -0.0000   -1.3546    0.5414 H   0  0  0  0  0  0  0  0  0  0  0  0
   -0.0000    1.1191   -0.1560 H   0  0  0  0  0  0  0  0  0  0  0  0
    0.8744    0.3567   -1.7378 H   0  0  0  0  0  0  0  0  0  0  0  0
   -0.8744    0.3567   -1.7378 H   0  0  0  0  0  0  0  0  0  0  0  0
  1  2  1  0
  1  4  1  0
  1  5  1  0
  1  6  1  0
  2  3  2  3
  2  7  1  0
  3 14  1  0
  8  9  1  0
  9 10  1  0
  9 12  1  0
 10 11  2  3
 10 13  1  0
 11 15  1  0
 11 16  1  0
M  RAD  1   8   2
M  END
>  <reaction>  (18) 
rmg_rxn_16672

>  <mol_properties>  (18) 
{"1": {"label": "*4", "atom_type": "Cd"}, "2": {"label": "*3", "atom_type": "N3d"}, "9": {"label": "*0", "atom_type": "Csc"}, "10": {"label": "*1", "atom_type": "Cs"}, "13": {"label": "*2", "atom_type": "H0"}}

>  <type>  (18) 
unop_14

>  <geom_source>  (18) 
Heuristics

$$$$

     RDKit          3D

 16 14  0  0  0  0  0  0  0  0999 V2000
    0.8550    2.4228    2.8712 C   0  0  0  0  0  0  0  0  0  0  0  0
    0.3445    1.4940    1.8206 C   0  0  0  0  0  0  0  0  0  0  0  0
   -0.2451    1.9158    0.7858 N   0  0  0  0  0  0  0  0  0  0  0  0
    0.3921    2.1938    3.8346 H   0  0  0  0  0  0  0  0  0  0  0  0
    0.6408    3.4551    2.6005 H   0  0  0  0  0  0  0  0  0  0  0  0
    1.9330    2.2940    2.9974 H   0  0  0  0  0  0  0  0  0  0  0  0
    0.5154    0.4260    2.0075 H   0  0  0  0  0  0  0  0  0  0  0  0
   -0.2451   -2.2321   -2.4964 O   0  0  0  0  0  1  0  0  0  0  0  0
   -0.2451   -2.2321   -1.2372 N   0  0  0  0  0  0  0  0  0  0  0  0
   -0.2451   -1.1987   -0.4581 C   0  0  0  0  0  0  0  0  0  0  0  0
   -0.2451    0.1645   -1.0358 C   0  0  0  0  0  0  0  0  0  0  0  0
   -0.2451   -3.1495   -0.7814 H   0  0  0  0  0  0  0  0  0  0  0  0
   -0.2451   -1.4045    0.6026 H   0  0  0  0  0  0  0  0  0  0  0  0
   -0.2451    1.0693   -0.0947 H   0  0  0  0  0  0  0  0  0  0  0  0
    0.6293    0.3068   -1.6765 H   0  0  0  0  0  0  0  0  0  0  0  0
   -1.1195    0.3068   -1.6765 H   0  0  0  0  0  0  0  0  0  0  0  0
  1  2  1  0
  1  4  1  0
  1  5  1  0
  1  6  1  0
  2  3  2  3
  2  7  1  0
  3 14  1  0
  8  9  1  0
  9 10  1  0
  9 12  1  0
 10 11  2  3
 10 13  1  0
 11 15  1  0
 11 16  1  0
M  RAD  1   8   2
M  END
>  <reaction>  (19) 
rmg_rxn_16672

>  <mol_properties>  (19) 
{"1": {"label": "*4", "atom_type": "Cd"}, "2": {"label": "*3", "atom_type": "N3d"}, "9": {"label": "*0", "atom_type": "Csc"}, "10": {"label": "*1", "atom_type": "Cs"}, "13": {"label": "*2", "atom_type": "H0"}}

>  <type>  (19) 
unop_15

>  <geom_source>  (19) 
gaussian_log

$$$$
