
     RDKit          3D

  9  8  0  0  0  0  0  0  0  0999 V2000
   -0.9895    0.3048    0.1041 C   0  0  0  0  0  0  0  0  0  0  0  0
    0.3761   -0.3562    0.0721 C   0  0  0  0  0  0  0  0  0  0  0  0
    0.3441   -1.6564   -0.4834 O   0  0  0  0  0  0  0  0  0  0  0  0
   -1.6997   -0.3114    0.6572 H   0  0  0  0  0  0  0  0  0  0  0  0
   -0.9320    1.2848    0.5822 H   0  0  0  0  0  0  0  0  0  0  0  0
   -1.3774    0.4507   -0.9077 H   0  0  0  0  0  0  0  0  0  0  0  0
    0.7581   -0.4813    1.0862 H   0  0  0  0  0  0  0  0  0  0  0  0
    1.0900    0.2787   -0.4681 H   0  0  0  0  0  0  0  0  0  0  0  0
    0.0089   -1.5959   -1.3792 H   0  0  0  0  0  0  0  0  0  0  0  0
  1  2  1  0
  1  4  1  0
  1  5  1  0
  1  6  1  0
  2  3  1  0
  2  7  1  0
  2  8  1  0
  3  9  1  0
M  END
>  <reaction>  (1) 
rmg_rxn_15496

>  <mol_properties>  (1) 
{"1": {"label": "donator", "atom_type": "Cs"}, "6": {"label": "d_hydrogen", "atom_type": "H0"}}

>  <type>  (1) 
r1h

$$$$

     RDKit          3D

  5  4  0  0  0  0  0  0  0  0999 V2000
    0.8934    0.3742    0.4948 O   0  0  0  0  0  0  0  0  0  0  0  0
    0.1582   -0.1610   -0.5904 N   0  0  0  0  0  0  0  0  0  0  0  0
   -1.0297   -0.3739   -0.4689 C   0  0  0  0  0  3  0  0  0  0  0  0
    1.7804    0.4382    0.1306 H   0  0  0  0  0  0  0  0  0  0  0  0
   -1.8023   -0.2775    0.2859 H   0  0  0  0  0  0  0  0  0  0  0  0
  1  2  1  0
  1  4  1  0
  2  3  2  3
  3  5  1  0
M  RAD  1   3   2
M  END
>  <reaction>  (2) 
rmg_rxn_15496

>  <mol_properties>  (2) 
{"2": {"label": "acceptor", "atom_type": "Cd"}}

>  <type>  (2) 
r2

$$$$

     RDKit          3D

  6  5  0  0  0  0  0  0  0  0999 V2000
    1.2314    0.0428    0.5088 O   0  0  0  0  0  0  0  0  0  0  0  0
    0.2987    0.2341   -0.4915 N   0  0  0  0  0  0  0  0  0  0  0  0
   -0.8599   -0.1122   -0.1290 C   0  0  0  0  0  0  0  0  0  0  0  0
    2.0507    0.3401    0.1082 H   0  0  0  0  0  0  0  0  0  0  0  0
   -1.0700   -0.5112    0.8610 H   0  0  0  0  0  0  0  0  0  0  0  0
   -1.6509    0.0064   -0.8574 H   0  0  0  0  0  0  0  0  0  0  0  0
  1  2  1  0
  1  4  1  0
  2  3  2  3
  3  5  1  0
  3  6  1  0
M  END
>  <reaction>  (3) 
rmg_rxn_15496

>  <mol_properties>  (3) 
{"2": {"label": "acceptor", "atom_type": "Cd"}, "5": {"label": "a_hydrogen", "atom_type": "H0"}}

>  <type>  (3) 
r2h

$$$$

     RDKit          3D

 14 12  0  0  0  0  0  0  0  0999 V2000
    2.7155    0.2953   -0.4771 O   0  0  0  0  0  0  0  0  0  0  0  0
    1.3268    0.2396   -0.2955 N   0  0  0  0  0  0  0  0  0  0  0  0
    0.9523    0.1506    0.8866 C   0  0  0  0  0  3  0  0  0  0  0  0
    2.8067    0.3777   -1.4293 H   0  0  0  0  0  0  0  0  0  0  0  0
    1.5714    0.1110    1.7826 H   0  0  0  0  0  0  0  0  0  0  0  0
   -1.9100   -1.4155    0.0902 C   0  0  0  0  0  0  0  0  0  0  0  0
   -1.6551    0.0516    0.3349 C   0  0  0  0  0  0  0  0  0  0  0  0
   -1.5740    0.8340   -0.8034 O   0  0  0  0  0  0  0  0  0  0  0  0
   -2.8603   -1.5549   -0.4303 H   0  0  0  0  0  0  0  0  0  0  0  0
   -1.1150   -1.8446   -0.5239 H   0  0  0  0  0  0  0  0  0  0  0  0
   -1.9455   -1.9614    1.0346 H   0  0  0  0  0  0  0  0  0  0  0  0
   -0.5411    0.1140    0.8801 H   0  0  0  0  0  0  0  0  0  0  0  0
   -2.3626    0.5129    1.0250 H   0  0  0  0  0  0  0  0  0  0  0  0
   -0.7631    0.5966   -1.2695 H   0  0  0  0  0  0  0  0  0  0  0  0
  1  2  1  0
  1  4  1  0
  2  3  2  3
  3  5  1  0
  6  7  1  0
  6  9  1  0
  6 10  1  0
  6 11  1  0
  7  8  1  0
  7 12  1  0
  7 13  1  0
  8 14  1  0
M  RAD  1   3   2
M  END
>  <reaction>  (4) 
rmg_rxn_15496

>  <mol_properties>  (4) 
{"1": {"label": "*4", "atom_type": "N3d"}, "2": {"label": "*3", "atom_type": "Cd"}, "6": {"label": "*1", "atom_type": "Cs"}, "7": {"label": "*0", "atom_type": "O2s"}, "11": {"label": "*2", "atom_type": "H0"}}

>  <type>  (4) 
ts

$$$$

     RDKit          3D

 14 12  0  0  0  0  0  0  0  0999 V2000
    2.9634   -0.0321   -0.2258 O   0  0  0  0  0  0  0  0  0  0  0  0
    1.5514   -0.1046   -0.2188 N   0  0  0  0  0  0  0  0  0  0  0  0
    0.9279    0.3498    0.7524 C   0  0  0  0  0  0  0  0  0  0  0  0
    3.2210   -0.4402   -1.0635 H   0  0  0  0  0  0  0  0  0  0  0  0
    1.3189    0.8244    1.6445 H   0  0  0  0  0  0  0  0  0  0  0  0
   -1.7979   -1.3553   -0.0987 C   0  0  0  0  0  0  0  0  0  0  0  0
   -1.6715    0.0518    0.4280 C   0  0  0  0  0  3  0  0  0  0  0  0
   -2.0833    1.0577   -0.4325 O   0  0  0  0  0  0  0  0  0  0  0  0
   -2.8364   -1.5889   -0.3444 H   0  0  0  0  0  0  0  0  0  0  0  0
   -1.1934   -1.4788   -0.9968 H   0  0  0  0  0  0  0  0  0  0  0  0
   -1.4521   -2.0635    0.6489 H   0  0  0  0  0  0  0  0  0  0  0  0
   -0.3559    0.2232    0.6493 H   0  0  0  0  0  0  0  0  0  0  0  0
   -2.1514    0.2193    1.3907 H   0  0  0  0  0  0  0  0  0  0  0  0
   -1.7946    0.8442   -1.3282 H   0  0  0  0  0  0  0  0  0  0  0  0
  1  2  1  0
  1  4  1  0
  2  3  2  3
  3  5  1  0
  3 12  1  0
  6  7  1  0
  6  9  1  0
  6 10  1  0
  6 11  1  0
  7  8  1  0
  7 13  1  0
  8 14  1  0
M  RAD  1   7   2
M  END
>  <reaction>  (5) 
rmg_rxn_15496

>  <mol_properties>  (5) 
{"1": {"label": "*4", "atom_type": "N3d"}, "2": {"label": "*3", "atom_type": "Cd"}, "6": {"label": "*1", "atom_type": "Cs"}, "7": {"label": "*0", "atom_type": "O2s"}, "11": {"label": "*2", "atom_type": "H0"}}

>  <type>  (5) 
unop_1

>  <geom_source>  (5) 
crest_best.xyz

$$$$

     RDKit          3D

 14 12  0  0  0  0  0  0  0  0999 V2000
    1.9833   -0.9153    1.9737 O   0  0  0  0  0  0  0  0  0  0  0  0
    1.5144   -0.2181    0.8777 N   0  0  0  0  0  0  0  0  0  0  0  0
    0.7632   -0.9279    0.1528 C   0  0  0  0  0  0  0  0  0  0  0  0
    2.5296   -0.2717    2.4291 H   0  0  0  0  0  0  0  0  0  0  0  0
    0.5297   -1.9642    0.3879 H   0  0  0  0  0  0  0  0  0  0  0  0
   -1.4033    0.2090   -2.2653 C   0  0  0  0  0  0  0  0  0  0  0  0
   -1.4033    0.2090   -0.7478 C   0  0  0  0  0  3  0  0  0  0  0  0
   -1.4033    1.5122   -0.1985 O   0  0  0  0  0  0  0  0  0  0  0  0
   -0.5473    0.7666   -2.6477 H   0  0  0  0  0  0  0  0  0  0  0  0
   -1.3549   -0.8116   -2.6506 H   0  0  0  0  0  0  0  0  0  0  0  0
   -2.3148    0.6692   -2.6565 H   0  0  0  0  0  0  0  0  0  0  0  0
   -0.3156   -0.3618   -0.2956 H   0  0  0  0  0  0  0  0  0  0  0  0
   -2.2555   -0.3707   -0.3705 H   0  0  0  0  0  0  0  0  0  0  0  0
   -2.1853    1.9722   -0.5076 H   0  0  0  0  0  0  0  0  0  0  0  0
  1  2  1  0
  1  4  1  0
  2  3  2  3
  3  5  1  0
  3 12  1  0
  6  7  1  0
  6  9  1  0
  6 10  1  0
  6 11  1  0
  7  8  1  0
  7 13  1  0
  8 14  1  0
M  RAD  1   7   2
M  END
>  <reaction>  (6) 
rmg_rxn_15496

>  <mol_properties>  (6) 
{"1": {"label": "*4", "atom_type": "N3d"}, "2": {"label": "*3", "atom_type": "Cd"}, "6": {"label": "*1", "atom_type": "Cs"}, "7": {"label": "*0", "atom_type": "O2s"}, "11": {"label": "*2", "atom_type": "H0"}}

>  <type>  (6) 
unop_2

>  <geom_source>  (6) 
Heuristics

$$$$

     RDKit          3D

 14 12  0  0  0  0  0  0  0  0999 V2000
    2.9641   -0.0306   -0.2262 O   0  0  0  0  0  0  0  0  0  0  0  0
    1.5519   -0.1006   -0.2221 N   0  0  0  0  0  0  0  0  0  0  0  0
    0.9286    0.3293    0.7603 C   0  0  0  0  0  0  0  0  0  0  0  0
    3.2217   -0.4166   -1.0742 H   0  0  0  0  0  0  0  0  0  0  0  0
    1.3199    0.7793    1.6650 H   0  0  0  0  0  0  0  0  0  0  0  0
   -1.8102   -1.3513   -0.1093 C   0  0  0  0  0  0  0  0  0  0  0  0
   -1.6721    0.0507    0.4279 C   0  0  0  0  0  3  0  0  0  0  0  0
   -2.0732    1.0665   -0.4259 O   0  0  0  0  0  0  0  0  0  0  0  0
   -1.2072   -1.4730   -1.0087 H   0  0  0  0  0  0  0  0  0  0  0  0
   -1.4701   -2.0681    0.6326 H   0  0  0  0  0  0  0  0  0  0  0  0
   -2.8506   -1.5744   -0.3565 H   0  0  0  0  0  0  0  0  0  0  0  0
   -0.3556    0.2096    0.6531 H   0  0  0  0  0  0  0  0  0  0  0  0
   -2.1524    0.2152    1.3909 H   0  0  0  0  0  0  0  0  0  0  0  0
   -1.7834    0.8579   -1.3222 H   0  0  0  0  0  0  0  0  0  0  0  0
  1  2  1  0
  1  4  1  0
  2  3  2  3
  3  5  1  0
  3 12  1  0
  6  7  1  0
  6  9  1  0
  6 10  1  0
  6 11  1  0
  7  8  1  0
  7 13  1  0
  8 14  1  0
M  RAD  1   7   2
M  END
>  <reaction>  (7) 
rmg_rxn_15496

>  <mol_properties>  (7) 
{"1": {"label": "*4", "atom_type": "N3d"}, "2": {"label": "*3", "atom_type": "Cd"}, "6": {"label": "*1", "atom_type": "Cs"}, "7": {"label": "*0", "atom_type": "O2s"}, "11": {"label": "*2", "atom_type": "H0"}}

>  <type>  (7) 
unop_3

>  <geom_source>  (7) 
Heuristics

$$$$

     RDKit          3D

 14 12  0  0  0  0  0  0  0  0999 V2000
    2.7178   -0.9721    0.7143 O   0  0  0  0  0  0  0  0  0  0  0  0
    1.5636   -0.7039    0.0052 N   0  0  0  0  0  0  0  0  0  0  0  0
    0.5328   -0.8004    0.7273 C   0  0  0  0  0  0  0  0  0  0  0  0
    3.4106   -0.8653    0.0596 H   0  0  0  0  0  0  0  0  0  0  0  0
    0.5777   -1.0652    1.7816 H   0  0  0  0  0  0  0  0  0  0  0  0
   -1.6338    0.3366   -1.6908 C   0  0  0  0  0  0  0  0  0  0  0  0
   -1.6338    0.3366   -0.1733 C   0  0  0  0  0  3  0  0  0  0  0  0
   -1.6338    1.6398    0.3760 O   0  0  0  0  0  0  0  0  0  0  0  0
   -0.7777    0.8942   -2.0732 H   0  0  0  0  0  0  0  0  0  0  0  0
   -1.5853   -0.6840   -2.0761 H   0  0  0  0  0  0  0  0  0  0  0  0
   -2.5452    0.7968   -2.0820 H   0  0  0  0  0  0  0  0  0  0  0  0
   -0.5460   -0.2343    0.2789 H   0  0  0  0  0  0  0  0  0  0  0  0
   -2.4860   -0.2431    0.2040 H   0  0  0  0  0  0  0  0  0  0  0  0
   -2.4157    2.0998    0.0669 H   0  0  0  0  0  0  0  0  0  0  0  0
  1  2  1  0
  1  4  1  0
  2  3  2  3
  3  5  1  0
  3 12  1  0
  6  7  1  0
  6  9  1  0
  6 10  1  0
  6 11  1  0
  7  8  1  0
  7 13  1  0
  8 14  1  0
M  RAD  1   7   2
M  END
>  <reaction>  (8) 
rmg_rxn_15496

>  <mol_properties>  (8) 
{"1": {"label": "*4", "atom_type": "N3d"}, "2": {"label": "*3", "atom_type": "Cd"}, "6": {"label": "*1", "atom_type": "Cs"}, "7": {"label": "*0", "atom_type": "O2s"}, "11": {"label": "*2", "atom_type": "H0"}}

>  <type>  (8) 
unop_4

>  <geom_source>  (8) 
Heuristics

$$$$

     RDKit          3D

 14 12  0  0  0  0  0  0  0  0999 V2000
    1.8846   -1.3626    1.9272 O   0  0  0  0  0  0  0  0  0  0  0  0
    1.2790   -0.3534    1.2048 N   0  0  0  0  0  0  0  0  0  0  0  0
    0.8462   -0.7637    0.0922 C   0  0  0  0  0  0  0  0  0  0  0  0
    2.1620   -0.9229    2.7333 H   0  0  0  0  0  0  0  0  0  0  0  0
    0.9517   -1.7963   -0.2336 H   0  0  0  0  0  0  0  0  0  0  0  0
   -1.3203    0.3733   -2.3259 C   0  0  0  0  0  0  0  0  0  0  0  0
   -1.3203    0.3733   -0.8084 C   0  0  0  0  0  3  0  0  0  0  0  0
   -1.3203    1.6765   -0.2591 O   0  0  0  0  0  0  0  0  0  0  0  0
   -0.4643    0.9309   -2.7083 H   0  0  0  0  0  0  0  0  0  0  0  0
   -1.2719   -0.6473   -2.7112 H   0  0  0  0  0  0  0  0  0  0  0  0
   -2.2318    0.8335   -2.7171 H   0  0  0  0  0  0  0  0  0  0  0  0
   -0.2325   -0.1975   -0.3562 H   0  0  0  0  0  0  0  0  0  0  0  0
   -2.1725   -0.2064   -0.4312 H   0  0  0  0  0  0  0  0  0  0  0  0
   -2.1023    2.1365   -0.5682 H   0  0  0  0  0  0  0  0  0  0  0  0
  1  2  1  0
  1  4  1  0
  2  3  2  3
  3  5  1  0
  3 12  1  0
  6  7  1  0
  6  9  1  0
  6 10  1  0
  6 11  1  0
  7  8  1  0
  7 13  1  0
  8 14  1  0
M  RAD  1   7   2
M  END
>  <reaction>  (9) 
rmg_rxn_15496

>  <mol_properties>  (9) 
{"1": {"label": "*4", "atom_type": "N3d"}, "2": {"label": "*3", "atom_type": "Cd"}, "6": {"label": "*1", "atom_type": "Cs"}, "7": {"label": "*0", "atom_type": "O2s"}, "11": {"label": "*2", "atom_type": "H0"}}

>  <type>  (9) 
unop_5

>  <geom_source>  (9) 
Heuristics

$$$$

     RDKit          3D

 14 12  0  0  0  0  0  0  0  0999 V2000
    1.7738   -2.1786    1.1852 O   0  0  0  0  0  0  0  0  0  0  0  0
    1.1065   -1.4688    0.2065 N   0  0  0  0  0  0  0  0  0  0  0  0
    0.9186   -0.2662    0.5410 C   0  0  0  0  0  0  0  0  0  0  0  0
    1.8491   -3.0579    0.8094 H   0  0  0  0  0  0  0  0  0  0  0  0
    1.2536    0.1368    1.4944 H   0  0  0  0  0  0  0  0  0  0  0  0
   -1.2480    0.8708   -1.8772 C   0  0  0  0  0  0  0  0  0  0  0  0
   -1.2480    0.8708   -0.3597 C   0  0  0  0  0  3  0  0  0  0  0  0
   -1.2480    2.1740    0.1896 O   0  0  0  0  0  0  0  0  0  0  0  0
   -0.3919    1.4284   -2.2595 H   0  0  0  0  0  0  0  0  0  0  0  0
   -1.1995   -0.1498   -2.2625 H   0  0  0  0  0  0  0  0  0  0  0  0
   -2.1594    1.3310   -2.2684 H   0  0  0  0  0  0  0  0  0  0  0  0
   -0.1602    0.3000    0.0925 H   0  0  0  0  0  0  0  0  0  0  0  0
   -2.1002    0.2911    0.0176 H   0  0  0  0  0  0  0  0  0  0  0  0
   -2.0299    2.6340   -0.1194 H   0  0  0  0  0  0  0  0  0  0  0  0
  1  2  1  0
  1  4  1  0
  2  3  2  3
  3  5  1  0
  3 12  1  0
  6  7  1  0
  6  9  1  0
  6 10  1  0
  6 11  1  0
  7  8  1  0
  7 13  1  0
  8 14  1  0
M  RAD  1   7   2
M  END
>  <reaction>  (10) 
rmg_rxn_15496

>  <mol_properties>  (10) 
{"1": {"label": "*4", "atom_type": "N3d"}, "2": {"label": "*3", "atom_type": "Cd"}, "6": {"label": "*1", "atom_type": "Cs"}, "7": {"label": "*0", "atom_type": "O2s"}, "11": {"label": "*2", "atom_type": "H0"}}

>  <type>  (10) 
unop_6

>  <geom_source>  (10) 
Heuristics

$$$$

     RDKit          3D

 14 12  0  0  0  0  0  0  0  0999 V2000
    2.9648   -0.0311   -0.2257 O   0  0  0  0  0  0  0  0  0  0  0  0
    1.5530   -0.1087   -0.2178 N   0  0  0  0  0  0  0  0  0  0  0  0
    0.9282    0.3484    0.7513 C   0  0  0  0  0  0  0  0  0  0  0  0
    3.2237   -0.4427   -1.0612 H   0  0  0  0  0  0  0  0  0  0  0  0
    1.3178    0.8273    1.6418 H   0  0  0  0  0  0  0  0  0  0  0  0
   -1.8040   -1.3543   -0.0993 C   0  0  0  0  0  0  0  0  0  0  0  0
   -1.6717    0.0522    0.4279 C   0  0  0  0  0  3  0  0  0  0  0  0
   -2.0804    1.0599   -0.4320 O   0  0  0  0  0  0  0  0  0  0  0  0
   -1.4584   -2.0640    0.6467 H   0  0  0  0  0  0  0  0  0  0  0  0
   -2.8439   -1.5843   -0.3422 H   0  0  0  0  0  0  0  0  0  0  0  0
   -1.2026   -1.4791   -0.9992 H   0  0  0  0  0  0  0  0  0  0  0  0
   -0.3554    0.2200    0.6483 H   0  0  0  0  0  0  0  0  0  0  0  0
   -2.1503    0.2209    1.3910 H   0  0  0  0  0  0  0  0  0  0  0  0
   -1.7932    0.8458   -1.3278 H   0  0  0  0  0  0  0  0  0  0  0  0
  1  2  1  0
  1  4  1  0
  2  3  2  3
  3  5  1  0
  3 12  1  0
  6  7  1  0
  6  9  1  0
  6 10  1  0
  6 11  1  0
  7  8  1  0
  7 13  1  0
  8 14  1  0
M  RAD  1   7   2
M  END
>  <reaction>  (11) 
rmg_rxn_15496

>  <mol_properties>  (11) 
{"1": {"label": "*4", "atom_type": "N3d"}, "2": {"label": "*3", "atom_type": "Cd"}, "6": {"label": "*1", "atom_type": "Cs"}, "7": {"label": "*0", "atom_type": "O2s"}, "11": {"label": "*2", "atom_type": "H0"}}

>  <type>  (11) 
unop_7

>  <geom_source>  (11) 
Heuristics

$$$$

     RDKit          3D

 14 12  0  0  0  0  0  0  0  0999 V2000
    2.1429   -1.3596    1.7373 O   0  0  0  0  0  0  0  0  0  0  0  0
    0.9649   -0.7414    1.3666 N   0  0  0  0  0  0  0  0  0  0  0  0
    0.8407   -0.6762    0.1121 C   0  0  0  0  0  0  0  0  0  0  0  0
    2.1104   -1.3425    2.6958 H   0  0  0  0  0  0  0  0  0  0  0  0
    1.5892   -1.0690   -0.5728 H   0  0  0  0  0  0  0  0  0  0  0  0
   -1.3259    0.4608   -2.3061 C   0  0  0  0  0  0  0  0  0  0  0  0
   -1.3259    0.4608   -0.7886 C   0  0  0  0  0  3  0  0  0  0  0  0
   -1.3259    1.7639   -0.2393 O   0  0  0  0  0  0  0  0  0  0  0  0
   -0.4698    1.0183   -2.6884 H   0  0  0  0  0  0  0  0  0  0  0  0
   -1.2774   -0.5598   -2.6913 H   0  0  0  0  0  0  0  0  0  0  0  0
   -2.2373    0.9209   -2.6973 H   0  0  0  0  0  0  0  0  0  0  0  0
   -0.2381   -0.1101   -0.3364 H   0  0  0  0  0  0  0  0  0  0  0  0
   -2.1781   -0.1190   -0.4113 H   0  0  0  0  0  0  0  0  0  0  0  0
   -2.1078    2.2239   -0.5483 H   0  0  0  0  0  0  0  0  0  0  0  0
  1  2  1  0
  1  4  1  0
  2  3  2  3
  3  5  1  0
  3 12  1  0
  6  7  1  0
  6  9  1  0
  6 10  1  0
  6 11  1  0
  7  8  1  0
  7 13  1  0
  8 14  1  0
M  RAD  1   7   2
M  END
>  <reaction>  (12) 
rmg_rxn_15496

>  <mol_properties>  (12) 
{"1": {"label": "*4", "atom_type": "N3d"}, "2": {"label": "*3", "atom_type": "Cd"}, "6": {"label": "*1", "atom_type": "Cs"}, "7": {"label": "*0", "atom_type": "O2s"}, "11": {"label": "*2", "atom_type": "H0"}}

>  <type>  (12) 
unop_8

>  <geom_source>  (12) 
Heuristics

$$$$

     RDKit          3D

 14 12  0  0  0  0  0  0  0  0999 V2000
    2.9653   -0.0316   -0.2250 O   0  0  0  0  0  0  0  0  0  0  0  0
    1.5533   -0.1061   -0.2194 N   0  0  0  0  0  0  0  0  0  0  0  0
    0.9283    0.3464    0.7517 C   0  0  0  0  0  0  0  0  0  0  0  0
    3.2244   -0.4382   -1.0628 H   0  0  0  0  0  0  0  0  0  0  0  0
    1.3180    0.8191    1.6455 H   0  0  0  0  0  0  0  0  0  0  0  0
   -1.8039   -1.3542   -0.1003 C   0  0  0  0  0  0  0  0  0  0  0  0
   -1.6717    0.0518    0.4279 C   0  0  0  0  0  3  0  0  0  0  0  0
   -2.0813    1.0601   -0.4308 O   0  0  0  0  0  0  0  0  0  0  0  0
   -1.2028   -1.4784   -1.0005 H   0  0  0  0  0  0  0  0  0  0  0  0
   -1.4580   -2.0646    0.6451 H   0  0  0  0  0  0  0  0  0  0  0  0
   -2.8439   -1.5843   -0.3430 H   0  0  0  0  0  0  0  0  0  0  0  0
   -0.3553    0.2189    0.6480 H   0  0  0  0  0  0  0  0  0  0  0  0
   -2.1496    0.2197    1.3915 H   0  0  0  0  0  0  0  0  0  0  0  0
   -1.7955    0.8466   -1.3272 H   0  0  0  0  0  0  0  0  0  0  0  0
  1  2  1  0
  1  4  1  0
  2  3  2  3
  3  5  1  0
  3 12  1  0
  6  7  1  0
  6  9  1  0
  6 10  1  0
  6 11  1  0
  7  8  1  0
  7 13  1  0
  8 14  1  0
M  RAD  1   7   2
M  END
>  <reaction>  (13) 
rmg_rxn_15496

>  <mol_properties>  (13) 
{"1": {"label": "*4", "atom_type": "N3d"}, "2": {"label": "*3", "atom_type": "Cd"}, "6": {"label": "*1", "atom_type": "Cs"}, "7": {"label": "*0", "atom_type": "O2s"}, "11": {"label": "*2", "atom_type": "H0"}}

>  <type>  (13) 
unop_9

>  <geom_source>  (13) 
Heuristics

$$$$

     RDKit          3D

 14 12  0  0  0  0  0  0  0  0999 V2000
    1.5965   -1.9330    1.6814 O   0  0  0  0  0  0  0  0  0  0  0  0
    0.9518   -1.5638    0.5173 N   0  0  0  0  0  0  0  0  0  0  0  0
    1.0067   -0.3178    0.3221 C   0  0  0  0  0  0  0  0  0  0  0  0
    1.4807   -2.8848    1.7070 H   0  0  0  0  0  0  0  0  0  0  0  0
    1.5096    0.3616    1.0070 H   0  0  0  0  0  0  0  0  0  0  0  0
   -1.1598    0.8191   -2.0961 C   0  0  0  0  0  0  0  0  0  0  0  0
   -1.1598    0.8191   -0.5785 C   0  0  0  0  0  3  0  0  0  0  0  0
   -1.1598    2.1223   -0.0292 O   0  0  0  0  0  0  0  0  0  0  0  0
   -0.3038    1.3767   -2.4784 H   0  0  0  0  0  0  0  0  0  0  0  0
   -1.1114   -0.2015   -2.4813 H   0  0  0  0  0  0  0  0  0  0  0  0
   -2.0712    1.2793   -2.4872 H   0  0  0  0  0  0  0  0  0  0  0  0
   -0.0720    0.2483   -0.1263 H   0  0  0  0  0  0  0  0  0  0  0  0
   -2.0120    0.2394   -0.2013 H   0  0  0  0  0  0  0  0  0  0  0  0
   -1.9418    2.5823   -0.3383 H   0  0  0  0  0  0  0  0  0  0  0  0
  1  2  1  0
  1  4  1  0
  2  3  2  3
  3  5  1  0
  3 12  1  0
  6  7  1  0
  6  9  1  0
  6 10  1  0
  6 11  1  0
  7  8  1  0
  7 13  1  0
  8 14  1  0
M  RAD  1   7   2
M  END
>  <reaction>  (14) 
rmg_rxn_15496

>  <mol_properties>  (14) 
{"1": {"label": "*4", "atom_type": "N3d"}, "2": {"label": "*3", "atom_type": "Cd"}, "6": {"label": "*1", "atom_type": "Cs"}, "7": {"label": "*0", "atom_type": "O2s"}, "11": {"label": "*2", "atom_type": "H0"}}

>  <type>  (14) 
unop_10

>  <geom_source>  (14) 
Heuristics

$$$$

     RDKit          3D

 14 12  0  0  0  0  0  0  0  0999 V2000
    2.9658   -0.0326   -0.2242 O   0  0  0  0  0  0  0  0  0  0  0  0
    1.5543   -0.1153   -0.2134 N   0  0  0  0  0  0  0  0  0  0  0  0
    0.9276    0.3735    0.7388 C   0  0  0  0  0  0  0  0  0  0  0  0
    3.2264   -0.4736   -1.0441 H   0  0  0  0  0  0  0  0  0  0  0  0
    1.3150    0.8868    1.6109 H   0  0  0  0  0  0  0  0  0  0  0  0
   -1.7921   -1.3587   -0.0863 C   0  0  0  0  0  0  0  0  0  0  0  0
   -1.6710    0.0535    0.4278 C   0  0  0  0  0  3  0  0  0  0  0  0
   -2.0935    1.0497   -0.4389 O   0  0  0  0  0  0  0  0  0  0  0  0
   -1.1930   -1.4861   -0.9874 H   0  0  0  0  0  0  0  0  0  0  0  0
   -1.4368   -2.0584    0.6647 H   0  0  0  0  0  0  0  0  0  0  0  0
   -2.8308   -1.6008   -0.3227 H   0  0  0  0  0  0  0  0  0  0  0  0
   -0.3554    0.2353    0.6408 H   0  0  0  0  0  0  0  0  0  0  0  0
   -2.1464    0.2263    1.3917 H   0  0  0  0  0  0  0  0  0  0  0  0
   -1.8108    0.8293   -1.3347 H   0  0  0  0  0  0  0  0  0  0  0  0
  1  2  1  0
  1  4  1  0
  2  3  2  3
  3  5  1  0
  3 12  1  0
  6  7  1  0
  6  9  1  0
  6 10  1  0
  6 11  1  0
  7  8  1  0
  7 13  1  0
  8 14  1  0
M  RAD  1   7   2
M  END
>  <reaction>  (15) 
rmg_rxn_15496

>  <mol_properties>  (15) 
{"1": {"label": "*4", "atom_type": "N3d"}, "2": {"label": "*3", "atom_type": "Cd"}, "6": {"label": "*1", "atom_type": "Cs"}, "7": {"label": "*0", "atom_type": "O2s"}, "11": {"label": "*2", "atom_type": "H0"}}

>  <type>  (15) 
unop_11

>  <geom_source>  (15) 
Heuristics

$$$$

     RDKit          3D

 14 12  0  0  0  0  0  0  0  0999 V2000
    1.6866   -1.4806    1.9737 O   0  0  0  0  0  0  0  0  0  0  0  0
    0.8465   -1.4909    0.8777 N   0  0  0  0  0  0  0  0  0  0  0  0
    1.0038   -0.4694    0.1528 C   0  0  0  0  0  0  0  0  0  0  0  0
    1.4674   -2.2959    2.4291 H   0  0  0  0  0  0  0  0  0  0  0  0
    1.7239    0.3114    0.3879 H   0  0  0  0  0  0  0  0  0  0  0  0
   -1.1627    0.6675   -2.2653 C   0  0  0  0  0  0  0  0  0  0  0  0
   -1.1627    0.6675   -0.7478 C   0  0  0  0  0  3  0  0  0  0  0  0
   -1.1627    1.9707   -0.1985 O   0  0  0  0  0  0  0  0  0  0  0  0
   -0.3067    1.2251   -2.6477 H   0  0  0  0  0  0  0  0  0  0  0  0
   -1.1143   -0.3531   -2.6506 H   0  0  0  0  0  0  0  0  0  0  0  0
   -2.0742    1.1277   -2.6565 H   0  0  0  0  0  0  0  0  0  0  0  0
   -0.0749    0.0967   -0.2956 H   0  0  0  0  0  0  0  0  0  0  0  0
   -2.0149    0.0878   -0.3705 H   0  0  0  0  0  0  0  0  0  0  0  0
   -1.9447    2.4307   -0.5076 H   0  0  0  0  0  0  0  0  0  0  0  0
  1  2  1  0
  1  4  1  0
  2  3  2  3
  3  5  1  0
  3 12  1  0
  6  7  1  0
  6  9  1  0
  6 10  1  0
  6 11  1  0
  7  8  1  0
  7 13  1  0
  8 14  1  0
M  RAD  1   7   2
M  END
>  <reaction>  (16) 
rmg_rxn_15496

>  <mol_properties>  (16) 
{"1": {"label": "*4", "atom_type": "N3d"}, "2": {"label": "*3", "atom_type": "Cd"}, "6": {"label": "*1", "atom_type": "Cs"}, "7": {"label": "*0", "atom_type": "O2s"}, "11": {"label": "*2", "atom_type": "H0"}}

>  <type>  (16) 
unop_12

>  <geom_source>  (16) 
Heuristics

$$$$

     RDKit          3D

 14 12  0  0  0  0  0  0  0  0999 V2000
    2.3043   -0.5842    1.6814 O   0  0  0  0  0  0  0  0  0  0  0  0
    1.6342   -0.2633    0.5173 N   0  0  0  0  0  0  0  0  0  0  0  0
    0.6401   -1.0165    0.3221 C   0  0  0  0  0  0  0  0  0  0  0  0
    3.0218    0.0519    1.7070 H   0  0  0  0  0  0  0  0  0  0  0  0
    0.3666   -1.8163    1.0070 H   0  0  0  0  0  0  0  0  0  0  0  0
   -1.5264    0.1205   -2.0961 C   0  0  0  0  0  0  0  0  0  0  0  0
   -1.5264    0.1205   -0.5785 C   0  0  0  0  0  3  0  0  0  0  0  0
   -1.5264    1.4237   -0.0292 O   0  0  0  0  0  0  0  0  0  0  0  0
   -0.6704    0.6781   -2.4784 H   0  0  0  0  0  0  0  0  0  0  0  0
   -1.4780   -0.9001   -2.4813 H   0  0  0  0  0  0  0  0  0  0  0  0
   -2.4379    0.5807   -2.4872 H   0  0  0  0  0  0  0  0  0  0  0  0
   -0.4387   -0.4503   -0.1263 H   0  0  0  0  0  0  0  0  0  0  0  0
   -2.3786   -0.4592   -0.2013 H   0  0  0  0  0  0  0  0  0  0  0  0
   -2.3084    1.8837   -0.3383 H   0  0  0  0  0  0  0  0  0  0  0  0
  1  2  1  0
  1  4  1  0
  2  3  2  3
  3  5  1  0
  3 12  1  0
  6  7  1  0
  6  9  1  0
  6 10  1  0
  6 11  1  0
  7  8  1  0
  7 13  1  0
  8 14  1  0
M  RAD  1   7   2
M  END
>  <reaction>  (17) 
rmg_rxn_15496

>  <mol_properties>  (17) 
{"1": {"label": "*4", "atom_type": "N3d"}, "2": {"label": "*3", "atom_type": "Cd"}, "6": {"label": "*1", "atom_type": "Cs"}, "7": {"label": "*0", "atom_type": "O2s"}, "11": {"label": "*2", "atom_type": "H0"}}

>  <type>  (17) 
unop_13

>  <geom_source>  (17) 
Heuristics

$$$$

     RDKit          3D

 14 12  0  0  0  0  0  0  0  0999 V2000
    2.9634   -0.0321   -0.2258 O   0  0  0  0  0  0  0  0  0  0  0  0
    1.5514   -0.1046   -0.2188 N   0  0  0  0  0  0  0  0  0  0  0  0
    0.9279    0.3498    0.7524 C   0  0  0  0  0  0  0  0  0  0  0  0
    3.2210   -0.4402   -1.0635 H   0  0  0  0  0  0  0  0  0  0  0  0
    1.3189    0.8244    1.6445 H   0  0  0  0  0  0  0  0  0  0  0  0
   -1.7979   -1.3553   -0.0987 C   0  0  0  0  0  0  0  0  0  0  0  0
   -1.6715    0.0518    0.4280 C   0  0  0  0  0  3  0  0  0  0  0  0
   -2.0833    1.0577   -0.4325 O   0  0  0  0  0  0  0  0  0  0  0  0
   -2.8364   -1.5889   -0.3444 H   0  0  0  0  0  0  0  0  0  0  0  0
   -1.1934   -1.4788   -0.9968 H   0  0  0  0  0  0  0  0  0  0  0  0
   -1.4521   -2.0635    0.6489 H   0  0  0  0  0  0  0  0  0  0  0  0
   -0.3559    0.2232    0.6493 H   0  0  0  0  0  0  0  0  0  0  0  0
   -2.1514    0.2193    1.3907 H   0  0  0  0  0  0  0  0  0  0  0  0
   -1.7946    0.8442   -1.3282 H   0  0  0  0  0  0  0  0  0  0  0  0
  1  2  1  0
  1  4  1  0
  2  3  2  3
  3  5  1  0
  3 12  1  0
  6  7  1  0
  6  9  1  0
  6 10  1  0
  6 11  1  0
  7  8  1  0
  7 13  1  0
  8 14  1  0
M  RAD  1   7   2
M  END
>  <reaction>  (18) 
rmg_rxn_15496

>  <mol_properties>  (18) 
{"1": {"label": "*4", "atom_type": "N3d"}, "2": {"label": "*3", "atom_type": "Cd"}, "6": {"label": "*1", "atom_type": "Cs"}, "7": {"label": "*0", "atom_type": "O2s"}, "11": {"label": "*2", "atom_type": "H0"}}

>  <type>  (18) 
unop_14

>  <geom_source>  (18) 
Heuristics

$$$$

     RDKit          3D

 14 12  0  0  0  0  0  0  0  0999 V2000
    2.1507   -2.0529    0.7143 O   0  0  0  0  0  0  0  0  0  0  0  0
    1.2742   -1.2554    0.0052 N   0  0  0  0  0  0  0  0  0  0  0  0
    0.7679   -0.3523    0.7273 C   0  0  0  0  0  0  0  0  0  0  0  0
    2.4564   -2.6836    0.0596 H   0  0  0  0  0  0  0  0  0  0  0  0
    1.0114   -0.2388    1.7816 H   0  0  0  0  0  0  0  0  0  0  0  0
   -1.3986    0.7847   -1.6908 C   0  0  0  0  0  0  0  0  0  0  0  0
   -1.3986    0.7847   -0.1733 C   0  0  0  0  0  3  0  0  0  0  0  0
   -1.3986    2.0879    0.3760 O   0  0  0  0  0  0  0  0  0  0  0  0
   -0.5426    1.3422   -2.0732 H   0  0  0  0  0  0  0  0  0  0  0  0
   -1.3502   -0.2359   -2.0761 H   0  0  0  0  0  0  0  0  0  0  0  0
   -2.3101    1.2449   -2.0820 H   0  0  0  0  0  0  0  0  0  0  0  0
   -0.3108    0.2138    0.2789 H   0  0  0  0  0  0  0  0  0  0  0  0
   -2.2508    0.2050    0.2040 H   0  0  0  0  0  0  0  0  0  0  0  0
   -2.1806    2.5479    0.0669 H   0  0  0  0  0  0  0  0  0  0  0  0
  1  2  1  0
  1  4  1  0
  2  3  2  3
  3  5  1  0
  3 12  1  0
  6  7  1  0
  6  9  1  0
  6 10  1  0
  6 11  1  0
  7  8  1  0
  7 13  1  0
  8 14  1  0
M  RAD  1   7   2
M  END
>  <reaction>  (19) 
rmg_rxn_15496

>  <mol_properties>  (19) 
{"1": {"label": "*4", "atom_type": "N3d"}, "2": {"label": "*3", "atom_type": "Cd"}, "6": {"label": "*1", "atom_type": "Cs"}, "7": {"label": "*0", "atom_type": "O2s"}, "11": {"label": "*2", "atom_type": "H0"}}

>  <type>  (19) 
unop_15

>  <geom_source>  (19) 
Heuristics

$$$$

     RDKit          3D

 14 12  0  0  0  0  0  0  0  0999 V2000
    2.6072   -0.5905    1.1852 O   0  0  0  0  0  0  0  0  0  0  0  0
    1.6439   -0.4447    0.2065 N   0  0  0  0  0  0  0  0  0  0  0  0
    0.5475   -0.9733    0.5410 C   0  0  0  0  0  0  0  0  0  0  0  0
    3.3736   -0.1529    0.8094 H   0  0  0  0  0  0  0  0  0  0  0  0
    0.4062   -1.4779    1.4944 H   0  0  0  0  0  0  0  0  0  0  0  0
   -1.6191    0.1637   -1.8772 C   0  0  0  0  0  0  0  0  0  0  0  0
   -1.6191    0.1637   -0.3597 C   0  0  0  0  0  3  0  0  0  0  0  0
   -1.6191    1.4669    0.1896 O   0  0  0  0  0  0  0  0  0  0  0  0
   -0.7630    0.7212   -2.2595 H   0  0  0  0  0  0  0  0  0  0  0  0
   -1.5706   -0.8569   -2.2625 H   0  0  0  0  0  0  0  0  0  0  0  0
   -2.5305    0.6239   -2.2684 H   0  0  0  0  0  0  0  0  0  0  0  0
   -0.5313   -0.4072    0.0925 H   0  0  0  0  0  0  0  0  0  0  0  0
   -2.4712   -0.4160    0.0176 H   0  0  0  0  0  0  0  0  0  0  0  0
   -2.4010    1.9269   -0.1194 H   0  0  0  0  0  0  0  0  0  0  0  0
  1  2  1  0
  1  4  1  0
  2  3  2  3
  3  5  1  0
  3 12  1  0
  6  7  1  0
  6  9  1  0
  6 10  1  0
  6 11  1  0
  7  8  1  0
  7 13  1  0
  8 14  1  0
M  RAD  1   7   2
M  END
>  <reaction>  (20) 
rmg_rxn_15496

>  <mol_properties>  (20) 
{"1": {"label": "*4", "atom_type": "N3d"}, "2": {"label": "*3", "atom_type": "Cd"}, "6": {"label": "*1", "atom_type": "Cs"}, "7": {"label": "*0", "atom_type": "O2s"}, "11": {"label": "*2", "atom_type": "H0"}}

>  <type>  (20) 
unop_16

>  <geom_source>  (20) 
Heuristics

$$$$

     RDKit          3D

 14 12  0  0  0  0  0  0  0  0999 V2000
    1.9986   -1.1454    1.9272 O   0  0  0  0  0  0  0  0  0  0  0  0
    0.8241   -1.2203    1.2048 N   0  0  0  0  0  0  0  0  0  0  0  0
    0.9158   -0.6311    0.0922 C   0  0  0  0  0  0  0  0  0  0  0  0
    1.7944   -1.6234    2.7333 H   0  0  0  0  0  0  0  0  0  0  0  0
    1.8255   -0.1312   -0.2336 H   0  0  0  0  0  0  0  0  0  0  0  0
   -1.2508    0.5059   -2.3259 C   0  0  0  0  0  0  0  0  0  0  0  0
   -1.2508    0.5059   -0.8084 C   0  0  0  0  0  3  0  0  0  0  0  0
   -1.2508    1.8091   -0.2591 O   0  0  0  0  0  0  0  0  0  0  0  0
   -0.3947    1.0634   -2.7083 H   0  0  0  0  0  0  0  0  0  0  0  0
   -1.2023   -0.5147   -2.7112 H   0  0  0  0  0  0  0  0  0  0  0  0
   -2.1622    0.9660   -2.7171 H   0  0  0  0  0  0  0  0  0  0  0  0
   -0.1630   -0.0650   -0.3562 H   0  0  0  0  0  0  0  0  0  0  0  0
   -2.1029   -0.0738   -0.4312 H   0  0  0  0  0  0  0  0  0  0  0  0
   -2.0327    2.2691   -0.5682 H   0  0  0  0  0  0  0  0  0  0  0  0
  1  2  1  0
  1  4  1  0
  2  3  2  3
  3  5  1  0
  3 12  1  0
  6  7  1  0
  6  9  1  0
  6 10  1  0
  6 11  1  0
  7  8  1  0
  7 13  1  0
  8 14  1  0
M  RAD  1   7   2
M  END
>  <reaction>  (21) 
rmg_rxn_15496

>  <mol_properties>  (21) 
{"1": {"label": "*4", "atom_type": "N3d"}, "2": {"label": "*3", "atom_type": "Cd"}, "6": {"label": "*1", "atom_type": "Cs"}, "7": {"label": "*0", "atom_type": "O2s"}, "11": {"label": "*2", "atom_type": "H0"}}

>  <type>  (21) 
unop_17

>  <geom_source>  (21) 
Heuristics

$$$$

     RDKit          3D

 14 12  0  0  0  0  0  0  0  0999 V2000
    2.5404   -1.5682    0.5176 O   0  0  0  0  0  0  0  0  0  0  0  0
    1.4308   -0.9859   -0.0626 N   0  0  0  0  0  0  0  0  0  0  0  0
    0.6160   -0.5583    0.8015 C   0  0  0  0  0  0  0  0  0  0  0  0
    3.0660   -1.8440   -0.2359 H   0  0  0  0  0  0  0  0  0  0  0  0
    0.7926   -0.6510    1.8710 H   0  0  0  0  0  0  0  0  0  0  0  0
   -1.5506    0.5787   -1.6167 C   0  0  0  0  0  0  0  0  0  0  0  0
   -1.5506    0.5787   -0.0992 C   0  0  0  0  0  3  0  0  0  0  0  0
   -1.5506    1.8819    0.4501 O   0  0  0  0  0  0  0  0  0  0  0  0
   -0.6945    1.1362   -1.9990 H   0  0  0  0  0  0  0  0  0  0  0  0
   -1.5022   -0.4419   -2.0019 H   0  0  0  0  0  0  0  0  0  0  0  0
   -2.4620    1.0389   -2.0079 H   0  0  0  0  0  0  0  0  0  0  0  0
   -0.4628    0.0078    0.3530 H   0  0  0  0  0  0  0  0  0  0  0  0
   -2.4028   -0.0010    0.2781 H   0  0  0  0  0  0  0  0  0  0  0  0
   -2.3325    2.3419    0.1411 H   0  0  0  0  0  0  0  0  0  0  0  0
  1  2  1  0
  1  4  1  0
  2  3  2  3
  3  5  1  0
  3 12  1  0
  6  7  1  0
  6  9  1  0
  6 10  1  0
  6 11  1  0
  7  8  1  0
  7 13  1  0
  8 14  1  0
M  RAD  1   7   2
M  END
>  <reaction>  (22) 
rmg_rxn_15496

>  <mol_properties>  (22) 
{"1": {"label": "*4", "atom_type": "N3d"}, "2": {"label": "*3", "atom_type": "Cd"}, "6": {"label": "*1", "atom_type": "Cs"}, "7": {"label": "*0", "atom_type": "O2s"}, "11": {"label": "*2", "atom_type": "H0"}}

>  <type>  (22) 
unop_18

>  <geom_source>  (22) 
Heuristics

$$$$

     RDKit          3D

 14 12  0  0  0  0  0  0  0  0999 V2000
   -1.9703    0.7529    0.5573 O   0  0  0  0  0  0  0  0  0  0  0  0
    2.3546   -0.2396    0.8562 O   0  0  0  0  0  0  0  0  0  0  0  0
    2.2916    0.6923   -0.1527 N   0  0  0  0  0  0  0  0  0  0  0  0
   -1.2562   -1.2081   -0.6035 C   0  0  0  0  0  0  0  0  0  0  0  0
   -0.8831   -0.1018    0.3681 C   0  0  0  0  0  3  0  0  0  0  0  0
    1.1624    1.2291   -0.4758 C   0  0  0  0  0  0  0  0  0  0  0  0
   -0.3837   -1.8772   -0.7548 H   0  0  0  0  0  0  0  0  0  0  0  0
   -2.1042   -1.8012   -0.2001 H   0  0  0  0  0  0  0  0  0  0  0  0
   -1.5457   -0.7683   -1.5809 H   0  0  0  0  0  0  0  0  0  0  0  0
   -0.5800   -0.5403    1.3430 H   0  0  0  0  0  0  0  0  0  0  0  0
    1.1220    1.9612   -1.2707 H   0  0  0  0  0  0  0  0  0  0  0  0
    0.1166    0.9096    0.1222 H   0  0  0  0  0  0  0  0  0  0  0  0
   -1.5664    1.6482    0.6868 H   0  0  0  0  0  0  0  0  0  0  0  0
    3.2425   -0.6569    1.1050 H   0  0  0  0  0  0  0  0  0  0  0  0
  1  5  1  0
  1 13  1  0
  2  3  1  0
  2 14  1  0
  3  6  2  3
  4  5  1  0
  4  7  1  0
  4  8  1  0
  4  9  1  0
  5 10  1  0
  6 11  1  0
  6 12  1  0
M  RAD  1   5   2
M  END
>  <reaction>  (23) 
rmg_rxn_15496

>  <mol_properties>  (23) 
{"1": {"label": "*4", "atom_type": "N3d"}, "2": {"label": "*3", "atom_type": "Cd"}, "6": {"label": "*1", "atom_type": "Cs"}, "7": {"label": "*0", "atom_type": "O2s"}, "11": {"label": "*2", "atom_type": "H0"}}

>  <type>  (23) 
unop_19

>  <geom_source>  (23) 
AutoTST

$$$$

     RDKit          3D

 14 12  0  0  0  0  0  0  0  0999 V2000
    2.7178   -0.9721    0.7143 O   0  0  0  0  0  0  0  0  0  0  0  0
    1.5636   -0.7039    0.0052 N   0  0  0  0  0  0  0  0  0  0  0  0
    0.5328   -0.8004    0.7274 C   0  0  0  0  0  0  0  0  0  0  0  0
    3.4106   -0.8653    0.0596 H   0  0  0  0  0  0  0  0  0  0  0  0
    0.5777   -1.0652    1.7816 H   0  0  0  0  0  0  0  0  0  0  0  0
   -1.6338    0.3366   -1.6908 C   0  0  0  0  0  0  0  0  0  0  0  0
   -1.6338    0.3366   -0.1733 C   0  0  0  0  0  3  0  0  0  0  0  0
   -1.6338    1.6398    0.3760 O   0  0  0  0  0  0  0  0  0  0  0  0
   -0.7777    0.8942   -2.0732 H   0  0  0  0  0  0  0  0  0  0  0  0
   -1.5853   -0.6840   -2.0761 H   0  0  0  0  0  0  0  0  0  0  0  0
   -2.5452    0.7968   -2.0820 H   0  0  0  0  0  0  0  0  0  0  0  0
   -0.5460   -0.2343    0.2789 H   0  0  0  0  0  0  0  0  0  0  0  0
   -2.4860   -0.2431    0.2039 H   0  0  0  0  0  0  0  0  0  0  0  0
   -2.4157    2.0998    0.0669 H   0  0  0  0  0  0  0  0  0  0  0  0
  1  2  1  0
  1  4  1  0
  2  3  2  3
  3  5  1  0
  3 12  1  0
  6  7  1  0
  6  9  1  0
  6 10  1  0
  6 11  1  0
  7  8  1  0
  7 13  1  0
  8 14  1  0
M  RAD  1   7   2
M  END
>  <reaction>  (24) 
rmg_rxn_15496

>  <mol_properties>  (24) 
{"1": {"label": "*4", "atom_type": "N3d"}, "2": {"label": "*3", "atom_type": "Cd"}, "6": {"label": "*1", "atom_type": "Cs"}, "7": {"label": "*0", "atom_type": "O2s"}, "11": {"label": "*2", "atom_type": "H0"}}

>  <type>  (24) 
unop_20

>  <geom_source>  (24) 
gaussian_log

$$$$
