
     RDKit          3D

  9  8  0  0  0  0  0  0  0  0999 V2000
   -1.5470   -0.0755   -0.1976 C   0  0  0  0  0  0  0  0  0  0  0  0
   -0.2885    0.4507    0.1749 O   0  0  0  0  0  0  0  0  0  0  0  0
   -0.1502    1.7216   -0.3294 N   0  0  0  0  0  0  0  0  0  0  0  0
    0.9626    2.2353   -0.0219 C   0  0  0  0  0  0  0  0  0  0  0  0
   -1.6392   -0.1356   -1.2844 H   0  0  0  0  0  0  0  0  0  0  0  0
   -2.3597    0.5337    0.2044 H   0  0  0  0  0  0  0  0  0  0  0  0
   -1.5879   -1.0750    0.2318 H   0  0  0  0  0  0  0  0  0  0  0  0
    1.1497    3.2381   -0.3820 H   0  0  0  0  0  0  0  0  0  0  0  0
    1.7060    1.7101    0.5739 H   0  0  0  0  0  0  0  0  0  0  0  0
  1  2  1  0
  1  5  1  0
  1  6  1  0
  1  7  1  0
  2  3  1  0
  3  4  2  3
  4  8  1  0
  4  9  1  0
M  END
>  <reaction>  (1) 
rmg_rxn_15616

>  <mol_properties>  (1) 
{"0": {"label": "donator", "atom_type": "Cs"}, "4": {"label": "d_hydrogen", "atom_type": "H0"}}

>  <type>  (1) 
r1h

$$$$

     RDKit          3D

 17 16  0  0  0  0  0  0  0  0999 V2000
    2.3128   -0.1525    1.1776 C   0  0  0  0  0  3  0  0  0  0  0  0
    1.7469    0.7266    0.1254 C   0  0  0  0  0  0  0  0  0  0  0  0
    1.6374    2.1830    0.5408 C   0  0  0  0  0  0  0  0  0  0  0  0
    2.9244    2.6874    0.7877 O   0  0  0  0  0  0  0  0  0  0  0  0
    2.9227    4.0197    1.2361 C   0  0  0  0  0  0  0  0  0  0  0  0
    4.3491    4.4603    1.4693 C   0  0  0  0  0  0  0  0  0  0  0  0
    2.1394   -1.2196    1.1556 H   0  0  0  0  0  0  0  0  0  0  0  0
    3.0314    0.2400    1.8837 H   0  0  0  0  0  0  0  0  0  0  0  0
    0.7555    0.3746   -0.1763 H   0  0  0  0  0  0  0  0  0  0  0  0
    2.3677    0.6841   -0.7826 H   0  0  0  0  0  0  0  0  0  0  0  0
    1.0170    2.2718    1.4450 H   0  0  0  0  0  0  0  0  0  0  0  0
    1.1498    2.7653   -0.2545 H   0  0  0  0  0  0  0  0  0  0  0  0
    2.4378    4.6655    0.4892 H   0  0  0  0  0  0  0  0  0  0  0  0
    2.3377    4.1014    2.1639 H   0  0  0  0  0  0  0  0  0  0  0  0
    4.9260    4.3921    0.5464 H   0  0  0  0  0  0  0  0  0  0  0  0
    4.3728    5.4939    1.8180 H   0  0  0  0  0  0  0  0  0  0  0  0
    4.8260    3.8299    2.2206 H   0  0  0  0  0  0  0  0  0  0  0  0
  1  2  1  0
  1  7  1  0
  1  8  1  0
  2  3  1  0
  2  9  1  0
  2 10  1  0
  3  4  1  0
  3 11  1  0
  3 12  1  0
  4  5  1  0
  5  6  1  0
  5 13  1  0
  5 14  1  0
  6 15  1  0
  6 16  1  0
  6 17  1  0
M  RAD  1   1   2
M  END
>  <reaction>  (2) 
rmg_rxn_15616

>  <mol_properties>  (2) 
{"0": {"label": "acceptor", "atom_type": "Cs"}}

>  <type>  (2) 
r2

$$$$

     RDKit          3D

 18 17  0  0  0  0  0  0  0  0999 V2000
    2.2026   -0.7213   -0.2612 C   0  0  0  0  0  0  0  0  0  0  0  0
    1.5384    0.2638    0.6915 C   0  0  0  0  0  0  0  0  0  0  0  0
    2.2584    1.5946    0.7694 C   0  0  0  0  0  0  0  0  0  0  0  0
    2.2212    2.2185   -0.4893 O   0  0  0  0  0  0  0  0  0  0  0  0
    2.8988    3.4488   -0.5204 C   0  0  0  0  0  0  0  0  0  0  0  0
    2.7981    4.0296   -1.9118 C   0  0  0  0  0  0  0  0  0  0  0  0
    3.2294   -0.9309    0.0486 H   0  0  0  0  0  0  0  0  0  0  0  0
    2.2338   -0.3181   -1.2734 H   0  0  0  0  0  0  0  0  0  0  0  0
    1.6610   -1.6680   -0.2875 H   0  0  0  0  0  0  0  0  0  0  0  0
    1.4990   -0.1566    1.7002 H   0  0  0  0  0  0  0  0  0  0  0  0
    0.5055    0.4455    0.3835 H   0  0  0  0  0  0  0  0  0  0  0  0
    3.3038    1.4410    1.0808 H   0  0  0  0  0  0  0  0  0  0  0  0
    1.7844    2.2410    1.5226 H   0  0  0  0  0  0  0  0  0  0  0  0
    2.4596    4.1376    0.2164 H   0  0  0  0  0  0  0  0  0  0  0  0
    3.9524    3.3035   -0.2397 H   0  0  0  0  0  0  0  0  0  0  0  0
    1.7543    4.1869   -2.1856 H   0  0  0  0  0  0  0  0  0  0  0  0
    3.2472    3.3545   -2.6411 H   0  0  0  0  0  0  0  0  0  0  0  0
    3.3178    4.9878   -1.9600 H   0  0  0  0  0  0  0  0  0  0  0  0
  1  2  1  0
  1  7  1  0
  1  8  1  0
  1  9  1  0
  2  3  1  0
  2 10  1  0
  2 11  1  0
  3  4  1  0
  3 12  1  0
  3 13  1  0
  4  5  1  0
  5  6  1  0
  5 14  1  0
  5 15  1  0
  6 16  1  0
  6 17  1  0
  6 18  1  0
M  END
>  <reaction>  (3) 
rmg_rxn_15616

>  <mol_properties>  (3) 
{"0": {"label": "a_hydrogen", "atom_type": "H0"}, "1": {"label": "acceptor", "atom_type": "Cs"}}

>  <type>  (3) 
r2h

$$$$

     RDKit          3D

 26 24  0  0  0  0  0  0  0  0999 V2000
   -2.5011   -0.3993   -0.7998 C   0  0  0  0  0  0  0  0  0  0  0  0
   -2.4139    0.6673    0.0906 O   0  0  0  0  0  0  0  0  0  0  0  0
   -1.2261    1.3413   -0.0704 N   0  0  0  0  0  0  0  0  0  0  0  0
   -1.0884    2.2705    0.7749 C   0  0  0  0  0  0  0  0  0  0  0  0
   -1.7620   -1.4122   -0.3455 H   0  0  0  0  0  0  0  0  0  0  0  0
   -2.1196   -0.1549   -1.7908 H   0  0  0  0  0  0  0  0  0  0  0  0
   -3.5287   -0.7537   -0.7964 H   0  0  0  0  0  0  0  0  0  0  0  0
   -0.1790    2.8524    0.7041 H   0  0  0  0  0  0  0  0  0  0  0  0
   -1.8338    2.4872    1.5363 H   0  0  0  0  0  0  0  0  0  0  0  0
   -0.9972   -2.4000    0.2187 C   0  0  0  0  0  3  0  0  0  0  0  0
    0.2879   -1.7713    0.6881 C   0  0  0  0  0  0  0  0  0  0  0  0
    1.1253   -1.2469   -0.4718 C   0  0  0  0  0  0  0  0  0  0  0  0
    2.3771   -0.7404   -0.0657 O   0  0  0  0  0  0  0  0  0  0  0  0
    2.3596    0.5746    0.4437 C   0  0  0  0  0  0  0  0  0  0  0  0
    2.2839    1.6355   -0.6421 C   0  0  0  0  0  0  0  0  0  0  0  0
   -0.8858   -3.1289   -0.5844 H   0  0  0  0  0  0  0  0  0  0  0  0
   -1.6421   -2.7715    1.0125 H   0  0  0  0  0  0  0  0  0  0  0  0
    0.8900   -2.4996    1.2440 H   0  0  0  0  0  0  0  0  0  0  0  0
    0.0632   -0.9577    1.3838 H   0  0  0  0  0  0  0  0  0  0  0  0
    0.5545   -0.4928   -1.0254 H   0  0  0  0  0  0  0  0  0  0  0  0
    1.3440   -2.0670   -1.1603 H   0  0  0  0  0  0  0  0  0  0  0  0
    1.5334    0.7055    1.1537 H   0  0  0  0  0  0  0  0  0  0  0  0
    3.2896    0.6826    1.0050 H   0  0  0  0  0  0  0  0  0  0  0  0
    1.3352    1.5925   -1.1791 H   0  0  0  0  0  0  0  0  0  0  0  0
    2.3748    2.6301   -0.1982 H   0  0  0  0  0  0  0  0  0  0  0  0
    3.0977    1.5051   -1.3566 H   0  0  0  0  0  0  0  0  0  0  0  0
  1  2  1  0
  1  5  1  0
  1  6  1  0
  1  7  1  0
  2  3  1  0
  3  4  2  3
  4  8  1  0
  4  9  1  0
 10 11  1  0
 10 16  1  0
 10 17  1  0
 11 12  1  0
 11 18  1  0
 11 19  1  0
 12 13  1  0
 12 20  1  0
 12 21  1  0
 13 14  1  0
 14 15  1  0
 14 22  1  0
 14 23  1  0
 15 24  1  0
 15 25  1  0
 15 26  1  0
M  RAD  1  10   2
M  END
>  <reaction>  (4) 
rmg_rxn_15616

>  <mol_properties>  (4) 
{"0": {"label": "*1", "atom_type": "Cs"}, "1": {"label": "*0", "atom_type": "O2s"}, "4": {"label": "*2", "atom_type": "H0"}, "9": {"label": "*3", "atom_type": "Cs"}, "10": {"label": "*4", "atom_type": "Cs"}}

>  <type>  (4) 
ts

$$$$

     RDKit          3D

 26 24  0  0  0  0  0  0  0  0999 V2000
   -1.2972    0.0533    1.2262 C   0  0  0  0  0  3  0  0  0  0  0  0
   -2.5777    0.1914    0.7256 O   0  0  0  0  0  0  0  0  0  0  0  0
   -2.8046    0.6213   -0.5363 N   0  0  0  0  0  0  0  0  0  0  0  0
   -1.8675    0.8359   -1.3580 C   0  0  0  0  0  0  0  0  0  0  0  0
   -0.7321   -1.0746    0.7371 H   0  0  0  0  0  0  0  0  0  0  0  0
   -1.3868   -0.1033    2.2954 H   0  0  0  0  0  0  0  0  0  0  0  0
   -0.6102    0.8506    0.9541 H   0  0  0  0  0  0  0  0  0  0  0  0
   -2.1809    1.1877   -2.3260 H   0  0  0  0  0  0  0  0  0  0  0  0
   -0.8046    0.6967   -1.1884 H   0  0  0  0  0  0  0  0  0  0  0  0
   -0.2537   -2.1946    0.2938 C   0  0  0  0  0  0  0  0  0  0  0  0
    1.2430   -2.0858    0.1356 C   0  0  0  0  0  0  0  0  0  0  0  0
    1.6566   -1.0386   -0.9055 C   0  0  0  0  0  0  0  0  0  0  0  0
    1.3928    0.2956   -0.5354 O   0  0  0  0  0  0  0  0  0  0  0  0
    2.2971    0.8499    0.3979 C   0  0  0  0  0  0  0  0  0  0  0  0
    2.0871    2.3561    0.4436 C   0  0  0  0  0  0  0  0  0  0  0  0
   -0.7622   -2.3769   -0.6475 H   0  0  0  0  0  0  0  0  0  0  0  0
   -0.5414   -2.9293    1.0381 H   0  0  0  0  0  0  0  0  0  0  0  0
    1.6500   -3.0487   -0.1945 H   0  0  0  0  0  0  0  0  0  0  0  0
    1.7052   -1.8513    1.0972 H   0  0  0  0  0  0  0  0  0  0  0  0
    1.0866   -1.1971   -1.8261 H   0  0  0  0  0  0  0  0  0  0  0  0
    2.7275   -1.1514   -1.1340 H   0  0  0  0  0  0  0  0  0  0  0  0
    2.1369    0.4175    1.3968 H   0  0  0  0  0  0  0  0  0  0  0  0
    3.3291    0.6230    0.0890 H   0  0  0  0  0  0  0  0  0  0  0  0
    1.0772    2.5892    0.7705 H   0  0  0  0  0  0  0  0  0  0  0  0
    2.7935    2.8063    1.1352 H   0  0  0  0  0  0  0  0  0  0  0  0
    2.2343    2.7805   -0.5458 H   0  0  0  0  0  0  0  0  0  0  0  0
  1  2  1  0
  1  6  1  0
  1  7  1  0
  2  3  1  0
  3  4  2  3
  4  8  1  0
  4  9  1  0
  5 10  1  0
 10 11  1  0
 10 16  1  0
 10 17  1  0
 11 12  1  0
 11 18  1  0
 11 19  1  0
 12 13  1  0
 12 20  1  0
 12 21  1  0
 13 14  1  0
 14 15  1  0
 14 22  1  0
 14 23  1  0
 15 24  1  0
 15 25  1  0
 15 26  1  0
M  RAD  1   1   2
M  END
>  <reaction>  (5) 
rmg_rxn_15616

>  <mol_properties>  (5) 
{"0": {"label": "*1", "atom_type": "Cs"}, "1": {"label": "*0", "atom_type": "O2s"}, "4": {"label": "*2", "atom_type": "H0"}, "9": {"label": "*3", "atom_type": "Cs"}, "10": {"label": "*4", "atom_type": "Cs"}}

>  <type>  (5) 
unop_1

>  <geom_source>  (5) 
crest_best.xyz

$$$$

     RDKit          3D

 26 24  0  0  0  0  0  0  0  0999 V2000
   -2.4025    1.3492   -0.8569 C   0  0  0  0  0  3  0  0  0  0  0  0
   -2.4025    1.4071   -2.2698 O   0  0  0  0  0  0  0  0  0  0  0  0
   -2.4025    0.1333   -2.7856 N   0  0  0  0  0  0  0  0  0  0  0  0
   -2.4025    0.1333   -4.0492 C   0  0  0  0  0  0  0  0  0  0  0  0
   -1.3319    0.7371   -0.4128 H   0  0  0  0  0  0  0  0  0  0  0  0
   -3.2946    0.8390   -0.4868 H   0  0  0  0  0  0  0  0  0  0  0  0
   -2.4025    2.3841   -0.5191 H   0  0  0  0  0  0  0  0  0  0  0  0
   -2.4025   -0.8338   -4.5340 H   0  0  0  0  0  0  0  0  0  0  0  0
   -2.4025    1.0498   -4.6353 H   0  0  0  0  0  0  0  0  0  0  0  0
   -0.2626    0.1256    0.0308 C   0  0  0  0  0  0  0  0  0  0  0  0
    0.5594    1.0408    0.9285 C   0  0  0  0  0  0  0  0  0  0  0  0
    1.1322    0.3309    2.1381 C   0  0  0  0  0  0  0  0  0  0  0  0
    2.0262   -0.6665    1.7127 O   0  0  0  0  0  0  0  0  0  0  0  0
    2.5816   -1.4039    2.7716 C   0  0  0  0  0  0  0  0  0  0  0  0
    3.5214   -2.4434    2.2060 C   0  0  0  0  0  0  0  0  0  0  0  0
    0.3468   -0.6969   -0.3436 H   0  0  0  0  0  0  0  0  0  0  0  0
   -1.1054   -0.3031    0.5787 H   0  0  0  0  0  0  0  0  0  0  0  0
   -0.0573    1.8701    1.2861 H   0  0  0  0  0  0  0  0  0  0  0  0
    1.3839    1.4808    0.3615 H   0  0  0  0  0  0  0  0  0  0  0  0
    0.3208   -0.1210    2.7304 H   0  0  0  0  0  0  0  0  0  0  0  0
    1.6526    1.0478    2.7900 H   0  0  0  0  0  0  0  0  0  0  0  0
    3.1196   -0.7309    3.4557 H   0  0  0  0  0  0  0  0  0  0  0  0
    1.7816   -1.8848    3.3535 H   0  0  0  0  0  0  0  0  0  0  0  0
    4.3228   -1.9667    1.6405 H   0  0  0  0  0  0  0  0  0  0  0  0
    3.9662   -3.0293    3.0119 H   0  0  0  0  0  0  0  0  0  0  0  0
    2.9858   -3.1206    1.5397 H   0  0  0  0  0  0  0  0  0  0  0  0
  1  2  1  0
  1  6  1  0
  1  7  1  0
  2  3  1  0
  3  4  2  3
  4  8  1  0
  4  9  1  0
  5 10  1  0
 10 11  1  0
 10 16  1  0
 10 17  1  0
 11 12  1  0
 11 18  1  0
 11 19  1  0
 12 13  1  0
 12 20  1  0
 12 21  1  0
 13 14  1  0
 14 15  1  0
 14 22  1  0
 14 23  1  0
 15 24  1  0
 15 25  1  0
 15 26  1  0
M  RAD  1   1   2
M  END
>  <reaction>  (6) 
rmg_rxn_15616

>  <mol_properties>  (6) 
{"0": {"label": "*1", "atom_type": "Cs"}, "1": {"label": "*0", "atom_type": "O2s"}, "4": {"label": "*2", "atom_type": "H0"}, "9": {"label": "*3", "atom_type": "Cs"}, "10": {"label": "*4", "atom_type": "Cs"}}

>  <type>  (6) 
unop_2

>  <geom_source>  (6) 
Heuristics

$$$$

     RDKit          3D

 26 24  0  0  0  0  0  0  0  0999 V2000
   -1.3986    0.0752    1.2675 C   0  0  0  0  0  3  0  0  0  0  0  0
   -2.5843    0.3649    0.6205 O   0  0  0  0  0  0  0  0  0  0  0  0
   -2.6088    0.8740   -0.6311 N   0  0  0  0  0  0  0  0  0  0  0  0
   -1.5596    1.0234   -1.3218 C   0  0  0  0  0  0  0  0  0  0  0  0
   -0.8849   -1.0941    0.8210 H   0  0  0  0  0  0  0  0  0  0  0  0
   -1.6390   -0.1000    2.3102 H   0  0  0  0  0  0  0  0  0  0  0  0
   -0.5988    0.7953    1.1146 H   0  0  0  0  0  0  0  0  0  0  0  0
   -1.7118    1.4511   -2.2981 H   0  0  0  0  0  0  0  0  0  0  0  0
   -0.5485    0.7563   -1.0324 H   0  0  0  0  0  0  0  0  0  0  0  0
   -0.4450   -2.2560    0.4535 C   0  0  0  0  0  0  0  0  0  0  0  0
    0.5587   -2.1095   -0.6635 C   0  0  0  0  0  0  0  0  0  0  0  0
    1.7942   -1.3095   -0.2582 C   0  0  0  0  0  0  0  0  0  0  0  0
    1.4594    0.0545   -0.1388 O   0  0  0  0  0  0  0  0  0  0  0  0
    2.5537    0.8687    0.2165 C   0  0  0  0  0  0  0  0  0  0  0  0
    2.0904    2.3144    0.3005 C   0  0  0  0  0  0  0  0  0  0  0  0
   -1.3283   -2.8046    0.1450 H   0  0  0  0  0  0  0  0  0  0  0  0
   -0.0131   -2.6862    1.3513 H   0  0  0  0  0  0  0  0  0  0  0  0
    0.0940   -1.6227   -1.5233 H   0  0  0  0  0  0  0  0  0  0  0  0
    0.8972   -3.1007   -0.9871 H   0  0  0  0  0  0  0  0  0  0  0  0
    2.5836   -1.4267   -1.0188 H   0  0  0  0  0  0  0  0  0  0  0  0
    2.1913   -1.6817    0.6996 H   0  0  0  0  0  0  0  0  0  0  0  0
    2.9633    0.5398    1.1850 H   0  0  0  0  0  0  0  0  0  0  0  0
    3.3508    0.7678   -0.5378 H   0  0  0  0  0  0  0  0  0  0  0  0
    2.9335    2.9586    0.5329 H   0  0  0  0  0  0  0  0  0  0  0  0
    1.6586    2.6218   -0.6484 H   0  0  0  0  0  0  0  0  0  0  0  0
    1.3381    2.4254    1.0773 H   0  0  0  0  0  0  0  0  0  0  0  0
  1  2  1  0
  1  6  1  0
  1  7  1  0
  2  3  1  0
  3  4  2  3
  4  8  1  0
  4  9  1  0
  5 10  1  0
 10 11  1  0
 10 16  1  0
 10 17  1  0
 11 12  1  0
 11 18  1  0
 11 19  1  0
 12 13  1  0
 12 20  1  0
 12 21  1  0
 13 14  1  0
 14 15  1  0
 14 22  1  0
 14 23  1  0
 15 24  1  0
 15 25  1  0
 15 26  1  0
M  RAD  1   1   2
M  END
>  <reaction>  (7) 
rmg_rxn_15616

>  <mol_properties>  (7) 
{"0": {"label": "*1", "atom_type": "Cs"}, "1": {"label": "*0", "atom_type": "O2s"}, "4": {"label": "*2", "atom_type": "H0"}, "9": {"label": "*3", "atom_type": "Cs"}, "10": {"label": "*4", "atom_type": "Cs"}}

>  <type>  (7) 
unop_3

>  <geom_source>  (7) 
Heuristics

$$$$

     RDKit          3D

 26 24  0  0  0  0  0  0  0  0999 V2000
   -1.5538    0.4006    1.6899 C   0  0  0  0  0  3  0  0  0  0  0  0
   -2.4041   -0.0377    0.7568 O   0  0  0  0  0  0  0  0  0  0  0  0
   -1.8543   -0.2735   -0.4789 N   0  0  0  0  0  0  0  0  0  0  0  0
   -2.6648   -0.6949   -1.3675 C   0  0  0  0  0  0  0  0  0  0  0  0
    1.7844   -3.7578    0.2135 H   0  0  0  0  0  0  0  0  0  0  0  0
   -0.5127    0.5452    1.4724 H   0  0  0  0  0  0  0  0  0  0  0  0
   -2.0081    0.5721    2.6435 H   0  0  0  0  0  0  0  0  0  0  0  0
   -2.2512   -0.8843   -2.3408 H   0  0  0  0  0  0  0  0  0  0  0  0
   -3.7218   -0.8671   -1.1960 H   0  0  0  0  0  0  0  0  0  0  0  0
    1.5649   -2.8397   -0.3328 C   0  0  0  0  0  0  0  0  0  0  0  0
    1.6582   -1.5941    0.5237 C   0  0  0  0  0  0  0  0  0  0  0  0
    1.5178   -0.3336   -0.3243 C   0  0  0  0  0  0  0  0  0  0  0  0
    1.5553    0.7925    0.5342 O   0  0  0  0  0  0  0  0  0  0  0  0
    1.6902    2.0308   -0.1226 C   0  0  0  0  0  0  0  0  0  0  0  0
    0.4460    2.4758   -0.8898 C   0  0  0  0  0  0  0  0  0  0  0  0
    0.6173   -2.9184   -0.8502 H   0  0  0  0  0  0  0  0  0  0  0  0
    2.3849   -2.9643   -1.0076 H   0  0  0  0  0  0  0  0  0  0  0  0
    2.6126   -1.5636    1.0515 H   0  0  0  0  0  0  0  0  0  0  0  0
    0.8636   -1.5982    1.2711 H   0  0  0  0  0  0  0  0  0  0  0  0
    0.5663   -0.3668   -0.8721 H   0  0  0  0  0  0  0  0  0  0  0  0
    2.3428   -0.2730   -1.0512 H   0  0  0  0  0  0  0  0  0  0  0  0
    1.9073    2.7463    0.6759 H   0  0  0  0  0  0  0  0  0  0  0  0
    2.5528    1.9972   -0.8070 H   0  0  0  0  0  0  0  0  0  0  0  0
   -0.4156    2.4939   -0.2277 H   0  0  0  0  0  0  0  0  0  0  0  0
    0.6060    3.4740   -1.2885 H   0  0  0  0  0  0  0  0  0  0  0  0
    0.2339    1.7998   -1.7139 H   0  0  0  0  0  0  0  0  0  0  0  0
  1  2  1  0
  1  6  1  0
  1  7  1  0
  2  3  1  0
  3  4  2  3
  4  8  1  0
  4  9  1  0
  5 10  1  0
 10 11  1  0
 10 16  1  0
 10 17  1  0
 11 12  1  0
 11 18  1  0
 11 19  1  0
 12 13  1  0
 12 20  1  0
 12 21  1  0
 13 14  1  0
 14 15  1  0
 14 22  1  0
 14 23  1  0
 15 24  1  0
 15 25  1  0
 15 26  1  0
M  RAD  1   1   2
M  END
>  <reaction>  (8) 
rmg_rxn_15616

>  <mol_properties>  (8) 
{"0": {"label": "*1", "atom_type": "Cs"}, "1": {"label": "*0", "atom_type": "O2s"}, "4": {"label": "*2", "atom_type": "H0"}, "9": {"label": "*3", "atom_type": "Cs"}, "10": {"label": "*4", "atom_type": "Cs"}}

>  <type>  (8) 
unop_4

>  <geom_source>  (8) 
Heuristics

$$$$

     RDKit          3D

 26 24  0  0  0  0  0  0  0  0999 V2000
   -1.5562   -0.3551   -1.7007 C   0  0  0  0  0  3  0  0  0  0  0  0
   -2.4033    0.0740   -0.7602 O   0  0  0  0  0  0  0  0  0  0  0  0
   -1.8565    0.2603    0.4854 N   0  0  0  0  0  0  0  0  0  0  0  0
   -2.6633    0.6725    1.3815 C   0  0  0  0  0  0  0  0  0  0  0  0
    1.5854    3.7549   -0.2128 H   0  0  0  0  0  0  0  0  0  0  0  0
   -0.5200   -0.5286   -1.4803 H   0  0  0  0  0  0  0  0  0  0  0  0
   -2.0074   -0.4888   -2.6617 H   0  0  0  0  0  0  0  0  0  0  0  0
   -2.2517    0.8236    2.3623 H   0  0  0  0  0  0  0  0  0  0  0  0
   -3.7153    0.8728    1.2092 H   0  0  0  0  0  0  0  0  0  0  0  0
    1.6198    2.8261    0.3583 C   0  0  0  0  0  0  0  0  0  0  0  0
    1.6652    1.5884   -0.5137 C   0  0  0  0  0  0  0  0  0  0  0  0
    1.5234    0.3210    0.3238 C   0  0  0  0  0  0  0  0  0  0  0  0
    1.5351   -0.7964   -0.5466 O   0  0  0  0  0  0  0  0  0  0  0  0
    1.6698   -2.0428    0.0945 C   0  0  0  0  0  0  0  0  0  0  0  0
    0.4411   -2.4772    0.8920 C   0  0  0  0  0  0  0  0  0  0  0  0
    0.6697    2.9888    0.8192 H   0  0  0  0  0  0  0  0  0  0  0  0
    2.4183    2.8570    1.0890 H   0  0  0  0  0  0  0  0  0  0  0  0
    2.6072    1.5472   -1.0631 H   0  0  0  0  0  0  0  0  0  0  0  0
    0.8546    1.6141   -1.2428 H   0  0  0  0  0  0  0  0  0  0  0  0
    0.5810    0.3595    0.8867 H   0  0  0  0  0  0  0  0  0  0  0  0
    2.3590    0.2430    1.0368 H   0  0  0  0  0  0  0  0  0  0  0  0
    1.8541   -2.7531   -0.7167 H   0  0  0  0  0  0  0  0  0  0  0  0
    2.5516   -2.0286    0.7548 H   0  0  0  0  0  0  0  0  0  0  0  0
    0.5922   -3.4863    1.2659 H   0  0  0  0  0  0  0  0  0  0  0  0
    0.2692   -1.8139    1.7355 H   0  0  0  0  0  0  0  0  0  0  0  0
   -0.4410   -2.4637    0.2575 H   0  0  0  0  0  0  0  0  0  0  0  0
  1  2  1  0
  1  6  1  0
  1  7  1  0
  2  3  1  0
  3  4  2  3
  4  8  1  0
  4  9  1  0
  5 10  1  0
 10 11  1  0
 10 16  1  0
 10 17  1  0
 11 12  1  0
 11 18  1  0
 11 19  1  0
 12 13  1  0
 12 20  1  0
 12 21  1  0
 13 14  1  0
 14 15  1  0
 14 22  1  0
 14 23  1  0
 15 24  1  0
 15 25  1  0
 15 26  1  0
M  RAD  1   1   2
M  END
>  <reaction>  (9) 
rmg_rxn_15616

>  <mol_properties>  (9) 
{"0": {"label": "*1", "atom_type": "Cs"}, "1": {"label": "*0", "atom_type": "O2s"}, "4": {"label": "*2", "atom_type": "H0"}, "9": {"label": "*3", "atom_type": "Cs"}, "10": {"label": "*4", "atom_type": "Cs"}}

>  <type>  (9) 
unop_5

>  <geom_source>  (9) 
Heuristics

$$$$

     RDKit          3D

 26 24  0  0  0  0  0  0  0  0999 V2000
   -2.6690    1.6081    0.0425 C   0  0  0  0  0  3  0  0  0  0  0  0
   -2.6691    1.6660   -1.3704 O   0  0  0  0  0  0  0  0  0  0  0  0
   -2.6691    0.3921   -1.8861 N   0  0  0  0  0  0  0  0  0  0  0  0
   -2.6691    0.3921   -3.1497 C   0  0  0  0  0  0  0  0  0  0  0  0
   -1.5984    0.9959    0.4866 H   0  0  0  0  0  0  0  0  0  0  0  0
   -3.5612    1.0979    0.4126 H   0  0  0  0  0  0  0  0  0  0  0  0
   -2.6691    2.6430    0.3803 H   0  0  0  0  0  0  0  0  0  0  0  0
   -2.6691   -0.5750   -3.6345 H   0  0  0  0  0  0  0  0  0  0  0  0
   -2.6691    1.3086   -3.7359 H   0  0  0  0  0  0  0  0  0  0  0  0
   -0.5292    0.3845    0.9302 C   0  0  0  0  0  0  0  0  0  0  0  0
    0.6479    0.5832   -0.0155 C   0  0  0  0  0  0  0  0  0  0  0  0
    1.9870    0.2944    0.6315 C   0  0  0  0  0  0  0  0  0  0  0  0
    2.0409   -1.0589    1.0063 O   0  0  0  0  0  0  0  0  0  0  0  0
    3.2393   -1.4105    1.6496 C   0  0  0  0  0  0  0  0  0  0  0  0
    3.1919   -2.8777    2.0083 C   0  0  0  0  0  0  0  0  0  0  0  0
   -0.5661   -0.6438    1.2899 H   0  0  0  0  0  0  0  0  0  0  0  0
   -0.4457    1.0415    1.7995 H   0  0  0  0  0  0  0  0  0  0  0  0
    0.6666    1.6134   -0.3817 H   0  0  0  0  0  0  0  0  0  0  0  0
    0.5390   -0.0622   -0.8909 H   0  0  0  0  0  0  0  0  0  0  0  0
    2.1245    0.9344    1.5175 H   0  0  0  0  0  0  0  0  0  0  0  0
    2.8052    0.5231   -0.0671 H   0  0  0  0  0  0  0  0  0  0  0  0
    4.0944   -1.2037    0.9890 H   0  0  0  0  0  0  0  0  0  0  0  0
    3.3732   -0.7979    2.5534 H   0  0  0  0  0  0  0  0  0  0  0  0
    3.0731   -3.4867    1.1114 H   0  0  0  0  0  0  0  0  0  0  0  0
    4.1145   -3.1744    2.5096 H   0  0  0  0  0  0  0  0  0  0  0  0
    2.3537   -3.0810    2.6757 H   0  0  0  0  0  0  0  0  0  0  0  0
  1  2  1  0
  1  6  1  0
  1  7  1  0
  2  3  1  0
  3  4  2  3
  4  8  1  0
  4  9  1  0
  5 10  1  0
 10 11  1  0
 10 16  1  0
 10 17  1  0
 11 12  1  0
 11 18  1  0
 11 19  1  0
 12 13  1  0
 12 20  1  0
 12 21  1  0
 13 14  1  0
 14 15  1  0
 14 22  1  0
 14 23  1  0
 15 24  1  0
 15 25  1  0
 15 26  1  0
M  RAD  1   1   2
M  END
>  <reaction>  (10) 
rmg_rxn_15616

>  <mol_properties>  (10) 
{"0": {"label": "*1", "atom_type": "Cs"}, "1": {"label": "*0", "atom_type": "O2s"}, "4": {"label": "*2", "atom_type": "H0"}, "9": {"label": "*3", "atom_type": "Cs"}, "10": {"label": "*4", "atom_type": "Cs"}}

>  <type>  (10) 
unop_6

>  <geom_source>  (10) 
Heuristics

$$$$

     RDKit          3D

 26 24  0  0  0  0  0  0  0  0999 V2000
   -2.1043   -0.9002   -0.9876 C   0  0  0  0  0  3  0  0  0  0  0  0
   -2.5528    0.0552   -0.0970 O   0  0  0  0  0  0  0  0  0  0  0  0
   -1.6951    1.1308    0.0160 N   0  0  0  0  0  0  0  0  0  0  0  0
   -2.0298    2.0167    0.8549 C   0  0  0  0  0  0  0  0  0  0  0  0
   -1.2471   -1.7414   -0.3670 H   0  0  0  0  0  0  0  0  0  0  0  0
   -1.5319   -0.4889   -1.8152 H   0  0  0  0  0  0  0  0  0  0  0  0
   -2.9509   -1.5062   -1.2893 H   0  0  0  0  0  0  0  0  0  0  0  0
   -1.3712    2.8611    0.9505 H   0  0  0  0  0  0  0  0  0  0  0  0
   -2.9252    1.9693    1.4654 H   0  0  0  0  0  0  0  0  0  0  0  0
   -0.3906   -2.5423    0.1866 C   0  0  0  0  0  0  0  0  0  0  0  0
    0.9843   -1.9529    0.0081 C   0  0  0  0  0  0  0  0  0  0  0  0
    1.1317   -0.6265    0.7643 C   0  0  0  0  0  0  0  0  0  0  0  0
    2.3862   -0.0064    0.5679 O   0  0  0  0  0  0  0  0  0  0  0  0
    2.5249    0.7294   -0.6294 C   0  0  0  0  0  0  0  0  0  0  0  0
    1.7735    2.0606   -0.6249 C   0  0  0  0  0  0  0  0  0  0  0  0
   -0.5171   -3.4866   -0.3316 H   0  0  0  0  0  0  0  0  0  0  0  0
   -0.6875   -2.6216    1.2267 H   0  0  0  0  0  0  0  0  0  0  0  0
    1.1790   -1.7950   -1.0556 H   0  0  0  0  0  0  0  0  0  0  0  0
    1.7479   -2.6470    0.3763 H   0  0  0  0  0  0  0  0  0  0  0  0
    1.0719   -0.8137    1.8406 H   0  0  0  0  0  0  0  0  0  0  0  0
    0.3162    0.0512    0.4868 H   0  0  0  0  0  0  0  0  0  0  0  0
    3.5999    0.9132   -0.7119 H   0  0  0  0  0  0  0  0  0  0  0  0
    2.2109    0.1308   -1.4954 H   0  0  0  0  0  0  0  0  0  0  0  0
    2.0354    2.6250   -1.5159 H   0  0  0  0  0  0  0  0  0  0  0  0
    0.6972    1.9057   -0.6147 H   0  0  0  0  0  0  0  0  0  0  0  0
    2.0536    2.6367    0.2536 H   0  0  0  0  0  0  0  0  0  0  0  0
  1  2  1  0
  1  6  1  0
  1  7  1  0
  2  3  1  0
  3  4  2  3
  4  8  1  0
  4  9  1  0
  5 10  1  0
 10 11  1  0
 10 16  1  0
 10 17  1  0
 11 12  1  0
 11 18  1  0
 11 19  1  0
 12 13  1  0
 12 20  1  0
 12 21  1  0
 13 14  1  0
 14 15  1  0
 14 22  1  0
 14 23  1  0
 15 24  1  0
 15 25  1  0
 15 26  1  0
M  RAD  1   1   2
M  END
>  <reaction>  (11) 
rmg_rxn_15616

>  <mol_properties>  (11) 
{"0": {"label": "*1", "atom_type": "Cs"}, "1": {"label": "*0", "atom_type": "O2s"}, "4": {"label": "*2", "atom_type": "H0"}, "9": {"label": "*3", "atom_type": "Cs"}, "10": {"label": "*4", "atom_type": "Cs"}}

>  <type>  (11) 
unop_7

>  <geom_source>  (11) 
Heuristics

$$$$

     RDKit          3D

 26 24  0  0  0  0  0  0  0  0999 V2000
   -2.4100    1.4610   -0.7948 C   0  0  0  0  0  3  0  0  0  0  0  0
   -2.4100    1.5189   -2.2077 O   0  0  0  0  0  0  0  0  0  0  0  0
   -2.4100    0.2450   -2.7234 N   0  0  0  0  0  0  0  0  0  0  0  0
   -2.4100    0.2450   -3.9870 C   0  0  0  0  0  0  0  0  0  0  0  0
   -1.3394    0.8488   -0.3507 H   0  0  0  0  0  0  0  0  0  0  0  0
   -3.3021    0.9508   -0.4247 H   0  0  0  0  0  0  0  0  0  0  0  0
   -2.4100    2.4959   -0.4570 H   0  0  0  0  0  0  0  0  0  0  0  0
   -2.4100   -0.7221   -4.4719 H   0  0  0  0  0  0  0  0  0  0  0  0
   -2.4100    1.1615   -4.5732 H   0  0  0  0  0  0  0  0  0  0  0  0
   -0.2701    0.2373    0.0929 C   0  0  0  0  0  0  0  0  0  0  0  0
    0.1371    0.7683    1.4609 C   0  0  0  0  0  0  0  0  0  0  0  0
    0.8459   -0.2641    2.3136 C   0  0  0  0  0  0  0  0  0  0  0  0
    2.0494   -0.6359    1.6904 O   0  0  0  0  0  0  0  0  0  0  0  0
    2.7601   -1.6207    2.3965 C   0  0  0  0  0  0  0  0  0  0  0  0
    4.0291   -1.9454    1.6429 C   0  0  0  0  0  0  0  0  0  0  0  0
    0.6038   -0.0920   -0.4692 H   0  0  0  0  0  0  0  0  0  0  0  0
   -0.9468   -0.6151    0.1915 H   0  0  0  0  0  0  0  0  0  0  0  0
   -0.7449    1.1095    2.0099 H   0  0  0  0  0  0  0  0  0  0  0  0
    0.7939    1.6346    1.3470 H   0  0  0  0  0  0  0  0  0  0  0  0
    0.2039   -1.1492    2.4470 H   0  0  0  0  0  0  0  0  0  0  0  0
    1.0520    0.1441    3.3139 H   0  0  0  0  0  0  0  0  0  0  0  0
    2.9957   -1.2602    3.4088 H   0  0  0  0  0  0  0  0  0  0  0  0
    2.1393   -2.5216    2.5103 H   0  0  0  0  0  0  0  0  0  0  0  0
    4.6517   -1.0558    1.5416 H   0  0  0  0  0  0  0  0  0  0  0  0
    4.5991   -2.7094    2.1739 H   0  0  0  0  0  0  0  0  0  0  0  0
    3.7961   -2.3178    0.6447 H   0  0  0  0  0  0  0  0  0  0  0  0
  1  2  1  0
  1  6  1  0
  1  7  1  0
  2  3  1  0
  3  4  2  3
  4  8  1  0
  4  9  1  0
  5 10  1  0
 10 11  1  0
 10 16  1  0
 10 17  1  0
 11 12  1  0
 11 18  1  0
 11 19  1  0
 12 13  1  0
 12 20  1  0
 12 21  1  0
 13 14  1  0
 14 15  1  0
 14 22  1  0
 14 23  1  0
 15 24  1  0
 15 25  1  0
 15 26  1  0
M  RAD  1   1   2
M  END
>  <reaction>  (12) 
rmg_rxn_15616

>  <mol_properties>  (12) 
{"0": {"label": "*1", "atom_type": "Cs"}, "1": {"label": "*0", "atom_type": "O2s"}, "4": {"label": "*2", "atom_type": "H0"}, "9": {"label": "*3", "atom_type": "Cs"}, "10": {"label": "*4", "atom_type": "Cs"}}

>  <type>  (12) 
unop_8

>  <geom_source>  (12) 
Heuristics

$$$$

     RDKit          3D

 26 24  0  0  0  0  0  0  0  0999 V2000
   -1.3858    2.2598   -0.6958 C   0  0  0  0  0  3  0  0  0  0  0  0
   -1.3858    2.3177   -2.1087 O   0  0  0  0  0  0  0  0  0  0  0  0
   -1.3858    1.0439   -2.6244 N   0  0  0  0  0  0  0  0  0  0  0  0
   -1.3858    1.0439   -3.8880 C   0  0  0  0  0  0  0  0  0  0  0  0
   -0.3152    1.6476   -0.2517 H   0  0  0  0  0  0  0  0  0  0  0  0
   -2.2779    1.7496   -0.3257 H   0  0  0  0  0  0  0  0  0  0  0  0
   -1.3858    3.2947   -0.3580 H   0  0  0  0  0  0  0  0  0  0  0  0
   -1.3858    0.0768   -4.3729 H   0  0  0  0  0  0  0  0  0  0  0  0
   -1.3858    1.9603   -4.4742 H   0  0  0  0  0  0  0  0  0  0  0  0
    0.7541    1.0362    0.1919 C   0  0  0  0  0  0  0  0  0  0  0  0
    0.8274   -0.3910   -0.3344 C   0  0  0  0  0  0  0  0  0  0  0  0
    1.5022   -1.3467    0.6282 C   0  0  0  0  0  0  0  0  0  0  0  0
    0.7458   -1.4290    1.8097 O   0  0  0  0  0  0  0  0  0  0  0  0
    1.3177   -2.2701    2.7788 C   0  0  0  0  0  0  0  0  0  0  0  0
    0.4296   -2.2855    4.0013 C   0  0  0  0  0  0  0  0  0  0  0  0
    0.1910    1.0754    1.1243 H   0  0  0  0  0  0  0  0  0  0  0  0
    1.7542    1.4315    0.3866 H   0  0  0  0  0  0  0  0  0  0  0  0
    1.3812   -0.4165   -1.2770 H   0  0  0  0  0  0  0  0  0  0  0  0
   -0.1775   -0.7646   -0.5472 H   0  0  0  0  0  0  0  0  0  0  0  0
    2.5203   -0.9948    0.8587 H   0  0  0  0  0  0  0  0  0  0  0  0
    1.5961   -2.3435    0.1727 H   0  0  0  0  0  0  0  0  0  0  0  0
    1.4314   -3.2865    2.3734 H   0  0  0  0  0  0  0  0  0  0  0  0
    2.3244   -1.9112    3.0393 H   0  0  0  0  0  0  0  0  0  0  0  0
   -0.5646   -2.6542    3.7467 H   0  0  0  0  0  0  0  0  0  0  0  0
    0.8543   -2.9341    4.7690 H   0  0  0  0  0  0  0  0  0  0  0  0
    0.3289   -1.2806    4.4131 H   0  0  0  0  0  0  0  0  0  0  0  0
  1  2  1  0
  1  6  1  0
  1  7  1  0
  2  3  1  0
  3  4  2  3
  4  8  1  0
  4  9  1  0
  5 10  1  0
 10 11  1  0
 10 16  1  0
 10 17  1  0
 11 12  1  0
 11 18  1  0
 11 19  1  0
 12 13  1  0
 12 20  1  0
 12 21  1  0
 13 14  1  0
 14 15  1  0
 14 22  1  0
 14 23  1  0
 15 24  1  0
 15 25  1  0
 15 26  1  0
M  RAD  1   1   2
M  END
>  <reaction>  (13) 
rmg_rxn_15616

>  <mol_properties>  (13) 
{"0": {"label": "*1", "atom_type": "Cs"}, "1": {"label": "*0", "atom_type": "O2s"}, "4": {"label": "*2", "atom_type": "H0"}, "9": {"label": "*3", "atom_type": "Cs"}, "10": {"label": "*4", "atom_type": "Cs"}}

>  <type>  (13) 
unop_9

>  <geom_source>  (13) 
Heuristics

$$$$

     RDKit          3D

 26 24  0  0  0  0  0  0  0  0999 V2000
   -1.5276   -0.3100    1.7184 C   0  0  0  0  0  3  0  0  0  0  0  0
   -2.3861    0.0897    0.7756 O   0  0  0  0  0  0  0  0  0  0  0  0
   -1.8644    0.2027   -0.4892 N   0  0  0  0  0  0  0  0  0  0  0  0
   -2.6827    0.5898   -1.3862 C   0  0  0  0  0  0  0  0  0  0  0  0
    0.6347    2.8705   -0.9766 H   0  0  0  0  0  0  0  0  0  0  0  0
   -0.4986   -0.5104    1.4876 H   0  0  0  0  0  0  0  0  0  0  0  0
   -1.9599   -0.3845    2.6944 H   0  0  0  0  0  0  0  0  0  0  0  0
   -2.2916    0.6828   -2.3825 H   0  0  0  0  0  0  0  0  0  0  0  0
   -3.7255    0.8231   -1.2003 H   0  0  0  0  0  0  0  0  0  0  0  0
    1.5457    2.8487   -0.3755 C   0  0  0  0  0  0  0  0  0  0  0  0
    1.6591    1.6101    0.4892 C   0  0  0  0  0  0  0  0  0  0  0  0
    1.5077    0.3360   -0.3350 C   0  0  0  0  0  0  0  0  0  0  0  0
    1.5666   -0.7755    0.5408 O   0  0  0  0  0  0  0  0  0  0  0  0
    1.7012   -2.0236   -0.0973 C   0  0  0  0  0  0  0  0  0  0  0  0
    0.4500   -2.4896   -0.8401 C   0  0  0  0  0  0  0  0  0  0  0  0
    1.6520    3.7642    0.1913 H   0  0  0  0  0  0  0  0  0  0  0  0
    2.1944    2.8428   -1.2256 H   0  0  0  0  0  0  0  0  0  0  0  0
    0.8826    1.6218    1.2556 H   0  0  0  0  0  0  0  0  0  0  0  0
    2.6258    1.5934    0.9953 H   0  0  0  0  0  0  0  0  0  0  0  0
    2.3193    0.2661   -1.0763 H   0  0  0  0  0  0  0  0  0  0  0  0
    0.5457    0.3551   -0.8655 H   0  0  0  0  0  0  0  0  0  0  0  0
    2.5544   -1.9956   -0.7937 H   0  0  0  0  0  0  0  0  0  0  0  0
    1.9341   -2.7241    0.7100 H   0  0  0  0  0  0  0  0  0  0  0  0
    0.6116   -3.4933   -1.2242 H   0  0  0  0  0  0  0  0  0  0  0  0
   -0.4027   -2.5023   -0.1666 H   0  0  0  0  0  0  0  0  0  0  0  0
    0.2217   -1.8289   -1.6721 H   0  0  0  0  0  0  0  0  0  0  0  0
  1  2  1  0
  1  6  1  0
  1  7  1  0
  2  3  1  0
  3  4  2  3
  4  8  1  0
  4  9  1  0
  5 10  1  0
 10 11  1  0
 10 16  1  0
 10 17  1  0
 11 12  1  0
 11 18  1  0
 11 19  1  0
 12 13  1  0
 12 20  1  0
 12 21  1  0
 13 14  1  0
 14 15  1  0
 14 22  1  0
 14 23  1  0
 15 24  1  0
 15 25  1  0
 15 26  1  0
M  RAD  1   1   2
M  END
>  <reaction>  (14) 
rmg_rxn_15616

>  <mol_properties>  (14) 
{"0": {"label": "*1", "atom_type": "Cs"}, "1": {"label": "*0", "atom_type": "O2s"}, "4": {"label": "*2", "atom_type": "H0"}, "9": {"label": "*3", "atom_type": "Cs"}, "10": {"label": "*4", "atom_type": "Cs"}}

>  <type>  (14) 
unop_10

>  <geom_source>  (14) 
Heuristics

$$$$

     RDKit          3D

 26 24  0  0  0  0  0  0  0  0999 V2000
   -2.4887    1.0952   -0.8220 C   0  0  0  0  0  3  0  0  0  0  0  0
   -2.4887    1.1531   -2.2349 O   0  0  0  0  0  0  0  0  0  0  0  0
   -2.4887   -0.1208   -2.7506 N   0  0  0  0  0  0  0  0  0  0  0  0
   -2.4887   -0.1208   -4.0142 C   0  0  0  0  0  0  0  0  0  0  0  0
   -1.4181    0.4830   -0.3779 H   0  0  0  0  0  0  0  0  0  0  0  0
   -3.3808    0.5850   -0.4519 H   0  0  0  0  0  0  0  0  0  0  0  0
   -2.4887    2.1301   -0.4842 H   0  0  0  0  0  0  0  0  0  0  0  0
   -2.4887   -1.0879   -4.4991 H   0  0  0  0  0  0  0  0  0  0  0  0
   -2.4887    0.7957   -4.6004 H   0  0  0  0  0  0  0  0  0  0  0  0
   -0.3488   -0.1285    0.0657 C   0  0  0  0  0  0  0  0  0  0  0  0
   -0.3456   -0.1926    1.5873 C   0  0  0  0  0  0  0  0  0  0  0  0
    0.8704   -0.8989    2.1510 C   0  0  0  0  0  0  0  0  0  0  0  0
    2.0274   -0.1773    1.8110 O   0  0  0  0  0  0  0  0  0  0  0  0
    3.2123   -0.7805    2.2644 C   0  0  0  0  0  0  0  0  0  0  0  0
    4.3881    0.0719    1.8466 C   0  0  0  0  0  0  0  0  0  0  0  0
    0.5269    0.4076   -0.3000 H   0  0  0  0  0  0  0  0  0  0  0  0
   -0.3330   -1.1321   -0.3666 H   0  0  0  0  0  0  0  0  0  0  0  0
   -1.2354   -0.7190    1.9436 H   0  0  0  0  0  0  0  0  0  0  0  0
   -0.3858    0.8165    2.0055 H   0  0  0  0  0  0  0  0  0  0  0  0
    0.9344   -1.9217    1.7470 H   0  0  0  0  0  0  0  0  0  0  0  0
    0.7891   -0.9839    3.2446 H   0  0  0  0  0  0  0  0  0  0  0  0
    3.1842   -0.8867    3.3590 H   0  0  0  0  0  0  0  0  0  0  0  0
    3.3024   -1.7927    1.8433 H   0  0  0  0  0  0  0  0  0  0  0  0
    4.3067    1.0715    2.2749 H   0  0  0  0  0  0  0  0  0  0  0  0
    5.3215   -0.3775    2.1890 H   0  0  0  0  0  0  0  0  0  0  0  0
    4.4259    0.1650    0.7606 H   0  0  0  0  0  0  0  0  0  0  0  0
  1  2  1  0
  1  6  1  0
  1  7  1  0
  2  3  1  0
  3  4  2  3
  4  8  1  0
  4  9  1  0
  5 10  1  0
 10 11  1  0
 10 16  1  0
 10 17  1  0
 11 12  1  0
 11 18  1  0
 11 19  1  0
 12 13  1  0
 12 20  1  0
 12 21  1  0
 13 14  1  0
 14 15  1  0
 14 22  1  0
 14 23  1  0
 15 24  1  0
 15 25  1  0
 15 26  1  0
M  RAD  1   1   2
M  END
>  <reaction>  (15) 
rmg_rxn_15616

>  <mol_properties>  (15) 
{"0": {"label": "*1", "atom_type": "Cs"}, "1": {"label": "*0", "atom_type": "O2s"}, "4": {"label": "*2", "atom_type": "H0"}, "9": {"label": "*3", "atom_type": "Cs"}, "10": {"label": "*4", "atom_type": "Cs"}}

>  <type>  (15) 
unop_11

>  <geom_source>  (15) 
Heuristics

$$$$

     RDKit          3D

 26 24  0  0  0  0  0  0  0  0999 V2000
    1.4015   -0.0684   -1.2675 C   0  0  0  0  0  3  0  0  0  0  0  0
    2.5850   -0.3635   -0.6191 O   0  0  0  0  0  0  0  0  0  0  0  0
    2.6057   -0.8797    0.6298 N   0  0  0  0  0  0  0  0  0  0  0  0
    1.5545   -1.0311    1.3170 C   0  0  0  0  0  0  0  0  0  0  0  0
    0.8884    1.0992   -0.8160 H   0  0  0  0  0  0  0  0  0  0  0  0
    0.6002   -0.7881   -1.1208 H   0  0  0  0  0  0  0  0  0  0  0  0
    1.6448    0.1122   -2.3086 H   0  0  0  0  0  0  0  0  0  0  0  0
    1.7035   -1.4648    2.2912 H   0  0  0  0  0  0  0  0  0  0  0  0
    0.5447   -0.7605    1.0268 H   0  0  0  0  0  0  0  0  0  0  0  0
    0.4487    2.2599   -0.4440 C   0  0  0  0  0  0  0  0  0  0  0  0
   -0.5603    2.1092    0.6677 C   0  0  0  0  0  0  0  0  0  0  0  0
   -1.7937    1.3102    0.2535 C   0  0  0  0  0  0  0  0  0  0  0  0
   -1.4595   -0.0543    0.1384 O   0  0  0  0  0  0  0  0  0  0  0  0
   -2.5518   -0.8681   -0.2242 C   0  0  0  0  0  0  0  0  0  0  0  0
   -2.0905   -2.3151   -0.2964 C   0  0  0  0  0  0  0  0  0  0  0  0
    0.0216    2.6956   -1.3414 H   0  0  0  0  0  0  0  0  0  0  0  0
    1.3315    2.8054   -0.1285 H   0  0  0  0  0  0  0  0  0  0  0  0
   -0.9003    3.0991    0.9935 H   0  0  0  0  0  0  0  0  0  0  0  0
   -0.0999    1.6189    1.5277 H   0  0  0  0  0  0  0  0  0  0  0  0
   -2.1829    1.6818   -0.7078 H   0  0  0  0  0  0  0  0  0  0  0  0
   -2.5889    1.4291    1.0077 H   0  0  0  0  0  0  0  0  0  0  0  0
   -3.3563   -0.7622    0.5215 H   0  0  0  0  0  0  0  0  0  0  0  0
   -2.9510   -0.5430   -1.1983 H   0  0  0  0  0  0  0  0  0  0  0  0
   -2.9320   -2.9585   -0.5368 H   0  0  0  0  0  0  0  0  0  0  0  0
   -1.3288   -2.4306   -1.0632 H   0  0  0  0  0  0  0  0  0  0  0  0
   -1.6712   -2.6194    0.6590 H   0  0  0  0  0  0  0  0  0  0  0  0
  1  2  1  0
  1  6  1  0
  1  7  1  0
  2  3  1  0
  3  4  2  3
  4  8  1  0
  4  9  1  0
  5 10  1  0
 10 11  1  0
 10 16  1  0
 10 17  1  0
 11 12  1  0
 11 18  1  0
 11 19  1  0
 12 13  1  0
 12 20  1  0
 12 21  1  0
 13 14  1  0
 14 15  1  0
 14 22  1  0
 14 23  1  0
 15 24  1  0
 15 25  1  0
 15 26  1  0
M  RAD  1   1   2
M  END
>  <reaction>  (16) 
rmg_rxn_15616

>  <mol_properties>  (16) 
{"0": {"label": "*1", "atom_type": "Cs"}, "1": {"label": "*0", "atom_type": "O2s"}, "4": {"label": "*2", "atom_type": "H0"}, "9": {"label": "*3", "atom_type": "Cs"}, "10": {"label": "*4", "atom_type": "Cs"}}

>  <type>  (16) 
unop_12

>  <geom_source>  (16) 
Heuristics

$$$$

     RDKit          3D

 26 24  0  0  0  0  0  0  0  0999 V2000
   -1.4000    0.0735    1.2676 C   0  0  0  0  0  3  0  0  0  0  0  0
   -2.5849    0.3634    0.6192 O   0  0  0  0  0  0  0  0  0  0  0  0
   -2.6080    0.8743   -0.6317 N   0  0  0  0  0  0  0  0  0  0  0  0
   -1.5580    1.0256   -1.3208 C   0  0  0  0  0  0  0  0  0  0  0  0
   -0.8853   -1.0952    0.8205 H   0  0  0  0  0  0  0  0  0  0  0  0
   -1.6417   -0.1031    2.3097 H   0  0  0  0  0  0  0  0  0  0  0  0
   -0.6002    0.7940    1.1166 H   0  0  0  0  0  0  0  0  0  0  0  0
   -1.7093    1.4548   -2.2965 H   0  0  0  0  0  0  0  0  0  0  0  0
   -0.5471    0.7588   -1.0304 H   0  0  0  0  0  0  0  0  0  0  0  0
   -0.4441   -2.2566    0.4529 C   0  0  0  0  0  0  0  0  0  0  0  0
    0.5594   -2.1095   -0.6642 C   0  0  0  0  0  0  0  0  0  0  0  0
    1.7947   -1.3090   -0.2590 C   0  0  0  0  0  0  0  0  0  0  0  0
    1.4587    0.0544   -0.1364 O   0  0  0  0  0  0  0  0  0  0  0  0
    2.5535    0.8696    0.2155 C   0  0  0  0  0  0  0  0  0  0  0  0
    2.0887    2.3147    0.3018 C   0  0  0  0  0  0  0  0  0  0  0  0
   -1.3270   -2.8059    0.1444 H   0  0  0  0  0  0  0  0  0  0  0  0
   -0.0118   -2.6865    1.3506 H   0  0  0  0  0  0  0  0  0  0  0  0
    0.0943   -1.6226   -1.5238 H   0  0  0  0  0  0  0  0  0  0  0  0
    0.8984   -3.1004   -0.9882 H   0  0  0  0  0  0  0  0  0  0  0  0
    2.5830   -1.4240   -1.0210 H   0  0  0  0  0  0  0  0  0  0  0  0
    2.1935   -1.6829    0.6975 H   0  0  0  0  0  0  0  0  0  0  0  0
    2.9671    0.5407    1.1826 H   0  0  0  0  0  0  0  0  0  0  0  0
    3.3481    0.7699   -0.5417 H   0  0  0  0  0  0  0  0  0  0  0  0
    1.3376    2.4238    1.0801 H   0  0  0  0  0  0  0  0  0  0  0  0
    2.9316    2.9595    0.5336 H   0  0  0  0  0  0  0  0  0  0  0  0
    1.6549    2.6227   -0.6460 H   0  0  0  0  0  0  0  0  0  0  0  0
  1  2  1  0
  1  6  1  0
  1  7  1  0
  2  3  1  0
  3  4  2  3
  4  8  1  0
  4  9  1  0
  5 10  1  0
 10 11  1  0
 10 16  1  0
 10 17  1  0
 11 12  1  0
 11 18  1  0
 11 19  1  0
 12 13  1  0
 12 20  1  0
 12 21  1  0
 13 14  1  0
 14 15  1  0
 14 22  1  0
 14 23  1  0
 15 24  1  0
 15 25  1  0
 15 26  1  0
M  RAD  1   1   2
M  END
>  <reaction>  (17) 
rmg_rxn_15616

>  <mol_properties>  (17) 
{"0": {"label": "*1", "atom_type": "Cs"}, "1": {"label": "*0", "atom_type": "O2s"}, "4": {"label": "*2", "atom_type": "H0"}, "9": {"label": "*3", "atom_type": "Cs"}, "10": {"label": "*4", "atom_type": "Cs"}}

>  <type>  (17) 
unop_13

>  <geom_source>  (17) 
Heuristics

$$$$

     RDKit          3D

 26 24  0  0  0  0  0  0  0  0999 V2000
   -1.2910    1.8053   -1.1679 C   0  0  0  0  0  3  0  0  0  0  0  0
   -1.2910    1.8633   -2.5808 O   0  0  0  0  0  0  0  0  0  0  0  0
   -1.2910    0.5894   -3.0965 N   0  0  0  0  0  0  0  0  0  0  0  0
   -1.2910    0.5894   -4.3601 C   0  0  0  0  0  0  0  0  0  0  0  0
   -0.2204    1.1932   -0.7238 H   0  0  0  0  0  0  0  0  0  0  0  0
   -2.1831    1.2951   -0.7977 H   0  0  0  0  0  0  0  0  0  0  0  0
   -1.2910    2.8402   -0.8301 H   0  0  0  0  0  0  0  0  0  0  0  0
   -1.2910   -0.3777   -4.8449 H   0  0  0  0  0  0  0  0  0  0  0  0
   -1.2910    1.5059   -4.9463 H   0  0  0  0  0  0  0  0  0  0  0  0
    0.8489    0.5817   -0.2802 C   0  0  0  0  0  0  0  0  0  0  0  0
    0.6077   -0.9159   -0.1453 C   0  0  0  0  0  0  0  0  0  0  0  0
    1.2530   -1.5144    1.0878 C   0  0  0  0  0  0  0  0  0  0  0  0
    0.6788   -0.9446    2.2370 O   0  0  0  0  0  0  0  0  0  0  0  0
    1.2436   -1.4169    3.4334 C   0  0  0  0  0  0  0  0  0  0  0  0
    0.5581   -0.7431    4.5994 C   0  0  0  0  0  0  0  0  0  0  0  0
    0.4458    1.1166    0.5797 H   0  0  0  0  0  0  0  0  0  0  0  0
    1.9180    0.8003   -0.3407 H   0  0  0  0  0  0  0  0  0  0  0  0
    1.0024   -1.4408   -1.0197 H   0  0  0  0  0  0  0  0  0  0  0  0
   -0.4653   -1.1215   -0.1101 H   0  0  0  0  0  0  0  0  0  0  0  0
    2.3379   -1.3236    1.0769 H   0  0  0  0  0  0  0  0  0  0  0  0
    1.1131   -2.6053    1.1000 H   0  0  0  0  0  0  0  0  0  0  0  0
    1.1272   -2.5090    3.4978 H   0  0  0  0  0  0  0  0  0  0  0  0
    2.3230   -1.2052    3.4474 H   0  0  0  0  0  0  0  0  0  0  0  0
   -0.5099   -0.9637    4.5943 H   0  0  0  0  0  0  0  0  0  0  0  0
    0.9808   -1.0955    5.5416 H   0  0  0  0  0  0  0  0  0  0  0  0
    0.6862    0.3386    4.5449 H   0  0  0  0  0  0  0  0  0  0  0  0
  1  2  1  0
  1  6  1  0
  1  7  1  0
  2  3  1  0
  3  4  2  3
  4  8  1  0
  4  9  1  0
  5 10  1  0
 10 11  1  0
 10 16  1  0
 10 17  1  0
 11 12  1  0
 11 18  1  0
 11 19  1  0
 12 13  1  0
 12 20  1  0
 12 21  1  0
 13 14  1  0
 14 15  1  0
 14 22  1  0
 14 23  1  0
 15 24  1  0
 15 25  1  0
 15 26  1  0
M  RAD  1   1   2
M  END
>  <reaction>  (18) 
rmg_rxn_15616

>  <mol_properties>  (18) 
{"0": {"label": "*1", "atom_type": "Cs"}, "1": {"label": "*0", "atom_type": "O2s"}, "4": {"label": "*2", "atom_type": "H0"}, "9": {"label": "*3", "atom_type": "Cs"}, "10": {"label": "*4", "atom_type": "Cs"}}

>  <type>  (18) 
unop_14

>  <geom_source>  (18) 
Heuristics

$$$$

     RDKit          3D

 26 24  0  0  0  0  0  0  0  0999 V2000
   -1.3968   -0.0749   -1.2672 C   0  0  0  0  0  3  0  0  0  0  0  0
   -2.5835   -0.3652   -0.6225 O   0  0  0  0  0  0  0  0  0  0  0  0
   -2.6102   -0.8738    0.6293 N   0  0  0  0  0  0  0  0  0  0  0  0
   -1.5622   -1.0223    1.3221 C   0  0  0  0  0  0  0  0  0  0  0  0
   -0.8848    1.0948   -0.8197 H   0  0  0  0  0  0  0  0  0  0  0  0
   -1.6352    0.1001   -2.3104 H   0  0  0  0  0  0  0  0  0  0  0  0
   -0.5968   -0.7944   -1.1126 H   0  0  0  0  0  0  0  0  0  0  0  0
   -1.7160   -1.4498    2.2982 H   0  0  0  0  0  0  0  0  0  0  0  0
   -0.5506   -0.7552    1.0344 H   0  0  0  0  0  0  0  0  0  0  0  0
   -0.4455    2.2566   -0.4511 C   0  0  0  0  0  0  0  0  0  0  0  0
    0.5602    2.1097    0.6641 C   0  0  0  0  0  0  0  0  0  0  0  0
    1.7946    1.3094    0.2560 C   0  0  0  0  0  0  0  0  0  0  0  0
    1.4600   -0.0550    0.1406 O   0  0  0  0  0  0  0  0  0  0  0  0
    2.5527   -0.8690   -0.2200 C   0  0  0  0  0  0  0  0  0  0  0  0
    2.0905   -2.3156   -0.2964 C   0  0  0  0  0  0  0  0  0  0  0  0
   -1.3289    2.8037   -0.1403 H   0  0  0  0  0  0  0  0  0  0  0  0
   -0.0156    2.6886   -1.3489 H   0  0  0  0  0  0  0  0  0  0  0  0
    0.0972    1.6223    1.5245 H   0  0  0  0  0  0  0  0  0  0  0  0
    0.8994    3.1006    0.9876 H   0  0  0  0  0  0  0  0  0  0  0  0
    2.5867    1.4285    1.0133 H   0  0  0  0  0  0  0  0  0  0  0  0
    2.1880    1.6798   -0.7041 H   0  0  0  0  0  0  0  0  0  0  0  0
    2.9552   -0.5424   -1.1924 H   0  0  0  0  0  0  0  0  0  0  0  0
    3.3550   -0.7650    0.5284 H   0  0  0  0  0  0  0  0  0  0  0  0
    1.3325   -2.4296   -1.0671 H   0  0  0  0  0  0  0  0  0  0  0  0
    2.9327   -2.9593   -0.5335 H   0  0  0  0  0  0  0  0  0  0  0  0
    1.6663   -2.6208    0.6566 H   0  0  0  0  0  0  0  0  0  0  0  0
  1  2  1  0
  1  6  1  0
  1  7  1  0
  2  3  1  0
  3  4  2  3
  4  8  1  0
  4  9  1  0
  5 10  1  0
 10 11  1  0
 10 16  1  0
 10 17  1  0
 11 12  1  0
 11 18  1  0
 11 19  1  0
 12 13  1  0
 12 20  1  0
 12 21  1  0
 13 14  1  0
 14 15  1  0
 14 22  1  0
 14 23  1  0
 15 24  1  0
 15 25  1  0
 15 26  1  0
M  RAD  1   1   2
M  END
>  <reaction>  (19) 
rmg_rxn_15616

>  <mol_properties>  (19) 
{"0": {"label": "*1", "atom_type": "Cs"}, "1": {"label": "*0", "atom_type": "O2s"}, "4": {"label": "*2", "atom_type": "H0"}, "9": {"label": "*3", "atom_type": "Cs"}, "10": {"label": "*4", "atom_type": "Cs"}}

>  <type>  (19) 
unop_15

>  <geom_source>  (19) 
Heuristics

$$$$

     RDKit          3D

 26 24  0  0  0  0  0  0  0  0999 V2000
   -1.5292    1.2187   -1.3793 C   0  0  0  0  0  3  0  0  0  0  0  0
   -1.5293    1.2766   -2.7921 O   0  0  0  0  0  0  0  0  0  0  0  0
   -1.5293    0.0028   -3.3079 N   0  0  0  0  0  0  0  0  0  0  0  0
   -1.5293    0.0028   -4.5715 C   0  0  0  0  0  0  0  0  0  0  0  0
   -0.4586    0.6065   -0.9351 H   0  0  0  0  0  0  0  0  0  0  0  0
   -2.4214    0.7085   -1.0091 H   0  0  0  0  0  0  0  0  0  0  0  0
   -1.5293    2.2536   -1.0415 H   0  0  0  0  0  0  0  0  0  0  0  0
   -1.5293   -0.9643   -5.0563 H   0  0  0  0  0  0  0  0  0  0  0  0
   -1.5293    0.9192   -5.1576 H   0  0  0  0  0  0  0  0  0  0  0  0
    0.6106   -0.0049   -0.4916 C   0  0  0  0  0  0  0  0  0  0  0  0
    0.2395   -1.2402    0.3180 C   0  0  0  0  0  0  0  0  0  0  0  0
    1.1122   -1.4351    1.5410 C   0  0  0  0  0  0  0  0  0  0  0  0
    0.9321   -0.3525    2.4189 O   0  0  0  0  0  0  0  0  0  0  0  0
    1.7328   -0.4312    3.5705 C   0  0  0  0  0  0  0  0  0  0  0  0
    1.4628    0.7752    4.4395 C   0  0  0  0  0  0  0  0  0  0  0  0
    0.5141    0.8966    0.1135 H   0  0  0  0  0  0  0  0  0  0  0  0
    1.6440   -0.0649   -0.8423 H   0  0  0  0  0  0  0  0  0  0  0  0
    0.3254   -2.1366   -0.3025 H   0  0  0  0  0  0  0  0  0  0  0  0
   -0.8027   -1.1777    0.6416 H   0  0  0  0  0  0  0  0  0  0  0  0
    2.1704   -1.5040    1.2431 H   0  0  0  0  0  0  0  0  0  0  0  0
    0.8534   -2.3762    2.0480 H   0  0  0  0  0  0  0  0  0  0  0  0
    1.5102   -1.3582    4.1196 H   0  0  0  0  0  0  0  0  0  0  0  0
    2.7948   -0.4706    3.2864 H   0  0  0  0  0  0  0  0  0  0  0  0
    0.4130    0.8074    4.7330 H   0  0  0  0  0  0  0  0  0  0  0  0
    2.0745    0.7354    5.3422 H   0  0  0  0  0  0  0  0  0  0  0  0
    1.6980    1.6941    3.9014 H   0  0  0  0  0  0  0  0  0  0  0  0
  1  2  1  0
  1  6  1  0
  1  7  1  0
  2  3  1  0
  3  4  2  3
  4  8  1  0
  4  9  1  0
  5 10  1  0
 10 11  1  0
 10 16  1  0
 10 17  1  0
 11 12  1  0
 11 18  1  0
 11 19  1  0
 12 13  1  0
 12 20  1  0
 12 21  1  0
 13 14  1  0
 14 15  1  0
 14 22  1  0
 14 23  1  0
 15 24  1  0
 15 25  1  0
 15 26  1  0
M  RAD  1   1   2
M  END
>  <reaction>  (20) 
rmg_rxn_15616

>  <mol_properties>  (20) 
{"0": {"label": "*1", "atom_type": "Cs"}, "1": {"label": "*0", "atom_type": "O2s"}, "4": {"label": "*2", "atom_type": "H0"}, "9": {"label": "*3", "atom_type": "Cs"}, "10": {"label": "*4", "atom_type": "Cs"}}

>  <type>  (20) 
unop_16

>  <geom_source>  (20) 
Heuristics

$$$$

     RDKit          3D

 26 24  0  0  0  0  0  0  0  0999 V2000
   -2.5398   -0.4859   -0.7238 C   0  0  0  0  0  3  0  0  0  0  0  0
   -2.4190    0.5973    0.1242 O   0  0  0  0  0  0  0  0  0  0  0  0
   -1.3251    1.3890   -0.1610 N   0  0  0  0  0  0  0  0  0  0  0  0
   -1.1342    2.3610    0.6252 C   0  0  0  0  0  0  0  0  0  0  0  0
   -1.7677   -1.4936   -0.2599 H   0  0  0  0  0  0  0  0  0  0  0  0
   -2.1809   -0.2951   -1.7317 H   0  0  0  0  0  0  0  0  0  0  0  0
   -3.5623   -0.8424   -0.6749 H   0  0  0  0  0  0  0  0  0  0  0  0
   -0.2904    2.9926    0.4148 H   0  0  0  0  0  0  0  0  0  0  0  0
   -1.7669    2.5877    1.4776 H   0  0  0  0  0  0  0  0  0  0  0  0
   -1.0098   -2.4362    0.2068 C   0  0  0  0  0  0  0  0  0  0  0  0
    0.2877   -1.8262    0.6691 C   0  0  0  0  0  0  0  0  0  0  0  0
    1.0485   -1.1612   -0.4848 C   0  0  0  0  0  0  0  0  0  0  0  0
    2.3375   -0.7228   -0.1054 O   0  0  0  0  0  0  0  0  0  0  0  0
    2.3974    0.5657    0.4681 C   0  0  0  0  0  0  0  0  0  0  0  0
    2.3758    1.6824   -0.5750 C   0  0  0  0  0  0  0  0  0  0  0  0
   -0.8830   -3.1309   -0.6167 H   0  0  0  0  0  0  0  0  0  0  0  0
   -1.5761   -2.8849    1.0154 H   0  0  0  0  0  0  0  0  0  0  0  0
    0.9356   -2.5976    1.1009 H   0  0  0  0  0  0  0  0  0  0  0  0
    0.0915   -1.0908    1.4535 H   0  0  0  0  0  0  0  0  0  0  0  0
    0.4563   -0.3319   -0.8879 H   0  0  0  0  0  0  0  0  0  0  0  0
    1.2134   -1.8950   -1.2798 H   0  0  0  0  0  0  0  0  0  0  0  0
    1.5805    0.7114    1.1871 H   0  0  0  0  0  0  0  0  0  0  0  0
    3.3462    0.5882    1.0121 H   0  0  0  0  0  0  0  0  0  0  0  0
    1.4231    1.7035   -1.0980 H   0  0  0  0  0  0  0  0  0  0  0  0
    2.5300    2.6416   -0.0877 H   0  0  0  0  0  0  0  0  0  0  0  0
    3.1700    1.5225   -1.2995 H   0  0  0  0  0  0  0  0  0  0  0  0
  1  2  1  0
  1  6  1  0
  1  7  1  0
  2  3  1  0
  3  4  2  3
  4  8  1  0
  4  9  1  0
  5 10  1  0
 10 11  1  0
 10 16  1  0
 10 17  1  0
 11 12  1  0
 11 18  1  0
 11 19  1  0
 12 13  1  0
 12 20  1  0
 12 21  1  0
 13 14  1  0
 14 15  1  0
 14 22  1  0
 14 23  1  0
 15 24  1  0
 15 25  1  0
 15 26  1  0
M  RAD  1   1   2
M  END
>  <reaction>  (21) 
rmg_rxn_15616

>  <mol_properties>  (21) 
{"0": {"label": "*1", "atom_type": "Cs"}, "1": {"label": "*0", "atom_type": "O2s"}, "4": {"label": "*2", "atom_type": "H0"}, "9": {"label": "*3", "atom_type": "Cs"}, "10": {"label": "*4", "atom_type": "Cs"}}

>  <type>  (21) 
unop_17

>  <geom_source>  (21) 
Heuristics

$$$$

     RDKit          3D

 26 24  0  0  0  0  0  0  0  0999 V2000
   -2.5734    1.1827   -0.6812 C   0  0  0  0  0  3  0  0  0  0  0  0
   -2.5734    1.2406   -2.0941 O   0  0  0  0  0  0  0  0  0  0  0  0
   -2.5734   -0.0332   -2.6098 N   0  0  0  0  0  0  0  0  0  0  0  0
   -2.5734   -0.0332   -3.8734 C   0  0  0  0  0  0  0  0  0  0  0  0
   -1.5028    0.5706   -0.2371 H   0  0  0  0  0  0  0  0  0  0  0  0
   -3.4655    0.6725   -0.3111 H   0  0  0  0  0  0  0  0  0  0  0  0
   -2.5734    2.2176   -0.3434 H   0  0  0  0  0  0  0  0  0  0  0  0
   -2.5734   -1.0003   -4.3582 H   0  0  0  0  0  0  0  0  0  0  0  0
   -2.5734    0.8832   -4.4596 H   0  0  0  0  0  0  0  0  0  0  0  0
   -0.4335   -0.0409    0.2065 C   0  0  0  0  0  0  0  0  0  0  0  0
    0.7031    0.9448    0.4431 C   0  0  0  0  0  0  0  0  0  0  0  0
    1.5001    0.6450    1.6962 C   0  0  0  0  0  0  0  0  0  0  0  0
    2.1220   -0.6083    1.5638 O   0  0  0  0  0  0  0  0  0  0  0  0
    2.8581   -0.9865    2.6990 C   0  0  0  0  0  0  0  0  0  0  0  0
    3.4803   -2.3412    2.4517 C   0  0  0  0  0  0  0  0  0  0  0  0
   -0.0492   -1.0555    0.1025 H   0  0  0  0  0  0  0  0  0  0  0  0
   -1.1371   -0.0323    1.0428 H   0  0  0  0  0  0  0  0  0  0  0  0
    0.3080    1.9606    0.5310 H   0  0  0  0  0  0  0  0  0  0  0  0
    1.3852    0.9430   -0.4110 H   0  0  0  0  0  0  0  0  0  0  0  0
    0.8361    0.6429    2.5750 H   0  0  0  0  0  0  0  0  0  0  0  0
    2.2584    1.4244    1.8612 H   0  0  0  0  0  0  0  0  0  0  0  0
    3.6369   -0.2381    2.9077 H   0  0  0  0  0  0  0  0  0  0  0  0
    2.1986   -1.0211    3.5788 H   0  0  0  0  0  0  0  0  0  0  0  0
    4.1450   -2.3045    1.5879 H   0  0  0  0  0  0  0  0  0  0  0  0
    4.0587   -2.6561    3.3216 H   0  0  0  0  0  0  0  0  0  0  0  0
    2.7081   -3.0872    2.2601 H   0  0  0  0  0  0  0  0  0  0  0  0
  1  2  1  0
  1  6  1  0
  1  7  1  0
  2  3  1  0
  3  4  2  3
  4  8  1  0
  4  9  1  0
  5 10  1  0
 10 11  1  0
 10 16  1  0
 10 17  1  0
 11 12  1  0
 11 18  1  0
 11 19  1  0
 12 13  1  0
 12 20  1  0
 12 21  1  0
 13 14  1  0
 14 15  1  0
 14 22  1  0
 14 23  1  0
 15 24  1  0
 15 25  1  0
 15 26  1  0
M  RAD  1   1   2
M  END
>  <reaction>  (22) 
rmg_rxn_15616

>  <mol_properties>  (22) 
{"0": {"label": "*1", "atom_type": "Cs"}, "1": {"label": "*0", "atom_type": "O2s"}, "4": {"label": "*2", "atom_type": "H0"}, "9": {"label": "*3", "atom_type": "Cs"}, "10": {"label": "*4", "atom_type": "Cs"}}

>  <type>  (22) 
unop_18

>  <geom_source>  (22) 
Heuristics

$$$$

     RDKit          3D

 26 24  0  0  0  0  0  0  0  0999 V2000
   -1.2972    0.0533    1.2262 C   0  0  0  0  0  3  0  0  0  0  0  0
   -2.5777    0.1914    0.7256 O   0  0  0  0  0  0  0  0  0  0  0  0
   -2.8046    0.6213   -0.5363 N   0  0  0  0  0  0  0  0  0  0  0  0
   -1.8675    0.8359   -1.3580 C   0  0  0  0  0  0  0  0  0  0  0  0
   -0.7321   -1.0746    0.7371 H   0  0  0  0  0  0  0  0  0  0  0  0
   -1.3868   -0.1033    2.2954 H   0  0  0  0  0  0  0  0  0  0  0  0
   -0.6102    0.8506    0.9541 H   0  0  0  0  0  0  0  0  0  0  0  0
   -2.1809    1.1877   -2.3260 H   0  0  0  0  0  0  0  0  0  0  0  0
   -0.8046    0.6967   -1.1884 H   0  0  0  0  0  0  0  0  0  0  0  0
   -0.2537   -2.1946    0.2938 C   0  0  0  0  0  0  0  0  0  0  0  0
    1.2430   -2.0858    0.1356 C   0  0  0  0  0  0  0  0  0  0  0  0
    1.6566   -1.0386   -0.9055 C   0  0  0  0  0  0  0  0  0  0  0  0
    1.3928    0.2956   -0.5354 O   0  0  0  0  0  0  0  0  0  0  0  0
    2.2971    0.8499    0.3979 C   0  0  0  0  0  0  0  0  0  0  0  0
    2.0871    2.3561    0.4436 C   0  0  0  0  0  0  0  0  0  0  0  0
   -0.7622   -2.3769   -0.6475 H   0  0  0  0  0  0  0  0  0  0  0  0
   -0.5414   -2.9293    1.0381 H   0  0  0  0  0  0  0  0  0  0  0  0
    1.6500   -3.0487   -0.1945 H   0  0  0  0  0  0  0  0  0  0  0  0
    1.7052   -1.8513    1.0972 H   0  0  0  0  0  0  0  0  0  0  0  0
    1.0866   -1.1971   -1.8261 H   0  0  0  0  0  0  0  0  0  0  0  0
    2.7275   -1.1514   -1.1340 H   0  0  0  0  0  0  0  0  0  0  0  0
    2.1369    0.4175    1.3968 H   0  0  0  0  0  0  0  0  0  0  0  0
    3.3291    0.6230    0.0890 H   0  0  0  0  0  0  0  0  0  0  0  0
    1.0772    2.5892    0.7705 H   0  0  0  0  0  0  0  0  0  0  0  0
    2.7935    2.8063    1.1352 H   0  0  0  0  0  0  0  0  0  0  0  0
    2.2343    2.7805   -0.5458 H   0  0  0  0  0  0  0  0  0  0  0  0
  1  2  1  0
  1  6  1  0
  1  7  1  0
  2  3  1  0
  3  4  2  3
  4  8  1  0
  4  9  1  0
  5 10  1  0
 10 11  1  0
 10 16  1  0
 10 17  1  0
 11 12  1  0
 11 18  1  0
 11 19  1  0
 12 13  1  0
 12 20  1  0
 12 21  1  0
 13 14  1  0
 14 15  1  0
 14 22  1  0
 14 23  1  0
 15 24  1  0
 15 25  1  0
 15 26  1  0
M  RAD  1   1   2
M  END
>  <reaction>  (23) 
rmg_rxn_15616

>  <mol_properties>  (23) 
{"0": {"label": "*1", "atom_type": "Cs"}, "1": {"label": "*0", "atom_type": "O2s"}, "4": {"label": "*2", "atom_type": "H0"}, "9": {"label": "*3", "atom_type": "Cs"}, "10": {"label": "*4", "atom_type": "Cs"}}

>  <type>  (23) 
unop_19

>  <geom_source>  (23) 
Heuristics

$$$$

     RDKit          3D

 26 24  0  0  0  0  0  0  0  0999 V2000
   -1.7816    2.3810   -0.1765 C   0  0  0  0  0  3  0  0  0  0  0  0
   -1.7817    2.4389   -1.5894 O   0  0  0  0  0  0  0  0  0  0  0  0
   -1.7817    1.1650   -2.1051 N   0  0  0  0  0  0  0  0  0  0  0  0
   -1.7817    1.1650   -3.3687 C   0  0  0  0  0  0  0  0  0  0  0  0
   -0.7111    1.7688    0.2676 H   0  0  0  0  0  0  0  0  0  0  0  0
   -2.6738    1.8708    0.1936 H   0  0  0  0  0  0  0  0  0  0  0  0
   -1.7817    3.4159    0.1613 H   0  0  0  0  0  0  0  0  0  0  0  0
   -1.7817    0.1979   -3.8536 H   0  0  0  0  0  0  0  0  0  0  0  0
   -1.7817    2.0815   -3.9549 H   0  0  0  0  0  0  0  0  0  0  0  0
    0.3582    1.1574    0.7112 C   0  0  0  0  0  0  0  0  0  0  0  0
    0.8464    0.1144   -0.2854 C   0  0  0  0  0  0  0  0  0  0  0  0
    1.7898   -0.8998    0.3281 C   0  0  0  0  0  0  0  0  0  0  0  0
    1.1100   -1.6283    1.3192 O   0  0  0  0  0  0  0  0  0  0  0  0
    1.9212   -2.5727    1.9701 C   0  0  0  0  0  0  0  0  0  0  0  0
    1.0964   -3.2945    3.0103 C   0  0  0  0  0  0  0  0  0  0  0  0
   -0.1770    0.6840    1.5343 H   0  0  0  0  0  0  0  0  0  0  0  0
    1.1975    1.7158    1.1333 H   0  0  0  0  0  0  0  0  0  0  0  0
    1.3685    0.6010   -1.1139 H   0  0  0  0  0  0  0  0  0  0  0  0
   -0.0043   -0.4194   -0.7169 H   0  0  0  0  0  0  0  0  0  0  0  0
    2.6598   -0.3882    0.7695 H   0  0  0  0  0  0  0  0  0  0  0  0
    2.1702   -1.5833   -0.4452 H   0  0  0  0  0  0  0  0  0  0  0  0
    2.3271   -3.2867    1.2380 H   0  0  0  0  0  0  0  0  0  0  0  0
    2.7786   -2.0693    2.4407 H   0  0  0  0  0  0  0  0  0  0  0  0
    0.2538   -3.8054    2.5429 H   0  0  0  0  0  0  0  0  0  0  0  0
    1.7066   -4.0351    3.5296 H   0  0  0  0  0  0  0  0  0  0  0  0
    0.7064   -2.5895    3.7454 H   0  0  0  0  0  0  0  0  0  0  0  0
  1  2  1  0
  1  6  1  0
  1  7  1  0
  2  3  1  0
  3  4  2  3
  4  8  1  0
  4  9  1  0
  5 10  1  0
 10 11  1  0
 10 16  1  0
 10 17  1  0
 11 12  1  0
 11 18  1  0
 11 19  1  0
 12 13  1  0
 12 20  1  0
 12 21  1  0
 13 14  1  0
 14 15  1  0
 14 22  1  0
 14 23  1  0
 15 24  1  0
 15 25  1  0
 15 26  1  0
M  RAD  1   1   2
M  END
>  <reaction>  (24) 
rmg_rxn_15616

>  <mol_properties>  (24) 
{"0": {"label": "*1", "atom_type": "Cs"}, "1": {"label": "*0", "atom_type": "O2s"}, "4": {"label": "*2", "atom_type": "H0"}, "9": {"label": "*3", "atom_type": "Cs"}, "10": {"label": "*4", "atom_type": "Cs"}}

>  <type>  (24) 
unop_20

>  <geom_source>  (24) 
Heuristics

$$$$

     RDKit          3D

 26 24  0  0  0  0  0  0  0  0999 V2000
   -2.7263    1.2450   -0.3123 C   0  0  0  0  0  3  0  0  0  0  0  0
   -2.7263    1.3029   -1.7252 O   0  0  0  0  0  0  0  0  0  0  0  0
   -2.7263    0.0291   -2.2410 N   0  0  0  0  0  0  0  0  0  0  0  0
   -2.7263    0.0291   -3.5046 C   0  0  0  0  0  0  0  0  0  0  0  0
   -1.6557    0.6328    0.1318 H   0  0  0  0  0  0  0  0  0  0  0  0
   -3.6184    0.7348    0.0578 H   0  0  0  0  0  0  0  0  0  0  0  0
   -2.7263    2.2799    0.0255 H   0  0  0  0  0  0  0  0  0  0  0  0
   -2.7263   -0.9380   -3.9894 H   0  0  0  0  0  0  0  0  0  0  0  0
   -2.7263    0.9455   -4.0907 H   0  0  0  0  0  0  0  0  0  0  0  0
   -0.5864    0.0214    0.5754 C   0  0  0  0  0  0  0  0  0  0  0  0
    0.6801    0.7448    0.1372 C   0  0  0  0  0  0  0  0  0  0  0  0
    1.8093    0.6291    1.1406 C   0  0  0  0  0  0  0  0  0  0  0  0
    2.1821   -0.7198    1.2687 O   0  0  0  0  0  0  0  0  0  0  0  0
    3.2043   -0.9273    2.2097 C   0  0  0  0  0  0  0  0  0  0  0  0
    3.5253   -2.4028    2.2685 C   0  0  0  0  0  0  0  0  0  0  0  0
   -0.3946   -1.0424    0.7154 H   0  0  0  0  0  0  0  0  0  0  0  0
   -0.9571    0.4233    1.5217 H   0  0  0  0  0  0  0  0  0  0  0  0
    0.4729    1.8077   -0.0147 H   0  0  0  0  0  0  0  0  0  0  0  0
    1.0256    0.3493   -0.8214 H   0  0  0  0  0  0  0  0  0  0  0  0
    1.4886    1.0238    2.1177 H   0  0  0  0  0  0  0  0  0  0  0  0
    2.6725    1.2274    0.8137 H   0  0  0  0  0  0  0  0  0  0  0  0
    4.0974   -0.3505    1.9267 H   0  0  0  0  0  0  0  0  0  0  0  0
    2.8840   -0.5638    3.1973 H   0  0  0  0  0  0  0  0  0  0  0  0
    3.8563   -2.7610    1.2931 H   0  0  0  0  0  0  0  0  0  0  0  0
    4.3189   -2.5884    2.9940 H   0  0  0  0  0  0  0  0  0  0  0  0
    2.6446   -2.9739    2.5642 H   0  0  0  0  0  0  0  0  0  0  0  0
  1  2  1  0
  1  6  1  0
  1  7  1  0
  2  3  1  0
  3  4  2  3
  4  8  1  0
  4  9  1  0
  5 10  1  0
 10 11  1  0
 10 16  1  0
 10 17  1  0
 11 12  1  0
 11 18  1  0
 11 19  1  0
 12 13  1  0
 12 20  1  0
 12 21  1  0
 13 14  1  0
 14 15  1  0
 14 22  1  0
 14 23  1  0
 15 24  1  0
 15 25  1  0
 15 26  1  0
M  RAD  1   1   2
M  END
>  <reaction>  (25) 
rmg_rxn_15616

>  <mol_properties>  (25) 
{"0": {"label": "*1", "atom_type": "Cs"}, "1": {"label": "*0", "atom_type": "O2s"}, "4": {"label": "*2", "atom_type": "H0"}, "9": {"label": "*3", "atom_type": "Cs"}, "10": {"label": "*4", "atom_type": "Cs"}}

>  <type>  (25) 
unop_21

>  <geom_source>  (25) 
Heuristics

$$$$

     RDKit          3D

 26 24  0  0  0  0  0  0  0  0999 V2000
   -2.0471    0.8310   -1.2101 C   0  0  0  0  0  3  0  0  0  0  0  0
   -2.0471    0.8889   -2.6230 O   0  0  0  0  0  0  0  0  0  0  0  0
   -2.0471   -0.3850   -3.1387 N   0  0  0  0  0  0  0  0  0  0  0  0
   -2.0471   -0.3850   -4.4023 C   0  0  0  0  0  0  0  0  0  0  0  0
   -0.9765    0.2188   -0.7660 H   0  0  0  0  0  0  0  0  0  0  0  0
   -2.9392    0.3208   -0.8400 H   0  0  0  0  0  0  0  0  0  0  0  0
   -2.0471    1.8659   -0.8723 H   0  0  0  0  0  0  0  0  0  0  0  0
   -2.0471   -1.3521   -4.8871 H   0  0  0  0  0  0  0  0  0  0  0  0
   -2.0471    0.5315   -4.9885 H   0  0  0  0  0  0  0  0  0  0  0  0
    0.0927   -0.3927   -0.3224 C   0  0  0  0  0  0  0  0  0  0  0  0
   -0.1889   -1.1033    0.9948 C   0  0  0  0  0  0  0  0  0  0  0  0
    1.0352   -1.2261    1.8789 C   0  0  0  0  0  0  0  0  0  0  0  0
    1.4786    0.0574    2.2411 O   0  0  0  0  0  0  0  0  0  0  0  0
    2.6366    0.0418    3.0364 C   0  0  0  0  0  0  0  0  0  0  0  0
    3.0250    1.4645    3.3658 C   0  0  0  0  0  0  0  0  0  0  0  0
    0.4582    0.6188   -0.1449 H   0  0  0  0  0  0  0  0  0  0  0  0
    0.8515   -0.9275   -0.8992 H   0  0  0  0  0  0  0  0  0  0  0  0
   -0.5689   -2.1110    0.8049 H   0  0  0  0  0  0  0  0  0  0  0  0
   -0.9659   -0.5712    1.5496 H   0  0  0  0  0  0  0  0  0  0  0  0
    1.8354   -1.7620    1.3442 H   0  0  0  0  0  0  0  0  0  0  0  0
    0.7973   -1.8091    2.7807 H   0  0  0  0  0  0  0  0  0  0  0  0
    2.4510   -0.5293    3.9582 H   0  0  0  0  0  0  0  0  0  0  0  0
    3.4524   -0.4652    2.5004 H   0  0  0  0  0  0  0  0  0  0  0  0
    2.2221    1.9637    3.9094 H   0  0  0  0  0  0  0  0  0  0  0  0
    3.9235    1.4775    3.9847 H   0  0  0  0  0  0  0  0  0  0  0  0
    3.2244    2.0273    2.4532 H   0  0  0  0  0  0  0  0  0  0  0  0
  1  2  1  0
  1  6  1  0
  1  7  1  0
  2  3  1  0
  3  4  2  3
  4  8  1  0
  4  9  1  0
  5 10  1  0
 10 11  1  0
 10 16  1  0
 10 17  1  0
 11 12  1  0
 11 18  1  0
 11 19  1  0
 12 13  1  0
 12 20  1  0
 12 21  1  0
 13 14  1  0
 14 15  1  0
 14 22  1  0
 14 23  1  0
 15 24  1  0
 15 25  1  0
 15 26  1  0
M  RAD  1   1   2
M  END
>  <reaction>  (26) 
rmg_rxn_15616

>  <mol_properties>  (26) 
{"0": {"label": "*1", "atom_type": "Cs"}, "1": {"label": "*0", "atom_type": "O2s"}, "4": {"label": "*2", "atom_type": "H0"}, "9": {"label": "*3", "atom_type": "Cs"}, "10": {"label": "*4", "atom_type": "Cs"}}

>  <type>  (26) 
unop_22

>  <geom_source>  (26) 
Heuristics

$$$$

     RDKit          3D

 26 24  0  0  0  0  0  0  0  0999 V2000
   -2.3062    2.1008    0.1242 C   0  0  0  0  0  3  0  0  0  0  0  0
   -2.3062    2.1587   -1.2887 O   0  0  0  0  0  0  0  0  0  0  0  0
   -2.3062    0.8848   -1.8044 N   0  0  0  0  0  0  0  0  0  0  0  0
   -2.3062    0.8848   -3.0681 C   0  0  0  0  0  0  0  0  0  0  0  0
   -1.2356    1.4886    0.5683 H   0  0  0  0  0  0  0  0  0  0  0  0
   -3.1983    1.5906    0.4943 H   0  0  0  0  0  0  0  0  0  0  0  0
   -2.3062    3.1357    0.4620 H   0  0  0  0  0  0  0  0  0  0  0  0
   -2.3062   -0.0823   -3.5529 H   0  0  0  0  0  0  0  0  0  0  0  0
   -2.3062    1.8013   -3.6542 H   0  0  0  0  0  0  0  0  0  0  0  0
   -0.1663    0.8772    1.0119 C   0  0  0  0  0  0  0  0  0  0  0  0
    0.7258    0.4293   -0.1382 C   0  0  0  0  0  0  0  0  0  0  0  0
    1.9830   -0.2785    0.3240 C   0  0  0  0  0  0  0  0  0  0  0  0
    1.6309   -1.4605    0.9979 O   0  0  0  0  0  0  0  0  0  0  0  0
    2.7380   -2.1679    1.4953 C   0  0  0  0  0  0  0  0  0  0  0  0
    2.2494   -3.4132    2.1982 C   0  0  0  0  0  0  0  0  0  0  0  0
   -0.4850    0.0226    1.6086 H   0  0  0  0  0  0  0  0  0  0  0  0
    0.3654    1.5677    1.6713 H   0  0  0  0  0  0  0  0  0  0  0  0
    1.0273    1.2922   -0.7386 H   0  0  0  0  0  0  0  0  0  0  0  0
    0.1740   -0.2412   -0.8021 H   0  0  0  0  0  0  0  0  0  0  0  0
    2.5611    0.3771    0.9944 H   0  0  0  0  0  0  0  0  0  0  0  0
    2.6259   -0.5147   -0.5366 H   0  0  0  0  0  0  0  0  0  0  0  0
    3.4155   -2.4330    0.6701 H   0  0  0  0  0  0  0  0  0  0  0  0
    3.3073   -1.5327    2.1899 H   0  0  0  0  0  0  0  0  0  0  0  0
    1.6967   -4.0502    1.5068 H   0  0  0  0  0  0  0  0  0  0  0  0
    3.0937   -3.9803    2.5932 H   0  0  0  0  0  0  0  0  0  0  0  0
    1.5900   -3.1508    3.0263 H   0  0  0  0  0  0  0  0  0  0  0  0
  1  2  1  0
  1  6  1  0
  1  7  1  0
  2  3  1  0
  3  4  2  3
  4  8  1  0
  4  9  1  0
  5 10  1  0
 10 11  1  0
 10 16  1  0
 10 17  1  0
 11 12  1  0
 11 18  1  0
 11 19  1  0
 12 13  1  0
 12 20  1  0
 12 21  1  0
 13 14  1  0
 14 15  1  0
 14 22  1  0
 14 23  1  0
 15 24  1  0
 15 25  1  0
 15 26  1  0
M  RAD  1   1   2
M  END
>  <reaction>  (27) 
rmg_rxn_15616

>  <mol_properties>  (27) 
{"0": {"label": "*1", "atom_type": "Cs"}, "1": {"label": "*0", "atom_type": "O2s"}, "4": {"label": "*2", "atom_type": "H0"}, "9": {"label": "*3", "atom_type": "Cs"}, "10": {"label": "*4", "atom_type": "Cs"}}

>  <type>  (27) 
unop_23

>  <geom_source>  (27) 
Heuristics

$$$$

     RDKit          3D

 26 24  0  0  0  0  0  0  0  0999 V2000
   -1.5354   -0.2221   -1.7454 C   0  0  0  0  0  3  0  0  0  0  0  0
   -2.4606   -0.3698   -0.7917 O   0  0  0  0  0  0  0  0  0  0  0  0
   -2.0475   -0.0407    0.4761 N   0  0  0  0  0  0  0  0  0  0  0  0
   -2.9164   -0.1965    1.3954 C   0  0  0  0  0  0  0  0  0  0  0  0
    0.1402   -1.3400    0.6535 H   0  0  0  0  0  0  0  0  0  0  0  0
   -0.5498    0.1289   -1.5047 H   0  0  0  0  0  0  0  0  0  0  0  0
   -1.8811   -0.4715   -2.7269 H   0  0  0  0  0  0  0  0  0  0  0  0
   -2.6063    0.0579    2.3919 H   0  0  0  0  0  0  0  0  0  0  0  0
   -3.9232   -0.5627    1.2262 H   0  0  0  0  0  0  0  0  0  0  0  0
    0.9476   -2.0703    0.5743 C   0  0  0  0  0  0  0  0  0  0  0  0
    2.3201   -1.4283    0.5223 C   0  0  0  0  0  0  0  0  0  0  0  0
    2.4185   -0.3859   -0.5979 C   0  0  0  0  0  0  0  0  0  0  0  0
    1.4115    0.5968   -0.5750 O   0  0  0  0  0  0  0  0  0  0  0  0
    1.5090    1.5345    0.4769 C   0  0  0  0  0  0  0  0  0  0  0  0
    0.3570    2.5179    0.3452 C   0  0  0  0  0  0  0  0  0  0  0  0
    0.6181   -2.4460   -0.3706 H   0  0  0  0  0  0  0  0  0  0  0  0
    0.8658   -2.8215    1.3495 H   0  0  0  0  0  0  0  0  0  0  0  0
    3.0835   -2.1871    0.3377 H   0  0  0  0  0  0  0  0  0  0  0  0
    2.5433   -0.9630    1.4846 H   0  0  0  0  0  0  0  0  0  0  0  0
    2.2969   -0.8816   -1.5656 H   0  0  0  0  0  0  0  0  0  0  0  0
    3.4112    0.0913   -0.5698 H   0  0  0  0  0  0  0  0  0  0  0  0
    1.4524    1.0312    1.4512 H   0  0  0  0  0  0  0  0  0  0  0  0
    2.4780    2.0568    0.4149 H   0  0  0  0  0  0  0  0  0  0  0  0
    0.4245    3.2743    1.1222 H   0  0  0  0  0  0  0  0  0  0  0  0
    0.3895    3.0005   -0.6279 H   0  0  0  0  0  0  0  0  0  0  0  0
   -0.5849    1.9845    0.4435 H   0  0  0  0  0  0  0  0  0  0  0  0
  1  2  1  0
  1  6  1  0
  1  7  1  0
  2  3  1  0
  3  4  2  3
  4  8  1  0
  4  9  1  0
  5 10  1  0
 10 11  1  0
 10 16  1  0
 10 17  1  0
 11 12  1  0
 11 18  1  0
 11 19  1  0
 12 13  1  0
 12 20  1  0
 12 21  1  0
 13 14  1  0
 14 15  1  0
 14 22  1  0
 14 23  1  0
 15 24  1  0
 15 25  1  0
 15 26  1  0
M  RAD  1   1   2
M  END
>  <reaction>  (28) 
rmg_rxn_15616

>  <mol_properties>  (28) 
{"0": {"label": "*1", "atom_type": "Cs"}, "1": {"label": "*0", "atom_type": "O2s"}, "4": {"label": "*2", "atom_type": "H0"}, "9": {"label": "*3", "atom_type": "Cs"}, "10": {"label": "*4", "atom_type": "Cs"}}

>  <type>  (28) 
unop_24

>  <geom_source>  (28) 
Heuristics

$$$$

     RDKit          3D

 26 24  0  0  0  0  0  0  0  0999 V2000
   -1.7071   -0.2360    0.7053 O   0  0  0  0  0  0  0  0  0  0  0  0
    2.7267    0.9611   -0.4169 O   0  0  0  0  0  0  0  0  0  0  0  0
    4.0587    0.6539   -0.5761 N   0  0  0  0  0  0  0  0  0  0  0  0
   -0.9553   -1.9510   -0.8049 C   0  0  0  0  0  0  0  0  0  0  0  0
   -2.0646   -0.9590   -0.4543 C   0  0  0  0  0  0  0  0  0  0  0  0
   -2.7237    0.6935    1.0128 C   0  0  0  0  0  0  0  0  0  0  0  0
    0.3394   -1.2405   -1.1908 C   0  0  0  0  0  0  0  0  0  0  0  0
   -2.3354    1.4598    2.2678 C   0  0  0  0  0  0  0  0  0  0  0  0
    1.8847    0.1208    0.3544 C   0  0  0  0  0  3  0  0  0  0  0  0
    4.8289    1.4174   -1.2783 C   0  0  0  0  0  0  0  0  0  0  0  0
   -1.2880   -2.5814   -1.6578 H   0  0  0  0  0  0  0  0  0  0  0  0
   -0.7638   -2.6167    0.0643 H   0  0  0  0  0  0  0  0  0  0  0  0
   -2.9981   -1.5401   -0.2759 H   0  0  0  0  0  0  0  0  0  0  0  0
   -2.2245   -0.2764   -1.3210 H   0  0  0  0  0  0  0  0  0  0  0  0
   -3.6904    0.1749    1.2064 H   0  0  0  0  0  0  0  0  0  0  0  0
   -2.8538    1.4264    0.1840 H   0  0  0  0  0  0  0  0  0  0  0  0
    1.1101   -1.9935   -1.4589 H   0  0  0  0  0  0  0  0  0  0  0  0
    0.1710   -0.5777   -2.0662 H   0  0  0  0  0  0  0  0  0  0  0  0
    0.7798   -0.5359   -0.1975 H   0  0  0  0  0  0  0  0  0  0  0  0
   -3.1282    2.1957    2.5194 H   0  0  0  0  0  0  0  0  0  0  0  0
   -1.3802    2.0019    2.1018 H   0  0  0  0  0  0  0  0  0  0  0  0
   -2.2126    0.7573    3.1194 H   0  0  0  0  0  0  0  0  0  0  0  0
    2.2573    0.0676    1.3989 H   0  0  0  0  0  0  0  0  0  0  0  0
    1.8571   -0.8968   -0.0886 H   0  0  0  0  0  0  0  0  0  0  0  0
    4.4380    2.3094   -1.7515 H   0  0  0  0  0  0  0  0  0  0  0  0
    5.8738    1.1653   -1.3959 H   0  0  0  0  0  0  0  0  0  0  0  0
  1  6  1  0
  1  5  1  0
  2  9  1  0
  2  3  1  0
  3 10  2  3
  4  7  1  0
  4  5  1  0
  4 11  1  0
  4 12  1  0
  5 13  1  0
  5 14  1  0
  6  8  1  0
  6 15  1  0
  6 16  1  0
  7 17  1  0
  7 18  1  0
  7 19  1  0
  8 20  1  0
  8 21  1  0
  8 22  1  0
  9 23  1  0
  9 24  1  0
 10 25  1  0
 10 26  1  0
M  RAD  1   9   2
M  END
>  <reaction>  (29) 
rmg_rxn_15616

>  <mol_properties>  (29) 
{"0": {"label": "*1", "atom_type": "Cs"}, "1": {"label": "*0", "atom_type": "O2s"}, "4": {"label": "*2", "atom_type": "H0"}, "9": {"label": "*3", "atom_type": "Cs"}, "10": {"label": "*4", "atom_type": "Cs"}}

>  <type>  (29) 
unop_25

>  <geom_source>  (29) 
AutoTST

$$$$

     RDKit          3D

 26 24  0  0  0  0  0  0  0  0999 V2000
   -2.6690    1.6081    0.0425 C   0  0  0  0  0  3  0  0  0  0  0  0
   -2.6690    1.6660   -1.3704 O   0  0  0  0  0  0  0  0  0  0  0  0
   -2.6690    0.3921   -1.8861 N   0  0  0  0  0  0  0  0  0  0  0  0
   -2.6690    0.3921   -3.1497 C   0  0  0  0  0  0  0  0  0  0  0  0
   -1.5984    0.9959    0.4866 H   0  0  0  0  0  0  0  0  0  0  0  0
   -3.5612    1.0979    0.4126 H   0  0  0  0  0  0  0  0  0  0  0  0
   -2.6691    2.6430    0.3803 H   0  0  0  0  0  0  0  0  0  0  0  0
   -2.6691   -0.5749   -3.6345 H   0  0  0  0  0  0  0  0  0  0  0  0
   -2.6690    1.3086   -3.7359 H   0  0  0  0  0  0  0  0  0  0  0  0
   -0.5292    0.3845    0.9302 C   0  0  0  0  0  0  0  0  0  0  0  0
    0.6479    0.5832   -0.0155 C   0  0  0  0  0  0  0  0  0  0  0  0
    1.9870    0.2944    0.6315 C   0  0  0  0  0  0  0  0  0  0  0  0
    2.0410   -1.0590    1.0063 O   0  0  0  0  0  0  0  0  0  0  0  0
    3.2393   -1.4105    1.6496 C   0  0  0  0  0  0  0  0  0  0  0  0
    3.1919   -2.8777    2.0083 C   0  0  0  0  0  0  0  0  0  0  0  0
   -0.5661   -0.6438    1.2899 H   0  0  0  0  0  0  0  0  0  0  0  0
   -0.4457    1.0415    1.7995 H   0  0  0  0  0  0  0  0  0  0  0  0
    0.6666    1.6134   -0.3817 H   0  0  0  0  0  0  0  0  0  0  0  0
    0.5390   -0.0622   -0.8909 H   0  0  0  0  0  0  0  0  0  0  0  0
    2.1245    0.9344    1.5175 H   0  0  0  0  0  0  0  0  0  0  0  0
    2.8052    0.5231   -0.0671 H   0  0  0  0  0  0  0  0  0  0  0  0
    4.0944   -1.2037    0.9890 H   0  0  0  0  0  0  0  0  0  0  0  0
    3.3732   -0.7979    2.5534 H   0  0  0  0  0  0  0  0  0  0  0  0
    3.0731   -3.4867    1.1114 H   0  0  0  0  0  0  0  0  0  0  0  0
    4.1145   -3.1744    2.5096 H   0  0  0  0  0  0  0  0  0  0  0  0
    2.3537   -3.0810    2.6757 H   0  0  0  0  0  0  0  0  0  0  0  0
  1  2  1  0
  1  6  1  0
  1  7  1  0
  2  3  1  0
  3  4  2  3
  4  8  1  0
  4  9  1  0
  5 10  1  0
 10 11  1  0
 10 16  1  0
 10 17  1  0
 11 12  1  0
 11 18  1  0
 11 19  1  0
 12 13  1  0
 12 20  1  0
 12 21  1  0
 13 14  1  0
 14 15  1  0
 14 22  1  0
 14 23  1  0
 15 24  1  0
 15 25  1  0
 15 26  1  0
M  RAD  1   1   2
M  END
>  <reaction>  (30) 
rmg_rxn_15616

>  <mol_properties>  (30) 
{"0": {"label": "*1", "atom_type": "Cs"}, "1": {"label": "*0", "atom_type": "O2s"}, "4": {"label": "*2", "atom_type": "H0"}, "9": {"label": "*3", "atom_type": "Cs"}, "10": {"label": "*4", "atom_type": "Cs"}}

>  <type>  (30) 
unop_26

>  <geom_source>  (30) 
gaussian_log

$$$$
