
     RDKit          3D

  3  2  0  0  0  0  0  0  0  0999 V2000
   -0.0007    0.6157    0.0000 S   0  0  0  0  0  0  0  0  0  0  0  0
   -0.9686   -0.3090    0.0000 H   0  0  0  0  0  0  0  0  0  0  0  0
    0.9693   -0.3067    0.0000 H   0  0  0  0  0  0  0  0  0  0  0  0
  1  2  1  0
  1  3  1  0
M  END
>  <reaction>  (1) 
rmg_rxn_87

>  <mol_properties>  (1) 
{"0": {"label": "donator", "atom_type": "S2s"}, "1": {"label": "d_hydrogen", "atom_type": "H0"}}

>  <type>  (1) 
r1h

$$$$

     RDKit          3D

 14 13  0  0  0  0  0  0  0  0999 V2000
    2.6194    0.1388   -0.2451 C   0  0  0  0  0  0  0  0  0  0  0  0
    1.2416   -0.4914   -0.3670 C   0  0  0  0  0  0  0  0  0  0  0  0
    0.9567   -1.8675    0.7732 S   0  0  0  0  0  0  0  0  0  0  0  0
    1.9992   -3.0673    0.1320 C   0  0  0  0  0  3  0  0  0  0  0  0
    2.1769   -4.3519    0.8615 C   0  0  0  0  0  0  0  0  0  0  0  0
    3.4009   -0.5920   -0.4552 H   0  0  0  0  0  0  0  0  0  0  0  0
    2.7219    0.9635   -0.9540 H   0  0  0  0  0  0  0  0  0  0  0  0
    2.7821    0.5262    0.7612 H   0  0  0  0  0  0  0  0  0  0  0  0
    1.0587   -0.8507   -1.3815 H   0  0  0  0  0  0  0  0  0  0  0  0
    0.4587    0.2313   -0.1333 H   0  0  0  0  0  0  0  0  0  0  0  0
    2.2677   -2.9922   -0.9152 H   0  0  0  0  0  0  0  0  0  0  0  0
    1.3745   -5.0711    0.6500 H   0  0  0  0  0  0  0  0  0  0  0  0
    3.1173   -4.8269    0.5747 H   0  0  0  0  0  0  0  0  0  0  0  0
    2.1945   -4.1971    1.9428 H   0  0  0  0  0  0  0  0  0  0  0  0
  1  2  1  0
  1  6  1  0
  1  7  1  0
  1  8  1  0
  2  3  1  0
  2  9  1  0
  2 10  1  0
  3  4  1  0
  4  5  1  0
  4 11  1  0
  5 12  1  0
  5 13  1  0
  5 14  1  0
M  RAD  1   4   2
M  END
>  <reaction>  (2) 
rmg_rxn_87

>  <mol_properties>  (2) 
{"3": {"label": "acceptor", "atom_type": "Cs"}}

>  <type>  (2) 
r2

$$$$

     RDKit          3D

 15 14  0  0  0  0  0  0  0  0999 V2000
   -2.0554    0.0723   -0.4910 C   0  0  0  0  0  0  0  0  0  0  0  0
   -0.7461   -0.6266   -0.8178 C   0  0  0  0  0  0  0  0  0  0  0  0
    0.3249    0.2591   -1.9782 S   0  0  0  0  0  0  0  0  0  0  0  0
   -0.7172    0.3642   -3.4551 C   0  0  0  0  0  0  0  0  0  0  0  0
   -1.1375   -0.9737   -4.0409 C   0  0  0  0  0  0  0  0  0  0  0  0
   -2.7005    0.1427   -1.3684 H   0  0  0  0  0  0  0  0  0  0  0  0
   -2.6016   -0.4848    0.2733 H   0  0  0  0  0  0  0  0  0  0  0  0
   -1.8758    1.0825   -0.1213 H   0  0  0  0  0  0  0  0  0  0  0  0
   -0.1320   -0.7246    0.0789 H   0  0  0  0  0  0  0  0  0  0  0  0
   -0.9254   -1.6374   -1.1879 H   0  0  0  0  0  0  0  0  0  0  0  0
   -1.5873    0.9874   -3.2422 H   0  0  0  0  0  0  0  0  0  0  0  0
   -0.1021    0.9161   -4.1678 H   0  0  0  0  0  0  0  0  0  0  0  0
   -1.7876   -1.5224   -3.3574 H   0  0  0  0  0  0  0  0  0  0  0  0
   -0.2676   -1.5962   -4.2534 H   0  0  0  0  0  0  0  0  0  0  0  0
   -1.6916   -0.8229   -4.9700 H   0  0  0  0  0  0  0  0  0  0  0  0
  1  2  1  0
  1  6  1  0
  1  7  1  0
  1  8  1  0
  2  3  1  0
  2  9  1  0
  2 10  1  0
  3  4  1  0
  4  5  1  0
  4 11  1  0
  4 12  1  0
  5 13  1  0
  5 14  1  0
  5 15  1  0
M  END
>  <reaction>  (3) 
rmg_rxn_87

>  <mol_properties>  (3) 
{"0": {"label": "a_hydrogen", "atom_type": "H0"}, "4": {"label": "acceptor", "atom_type": "Cs"}}

>  <type>  (3) 
r2h

$$$$

     RDKit          3D

 17 15  0  0  0  0  0  0  0  0999 V2000
    1.6922   -1.3429   -1.2332 S   0  0  0  0  0  1  0  0  0  0  0  0
    0.8832   -0.8823   -0.0113 H   0  0  0  0  0  0  0  0  0  0  0  0
    0.5805   -1.8954   -1.7372 H   0  0  0  0  0  0  0  0  0  0  0  0
   -1.2009    2.8338    0.1153 C   0  0  0  0  0  0  0  0  0  0  0  0
   -1.1125    1.4775   -0.5667 C   0  0  0  0  0  0  0  0  0  0  0  0
   -1.4160    0.0590    0.5227 S   0  0  0  0  0  0  0  0  0  0  0  0
    0.1718   -0.3507    1.1039 C   0  0  0  0  0  0  0  0  0  0  0  0
    1.1470    0.6900    1.5813 C   0  0  0  0  0  0  0  0  0  0  0  0
   -0.4500    2.9405    0.8975 H   0  0  0  0  0  0  0  0  0  0  0  0
   -1.0445    3.6291   -0.6167 H   0  0  0  0  0  0  0  0  0  0  0  0
   -2.1815    2.9779    0.5699 H   0  0  0  0  0  0  0  0  0  0  0  0
   -0.1464    1.3165   -1.0483 H   0  0  0  0  0  0  0  0  0  0  0  0
   -1.8718    1.3928   -1.3449 H   0  0  0  0  0  0  0  0  0  0  0  0
    0.0910   -1.2304    1.7391 H   0  0  0  0  0  0  0  0  0  0  0  0
    0.7634    1.2119    2.4623 H   0  0  0  0  0  0  0  0  0  0  0  0
    2.0907    0.2128    1.8489 H   0  0  0  0  0  0  0  0  0  0  0  0
    1.3572    1.4298    0.8084 H   0  0  0  0  0  0  0  0  0  0  0  0
  1  3  1  0
  2  7  1  0
  4  5  1  0
  4  9  1  0
  4 10  1  0
  4 11  1  0
  5  6  1  0
  5 12  1  0
  5 13  1  0
  6  7  1  0
  7  8  1  0
  7 14  1  0
  8 15  1  0
  8 16  1  0
  8 17  1  0
M  RAD  1   1   2
M  END
>  <reaction>  (4) 
rmg_rxn_87

>  <mol_properties>  (4) 
{"0": {"label": "*3", "atom_type": "S2s"}, "1": {"label": "*2", "atom_type": "H0"}, "2": {"label": "*4", "atom_type": "H0"}, "5": {"label": "*0", "atom_type": "S2s"}, "6": {"label": "*1", "atom_type": "Cs"}}

>  <type>  (4) 
ts

$$$$

     RDKit          3D

 17 15  0  0  0  0  0  0  0  0999 V2000
    0.4196   -2.7547   -0.8002 S   0  0  0  0  0  1  0  0  0  0  0  0
    0.4196   -1.1502   -0.7231 H   0  0  0  0  0  0  0  0  0  0  0  0
    0.4196   -2.7547   -2.1388 H   0  0  0  0  0  0  0  0  0  0  0  0
    0.5342    1.6371    2.2484 C   0  0  0  0  0  0  0  0  0  0  0  0
   -0.5914    1.9402    1.2733 C   0  0  0  0  0  0  0  0  0  0  0  0
   -1.1035    0.5454    0.2387 S   0  0  0  0  0  0  0  0  0  0  0  0
    0.4196    0.1578   -0.6603 C   0  0  0  0  0  0  0  0  0  0  0  0
    0.9597    1.2853   -1.5243 C   0  0  0  0  0  0  0  0  0  0  0  0
    1.4635    1.4043    1.7258 H   0  0  0  0  0  0  0  0  0  0  0  0
    0.7254    2.5024    2.8869 H   0  0  0  0  0  0  0  0  0  0  0  0
    0.2811    0.7873    2.8833 H   0  0  0  0  0  0  0  0  0  0  0  0
   -0.3385    2.7904    0.6377 H   0  0  0  0  0  0  0  0  0  0  0  0
   -1.5007    2.2106    1.8128 H   0  0  0  0  0  0  0  0  0  0  0  0
    1.1773   -0.1923    0.0427 H   0  0  0  0  0  0  0  0  0  0  0  0
    1.2778    2.1354   -0.9186 H   0  0  0  0  0  0  0  0  0  0  0  0
    1.8283    0.9444   -2.0922 H   0  0  0  0  0  0  0  0  0  0  0  0
    0.2022    1.6349   -2.2266 H   0  0  0  0  0  0  0  0  0  0  0  0
  1  3  1  0
  2  7  1  0
  4  5  1  0
  4  9  1  0
  4 10  1  0
  4 11  1  0
  5  6  1  0
  5 12  1  0
  5 13  1  0
  6  7  1  0
  7  8  1  0
  7 14  1  0
  8 15  1  0
  8 16  1  0
  8 17  1  0
M  RAD  1   1   2
M  END
>  <reaction>  (5) 
rmg_rxn_87

>  <mol_properties>  (5) 
{"0": {"label": "*3", "atom_type": "S2s"}, "1": {"label": "*2", "atom_type": "H0"}, "2": {"label": "*4", "atom_type": "H0"}, "5": {"label": "*0", "atom_type": "S2s"}, "6": {"label": "*1", "atom_type": "Cs"}}

>  <type>  (5) 
unop_1

>  <geom_source>  (5) 
Heuristics

$$$$

     RDKit          3D

 17 15  0  0  0  0  0  0  0  0999 V2000
    0.5203   -2.9016    0.3570 S   0  0  0  0  0  1  0  0  0  0  0  0
    0.5203   -1.2971    0.4341 H   0  0  0  0  0  0  0  0  0  0  0  0
    0.5203   -2.9016   -0.9816 H   0  0  0  0  0  0  0  0  0  0  0  0
   -1.7788    2.3267    0.6119 C   0  0  0  0  0  0  0  0  0  0  0  0
   -0.8690    2.2033   -0.5991 C   0  0  0  0  0  0  0  0  0  0  0  0
   -0.3590    0.5138   -1.0038 S   0  0  0  0  0  0  0  0  0  0  0  0
    0.5203    0.0109    0.4969 C   0  0  0  0  0  0  0  0  0  0  0  0
    1.7325    0.8587    0.8453 C   0  0  0  0  0  0  0  0  0  0  0  0
   -1.2657    2.0314    1.5287 H   0  0  0  0  0  0  0  0  0  0  0  0
   -2.1039    3.3619    0.7374 H   0  0  0  0  0  0  0  0  0  0  0  0
   -2.6623    1.6971    0.5010 H   0  0  0  0  0  0  0  0  0  0  0  0
    0.0153    2.8330   -0.4884 H   0  0  0  0  0  0  0  0  0  0  0  0
   -1.3847    2.5412   -1.4995 H   0  0  0  0  0  0  0  0  0  0  0  0
   -0.1805   -0.0296    1.3324 H   0  0  0  0  0  0  0  0  0  0  0  0
    1.4458    1.8813    1.0964 H   0  0  0  0  0  0  0  0  0  0  0  0
    2.2500    0.4414    1.7120 H   0  0  0  0  0  0  0  0  0  0  0  0
    2.4326    0.8990    0.0101 H   0  0  0  0  0  0  0  0  0  0  0  0
  1  3  1  0
  2  7  1  0
  4  5  1  0
  4  9  1  0
  4 10  1  0
  4 11  1  0
  5  6  1  0
  5 12  1  0
  5 13  1  0
  6  7  1  0
  7  8  1  0
  7 14  1  0
  8 15  1  0
  8 16  1  0
  8 17  1  0
M  RAD  1   1   2
M  END
>  <reaction>  (6) 
rmg_rxn_87

>  <mol_properties>  (6) 
{"0": {"label": "*3", "atom_type": "S2s"}, "1": {"label": "*2", "atom_type": "H0"}, "2": {"label": "*4", "atom_type": "H0"}, "5": {"label": "*0", "atom_type": "S2s"}, "6": {"label": "*1", "atom_type": "Cs"}}

>  <type>  (6) 
unop_2

>  <geom_source>  (6) 
Heuristics

$$$$

     RDKit          3D

 17 15  0  0  0  0  0  0  0  0999 V2000
    0.1083   -2.8172   -0.8553 S   0  0  0  0  0  1  0  0  0  0  0  0
    0.1083   -1.2127   -0.7783 H   0  0  0  0  0  0  0  0  0  0  0  0
    0.1083   -2.8172   -2.1940 H   0  0  0  0  0  0  0  0  0  0  0  0
    1.4143    2.0798    1.5247 C   0  0  0  0  0  0  0  0  0  0  0  0
   -0.0874    2.0628    1.2918 C   0  0  0  0  0  0  0  0  0  0  0  0
   -0.7710    0.4521    0.8266 S   0  0  0  0  0  0  0  0  0  0  0  0
    0.1083    0.0953   -0.7154 C   0  0  0  0  0  0  0  0  0  0  0  0
   -0.1141    1.1046   -1.8296 C   0  0  0  0  0  0  0  0  0  0  0  0
    1.9635    1.8704    0.6052 H   0  0  0  0  0  0  0  0  0  0  0  0
    1.7315    3.0631    1.8790 H   0  0  0  0  0  0  0  0  0  0  0  0
    1.7017    1.3348    2.2675 H   0  0  0  0  0  0  0  0  0  0  0  0
   -0.3753    2.8081    0.5485 H   0  0  0  0  0  0  0  0  0  0  0  0
   -0.6187    2.3143    2.2112 H   0  0  0  0  0  0  0  0  0  0  0  0
    1.1724   -0.0273   -0.5068 H   0  0  0  0  0  0  0  0  0  0  0  0
    0.2947    2.0826   -1.5701 H   0  0  0  0  0  0  0  0  0  0  0  0
    0.3827    0.7743   -2.7445 H   0  0  0  0  0  0  0  0  0  0  0  0
   -1.1776    1.2270   -2.0377 H   0  0  0  0  0  0  0  0  0  0  0  0
  1  3  1  0
  2  7  1  0
  4  5  1  0
  4  9  1  0
  4 10  1  0
  4 11  1  0
  5  6  1  0
  5 12  1  0
  5 13  1  0
  6  7  1  0
  7  8  1  0
  7 14  1  0
  8 15  1  0
  8 16  1  0
  8 17  1  0
M  RAD  1   1   2
M  END
>  <reaction>  (7) 
rmg_rxn_87

>  <mol_properties>  (7) 
{"0": {"label": "*3", "atom_type": "S2s"}, "1": {"label": "*2", "atom_type": "H0"}, "2": {"label": "*4", "atom_type": "H0"}, "5": {"label": "*0", "atom_type": "S2s"}, "6": {"label": "*1", "atom_type": "Cs"}}

>  <type>  (7) 
unop_3

>  <geom_source>  (7) 
Heuristics

$$$$

     RDKit          3D

 17 15  0  0  0  0  0  0  0  0999 V2000
   -0.7551   -2.8343   -0.0495 S   0  0  0  0  0  1  0  0  0  0  0  0
   -0.7551   -1.2298    0.0276 H   0  0  0  0  0  0  0  0  0  0  0  0
   -0.7551   -2.8343   -1.3881 H   0  0  0  0  0  0  0  0  0  0  0  0
    0.2020    3.1985   -0.0066 C   0  0  0  0  0  0  0  0  0  0  0  0
    1.2271    2.0804    0.0848 C   0  0  0  0  0  0  0  0  0  0  0  0
    0.7680    0.5502   -0.7673 S   0  0  0  0  0  0  0  0  0  0  0  0
   -0.7551    0.0782    0.0904 C   0  0  0  0  0  0  0  0  0  0  0  0
   -0.6007   -0.1739    1.5811 C   0  0  0  0  0  0  0  0  0  0  0  0
   -0.7235    2.9350    0.5082 H   0  0  0  0  0  0  0  0  0  0  0  0
    0.5895    4.1066    0.4605 H   0  0  0  0  0  0  0  0  0  0  0  0
   -0.0407    3.4203   -1.0464 H   0  0  0  0  0  0  0  0  0  0  0  0
    1.4702    1.8581    1.1251 H   0  0  0  0  0  0  0  0  0  0  0  0
    2.1591    2.3771   -0.3992 H   0  0  0  0  0  0  0  0  0  0  0  0
   -1.5265    0.8260   -0.1009 H   0  0  0  0  0  0  0  0  0  0  0  0
   -0.3274    0.7382    2.1143 H   0  0  0  0  0  0  0  0  0  0  0  0
   -1.5422   -0.5310    2.0043 H   0  0  0  0  0  0  0  0  0  0  0  0
    0.1703   -0.9212    1.7719 H   0  0  0  0  0  0  0  0  0  0  0  0
  1  3  1  0
  2  7  1  0
  4  5  1  0
  4  9  1  0
  4 10  1  0
  4 11  1  0
  5  6  1  0
  5 12  1  0
  5 13  1  0
  6  7  1  0
  7  8  1  0
  7 14  1  0
  8 15  1  0
  8 16  1  0
  8 17  1  0
M  RAD  1   1   2
M  END
>  <reaction>  (8) 
rmg_rxn_87

>  <mol_properties>  (8) 
{"0": {"label": "*3", "atom_type": "S2s"}, "1": {"label": "*2", "atom_type": "H0"}, "2": {"label": "*4", "atom_type": "H0"}, "5": {"label": "*0", "atom_type": "S2s"}, "6": {"label": "*1", "atom_type": "Cs"}}

>  <type>  (8) 
unop_4

>  <geom_source>  (8) 
Heuristics

$$$$

     RDKit          3D

 17 15  0  0  0  0  0  0  0  0999 V2000
   -0.0130   -2.8814   -0.7997 S   0  0  0  0  0  1  0  0  0  0  0  0
   -0.0130   -1.2769   -0.7226 H   0  0  0  0  0  0  0  0  0  0  0  0
   -0.0130   -2.8814   -2.1383 H   0  0  0  0  0  0  0  0  0  0  0  0
    1.2404    2.8165    0.4946 C   0  0  0  0  0  0  0  0  0  0  0  0
    0.0251    2.1863    1.1545 C   0  0  0  0  0  0  0  0  0  0  0  0
   -0.0130    0.3765    1.1176 S   0  0  0  0  0  0  0  0  0  0  0  0
   -0.0130    0.0311   -0.6597 C   0  0  0  0  0  0  0  0  0  0  0  0
   -1.1971    0.5994   -1.4242 C   0  0  0  0  0  0  0  0  0  0  0  0
    1.2571    2.6228   -0.5793 H   0  0  0  0  0  0  0  0  0  0  0  0
    1.2265    3.9000    0.6318 H   0  0  0  0  0  0  0  0  0  0  0  0
    2.1634    2.4248    0.9234 H   0  0  0  0  0  0  0  0  0  0  0  0
   -0.8987    2.5780    0.7256 H   0  0  0  0  0  0  0  0  0  0  0  0
    0.0030    2.4245    2.2192 H   0  0  0  0  0  0  0  0  0  0  0  0
    0.9298    0.3666   -1.0951 H   0  0  0  0  0  0  0  0  0  0  0  0
   -1.1905    1.6907   -1.4171 H   0  0  0  0  0  0  0  0  0  0  0  0
   -1.1634    0.2784   -2.4677 H   0  0  0  0  0  0  0  0  0  0  0  0
   -2.1390    0.2639   -0.9888 H   0  0  0  0  0  0  0  0  0  0  0  0
  1  3  1  0
  2  7  1  0
  4  5  1  0
  4  9  1  0
  4 10  1  0
  4 11  1  0
  5  6  1  0
  5 12  1  0
  5 13  1  0
  6  7  1  0
  7  8  1  0
  7 14  1  0
  8 15  1  0
  8 16  1  0
  8 17  1  0
M  RAD  1   1   2
M  END
>  <reaction>  (9) 
rmg_rxn_87

>  <mol_properties>  (9) 
{"0": {"label": "*3", "atom_type": "S2s"}, "1": {"label": "*2", "atom_type": "H0"}, "2": {"label": "*4", "atom_type": "H0"}, "5": {"label": "*0", "atom_type": "S2s"}, "6": {"label": "*1", "atom_type": "Cs"}}

>  <type>  (9) 
unop_5

>  <geom_source>  (9) 
Heuristics

$$$$

     RDKit          3D

 17 15  0  0  0  0  0  0  0  0999 V2000
   -0.7006   -2.7770   -0.4904 S   0  0  0  0  0  1  0  0  0  0  0  0
   -0.7006   -1.1725   -0.4133 H   0  0  0  0  0  0  0  0  0  0  0  0
   -0.7006   -2.7770   -1.8291 H   0  0  0  0  0  0  0  0  0  0  0  0
    0.2624    3.1725    0.3646 C   0  0  0  0  0  0  0  0  0  0  0  0
    1.0925    1.9774    0.8029 C   0  0  0  0  0  0  0  0  0  0  0  0
    1.0581    0.5654   -0.3299 S   0  0  0  0  0  0  0  0  0  0  0  0
   -0.7006    0.1355   -0.3505 C   0  0  0  0  0  0  0  0  0  0  0  0
   -1.2818   -0.2557    0.9981 C   0  0  0  0  0  0  0  0  0  0  0  0
   -0.8026    2.9350    0.3491 H   0  0  0  0  0  0  0  0  0  0  0  0
    0.4023    4.0053    1.0574 H   0  0  0  0  0  0  0  0  0  0  0  0
    0.5503    3.5011   -0.6347 H   0  0  0  0  0  0  0  0  0  0  0  0
    0.8047    1.6482    1.8027 H   0  0  0  0  0  0  0  0  0  0  0  0
    2.1494    2.2447    0.8522 H   0  0  0  0  0  0  0  0  0  0  0  0
   -1.2690    0.9525   -0.7980 H   0  0  0  0  0  0  0  0  0  0  0  0
   -1.2736    0.5839    1.6953 H   0  0  0  0  0  0  0  0  0  0  0  0
   -2.3195   -0.5770    0.8844 H   0  0  0  0  0  0  0  0  0  0  0  0
   -0.7133   -1.0720    1.4451 H   0  0  0  0  0  0  0  0  0  0  0  0
  1  3  1  0
  2  7  1  0
  4  5  1  0
  4  9  1  0
  4 10  1  0
  4 11  1  0
  5  6  1  0
  5 12  1  0
  5 13  1  0
  6  7  1  0
  7  8  1  0
  7 14  1  0
  8 15  1  0
  8 16  1  0
  8 17  1  0
M  RAD  1   1   2
M  END
>  <reaction>  (10) 
rmg_rxn_87

>  <mol_properties>  (10) 
{"0": {"label": "*3", "atom_type": "S2s"}, "1": {"label": "*2", "atom_type": "H0"}, "2": {"label": "*4", "atom_type": "H0"}, "5": {"label": "*0", "atom_type": "S2s"}, "6": {"label": "*1", "atom_type": "Cs"}}

>  <type>  (10) 
unop_6

>  <geom_source>  (10) 
Heuristics

$$$$

     RDKit          3D

 17 15  0  0  0  0  0  0  0  0999 V2000
   -0.4267   -2.7708   -0.7811 S   0  0  0  0  0  1  0  0  0  0  0  0
   -0.4267   -1.1663   -0.7041 H   0  0  0  0  0  0  0  0  0  0  0  0
   -0.4267   -2.7708   -2.1198 H   0  0  0  0  0  0  0  0  0  0  0  0
    0.1510    3.1734    0.4251 C   0  0  0  0  0  0  0  0  0  0  0  0
    0.6053    1.9713    1.2364 C   0  0  0  0  0  0  0  0  0  0  0  0
    1.0964    0.5293    0.2578 S   0  0  0  0  0  0  0  0  0  0  0  0
   -0.4267    0.1417   -0.6412 C   0  0  0  0  0  0  0  0  0  0  0  0
   -1.6210   -0.1974    0.2353 C   0  0  0  0  0  0  0  0  0  0  0  0
   -0.7690    2.9613   -0.1221 H   0  0  0  0  0  0  0  0  0  0  0  0
   -0.0478    4.0216    1.0839 H   0  0  0  0  0  0  0  0  0  0  0  0
    0.9140    3.4668   -0.2967 H   0  0  0  0  0  0  0  0  0  0  0  0
   -0.1580    1.6773    1.9588 H   0  0  0  0  0  0  0  0  0  0  0  0
    1.5023    2.2143    1.8084 H   0  0  0  0  0  0  0  0  0  0  0  0
   -0.6637    0.9593   -1.3240 H   0  0  0  0  0  0  0  0  0  0  0  0
   -1.9355    0.6609    0.8314 H   0  0  0  0  0  0  0  0  0  0  0  0
   -2.4710   -0.4966   -0.3820 H   0  0  0  0  0  0  0  0  0  0  0  0
   -1.3838   -1.0144    0.9176 H   0  0  0  0  0  0  0  0  0  0  0  0
  1  3  1  0
  2  7  1  0
  4  5  1  0
  4  9  1  0
  4 10  1  0
  4 11  1  0
  5  6  1  0
  5 12  1  0
  5 13  1  0
  6  7  1  0
  7  8  1  0
  7 14  1  0
  8 15  1  0
  8 16  1  0
  8 17  1  0
M  RAD  1   1   2
M  END
>  <reaction>  (11) 
rmg_rxn_87

>  <mol_properties>  (11) 
{"0": {"label": "*3", "atom_type": "S2s"}, "1": {"label": "*2", "atom_type": "H0"}, "2": {"label": "*4", "atom_type": "H0"}, "5": {"label": "*0", "atom_type": "S2s"}, "6": {"label": "*1", "atom_type": "Cs"}}

>  <type>  (11) 
unop_7

>  <geom_source>  (11) 
Heuristics

$$$$

     RDKit          3D

 17 15  0  0  0  0  0  0  0  0999 V2000
    0.7044   -2.7604   -0.5100 S   0  0  0  0  0  1  0  0  0  0  0  0
    0.7044   -1.1559   -0.4330 H   0  0  0  0  0  0  0  0  0  0  0  0
    0.7044   -2.7604   -1.8487 H   0  0  0  0  0  0  0  0  0  0  0  0
   -0.6268    1.5914    2.2411 C   0  0  0  0  0  0  0  0  0  0  0  0
   -1.0999    1.9454    0.8409 C   0  0  0  0  0  0  0  0  0  0  0  0
   -1.0543    0.5819   -0.3495 S   0  0  0  0  0  0  0  0  0  0  0  0
    0.7044    0.1521   -0.3701 C   0  0  0  0  0  0  0  0  0  0  0  0
    1.6334    1.2703   -0.8129 C   0  0  0  0  0  0  0  0  0  0  0  0
    0.4333    1.3325    2.2509 H   0  0  0  0  0  0  0  0  0  0  0  0
   -0.7626    2.4418    2.9129 H   0  0  0  0  0  0  0  0  0  0  0  0
   -1.1858    0.7434    2.6382 H   0  0  0  0  0  0  0  0  0  0  0  0
   -0.5407    2.7938    0.4431 H   0  0  0  0  0  0  0  0  0  0  0  0
   -2.1503    2.2409    0.8567 H   0  0  0  0  0  0  0  0  0  0  0  0
    0.9959   -0.2327    0.6086 H   0  0  0  0  0  0  0  0  0  0  0  0
    1.6233    2.1015   -0.1058 H   0  0  0  0  0  0  0  0  0  0  0  0
    2.6613    0.9061   -0.8757 H   0  0  0  0  0  0  0  0  0  0  0  0
    1.3417    1.6546   -1.7909 H   0  0  0  0  0  0  0  0  0  0  0  0
  1  3  1  0
  2  7  1  0
  4  5  1  0
  4  9  1  0
  4 10  1  0
  4 11  1  0
  5  6  1  0
  5 12  1  0
  5 13  1  0
  6  7  1  0
  7  8  1  0
  7 14  1  0
  8 15  1  0
  8 16  1  0
  8 17  1  0
M  RAD  1   1   2
M  END
>  <reaction>  (12) 
rmg_rxn_87

>  <mol_properties>  (12) 
{"0": {"label": "*3", "atom_type": "S2s"}, "1": {"label": "*2", "atom_type": "H0"}, "2": {"label": "*4", "atom_type": "H0"}, "5": {"label": "*0", "atom_type": "S2s"}, "6": {"label": "*1", "atom_type": "Cs"}}

>  <type>  (12) 
unop_8

>  <geom_source>  (12) 
Heuristics

$$$$

     RDKit          3D

 17 15  0  0  0  0  0  0  0  0999 V2000
   -0.4981   -2.9102    0.3672 S   0  0  0  0  0  1  0  0  0  0  0  0
   -0.4981   -1.3057    0.4443 H   0  0  0  0  0  0  0  0  0  0  0  0
   -0.4981   -2.9102   -0.9715 H   0  0  0  0  0  0  0  0  0  0  0  0
   -0.3507    3.1466   -0.3611 C   0  0  0  0  0  0  0  0  0  0  0  0
    0.8259    2.2199   -0.6188 C   0  0  0  0  0  0  0  0  0  0  0  0
    0.3813    0.5052   -0.9936 S   0  0  0  0  0  0  0  0  0  0  0  0
   -0.4981    0.0023    0.5071 C   0  0  0  0  0  0  0  0  0  0  0  0
    0.3227    0.0674    1.7845 C   0  0  0  0  0  0  0  0  0  0  0  0
   -0.8926    2.8624    0.5425 H   0  0  0  0  0  0  0  0  0  0  0  0
   -0.0019    4.1726   -0.2248 H   0  0  0  0  0  0  0  0  0  0  0  0
   -1.0519    3.1272   -1.1962 H   0  0  0  0  0  0  0  0  0  0  0  0
    1.5276    2.2390    0.2167 H   0  0  0  0  0  0  0  0  0  0  0  0
    1.3796    2.5432   -1.5018 H   0  0  0  0  0  0  0  0  0  0  0  0
   -1.4157    0.5850    0.6030 H   0  0  0  0  0  0  0  0  0  0  0  0
    0.5981    1.0944    2.0304 H   0  0  0  0  0  0  0  0  0  0  0  0
   -0.2525   -0.3276    2.6247 H   0  0  0  0  0  0  0  0  0  0  0  0
    1.2398   -0.5149    1.6882 H   0  0  0  0  0  0  0  0  0  0  0  0
  1  3  1  0
  2  7  1  0
  4  5  1  0
  4  9  1  0
  4 10  1  0
  4 11  1  0
  5  6  1  0
  5 12  1  0
  5 13  1  0
  6  7  1  0
  7  8  1  0
  7 14  1  0
  8 15  1  0
  8 16  1  0
  8 17  1  0
M  RAD  1   1   2
M  END
>  <reaction>  (13) 
rmg_rxn_87

>  <mol_properties>  (13) 
{"0": {"label": "*3", "atom_type": "S2s"}, "1": {"label": "*2", "atom_type": "H0"}, "2": {"label": "*4", "atom_type": "H0"}, "5": {"label": "*0", "atom_type": "S2s"}, "6": {"label": "*1", "atom_type": "Cs"}}

>  <type>  (13) 
unop_9

>  <geom_source>  (13) 
Heuristics

$$$$

     RDKit          3D

 17 15  0  0  0  0  0  0  0  0999 V2000
    0.7689   -2.8202   -0.0663 S   0  0  0  0  0  1  0  0  0  0  0  0
    0.7689   -1.2157    0.0108 H   0  0  0  0  0  0  0  0  0  0  0  0
    0.7689   -2.8202   -1.4049 H   0  0  0  0  0  0  0  0  0  0  0  0
   -1.5248    1.8463    1.5983 C   0  0  0  0  0  0  0  0  0  0  0  0
   -1.2539    2.0530    0.1172 C   0  0  0  0  0  0  0  0  0  0  0  0
   -0.7542    0.5643   -0.7840 S   0  0  0  0  0  0  0  0  0  0  0  0
    0.7689    0.0923    0.0737 C   0  0  0  0  0  0  0  0  0  0  0  0
    1.8774    1.1312    0.0323 C   0  0  0  0  0  0  0  0  0  0  0  0
   -0.6172    1.5644    2.1348 H   0  0  0  0  0  0  0  0  0  0  0  0
   -1.8975    2.7695    2.0475 H   0  0  0  0  0  0  0  0  0  0  0  0
   -2.2664    1.0618    1.7527 H   0  0  0  0  0  0  0  0  0  0  0  0
   -0.5117    2.8379   -0.0377 H   0  0  0  0  0  0  0  0  0  0  0  0
   -2.1623    2.3739   -0.3954 H   0  0  0  0  0  0  0  0  0  0  0  0
    0.5349   -0.1876    1.1021 H   0  0  0  0  0  0  0  0  0  0  0  0
    1.5970    2.0362    0.5739 H   0  0  0  0  0  0  0  0  0  0  0  0
    2.7830    0.7374    0.4989 H   0  0  0  0  0  0  0  0  0  0  0  0
    2.1108    1.4108   -0.9956 H   0  0  0  0  0  0  0  0  0  0  0  0
  1  3  1  0
  2  7  1  0
  4  5  1  0
  4  9  1  0
  4 10  1  0
  4 11  1  0
  5  6  1  0
  5 12  1  0
  5 13  1  0
  6  7  1  0
  7  8  1  0
  7 14  1  0
  8 15  1  0
  8 16  1  0
  8 17  1  0
M  RAD  1   1   2
M  END
>  <reaction>  (14) 
rmg_rxn_87

>  <mol_properties>  (14) 
{"0": {"label": "*3", "atom_type": "S2s"}, "1": {"label": "*2", "atom_type": "H0"}, "2": {"label": "*4", "atom_type": "H0"}, "5": {"label": "*0", "atom_type": "S2s"}, "6": {"label": "*1", "atom_type": "Cs"}}

>  <type>  (14) 
unop_10

>  <geom_source>  (14) 
Heuristics

$$$$

     RDKit          3D

 17 15  0  0  0  0  0  0  0  0999 V2000
   -0.1273   -2.8285   -0.8419 S   0  0  0  0  0  1  0  0  0  0  0  0
   -0.1273   -1.2240   -0.7648 H   0  0  0  0  0  0  0  0  0  0  0  0
   -0.1273   -2.8285   -2.1805 H   0  0  0  0  0  0  0  0  0  0  0  0
    0.4056    3.1660    0.2356 C   0  0  0  0  0  0  0  0  0  0  0  0
    0.1242    2.0847    1.2657 C   0  0  0  0  0  0  0  0  0  0  0  0
    0.7520    0.4407    0.8400 S   0  0  0  0  0  0  0  0  0  0  0  0
   -0.1273    0.0840   -0.7020 C   0  0  0  0  0  0  0  0  0  0  0  0
   -1.6423    0.0563   -0.5854 C   0  0  0  0  0  0  0  0  0  0  0  0
   -0.1190    2.9713   -0.7014 H   0  0  0  0  0  0  0  0  0  0  0  0
    0.0682    4.1373    0.6042 H   0  0  0  0  0  0  0  0  0  0  0  0
    1.4726    3.2293    0.0190 H   0  0  0  0  0  0  0  0  0  0  0  0
   -0.9434    2.0210    1.4826 H   0  0  0  0  0  0  0  0  0  0  0  0
    0.6230    2.3169    2.2081 H   0  0  0  0  0  0  0  0  0  0  0  0
    0.1918    0.7870   -1.4732 H   0  0  0  0  0  0  0  0  0  0  0  0
   -2.0415    1.0400   -0.3327 H   0  0  0  0  0  0  0  0  0  0  0  0
   -2.0898   -0.2446   -1.5353 H   0  0  0  0  0  0  0  0  0  0  0  0
   -1.9608   -0.6462    0.1855 H   0  0  0  0  0  0  0  0  0  0  0  0
  1  3  1  0
  2  7  1  0
  4  5  1  0
  4  9  1  0
  4 10  1  0
  4 11  1  0
  5  6  1  0
  5 12  1  0
  5 13  1  0
  6  7  1  0
  7  8  1  0
  7 14  1  0
  8 15  1  0
  8 16  1  0
  8 17  1  0
M  RAD  1   1   2
M  END
>  <reaction>  (15) 
rmg_rxn_87

>  <mol_properties>  (15) 
{"0": {"label": "*3", "atom_type": "S2s"}, "1": {"label": "*2", "atom_type": "H0"}, "2": {"label": "*4", "atom_type": "H0"}, "5": {"label": "*0", "atom_type": "S2s"}, "6": {"label": "*1", "atom_type": "Cs"}}

>  <type>  (15) 
unop_11

>  <geom_source>  (15) 
Heuristics

$$$$

     RDKit          3D

 17 15  0  0  0  0  0  0  0  0999 V2000
    0.0130   -2.9459    0.5416 S   0  0  0  0  0  1  0  0  0  0  0  0
    0.0130   -1.3414    0.6187 H   0  0  0  0  0  0  0  0  0  0  0  0
    0.0130   -2.9459   -0.7970 H   0  0  0  0  0  0  0  0  0  0  0  0
   -1.2404    2.8499   -0.2004 C   0  0  0  0  0  0  0  0  0  0  0  0
   -0.0251    2.2859   -0.9178 C   0  0  0  0  0  0  0  0  0  0  0  0
    0.0130    0.4808   -1.0545 S   0  0  0  0  0  0  0  0  0  0  0  0
    0.0130   -0.0334    0.6816 C   0  0  0  0  0  0  0  0  0  0  0  0
    1.1971    0.4591    1.4970 C   0  0  0  0  0  0  0  0  0  0  0  0
   -1.2571    2.5541    0.8499 H   0  0  0  0  0  0  0  0  0  0  0  0
   -1.2265    3.9416   -0.2332 H   0  0  0  0  0  0  0  0  0  0  0  0
   -2.1634    2.5011   -0.6648 H   0  0  0  0  0  0  0  0  0  0  0  0
    0.8987    2.6346   -0.4532 H   0  0  0  0  0  0  0  0  0  0  0  0
   -0.0030    2.6250   -1.9547 H   0  0  0  0  0  0  0  0  0  0  0  0
   -0.9298    0.2589    1.1471 H   0  0  0  0  0  0  0  0  0  0  0  0
    1.1905    1.5460    1.5945 H   0  0  0  0  0  0  0  0  0  0  0  0
    1.1634    0.0395    2.5049 H   0  0  0  0  0  0  0  0  0  0  0  0
    2.1390    0.1669    1.0314 H   0  0  0  0  0  0  0  0  0  0  0  0
  1  3  1  0
  2  7  1  0
  4  5  1  0
  4  9  1  0
  4 10  1  0
  4 11  1  0
  5  6  1  0
  5 12  1  0
  5 13  1  0
  6  7  1  0
  7  8  1  0
  7 14  1  0
  8 15  1  0
  8 16  1  0
  8 17  1  0
M  RAD  1   1   2
M  END
>  <reaction>  (16) 
rmg_rxn_87

>  <mol_properties>  (16) 
{"0": {"label": "*3", "atom_type": "S2s"}, "1": {"label": "*2", "atom_type": "H0"}, "2": {"label": "*4", "atom_type": "H0"}, "5": {"label": "*0", "atom_type": "S2s"}, "6": {"label": "*1", "atom_type": "Cs"}}

>  <type>  (16) 
unop_12

>  <geom_source>  (16) 
Heuristics

$$$$

     RDKit          3D

 17 15  0  0  0  0  0  0  0  0999 V2000
    0.5203   -2.9016    0.3570 S   0  0  0  0  0  1  0  0  0  0  0  0
    0.5203   -1.2971    0.4341 H   0  0  0  0  0  0  0  0  0  0  0  0
    0.5203   -2.9016   -0.9816 H   0  0  0  0  0  0  0  0  0  0  0  0
   -1.7788    2.3267    0.6119 C   0  0  0  0  0  0  0  0  0  0  0  0
   -0.8690    2.2033   -0.5991 C   0  0  0  0  0  0  0  0  0  0  0  0
   -0.3590    0.5138   -1.0038 S   0  0  0  0  0  0  0  0  0  0  0  0
    0.5203    0.0109    0.4969 C   0  0  0  0  0  0  0  0  0  0  0  0
    1.7325    0.8587    0.8454 C   0  0  0  0  0  0  0  0  0  0  0  0
   -1.2657    2.0314    1.5287 H   0  0  0  0  0  0  0  0  0  0  0  0
   -2.1039    3.3619    0.7374 H   0  0  0  0  0  0  0  0  0  0  0  0
   -2.6623    1.6971    0.5010 H   0  0  0  0  0  0  0  0  0  0  0  0
    0.0153    2.8331   -0.4884 H   0  0  0  0  0  0  0  0  0  0  0  0
   -1.3847    2.5412   -1.4995 H   0  0  0  0  0  0  0  0  0  0  0  0
   -0.1805   -0.0296    1.3324 H   0  0  0  0  0  0  0  0  0  0  0  0
    1.4458    1.8813    1.0964 H   0  0  0  0  0  0  0  0  0  0  0  0
    2.2500    0.4414    1.7120 H   0  0  0  0  0  0  0  0  0  0  0  0
    2.4326    0.8990    0.0101 H   0  0  0  0  0  0  0  0  0  0  0  0
  1  3  1  0
  2  7  1  0
  4  5  1  0
  4  9  1  0
  4 10  1  0
  4 11  1  0
  5  6  1  0
  5 12  1  0
  5 13  1  0
  6  7  1  0
  7  8  1  0
  7 14  1  0
  8 15  1  0
  8 16  1  0
  8 17  1  0
M  RAD  1   1   2
M  END
>  <reaction>  (17) 
rmg_rxn_87

>  <mol_properties>  (17) 
{"0": {"label": "*3", "atom_type": "S2s"}, "1": {"label": "*2", "atom_type": "H0"}, "2": {"label": "*4", "atom_type": "H0"}, "5": {"label": "*0", "atom_type": "S2s"}, "6": {"label": "*1", "atom_type": "Cs"}}

>  <type>  (17) 
unop_13

>  <geom_source>  (17) 
gaussian_log

$$$$
