
     RDKit          3D

  8  7  0  0  0  0  0  0  0  0999 V2000
    0.9548    0.1194   -0.0790 C   0  0  0  0  0  0  0  0  0  0  0  0
   -0.4838   -0.2649    0.0193 C   0  0  0  0  0  0  0  0  0  0  0  0
   -0.8933   -1.1081    0.8664 N   0  0  0  0  0  0  0  0  0  0  0  0
    1.3360   -0.0983   -1.0800 H   0  0  0  0  0  0  0  0  0  0  0  0
    1.0698    1.1948    0.0786 H   0  0  0  0  0  0  0  0  0  0  0  0
    1.5426   -0.4219    0.6602 H   0  0  0  0  0  0  0  0  0  0  0  0
   -1.1575    0.2324   -0.6905 H   0  0  0  0  0  0  0  0  0  0  0  0
   -1.8989   -1.2455    0.7886 H   0  0  0  0  0  0  0  0  0  0  0  0
  1  2  1  0
  1  4  1  0
  1  5  1  0
  1  6  1  0
  2  3  2  3
  2  7  1  0
  3  8  1  0
M  END
>  <reaction>  (1) 
rmg_rxn_16472

>  <mol_properties>  (1) 
{"2": {"label": "donator", "atom_type": "N3d"}, "7": {"label": "d_hydrogen", "atom_type": "H0"}}

>  <type>  (1) 
r1h

$$$$

     RDKit          3D

 14 13  0  0  0  0  0  0  0  0999 V2000
    2.5796   -0.5432    0.2329 C   0  0  0  0  0  3  0  0  0  0  0  0
    1.2594    0.0982    0.3029 C   0  0  0  0  0  0  0  0  0  0  0  0
   -0.0483   -1.0244    0.9576 S   0  0  0  0  0  0  0  0  0  0  0  0
   -0.0049   -2.3732   -0.2491 C   0  0  0  0  0  0  0  0  0  0  0  0
   -0.3891   -1.9781   -1.6653 C   0  0  0  0  0  0  0  0  0  0  0  0
    2.9359   -0.9798   -0.6903 H   0  0  0  0  0  0  0  0  0  0  0  0
    3.1327   -0.7454    1.1400 H   0  0  0  0  0  0  0  0  0  0  0  0
    0.9347    0.4858   -0.6621 H   0  0  0  0  0  0  0  0  0  0  0  0
    1.2442    0.9220    1.0193 H   0  0  0  0  0  0  0  0  0  0  0  0
    0.9819   -2.8380   -0.2257 H   0  0  0  0  0  0  0  0  0  0  0  0
   -0.7110   -3.1037    0.1493 H   0  0  0  0  0  0  0  0  0  0  0  0
    0.3274   -1.2737   -2.0913 H   0  0  0  0  0  0  0  0  0  0  0  0
   -0.4075   -2.8581   -2.3121 H   0  0  0  0  0  0  0  0  0  0  0  0
   -1.3749   -1.5123   -1.6865 H   0  0  0  0  0  0  0  0  0  0  0  0
  1  2  1  0
  1  6  1  0
  1  7  1  0
  2  3  1  0
  2  8  1  0
  2  9  1  0
  3  4  1  0
  4  5  1  0
  4 10  1  0
  4 11  1  0
  5 12  1  0
  5 13  1  0
  5 14  1  0
M  RAD  1   1   2
M  END
>  <reaction>  (2) 
rmg_rxn_16472

>  <mol_properties>  (2) 
{"0": {"label": "acceptor", "atom_type": "Cs"}}

>  <type>  (2) 
r2

$$$$

     RDKit          3D

 15 14  0  0  0  0  0  0  0  0999 V2000
   -2.0554    0.0723   -0.4910 C   0  0  0  0  0  0  0  0  0  0  0  0
   -0.7461   -0.6266   -0.8178 C   0  0  0  0  0  0  0  0  0  0  0  0
    0.3249    0.2591   -1.9782 S   0  0  0  0  0  0  0  0  0  0  0  0
   -0.7172    0.3642   -3.4551 C   0  0  0  0  0  0  0  0  0  0  0  0
   -1.1375   -0.9737   -4.0409 C   0  0  0  0  0  0  0  0  0  0  0  0
   -2.7005    0.1427   -1.3684 H   0  0  0  0  0  0  0  0  0  0  0  0
   -2.6016   -0.4848    0.2733 H   0  0  0  0  0  0  0  0  0  0  0  0
   -1.8758    1.0825   -0.1213 H   0  0  0  0  0  0  0  0  0  0  0  0
   -0.1320   -0.7246    0.0789 H   0  0  0  0  0  0  0  0  0  0  0  0
   -0.9254   -1.6374   -1.1879 H   0  0  0  0  0  0  0  0  0  0  0  0
   -1.5873    0.9874   -3.2422 H   0  0  0  0  0  0  0  0  0  0  0  0
   -0.1021    0.9161   -4.1678 H   0  0  0  0  0  0  0  0  0  0  0  0
   -1.7876   -1.5224   -3.3574 H   0  0  0  0  0  0  0  0  0  0  0  0
   -0.2676   -1.5962   -4.2534 H   0  0  0  0  0  0  0  0  0  0  0  0
   -1.6916   -0.8229   -4.9700 H   0  0  0  0  0  0  0  0  0  0  0  0
  1  2  1  0
  1  6  1  0
  1  7  1  0
  1  8  1  0
  2  3  1  0
  2  9  1  0
  2 10  1  0
  3  4  1  0
  4  5  1  0
  4 11  1  0
  4 12  1  0
  5 13  1  0
  5 14  1  0
  5 15  1  0
M  END
>  <reaction>  (3) 
rmg_rxn_16472

>  <mol_properties>  (3) 
{"0": {"label": "a_hydrogen", "atom_type": "H0"}, "1": {"label": "acceptor", "atom_type": "Cs"}}

>  <type>  (3) 
r2h

$$$$

     RDKit          3D

 22 20  0  0  0  0  0  0  0  0999 V2000
    0.9818    0.6312   -3.7247 C   0  0  0  0  0  0  0  0  0  0  0  0
    0.8284    0.7819   -2.2427 C   0  0  0  0  0  0  0  0  0  0  0  0
    1.7162    1.3200   -1.5331 N   0  0  0  0  0  0  0  0  0  0  0  0
    0.9270   -0.4258   -3.9956 H   0  0  0  0  0  0  0  0  0  0  0  0
    0.1619    1.1398   -4.2374 H   0  0  0  0  0  0  0  0  0  0  0  0
    1.9317    1.0441   -4.0594 H   0  0  0  0  0  0  0  0  0  0  0  0
   -0.0948    0.3836   -1.8062 H   0  0  0  0  0  0  0  0  0  0  0  0
    1.3541    1.3145   -0.3858 H   0  0  0  0  0  0  0  0  0  0  0  0
    0.8717    1.2399    0.9224 C   0  0  0  0  0  3  0  0  0  0  0  0
    0.9784   -0.1817    1.3912 C   0  0  0  0  0  0  0  0  0  0  0  0
   -0.2087   -1.3396    0.6600 S   0  0  0  0  0  0  0  0  0  0  0  0
   -1.7893   -0.6896    1.2591 C   0  0  0  0  0  0  0  0  0  0  0  0
   -1.9494   -0.6745    2.7702 C   0  0  0  0  0  0  0  0  0  0  0  0
   -0.1322    1.6545    0.8674 H   0  0  0  0  0  0  0  0  0  0  0  0
    1.5727    1.9207    1.4031 H   0  0  0  0  0  0  0  0  0  0  0  0
    0.9041   -0.2436    2.4814 H   0  0  0  0  0  0  0  0  0  0  0  0
    1.9549   -0.5960    1.1301 H   0  0  0  0  0  0  0  0  0  0  0  0
   -1.9578    0.3047    0.8412 H   0  0  0  0  0  0  0  0  0  0  0  0
   -2.5287   -1.3506    0.8038 H   0  0  0  0  0  0  0  0  0  0  0  0
   -1.2513    0.0204    3.2392 H   0  0  0  0  0  0  0  0  0  0  0  0
   -2.9586   -0.3552    3.0391 H   0  0  0  0  0  0  0  0  0  0  0  0
   -1.7765   -1.6659    3.1902 H   0  0  0  0  0  0  0  0  0  0  0  0
  1  2  1  0
  1  4  1  0
  1  5  1  0
  1  6  1  0
  2  3  2  3
  2  7  1  0
  3  8  1  0
  9 10  1  0
  9 14  1  0
  9 15  1  0
 10 11  1  0
 10 16  1  0
 10 17  1  0
 11 12  1  0
 12 13  1  0
 12 18  1  0
 12 19  1  0
 13 20  1  0
 13 21  1  0
 13 22  1  0
M  RAD  1   9   2
M  END
>  <reaction>  (4) 
rmg_rxn_16472

>  <mol_properties>  (4) 
{"1": {"label": "*0", "atom_type": "Cd"}, "2": {"label": "*1", "atom_type": "N3d"}, "7": {"label": "*2", "atom_type": "H0"}, "8": {"label": "*3", "atom_type": "Cs"}, "9": {"label": "*4", "atom_type": "Cs"}}

>  <type>  (4) 
ts

$$$$

     RDKit          3D

 22 20  0  0  0  0  0  0  0  0999 V2000
   -4.8817    0.1780    0.4406 C   0  0  0  0  0  0  0  0  0  0  0  0
   -3.4619   -0.1455    0.0881 C   0  0  0  0  0  0  0  0  0  0  0  0
   -2.7040    0.6767   -0.4471 N   0  0  0  0  0  0  0  0  0  0  0  0
   -5.1151    1.2026    0.1657 H   0  0  0  0  0  0  0  0  0  0  0  0
   -5.5471   -0.5049   -0.0850 H   0  0  0  0  0  0  0  0  0  0  0  0
   -5.0277    0.0407    1.5108 H   0  0  0  0  0  0  0  0  0  0  0  0
   -3.1660   -1.1729    0.3488 H   0  0  0  0  0  0  0  0  0  0  0  0
   -1.5515    0.2625   -0.6767 H   0  0  0  0  0  0  0  0  0  0  0  0
   -0.3755   -0.2470   -0.8888 C   0  0  0  0  0  3  0  0  0  0  0  0
    0.3683   -0.2376    0.3979 C   0  0  0  0  0  0  0  0  0  0  0  0
    2.0551   -0.9796    0.1949 S   0  0  0  0  0  0  0  0  0  0  0  0
    2.9633    0.4217   -0.5431 C   0  0  0  0  0  0  0  0  0  0  0  0
    3.3815    1.4507    0.4898 C   0  0  0  0  0  0  0  0  0  0  0  0
    0.0492    0.3962   -1.6520 H   0  0  0  0  0  0  0  0  0  0  0  0
   -0.5598   -1.2455   -1.2708 H   0  0  0  0  0  0  0  0  0  0  0  0
   -0.1056   -0.8660    1.1503 H   0  0  0  0  0  0  0  0  0  0  0  0
    0.5070    0.7651    0.7972 H   0  0  0  0  0  0  0  0  0  0  0  0
    3.8344   -0.0302   -1.0161 H   0  0  0  0  0  0  0  0  0  0  0  0
    2.3291    0.8581   -1.3136 H   0  0  0  0  0  0  0  0  0  0  0  0
    2.5137    1.8961    0.9719 H   0  0  0  0  0  0  0  0  0  0  0  0
    3.9998    0.9864    1.2544 H   0  0  0  0  0  0  0  0  0  0  0  0
    3.9521    2.2447    0.0118 H   0  0  0  0  0  0  0  0  0  0  0  0
  1  2  1  0
  1  4  1  0
  1  5  1  0
  1  6  1  0
  2  3  2  3
  2  7  1  0
  3  8  1  0
  9 10  1  0
  9 14  1  0
  9 15  1  0
 10 11  1  0
 10 16  1  0
 10 17  1  0
 11 12  1  0
 12 13  1  0
 12 18  1  0
 12 19  1  0
 13 20  1  0
 13 21  1  0
 13 22  1  0
M  RAD  1   9   2
M  END
>  <reaction>  (5) 
rmg_rxn_16472

>  <mol_properties>  (5) 
{"1": {"label": "*0", "atom_type": "Cd"}, "2": {"label": "*1", "atom_type": "N3d"}, "7": {"label": "*2", "atom_type": "H0"}, "8": {"label": "*3", "atom_type": "Cs"}, "9": {"label": "*4", "atom_type": "Cs"}}

>  <type>  (5) 
unop_1

>  <geom_source>  (5) 
crest_best.xyz

$$$$

     RDKit          3D

 22 20  0  0  0  0  0  0  0  0999 V2000
   -1.1191   -0.0944   -4.3885 C   0  0  0  0  0  0  0  0  0  0  0  0
   -1.1191   -0.0944   -2.8961 C   0  0  0  0  0  0  0  0  0  0  0  0
   -1.1191    0.9783   -2.2285 N   0  0  0  0  0  0  0  0  0  0  0  0
   -0.2408   -0.6243   -4.7659 H   0  0  0  0  0  0  0  0  0  0  0  0
   -1.9973   -0.6243   -4.7659 H   0  0  0  0  0  0  0  0  0  0  0  0
   -1.1191    0.9263   -4.7671 H   0  0  0  0  0  0  0  0  0  0  0  0
   -1.1191   -1.0840   -2.4215 H   0  0  0  0  0  0  0  0  0  0  0  0
   -1.1191    0.7481   -1.0289 H   0  0  0  0  0  0  0  0  0  0  0  0
   -1.1191    0.5015    0.2564 C   0  0  0  0  0  3  0  0  0  0  0  0
    0.1103    1.0963    0.9230 C   0  0  0  0  0  0  0  0  0  0  0  0
    1.5042   -0.0435    1.1132 S   0  0  0  0  0  0  0  0  0  0  0  0
    0.7937   -1.3452    2.1519 C   0  0  0  0  0  0  0  0  0  0  0  0
    0.3006   -0.8829    3.5131 C   0  0  0  0  0  0  0  0  0  0  0  0
   -1.5652   -0.2837    0.8691 H   0  0  0  0  0  0  0  0  0  0  0  0
   -1.8788    1.2718    0.1069 H   0  0  0  0  0  0  0  0  0  0  0  0
   -0.1421    1.5267    1.8935 H   0  0  0  0  0  0  0  0  0  0  0  0
    0.5186    1.9064    0.3165 H   0  0  0  0  0  0  0  0  0  0  0  0
    0.0010   -1.8560    1.6028 H   0  0  0  0  0  0  0  0  0  0  0  0
    1.6095   -2.0611    2.2648 H   0  0  0  0  0  0  0  0  0  0  0  0
   -0.5431   -0.1970    3.4205 H   0  0  0  0  0  0  0  0  0  0  0  0
   -0.0354   -1.7376    4.1044 H   0  0  0  0  0  0  0  0  0  0  0  0
    1.0930   -0.3724    4.0615 H   0  0  0  0  0  0  0  0  0  0  0  0
  1  2  1  0
  1  4  1  0
  1  5  1  0
  1  6  1  0
  2  3  2  3
  2  7  1  0
  3  8  1  0
  9 10  1  0
  9 14  1  0
  9 15  1  0
 10 11  1  0
 10 16  1  0
 10 17  1  0
 11 12  1  0
 12 13  1  0
 12 18  1  0
 12 19  1  0
 13 20  1  0
 13 21  1  0
 13 22  1  0
M  RAD  1   9   2
M  END
>  <reaction>  (6) 
rmg_rxn_16472

>  <mol_properties>  (6) 
{"1": {"label": "*0", "atom_type": "Cd"}, "2": {"label": "*1", "atom_type": "N3d"}, "7": {"label": "*2", "atom_type": "H0"}, "8": {"label": "*3", "atom_type": "Cs"}, "9": {"label": "*4", "atom_type": "Cs"}}

>  <type>  (6) 
unop_2

>  <geom_source>  (6) 
Heuristics

$$$$

     RDKit          3D

 22 20  0  0  0  0  0  0  0  0999 V2000
    0.3238    0.8756   -3.8931 C   0  0  0  0  0  0  0  0  0  0  0  0
    0.3238    0.8756   -2.4008 C   0  0  0  0  0  0  0  0  0  0  0  0
    0.3238    1.9482   -1.7331 N   0  0  0  0  0  0  0  0  0  0  0  0
    1.2021    0.3456   -4.2705 H   0  0  0  0  0  0  0  0  0  0  0  0
   -0.5544    0.3456   -4.2705 H   0  0  0  0  0  0  0  0  0  0  0  0
    0.3238    1.8962   -4.2717 H   0  0  0  0  0  0  0  0  0  0  0  0
    0.3238   -0.1141   -1.9262 H   0  0  0  0  0  0  0  0  0  0  0  0
    0.3238    1.7180   -0.5335 H   0  0  0  0  0  0  0  0  0  0  0  0
    0.3238    1.4714    0.7517 C   0  0  0  0  0  3  0  0  0  0  0  0
    1.0336    0.1618    1.0530 C   0  0  0  0  0  0  0  0  0  0  0  0
    0.1149   -1.3293    0.5939 S   0  0  0  0  0  0  0  0  0  0  0  0
   -1.3826   -1.1799    1.6006 C   0  0  0  0  0  0  0  0  0  0  0  0
   -1.1465   -1.1467    3.1015 C   0  0  0  0  0  0  0  0  0  0  0  0
   -0.5808    1.5827    1.3519 H   0  0  0  0  0  0  0  0  0  0  0  0
    0.9757    2.3171    0.9818 H   0  0  0  0  0  0  0  0  0  0  0  0
    1.3166    0.1047    2.1053 H   0  0  0  0  0  0  0  0  0  0  0  0
    1.9561    0.0864    0.4749 H   0  0  0  0  0  0  0  0  0  0  0  0
   -1.9530   -0.3080    1.2761 H   0  0  0  0  0  0  0  0  0  0  0  0
   -1.9684   -2.0587    1.3261 H   0  0  0  0  0  0  0  0  0  0  0  0
   -0.5967   -0.2525    3.3997 H   0  0  0  0  0  0  0  0  0  0  0  0
   -2.0998   -1.1381    3.6347 H   0  0  0  0  0  0  0  0  0  0  0  0
   -0.5763   -2.0181    3.4254 H   0  0  0  0  0  0  0  0  0  0  0  0
  1  2  1  0
  1  4  1  0
  1  5  1  0
  1  6  1  0
  2  3  2  3
  2  7  1  0
  3  8  1  0
  9 10  1  0
  9 14  1  0
  9 15  1  0
 10 11  1  0
 10 16  1  0
 10 17  1  0
 11 12  1  0
 12 13  1  0
 12 18  1  0
 12 19  1  0
 13 20  1  0
 13 21  1  0
 13 22  1  0
M  RAD  1   9   2
M  END
>  <reaction>  (7) 
rmg_rxn_16472

>  <mol_properties>  (7) 
{"1": {"label": "*0", "atom_type": "Cd"}, "2": {"label": "*1", "atom_type": "N3d"}, "7": {"label": "*2", "atom_type": "H0"}, "8": {"label": "*3", "atom_type": "Cs"}, "9": {"label": "*4", "atom_type": "Cs"}}

>  <type>  (7) 
unop_3

>  <geom_source>  (7) 
Heuristics

$$$$

     RDKit          3D

 22 20  0  0  0  0  0  0  0  0999 V2000
   -1.2027   -0.7070   -4.3557 C   0  0  0  0  0  0  0  0  0  0  0  0
   -1.2027   -0.7070   -2.8634 C   0  0  0  0  0  0  0  0  0  0  0  0
   -1.2027    0.3656   -2.1957 N   0  0  0  0  0  0  0  0  0  0  0  0
   -0.3245   -1.2370   -4.7331 H   0  0  0  0  0  0  0  0  0  0  0  0
   -2.0810   -1.2370   -4.7331 H   0  0  0  0  0  0  0  0  0  0  0  0
   -1.2027    0.3136   -4.7343 H   0  0  0  0  0  0  0  0  0  0  0  0
   -1.2027   -1.6967   -2.3887 H   0  0  0  0  0  0  0  0  0  0  0  0
   -1.2027    0.1355   -0.9961 H   0  0  0  0  0  0  0  0  0  0  0  0
   -1.2027   -0.1111    0.2891 C   0  0  0  0  0  3  0  0  0  0  0  0
   -0.4929    0.9940    1.0537 C   0  0  0  0  0  0  0  0  0  0  0  0
    1.3088    0.8336    1.1332 S   0  0  0  0  0  0  0  0  0  0  0  0
    1.5136   -0.7513    1.9844 C   0  0  0  0  0  0  0  0  0  0  0  0
    0.9164   -0.8121    3.3805 C   0  0  0  0  0  0  0  0  0  0  0  0
   -1.0943   -1.0755    0.7884 H   0  0  0  0  0  0  0  0  0  0  0  0
   -2.2714    0.1031    0.2189 H   0  0  0  0  0  0  0  0  0  0  0  0
   -0.8942    1.0890    2.0641 H   0  0  0  0  0  0  0  0  0  0  0  0
   -0.6463    1.9564    0.5628 H   0  0  0  0  0  0  0  0  0  0  0  0
    1.1218   -1.5538    1.3572 H   0  0  0  0  0  0  0  0  0  0  0  0
    2.5958   -0.8851    2.0264 H   0  0  0  0  0  0  0  0  0  0  0  0
   -0.1708   -0.7209    3.3542 H   0  0  0  0  0  0  0  0  0  0  0  0
    1.1536   -1.7681    3.8525 H   0  0  0  0  0  0  0  0  0  0  0  0
    1.3080   -0.0099    4.0069 H   0  0  0  0  0  0  0  0  0  0  0  0
  1  2  1  0
  1  4  1  0
  1  5  1  0
  1  6  1  0
  2  3  2  3
  2  7  1  0
  3  8  1  0
  9 10  1  0
  9 14  1  0
  9 15  1  0
 10 11  1  0
 10 16  1  0
 10 17  1  0
 11 12  1  0
 12 13  1  0
 12 18  1  0
 12 19  1  0
 13 20  1  0
 13 21  1  0
 13 22  1  0
M  RAD  1   9   2
M  END
>  <reaction>  (8) 
rmg_rxn_16472

>  <mol_properties>  (8) 
{"1": {"label": "*0", "atom_type": "Cd"}, "2": {"label": "*1", "atom_type": "N3d"}, "7": {"label": "*2", "atom_type": "H0"}, "8": {"label": "*3", "atom_type": "Cs"}, "9": {"label": "*4", "atom_type": "Cs"}}

>  <type>  (8) 
unop_4

>  <geom_source>  (8) 
Heuristics

$$$$

     RDKit          3D

 22 20  0  0  0  0  0  0  0  0999 V2000
    1.4669   -0.5895   -3.4199 C   0  0  0  0  0  0  0  0  0  0  0  0
    1.4669   -0.5895   -1.9276 C   0  0  0  0  0  0  0  0  0  0  0  0
    1.4669    0.4831   -1.2599 N   0  0  0  0  0  0  0  0  0  0  0  0
    2.3452   -1.1195   -3.7973 H   0  0  0  0  0  0  0  0  0  0  0  0
    0.5887   -1.1195   -3.7973 H   0  0  0  0  0  0  0  0  0  0  0  0
    1.4669    0.4311   -3.7985 H   0  0  0  0  0  0  0  0  0  0  0  0
    1.4669   -1.5792   -1.4529 H   0  0  0  0  0  0  0  0  0  0  0  0
    1.4669    0.2530   -0.0603 H   0  0  0  0  0  0  0  0  0  0  0  0
    1.4669    0.0064    1.2249 C   0  0  0  0  0  3  0  0  0  0  0  0
    0.2376   -0.7930    1.6241 C   0  0  0  0  0  0  0  0  0  0  0  0
   -1.1728   -0.6399    0.4991 S   0  0  0  0  0  0  0  0  0  0  0  0
   -1.5264    1.1344    0.5698 C   0  0  0  0  0  0  0  0  0  0  0  0
   -1.8909    1.6621    1.9476 C   0  0  0  0  0  0  0  0  0  0  0  0
    1.2755    1.0800    1.2647 H   0  0  0  0  0  0  0  0  0  0  0  0
    2.2936   -0.2045    1.9070 H   0  0  0  0  0  0  0  0  0  0  0  0
   -0.0779   -0.5428    2.6384 H   0  0  0  0  0  0  0  0  0  0  0  0
    0.4591   -1.8615    1.6184 H   0  0  0  0  0  0  0  0  0  0  0  0
   -0.6862    1.6894    0.1493 H   0  0  0  0  0  0  0  0  0  0  0  0
   -2.3627    1.2599   -0.1200 H   0  0  0  0  0  0  0  0  0  0  0  0
   -1.0518    1.5821    2.6407 H   0  0  0  0  0  0  0  0  0  0  0  0
   -2.1673    2.7171    1.8882 H   0  0  0  0  0  0  0  0  0  0  0  0
   -2.7305    1.1071    2.3675 H   0  0  0  0  0  0  0  0  0  0  0  0
  1  2  1  0
  1  4  1  0
  1  5  1  0
  1  6  1  0
  2  3  2  3
  2  7  1  0
  3  8  1  0
  9 10  1  0
  9 14  1  0
  9 15  1  0
 10 11  1  0
 10 16  1  0
 10 17  1  0
 11 12  1  0
 12 13  1  0
 12 18  1  0
 12 19  1  0
 13 20  1  0
 13 21  1  0
 13 22  1  0
M  RAD  1   9   2
M  END
>  <reaction>  (9) 
rmg_rxn_16472

>  <mol_properties>  (9) 
{"1": {"label": "*0", "atom_type": "Cd"}, "2": {"label": "*1", "atom_type": "N3d"}, "7": {"label": "*2", "atom_type": "H0"}, "8": {"label": "*3", "atom_type": "Cs"}, "9": {"label": "*4", "atom_type": "Cs"}}

>  <type>  (9) 
unop_5

>  <geom_source>  (9) 
Heuristics

$$$$

     RDKit          3D

 22 20  0  0  0  0  0  0  0  0999 V2000
   -0.9560   -1.4980   -4.0634 C   0  0  0  0  0  0  0  0  0  0  0  0
   -0.9560   -1.4980   -2.5711 C   0  0  0  0  0  0  0  0  0  0  0  0
   -0.9560   -0.4254   -1.9034 N   0  0  0  0  0  0  0  0  0  0  0  0
   -0.0778   -2.0280   -4.4408 H   0  0  0  0  0  0  0  0  0  0  0  0
   -1.8343   -2.0280   -4.4408 H   0  0  0  0  0  0  0  0  0  0  0  0
   -0.9560   -0.4774   -4.4420 H   0  0  0  0  0  0  0  0  0  0  0  0
   -0.9560   -2.4877   -2.0964 H   0  0  0  0  0  0  0  0  0  0  0  0
   -0.9560   -0.6556   -0.7038 H   0  0  0  0  0  0  0  0  0  0  0  0
   -0.9560   -0.9022    0.5814 C   0  0  0  0  0  3  0  0  0  0  0  0
   -0.9560    0.3897    1.3818 C   0  0  0  0  0  0  0  0  0  0  0  0
    0.3903    1.5341    0.9870 S   0  0  0  0  0  0  0  0  0  0  0  0
    1.8569    0.5491    1.3833 C   0  0  0  0  0  0  0  0  0  0  0  0
    1.9553    0.0981    2.8313 C   0  0  0  0  0  0  0  0  0  0  0  0
   -0.0807   -1.5130    0.8089 H   0  0  0  0  0  0  0  0  0  0  0  0
   -1.8410   -1.4959    0.8208 H   0  0  0  0  0  0  0  0  0  0  0  0
   -0.9559    0.1845    2.4536 H   0  0  0  0  0  0  0  0  0  0  0  0
   -1.8576    0.9679    1.1727 H   0  0  0  0  0  0  0  0  0  0  0  0
    1.9165   -0.3031    0.7044 H   0  0  0  0  0  0  0  0  0  0  0  0
    2.6885    1.2096    1.1324 H   0  0  0  0  0  0  0  0  0  0  0  0
    1.1538   -0.5963    3.0887 H   0  0  0  0  0  0  0  0  0  0  0  0
    2.9029   -0.4170    3.0039 H   0  0  0  0  0  0  0  0  0  0  0  0
    1.8956    0.9501    3.5094 H   0  0  0  0  0  0  0  0  0  0  0  0
  1  2  1  0
  1  4  1  0
  1  5  1  0
  1  6  1  0
  2  3  2  3
  2  7  1  0
  3  8  1  0
  9 10  1  0
  9 14  1  0
  9 15  1  0
 10 11  1  0
 10 16  1  0
 10 17  1  0
 11 12  1  0
 12 13  1  0
 12 18  1  0
 12 19  1  0
 13 20  1  0
 13 21  1  0
 13 22  1  0
M  RAD  1   9   2
M  END
>  <reaction>  (10) 
rmg_rxn_16472

>  <mol_properties>  (10) 
{"1": {"label": "*0", "atom_type": "Cd"}, "2": {"label": "*1", "atom_type": "N3d"}, "7": {"label": "*2", "atom_type": "H0"}, "8": {"label": "*3", "atom_type": "Cs"}, "9": {"label": "*4", "atom_type": "Cs"}}

>  <type>  (10) 
unop_6

>  <geom_source>  (10) 
Heuristics

$$$$

     RDKit          3D

 22 20  0  0  0  0  0  0  0  0999 V2000
    1.2784   -1.2414   -3.4520 C   0  0  0  0  0  0  0  0  0  0  0  0
    1.2784   -1.2414   -1.9596 C   0  0  0  0  0  0  0  0  0  0  0  0
    1.2784   -0.1688   -1.2920 N   0  0  0  0  0  0  0  0  0  0  0  0
    2.1567   -1.7714   -3.8294 H   0  0  0  0  0  0  0  0  0  0  0  0
    0.4001   -1.7714   -3.8294 H   0  0  0  0  0  0  0  0  0  0  0  0
    1.2784   -0.2208   -3.8306 H   0  0  0  0  0  0  0  0  0  0  0  0
    1.2784   -2.2311   -1.4850 H   0  0  0  0  0  0  0  0  0  0  0  0
    1.2784   -0.3989   -0.0924 H   0  0  0  0  0  0  0  0  0  0  0  0
    1.2784   -0.6455    1.1929 C   0  0  0  0  0  3  0  0  0  0  0  0
   -0.1412   -0.7478    1.7258 C   0  0  0  0  0  0  0  0  0  0  0  0
   -1.4193   -0.0815    0.6301 S   0  0  0  0  0  0  0  0  0  0  0  0
   -0.9273    1.6546    0.4814 C   0  0  0  0  0  0  0  0  0  0  0  0
   -0.8979    2.4279    1.7894 C   0  0  0  0  0  0  0  0  0  0  0  0
    1.5959    0.3943    1.0992 H   0  0  0  0  0  0  0  0  0  0  0  0
    1.9748   -1.1407    1.8731 H   0  0  0  0  0  0  0  0  0  0  0  0
   -0.2238   -0.2790    2.7078 H   0  0  0  0  0  0  0  0  0  0  0  0
   -0.4268   -1.7935    1.8517 H   0  0  0  0  0  0  0  0  0  0  0  0
    0.0345    1.7171   -0.0303 H   0  0  0  0  0  0  0  0  0  0  0  0
   -1.6714    2.0780   -0.1953 H   0  0  0  0  0  0  0  0  0  0  0  0
   -0.1305    2.0437    2.4634 H   0  0  0  0  0  0  0  0  0  0  0  0
   -0.6726    3.4802    1.6022 H   0  0  0  0  0  0  0  0  0  0  0  0
   -1.8592    2.3652    2.3005 H   0  0  0  0  0  0  0  0  0  0  0  0
  1  2  1  0
  1  4  1  0
  1  5  1  0
  1  6  1  0
  2  3  2  3
  2  7  1  0
  3  8  1  0
  9 10  1  0
  9 14  1  0
  9 15  1  0
 10 11  1  0
 10 16  1  0
 10 17  1  0
 11 12  1  0
 12 13  1  0
 12 18  1  0
 12 19  1  0
 13 20  1  0
 13 21  1  0
 13 22  1  0
M  RAD  1   9   2
M  END
>  <reaction>  (11) 
rmg_rxn_16472

>  <mol_properties>  (11) 
{"1": {"label": "*0", "atom_type": "Cd"}, "2": {"label": "*1", "atom_type": "N3d"}, "7": {"label": "*2", "atom_type": "H0"}, "8": {"label": "*3", "atom_type": "Cs"}, "9": {"label": "*4", "atom_type": "Cs"}}

>  <type>  (11) 
unop_7

>  <geom_source>  (11) 
Heuristics

$$$$

     RDKit          3D

 22 20  0  0  0  0  0  0  0  0999 V2000
    0.7608   -1.7749   -3.5498 C   0  0  0  0  0  0  0  0  0  0  0  0
    0.7608   -1.7749   -2.0574 C   0  0  0  0  0  0  0  0  0  0  0  0
    0.7608   -0.7022   -1.3897 N   0  0  0  0  0  0  0  0  0  0  0  0
    1.6391   -2.3049   -3.9272 H   0  0  0  0  0  0  0  0  0  0  0  0
   -0.1174   -2.3049   -3.9272 H   0  0  0  0  0  0  0  0  0  0  0  0
    0.7608   -0.7543   -3.9283 H   0  0  0  0  0  0  0  0  0  0  0  0
    0.7608   -2.7646   -1.5828 H   0  0  0  0  0  0  0  0  0  0  0  0
    0.7608   -0.9324   -0.1901 H   0  0  0  0  0  0  0  0  0  0  0  0
    0.7608   -1.1790    1.0951 C   0  0  0  0  0  3  0  0  0  0  0  0
   -0.4685   -0.5842    1.7618 C   0  0  0  0  0  0  0  0  0  0  0  0
   -1.3579    0.6426    0.7708 S   0  0  0  0  0  0  0  0  0  0  0  0
   -0.0978    1.9189    0.5228 C   0  0  0  0  0  0  0  0  0  0  0  0
    0.4321    2.5542    1.7976 C   0  0  0  0  0  0  0  0  0  0  0  0
    1.5349   -0.4256    0.9399 H   0  0  0  0  0  0  0  0  0  0  0  0
    1.1890   -1.9643    1.7220 H   0  0  0  0  0  0  0  0  0  0  0  0
   -0.2161   -0.1536    2.7322 H   0  0  0  0  0  0  0  0  0  0  0  0
   -1.2147   -1.3589    1.9462 H   0  0  0  0  0  0  0  0  0  0  0  0
    0.7172    1.5128   -0.0786 H   0  0  0  0  0  0  0  0  0  0  0  0
   -0.6020    2.6648   -0.0939 H   0  0  0  0  0  0  0  0  0  0  0  0
    0.9755    1.8311    2.4083 H   0  0  0  0  0  0  0  0  0  0  0  0
    1.1232    3.3652    1.5576 H   0  0  0  0  0  0  0  0  0  0  0  0
   -0.3827    2.9598    2.3984 H   0  0  0  0  0  0  0  0  0  0  0  0
  1  2  1  0
  1  4  1  0
  1  5  1  0
  1  6  1  0
  2  3  2  3
  2  7  1  0
  3  8  1  0
  9 10  1  0
  9 14  1  0
  9 15  1  0
 10 11  1  0
 10 16  1  0
 10 17  1  0
 11 12  1  0
 12 13  1  0
 12 18  1  0
 12 19  1  0
 13 20  1  0
 13 21  1  0
 13 22  1  0
M  RAD  1   9   2
M  END
>  <reaction>  (12) 
rmg_rxn_16472

>  <mol_properties>  (12) 
{"1": {"label": "*0", "atom_type": "Cd"}, "2": {"label": "*1", "atom_type": "N3d"}, "7": {"label": "*2", "atom_type": "H0"}, "8": {"label": "*3", "atom_type": "Cs"}, "9": {"label": "*4", "atom_type": "Cs"}}

>  <type>  (12) 
unop_8

>  <geom_source>  (12) 
Heuristics

$$$$

     RDKit          3D

 22 20  0  0  0  0  0  0  0  0999 V2000
   -0.8461    0.4251   -4.2837 C   0  0  0  0  0  0  0  0  0  0  0  0
   -0.8461    0.4251   -2.7914 C   0  0  0  0  0  0  0  0  0  0  0  0
   -0.8461    1.4977   -2.1237 N   0  0  0  0  0  0  0  0  0  0  0  0
    0.0322   -0.1049   -4.6611 H   0  0  0  0  0  0  0  0  0  0  0  0
   -1.7244   -0.1049   -4.6611 H   0  0  0  0  0  0  0  0  0  0  0  0
   -0.8461    1.4457   -4.6623 H   0  0  0  0  0  0  0  0  0  0  0  0
   -0.8461   -0.5646   -2.3167 H   0  0  0  0  0  0  0  0  0  0  0  0
   -0.8461    1.2676   -0.9241 H   0  0  0  0  0  0  0  0  0  0  0  0
   -0.8461    1.0210    0.3611 C   0  0  0  0  0  3  0  0  0  0  0  0
    0.5734    0.9187    0.8941 C   0  0  0  0  0  0  0  0  0  0  0  0
    1.2429   -0.7619    0.9697 S   0  0  0  0  0  0  0  0  0  0  0  0
    0.0876   -1.5823    2.0969 C   0  0  0  0  0  0  0  0  0  0  0  0
    0.0138   -0.9806    3.4905 C   0  0  0  0  0  0  0  0  0  0  0  0
   -1.5594    0.5351    1.0290 H   0  0  0  0  0  0  0  0  0  0  0  0
   -1.1424    2.0684    0.2715 H   0  0  0  0  0  0  0  0  0  0  0  0
    0.6561    1.3873    1.8761 H   0  0  0  0  0  0  0  0  0  0  0  0
    1.2667    1.4446    0.2356 H   0  0  0  0  0  0  0  0  0  0  0  0
   -0.9011   -1.6237    1.6370 H   0  0  0  0  0  0  0  0  0  0  0  0
    0.4557   -2.6086    2.1437 H   0  0  0  0  0  0  0  0  0  0  0  0
   -0.3913    0.0325    3.4671 H   0  0  0  0  0  0  0  0  0  0  0  0
   -0.6400   -1.5801    4.1277 H   0  0  0  0  0  0  0  0  0  0  0  0
    1.0021   -0.9392    3.9497 H   0  0  0  0  0  0  0  0  0  0  0  0
  1  2  1  0
  1  4  1  0
  1  5  1  0
  1  6  1  0
  2  3  2  3
  2  7  1  0
  3  8  1  0
  9 10  1  0
  9 14  1  0
  9 15  1  0
 10 11  1  0
 10 16  1  0
 10 17  1  0
 11 12  1  0
 12 13  1  0
 12 18  1  0
 12 19  1  0
 13 20  1  0
 13 21  1  0
 13 22  1  0
M  RAD  1   9   2
M  END
>  <reaction>  (13) 
rmg_rxn_16472

>  <mol_properties>  (13) 
{"1": {"label": "*0", "atom_type": "Cd"}, "2": {"label": "*1", "atom_type": "N3d"}, "7": {"label": "*2", "atom_type": "H0"}, "8": {"label": "*3", "atom_type": "Cs"}, "9": {"label": "*4", "atom_type": "Cs"}}

>  <type>  (13) 
unop_9

>  <geom_source>  (13) 
Heuristics

$$$$

     RDKit          3D

 22 20  0  0  0  0  0  0  0  0999 V2000
   -4.8817    0.1780    0.4406 C   0  0  0  0  0  0  0  0  0  0  0  0
   -3.4619   -0.1455    0.0881 C   0  0  0  0  0  0  0  0  0  0  0  0
   -2.7040    0.6767   -0.4471 N   0  0  0  0  0  0  0  0  0  0  0  0
   -5.1151    1.2026    0.1657 H   0  0  0  0  0  0  0  0  0  0  0  0
   -5.5471   -0.5049   -0.0850 H   0  0  0  0  0  0  0  0  0  0  0  0
   -5.0277    0.0407    1.5108 H   0  0  0  0  0  0  0  0  0  0  0  0
   -3.1660   -1.1729    0.3488 H   0  0  0  0  0  0  0  0  0  0  0  0
   -1.5515    0.2625   -0.6767 H   0  0  0  0  0  0  0  0  0  0  0  0
   -0.3755   -0.2470   -0.8888 C   0  0  0  0  0  3  0  0  0  0  0  0
    0.3683   -0.2376    0.3979 C   0  0  0  0  0  0  0  0  0  0  0  0
    2.0551   -0.9796    0.1949 S   0  0  0  0  0  0  0  0  0  0  0  0
    2.9633    0.4217   -0.5431 C   0  0  0  0  0  0  0  0  0  0  0  0
    3.3815    1.4507    0.4898 C   0  0  0  0  0  0  0  0  0  0  0  0
    0.0492    0.3962   -1.6520 H   0  0  0  0  0  0  0  0  0  0  0  0
   -0.5598   -1.2455   -1.2708 H   0  0  0  0  0  0  0  0  0  0  0  0
   -0.1056   -0.8660    1.1503 H   0  0  0  0  0  0  0  0  0  0  0  0
    0.5070    0.7651    0.7972 H   0  0  0  0  0  0  0  0  0  0  0  0
    3.8344   -0.0302   -1.0161 H   0  0  0  0  0  0  0  0  0  0  0  0
    2.3291    0.8581   -1.3136 H   0  0  0  0  0  0  0  0  0  0  0  0
    2.5137    1.8961    0.9719 H   0  0  0  0  0  0  0  0  0  0  0  0
    3.9998    0.9864    1.2544 H   0  0  0  0  0  0  0  0  0  0  0  0
    3.9521    2.2447    0.0118 H   0  0  0  0  0  0  0  0  0  0  0  0
  1  2  1  0
  1  4  1  0
  1  5  1  0
  1  6  1  0
  2  3  2  3
  2  7  1  0
  3  8  1  0
  9 10  1  0
  9 14  1  0
  9 15  1  0
 10 11  1  0
 10 16  1  0
 10 17  1  0
 11 12  1  0
 12 13  1  0
 12 18  1  0
 12 19  1  0
 13 20  1  0
 13 21  1  0
 13 22  1  0
M  RAD  1   9   2
M  END
>  <reaction>  (14) 
rmg_rxn_16472

>  <mol_properties>  (14) 
{"1": {"label": "*0", "atom_type": "Cd"}, "2": {"label": "*1", "atom_type": "N3d"}, "7": {"label": "*2", "atom_type": "H0"}, "8": {"label": "*3", "atom_type": "Cs"}, "9": {"label": "*4", "atom_type": "Cs"}}

>  <type>  (14) 
unop_10

>  <geom_source>  (14) 
Heuristics

$$$$

     RDKit          3D

 22 20  0  0  0  0  0  0  0  0999 V2000
    1.3562    0.0588   -3.4855 C   0  0  0  0  0  0  0  0  0  0  0  0
    1.3562    0.0588   -1.9932 C   0  0  0  0  0  0  0  0  0  0  0  0
    1.3562    1.1314   -1.3255 N   0  0  0  0  0  0  0  0  0  0  0  0
    2.2345   -0.4712   -3.8629 H   0  0  0  0  0  0  0  0  0  0  0  0
    0.4780   -0.4712   -3.8629 H   0  0  0  0  0  0  0  0  0  0  0  0
    1.3562    1.0794   -3.8641 H   0  0  0  0  0  0  0  0  0  0  0  0
    1.3562   -0.9309   -1.5185 H   0  0  0  0  0  0  0  0  0  0  0  0
    1.3562    0.9012   -0.1259 H   0  0  0  0  0  0  0  0  0  0  0  0
    1.3562    0.6546    1.1594 C   0  0  0  0  0  3  0  0  0  0  0  0
    0.6464   -0.6550    1.4606 C   0  0  0  0  0  0  0  0  0  0  0  0
   -0.8009   -0.9958    0.4275 S   0  0  0  0  0  0  0  0  0  0  0  0
   -1.8807    0.4066    0.8088 C   0  0  0  0  0  0  0  0  0  0  0  0
   -2.2897    0.5238    2.2678 C   0  0  0  0  0  0  0  0  0  0  0  0
    0.7227    1.5137    1.3863 H   0  0  0  0  0  0  0  0  0  0  0  0
    2.2596    0.7442    1.7668 H   0  0  0  0  0  0  0  0  0  0  0  0
    0.3632   -0.7120    2.5129 H   0  0  0  0  0  0  0  0  0  0  0  0
    1.3083   -1.5007    1.2670 H   0  0  0  0  0  0  0  0  0  0  0  0
   -1.4150    1.3294    0.4589 H   0  0  0  0  0  0  0  0  0  0  0  0
   -2.7563    0.2383    0.1797 H   0  0  0  0  0  0  0  0  0  0  0  0
   -1.4309    0.7333    2.9078 H   0  0  0  0  0  0  0  0  0  0  0  0
   -3.0017    1.3420    2.3969 H   0  0  0  0  0  0  0  0  0  0  0  0
   -2.7549   -0.3986    2.6171 H   0  0  0  0  0  0  0  0  0  0  0  0
  1  2  1  0
  1  4  1  0
  1  5  1  0
  1  6  1  0
  2  3  2  3
  2  7  1  0
  3  8  1  0
  9 10  1  0
  9 14  1  0
  9 15  1  0
 10 11  1  0
 10 16  1  0
 10 17  1  0
 11 12  1  0
 12 13  1  0
 12 18  1  0
 12 19  1  0
 13 20  1  0
 13 21  1  0
 13 22  1  0
M  RAD  1   9   2
M  END
>  <reaction>  (15) 
rmg_rxn_16472

>  <mol_properties>  (15) 
{"1": {"label": "*0", "atom_type": "Cd"}, "2": {"label": "*1", "atom_type": "N3d"}, "7": {"label": "*2", "atom_type": "H0"}, "8": {"label": "*3", "atom_type": "Cs"}, "9": {"label": "*4", "atom_type": "Cs"}}

>  <type>  (15) 
unop_11

>  <geom_source>  (15) 
Heuristics

$$$$

     RDKit          3D

 22 20  0  0  0  0  0  0  0  0999 V2000
   -0.3428    0.7944   -4.1106 C   0  0  0  0  0  0  0  0  0  0  0  0
   -0.3428    0.7944   -2.6183 C   0  0  0  0  0  0  0  0  0  0  0  0
   -0.3428    1.8671   -1.9506 N   0  0  0  0  0  0  0  0  0  0  0  0
    0.5354    0.2645   -4.4880 H   0  0  0  0  0  0  0  0  0  0  0  0
   -1.2211    0.2645   -4.4880 H   0  0  0  0  0  0  0  0  0  0  0  0
   -0.3428    1.8151   -4.4892 H   0  0  0  0  0  0  0  0  0  0  0  0
   -0.3428   -0.1952   -2.1436 H   0  0  0  0  0  0  0  0  0  0  0  0
   -0.3428    1.6369   -0.7510 H   0  0  0  0  0  0  0  0  0  0  0  0
   -0.3428    1.3903    0.5342 C   0  0  0  0  0  3  0  0  0  0  0  0
    0.8865    0.5910    0.9334 C   0  0  0  0  0  0  0  0  0  0  0  0
    0.7139   -1.2049    0.7811 S   0  0  0  0  0  0  0  0  0  0  0  0
   -0.6569   -1.5536    1.9114 C   0  0  0  0  0  0  0  0  0  0  0  0
   -0.4082   -1.1685    3.3603 C   0  0  0  0  0  0  0  0  0  0  0  0
   -1.1806    1.1969    1.2063 H   0  0  0  0  0  0  0  0  0  0  0  0
   -0.1289    2.4606    0.5769 H   0  0  0  0  0  0  0  0  0  0  0  0
    1.2019    0.8409    1.9477 H   0  0  0  0  0  0  0  0  0  0  0  0
    1.7251    0.8276    0.2763 H   0  0  0  0  0  0  0  0  0  0  0  0
   -1.5672   -1.0849    1.5339 H   0  0  0  0  0  0  0  0  0  0  0  0
   -0.7985   -2.6320    1.8224 H   0  0  0  0  0  0  0  0  0  0  0  0
   -0.3048   -0.0881    3.4743 H   0  0  0  0  0  0  0  0  0  0  0  0
   -1.2460   -1.4852    3.9855 H   0  0  0  0  0  0  0  0  0  0  0  0
    0.5017   -1.6370    3.7371 H   0  0  0  0  0  0  0  0  0  0  0  0
  1  2  1  0
  1  4  1  0
  1  5  1  0
  1  6  1  0
  2  3  2  3
  2  7  1  0
  3  8  1  0
  9 10  1  0
  9 14  1  0
  9 15  1  0
 10 11  1  0
 10 16  1  0
 10 17  1  0
 11 12  1  0
 12 13  1  0
 12 18  1  0
 12 19  1  0
 13 20  1  0
 13 21  1  0
 13 22  1  0
M  RAD  1   9   2
M  END
>  <reaction>  (16) 
rmg_rxn_16472

>  <mol_properties>  (16) 
{"1": {"label": "*0", "atom_type": "Cd"}, "2": {"label": "*1", "atom_type": "N3d"}, "7": {"label": "*2", "atom_type": "H0"}, "8": {"label": "*3", "atom_type": "Cs"}, "9": {"label": "*4", "atom_type": "Cs"}}

>  <type>  (16) 
unop_12

>  <geom_source>  (16) 
Heuristics

$$$$

     RDKit          3D

 22 20  0  0  0  0  0  0  0  0999 V2000
   -0.0858   -1.9710   -3.7248 C   0  0  0  0  0  0  0  0  0  0  0  0
   -0.0858   -1.9710   -2.2325 C   0  0  0  0  0  0  0  0  0  0  0  0
   -0.0858   -0.8984   -1.5648 N   0  0  0  0  0  0  0  0  0  0  0  0
    0.7925   -2.5010   -4.1022 H   0  0  0  0  0  0  0  0  0  0  0  0
   -0.9640   -2.5010   -4.1022 H   0  0  0  0  0  0  0  0  0  0  0  0
   -0.0858   -0.9504   -4.1034 H   0  0  0  0  0  0  0  0  0  0  0  0
   -0.0858   -2.9607   -1.7579 H   0  0  0  0  0  0  0  0  0  0  0  0
   -0.0858   -1.1286   -0.3652 H   0  0  0  0  0  0  0  0  0  0  0  0
   -0.0858   -1.3752    0.9200 C   0  0  0  0  0  3  0  0  0  0  0  0
   -0.7955   -0.2701    1.6846 C   0  0  0  0  0  0  0  0  0  0  0  0
   -0.7827    1.3497    0.8757 S   0  0  0  0  0  0  0  0  0  0  0  0
    0.9890    1.7039    0.7590 C   0  0  0  0  0  0  0  0  0  0  0  0
    1.7189    1.7732    2.0902 C   0  0  0  0  0  0  0  0  0  0  0  0
    0.9855   -1.1822    0.8417 H   0  0  0  0  0  0  0  0  0  0  0  0
   -0.2098   -2.3310    1.4338 H   0  0  0  0  0  0  0  0  0  0  0  0
   -0.3941   -0.1749    2.6948 H   0  0  0  0  0  0  0  0  0  0  0  0
   -1.8573   -0.4996    1.7886 H   0  0  0  0  0  0  0  0  0  0  0  0
    1.4611    0.9802    0.0925 H   0  0  0  0  0  0  0  0  0  0  0  0
    1.0276    2.6696    0.2523 H   0  0  0  0  0  0  0  0  0  0  0  0
    1.7258    0.8045    2.5928 H   0  0  0  0  0  0  0  0  0  0  0  0
    2.7588    2.0700    1.9369 H   0  0  0  0  0  0  0  0  0  0  0  0
    1.2468    2.4964    2.7560 H   0  0  0  0  0  0  0  0  0  0  0  0
  1  2  1  0
  1  4  1  0
  1  5  1  0
  1  6  1  0
  2  3  2  3
  2  7  1  0
  3  8  1  0
  9 10  1  0
  9 14  1  0
  9 15  1  0
 10 11  1  0
 10 16  1  0
 10 17  1  0
 11 12  1  0
 12 13  1  0
 12 18  1  0
 12 19  1  0
 13 20  1  0
 13 21  1  0
 13 22  1  0
M  RAD  1   9   2
M  END
>  <reaction>  (17) 
rmg_rxn_16472

>  <mol_properties>  (17) 
{"1": {"label": "*0", "atom_type": "Cd"}, "2": {"label": "*1", "atom_type": "N3d"}, "7": {"label": "*2", "atom_type": "H0"}, "8": {"label": "*3", "atom_type": "Cs"}, "9": {"label": "*4", "atom_type": "Cs"}}

>  <type>  (17) 
unop_13

>  <geom_source>  (17) 
Heuristics

$$$$

     RDKit          3D

 22 20  0  0  0  0  0  0  0  0999 V2000
    0.9560    0.5984   -3.6612 C   0  0  0  0  0  0  0  0  0  0  0  0
    0.9560    0.5984   -2.1688 C   0  0  0  0  0  0  0  0  0  0  0  0
    0.9560    1.6710   -1.5012 N   0  0  0  0  0  0  0  0  0  0  0  0
    1.8343    0.0684   -4.0386 H   0  0  0  0  0  0  0  0  0  0  0  0
    0.0778    0.0684   -4.0386 H   0  0  0  0  0  0  0  0  0  0  0  0
    0.9560    1.6190   -4.0398 H   0  0  0  0  0  0  0  0  0  0  0  0
    0.9560   -0.3913   -1.6942 H   0  0  0  0  0  0  0  0  0  0  0  0
    0.9560    1.4409   -0.3016 H   0  0  0  0  0  0  0  0  0  0  0  0
    0.9560    1.1943    0.9837 C   0  0  0  0  0  3  0  0  0  0  0  0
    0.9560   -0.3021    1.2491 C   0  0  0  0  0  0  0  0  0  0  0  0
   -0.3903   -1.2191    0.4588 S   0  0  0  0  0  0  0  0  0  0  0  0
   -1.8569   -0.4507    1.1915 C   0  0  0  0  0  0  0  0  0  0  0  0
   -1.9553   -0.5677    2.7035 C   0  0  0  0  0  0  0  0  0  0  0  0
    0.0807    1.6775    1.4211 H   0  0  0  0  0  0  0  0  0  0  0  0
    1.8410    1.6573    1.4258 H   0  0  0  0  0  0  0  0  0  0  0  0
    0.9559   -0.5081    2.3207 H   0  0  0  0  0  0  0  0  0  0  0  0
    1.8576   -0.7618    0.8408 H   0  0  0  0  0  0  0  0  0  0  0  0
   -1.9165    0.5923    0.8762 H   0  0  0  0  0  0  0  0  0  0  0  0
   -2.6885   -0.9714    0.7139 H   0  0  0  0  0  0  0  0  0  0  0  0
   -1.1538   -0.0179    3.1997 H   0  0  0  0  0  0  0  0  0  0  0  0
   -2.9029   -0.1531    3.0545 H   0  0  0  0  0  0  0  0  0  0  0  0
   -1.8956   -1.6101    3.0182 H   0  0  0  0  0  0  0  0  0  0  0  0
  1  2  1  0
  1  4  1  0
  1  5  1  0
  1  6  1  0
  2  3  2  3
  2  7  1  0
  3  8  1  0
  9 10  1  0
  9 14  1  0
  9 15  1  0
 10 11  1  0
 10 16  1  0
 10 17  1  0
 11 12  1  0
 12 13  1  0
 12 18  1  0
 12 19  1  0
 13 20  1  0
 13 21  1  0
 13 22  1  0
M  RAD  1   9   2
M  END
>  <reaction>  (18) 
rmg_rxn_16472

>  <mol_properties>  (18) 
{"1": {"label": "*0", "atom_type": "Cd"}, "2": {"label": "*1", "atom_type": "N3d"}, "7": {"label": "*2", "atom_type": "H0"}, "8": {"label": "*3", "atom_type": "Cs"}, "9": {"label": "*4", "atom_type": "Cs"}}

>  <type>  (18) 
unop_14

>  <geom_source>  (18) 
Heuristics

$$$$

     RDKit          3D

 22 20  0  0  0  0  0  0  0  0999 V2000
    0.3239    0.8756   -3.8931 C   0  0  0  0  0  0  0  0  0  0  0  0
    0.3239    0.8756   -2.4008 C   0  0  0  0  0  0  0  0  0  0  0  0
    0.3239    1.9482   -1.7331 N   0  0  0  0  0  0  0  0  0  0  0  0
    1.2021    0.3456   -4.2705 H   0  0  0  0  0  0  0  0  0  0  0  0
   -0.5544    0.3456   -4.2705 H   0  0  0  0  0  0  0  0  0  0  0  0
    0.3239    1.8962   -4.2717 H   0  0  0  0  0  0  0  0  0  0  0  0
    0.3239   -0.1141   -1.9262 H   0  0  0  0  0  0  0  0  0  0  0  0
    0.3239    1.7180   -0.5335 H   0  0  0  0  0  0  0  0  0  0  0  0
    0.3239    1.4714    0.7517 C   0  0  0  0  0  3  0  0  0  0  0  0
    1.0336    0.1618    1.0530 C   0  0  0  0  0  0  0  0  0  0  0  0
    0.1149   -1.3293    0.5939 S   0  0  0  0  0  0  0  0  0  0  0  0
   -1.3826   -1.1799    1.6006 C   0  0  0  0  0  0  0  0  0  0  0  0
   -1.1465   -1.1467    3.1015 C   0  0  0  0  0  0  0  0  0  0  0  0
   -0.5808    1.5827    1.3519 H   0  0  0  0  0  0  0  0  0  0  0  0
    0.9757    2.3171    0.9818 H   0  0  0  0  0  0  0  0  0  0  0  0
    1.3166    0.1047    2.1054 H   0  0  0  0  0  0  0  0  0  0  0  0
    1.9561    0.0863    0.4749 H   0  0  0  0  0  0  0  0  0  0  0  0
   -1.9530   -0.3080    1.2761 H   0  0  0  0  0  0  0  0  0  0  0  0
   -1.9684   -2.0587    1.3261 H   0  0  0  0  0  0  0  0  0  0  0  0
   -0.5967   -0.2525    3.3997 H   0  0  0  0  0  0  0  0  0  0  0  0
   -2.0998   -1.1381    3.6347 H   0  0  0  0  0  0  0  0  0  0  0  0
   -0.5763   -2.0181    3.4254 H   0  0  0  0  0  0  0  0  0  0  0  0
  1  2  1  0
  1  4  1  0
  1  5  1  0
  1  6  1  0
  2  3  2  3
  2  7  1  0
  3  8  1  0
  9 10  1  0
  9 14  1  0
  9 15  1  0
 10 11  1  0
 10 16  1  0
 10 17  1  0
 11 12  1  0
 12 13  1  0
 12 18  1  0
 12 19  1  0
 13 20  1  0
 13 21  1  0
 13 22  1  0
M  RAD  1   9   2
M  END
>  <reaction>  (19) 
rmg_rxn_16472

>  <mol_properties>  (19) 
{"1": {"label": "*0", "atom_type": "Cd"}, "2": {"label": "*1", "atom_type": "N3d"}, "7": {"label": "*2", "atom_type": "H0"}, "8": {"label": "*3", "atom_type": "Cs"}, "9": {"label": "*4", "atom_type": "Cs"}}

>  <type>  (19) 
unop_15

>  <geom_source>  (19) 
gaussian_log

$$$$
