
     RDKit          3D

  5  4  0  0  0  0  0  0  0  0999 V2000
   -0.4583    0.0384    0.1517 N   0  0  0  0  0  0  0  0  0  0  0  0
    0.7454   -0.3487    0.5322 N   0  0  0  0  0  0  0  0  0  0  0  0
    0.7566   -1.0388    1.5193 O   0  0  0  0  0  0  0  0  0  0  0  0
   -1.2688   -0.2521    0.6850 H   0  0  0  0  0  0  0  0  0  0  0  0
   -0.5137    0.6154   -0.6670 H   0  0  0  0  0  0  0  0  0  0  0  0
  1  2  1  0
  1  4  1  0
  1  5  1  0
  2  3  2  0
M  END
>  <reaction>  (1) 
rmg_rxn_1485

>  <mol_properties>  (1) 
{"0": {"label": "donator", "atom_type": "N3s"}, "3": {"label": "d_hydrogen", "atom_type": "H0"}}

>  <type>  (1) 
r1h

$$$$

     RDKit          3D

 14 13  0  0  0  0  0  0  0  0999 V2000
    2.5796   -0.5432    0.2329 C   0  0  0  0  0  3  0  0  0  0  0  0
    1.2594    0.0982    0.3029 C   0  0  0  0  0  0  0  0  0  0  0  0
   -0.0483   -1.0244    0.9576 S   0  0  0  0  0  0  0  0  0  0  0  0
   -0.0049   -2.3732   -0.2491 C   0  0  0  0  0  0  0  0  0  0  0  0
   -0.3891   -1.9781   -1.6653 C   0  0  0  0  0  0  0  0  0  0  0  0
    2.9359   -0.9798   -0.6903 H   0  0  0  0  0  0  0  0  0  0  0  0
    3.1327   -0.7454    1.1400 H   0  0  0  0  0  0  0  0  0  0  0  0
    0.9347    0.4858   -0.6621 H   0  0  0  0  0  0  0  0  0  0  0  0
    1.2442    0.9220    1.0193 H   0  0  0  0  0  0  0  0  0  0  0  0
    0.9819   -2.8380   -0.2257 H   0  0  0  0  0  0  0  0  0  0  0  0
   -0.7110   -3.1037    0.1493 H   0  0  0  0  0  0  0  0  0  0  0  0
    0.3274   -1.2737   -2.0913 H   0  0  0  0  0  0  0  0  0  0  0  0
   -0.4075   -2.8581   -2.3121 H   0  0  0  0  0  0  0  0  0  0  0  0
   -1.3749   -1.5123   -1.6865 H   0  0  0  0  0  0  0  0  0  0  0  0
  1  2  1  0
  1  6  1  0
  1  7  1  0
  2  3  1  0
  2  8  1  0
  2  9  1  0
  3  4  1  0
  4  5  1  0
  4 10  1  0
  4 11  1  0
  5 12  1  0
  5 13  1  0
  5 14  1  0
M  RAD  1   1   2
M  END
>  <reaction>  (2) 
rmg_rxn_1485

>  <mol_properties>  (2) 
{"0": {"label": "acceptor", "atom_type": "Cs"}}

>  <type>  (2) 
r2

$$$$

     RDKit          3D

 15 14  0  0  0  0  0  0  0  0999 V2000
   -2.0554    0.0723   -0.4910 C   0  0  0  0  0  0  0  0  0  0  0  0
   -0.7461   -0.6266   -0.8178 C   0  0  0  0  0  0  0  0  0  0  0  0
    0.3249    0.2591   -1.9782 S   0  0  0  0  0  0  0  0  0  0  0  0
   -0.7172    0.3642   -3.4551 C   0  0  0  0  0  0  0  0  0  0  0  0
   -1.1375   -0.9737   -4.0409 C   0  0  0  0  0  0  0  0  0  0  0  0
   -2.7005    0.1427   -1.3684 H   0  0  0  0  0  0  0  0  0  0  0  0
   -2.6016   -0.4848    0.2733 H   0  0  0  0  0  0  0  0  0  0  0  0
   -1.8758    1.0825   -0.1213 H   0  0  0  0  0  0  0  0  0  0  0  0
   -0.1320   -0.7246    0.0789 H   0  0  0  0  0  0  0  0  0  0  0  0
   -0.9254   -1.6374   -1.1879 H   0  0  0  0  0  0  0  0  0  0  0  0
   -1.5873    0.9874   -3.2422 H   0  0  0  0  0  0  0  0  0  0  0  0
   -0.1021    0.9161   -4.1678 H   0  0  0  0  0  0  0  0  0  0  0  0
   -1.7876   -1.5224   -3.3574 H   0  0  0  0  0  0  0  0  0  0  0  0
   -0.2676   -1.5962   -4.2534 H   0  0  0  0  0  0  0  0  0  0  0  0
   -1.6916   -0.8229   -4.9700 H   0  0  0  0  0  0  0  0  0  0  0  0
  1  2  1  0
  1  6  1  0
  1  7  1  0
  1  8  1  0
  2  3  1  0
  2  9  1  0
  2 10  1  0
  3  4  1  0
  4  5  1  0
  4 11  1  0
  4 12  1  0
  5 13  1  0
  5 14  1  0
  5 15  1  0
M  END
>  <reaction>  (3) 
rmg_rxn_1485

>  <mol_properties>  (3) 
{"0": {"label": "a_hydrogen", "atom_type": "H0"}, "1": {"label": "acceptor", "atom_type": "Cs"}}

>  <type>  (3) 
r2h

$$$$

     RDKit          3D

 19 17  0  0  0  0  0  0  0  0999 V2000
    2.8703   -0.5462    0.0178 N   0  0  0  0  0  0  0  0  0  0  0  0
    3.0937    0.7192    0.0029 N   0  0  0  0  0  0  0  0  0  0  0  0
    2.1596    1.4777   -0.0867 O   0  0  0  0  0  0  0  0  0  0  0  0
    1.6794   -0.8774    0.2819 H   0  0  0  0  0  0  0  0  0  0  0  0
    3.6808   -1.0904    0.2879 H   0  0  0  0  0  0  0  0  0  0  0  0
    0.3736   -1.0498    0.6083 C   0  0  0  0  0  3  0  0  0  0  0  0
   -0.3868   -0.8061   -0.6571 C   0  0  0  0  0  0  0  0  0  0  0  0
   -2.1819   -0.9728   -0.4190 S   0  0  0  0  0  0  0  0  0  0  0  0
   -2.5403    0.3996    0.7105 C   0  0  0  0  0  0  0  0  0  0  0  0
   -2.1080    1.7702    0.2172 C   0  0  0  0  0  0  0  0  0  0  0  0
    0.2318   -0.3034    1.3863 H   0  0  0  0  0  0  0  0  0  0  0  0
    0.3321   -2.0686    0.9904 H   0  0  0  0  0  0  0  0  0  0  0  0
   -0.1456   -1.5517   -1.4155 H   0  0  0  0  0  0  0  0  0  0  0  0
   -0.1584    0.1742   -1.0721 H   0  0  0  0  0  0  0  0  0  0  0  0
   -3.6249    0.3564    0.8235 H   0  0  0  0  0  0  0  0  0  0  0  0
   -2.1124    0.1845    1.6905 H   0  0  0  0  0  0  0  0  0  0  0  0
   -1.0216    1.8545    0.1604 H   0  0  0  0  0  0  0  0  0  0  0  0
   -2.5189    1.9770   -0.7717 H   0  0  0  0  0  0  0  0  0  0  0  0
   -2.4596    2.5416    0.9054 H   0  0  0  0  0  0  0  0  0  0  0  0
  1  2  1  0
  1  4  1  0
  1  5  1  0
  2  3  2  0
  6  7  1  0
  6 11  1  0
  6 12  1  0
  7  8  1  0
  7 13  1  0
  7 14  1  0
  8  9  1  0
  9 10  1  0
  9 15  1  0
  9 16  1  0
 10 17  1  0
 10 18  1  0
 10 19  1  0
M  RAD  1   6   2
M  END
>  <reaction>  (4) 
rmg_rxn_1485

>  <mol_properties>  (4) 
{"0": {"label": "*1", "atom_type": "N3s"}, "1": {"label": "*0", "atom_type": "N3d"}, "3": {"label": "*2", "atom_type": "H0"}, "5": {"label": "*3", "atom_type": "Cs"}, "6": {"label": "*4", "atom_type": "Cs"}}

>  <type>  (4) 
ts

$$$$

     RDKit          3D

 19 17  0  0  0  0  0  0  0  0999 V2000
    2.9396   -0.6894   -0.2900 N   0  0  0  0  0  0  0  0  0  0  0  0
    3.3491    0.4444    0.0608 N   0  0  0  0  0  0  0  0  0  0  0  0
    2.6237    1.3886    0.2831 O   0  0  0  0  0  0  0  0  0  0  0  0
    1.7566   -0.9962   -0.4381 H   0  0  0  0  0  0  0  0  0  0  0  0
    3.6737   -1.3747   -0.4350 H   0  0  0  0  0  0  0  0  0  0  0  0
    0.4877   -1.2463   -0.5825 C   0  0  0  0  0  3  0  0  0  0  0  0
   -0.2301   -0.5903    0.5500 C   0  0  0  0  0  0  0  0  0  0  0  0
   -2.0504   -0.8380    0.3724 S   0  0  0  0  0  0  0  0  0  0  0  0
   -2.4712    0.5328   -0.7583 C   0  0  0  0  0  0  0  0  0  0  0  0
   -2.5617    1.8663   -0.0415 C   0  0  0  0  0  0  0  0  0  0  0  0
    0.3814   -2.3264   -0.5815 H   0  0  0  0  0  0  0  0  0  0  0  0
    0.2260   -0.8341   -1.5529 H   0  0  0  0  0  0  0  0  0  0  0  0
   -0.0515    0.4819    0.5959 H   0  0  0  0  0  0  0  0  0  0  0  0
    0.0209   -1.0424    1.5078 H   0  0  0  0  0  0  0  0  0  0  0  0
   -1.7213    0.5515   -1.5483 H   0  0  0  0  0  0  0  0  0  0  0  0
   -3.4326    0.2549   -1.1888 H   0  0  0  0  0  0  0  0  0  0  0  0
   -2.8536    2.6442   -0.7445 H   0  0  0  0  0  0  0  0  0  0  0  0
   -3.3017    1.8175    0.7539 H   0  0  0  0  0  0  0  0  0  0  0  0
   -1.6039    2.1426    0.3944 H   0  0  0  0  0  0  0  0  0  0  0  0
  1  2  1  0
  1  4  1  0
  1  5  1  0
  2  3  2  0
  6  7  1  0
  6 11  1  0
  6 12  1  0
  7  8  1  0
  7 13  1  0
  7 14  1  0
  8  9  1  0
  9 10  1  0
  9 15  1  0
  9 16  1  0
 10 17  1  0
 10 18  1  0
 10 19  1  0
M  RAD  1   6   2
M  END
>  <reaction>  (5) 
rmg_rxn_1485

>  <mol_properties>  (5) 
{"0": {"label": "*1", "atom_type": "N3s"}, "1": {"label": "*0", "atom_type": "N3d"}, "3": {"label": "*2", "atom_type": "H0"}, "5": {"label": "*3", "atom_type": "Cs"}, "6": {"label": "*4", "atom_type": "Cs"}}

>  <type>  (5) 
unop_1

>  <geom_source>  (5) 
crest_best.xyz

$$$$

     RDKit          3D

 19 17  0  0  0  0  0  0  0  0999 V2000
    1.0944   -1.6730    1.9703 N   0  0  0  0  0  0  0  0  0  0  0  0
    1.0944   -2.8758    1.4256 N   0  0  0  0  0  0  0  0  0  0  0  0
    1.0944   -2.8758    0.2211 O   0  0  0  0  0  0  0  0  0  0  0  0
    1.0944   -0.6903    1.2551 H   0  0  0  0  0  0  0  0  0  0  0  0
    1.0944   -1.6266    2.9724 H   0  0  0  0  0  0  0  0  0  0  0  0
    1.0944    0.3677    0.4850 C   0  0  0  0  0  3  0  0  0  0  0  0
   -0.1349    1.2242    0.7395 C   0  0  0  0  0  0  0  0  0  0  0  0
   -1.5288    0.9112   -0.3728 S   0  0  0  0  0  0  0  0  0  0  0  0
   -0.8183    1.2971   -1.9928 C   0  0  0  0  0  0  0  0  0  0  0  0
   -0.3253    2.7256   -2.1538 C   0  0  0  0  0  0  0  0  0  0  0  0
    1.5406    0.5880   -0.4863 H   0  0  0  0  0  0  0  0  0  0  0  0
    1.8542    0.5603    1.2457 H   0  0  0  0  0  0  0  0  0  0  0  0
    0.1174    2.2856    0.7160 H   0  0  0  0  0  0  0  0  0  0  0  0
   -0.5432    1.0201    1.7308 H   0  0  0  0  0  0  0  0  0  0  0  0
   -0.0256    0.5828   -2.2214 H   0  0  0  0  0  0  0  0  0  0  0  0
   -1.6341    1.0946   -2.6887 H   0  0  0  0  0  0  0  0  0  0  0  0
    0.5184    2.9337   -1.4937 H   0  0  0  0  0  0  0  0  0  0  0  0
    0.0107    2.8970   -3.1789 H   0  0  0  0  0  0  0  0  0  0  0  0
   -1.1177    3.4391   -1.9252 H   0  0  0  0  0  0  0  0  0  0  0  0
  1  2  1  0
  1  4  1  0
  1  5  1  0
  2  3  2  0
  6  7  1  0
  6 11  1  0
  6 12  1  0
  7  8  1  0
  7 13  1  0
  7 14  1  0
  8  9  1  0
  9 10  1  0
  9 15  1  0
  9 16  1  0
 10 17  1  0
 10 18  1  0
 10 19  1  0
M  RAD  1   6   2
M  END
>  <reaction>  (6) 
rmg_rxn_1485

>  <mol_properties>  (6) 
{"0": {"label": "*1", "atom_type": "N3s"}, "1": {"label": "*0", "atom_type": "N3d"}, "3": {"label": "*2", "atom_type": "H0"}, "5": {"label": "*3", "atom_type": "Cs"}, "6": {"label": "*4", "atom_type": "Cs"}}

>  <type>  (6) 
unop_2

>  <geom_source>  (6) 
Heuristics

$$$$

     RDKit          3D

 19 17  0  0  0  0  0  0  0  0999 V2000
    2.9399   -0.6893   -0.2911 N   0  0  0  0  0  0  0  0  0  0  0  0
    3.3508    0.4437    0.0608 N   0  0  0  0  0  0  0  0  0  0  0  0
    2.6266    1.3885    0.2840 O   0  0  0  0  0  0  0  0  0  0  0  0
    1.7567   -0.9952   -0.4389 H   0  0  0  0  0  0  0  0  0  0  0  0
    3.6732   -1.3754   -0.4365 H   0  0  0  0  0  0  0  0  0  0  0  0
    0.4876   -1.2449   -0.5829 C   0  0  0  0  0  3  0  0  0  0  0  0
   -0.2300   -0.5886    0.5496 C   0  0  0  0  0  0  0  0  0  0  0  0
   -2.0502   -0.8379    0.3734 S   0  0  0  0  0  0  0  0  0  0  0  0
   -2.4731    0.5314   -0.7583 C   0  0  0  0  0  0  0  0  0  0  0  0
   -2.5653    1.8653   -0.0427 C   0  0  0  0  0  0  0  0  0  0  0  0
    0.3813   -2.3250   -0.5813 H   0  0  0  0  0  0  0  0  0  0  0  0
    0.2256   -0.8332   -1.5534 H   0  0  0  0  0  0  0  0  0  0  0  0
   -0.0522    0.4838    0.5944 H   0  0  0  0  0  0  0  0  0  0  0  0
    0.0220   -1.0396    1.5077 H   0  0  0  0  0  0  0  0  0  0  0  0
   -1.7234    0.5504   -1.5484 H   0  0  0  0  0  0  0  0  0  0  0  0
   -3.4341    0.2518   -1.1886 H   0  0  0  0  0  0  0  0  0  0  0  0
   -3.3053    1.8161    0.7527 H   0  0  0  0  0  0  0  0  0  0  0  0
   -1.6078    2.1431    0.3931 H   0  0  0  0  0  0  0  0  0  0  0  0
   -2.8581    2.6424   -0.7462 H   0  0  0  0  0  0  0  0  0  0  0  0
  1  2  1  0
  1  4  1  0
  1  5  1  0
  2  3  2  0
  6  7  1  0
  6 11  1  0
  6 12  1  0
  7  8  1  0
  7 13  1  0
  7 14  1  0
  8  9  1  0
  9 10  1  0
  9 15  1  0
  9 16  1  0
 10 17  1  0
 10 18  1  0
 10 19  1  0
M  RAD  1   6   2
M  END
>  <reaction>  (7) 
rmg_rxn_1485

>  <mol_properties>  (7) 
{"0": {"label": "*1", "atom_type": "N3s"}, "1": {"label": "*0", "atom_type": "N3d"}, "3": {"label": "*2", "atom_type": "H0"}, "5": {"label": "*3", "atom_type": "Cs"}, "6": {"label": "*4", "atom_type": "Cs"}}

>  <type>  (7) 
unop_3

>  <geom_source>  (7) 
Heuristics

$$$$

     RDKit          3D

 19 17  0  0  0  0  0  0  0  0999 V2000
   -0.3167   -0.8309    2.6226 N   0  0  0  0  0  0  0  0  0  0  0  0
   -0.3167   -2.0337    2.0778 N   0  0  0  0  0  0  0  0  0  0  0  0
   -0.3167   -2.0337    0.8733 O   0  0  0  0  0  0  0  0  0  0  0  0
   -0.3167    0.1517    1.9073 H   0  0  0  0  0  0  0  0  0  0  0  0
   -0.3167   -0.7846    3.6247 H   0  0  0  0  0  0  0  0  0  0  0  0
   -0.3167    1.2098    1.1372 C   0  0  0  0  0  3  0  0  0  0  0  0
   -1.0265    0.9251   -0.1761 C   0  0  0  0  0  0  0  0  0  0  0  0
   -0.1078   -0.1249   -1.3301 S   0  0  0  0  0  0  0  0  0  0  0  0
    1.3897    0.8497   -1.6233 C   0  0  0  0  0  0  0  0  0  0  0  0
    1.1536    2.2220   -2.2320 C   0  0  0  0  0  0  0  0  0  0  0  0
    0.5879    1.8003    0.9825 H   0  0  0  0  0  0  0  0  0  0  0  0
   -0.9686    1.7779    1.8045 H   0  0  0  0  0  0  0  0  0  0  0  0
   -1.3095    1.8531   -0.6757 H   0  0  0  0  0  0  0  0  0  0  0  0
   -1.9490    0.3699    0.0016 H   0  0  0  0  0  0  0  0  0  0  0  0
    1.9601    0.9271   -0.6962 H   0  0  0  0  0  0  0  0  0  0  0  0
    1.9755    0.2272   -2.3017 H   0  0  0  0  0  0  0  0  0  0  0  0
    0.6038    2.8724   -1.5497 H   0  0  0  0  0  0  0  0  0  0  0  0
    2.1069    2.7081   -2.4512 H   0  0  0  0  0  0  0  0  0  0  0  0
    0.5835    2.1442   -3.1584 H   0  0  0  0  0  0  0  0  0  0  0  0
  1  2  1  0
  1  4  1  0
  1  5  1  0
  2  3  2  0
  6  7  1  0
  6 11  1  0
  6 12  1  0
  7  8  1  0
  7 13  1  0
  7 14  1  0
  8  9  1  0
  9 10  1  0
  9 15  1  0
  9 16  1  0
 10 17  1  0
 10 18  1  0
 10 19  1  0
M  RAD  1   6   2
M  END
>  <reaction>  (8) 
rmg_rxn_1485

>  <mol_properties>  (8) 
{"0": {"label": "*1", "atom_type": "N3s"}, "1": {"label": "*0", "atom_type": "N3d"}, "3": {"label": "*2", "atom_type": "H0"}, "5": {"label": "*3", "atom_type": "Cs"}, "6": {"label": "*4", "atom_type": "Cs"}}

>  <type>  (8) 
unop_4

>  <geom_source>  (8) 
Heuristics

$$$$

     RDKit          3D

 19 17  0  0  0  0  0  0  0  0999 V2000
    2.9399   -0.6890   -0.2918 N   0  0  0  0  0  0  0  0  0  0  0  0
    3.3504    0.4440    0.0605 N   0  0  0  0  0  0  0  0  0  0  0  0
    2.6258    1.3883    0.2848 O   0  0  0  0  0  0  0  0  0  0  0  0
    1.7567   -0.9953   -0.4390 H   0  0  0  0  0  0  0  0  0  0  0  0
    3.6734   -1.3746   -0.4381 H   0  0  0  0  0  0  0  0  0  0  0  0
    0.4877   -1.2455   -0.5825 C   0  0  0  0  0  3  0  0  0  0  0  0
   -0.2298   -0.5885    0.5496 C   0  0  0  0  0  0  0  0  0  0  0  0
   -2.0500   -0.8378    0.3737 S   0  0  0  0  0  0  0  0  0  0  0  0
   -2.4727    0.5312   -0.7586 C   0  0  0  0  0  0  0  0  0  0  0  0
   -2.5649    1.8653   -0.0432 C   0  0  0  0  0  0  0  0  0  0  0  0
    0.3815   -2.3256   -0.5801 H   0  0  0  0  0  0  0  0  0  0  0  0
    0.2254   -0.8345   -1.5533 H   0  0  0  0  0  0  0  0  0  0  0  0
   -0.0520    0.4839    0.5940 H   0  0  0  0  0  0  0  0  0  0  0  0
    0.0221   -1.0391    1.5080 H   0  0  0  0  0  0  0  0  0  0  0  0
   -1.7230    0.5498   -1.5487 H   0  0  0  0  0  0  0  0  0  0  0  0
   -3.4338    0.2515   -1.1888 H   0  0  0  0  0  0  0  0  0  0  0  0
   -1.6074    2.1432    0.3925 H   0  0  0  0  0  0  0  0  0  0  0  0
   -2.8575    2.6422   -0.7470 H   0  0  0  0  0  0  0  0  0  0  0  0
   -3.3050    1.8165    0.7521 H   0  0  0  0  0  0  0  0  0  0  0  0
  1  2  1  0
  1  4  1  0
  1  5  1  0
  2  3  2  0
  6  7  1  0
  6 11  1  0
  6 12  1  0
  7  8  1  0
  7 13  1  0
  7 14  1  0
  8  9  1  0
  9 10  1  0
  9 15  1  0
  9 16  1  0
 10 17  1  0
 10 18  1  0
 10 19  1  0
M  RAD  1   6   2
M  END
>  <reaction>  (9) 
rmg_rxn_1485

>  <mol_properties>  (9) 
{"0": {"label": "*1", "atom_type": "N3s"}, "1": {"label": "*0", "atom_type": "N3d"}, "3": {"label": "*2", "atom_type": "H0"}, "5": {"label": "*3", "atom_type": "Cs"}, "6": {"label": "*4", "atom_type": "Cs"}}

>  <type>  (9) 
unop_5

>  <geom_source>  (9) 
Heuristics

$$$$

     RDKit          3D

 19 17  0  0  0  0  0  0  0  0999 V2000
    1.1762   -1.8989    1.4145 N   0  0  0  0  0  0  0  0  0  0  0  0
    1.1762   -3.1018    0.8698 N   0  0  0  0  0  0  0  0  0  0  0  0
    1.1762   -3.1018   -0.3347 O   0  0  0  0  0  0  0  0  0  0  0  0
    1.1762   -0.9163    0.6993 H   0  0  0  0  0  0  0  0  0  0  0  0
    1.1762   -1.8526    2.4166 H   0  0  0  0  0  0  0  0  0  0  0  0
    1.1762    0.1418   -0.0708 C   0  0  0  0  0  3  0  0  0  0  0  0
    0.4664    1.3040    0.6038 C   0  0  0  0  0  0  0  0  0  0  0  0
   -1.3353    1.3077    0.4249 S   0  0  0  0  0  0  0  0  0  0  0  0
   -1.5401    1.4034   -1.3715 C   0  0  0  0  0  0  0  0  0  0  0  0
   -0.9429    2.6409   -2.0208 C   0  0  0  0  0  0  0  0  0  0  0  0
    1.0678    0.1831   -1.1559 H   0  0  0  0  0  0  0  0  0  0  0  0
    2.2450    0.1694    0.1529 H   0  0  0  0  0  0  0  0  0  0  0  0
    0.8677    2.2587    0.2598 H   0  0  0  0  0  0  0  0  0  0  0  0
    0.6198    1.2693    1.6837 H   0  0  0  0  0  0  0  0  0  0  0  0
   -1.1483    0.4943   -1.8308 H   0  0  0  0  0  0  0  0  0  0  0  0
   -2.6223    1.3845   -1.5105 H   0  0  0  0  0  0  0  0  0  0  0  0
    0.1443    2.6559   -1.9271 H   0  0  0  0  0  0  0  0  0  0  0  0
   -1.1801    2.6611   -3.0868 H   0  0  0  0  0  0  0  0  0  0  0  0
   -1.3345    3.5491   -1.5614 H   0  0  0  0  0  0  0  0  0  0  0  0
  1  2  1  0
  1  4  1  0
  1  5  1  0
  2  3  2  0
  6  7  1  0
  6 11  1  0
  6 12  1  0
  7  8  1  0
  7 13  1  0
  7 14  1  0
  8  9  1  0
  9 10  1  0
  9 15  1  0
  9 16  1  0
 10 17  1  0
 10 18  1  0
 10 19  1  0
M  RAD  1   6   2
M  END
>  <reaction>  (10) 
rmg_rxn_1485

>  <mol_properties>  (10) 
{"0": {"label": "*1", "atom_type": "N3s"}, "1": {"label": "*0", "atom_type": "N3d"}, "3": {"label": "*2", "atom_type": "H0"}, "5": {"label": "*3", "atom_type": "Cs"}, "6": {"label": "*4", "atom_type": "Cs"}}

>  <type>  (10) 
unop_6

>  <geom_source>  (10) 
Heuristics

$$$$

     RDKit          3D

 19 17  0  0  0  0  0  0  0  0999 V2000
   -1.4346   -1.0219    1.1290 N   0  0  0  0  0  0  0  0  0  0  0  0
   -1.4346   -2.2247    0.5843 N   0  0  0  0  0  0  0  0  0  0  0  0
   -1.4346   -2.2247   -0.6202 O   0  0  0  0  0  0  0  0  0  0  0  0
   -1.4346   -0.0393    0.4138 H   0  0  0  0  0  0  0  0  0  0  0  0
   -1.4346   -0.9755    2.1311 H   0  0  0  0  0  0  0  0  0  0  0  0
   -1.4346    1.0188   -0.3563 C   0  0  0  0  0  3  0  0  0  0  0  0
   -0.2052    1.0399   -1.2495 C   0  0  0  0  0  0  0  0  0  0  0  0
    1.2051    0.0870   -0.6322 S   0  0  0  0  0  0  0  0  0  0  0  0
    1.5587    0.9061    0.9433 C   0  0  0  0  0  0  0  0  0  0  0  0
    1.9232    2.3774    0.8344 C   0  0  0  0  0  0  0  0  0  0  0  0
   -1.2432    1.5117    0.5983 H   0  0  0  0  0  0  0  0  0  0  0  0
   -2.2613    1.5463   -0.8374 H   0  0  0  0  0  0  0  0  0  0  0  0
    0.1102    2.0642   -1.4548 H   0  0  0  0  0  0  0  0  0  0  0  0
   -0.4268    0.5800   -2.2140 H   0  0  0  0  0  0  0  0  0  0  0  0
    0.7185    0.7618    1.6245 H   0  0  0  0  0  0  0  0  0  0  0  0
    2.3950    0.3353    1.3504 H   0  0  0  0  0  0  0  0  0  0  0  0
    1.0841    2.9706    0.4671 H   0  0  0  0  0  0  0  0  0  0  0  0
    2.1996    2.7726    1.8144 H   0  0  0  0  0  0  0  0  0  0  0  0
    2.7628    2.5213    0.1535 H   0  0  0  0  0  0  0  0  0  0  0  0
  1  2  1  0
  1  4  1  0
  1  5  1  0
  2  3  2  0
  6  7  1  0
  6 11  1  0
  6 12  1  0
  7  8  1  0
  7 13  1  0
  7 14  1  0
  8  9  1  0
  9 10  1  0
  9 15  1  0
  9 16  1  0
 10 17  1  0
 10 18  1  0
 10 19  1  0
M  RAD  1   6   2
M  END
>  <reaction>  (11) 
rmg_rxn_1485

>  <mol_properties>  (11) 
{"0": {"label": "*1", "atom_type": "N3s"}, "1": {"label": "*0", "atom_type": "N3d"}, "3": {"label": "*2", "atom_type": "H0"}, "5": {"label": "*3", "atom_type": "Cs"}, "6": {"label": "*4", "atom_type": "Cs"}}

>  <type>  (11) 
unop_7

>  <geom_source>  (11) 
Heuristics

$$$$

     RDKit          3D

 19 17  0  0  0  0  0  0  0  0999 V2000
    2.9402   -0.6895    0.2902 N   0  0  0  0  0  0  0  0  0  0  0  0
    3.3514    0.4437   -0.0609 N   0  0  0  0  0  0  0  0  0  0  0  0
    2.6276    1.3889   -0.2829 O   0  0  0  0  0  0  0  0  0  0  0  0
    1.7570   -0.9950    0.4383 H   0  0  0  0  0  0  0  0  0  0  0  0
    3.6733   -1.3760    0.4346 H   0  0  0  0  0  0  0  0  0  0  0  0
    0.4880   -1.2447    0.5827 C   0  0  0  0  0  3  0  0  0  0  0  0
   -0.2300   -0.5881   -0.5494 C   0  0  0  0  0  0  0  0  0  0  0  0
   -2.0501   -0.8382   -0.3730 S   0  0  0  0  0  0  0  0  0  0  0  0
   -2.4734    0.5314    0.7583 C   0  0  0  0  0  0  0  0  0  0  0  0
   -2.5674    1.8648    0.0418 C   0  0  0  0  0  0  0  0  0  0  0  0
    0.2263   -0.8332    1.5533 H   0  0  0  0  0  0  0  0  0  0  0  0
    0.3816   -2.3248    0.5808 H   0  0  0  0  0  0  0  0  0  0  0  0
    0.0219   -1.0387   -1.5078 H   0  0  0  0  0  0  0  0  0  0  0  0
   -0.0527    0.4844   -0.5939 H   0  0  0  0  0  0  0  0  0  0  0  0
   -3.4338    0.2512    1.1895 H   0  0  0  0  0  0  0  0  0  0  0  0
   -1.7230    0.5515    1.5478 H   0  0  0  0  0  0  0  0  0  0  0  0
   -3.3082    1.8145   -0.7528 H   0  0  0  0  0  0  0  0  0  0  0  0
   -2.8602    2.6420    0.7450 H   0  0  0  0  0  0  0  0  0  0  0  0
   -1.6106    2.1430   -0.3952 H   0  0  0  0  0  0  0  0  0  0  0  0
  1  2  1  0
  1  4  1  0
  1  5  1  0
  2  3  2  0
  6  7  1  0
  6 11  1  0
  6 12  1  0
  7  8  1  0
  7 13  1  0
  7 14  1  0
  8  9  1  0
  9 10  1  0
  9 15  1  0
  9 16  1  0
 10 17  1  0
 10 18  1  0
 10 19  1  0
M  RAD  1   6   2
M  END
>  <reaction>  (12) 
rmg_rxn_1485

>  <mol_properties>  (12) 
{"0": {"label": "*1", "atom_type": "N3s"}, "1": {"label": "*0", "atom_type": "N3d"}, "3": {"label": "*2", "atom_type": "H0"}, "5": {"label": "*3", "atom_type": "Cs"}, "6": {"label": "*4", "atom_type": "Cs"}}

>  <type>  (12) 
unop_8

>  <geom_source>  (12) 
Heuristics

$$$$

     RDKit          3D

 19 17  0  0  0  0  0  0  0  0999 V2000
    0.9350   -1.9695    0.5928 N   0  0  0  0  0  0  0  0  0  0  0  0
    0.9350   -3.1723    0.0481 N   0  0  0  0  0  0  0  0  0  0  0  0
    0.9350   -3.1723   -1.1564 O   0  0  0  0  0  0  0  0  0  0  0  0
    0.9350   -0.9869   -0.1224 H   0  0  0  0  0  0  0  0  0  0  0  0
    0.9350   -1.9232    1.5949 H   0  0  0  0  0  0  0  0  0  0  0  0
    0.9350    0.0712   -0.8925 C   0  0  0  0  0  3  0  0  0  0  0  0
    0.9350    1.3453   -0.0641 C   0  0  0  0  0  0  0  0  0  0  0  0
   -0.4114    1.4751    1.1395 S   0  0  0  0  0  0  0  0  0  0  0  0
   -1.8780    1.4145    0.0795 C   0  0  0  0  0  0  0  0  0  0  0  0
   -1.9764    2.5328   -0.9449 C   0  0  0  0  0  0  0  0  0  0  0  0
    0.0597    0.0171   -1.5420 H   0  0  0  0  0  0  0  0  0  0  0  0
    1.8199    0.0351   -1.5317 H   0  0  0  0  0  0  0  0  0  0  0  0
    0.9348    2.2279   -0.7060 H   0  0  0  0  0  0  0  0  0  0  0  0
    1.8365    1.4021    0.5481 H   0  0  0  0  0  0  0  0  0  0  0  0
   -1.9376    0.4374   -0.4028 H   0  0  0  0  0  0  0  0  0  0  0  0
   -2.7096    1.4685    0.7840 H   0  0  0  0  0  0  0  0  0  0  0  0
   -1.1748    2.4703   -1.6828 H   0  0  0  0  0  0  0  0  0  0  0  0
   -2.9240    2.4698   -1.4844 H   0  0  0  0  0  0  0  0  0  0  0  0
   -1.9167    3.5091   -0.4625 H   0  0  0  0  0  0  0  0  0  0  0  0
  1  2  1  0
  1  4  1  0
  1  5  1  0
  2  3  2  0
  6  7  1  0
  6 11  1  0
  6 12  1  0
  7  8  1  0
  7 13  1  0
  7 14  1  0
  8  9  1  0
  9 10  1  0
  9 15  1  0
  9 16  1  0
 10 17  1  0
 10 18  1  0
 10 19  1  0
M  RAD  1   6   2
M  END
>  <reaction>  (13) 
rmg_rxn_1485

>  <mol_properties>  (13) 
{"0": {"label": "*1", "atom_type": "N3s"}, "1": {"label": "*0", "atom_type": "N3d"}, "3": {"label": "*2", "atom_type": "H0"}, "5": {"label": "*3", "atom_type": "Cs"}, "6": {"label": "*4", "atom_type": "Cs"}}

>  <type>  (13) 
unop_9

>  <geom_source>  (13) 
Heuristics

$$$$

     RDKit          3D

 19 17  0  0  0  0  0  0  0  0999 V2000
    2.9400   -0.6897    0.2886 N   0  0  0  0  0  0  0  0  0  0  0  0
    3.3499    0.4443   -0.0611 N   0  0  0  0  0  0  0  0  0  0  0  0
    2.6249    1.3893   -0.2815 O   0  0  0  0  0  0  0  0  0  0  0  0
    1.7570   -0.9961    0.4373 H   0  0  0  0  0  0  0  0  0  0  0  0
    3.6737   -1.3758    0.4315 H   0  0  0  0  0  0  0  0  0  0  0  0
    0.4880   -1.2458    0.5825 C   0  0  0  0  0  3  0  0  0  0  0  0
   -0.2303   -0.5901   -0.5499 C   0  0  0  0  0  0  0  0  0  0  0  0
   -2.0505   -0.8384   -0.3716 S   0  0  0  0  0  0  0  0  0  0  0  0
   -2.4715    0.5331    0.7581 C   0  0  0  0  0  0  0  0  0  0  0  0
   -2.5638    1.8658    0.0401 C   0  0  0  0  0  0  0  0  0  0  0  0
    0.2268   -0.8334    1.5529 H   0  0  0  0  0  0  0  0  0  0  0  0
    0.3817   -2.3259    0.5816 H   0  0  0  0  0  0  0  0  0  0  0  0
    0.0205   -1.0421   -1.5079 H   0  0  0  0  0  0  0  0  0  0  0  0
   -0.0521    0.4821   -0.5959 H   0  0  0  0  0  0  0  0  0  0  0  0
   -3.4322    0.2548    1.1899 H   0  0  0  0  0  0  0  0  0  0  0  0
   -1.7210    0.5532    1.5474 H   0  0  0  0  0  0  0  0  0  0  0  0
   -2.8556    2.6442    0.7424 H   0  0  0  0  0  0  0  0  0  0  0  0
   -1.6067    2.1424   -0.3971 H   0  0  0  0  0  0  0  0  0  0  0  0
   -3.3046    1.8156   -0.7544 H   0  0  0  0  0  0  0  0  0  0  0  0
  1  2  1  0
  1  4  1  0
  1  5  1  0
  2  3  2  0
  6  7  1  0
  6 11  1  0
  6 12  1  0
  7  8  1  0
  7 13  1  0
  7 14  1  0
  8  9  1  0
  9 10  1  0
  9 15  1  0
  9 16  1  0
 10 17  1  0
 10 18  1  0
 10 19  1  0
M  RAD  1   6   2
M  END
>  <reaction>  (14) 
rmg_rxn_1485

>  <mol_properties>  (14) 
{"0": {"label": "*1", "atom_type": "N3s"}, "1": {"label": "*0", "atom_type": "N3d"}, "3": {"label": "*2", "atom_type": "H0"}, "5": {"label": "*3", "atom_type": "Cs"}, "6": {"label": "*4", "atom_type": "Cs"}}

>  <type>  (14) 
unop_10

>  <geom_source>  (14) 
Heuristics

$$$$

     RDKit          3D

 19 17  0  0  0  0  0  0  0  0999 V2000
   -1.2502   -1.3216    0.5654 N   0  0  0  0  0  0  0  0  0  0  0  0
   -1.2502   -2.5244    0.0207 N   0  0  0  0  0  0  0  0  0  0  0  0
   -1.2502   -2.5244   -1.1838 O   0  0  0  0  0  0  0  0  0  0  0  0
   -1.2502   -0.3389   -0.1498 H   0  0  0  0  0  0  0  0  0  0  0  0
   -1.2502   -1.2752    1.5675 H   0  0  0  0  0  0  0  0  0  0  0  0
   -1.2502    0.7191   -0.9199 C   0  0  0  0  0  3  0  0  0  0  0  0
    0.1693    1.1579   -1.2392 C   0  0  0  0  0  0  0  0  0  0  0  0
    1.4475    0.4500   -0.1700 S   0  0  0  0  0  0  0  0  0  0  0  0
    0.9554    1.0542    1.4643 C   0  0  0  0  0  0  0  0  0  0  0  0
    0.9261    2.5669    1.6075 C   0  0  0  0  0  0  0  0  0  0  0  0
   -1.5678    1.0770    0.0610 H   0  0  0  0  0  0  0  0  0  0  0  0
   -1.9467    1.1240   -1.6575 H   0  0  0  0  0  0  0  0  0  0  0  0
    0.2520    2.2460   -1.2329 H   0  0  0  0  0  0  0  0  0  0  0  0
    0.4549    0.8268   -2.2390 H   0  0  0  0  0  0  0  0  0  0  0  0
   -0.0064    0.6177    1.7386 H   0  0  0  0  0  0  0  0  0  0  0  0
    1.6995    0.6221    2.1355 H   0  0  0  0  0  0  0  0  0  0  0  0
    0.1586    3.0133    0.9730 H   0  0  0  0  0  0  0  0  0  0  0  0
    0.7007    2.8453    2.6393 H   0  0  0  0  0  0  0  0  0  0  0  0
    1.8874    3.0028    1.3331 H   0  0  0  0  0  0  0  0  0  0  0  0
  1  2  1  0
  1  4  1  0
  1  5  1  0
  2  3  2  0
  6  7  1  0
  6 11  1  0
  6 12  1  0
  7  8  1  0
  7 13  1  0
  7 14  1  0
  8  9  1  0
  9 10  1  0
  9 15  1  0
  9 16  1  0
 10 17  1  0
 10 18  1  0
 10 19  1  0
M  RAD  1   6   2
M  END
>  <reaction>  (15) 
rmg_rxn_1485

>  <mol_properties>  (15) 
{"0": {"label": "*1", "atom_type": "N3s"}, "1": {"label": "*0", "atom_type": "N3d"}, "3": {"label": "*2", "atom_type": "H0"}, "5": {"label": "*3", "atom_type": "Cs"}, "6": {"label": "*4", "atom_type": "Cs"}}

>  <type>  (15) 
unop_11

>  <geom_source>  (15) 
Heuristics

$$$$

     RDKit          3D

 19 17  0  0  0  0  0  0  0  0999 V2000
    2.9396   -0.6894    0.2919 N   0  0  0  0  0  0  0  0  0  0  0  0
    3.3510    0.4432   -0.0606 N   0  0  0  0  0  0  0  0  0  0  0  0
    2.6273    1.3880   -0.2851 O   0  0  0  0  0  0  0  0  0  0  0  0
    1.7562   -0.9950    0.4392 H   0  0  0  0  0  0  0  0  0  0  0  0
    3.6727   -1.3756    0.4384 H   0  0  0  0  0  0  0  0  0  0  0  0
    0.4872   -1.2444    0.5835 C   0  0  0  0  0  3  0  0  0  0  0  0
   -0.2300   -0.5882   -0.5493 C   0  0  0  0  0  0  0  0  0  0  0  0
   -2.0503   -0.8377   -0.3742 S   0  0  0  0  0  0  0  0  0  0  0  0
   -2.4738    0.5308    0.7583 C   0  0  0  0  0  0  0  0  0  0  0  0
   -2.5646    1.8656    0.0438 C   0  0  0  0  0  0  0  0  0  0  0  0
    0.2250   -0.8324    1.5539 H   0  0  0  0  0  0  0  0  0  0  0  0
    0.3806   -2.3245    0.5820 H   0  0  0  0  0  0  0  0  0  0  0  0
    0.0223   -1.0393   -1.5073 H   0  0  0  0  0  0  0  0  0  0  0  0
   -0.0522    0.4842   -0.5942 H   0  0  0  0  0  0  0  0  0  0  0  0
   -3.4354    0.2513    1.1870 H   0  0  0  0  0  0  0  0  0  0  0  0
   -1.7250    0.5487    1.5493 H   0  0  0  0  0  0  0  0  0  0  0  0
   -1.6064    2.1436   -0.3903 H   0  0  0  0  0  0  0  0  0  0  0  0
   -3.3034    1.8173   -0.7528 H   0  0  0  0  0  0  0  0  0  0  0  0
   -2.8582    2.6419    0.7476 H   0  0  0  0  0  0  0  0  0  0  0  0
  1  2  1  0
  1  4  1  0
  1  5  1  0
  2  3  2  0
  6  7  1  0
  6 11  1  0
  6 12  1  0
  7  8  1  0
  7 13  1  0
  7 14  1  0
  8  9  1  0
  9 10  1  0
  9 15  1  0
  9 16  1  0
 10 17  1  0
 10 18  1  0
 10 19  1  0
M  RAD  1   6   2
M  END
>  <reaction>  (16) 
rmg_rxn_1485

>  <mol_properties>  (16) 
{"0": {"label": "*1", "atom_type": "N3s"}, "1": {"label": "*0", "atom_type": "N3d"}, "3": {"label": "*2", "atom_type": "H0"}, "5": {"label": "*3", "atom_type": "Cs"}, "6": {"label": "*4", "atom_type": "Cs"}}

>  <type>  (16) 
unop_12

>  <geom_source>  (16) 
Heuristics

$$$$

     RDKit          3D

 19 17  0  0  0  0  0  0  0  0999 V2000
   -0.7441   -1.6302    0.1340 N   0  0  0  0  0  0  0  0  0  0  0  0
   -0.7441   -2.8330   -0.4107 N   0  0  0  0  0  0  0  0  0  0  0  0
   -0.7441   -2.8330   -1.6152 O   0  0  0  0  0  0  0  0  0  0  0  0
   -0.7441   -0.6475   -0.5812 H   0  0  0  0  0  0  0  0  0  0  0  0
   -0.7441   -1.5838    1.1361 H   0  0  0  0  0  0  0  0  0  0  0  0
   -0.7441    0.4106   -1.3513 C   0  0  0  0  0  3  0  0  0  0  0  0
    0.4853    1.2670   -1.0968 C   0  0  0  0  0  0  0  0  0  0  0  0
    1.3747    0.8923    0.4352 S   0  0  0  0  0  0  0  0  0  0  0  0
    0.1146    1.2111    1.6956 C   0  0  0  0  0  0  0  0  0  0  0  0
   -0.4154    2.6351    1.7279 C   0  0  0  0  0  0  0  0  0  0  0  0
   -1.5182    0.5908   -0.6035 H   0  0  0  0  0  0  0  0  0  0  0  0
   -1.1722    0.6437   -2.3287 H   0  0  0  0  0  0  0  0  0  0  0  0
    0.2329    2.3284   -1.1201 H   0  0  0  0  0  0  0  0  0  0  0  0
    1.2314    1.1042   -1.8763 H   0  0  0  0  0  0  0  0  0  0  0  0
   -0.7004    0.4941    1.5841 H   0  0  0  0  0  0  0  0  0  0  0  0
    0.6187    0.9705    2.6330 H   0  0  0  0  0  0  0  0  0  0  0  0
   -0.9587    2.8799    0.8137 H   0  0  0  0  0  0  0  0  0  0  0  0
   -1.1065    2.7631    2.5640 H   0  0  0  0  0  0  0  0  0  0  0  0
    0.3994    3.3514    1.8393 H   0  0  0  0  0  0  0  0  0  0  0  0
  1  2  1  0
  1  4  1  0
  1  5  1  0
  2  3  2  0
  6  7  1  0
  6 11  1  0
  6 12  1  0
  7  8  1  0
  7 13  1  0
  7 14  1  0
  8  9  1  0
  9 10  1  0
  9 15  1  0
  9 16  1  0
 10 17  1  0
 10 18  1  0
 10 19  1  0
M  RAD  1   6   2
M  END
>  <reaction>  (17) 
rmg_rxn_1485

>  <mol_properties>  (17) 
{"0": {"label": "*1", "atom_type": "N3s"}, "1": {"label": "*0", "atom_type": "N3d"}, "3": {"label": "*2", "atom_type": "H0"}, "5": {"label": "*3", "atom_type": "Cs"}, "6": {"label": "*4", "atom_type": "Cs"}}

>  <type>  (17) 
unop_13

>  <geom_source>  (17) 
Heuristics

$$$$

     RDKit          3D

 19 17  0  0  0  0  0  0  0  0999 V2000
    0.8275   -1.3640    2.3865 N   0  0  0  0  0  0  0  0  0  0  0  0
    0.8275   -2.5668    1.8417 N   0  0  0  0  0  0  0  0  0  0  0  0
    0.8275   -2.5668    0.6372 O   0  0  0  0  0  0  0  0  0  0  0  0
    0.8275   -0.3814    1.6713 H   0  0  0  0  0  0  0  0  0  0  0  0
    0.8275   -1.3177    3.3886 H   0  0  0  0  0  0  0  0  0  0  0  0
    0.8275    0.6767    0.9011 C   0  0  0  0  0  3  0  0  0  0  0  0
   -0.5921    1.1154    0.5818 C   0  0  0  0  0  0  0  0  0  0  0  0
   -1.2615    0.4687   -0.9712 S   0  0  0  0  0  0  0  0  0  0  0  0
   -0.1063    1.1395   -2.1934 C   0  0  0  0  0  0  0  0  0  0  0  0
   -0.0324    2.6567   -2.2419 C   0  0  0  0  0  0  0  0  0  0  0  0
    1.5408    1.0742    0.1772 H   0  0  0  0  0  0  0  0  0  0  0  0
    1.1237    1.0413    1.8872 H   0  0  0  0  0  0  0  0  0  0  0  0
   -0.6747    2.2035    0.5878 H   0  0  0  0  0  0  0  0  0  0  0  0
   -1.2854    0.7434    1.3380 H   0  0  0  0  0  0  0  0  0  0  0  0
    0.8825    0.7057   -2.0351 H   0  0  0  0  0  0  0  0  0  0  0  0
   -0.4743    0.7451   -3.1420 H   0  0  0  0  0  0  0  0  0  0  0  0
    0.3726    3.0667   -1.3152 H   0  0  0  0  0  0  0  0  0  0  0  0
    0.6214    2.9781   -3.0557 H   0  0  0  0  0  0  0  0  0  0  0  0
   -1.0207    3.0898   -2.3999 H   0  0  0  0  0  0  0  0  0  0  0  0
  1  2  1  0
  1  4  1  0
  1  5  1  0
  2  3  2  0
  6  7  1  0
  6 11  1  0
  6 12  1  0
  7  8  1  0
  7 13  1  0
  7 14  1  0
  8  9  1  0
  9 10  1  0
  9 15  1  0
  9 16  1  0
 10 17  1  0
 10 18  1  0
 10 19  1  0
M  RAD  1   6   2
M  END
>  <reaction>  (18) 
rmg_rxn_1485

>  <mol_properties>  (18) 
{"0": {"label": "*1", "atom_type": "N3s"}, "1": {"label": "*0", "atom_type": "N3d"}, "3": {"label": "*2", "atom_type": "H0"}, "5": {"label": "*3", "atom_type": "Cs"}, "6": {"label": "*4", "atom_type": "Cs"}}

>  <type>  (18) 
unop_14

>  <geom_source>  (18) 
Heuristics

$$$$

     RDKit          3D

 19 17  0  0  0  0  0  0  0  0999 V2000
    2.9396   -0.6894   -0.2900 N   0  0  0  0  0  0  0  0  0  0  0  0
    3.3491    0.4444    0.0608 N   0  0  0  0  0  0  0  0  0  0  0  0
    2.6237    1.3886    0.2831 O   0  0  0  0  0  0  0  0  0  0  0  0
    1.7566   -0.9962   -0.4381 H   0  0  0  0  0  0  0  0  0  0  0  0
    3.6737   -1.3747   -0.4350 H   0  0  0  0  0  0  0  0  0  0  0  0
    0.4877   -1.2463   -0.5825 C   0  0  0  0  0  3  0  0  0  0  0  0
   -0.2301   -0.5903    0.5500 C   0  0  0  0  0  0  0  0  0  0  0  0
   -2.0504   -0.8380    0.3724 S   0  0  0  0  0  0  0  0  0  0  0  0
   -2.4712    0.5328   -0.7583 C   0  0  0  0  0  0  0  0  0  0  0  0
   -2.5617    1.8663   -0.0415 C   0  0  0  0  0  0  0  0  0  0  0  0
    0.3814   -2.3264   -0.5815 H   0  0  0  0  0  0  0  0  0  0  0  0
    0.2260   -0.8341   -1.5529 H   0  0  0  0  0  0  0  0  0  0  0  0
   -0.0515    0.4819    0.5959 H   0  0  0  0  0  0  0  0  0  0  0  0
    0.0209   -1.0424    1.5078 H   0  0  0  0  0  0  0  0  0  0  0  0
   -1.7213    0.5515   -1.5483 H   0  0  0  0  0  0  0  0  0  0  0  0
   -3.4326    0.2549   -1.1888 H   0  0  0  0  0  0  0  0  0  0  0  0
   -2.8536    2.6442   -0.7445 H   0  0  0  0  0  0  0  0  0  0  0  0
   -3.3017    1.8175    0.7539 H   0  0  0  0  0  0  0  0  0  0  0  0
   -1.6039    2.1426    0.3944 H   0  0  0  0  0  0  0  0  0  0  0  0
  1  2  1  0
  1  4  1  0
  1  5  1  0
  2  3  2  0
  6  7  1  0
  6 11  1  0
  6 12  1  0
  7  8  1  0
  7 13  1  0
  7 14  1  0
  8  9  1  0
  9 10  1  0
  9 15  1  0
  9 16  1  0
 10 17  1  0
 10 18  1  0
 10 19  1  0
M  RAD  1   6   2
M  END
>  <reaction>  (19) 
rmg_rxn_1485

>  <mol_properties>  (19) 
{"0": {"label": "*1", "atom_type": "N3s"}, "1": {"label": "*0", "atom_type": "N3d"}, "3": {"label": "*2", "atom_type": "H0"}, "5": {"label": "*3", "atom_type": "Cs"}, "6": {"label": "*4", "atom_type": "Cs"}}

>  <type>  (19) 
unop_15

>  <geom_source>  (19) 
Heuristics

$$$$

     RDKit          3D

 19 17  0  0  0  0  0  0  0  0999 V2000
   -1.3264   -0.8101    1.7300 N   0  0  0  0  0  0  0  0  0  0  0  0
   -1.3264   -2.0129    1.1853 N   0  0  0  0  0  0  0  0  0  0  0  0
   -1.3264   -2.0129   -0.0192 O   0  0  0  0  0  0  0  0  0  0  0  0
   -1.3264    0.1725    1.0148 H   0  0  0  0  0  0  0  0  0  0  0  0
   -1.3264   -0.7637    2.7321 H   0  0  0  0  0  0  0  0  0  0  0  0
   -1.3264    1.2306    0.2447 C   0  0  0  0  0  3  0  0  0  0  0  0
   -0.6166    0.9459   -1.0686 C   0  0  0  0  0  0  0  0  0  0  0  0
    0.8307   -0.1341   -0.9374 S   0  0  0  0  0  0  0  0  0  0  0  0
    1.9105    0.8079    0.1694 C   0  0  0  0  0  0  0  0  0  0  0  0
    2.3196    2.1780   -0.3454 C   0  0  0  0  0  0  0  0  0  0  0  0
   -0.6928    1.8016    0.9255 H   0  0  0  0  0  0  0  0  0  0  0  0
   -2.2297    1.8184    0.0672 H   0  0  0  0  0  0  0  0  0  0  0  0
   -0.3334    1.8739   -1.5681 H   0  0  0  0  0  0  0  0  0  0  0  0
   -1.2785    0.4107   -1.7515 H   0  0  0  0  0  0  0  0  0  0  0  0
    1.4448    0.8840    1.1534 H   0  0  0  0  0  0  0  0  0  0  0  0
    2.7862    0.1669    0.2848 H   0  0  0  0  0  0  0  0  0  0  0  0
    1.4608    2.8463   -0.4283 H   0  0  0  0  0  0  0  0  0  0  0  0
    3.0315    2.6430    0.3400 H   0  0  0  0  0  0  0  0  0  0  0  0
    2.7848    2.1016   -1.3288 H   0  0  0  0  0  0  0  0  0  0  0  0
  1  2  1  0
  1  4  1  0
  1  5  1  0
  2  3  2  0
  6  7  1  0
  6 11  1  0
  6 12  1  0
  7  8  1  0
  7 13  1  0
  7 14  1  0
  8  9  1  0
  9 10  1  0
  9 15  1  0
  9 16  1  0
 10 17  1  0
 10 18  1  0
 10 19  1  0
M  RAD  1   6   2
M  END
>  <reaction>  (20) 
rmg_rxn_1485

>  <mol_properties>  (20) 
{"0": {"label": "*1", "atom_type": "N3s"}, "1": {"label": "*0", "atom_type": "N3d"}, "3": {"label": "*2", "atom_type": "H0"}, "5": {"label": "*3", "atom_type": "Cs"}, "6": {"label": "*4", "atom_type": "Cs"}}

>  <type>  (20) 
unop_16

>  <geom_source>  (20) 
Heuristics

$$$$

     RDKit          3D

 19 17  0  0  0  0  0  0  0  0999 V2000
    0.3353   -1.0571    2.6413 N   0  0  0  0  0  0  0  0  0  0  0  0
    0.3353   -2.2600    2.0965 N   0  0  0  0  0  0  0  0  0  0  0  0
    0.3353   -2.2600    0.8920 O   0  0  0  0  0  0  0  0  0  0  0  0
    0.3353   -0.0745    1.9261 H   0  0  0  0  0  0  0  0  0  0  0  0
    0.3353   -1.0108    3.6434 H   0  0  0  0  0  0  0  0  0  0  0  0
    0.3353    0.9836    1.1559 C   0  0  0  0  0  3  0  0  0  0  0  0
   -0.8941    1.0046    0.2627 C   0  0  0  0  0  0  0  0  0  0  0  0
   -0.7214    0.1025   -1.2976 S   0  0  0  0  0  0  0  0  0  0  0  0
    0.6494    0.9769   -2.0942 C   0  0  0  0  0  0  0  0  0  0  0  0
    0.4006    2.4520   -2.3623 C   0  0  0  0  0  0  0  0  0  0  0  0
    1.1730    1.5095    0.6949 H   0  0  0  0  0  0  0  0  0  0  0  0
    0.1214    1.4777    2.1063 H   0  0  0  0  0  0  0  0  0  0  0  0
   -1.2094    2.0289    0.0572 H   0  0  0  0  0  0  0  0  0  0  0  0
   -1.7326    0.5107    0.7565 H   0  0  0  0  0  0  0  0  0  0  0  0
    1.5597    0.8348   -1.5094 H   0  0  0  0  0  0  0  0  0  0  0  0
    0.7909    0.4374   -3.0321 H   0  0  0  0  0  0  0  0  0  0  0  0
    0.2973    3.0149   -1.4331 H   0  0  0  0  0  0  0  0  0  0  0  0
    1.2384    2.8829   -2.9149 H   0  0  0  0  0  0  0  0  0  0  0  0
   -0.5092    2.5935   -2.9466 H   0  0  0  0  0  0  0  0  0  0  0  0
  1  2  1  0
  1  4  1  0
  1  5  1  0
  2  3  2  0
  6  7  1  0
  6 11  1  0
  6 12  1  0
  7  8  1  0
  7 13  1  0
  7 14  1  0
  8  9  1  0
  9 10  1  0
  9 15  1  0
  9 16  1  0
 10 17  1  0
 10 18  1  0
 10 19  1  0
M  RAD  1   6   2
M  END
>  <reaction>  (21) 
rmg_rxn_1485

>  <mol_properties>  (21) 
{"0": {"label": "*1", "atom_type": "N3s"}, "1": {"label": "*0", "atom_type": "N3d"}, "3": {"label": "*2", "atom_type": "H0"}, "5": {"label": "*3", "atom_type": "Cs"}, "6": {"label": "*4", "atom_type": "Cs"}}

>  <type>  (21) 
unop_17

>  <geom_source>  (21) 
Heuristics

$$$$

     RDKit          3D

 19 17  0  0  0  0  0  0  0  0999 V2000
    0.0839   -1.8667    0.0333 N   0  0  0  0  0  0  0  0  0  0  0  0
    0.0839   -3.0696   -0.5115 N   0  0  0  0  0  0  0  0  0  0  0  0
    0.0839   -3.0696   -1.7160 O   0  0  0  0  0  0  0  0  0  0  0  0
    0.0839   -0.8841   -0.6819 H   0  0  0  0  0  0  0  0  0  0  0  0
    0.0839   -1.8204    1.0354 H   0  0  0  0  0  0  0  0  0  0  0  0
    0.0839    0.1740   -1.4520 C   0  0  0  0  0  3  0  0  0  0  0  0
    0.7936    1.3362   -0.7774 C   0  0  0  0  0  0  0  0  0  0  0  0
    0.7808    1.2935    1.0326 S   0  0  0  0  0  0  0  0  0  0  0  0
   -0.9909    1.3387    1.4028 C   0  0  0  0  0  0  0  0  0  0  0  0
   -1.7208    2.5728    0.8989 C   0  0  0  0  0  0  0  0  0  0  0  0
   -0.9874    0.1852   -1.2441 H   0  0  0  0  0  0  0  0  0  0  0  0
    0.2079    0.2321   -2.5357 H   0  0  0  0  0  0  0  0  0  0  0  0
    0.3922    2.2909   -1.1212 H   0  0  0  0  0  0  0  0  0  0  0  0
    1.8554    1.3326   -1.0294 H   0  0  0  0  0  0  0  0  0  0  0  0
   -1.4630    0.4276    1.0315 H   0  0  0  0  0  0  0  0  0  0  0  0
   -1.0295    1.2912    2.4923 H   0  0  0  0  0  0  0  0  0  0  0  0
   -1.7277    2.6154   -0.1915 H   0  0  0  0  0  0  0  0  0  0  0  0
   -2.7607    2.5604    1.2328 H   0  0  0  0  0  0  0  0  0  0  0  0
   -1.2486    3.4831    1.2701 H   0  0  0  0  0  0  0  0  0  0  0  0
  1  2  1  0
  1  4  1  0
  1  5  1  0
  2  3  2  0
  6  7  1  0
  6 11  1  0
  6 12  1  0
  7  8  1  0
  7 13  1  0
  7 14  1  0
  8  9  1  0
  9 10  1  0
  9 15  1  0
  9 16  1  0
 10 17  1  0
 10 18  1  0
 10 19  1  0
M  RAD  1   6   2
M  END
>  <reaction>  (22) 
rmg_rxn_1485

>  <mol_properties>  (22) 
{"0": {"label": "*1", "atom_type": "N3s"}, "1": {"label": "*0", "atom_type": "N3d"}, "3": {"label": "*2", "atom_type": "H0"}, "5": {"label": "*3", "atom_type": "Cs"}, "6": {"label": "*4", "atom_type": "Cs"}}

>  <type>  (22) 
unop_18

>  <geom_source>  (22) 
Heuristics

$$$$

     RDKit          3D

 19 17  0  0  0  0  0  0  0  0999 V2000
   -0.9350   -0.7410    2.2807 N   0  0  0  0  0  0  0  0  0  0  0  0
   -0.9350   -1.9438    1.7360 N   0  0  0  0  0  0  0  0  0  0  0  0
   -0.9350   -1.9438    0.5315 O   0  0  0  0  0  0  0  0  0  0  0  0
   -0.9350    0.2417    1.5655 H   0  0  0  0  0  0  0  0  0  0  0  0
   -0.9350   -0.6946    3.2828 H   0  0  0  0  0  0  0  0  0  0  0  0
   -0.9350    1.2997    0.7954 C   0  0  0  0  0  3  0  0  0  0  0  0
   -0.9350    0.9031   -0.6717 C   0  0  0  0  0  0  0  0  0  0  0  0
    0.4114   -0.2024   -1.1652 S   0  0  0  0  0  0  0  0  0  0  0  0
    1.8780    0.7877   -0.7817 C   0  0  0  0  0  0  0  0  0  0  0  0
    1.9764    2.1062   -1.5310 C   0  0  0  0  0  0  0  0  0  0  0  0
   -0.0597    1.9012    1.0465 H   0  0  0  0  0  0  0  0  0  0  0  0
   -1.8199    1.8969    1.0262 H   0  0  0  0  0  0  0  0  0  0  0  0
   -0.9348    1.7851   -1.3142 H   0  0  0  0  0  0  0  0  0  0  0  0
   -1.8365    0.3380   -0.9139 H   0  0  0  0  0  0  0  0  0  0  0  0
    1.9376    0.9463    0.2963 H   0  0  0  0  0  0  0  0  0  0  0  0
    2.7096    0.1339   -1.0496 H   0  0  0  0  0  0  0  0  0  0  0  0
    1.1748    2.7892   -1.2446 H   0  0  0  0  0  0  0  0  0  0  0  0
    2.9240    2.6003   -1.3052 H   0  0  0  0  0  0  0  0  0  0  0  0
    1.9167    1.9473   -2.6082 H   0  0  0  0  0  0  0  0  0  0  0  0
  1  2  1  0
  1  4  1  0
  1  5  1  0
  2  3  2  0
  6  7  1  0
  6 11  1  0
  6 12  1  0
  7  8  1  0
  7 13  1  0
  7 14  1  0
  8  9  1  0
  9 10  1  0
  9 15  1  0
  9 16  1  0
 10 17  1  0
 10 18  1  0
 10 19  1  0
M  RAD  1   6   2
M  END
>  <reaction>  (23) 
rmg_rxn_1485

>  <mol_properties>  (23) 
{"0": {"label": "*1", "atom_type": "N3s"}, "1": {"label": "*0", "atom_type": "N3d"}, "3": {"label": "*2", "atom_type": "H0"}, "5": {"label": "*3", "atom_type": "Cs"}, "6": {"label": "*4", "atom_type": "Cs"}}

>  <type>  (23) 
unop_19

>  <geom_source>  (23) 
Heuristics

$$$$

     RDKit          3D

 19 17  0  0  0  0  0  0  0  0999 V2000
   -0.3167   -0.8309    2.6225 N   0  0  0  0  0  0  0  0  0  0  0  0
   -0.3167   -2.0337    2.0778 N   0  0  0  0  0  0  0  0  0  0  0  0
   -0.3167   -2.0337    0.8733 O   0  0  0  0  0  0  0  0  0  0  0  0
   -0.3167    0.1517    1.9073 H   0  0  0  0  0  0  0  0  0  0  0  0
   -0.3167   -0.7845    3.6246 H   0  0  0  0  0  0  0  0  0  0  0  0
   -0.3167    1.2098    1.1372 C   0  0  0  0  0  3  0  0  0  0  0  0
   -1.0265    0.9251   -0.1761 C   0  0  0  0  0  0  0  0  0  0  0  0
   -0.1078   -0.1249   -1.3301 S   0  0  0  0  0  0  0  0  0  0  0  0
    1.3897    0.8497   -1.6233 C   0  0  0  0  0  0  0  0  0  0  0  0
    1.1537    2.2220   -2.2321 C   0  0  0  0  0  0  0  0  0  0  0  0
    0.5879    1.8003    0.9825 H   0  0  0  0  0  0  0  0  0  0  0  0
   -0.9686    1.7779    1.8046 H   0  0  0  0  0  0  0  0  0  0  0  0
   -1.3095    1.8531   -0.6757 H   0  0  0  0  0  0  0  0  0  0  0  0
   -1.9490    0.3699    0.0016 H   0  0  0  0  0  0  0  0  0  0  0  0
    1.9601    0.9271   -0.6962 H   0  0  0  0  0  0  0  0  0  0  0  0
    1.9755    0.2272   -2.3017 H   0  0  0  0  0  0  0  0  0  0  0  0
    0.6038    2.8724   -1.5497 H   0  0  0  0  0  0  0  0  0  0  0  0
    2.1069    2.7081   -2.4512 H   0  0  0  0  0  0  0  0  0  0  0  0
    0.5835    2.1442   -3.1584 H   0  0  0  0  0  0  0  0  0  0  0  0
  1  2  1  0
  1  4  1  0
  1  5  1  0
  2  3  2  0
  6  7  1  0
  6 11  1  0
  6 12  1  0
  7  8  1  0
  7 13  1  0
  7 14  1  0
  8  9  1  0
  9 10  1  0
  9 15  1  0
  9 16  1  0
 10 17  1  0
 10 18  1  0
 10 19  1  0
M  RAD  1   6   2
M  END
>  <reaction>  (24) 
rmg_rxn_1485

>  <mol_properties>  (24) 
{"0": {"label": "*1", "atom_type": "N3s"}, "1": {"label": "*0", "atom_type": "N3d"}, "3": {"label": "*2", "atom_type": "H0"}, "5": {"label": "*3", "atom_type": "Cs"}, "6": {"label": "*4", "atom_type": "Cs"}}

>  <type>  (24) 
unop_20

>  <geom_source>  (24) 
gaussian_log

$$$$
