
     RDKit          3D

  9  8  0  0  0  0  0  0  0  0999 V2000
   -1.5470   -0.0755   -0.1976 C   0  0  0  0  0  0  0  0  0  0  0  0
   -0.2885    0.4507    0.1749 O   0  0  0  0  0  0  0  0  0  0  0  0
   -0.1502    1.7216   -0.3294 N   0  0  0  0  0  0  0  0  0  0  0  0
    0.9626    2.2353   -0.0219 C   0  0  0  0  0  0  0  0  0  0  0  0
   -1.6392   -0.1356   -1.2844 H   0  0  0  0  0  0  0  0  0  0  0  0
   -2.3597    0.5337    0.2044 H   0  0  0  0  0  0  0  0  0  0  0  0
   -1.5879   -1.0750    0.2318 H   0  0  0  0  0  0  0  0  0  0  0  0
    1.1497    3.2381   -0.3820 H   0  0  0  0  0  0  0  0  0  0  0  0
    1.7060    1.7101    0.5739 H   0  0  0  0  0  0  0  0  0  0  0  0
  1  2  1  0
  1  5  1  0
  1  6  1  0
  1  7  1  0
  2  3  1  0
  3  4  2  3
  4  8  1  0
  4  9  1  0
M  END
>  <reaction>  (1) 
rmg_rxn_15628

>  <mol_properties>  (1) 
{"0": {"label": "donator", "atom_type": "Cs"}, "4": {"label": "d_hydrogen", "atom_type": "H0"}}

>  <type>  (1) 
r1h

$$$$

     RDKit          3D

 11 10  0  0  0  0  0  0  0  0999 V2000
   -1.8197    0.8251    0.1297 C   0  0  0  0  0  0  0  0  0  0  0  0
   -0.8629    0.2537   -0.8237 C   0  0  0  0  0  3  0  0  0  0  0  0
    0.3308   -0.2746   -0.8374 C   0  0  0  0  0  0  0  0  0  0  0  0
    1.0596   -0.7855   -2.0466 C   0  0  0  0  0  0  0  0  0  0  0  0
   -2.7576    0.2657    0.1344 H   0  0  0  0  0  0  0  0  0  0  0  0
   -2.0537    1.8630   -0.1163 H   0  0  0  0  0  0  0  0  0  0  0  0
   -1.4082    0.8035    1.1478 H   0  0  0  0  0  0  0  0  0  0  0  0
    0.8635   -0.3596    0.1165 H   0  0  0  0  0  0  0  0  0  0  0  0
    2.0033   -0.2520   -2.1835 H   0  0  0  0  0  0  0  0  0  0  0  0
    1.3011   -1.8452   -1.9334 H   0  0  0  0  0  0  0  0  0  0  0  0
    0.4599   -0.6627   -2.9476 H   0  0  0  0  0  0  0  0  0  0  0  0
  1  2  1  0
  1  5  1  0
  1  6  1  0
  1  7  1  0
  2  3  2  3
  3  4  1  0
  3  8  1  0
  4  9  1  0
  4 10  1  0
  4 11  1  0
M  RAD  1   2   2
M  END
>  <reaction>  (2) 
rmg_rxn_15628

>  <mol_properties>  (2) 
{"1": {"label": "acceptor", "atom_type": "Cd"}}

>  <type>  (2) 
r2

$$$$

     RDKit          3D

 12 11  0  0  0  0  0  0  0  0999 V2000
    1.4428    0.2441    1.3554 C   0  0  0  0  0  0  0  0  0  0  0  0
    0.3166    0.4887    0.4026 C   0  0  0  0  0  0  0  0  0  0  0  0
   -0.8306    1.0759    0.7113 C   0  0  0  0  0  0  0  0  0  0  0  0
   -1.9569    1.3205   -0.2415 C   0  0  0  0  0  0  0  0  0  0  0  0
    1.6690   -0.8228    1.4301 H   0  0  0  0  0  0  0  0  0  0  0  0
    2.3573    0.7388    1.0175 H   0  0  0  0  0  0  0  0  0  0  0  0
    1.2058    0.6125    2.3545 H   0  0  0  0  0  0  0  0  0  0  0  0
    0.4700    0.1508   -0.6205 H   0  0  0  0  0  0  0  0  0  0  0  0
   -0.9840    1.4138    1.7343 H   0  0  0  0  0  0  0  0  0  0  0  0
   -2.8714    0.8258    0.0963 H   0  0  0  0  0  0  0  0  0  0  0  0
   -2.1831    2.3874   -0.3163 H   0  0  0  0  0  0  0  0  0  0  0  0
   -1.7199    0.9521   -1.2407 H   0  0  0  0  0  0  0  0  0  0  0  0
  1  2  1  0
  1  5  1  0
  1  6  1  0
  1  7  1  0
  2  3  2  3
  2  8  1  0
  3  4  1  0
  3  9  1  0
  4 10  1  0
  4 11  1  0
  4 12  1  0
M  END
>  <reaction>  (3) 
rmg_rxn_15628

>  <mol_properties>  (3) 
{"0": {"label": "a_hydrogen", "atom_type": "H0"}, "2": {"label": "acceptor", "atom_type": "Cd"}}

>  <type>  (3) 
r2h

$$$$

     RDKit          3D

 20 18  0  0  0  0  0  0  0  0999 V2000
   -1.1357    1.1685    0.3516 C   0  0  0  0  0  0  0  0  0  0  0  0
   -1.2725    0.7374   -0.9646 O   0  0  0  0  0  0  0  0  0  0  0  0
   -1.6911   -0.5752   -0.9966 N   0  0  0  0  0  0  0  0  0  0  0  0
   -1.7296   -1.0255   -2.1764 C   0  0  0  0  0  0  0  0  0  0  0  0
   -0.1217    0.5550    0.8807 H   0  0  0  0  0  0  0  0  0  0  0  0
   -1.9969    0.9171    0.9717 H   0  0  0  0  0  0  0  0  0  0  0  0
   -0.9061    2.2310    0.3316 H   0  0  0  0  0  0  0  0  0  0  0  0
   -2.0595   -2.0491   -2.2923 H   0  0  0  0  0  0  0  0  0  0  0  0
   -1.4487   -0.4293   -3.0416 H   0  0  0  0  0  0  0  0  0  0  0  0
    0.5136   -1.0862    2.5018 C   0  0  0  0  0  0  0  0  0  0  0  0
    0.9280   -0.2304    1.3653 C   0  0  0  0  0  3  0  0  0  0  0  0
    2.0802   -0.1295    0.7378 C   0  0  0  0  0  0  0  0  0  0  0  0
    2.3735    0.7608   -0.4316 C   0  0  0  0  0  0  0  0  0  0  0  0
   -0.3182   -1.7333    2.2125 H   0  0  0  0  0  0  0  0  0  0  0  0
    0.1760   -0.4840    3.3491 H   0  0  0  0  0  0  0  0  0  0  0  0
    1.3394   -1.7193    2.8418 H   0  0  0  0  0  0  0  0  0  0  0  0
    2.9108   -0.7493    1.0859 H   0  0  0  0  0  0  0  0  0  0  0  0
    3.1590    1.4807   -0.1872 H   0  0  0  0  0  0  0  0  0  0  0  0
    2.7308    0.1752   -1.2824 H   0  0  0  0  0  0  0  0  0  0  0  0
    1.4876    1.3101   -0.7485 H   0  0  0  0  0  0  0  0  0  0  0  0
  1  2  1  0
  1  5  1  0
  1  6  1  0
  1  7  1  0
  2  3  1  0
  3  4  2  3
  4  8  1  0
  4  9  1  0
 10 11  1  0
 10 14  1  0
 10 15  1  0
 10 16  1  0
 11 12  2  3
 12 13  1  0
 12 17  1  0
 13 18  1  0
 13 19  1  0
 13 20  1  0
M  RAD  1  11   2
M  END
>  <reaction>  (4) 
rmg_rxn_15628

>  <mol_properties>  (4) 
{"0": {"label": "*1", "atom_type": "Cs"}, "1": {"label": "*0", "atom_type": "O2s"}, "4": {"label": "*2", "atom_type": "H0"}, "10": {"label": "*3", "atom_type": "Cd"}, "11": {"label": "*4", "atom_type": "Cd"}}

>  <type>  (4) 
ts

$$$$

     RDKit          3D

 20 18  0  0  0  0  0  0  0  0999 V2000
   -0.4322    1.3709   -0.7059 C   0  0  0  0  0  3  0  0  0  0  0  0
   -1.4768    1.0368    0.1352 O   0  0  0  0  0  0  0  0  0  0  0  0
   -2.0760   -0.1571   -0.2068 N   0  0  0  0  0  0  0  0  0  0  0  0
   -3.0030   -0.5497    0.5589 C   0  0  0  0  0  0  0  0  0  0  0  0
    0.6952    0.7385   -0.3087 H   0  0  0  0  0  0  0  0  0  0  0  0
   -0.2338    2.4310   -0.5947 H   0  0  0  0  0  0  0  0  0  0  0  0
   -0.5788    1.0486   -1.7336 H   0  0  0  0  0  0  0  0  0  0  0  0
   -3.4785   -1.4775    0.2967 H   0  0  0  0  0  0  0  0  0  0  0  0
   -3.3363   -0.0123    1.4409 H   0  0  0  0  0  0  0  0  0  0  0  0
    2.8437    1.1596    0.4139 C   0  0  0  0  0  0  0  0  0  0  0  0
    1.7943    0.1731    0.0575 C   0  0  0  0  0  0  0  0  0  0  0  0
    1.8641   -1.1387    0.0644 C   0  0  0  0  0  0  0  0  0  0  0  0
    0.7625   -2.0770   -0.3084 C   0  0  0  0  0  0  0  0  0  0  0  0
    3.7677    0.6620    0.7125 H   0  0  0  0  0  0  0  0  0  0  0  0
    2.5067    1.7890    1.2375 H   0  0  0  0  0  0  0  0  0  0  0  0
    3.0573    1.8085   -0.4357 H   0  0  0  0  0  0  0  0  0  0  0  0
    2.7922   -1.6291    0.3606 H   0  0  0  0  0  0  0  0  0  0  0  0
    0.5736   -2.7735    0.5083 H   0  0  0  0  0  0  0  0  0  0  0  0
   -0.1577   -1.5432   -0.5315 H   0  0  0  0  0  0  0  0  0  0  0  0
    1.0504   -2.6637   -1.1810 H   0  0  0  0  0  0  0  0  0  0  0  0
  1  2  1  0
  1  6  1  0
  1  7  1  0
  2  3  1  0
  3  4  2  3
  4  8  1  0
  4  9  1  0
  5 11  1  0
 10 11  1  0
 10 14  1  0
 10 15  1  0
 10 16  1  0
 11 12  2  3
 12 13  1  0
 12 17  1  0
 13 18  1  0
 13 19  1  0
 13 20  1  0
M  RAD  1   1   2
M  END
>  <reaction>  (5) 
rmg_rxn_15628

>  <mol_properties>  (5) 
{"0": {"label": "*1", "atom_type": "Cs"}, "1": {"label": "*0", "atom_type": "O2s"}, "4": {"label": "*2", "atom_type": "H0"}, "10": {"label": "*3", "atom_type": "Cd"}, "11": {"label": "*4", "atom_type": "Cd"}}

>  <type>  (5) 
unop_1

>  <geom_source>  (5) 
crest_best.xyz

$$$$

     RDKit          3D

 20 18  0  0  0  0  0  0  0  0999 V2000
   -1.2389    0.7230    0.1946 C   0  0  0  0  0  3  0  0  0  0  0  0
   -1.2390    0.7809   -1.2183 O   0  0  0  0  0  0  0  0  0  0  0  0
   -1.2390   -0.4929   -1.7340 N   0  0  0  0  0  0  0  0  0  0  0  0
   -1.2390   -0.4929   -2.9977 C   0  0  0  0  0  0  0  0  0  0  0  0
   -0.1684    0.1109    0.6387 H   0  0  0  0  0  0  0  0  0  0  0  0
   -2.1311    0.2128    0.5647 H   0  0  0  0  0  0  0  0  0  0  0  0
   -1.2390    1.7579    0.5324 H   0  0  0  0  0  0  0  0  0  0  0  0
   -1.2390   -1.4600   -3.4825 H   0  0  0  0  0  0  0  0  0  0  0  0
   -1.2390    0.4236   -3.5838 H   0  0  0  0  0  0  0  0  0  0  0  0
    0.4517   -1.9115    1.2855 C   0  0  0  0  0  0  0  0  0  0  0  0
    0.8983   -0.4991    1.0812 C   0  0  0  0  0  0  0  0  0  0  0  0
    1.7228    0.1639    1.8791 C   0  0  0  0  0  0  0  0  0  0  0  0
    2.1694    1.5763    1.6748 C   0  0  0  0  0  0  0  0  0  0  0  0
    0.7324   -2.5388    0.4353 H   0  0  0  0  0  0  0  0  0  0  0  0
   -0.6361   -1.9700    1.3768 H   0  0  0  0  0  0  0  0  0  0  0  0
    0.8924   -2.3418    2.1860 H   0  0  0  0  0  0  0  0  0  0  0  0
    2.1168   -0.3428    2.7580 H   0  0  0  0  0  0  0  0  0  0  0  0
    1.8887    2.2036    2.5250 H   0  0  0  0  0  0  0  0  0  0  0  0
    3.2572    1.6348    1.5835 H   0  0  0  0  0  0  0  0  0  0  0  0
    1.7287    2.0066    0.7743 H   0  0  0  0  0  0  0  0  0  0  0  0
  1  2  1  0
  1  6  1  0
  1  7  1  0
  2  3  1  0
  3  4  2  3
  4  8  1  0
  4  9  1  0
  5 11  1  0
 10 11  1  0
 10 14  1  0
 10 15  1  0
 10 16  1  0
 11 12  2  3
 12 13  1  0
 12 17  1  0
 13 18  1  0
 13 19  1  0
 13 20  1  0
M  RAD  1   1   2
M  END
>  <reaction>  (6) 
rmg_rxn_15628

>  <mol_properties>  (6) 
{"0": {"label": "*1", "atom_type": "Cs"}, "1": {"label": "*0", "atom_type": "O2s"}, "4": {"label": "*2", "atom_type": "H0"}, "10": {"label": "*3", "atom_type": "Cd"}, "11": {"label": "*4", "atom_type": "Cd"}}

>  <type>  (6) 
unop_2

>  <geom_source>  (6) 
Heuristics

$$$$

     RDKit          3D

 20 18  0  0  0  0  0  0  0  0999 V2000
   -0.4328   -1.3689   -0.7081 C   0  0  0  0  0  3  0  0  0  0  0  0
   -1.4770   -1.0361    0.1339 O   0  0  0  0  0  0  0  0  0  0  0  0
   -2.0770    0.1580   -0.2062 N   0  0  0  0  0  0  0  0  0  0  0  0
   -3.0036    0.5491    0.5607 C   0  0  0  0  0  0  0  0  0  0  0  0
    0.6951   -0.7380   -0.3098 H   0  0  0  0  0  0  0  0  0  0  0  0
   -0.5796   -1.0446   -1.7352 H   0  0  0  0  0  0  0  0  0  0  0  0
   -0.2348   -2.4293   -0.5991 H   0  0  0  0  0  0  0  0  0  0  0  0
   -3.4801    1.4768    0.3001 H   0  0  0  0  0  0  0  0  0  0  0  0
   -3.3362    0.0101    1.4421 H   0  0  0  0  0  0  0  0  0  0  0  0
    2.8424   -1.1613    0.4154 C   0  0  0  0  0  0  0  0  0  0  0  0
    1.7944   -0.1739    0.0574 C   0  0  0  0  0  0  0  0  0  0  0  0
    1.8654    1.1378    0.0648 C   0  0  0  0  0  0  0  0  0  0  0  0
    0.7649    2.0773   -0.3091 C   0  0  0  0  0  0  0  0  0  0  0  0
    3.7670   -0.6645    0.7134 H   0  0  0  0  0  0  0  0  0  0  0  0
    3.0552   -1.8117   -0.4332 H   0  0  0  0  0  0  0  0  0  0  0  0
    2.5044   -1.7890    1.2399 H   0  0  0  0  0  0  0  0  0  0  0  0
    2.7935    1.6274    0.3622 H   0  0  0  0  0  0  0  0  0  0  0  0
    0.5750    2.7731    0.5080 H   0  0  0  0  0  0  0  0  0  0  0  0
    1.0548    2.6646   -1.1806 H   0  0  0  0  0  0  0  0  0  0  0  0
   -0.1551    1.5441   -0.5342 H   0  0  0  0  0  0  0  0  0  0  0  0
  1  2  1  0
  1  6  1  0
  1  7  1  0
  2  3  1  0
  3  4  2  3
  4  8  1  0
  4  9  1  0
  5 11  1  0
 10 11  1  0
 10 14  1  0
 10 15  1  0
 10 16  1  0
 11 12  2  3
 12 13  1  0
 12 17  1  0
 13 18  1  0
 13 19  1  0
 13 20  1  0
M  RAD  1   1   2
M  END
>  <reaction>  (7) 
rmg_rxn_15628

>  <mol_properties>  (7) 
{"0": {"label": "*1", "atom_type": "Cs"}, "1": {"label": "*0", "atom_type": "O2s"}, "4": {"label": "*2", "atom_type": "H0"}, "10": {"label": "*3", "atom_type": "Cd"}, "11": {"label": "*4", "atom_type": "Cd"}}

>  <type>  (7) 
unop_3

>  <geom_source>  (7) 
Heuristics

$$$$

     RDKit          3D

 20 18  0  0  0  0  0  0  0  0999 V2000
   -0.4324    1.3705    0.7066 C   0  0  0  0  0  3  0  0  0  0  0  0
   -1.4768    1.0365   -0.1348 O   0  0  0  0  0  0  0  0  0  0  0  0
   -2.0763   -0.1574    0.2067 N   0  0  0  0  0  0  0  0  0  0  0  0
   -3.0029   -0.5496   -0.5596 C   0  0  0  0  0  0  0  0  0  0  0  0
    0.6953    0.7384    0.3096 H   0  0  0  0  0  0  0  0  0  0  0  0
   -0.5793    1.0482    1.7343 H   0  0  0  0  0  0  0  0  0  0  0  0
   -0.2341    2.4306    0.5956 H   0  0  0  0  0  0  0  0  0  0  0  0
   -3.4789   -1.4773   -0.2981 H   0  0  0  0  0  0  0  0  0  0  0  0
   -3.3354   -0.0120   -1.4418 H   0  0  0  0  0  0  0  0  0  0  0  0
    2.8430    1.1601   -0.4145 C   0  0  0  0  0  0  0  0  0  0  0  0
    1.7943    0.1734   -0.0572 C   0  0  0  0  0  0  0  0  0  0  0  0
    1.8644   -1.1384   -0.0647 C   0  0  0  0  0  0  0  0  0  0  0  0
    0.7633   -2.0772    0.3088 C   0  0  0  0  0  0  0  0  0  0  0  0
    3.0583    1.8080    0.4354 H   0  0  0  0  0  0  0  0  0  0  0  0
    2.5046    1.7905   -1.2368 H   0  0  0  0  0  0  0  0  0  0  0  0
    3.7664    0.6628   -0.7154 H   0  0  0  0  0  0  0  0  0  0  0  0
    2.7922   -1.6285   -0.3620 H   0  0  0  0  0  0  0  0  0  0  0  0
   -0.1559   -1.5433    0.5359 H   0  0  0  0  0  0  0  0  0  0  0  0
    0.5716   -2.7714   -0.5091 H   0  0  0  0  0  0  0  0  0  0  0  0
    1.0534   -2.6663    1.1791 H   0  0  0  0  0  0  0  0  0  0  0  0
  1  2  1  0
  1  6  1  0
  1  7  1  0
  2  3  1  0
  3  4  2  3
  4  8  1  0
  4  9  1  0
  5 11  1  0
 10 11  1  0
 10 14  1  0
 10 15  1  0
 10 16  1  0
 11 12  2  3
 12 13  1  0
 12 17  1  0
 13 18  1  0
 13 19  1  0
 13 20  1  0
M  RAD  1   1   2
M  END
>  <reaction>  (8) 
rmg_rxn_15628

>  <mol_properties>  (8) 
{"0": {"label": "*1", "atom_type": "Cs"}, "1": {"label": "*0", "atom_type": "O2s"}, "4": {"label": "*2", "atom_type": "H0"}, "10": {"label": "*3", "atom_type": "Cd"}, "11": {"label": "*4", "atom_type": "Cd"}}

>  <type>  (8) 
unop_4

>  <geom_source>  (8) 
Heuristics

$$$$

     RDKit          3D

 20 18  0  0  0  0  0  0  0  0999 V2000
   -1.3152    0.8649    0.5690 C   0  0  0  0  0  3  0  0  0  0  0  0
   -1.3153    0.9228   -0.8439 O   0  0  0  0  0  0  0  0  0  0  0  0
   -1.3153   -0.3511   -1.3596 N   0  0  0  0  0  0  0  0  0  0  0  0
   -1.3153   -0.3511   -2.6233 C   0  0  0  0  0  0  0  0  0  0  0  0
   -0.2446    0.2527    1.0131 H   0  0  0  0  0  0  0  0  0  0  0  0
   -2.2074    0.3547    0.9391 H   0  0  0  0  0  0  0  0  0  0  0  0
   -1.3153    1.8998    0.9068 H   0  0  0  0  0  0  0  0  0  0  0  0
   -1.3153   -1.3182   -3.1081 H   0  0  0  0  0  0  0  0  0  0  0  0
   -1.3153    0.5654   -3.2094 H   0  0  0  0  0  0  0  0  0  0  0  0
    0.7441   -0.7550    2.8949 C   0  0  0  0  0  0  0  0  0  0  0  0
    0.8220   -0.3572    1.4556 C   0  0  0  0  0  0  0  0  0  0  0  0
    1.9373   -0.2811    0.7439 C   0  0  0  0  0  0  0  0  0  0  0  0
    2.0151    0.1167   -0.6955 C   0  0  0  0  0  0  0  0  0  0  0  0
    0.1134   -1.6385    3.0244 H   0  0  0  0  0  0  0  0  0  0  0  0
    0.3014    0.0414    3.4989 H   0  0  0  0  0  0  0  0  0  0  0  0
    1.7320   -0.9799    3.2996 H   0  0  0  0  0  0  0  0  0  0  0  0
    2.8814   -0.5234    1.2278 H   0  0  0  0  0  0  0  0  0  0  0  0
    2.6459    1.0002   -0.8250 H   0  0  0  0  0  0  0  0  0  0  0  0
    2.4578   -0.6797   -1.2995 H   0  0  0  0  0  0  0  0  0  0  0  0
    1.0273    0.3416   -1.1001 H   0  0  0  0  0  0  0  0  0  0  0  0
  1  2  1  0
  1  6  1  0
  1  7  1  0
  2  3  1  0
  3  4  2  3
  4  8  1  0
  4  9  1  0
  5 11  1  0
 10 11  1  0
 10 14  1  0
 10 15  1  0
 10 16  1  0
 11 12  2  3
 12 13  1  0
 12 17  1  0
 13 18  1  0
 13 19  1  0
 13 20  1  0
M  RAD  1   1   2
M  END
>  <reaction>  (9) 
rmg_rxn_15628

>  <mol_properties>  (9) 
{"0": {"label": "*1", "atom_type": "Cs"}, "1": {"label": "*0", "atom_type": "O2s"}, "4": {"label": "*2", "atom_type": "H0"}, "10": {"label": "*3", "atom_type": "Cd"}, "11": {"label": "*4", "atom_type": "Cd"}}

>  <type>  (9) 
unop_5

>  <geom_source>  (9) 
Heuristics

$$$$

     RDKit          3D

 20 18  0  0  0  0  0  0  0  0999 V2000
   -0.4327    1.3690   -0.7072 C   0  0  0  0  0  3  0  0  0  0  0  0
   -1.4768    1.0357    0.1348 O   0  0  0  0  0  0  0  0  0  0  0  0
   -2.0778   -0.1574   -0.2069 N   0  0  0  0  0  0  0  0  0  0  0  0
   -3.0043   -0.5489    0.5598 C   0  0  0  0  0  0  0  0  0  0  0  0
    0.6953    0.7378   -0.3096 H   0  0  0  0  0  0  0  0  0  0  0  0
   -0.2346    2.4293   -0.5977 H   0  0  0  0  0  0  0  0  0  0  0  0
   -0.5796    1.0451   -1.7343 H   0  0  0  0  0  0  0  0  0  0  0  0
   -3.4819   -1.4757    0.2979 H   0  0  0  0  0  0  0  0  0  0  0  0
   -3.3360   -0.0112    1.4422 H   0  0  0  0  0  0  0  0  0  0  0  0
    2.8429    1.1613    0.4144 C   0  0  0  0  0  0  0  0  0  0  0  0
    1.7948    0.1738    0.0573 C   0  0  0  0  0  0  0  0  0  0  0  0
    1.8657   -1.1380    0.0648 C   0  0  0  0  0  0  0  0  0  0  0  0
    0.7650   -2.0773   -0.3084 C   0  0  0  0  0  0  0  0  0  0  0  0
    2.5056    1.7887    1.2395 H   0  0  0  0  0  0  0  0  0  0  0  0
    3.0546    1.8120   -0.4342 H   0  0  0  0  0  0  0  0  0  0  0  0
    3.7680    0.6647    0.7114 H   0  0  0  0  0  0  0  0  0  0  0  0
    2.7940   -1.6276    0.3617 H   0  0  0  0  0  0  0  0  0  0  0  0
    1.0539   -2.6641   -1.1806 H   0  0  0  0  0  0  0  0  0  0  0  0
    0.5760   -2.7737    0.5084 H   0  0  0  0  0  0  0  0  0  0  0  0
   -0.1554   -1.5442   -0.5322 H   0  0  0  0  0  0  0  0  0  0  0  0
  1  2  1  0
  1  6  1  0
  1  7  1  0
  2  3  1  0
  3  4  2  3
  4  8  1  0
  4  9  1  0
  5 11  1  0
 10 11  1  0
 10 14  1  0
 10 15  1  0
 10 16  1  0
 11 12  2  3
 12 13  1  0
 12 17  1  0
 13 18  1  0
 13 19  1  0
 13 20  1  0
M  RAD  1   1   2
M  END
>  <reaction>  (10) 
rmg_rxn_15628

>  <mol_properties>  (10) 
{"0": {"label": "*1", "atom_type": "Cs"}, "1": {"label": "*0", "atom_type": "O2s"}, "4": {"label": "*2", "atom_type": "H0"}, "10": {"label": "*3", "atom_type": "Cd"}, "11": {"label": "*4", "atom_type": "Cd"}}

>  <type>  (10) 
unop_6

>  <geom_source>  (10) 
Heuristics

$$$$

     RDKit          3D

 20 18  0  0  0  0  0  0  0  0999 V2000
   -1.1560    0.8026    0.1022 C   0  0  0  0  0  3  0  0  0  0  0  0
   -1.1561    0.8606   -1.3107 O   0  0  0  0  0  0  0  0  0  0  0  0
   -1.1561   -0.4133   -1.8264 N   0  0  0  0  0  0  0  0  0  0  0  0
   -1.1561   -0.4133   -3.0900 C   0  0  0  0  0  0  0  0  0  0  0  0
   -0.0854    0.1905    0.5463 H   0  0  0  0  0  0  0  0  0  0  0  0
   -2.0482    0.2925    0.4723 H   0  0  0  0  0  0  0  0  0  0  0  0
   -1.1561    1.8375    0.4400 H   0  0  0  0  0  0  0  0  0  0  0  0
   -1.1561   -1.3804   -3.5748 H   0  0  0  0  0  0  0  0  0  0  0  0
   -1.1561    0.5032   -3.6762 H   0  0  0  0  0  0  0  0  0  0  0  0
    1.0065   -1.8025    0.4207 C   0  0  0  0  0  0  0  0  0  0  0  0
    0.9812   -0.4195    0.9888 C   0  0  0  0  0  0  0  0  0  0  0  0
    1.4660   -0.0712    2.1719 C   0  0  0  0  0  0  0  0  0  0  0  0
    1.4407    1.3118    2.7400 C   0  0  0  0  0  0  0  0  0  0  0  0
    1.5538   -1.8283   -0.5253 H   0  0  0  0  0  0  0  0  0  0  0  0
   -0.0054   -2.1593    0.2111 H   0  0  0  0  0  0  0  0  0  0  0  0
    1.4800   -2.5059    1.1071 H   0  0  0  0  0  0  0  0  0  0  0  0
    1.9227   -0.8385    2.7940 H   0  0  0  0  0  0  0  0  0  0  0  0
    0.8934    1.3377    3.6861 H   0  0  0  0  0  0  0  0  0  0  0  0
    2.4526    1.6687    2.9497 H   0  0  0  0  0  0  0  0  0  0  0  0
    0.9672    2.0153    2.0537 H   0  0  0  0  0  0  0  0  0  0  0  0
  1  2  1  0
  1  6  1  0
  1  7  1  0
  2  3  1  0
  3  4  2  3
  4  8  1  0
  4  9  1  0
  5 11  1  0
 10 11  1  0
 10 14  1  0
 10 15  1  0
 10 16  1  0
 11 12  2  3
 12 13  1  0
 12 17  1  0
 13 18  1  0
 13 19  1  0
 13 20  1  0
M  RAD  1   1   2
M  END
>  <reaction>  (11) 
rmg_rxn_15628

>  <mol_properties>  (11) 
{"0": {"label": "*1", "atom_type": "Cs"}, "1": {"label": "*0", "atom_type": "O2s"}, "4": {"label": "*2", "atom_type": "H0"}, "10": {"label": "*3", "atom_type": "Cd"}, "11": {"label": "*4", "atom_type": "Cd"}}

>  <type>  (11) 
unop_7

>  <geom_source>  (11) 
Heuristics

$$$$

     RDKit          3D

 20 18  0  0  0  0  0  0  0  0999 V2000
   -1.0893    1.1958    0.4827 C   0  0  0  0  0  3  0  0  0  0  0  0
   -1.0893    1.2537   -0.9302 O   0  0  0  0  0  0  0  0  0  0  0  0
   -1.0893   -0.0202   -1.4459 N   0  0  0  0  0  0  0  0  0  0  0  0
   -1.0893   -0.0202   -2.7095 C   0  0  0  0  0  0  0  0  0  0  0  0
   -0.0187    0.5836    0.9268 H   0  0  0  0  0  0  0  0  0  0  0  0
   -1.9814    0.6856    0.8528 H   0  0  0  0  0  0  0  0  0  0  0  0
   -1.0893    2.2307    0.8205 H   0  0  0  0  0  0  0  0  0  0  0  0
   -1.0893   -0.9873   -3.1943 H   0  0  0  0  0  0  0  0  0  0  0  0
   -1.0893    0.8963   -3.2957 H   0  0  0  0  0  0  0  0  0  0  0  0
    1.4521    0.5662    2.6814 C   0  0  0  0  0  0  0  0  0  0  0  0
    1.0479   -0.0263    1.3693 C   0  0  0  0  0  0  0  0  0  0  0  0
    1.2593   -1.2817    1.0011 C   0  0  0  0  0  0  0  0  0  0  0  0
    0.8551   -1.8742   -0.3110 C   0  0  0  0  0  0  0  0  0  0  0  0
    0.5833    0.9482    3.2239 H   0  0  0  0  0  0  0  0  0  0  0  0
    2.1321    1.4102    2.5382 H   0  0  0  0  0  0  0  0  0  0  0  0
    1.9514   -0.1696    3.3134 H   0  0  0  0  0  0  0  0  0  0  0  0
    1.7658   -1.9497    1.6951 H   0  0  0  0  0  0  0  0  0  0  0  0
    1.7240   -2.2562   -0.8535 H   0  0  0  0  0  0  0  0  0  0  0  0
    0.1751   -2.7182   -0.1677 H   0  0  0  0  0  0  0  0  0  0  0  0
    0.3558   -1.1384   -0.9429 H   0  0  0  0  0  0  0  0  0  0  0  0
  1  2  1  0
  1  6  1  0
  1  7  1  0
  2  3  1  0
  3  4  2  3
  4  8  1  0
  4  9  1  0
  5 11  1  0
 10 11  1  0
 10 14  1  0
 10 15  1  0
 10 16  1  0
 11 12  2  3
 12 13  1  0
 12 17  1  0
 13 18  1  0
 13 19  1  0
 13 20  1  0
M  RAD  1   1   2
M  END
>  <reaction>  (12) 
rmg_rxn_15628

>  <mol_properties>  (12) 
{"0": {"label": "*1", "atom_type": "Cs"}, "1": {"label": "*0", "atom_type": "O2s"}, "4": {"label": "*2", "atom_type": "H0"}, "10": {"label": "*3", "atom_type": "Cd"}, "11": {"label": "*4", "atom_type": "Cd"}}

>  <type>  (12) 
unop_8

>  <geom_source>  (12) 
Heuristics

$$$$

     RDKit          3D

 20 18  0  0  0  0  0  0  0  0999 V2000
   -0.4322   -1.3704   -0.7066 C   0  0  0  0  0  3  0  0  0  0  0  0
   -1.4771   -1.0369    0.1344 O   0  0  0  0  0  0  0  0  0  0  0  0
   -2.0756    0.1577   -0.2061 N   0  0  0  0  0  0  0  0  0  0  0  0
   -3.0031    0.5493    0.5595 C   0  0  0  0  0  0  0  0  0  0  0  0
    0.6952   -0.7385   -0.3087 H   0  0  0  0  0  0  0  0  0  0  0  0
   -0.5785   -1.0474   -1.7341 H   0  0  0  0  0  0  0  0  0  0  0  0
   -0.2341   -2.4306   -0.5961 H   0  0  0  0  0  0  0  0  0  0  0  0
   -3.4785    1.4775    0.2984 H   0  0  0  0  0  0  0  0  0  0  0  0
   -3.3373    0.0105    1.4403 H   0  0  0  0  0  0  0  0  0  0  0  0
    2.8436   -1.1596    0.4145 C   0  0  0  0  0  0  0  0  0  0  0  0
    1.7944   -0.1733    0.0575 C   0  0  0  0  0  0  0  0  0  0  0  0
    1.8641    1.1385    0.0645 C   0  0  0  0  0  0  0  0  0  0  0  0
    0.7626    2.0768   -0.3088 C   0  0  0  0  0  0  0  0  0  0  0  0
    3.0581   -1.8080   -0.4352 H   0  0  0  0  0  0  0  0  0  0  0  0
    2.5061   -1.7896    1.2375 H   0  0  0  0  0  0  0  0  0  0  0  0
    3.7672   -0.6619    0.7141 H   0  0  0  0  0  0  0  0  0  0  0  0
    2.7921    1.6289    0.3612 H   0  0  0  0  0  0  0  0  0  0  0  0
    1.0505    2.6625   -1.1822 H   0  0  0  0  0  0  0  0  0  0  0  0
   -0.1577    1.5429   -0.5311 H   0  0  0  0  0  0  0  0  0  0  0  0
    0.5741    2.7743    0.5072 H   0  0  0  0  0  0  0  0  0  0  0  0
  1  2  1  0
  1  6  1  0
  1  7  1  0
  2  3  1  0
  3  4  2  3
  4  8  1  0
  4  9  1  0
  5 11  1  0
 10 11  1  0
 10 14  1  0
 10 15  1  0
 10 16  1  0
 11 12  2  3
 12 13  1  0
 12 17  1  0
 13 18  1  0
 13 19  1  0
 13 20  1  0
M  RAD  1   1   2
M  END
>  <reaction>  (13) 
rmg_rxn_15628

>  <mol_properties>  (13) 
{"0": {"label": "*1", "atom_type": "Cs"}, "1": {"label": "*0", "atom_type": "O2s"}, "4": {"label": "*2", "atom_type": "H0"}, "10": {"label": "*3", "atom_type": "Cd"}, "11": {"label": "*4", "atom_type": "Cd"}}

>  <type>  (13) 
unop_9

>  <geom_source>  (13) 
Heuristics

$$$$

     RDKit          3D

 20 18  0  0  0  0  0  0  0  0999 V2000
   -1.0786    0.9201    0.0736 C   0  0  0  0  0  3  0  0  0  0  0  0
   -1.0786    0.9780   -1.3393 O   0  0  0  0  0  0  0  0  0  0  0  0
   -1.0786   -0.2959   -1.8551 N   0  0  0  0  0  0  0  0  0  0  0  0
   -1.0786   -0.2959   -3.1187 C   0  0  0  0  0  0  0  0  0  0  0  0
   -0.0080    0.3079    0.5177 H   0  0  0  0  0  0  0  0  0  0  0  0
   -1.9707    0.4099    0.4437 H   0  0  0  0  0  0  0  0  0  0  0  0
   -1.0786    1.9550    0.4114 H   0  0  0  0  0  0  0  0  0  0  0  0
   -1.0786   -1.2629   -3.6035 H   0  0  0  0  0  0  0  0  0  0  0  0
   -1.0786    0.6206   -3.7048 H   0  0  0  0  0  0  0  0  0  0  0  0
    2.0181   -0.7918   -0.0769 C   0  0  0  0  0  0  0  0  0  0  0  0
    1.0587   -0.3020    0.9602 C   0  0  0  0  0  0  0  0  0  0  0  0
    1.2126   -0.4411    2.2690 C   0  0  0  0  0  0  0  0  0  0  0  0
    0.2532    0.0487    3.3061 C   0  0  0  0  0  0  0  0  0  0  0  0
    2.3866    0.0336   -0.6919 H   0  0  0  0  0  0  0  0  0  0  0  0
    1.5353   -1.5008   -0.7548 H   0  0  0  0  0  0  0  0  0  0  0  0
    2.8772   -1.2871    0.3780 H   0  0  0  0  0  0  0  0  0  0  0  0
    2.1015   -0.9493    2.6377 H   0  0  0  0  0  0  0  0  0  0  0  0
   -0.1153   -0.7766    3.9211 H   0  0  0  0  0  0  0  0  0  0  0  0
    0.7360    0.7577    3.9839 H   0  0  0  0  0  0  0  0  0  0  0  0
   -0.6059    0.5440    2.8512 H   0  0  0  0  0  0  0  0  0  0  0  0
  1  2  1  0
  1  6  1  0
  1  7  1  0
  2  3  1  0
  3  4  2  3
  4  8  1  0
  4  9  1  0
  5 11  1  0
 10 11  1  0
 10 14  1  0
 10 15  1  0
 10 16  1  0
 11 12  2  3
 12 13  1  0
 12 17  1  0
 13 18  1  0
 13 19  1  0
 13 20  1  0
M  RAD  1   1   2
M  END
>  <reaction>  (14) 
rmg_rxn_15628

>  <mol_properties>  (14) 
{"0": {"label": "*1", "atom_type": "Cs"}, "1": {"label": "*0", "atom_type": "O2s"}, "4": {"label": "*2", "atom_type": "H0"}, "10": {"label": "*3", "atom_type": "Cd"}, "11": {"label": "*4", "atom_type": "Cd"}}

>  <type>  (14) 
unop_10

>  <geom_source>  (14) 
Heuristics

$$$$

     RDKit          3D

 20 18  0  0  0  0  0  0  0  0999 V2000
   -0.4316    1.3724    0.7028 C   0  0  0  0  0  3  0  0  0  0  0  0
   -1.4765    1.0366   -0.1372 O   0  0  0  0  0  0  0  0  0  0  0  0
   -2.0764   -0.1560    0.2081 N   0  0  0  0  0  0  0  0  0  0  0  0
   -3.0041   -0.5498   -0.5562 C   0  0  0  0  0  0  0  0  0  0  0  0
    0.6957    0.7388    0.3072 H   0  0  0  0  0  0  0  0  0  0  0  0
   -0.5782    1.0532    1.7315 H   0  0  0  0  0  0  0  0  0  0  0  0
   -0.2327    2.4321    0.5885 H   0  0  0  0  0  0  0  0  0  0  0  0
   -3.4804   -1.4765   -0.2915 H   0  0  0  0  0  0  0  0  0  0  0  0
   -3.3377   -0.0140   -1.4391 H   0  0  0  0  0  0  0  0  0  0  0  0
    2.8457    1.1582   -0.4116 C   0  0  0  0  0  0  0  0  0  0  0  0
    1.7950    0.1725   -0.0570 C   0  0  0  0  0  0  0  0  0  0  0  0
    1.8638   -1.1393   -0.0641 C   0  0  0  0  0  0  0  0  0  0  0  0
    0.7609   -2.0770    0.3068 C   0  0  0  0  0  0  0  0  0  0  0  0
    2.5103    1.7883   -1.2354 H   0  0  0  0  0  0  0  0  0  0  0  0
    3.7696    0.6599   -0.7091 H   0  0  0  0  0  0  0  0  0  0  0  0
    3.0586    1.8065    0.4386 H   0  0  0  0  0  0  0  0  0  0  0  0
    2.7919   -1.6304   -0.3592 H   0  0  0  0  0  0  0  0  0  0  0  0
    0.5704   -2.7710   -0.5117 H   0  0  0  0  0  0  0  0  0  0  0  0
    1.0484   -2.6664    1.1777 H   0  0  0  0  0  0  0  0  0  0  0  0
   -0.1583   -1.5422    0.5318 H   0  0  0  0  0  0  0  0  0  0  0  0
  1  2  1  0
  1  6  1  0
  1  7  1  0
  2  3  1  0
  3  4  2  3
  4  8  1  0
  4  9  1  0
  5 11  1  0
 10 11  1  0
 10 14  1  0
 10 15  1  0
 10 16  1  0
 11 12  2  3
 12 13  1  0
 12 17  1  0
 13 18  1  0
 13 19  1  0
 13 20  1  0
M  RAD  1   1   2
M  END
>  <reaction>  (15) 
rmg_rxn_15628

>  <mol_properties>  (15) 
{"0": {"label": "*1", "atom_type": "Cs"}, "1": {"label": "*0", "atom_type": "O2s"}, "4": {"label": "*2", "atom_type": "H0"}, "10": {"label": "*3", "atom_type": "Cd"}, "11": {"label": "*4", "atom_type": "Cd"}}

>  <type>  (15) 
unop_11

>  <geom_source>  (15) 
Heuristics

$$$$

     RDKit          3D

 20 18  0  0  0  0  0  0  0  0999 V2000
   -1.0257    1.2078    0.3480 C   0  0  0  0  0  3  0  0  0  0  0  0
   -1.0257    1.2657   -1.0649 O   0  0  0  0  0  0  0  0  0  0  0  0
   -1.0257   -0.0082   -1.5806 N   0  0  0  0  0  0  0  0  0  0  0  0
   -1.0257   -0.0082   -2.8442 C   0  0  0  0  0  0  0  0  0  0  0  0
    0.0449    0.5956    0.7921 H   0  0  0  0  0  0  0  0  0  0  0  0
   -1.9178    0.6976    0.7181 H   0  0  0  0  0  0  0  0  0  0  0  0
   -1.0257    2.2427    0.6858 H   0  0  0  0  0  0  0  0  0  0  0  0
   -1.0257   -0.9752   -3.3290 H   0  0  0  0  0  0  0  0  0  0  0  0
   -1.0257    0.9083   -3.4304 H   0  0  0  0  0  0  0  0  0  0  0  0
    1.7647    0.9552    2.1672 C   0  0  0  0  0  0  0  0  0  0  0  0
    1.1115   -0.0143    1.2346 C   0  0  0  0  0  0  0  0  0  0  0  0
    1.0654   -1.3273    1.4078 C   0  0  0  0  0  0  0  0  0  0  0  0
    0.4123   -2.2968    0.4753 C   0  0  0  0  0  0  0  0  0  0  0  0
    1.0436    1.6870    2.5408 H   0  0  0  0  0  0  0  0  0  0  0  0
    2.5529    1.5177    1.6598 H   0  0  0  0  0  0  0  0  0  0  0  0
    2.2078    0.4459    3.0242 H   0  0  0  0  0  0  0  0  0  0  0  0
    1.5343   -1.7527    2.2930 H   0  0  0  0  0  0  0  0  0  0  0  0
    1.1333   -3.0286    0.1016 H   0  0  0  0  0  0  0  0  0  0  0  0
   -0.3759   -2.8593    0.9826 H   0  0  0  0  0  0  0  0  0  0  0  0
   -0.0309   -1.7875   -0.3818 H   0  0  0  0  0  0  0  0  0  0  0  0
  1  2  1  0
  1  6  1  0
  1  7  1  0
  2  3  1  0
  3  4  2  3
  4  8  1  0
  4  9  1  0
  5 11  1  0
 10 11  1  0
 10 14  1  0
 10 15  1  0
 10 16  1  0
 11 12  2  3
 12 13  1  0
 12 17  1  0
 13 18  1  0
 13 19  1  0
 13 20  1  0
M  RAD  1   1   2
M  END
>  <reaction>  (16) 
rmg_rxn_15628

>  <mol_properties>  (16) 
{"0": {"label": "*1", "atom_type": "Cs"}, "1": {"label": "*0", "atom_type": "O2s"}, "4": {"label": "*2", "atom_type": "H0"}, "10": {"label": "*3", "atom_type": "Cd"}, "11": {"label": "*4", "atom_type": "Cd"}}

>  <type>  (16) 
unop_12

>  <geom_source>  (16) 
Heuristics

$$$$

     RDKit          3D

 20 18  0  0  0  0  0  0  0  0999 V2000
   -0.4323   -1.3704    0.7050 C   0  0  0  0  0  3  0  0  0  0  0  0
   -1.4773   -1.0362   -0.1355 O   0  0  0  0  0  0  0  0  0  0  0  0
   -2.0770    0.1572    0.2073 N   0  0  0  0  0  0  0  0  0  0  0  0
   -3.0045    0.5494   -0.5579 C   0  0  0  0  0  0  0  0  0  0  0  0
    0.6951   -0.7381    0.3076 H   0  0  0  0  0  0  0  0  0  0  0  0
   -0.2339   -2.4304    0.5934 H   0  0  0  0  0  0  0  0  0  0  0  0
   -0.5784   -1.0485    1.7329 H   0  0  0  0  0  0  0  0  0  0  0  0
   -3.4809    1.4767   -0.2953 H   0  0  0  0  0  0  0  0  0  0  0  0
   -3.3378    0.0118   -1.4399 H   0  0  0  0  0  0  0  0  0  0  0  0
    2.8438   -1.1604   -0.4131 C   0  0  0  0  0  0  0  0  0  0  0  0
    1.7948   -0.1734   -0.0575 C   0  0  0  0  0  0  0  0  0  0  0  0
    1.8655    1.1384   -0.0641 C   0  0  0  0  0  0  0  0  0  0  0  0
    0.7638    2.0774    0.3072 C   0  0  0  0  0  0  0  0  0  0  0  0
    3.7692   -0.6635   -0.7086 H   0  0  0  0  0  0  0  0  0  0  0  0
    2.5081   -1.7880   -1.2387 H   0  0  0  0  0  0  0  0  0  0  0  0
    3.0545   -1.8111    0.4359 H   0  0  0  0  0  0  0  0  0  0  0  0
    2.7941    1.6283   -0.3592 H   0  0  0  0  0  0  0  0  0  0  0  0
    1.0515    2.6651    1.1792 H   0  0  0  0  0  0  0  0  0  0  0  0
    0.5752    2.7729   -0.5104 H   0  0  0  0  0  0  0  0  0  0  0  0
   -0.1565    1.5438    0.5305 H   0  0  0  0  0  0  0  0  0  0  0  0
  1  2  1  0
  1  6  1  0
  1  7  1  0
  2  3  1  0
  3  4  2  3
  4  8  1  0
  4  9  1  0
  5 11  1  0
 10 11  1  0
 10 14  1  0
 10 15  1  0
 10 16  1  0
 11 12  2  3
 12 13  1  0
 12 17  1  0
 13 18  1  0
 13 19  1  0
 13 20  1  0
M  RAD  1   1   2
M  END
>  <reaction>  (17) 
rmg_rxn_15628

>  <mol_properties>  (17) 
{"0": {"label": "*1", "atom_type": "Cs"}, "1": {"label": "*0", "atom_type": "O2s"}, "4": {"label": "*2", "atom_type": "H0"}, "10": {"label": "*3", "atom_type": "Cd"}, "11": {"label": "*4", "atom_type": "Cd"}}

>  <type>  (17) 
unop_13

>  <geom_source>  (17) 
Heuristics

$$$$

     RDKit          3D

 20 18  0  0  0  0  0  0  0  0999 V2000
   -1.0008    1.1523    0.2122 C   0  0  0  0  0  3  0  0  0  0  0  0
   -1.0008    1.2103   -1.2007 O   0  0  0  0  0  0  0  0  0  0  0  0
   -1.0008   -0.0636   -1.7164 N   0  0  0  0  0  0  0  0  0  0  0  0
   -1.0008   -0.0636   -2.9801 C   0  0  0  0  0  0  0  0  0  0  0  0
    0.0698    0.5402    0.6563 H   0  0  0  0  0  0  0  0  0  0  0  0
   -1.8929    0.6421    0.5823 H   0  0  0  0  0  0  0  0  0  0  0  0
   -1.0008    2.1872    0.5500 H   0  0  0  0  0  0  0  0  0  0  0  0
   -1.0008   -1.0307   -3.4649 H   0  0  0  0  0  0  0  0  0  0  0  0
   -1.0008    0.8529   -3.5662 H   0  0  0  0  0  0  0  0  0  0  0  0
    2.0896    1.0406    1.4065 C   0  0  0  0  0  0  0  0  0  0  0  0
    1.1365   -0.0698    1.0988 C   0  0  0  0  0  0  0  0  0  0  0  0
    0.9839   -1.1680    1.8245 C   0  0  0  0  0  0  0  0  0  0  0  0
    0.0307   -2.2784    1.5168 C   0  0  0  0  0  0  0  0  0  0  0  0
    1.5596    1.9875    1.5390 H   0  0  0  0  0  0  0  0  0  0  0  0
    2.7994    1.1868    0.5880 H   0  0  0  0  0  0  0  0  0  0  0  0
    2.6564    0.8377    2.3163 H   0  0  0  0  0  0  0  0  0  0  0  0
    1.5915   -1.2896    2.7192 H   0  0  0  0  0  0  0  0  0  0  0  0
    0.5608   -3.2253    1.3844 H   0  0  0  0  0  0  0  0  0  0  0  0
   -0.6791   -2.4246    2.3354 H   0  0  0  0  0  0  0  0  0  0  0  0
   -0.5361   -2.0755    0.6070 H   0  0  0  0  0  0  0  0  0  0  0  0
  1  2  1  0
  1  6  1  0
  1  7  1  0
  2  3  1  0
  3  4  2  3
  4  8  1  0
  4  9  1  0
  5 11  1  0
 10 11  1  0
 10 14  1  0
 10 15  1  0
 10 16  1  0
 11 12  2  3
 12 13  1  0
 12 17  1  0
 13 18  1  0
 13 19  1  0
 13 20  1  0
M  RAD  1   1   2
M  END
>  <reaction>  (18) 
rmg_rxn_15628

>  <mol_properties>  (18) 
{"0": {"label": "*1", "atom_type": "Cs"}, "1": {"label": "*0", "atom_type": "O2s"}, "4": {"label": "*2", "atom_type": "H0"}, "10": {"label": "*3", "atom_type": "Cd"}, "11": {"label": "*4", "atom_type": "Cd"}}

>  <type>  (18) 
unop_14

>  <geom_source>  (18) 
Heuristics

$$$$

     RDKit          3D

 20 18  0  0  0  0  0  0  0  0999 V2000
   -0.4333    1.3674    0.7097 C   0  0  0  0  0  3  0  0  0  0  0  0
   -1.4777    1.0360   -0.1326 O   0  0  0  0  0  0  0  0  0  0  0  0
   -2.0769   -0.1591    0.2052 N   0  0  0  0  0  0  0  0  0  0  0  0
   -3.0040   -0.5487   -0.5618 C   0  0  0  0  0  0  0  0  0  0  0  0
    0.6947    0.7376    0.3097 H   0  0  0  0  0  0  0  0  0  0  0  0
   -0.5796    1.0412    1.7362 H   0  0  0  0  0  0  0  0  0  0  0  0
   -0.2356    2.4281    0.6025 H   0  0  0  0  0  0  0  0  0  0  0  0
   -3.4802   -1.4771   -0.3028 H   0  0  0  0  0  0  0  0  0  0  0  0
   -3.3376   -0.0078   -1.4416 H   0  0  0  0  0  0  0  0  0  0  0  0
    2.8413    1.1627   -0.4163 C   0  0  0  0  0  0  0  0  0  0  0  0
    1.7944    0.1744   -0.0579 C   0  0  0  0  0  0  0  0  0  0  0  0
    1.8664   -1.1373   -0.0648 C   0  0  0  0  0  0  0  0  0  0  0  0
    0.7668   -2.0774    0.3095 C   0  0  0  0  0  0  0  0  0  0  0  0
    2.5029    1.7889   -1.2418 H   0  0  0  0  0  0  0  0  0  0  0  0
    3.7667    0.6668   -0.7133 H   0  0  0  0  0  0  0  0  0  0  0  0
    3.0527    1.8145    0.4316 H   0  0  0  0  0  0  0  0  0  0  0  0
    2.7948   -1.6261   -0.3627 H   0  0  0  0  0  0  0  0  0  0  0  0
   -0.1545   -1.5452    0.5319 H   0  0  0  0  0  0  0  0  0  0  0  0
    0.5791   -2.7754   -0.5062 H   0  0  0  0  0  0  0  0  0  0  0  0
    1.0561   -2.6624    1.1828 H   0  0  0  0  0  0  0  0  0  0  0  0
  1  2  1  0
  1  6  1  0
  1  7  1  0
  2  3  1  0
  3  4  2  3
  4  8  1  0
  4  9  1  0
  5 11  1  0
 10 11  1  0
 10 14  1  0
 10 15  1  0
 10 16  1  0
 11 12  2  3
 12 13  1  0
 12 17  1  0
 13 18  1  0
 13 19  1  0
 13 20  1  0
M  RAD  1   1   2
M  END
>  <reaction>  (19) 
rmg_rxn_15628

>  <mol_properties>  (19) 
{"0": {"label": "*1", "atom_type": "Cs"}, "1": {"label": "*0", "atom_type": "O2s"}, "4": {"label": "*2", "atom_type": "H0"}, "10": {"label": "*3", "atom_type": "Cd"}, "11": {"label": "*4", "atom_type": "Cd"}}

>  <type>  (19) 
unop_15

>  <geom_source>  (19) 
Heuristics

$$$$

     RDKit          3D

 20 18  0  0  0  0  0  0  0  0999 V2000
   -1.3039    0.7064    0.3275 C   0  0  0  0  0  3  0  0  0  0  0  0
   -1.3039    0.7643   -1.0854 O   0  0  0  0  0  0  0  0  0  0  0  0
   -1.3039   -0.5096   -1.6011 N   0  0  0  0  0  0  0  0  0  0  0  0
   -1.3039   -0.5096   -2.8648 C   0  0  0  0  0  0  0  0  0  0  0  0
   -0.2333    0.0942    0.7716 H   0  0  0  0  0  0  0  0  0  0  0  0
   -2.1960    0.1962    0.6976 H   0  0  0  0  0  0  0  0  0  0  0  0
   -1.3039    1.7413    0.6653 H   0  0  0  0  0  0  0  0  0  0  0  0
   -1.3039   -1.4766   -3.3496 H   0  0  0  0  0  0  0  0  0  0  0  0
   -1.3039    0.4069   -3.4509 H   0  0  0  0  0  0  0  0  0  0  0  0
    0.3256   -1.6387    2.0609 C   0  0  0  0  0  0  0  0  0  0  0  0
    0.8334   -0.5157    1.2141 C   0  0  0  0  0  0  0  0  0  0  0  0
    1.9155    0.2049    1.4706 C   0  0  0  0  0  0  0  0  0  0  0  0
    2.4233    1.3279    0.6238 C   0  0  0  0  0  0  0  0  0  0  0  0
    0.2841   -2.5715    1.4922 H   0  0  0  0  0  0  0  0  0  0  0  0
   -0.6896   -1.4370    2.4128 H   0  0  0  0  0  0  0  0  0  0  0  0
    0.9621   -1.7993    2.9322 H   0  0  0  0  0  0  0  0  0  0  0  0
    2.4937   -0.0236    2.3638 H   0  0  0  0  0  0  0  0  0  0  0  0
    2.4647    2.2607    1.1925 H   0  0  0  0  0  0  0  0  0  0  0  0
    3.4385    1.1262    0.2719 H   0  0  0  0  0  0  0  0  0  0  0  0
    1.7867    1.4886   -0.2475 H   0  0  0  0  0  0  0  0  0  0  0  0
  1  2  1  0
  1  6  1  0
  1  7  1  0
  2  3  1  0
  3  4  2  3
  4  8  1  0
  4  9  1  0
  5 11  1  0
 10 11  1  0
 10 14  1  0
 10 15  1  0
 10 16  1  0
 11 12  2  3
 12 13  1  0
 12 17  1  0
 13 18  1  0
 13 19  1  0
 13 20  1  0
M  RAD  1   1   2
M  END
>  <reaction>  (20) 
rmg_rxn_15628

>  <mol_properties>  (20) 
{"0": {"label": "*1", "atom_type": "Cs"}, "1": {"label": "*0", "atom_type": "O2s"}, "4": {"label": "*2", "atom_type": "H0"}, "10": {"label": "*3", "atom_type": "Cd"}, "11": {"label": "*4", "atom_type": "Cd"}}

>  <type>  (20) 
unop_16

>  <geom_source>  (20) 
Heuristics

$$$$

     RDKit          3D

 20 18  0  0  0  0  0  0  0  0999 V2000
   -0.4322    1.3709   -0.7059 C   0  0  0  0  0  3  0  0  0  0  0  0
   -1.4768    1.0368    0.1352 O   0  0  0  0  0  0  0  0  0  0  0  0
   -2.0760   -0.1571   -0.2068 N   0  0  0  0  0  0  0  0  0  0  0  0
   -3.0030   -0.5497    0.5589 C   0  0  0  0  0  0  0  0  0  0  0  0
    0.6952    0.7385   -0.3087 H   0  0  0  0  0  0  0  0  0  0  0  0
   -0.2338    2.4310   -0.5947 H   0  0  0  0  0  0  0  0  0  0  0  0
   -0.5788    1.0486   -1.7336 H   0  0  0  0  0  0  0  0  0  0  0  0
   -3.4785   -1.4775    0.2967 H   0  0  0  0  0  0  0  0  0  0  0  0
   -3.3363   -0.0123    1.4409 H   0  0  0  0  0  0  0  0  0  0  0  0
    2.8437    1.1596    0.4139 C   0  0  0  0  0  0  0  0  0  0  0  0
    1.7943    0.1731    0.0575 C   0  0  0  0  0  0  0  0  0  0  0  0
    1.8641   -1.1387    0.0644 C   0  0  0  0  0  0  0  0  0  0  0  0
    0.7625   -2.0770   -0.3084 C   0  0  0  0  0  0  0  0  0  0  0  0
    3.7677    0.6620    0.7125 H   0  0  0  0  0  0  0  0  0  0  0  0
    2.5067    1.7890    1.2375 H   0  0  0  0  0  0  0  0  0  0  0  0
    3.0573    1.8085   -0.4357 H   0  0  0  0  0  0  0  0  0  0  0  0
    2.7922   -1.6291    0.3606 H   0  0  0  0  0  0  0  0  0  0  0  0
    0.5736   -2.7735    0.5083 H   0  0  0  0  0  0  0  0  0  0  0  0
   -0.1577   -1.5432   -0.5315 H   0  0  0  0  0  0  0  0  0  0  0  0
    1.0504   -2.6637   -1.1810 H   0  0  0  0  0  0  0  0  0  0  0  0
  1  2  1  0
  1  6  1  0
  1  7  1  0
  2  3  1  0
  3  4  2  3
  4  8  1  0
  4  9  1  0
  5 11  1  0
 10 11  1  0
 10 14  1  0
 10 15  1  0
 10 16  1  0
 11 12  2  3
 12 13  1  0
 12 17  1  0
 13 18  1  0
 13 19  1  0
 13 20  1  0
M  RAD  1   1   2
M  END
>  <reaction>  (21) 
rmg_rxn_15628

>  <mol_properties>  (21) 
{"0": {"label": "*1", "atom_type": "Cs"}, "1": {"label": "*0", "atom_type": "O2s"}, "4": {"label": "*2", "atom_type": "H0"}, "10": {"label": "*3", "atom_type": "Cd"}, "11": {"label": "*4", "atom_type": "Cd"}}

>  <type>  (21) 
unop_17

>  <geom_source>  (21) 
Heuristics

$$$$

     RDKit          3D

 20 18  0  0  0  0  0  0  0  0999 V2000
   -1.1744    1.1188    0.5794 C   0  0  0  0  0  3  0  0  0  0  0  0
   -1.1744    1.1767   -0.8335 O   0  0  0  0  0  0  0  0  0  0  0  0
   -1.1744   -0.0972   -1.3492 N   0  0  0  0  0  0  0  0  0  0  0  0
   -1.1744   -0.0972   -2.6129 C   0  0  0  0  0  0  0  0  0  0  0  0
   -0.1038    0.5066    1.0235 H   0  0  0  0  0  0  0  0  0  0  0  0
   -2.0665    0.6086    0.9495 H   0  0  0  0  0  0  0  0  0  0  0  0
   -1.1744    2.1537    0.9172 H   0  0  0  0  0  0  0  0  0  0  0  0
   -1.1744   -1.0643   -3.0977 H   0  0  0  0  0  0  0  0  0  0  0  0
   -1.1744    0.8193   -3.1990 H   0  0  0  0  0  0  0  0  0  0  0  0
    1.2087    0.0823    2.9293 C   0  0  0  0  0  0  0  0  0  0  0  0
    0.9629   -0.1033    1.4660 C   0  0  0  0  0  0  0  0  0  0  0  0
    1.5140   -1.0440    0.7126 C   0  0  0  0  0  0  0  0  0  0  0  0
    1.2681   -1.2297   -0.7507 C   0  0  0  0  0  0  0  0  0  0  0  0
    0.2782   -0.0003    3.4972 H   0  0  0  0  0  0  0  0  0  0  0  0
    1.6186    1.0746    3.1356 H   0  0  0  0  0  0  0  0  0  0  0  0
    1.9086   -0.6615    3.3127 H   0  0  0  0  0  0  0  0  0  0  0  0
    2.2028   -1.7466    1.1776 H   0  0  0  0  0  0  0  0  0  0  0  0
    2.1986   -1.1470   -1.3186 H   0  0  0  0  0  0  0  0  0  0  0  0
    0.8582   -2.2219   -0.9570 H   0  0  0  0  0  0  0  0  0  0  0  0
    0.5682   -0.4858   -1.1341 H   0  0  0  0  0  0  0  0  0  0  0  0
  1  2  1  0
  1  6  1  0
  1  7  1  0
  2  3  1  0
  3  4  2  3
  4  8  1  0
  4  9  1  0
  5 11  1  0
 10 11  1  0
 10 14  1  0
 10 15  1  0
 10 16  1  0
 11 12  2  3
 12 13  1  0
 12 17  1  0
 13 18  1  0
 13 19  1  0
 13 20  1  0
M  RAD  1   1   2
M  END
>  <reaction>  (22) 
rmg_rxn_15628

>  <mol_properties>  (22) 
{"0": {"label": "*1", "atom_type": "Cs"}, "1": {"label": "*0", "atom_type": "O2s"}, "4": {"label": "*2", "atom_type": "H0"}, "10": {"label": "*3", "atom_type": "Cd"}, "11": {"label": "*4", "atom_type": "Cd"}}

>  <type>  (22) 
unop_18

>  <geom_source>  (22) 
Heuristics

$$$$

     RDKit          3D

 20 18  0  0  0  0  0  0  0  0999 V2000
   -1.3321    0.7582    0.4648 C   0  0  0  0  0  3  0  0  0  0  0  0
   -1.3321    0.8161   -0.9481 O   0  0  0  0  0  0  0  0  0  0  0  0
   -1.3321   -0.4577   -1.4638 N   0  0  0  0  0  0  0  0  0  0  0  0
   -1.3321   -0.4577   -2.7274 C   0  0  0  0  0  0  0  0  0  0  0  0
   -0.2615    0.1460    0.9089 H   0  0  0  0  0  0  0  0  0  0  0  0
   -2.2242    0.2480    0.8349 H   0  0  0  0  0  0  0  0  0  0  0  0
   -1.3321    1.7931    0.8026 H   0  0  0  0  0  0  0  0  0  0  0  0
   -1.3321   -1.4248   -3.2123 H   0  0  0  0  0  0  0  0  0  0  0  0
   -1.3321    0.4587   -3.3136 H   0  0  0  0  0  0  0  0  0  0  0  0
    0.4716   -1.2010    2.6090 C   0  0  0  0  0  0  0  0  0  0  0  0
    0.8052   -0.4639    1.3514 C   0  0  0  0  0  0  0  0  0  0  0  0
    1.9937    0.0420    1.0554 C   0  0  0  0  0  0  0  0  0  0  0  0
    2.3272    0.7791   -0.2022 C   0  0  0  0  0  0  0  0  0  0  0  0
    0.1218   -2.2132    2.3897 H   0  0  0  0  0  0  0  0  0  0  0  0
   -0.3312   -0.7001    3.1564 H   0  0  0  0  0  0  0  0  0  0  0  0
    1.3378   -1.2756    3.2681 H   0  0  0  0  0  0  0  0  0  0  0  0
    2.8041   -0.0784    1.7718 H   0  0  0  0  0  0  0  0  0  0  0  0
    2.6771    1.7913    0.0171 H   0  0  0  0  0  0  0  0  0  0  0  0
    3.1301    0.2782   -0.7496 H   0  0  0  0  0  0  0  0  0  0  0  0
    1.4611    0.8537   -0.8613 H   0  0  0  0  0  0  0  0  0  0  0  0
  1  2  1  0
  1  6  1  0
  1  7  1  0
  2  3  1  0
  3  4  2  3
  4  8  1  0
  4  9  1  0
  5 11  1  0
 10 11  1  0
 10 14  1  0
 10 15  1  0
 10 16  1  0
 11 12  2  3
 12 13  1  0
 12 17  1  0
 13 18  1  0
 13 19  1  0
 13 20  1  0
M  RAD  1   1   2
M  END
>  <reaction>  (23) 
rmg_rxn_15628

>  <mol_properties>  (23) 
{"0": {"label": "*1", "atom_type": "Cs"}, "1": {"label": "*0", "atom_type": "O2s"}, "4": {"label": "*2", "atom_type": "H0"}, "10": {"label": "*3", "atom_type": "Cd"}, "11": {"label": "*4", "atom_type": "Cd"}}

>  <type>  (23) 
unop_19

>  <geom_source>  (23) 
Heuristics

$$$$

     RDKit          3D

 20 18  0  0  0  0  0  0  0  0999 V2000
   -1.0211    1.0459    0.1122 C   0  0  0  0  0  3  0  0  0  0  0  0
   -1.0211    1.1038   -1.3007 O   0  0  0  0  0  0  0  0  0  0  0  0
   -1.0211   -0.1701   -1.8164 N   0  0  0  0  0  0  0  0  0  0  0  0
   -1.0211   -0.1701   -3.0800 C   0  0  0  0  0  0  0  0  0  0  0  0
    0.0495    0.4337    0.5563 H   0  0  0  0  0  0  0  0  0  0  0  0
   -1.9132    0.5357    0.4823 H   0  0  0  0  0  0  0  0  0  0  0  0
   -1.0211    2.0808    0.4500 H   0  0  0  0  0  0  0  0  0  0  0  0
   -1.0211   -1.1372   -3.5649 H   0  0  0  0  0  0  0  0  0  0  0  0
   -1.0211    0.7464   -3.6662 H   0  0  0  0  0  0  0  0  0  0  0  0
    2.3212    0.5672    0.5178 C   0  0  0  0  0  0  0  0  0  0  0  0
    1.1161   -0.1762    0.9988 C   0  0  0  0  0  0  0  0  0  0  0  0
    1.0368   -0.8448    2.1402 C   0  0  0  0  0  0  0  0  0  0  0  0
   -0.1682   -1.5881    2.6212 C   0  0  0  0  0  0  0  0  0  0  0  0
    2.0947    1.6259    0.3662 H   0  0  0  0  0  0  0  0  0  0  0  0
    2.6659    0.1762   -0.4432 H   0  0  0  0  0  0  0  0  0  0  0  0
    3.1444    0.4939    1.2300 H   0  0  0  0  0  0  0  0  0  0  0  0
    1.9074   -0.8661    2.7929 H   0  0  0  0  0  0  0  0  0  0  0  0
    0.0583   -2.6468    2.7728 H   0  0  0  0  0  0  0  0  0  0  0  0
   -0.5129   -1.1972    3.5822 H   0  0  0  0  0  0  0  0  0  0  0  0
   -0.9914   -1.5149    1.9090 H   0  0  0  0  0  0  0  0  0  0  0  0
  1  2  1  0
  1  6  1  0
  1  7  1  0
  2  3  1  0
  3  4  2  3
  4  8  1  0
  4  9  1  0
  5 11  1  0
 10 11  1  0
 10 14  1  0
 10 15  1  0
 10 16  1  0
 11 12  2  3
 12 13  1  0
 12 17  1  0
 13 18  1  0
 13 19  1  0
 13 20  1  0
M  RAD  1   1   2
M  END
>  <reaction>  (24) 
rmg_rxn_15628

>  <mol_properties>  (24) 
{"0": {"label": "*1", "atom_type": "Cs"}, "1": {"label": "*0", "atom_type": "O2s"}, "4": {"label": "*2", "atom_type": "H0"}, "10": {"label": "*3", "atom_type": "Cd"}, "11": {"label": "*4", "atom_type": "Cd"}}

>  <type>  (24) 
unop_20

>  <geom_source>  (24) 
Heuristics

$$$$

     RDKit          3D

 20 18  0  0  0  0  0  0  0  0999 V2000
   -1.2574    0.9973    0.6111 C   0  0  0  0  0  3  0  0  0  0  0  0
   -1.2574    1.0552   -0.8018 O   0  0  0  0  0  0  0  0  0  0  0  0
   -1.2574   -0.2187   -1.3175 N   0  0  0  0  0  0  0  0  0  0  0  0
   -1.2574   -0.2187   -2.5811 C   0  0  0  0  0  0  0  0  0  0  0  0
   -0.1868    0.3851    1.0552 H   0  0  0  0  0  0  0  0  0  0  0  0
   -2.1495    0.4871    0.9812 H   0  0  0  0  0  0  0  0  0  0  0  0
   -1.2574    2.0322    0.9489 H   0  0  0  0  0  0  0  0  0  0  0  0
   -1.2574   -1.1857   -3.0659 H   0  0  0  0  0  0  0  0  0  0  0  0
   -1.2574    0.6978   -3.1673 H   0  0  0  0  0  0  0  0  0  0  0  0
    1.0001   -0.3524    2.9828 C   0  0  0  0  0  0  0  0  0  0  0  0
    0.8798   -0.2248    1.4977 C   0  0  0  0  0  0  0  0  0  0  0  0
    1.7618   -0.6781    0.6186 C   0  0  0  0  0  0  0  0  0  0  0  0
    1.6415   -0.5505   -0.8664 C   0  0  0  0  0  0  0  0  0  0  0  0
    0.1532   -0.9042    3.3992 H   0  0  0  0  0  0  0  0  0  0  0  0
    1.0045    0.6301    3.4621 H   0  0  0  0  0  0  0  0  0  0  0  0
    1.9168   -0.8725    3.2645 H   0  0  0  0  0  0  0  0  0  0  0  0
    2.6506   -1.1864    0.9874 H   0  0  0  0  0  0  0  0  0  0  0  0
    2.4884    0.0013   -1.2829 H   0  0  0  0  0  0  0  0  0  0  0  0
    1.6371   -1.5330   -1.3458 H   0  0  0  0  0  0  0  0  0  0  0  0
    0.7248   -0.0304   -1.1481 H   0  0  0  0  0  0  0  0  0  0  0  0
  1  2  1  0
  1  6  1  0
  1  7  1  0
  2  3  1  0
  3  4  2  3
  4  8  1  0
  4  9  1  0
  5 11  1  0
 10 11  1  0
 10 14  1  0
 10 15  1  0
 10 16  1  0
 11 12  2  3
 12 13  1  0
 12 17  1  0
 13 18  1  0
 13 19  1  0
 13 20  1  0
M  RAD  1   1   2
M  END
>  <reaction>  (25) 
rmg_rxn_15628

>  <mol_properties>  (25) 
{"0": {"label": "*1", "atom_type": "Cs"}, "1": {"label": "*0", "atom_type": "O2s"}, "4": {"label": "*2", "atom_type": "H0"}, "10": {"label": "*3", "atom_type": "Cd"}, "11": {"label": "*4", "atom_type": "Cd"}}

>  <type>  (25) 
unop_21

>  <geom_source>  (25) 
Heuristics

$$$$

     RDKit          3D

 20 18  0  0  0  0  0  0  0  0999 V2000
   -0.4323    1.3700    0.7081 C   0  0  0  0  0  3  0  0  0  0  0  0
   -1.4759    1.0365   -0.1345 O   0  0  0  0  0  0  0  0  0  0  0  0
   -2.0768   -0.1567    0.2069 N   0  0  0  0  0  0  0  0  0  0  0  0
   -3.0016   -0.5495   -0.5614 C   0  0  0  0  0  0  0  0  0  0  0  0
    0.6956    0.7384    0.3109 H   0  0  0  0  0  0  0  0  0  0  0  0
   -0.5800    1.0466    1.7353 H   0  0  0  0  0  0  0  0  0  0  0  0
   -0.2341    2.4302    0.5983 H   0  0  0  0  0  0  0  0  0  0  0  0
   -3.4789   -1.4765   -0.2998 H   0  0  0  0  0  0  0  0  0  0  0  0
   -3.3323   -0.0122   -1.4445 H   0  0  0  0  0  0  0  0  0  0  0  0
    2.8429    1.1597   -0.4156 C   0  0  0  0  0  0  0  0  0  0  0  0
    1.7942    0.1733   -0.0571 C   0  0  0  0  0  0  0  0  0  0  0  0
    1.8637   -1.1385   -0.0648 C   0  0  0  0  0  0  0  0  0  0  0  0
    0.7625   -2.0767    0.3099 C   0  0  0  0  0  0  0  0  0  0  0  0
    3.7659    0.6620   -0.7169 H   0  0  0  0  0  0  0  0  0  0  0  0
    3.0588    1.8079    0.4339 H   0  0  0  0  0  0  0  0  0  0  0  0
    2.5039    1.7897   -1.2379 H   0  0  0  0  0  0  0  0  0  0  0  0
    2.7910   -1.6290   -0.3632 H   0  0  0  0  0  0  0  0  0  0  0  0
    1.0530   -2.6654    1.1803 H   0  0  0  0  0  0  0  0  0  0  0  0
   -0.1564   -1.5426    0.5371 H   0  0  0  0  0  0  0  0  0  0  0  0
    0.5702   -2.7714   -0.5076 H   0  0  0  0  0  0  0  0  0  0  0  0
  1  2  1  0
  1  6  1  0
  1  7  1  0
  2  3  1  0
  3  4  2  3
  4  8  1  0
  4  9  1  0
  5 11  1  0
 10 11  1  0
 10 14  1  0
 10 15  1  0
 10 16  1  0
 11 12  2  3
 12 13  1  0
 12 17  1  0
 13 18  1  0
 13 19  1  0
 13 20  1  0
M  RAD  1   1   2
M  END
>  <reaction>  (26) 
rmg_rxn_15628

>  <mol_properties>  (26) 
{"0": {"label": "*1", "atom_type": "Cs"}, "1": {"label": "*0", "atom_type": "O2s"}, "4": {"label": "*2", "atom_type": "H0"}, "10": {"label": "*3", "atom_type": "Cd"}, "11": {"label": "*4", "atom_type": "Cd"}}

>  <type>  (26) 
unop_22

>  <geom_source>  (26) 
Heuristics

$$$$

     RDKit          3D

 20 18  0  0  0  0  0  0  0  0999 V2000
    2.5984    1.4872   -0.6582 O   0  0  0  0  0  0  0  0  0  0  0  0
    3.8027    0.8267   -0.4711 N   0  0  0  0  0  0  0  0  0  0  0  0
   -3.1283   -0.2760    0.8165 C   0  0  0  0  0  0  0  0  0  0  0  0
   -1.1050   -0.9663   -1.2674 C   0  0  0  0  0  0  0  0  0  0  0  0
   -1.8822    0.5277    0.5827 C   0  0  0  0  0  0  0  0  0  0  0  0
   -0.9729    0.2169   -0.3544 C   0  0  0  0  0  0  0  0  0  0  0  0
    1.3898    1.1292    0.0065 C   0  0  0  0  0  3  0  0  0  0  0  0
    3.9736   -0.1857    0.3225 C   0  0  0  0  0  0  0  0  0  0  0  0
   -2.8643   -1.3158    1.1025 H   0  0  0  0  0  0  0  0  0  0  0  0
   -3.7532   -0.2877   -0.1010 H   0  0  0  0  0  0  0  0  0  0  0  0
   -3.7165    0.1798    1.6403 H   0  0  0  0  0  0  0  0  0  0  0  0
   -1.1379   -1.9047   -0.6752 H   0  0  0  0  0  0  0  0  0  0  0  0
   -2.0271   -0.8764   -1.8792 H   0  0  0  0  0  0  0  0  0  0  0  0
   -0.2294   -1.0059   -1.9480 H   0  0  0  0  0  0  0  0  0  0  0  0
   -1.7085    1.4025    1.2016 H   0  0  0  0  0  0  0  0  0  0  0  0
    0.0441    0.9539   -0.4759 H   0  0  0  0  0  0  0  0  0  0  0  0
    1.5078    1.2343    1.1054 H   0  0  0  0  0  0  0  0  0  0  0  0
    1.0942    0.0931   -0.2613 H   0  0  0  0  0  0  0  0  0  0  0  0
    3.1626   -0.5943    0.9091 H   0  0  0  0  0  0  0  0  0  0  0  0
    4.9521   -0.6385    0.4045 H   0  0  0  0  0  0  0  0  0  0  0  0
  1  7  1  0
  1  2  1  0
  2  8  2  3
  3  5  1  0
  3  9  1  0
  3 10  1  0
  3 11  1  0
  4  6  1  0
  4 12  1  0
  4 13  1  0
  4 14  1  0
  5  6  2  3
  5 15  1  0
  6 16  1  0
  7 17  1  0
  7 18  1  0
  8 19  1  0
  8 20  1  0
M  RAD  1   7   2
M  END
>  <reaction>  (27) 
rmg_rxn_15628

>  <mol_properties>  (27) 
{"0": {"label": "*1", "atom_type": "Cs"}, "1": {"label": "*0", "atom_type": "O2s"}, "4": {"label": "*2", "atom_type": "H0"}, "10": {"label": "*3", "atom_type": "Cd"}, "11": {"label": "*4", "atom_type": "Cd"}}

>  <type>  (27) 
unop_23

>  <geom_source>  (27) 
AutoTST

$$$$

     RDKit          3D

 20 18  0  0  0  0  0  0  0  0999 V2000
   -1.3152    0.8649    0.5690 C   0  0  0  0  0  3  0  0  0  0  0  0
   -1.3153    0.9228   -0.8439 O   0  0  0  0  0  0  0  0  0  0  0  0
   -1.3153   -0.3511   -1.3596 N   0  0  0  0  0  0  0  0  0  0  0  0
   -1.3153   -0.3511   -2.6233 C   0  0  0  0  0  0  0  0  0  0  0  0
   -0.2446    0.2527    1.0131 H   0  0  0  0  0  0  0  0  0  0  0  0
   -2.2074    0.3547    0.9391 H   0  0  0  0  0  0  0  0  0  0  0  0
   -1.3153    1.8998    0.9068 H   0  0  0  0  0  0  0  0  0  0  0  0
   -1.3153   -1.3182   -3.1081 H   0  0  0  0  0  0  0  0  0  0  0  0
   -1.3153    0.5654   -3.2094 H   0  0  0  0  0  0  0  0  0  0  0  0
    0.7441   -0.7550    2.8949 C   0  0  0  0  0  0  0  0  0  0  0  0
    0.8220   -0.3572    1.4556 C   0  0  0  0  0  0  0  0  0  0  0  0
    1.9373   -0.2811    0.7439 C   0  0  0  0  0  0  0  0  0  0  0  0
    2.0151    0.1168   -0.6955 C   0  0  0  0  0  0  0  0  0  0  0  0
    0.1134   -1.6385    3.0244 H   0  0  0  0  0  0  0  0  0  0  0  0
    0.3014    0.0414    3.4989 H   0  0  0  0  0  0  0  0  0  0  0  0
    1.7320   -0.9799    3.2996 H   0  0  0  0  0  0  0  0  0  0  0  0
    2.8815   -0.5234    1.2278 H   0  0  0  0  0  0  0  0  0  0  0  0
    2.6459    1.0002   -0.8250 H   0  0  0  0  0  0  0  0  0  0  0  0
    2.4578   -0.6797   -1.2995 H   0  0  0  0  0  0  0  0  0  0  0  0
    1.0273    0.3416   -1.1001 H   0  0  0  0  0  0  0  0  0  0  0  0
  1  2  1  0
  1  6  1  0
  1  7  1  0
  2  3  1  0
  3  4  2  3
  4  8  1  0
  4  9  1  0
  5 11  1  0
 10 11  1  0
 10 14  1  0
 10 15  1  0
 10 16  1  0
 11 12  2  3
 12 13  1  0
 12 17  1  0
 13 18  1  0
 13 19  1  0
 13 20  1  0
M  RAD  1   1   2
M  END
>  <reaction>  (28) 
rmg_rxn_15628

>  <mol_properties>  (28) 
{"0": {"label": "*1", "atom_type": "Cs"}, "1": {"label": "*0", "atom_type": "O2s"}, "4": {"label": "*2", "atom_type": "H0"}, "10": {"label": "*3", "atom_type": "Cd"}, "11": {"label": "*4", "atom_type": "Cd"}}

>  <type>  (28) 
unop_24

>  <geom_source>  (28) 
gaussian_log

$$$$
