
     RDKit          3D

 11 10  0  0  0  0  0  0  0  0999 V2000
   -1.7975    0.1503    0.3817 C   0  0  0  0  0  0  0  0  0  0  0  0
   -0.8638   -0.6174   -0.5008 C   0  0  0  0  0  0  0  0  0  0  0  0
   -0.0947   -1.5923   -0.0466 C   0  0  0  0  0  0  0  0  0  0  0  0
    0.7934   -2.3703   -0.7311 O   0  0  0  0  0  0  0  0  0  0  0  0
    0.8158   -2.0364   -2.1061 O   0  0  0  0  0  0  0  0  0  0  0  0
   -1.5629    1.2176    0.3708 H   0  0  0  0  0  0  0  0  0  0  0  0
   -2.8315    0.0463    0.0437 H   0  0  0  0  0  0  0  0  0  0  0  0
   -1.7470   -0.1930    1.4162 H   0  0  0  0  0  0  0  0  0  0  0  0
   -0.8338   -0.3680   -1.5532 H   0  0  0  0  0  0  0  0  0  0  0  0
   -0.0795   -1.9148    0.9889 H   0  0  0  0  0  0  0  0  0  0  0  0
    1.6362   -1.5328   -2.1654 H   0  0  0  0  0  0  0  0  0  0  0  0
  1  2  1  0
  1  6  1  0
  1  7  1  0
  1  8  1  0
  2  3  2  3
  2  9  1  0
  3  4  1  0
  3 10  1  0
  4  5  1  0
  5 11  1  0
M  END
>  <reaction>  (1) 
rmg_rxn_15699

>  <mol_properties>  (1) 
{"4": {"label": "donator", "atom_type": "O2s"}, "10": {"label": "d_hydrogen", "atom_type": "H0"}}

>  <type>  (1) 
r1h

$$$$

     RDKit          3D

  8  7  0  0  0  0  0  0  0  0999 V2000
    1.7077   -0.1964   -0.0607 C   0  0  0  0  0  3  0  0  0  0  0  0
    0.4209   -0.4565    0.2808 O   0  0  0  0  0  0  0  0  0  0  0  0
   -0.4607    0.4385   -0.2968 N   0  0  0  0  0  0  0  0  0  0  0  0
   -1.6584    0.1416   -0.0244 C   0  0  0  0  0  0  0  0  0  0  0  0
    2.4163   -0.7685    0.5170 H   0  0  0  0  0  0  0  0  0  0  0  0
    1.9214    0.7645   -0.5045 H   0  0  0  0  0  0  0  0  0  0  0  0
   -2.4185    0.7953   -0.4307 H   0  0  0  0  0  0  0  0  0  0  0  0
   -1.9286   -0.7185    0.5831 H   0  0  0  0  0  0  0  0  0  0  0  0
  1  2  1  0
  1  5  1  0
  1  6  1  0
  2  3  1  0
  3  4  2  3
  4  7  1  0
  4  8  1  0
M  RAD  1   1   2
M  END
>  <reaction>  (2) 
rmg_rxn_15699

>  <mol_properties>  (2) 
{"0": {"label": "acceptor", "atom_type": "Cs"}}

>  <type>  (2) 
r2

$$$$

     RDKit          3D

  9  8  0  0  0  0  0  0  0  0999 V2000
   -1.5470   -0.0755   -0.1976 C   0  0  0  0  0  0  0  0  0  0  0  0
   -0.2885    0.4507    0.1749 O   0  0  0  0  0  0  0  0  0  0  0  0
   -0.1502    1.7216   -0.3294 N   0  0  0  0  0  0  0  0  0  0  0  0
    0.9626    2.2353   -0.0219 C   0  0  0  0  0  0  0  0  0  0  0  0
   -1.6392   -0.1356   -1.2844 H   0  0  0  0  0  0  0  0  0  0  0  0
   -2.3597    0.5337    0.2044 H   0  0  0  0  0  0  0  0  0  0  0  0
   -1.5879   -1.0750    0.2318 H   0  0  0  0  0  0  0  0  0  0  0  0
    1.1497    3.2381   -0.3820 H   0  0  0  0  0  0  0  0  0  0  0  0
    1.7060    1.7101    0.5739 H   0  0  0  0  0  0  0  0  0  0  0  0
  1  2  1  0
  1  5  1  0
  1  6  1  0
  1  7  1  0
  2  3  1  0
  3  4  2  3
  4  8  1  0
  4  9  1  0
M  END
>  <reaction>  (3) 
rmg_rxn_15699

>  <mol_properties>  (3) 
{"0": {"label": "acceptor", "atom_type": "Cs"}, "8": {"label": "a_hydrogen", "atom_type": "H0"}}

>  <type>  (3) 
r2h

$$$$

     RDKit          3D

 19 17  0  0  0  0  0  0  0  0999 V2000
    0.6580   -0.0188    2.1384 C   0  0  0  0  0  3  0  0  0  0  0  0
    1.5454   -0.0623    1.0972 O   0  0  0  0  0  0  0  0  0  0  0  0
    1.4708   -1.2725    0.4250 N   0  0  0  0  0  0  0  0  0  0  0  0
    2.0620   -1.2079   -0.6886 C   0  0  0  0  0  0  0  0  0  0  0  0
    0.4587   -0.9913    2.5861 H   0  0  0  0  0  0  0  0  0  0  0  0
    0.9448    0.7766    2.8213 H   0  0  0  0  0  0  0  0  0  0  0  0
    2.0782   -2.1163   -1.2760 H   0  0  0  0  0  0  0  0  0  0  0  0
    2.5334   -0.2989   -1.0529 H   0  0  0  0  0  0  0  0  0  0  0  0
   -0.9749   -0.4361   -2.7699 C   0  0  0  0  0  0  0  0  0  0  0  0
   -1.1747   -0.0037   -1.3521 C   0  0  0  0  0  0  0  0  0  0  0  0
   -0.9920    1.2446   -0.9532 C   0  0  0  0  0  0  0  0  0  0  0  0
   -1.1461    1.7577    0.3025 O   0  0  0  0  0  0  0  0  0  0  0  0
   -1.5531    0.8163    1.2204 O   0  0  0  0  0  0  0  0  0  0  0  0
   -0.2293   -1.2330   -2.8386 H   0  0  0  0  0  0  0  0  0  0  0  0
   -1.9007   -0.8322   -3.1945 H   0  0  0  0  0  0  0  0  0  0  0  0
   -0.6434    0.3900   -3.4014 H   0  0  0  0  0  0  0  0  0  0  0  0
   -1.4895   -0.7445   -0.6291 H   0  0  0  0  0  0  0  0  0  0  0  0
   -0.6833    2.0493   -1.6110 H   0  0  0  0  0  0  0  0  0  0  0  0
   -0.5257    0.3861    1.6775 H   0  0  0  0  0  0  0  0  0  0  0  0
  1  2  1  0
  1  5  1  0
  1  6  1  0
  2  3  1  0
  3  4  2  3
  4  7  1  0
  4  8  1  0
  9 10  1  0
  9 14  1  0
  9 15  1  0
  9 16  1  0
 10 11  2  3
 10 17  1  0
 11 12  1  0
 11 18  1  0
 12 13  1  0
 13 19  1  0
M  RAD  1   1   2
M  END
>  <reaction>  (4) 
rmg_rxn_15699

>  <mol_properties>  (4) 
{"0": {"label": "*3", "atom_type": "Cs"}, "1": {"label": "*4", "atom_type": "O2s"}, "11": {"label": "*0", "atom_type": "O2s"}, "12": {"label": "*1", "atom_type": "O2s"}, "18": {"label": "*2", "atom_type": "H0"}}

>  <type>  (4) 
ts

$$$$

     RDKit          3D

 19 17  0  0  0  0  0  0  0  0999 V2000
    1.6327   -1.5496   -0.1640 C   0  0  0  0  0  3  0  0  0  0  0  0
    1.9335   -0.2410   -0.4818 O   0  0  0  0  0  0  0  0  0  0  0  0
    1.6998    0.6267    0.5655 N   0  0  0  0  0  0  0  0  0  0  0  0
    1.8820    1.8492    0.3185 C   0  0  0  0  0  0  0  0  0  0  0  0
    2.1275   -2.2018   -0.8742 H   0  0  0  0  0  0  0  0  0  0  0  0
    1.7997   -1.7941    0.8824 H   0  0  0  0  0  0  0  0  0  0  0  0
    1.7073    2.5321    1.1307 H   0  0  0  0  0  0  0  0  0  0  0  0
    2.2045    2.2383   -0.6430 H   0  0  0  0  0  0  0  0  0  0  0  0
   -1.7836    2.2439   -0.4261 C   0  0  0  0  0  0  0  0  0  0  0  0
   -1.4657    0.7903   -0.4489 C   0  0  0  0  0  0  0  0  0  0  0  0
   -1.7214   -0.0366    0.5603 C   0  0  0  0  0  0  0  0  0  0  0  0
   -1.4626   -1.3623    0.6294 O   0  0  0  0  0  0  0  0  0  0  0  0
   -0.8292   -1.8962   -0.4595 O   0  0  0  0  0  0  0  0  0  0  0  0
   -0.8834    2.8308   -0.6068 H   0  0  0  0  0  0  0  0  0  0  0  0
   -2.4947    2.4836   -1.2165 H   0  0  0  0  0  0  0  0  0  0  0  0
   -2.2093    2.5354    0.5303 H   0  0  0  0  0  0  0  0  0  0  0  0
   -1.0139    0.4008   -1.3505 H   0  0  0  0  0  0  0  0  0  0  0  0
   -2.1774    0.2701    1.4912 H   0  0  0  0  0  0  0  0  0  0  0  0
    0.3568   -1.7450   -0.3424 H   0  0  0  0  0  0  0  0  0  0  0  0
  1  2  1  0
  1  5  1  0
  1  6  1  0
  2  3  1  0
  3  4  2  3
  4  7  1  0
  4  8  1  0
  9 10  1  0
  9 14  1  0
  9 15  1  0
  9 16  1  0
 10 11  2  3
 10 17  1  0
 11 12  1  0
 11 18  1  0
 12 13  1  0
 13 19  1  0
M  RAD  1   1   2
M  END
>  <reaction>  (5) 
rmg_rxn_15699

>  <mol_properties>  (5) 
{"0": {"label": "*3", "atom_type": "Cs"}, "1": {"label": "*4", "atom_type": "O2s"}, "11": {"label": "*0", "atom_type": "O2s"}, "12": {"label": "*1", "atom_type": "O2s"}, "18": {"label": "*2", "atom_type": "H0"}}

>  <type>  (5) 
unop_1

>  <geom_source>  (5) 
crest_best.xyz

$$$$

     RDKit          3D

 19 17  0  0  0  0  0  0  0  0999 V2000
    1.1011   -0.1356    0.7470 C   0  0  0  0  0  3  0  0  0  0  0  0
    1.0517   -0.2380    2.1565 O   0  0  0  0  0  0  0  0  0  0  0  0
    2.0043   -1.1288    2.5898 N   0  0  0  0  0  0  0  0  0  0  0  0
    1.9989   -1.2545    3.8471 C   0  0  0  0  0  0  0  0  0  0  0  0
    2.0756    0.2301    0.4158 H   0  0  0  0  0  0  0  0  0  0  0  0
    0.8944   -1.1001    0.2777 H   0  0  0  0  0  0  0  0  0  0  0  0
    2.7217   -1.9400    4.2689 H   0  0  0  0  0  0  0  0  0  0  0  0
    1.3095   -0.7088    4.4878 H   0  0  0  0  0  0  0  0  0  0  0  0
   -1.2118    0.0693   -4.2087 C   0  0  0  0  0  0  0  0  0  0  0  0
   -1.2118    0.0693   -2.7120 C   0  0  0  0  0  0  0  0  0  0  0  0
   -1.2118    1.1834   -2.0000 C   0  0  0  0  0  0  0  0  0  0  0  0
   -1.2137    1.3311   -0.6433 O   0  0  0  0  0  0  0  0  0  0  0  0
   -1.2403    0.0761    0.0102 O   0  0  0  0  0  0  0  0  0  0  0  0
   -0.3378   -0.4549   -4.6034 H   0  0  0  0  0  0  0  0  0  0  0  0
   -2.0951   -0.4404   -4.6012 H   0  0  0  0  0  0  0  0  0  0  0  0
   -1.2038    1.0835   -4.6112 H   0  0  0  0  0  0  0  0  0  0  0  0
   -1.2269   -0.8841   -2.2007 H   0  0  0  0  0  0  0  0  0  0  0  0
   -1.2155    2.1767   -2.4357 H   0  0  0  0  0  0  0  0  0  0  0  0
   -0.1404   -0.0233    0.3563 H   0  0  0  0  0  0  0  0  0  0  0  0
  1  2  1  0
  1  5  1  0
  1  6  1  0
  2  3  1  0
  3  4  2  3
  4  7  1  0
  4  8  1  0
  9 10  1  0
  9 14  1  0
  9 15  1  0
  9 16  1  0
 10 11  2  3
 10 17  1  0
 11 12  1  0
 11 18  1  0
 12 13  1  0
 13 19  1  0
M  RAD  1   1   2
M  END
>  <reaction>  (6) 
rmg_rxn_15699

>  <mol_properties>  (6) 
{"0": {"label": "*3", "atom_type": "Cs"}, "1": {"label": "*4", "atom_type": "O2s"}, "11": {"label": "*0", "atom_type": "O2s"}, "12": {"label": "*1", "atom_type": "O2s"}, "18": {"label": "*2", "atom_type": "H0"}}

>  <type>  (6) 
unop_2

>  <geom_source>  (6) 
Heuristics

$$$$

     RDKit          3D

 19 17  0  0  0  0  0  0  0  0999 V2000
    2.0436   -0.8062   -0.4356 C   0  0  0  0  0  3  0  0  0  0  0  0
    1.8863    0.5389   -0.7215 O   0  0  0  0  0  0  0  0  0  0  0  0
    1.4715    1.4215    0.2040 N   0  0  0  0  0  0  0  0  0  0  0  0
    1.0380    1.0705    1.3364 C   0  0  0  0  0  0  0  0  0  0  0  0
    2.5779   -1.2509   -1.2674 H   0  0  0  0  0  0  0  0  0  0  0  0
    2.4970   -1.0164    0.5329 H   0  0  0  0  0  0  0  0  0  0  0  0
    0.7429    1.8706    1.9920 H   0  0  0  0  0  0  0  0  0  0  0  0
    0.9331    0.0529    1.7039 H   0  0  0  0  0  0  0  0  0  0  0  0
   -2.3507    1.6933   -0.5782 C   0  0  0  0  0  0  0  0  0  0  0  0
   -1.6199    0.4008   -0.5320 C   0  0  0  0  0  0  0  0  0  0  0  0
   -1.5981   -0.4009    0.5301 C   0  0  0  0  0  0  0  0  0  0  0  0
   -0.9233   -1.5662    0.6693 O   0  0  0  0  0  0  0  0  0  0  0  0
   -0.1858   -1.9545   -0.4154 O   0  0  0  0  0  0  0  0  0  0  0  0
   -1.6470    2.5070   -0.7539 H   0  0  0  0  0  0  0  0  0  0  0  0
   -3.0627    1.6918   -1.4028 H   0  0  0  0  0  0  0  0  0  0  0  0
   -2.8832    1.8782    0.3510 H   0  0  0  0  0  0  0  0  0  0  0  0
   -1.0727    0.1166   -1.4200 H   0  0  0  0  0  0  0  0  0  0  0  0
   -2.1207   -0.1973    1.4547 H   0  0  0  0  0  0  0  0  0  0  0  0
    0.8868   -1.3992   -0.4250 H   0  0  0  0  0  0  0  0  0  0  0  0
  1  2  1  0
  1  5  1  0
  1  6  1  0
  2  3  1  0
  3  4  2  3
  4  7  1  0
  4  8  1  0
  9 10  1  0
  9 14  1  0
  9 15  1  0
  9 16  1  0
 10 11  2  3
 10 17  1  0
 11 12  1  0
 11 18  1  0
 12 13  1  0
 13 19  1  0
M  RAD  1   1   2
M  END
>  <reaction>  (7) 
rmg_rxn_15699

>  <mol_properties>  (7) 
{"0": {"label": "*3", "atom_type": "Cs"}, "1": {"label": "*4", "atom_type": "O2s"}, "11": {"label": "*0", "atom_type": "O2s"}, "12": {"label": "*1", "atom_type": "O2s"}, "18": {"label": "*2", "atom_type": "H0"}}

>  <type>  (7) 
unop_3

>  <geom_source>  (7) 
Heuristics

$$$$

     RDKit          3D

 19 17  0  0  0  0  0  0  0  0999 V2000
    2.0487   -0.8047    0.4277 C   0  0  0  0  0  3  0  0  0  0  0  0
    1.8925    0.5393    0.7191 O   0  0  0  0  0  0  0  0  0  0  0  0
    1.4704    1.4247   -0.2005 N   0  0  0  0  0  0  0  0  0  0  0  0
    1.0311    1.0771   -1.3317 C   0  0  0  0  0  0  0  0  0  0  0  0
    2.4965   -1.0115   -0.5441 H   0  0  0  0  0  0  0  0  0  0  0  0
    2.5880   -1.2519    1.2549 H   0  0  0  0  0  0  0  0  0  0  0  0
    0.7289    1.8790   -1.9819 H   0  0  0  0  0  0  0  0  0  0  0  0
    0.9260    0.0606   -1.7024 H   0  0  0  0  0  0  0  0  0  0  0  0
   -2.3586    1.6878    0.5773 C   0  0  0  0  0  0  0  0  0  0  0  0
   -1.6223    0.3984    0.5318 C   0  0  0  0  0  0  0  0  0  0  0  0
   -1.5993   -0.4048   -0.5291 C   0  0  0  0  0  0  0  0  0  0  0  0
   -0.9210   -1.5682   -0.6676 O   0  0  0  0  0  0  0  0  0  0  0  0
   -0.1808   -1.9528    0.4166 O   0  0  0  0  0  0  0  0  0  0  0  0
   -1.6588    2.5049    0.7524 H   0  0  0  0  0  0  0  0  0  0  0  0
   -2.8922    1.8697   -0.3518 H   0  0  0  0  0  0  0  0  0  0  0  0
   -3.0706    1.6836    1.4018 H   0  0  0  0  0  0  0  0  0  0  0  0
   -1.0725    0.1177    1.4194 H   0  0  0  0  0  0  0  0  0  0  0  0
   -2.1242   -0.2046   -1.4531 H   0  0  0  0  0  0  0  0  0  0  0  0
    0.8919   -1.3977    0.4219 H   0  0  0  0  0  0  0  0  0  0  0  0
  1  2  1  0
  1  5  1  0
  1  6  1  0
  2  3  1  0
  3  4  2  3
  4  7  1  0
  4  8  1  0
  9 10  1  0
  9 14  1  0
  9 15  1  0
  9 16  1  0
 10 11  2  3
 10 17  1  0
 11 12  1  0
 11 18  1  0
 12 13  1  0
 13 19  1  0
M  RAD  1   1   2
M  END
>  <reaction>  (8) 
rmg_rxn_15699

>  <mol_properties>  (8) 
{"0": {"label": "*3", "atom_type": "Cs"}, "1": {"label": "*4", "atom_type": "O2s"}, "11": {"label": "*0", "atom_type": "O2s"}, "12": {"label": "*1", "atom_type": "O2s"}, "18": {"label": "*2", "atom_type": "H0"}}

>  <type>  (8) 
unop_4

>  <geom_source>  (8) 
Heuristics

$$$$

     RDKit          3D

 19 17  0  0  0  0  0  0  0  0999 V2000
    0.8480   -0.9361    1.1759 C   0  0  0  0  0  3  0  0  0  0  0  0
    1.3028    0.3852    1.3921 O   0  0  0  0  0  0  0  0  0  0  0  0
    2.4271    0.3646    2.1823 N   0  0  0  0  0  0  0  0  0  0  0  0
    2.8722    1.5262    2.4042 C   0  0  0  0  0  0  0  0  0  0  0  0
    1.6064   -1.5313    0.6623 H   0  0  0  0  0  0  0  0  0  0  0  0
    0.5838   -1.4177    2.1201 H   0  0  0  0  0  0  0  0  0  0  0  0
    3.7585    1.5963    3.0204 H   0  0  0  0  0  0  0  0  0  0  0  0
    2.4005    2.4210    2.0037 H   0  0  0  0  0  0  0  0  0  0  0  0
   -1.4649   -0.7312   -3.7798 C   0  0  0  0  0  0  0  0  0  0  0  0
   -1.4649   -0.7312   -2.2831 C   0  0  0  0  0  0  0  0  0  0  0  0
   -1.4649    0.3829   -1.5711 C   0  0  0  0  0  0  0  0  0  0  0  0
   -1.4668    0.5306   -0.2143 O   0  0  0  0  0  0  0  0  0  0  0  0
   -1.4934   -0.7244    0.4392 O   0  0  0  0  0  0  0  0  0  0  0  0
   -0.5909   -1.2554   -4.1745 H   0  0  0  0  0  0  0  0  0  0  0  0
   -2.3482   -1.2409   -4.1723 H   0  0  0  0  0  0  0  0  0  0  0  0
   -1.4569    0.2831   -4.1822 H   0  0  0  0  0  0  0  0  0  0  0  0
   -1.4800   -1.6846   -1.7718 H   0  0  0  0  0  0  0  0  0  0  0  0
   -1.4686    1.3762   -2.0068 H   0  0  0  0  0  0  0  0  0  0  0  0
   -0.3935   -0.8238    0.7853 H   0  0  0  0  0  0  0  0  0  0  0  0
  1  2  1  0
  1  5  1  0
  1  6  1  0
  2  3  1  0
  3  4  2  3
  4  7  1  0
  4  8  1  0
  9 10  1  0
  9 14  1  0
  9 15  1  0
  9 16  1  0
 10 11  2  3
 10 17  1  0
 11 12  1  0
 11 18  1  0
 12 13  1  0
 13 19  1  0
M  RAD  1   1   2
M  END
>  <reaction>  (9) 
rmg_rxn_15699

>  <mol_properties>  (9) 
{"0": {"label": "*3", "atom_type": "Cs"}, "1": {"label": "*4", "atom_type": "O2s"}, "11": {"label": "*0", "atom_type": "O2s"}, "12": {"label": "*1", "atom_type": "O2s"}, "18": {"label": "*2", "atom_type": "H0"}}

>  <type>  (9) 
unop_5

>  <geom_source>  (9) 
Heuristics

$$$$

     RDKit          3D

 19 17  0  0  0  0  0  0  0  0999 V2000
    2.0492    0.8062    0.4217 C   0  0  0  0  0  3  0  0  0  0  0  0
    1.8942   -0.5371    0.7170 O   0  0  0  0  0  0  0  0  0  0  0  0
    1.4686   -1.4248   -0.1987 N   0  0  0  0  0  0  0  0  0  0  0  0
    1.0259   -1.0802   -1.3295 C   0  0  0  0  0  0  0  0  0  0  0  0
    2.5913    1.2556    1.2458 H   0  0  0  0  0  0  0  0  0  0  0  0
    2.4933    1.0108   -0.5523 H   0  0  0  0  0  0  0  0  0  0  0  0
    0.7215   -1.8840   -1.9764 H   0  0  0  0  0  0  0  0  0  0  0  0
    0.9207   -0.0649   -1.7033 H   0  0  0  0  0  0  0  0  0  0  0  0
   -2.3527   -1.6908    0.5770 C   0  0  0  0  0  0  0  0  0  0  0  0
   -1.6190   -0.3999    0.5321 C   0  0  0  0  0  0  0  0  0  0  0  0
   -1.6006    0.4058   -0.5270 C   0  0  0  0  0  0  0  0  0  0  0  0
   -0.9241    1.5702   -0.6654 O   0  0  0  0  0  0  0  0  0  0  0  0
   -0.1809    1.9536    0.4172 O   0  0  0  0  0  0  0  0  0  0  0  0
   -1.6504   -2.5070    0.7461 H   0  0  0  0  0  0  0  0  0  0  0  0
   -3.0607   -1.6907    1.4049 H   0  0  0  0  0  0  0  0  0  0  0  0
   -2.8902   -1.8707   -0.3503 H   0  0  0  0  0  0  0  0  0  0  0  0
   -1.0669   -0.1204    1.4187 H   0  0  0  0  0  0  0  0  0  0  0  0
   -2.1280    0.2065   -1.4498 H   0  0  0  0  0  0  0  0  0  0  0  0
    0.8921    1.3988    0.4192 H   0  0  0  0  0  0  0  0  0  0  0  0
  1  2  1  0
  1  5  1  0
  1  6  1  0
  2  3  1  0
  3  4  2  3
  4  7  1  0
  4  8  1  0
  9 10  1  0
  9 14  1  0
  9 15  1  0
  9 16  1  0
 10 11  2  3
 10 17  1  0
 11 12  1  0
 11 18  1  0
 12 13  1  0
 13 19  1  0
M  RAD  1   1   2
M  END
>  <reaction>  (10) 
rmg_rxn_15699

>  <mol_properties>  (10) 
{"0": {"label": "*3", "atom_type": "Cs"}, "1": {"label": "*4", "atom_type": "O2s"}, "11": {"label": "*0", "atom_type": "O2s"}, "12": {"label": "*1", "atom_type": "O2s"}, "18": {"label": "*2", "atom_type": "H0"}}

>  <type>  (10) 
unop_6

>  <geom_source>  (10) 
Heuristics

$$$$

     RDKit          3D

 19 17  0  0  0  0  0  0  0  0999 V2000
    1.0422    0.0960    0.9017 C   0  0  0  0  0  3  0  0  0  0  0  0
    1.0029   -0.6743    2.0869 O   0  0  0  0  0  0  0  0  0  0  0  0
    2.2005   -1.3272    2.2548 N   0  0  0  0  0  0  0  0  0  0  0  0
    2.2139   -2.0309    3.3042 C   0  0  0  0  0  0  0  0  0  0  0  0
    1.8300    0.8509    0.9522 H   0  0  0  0  0  0  0  0  0  0  0  0
    1.2014   -0.5397    0.0278 H   0  0  0  0  0  0  0  0  0  0  0  0
    3.1241   -2.5786    3.5092 H   0  0  0  0  0  0  0  0  0  0  0  0
    1.3624   -2.0943    3.9784 H   0  0  0  0  0  0  0  0  0  0  0  0
   -1.2707    0.3009   -4.0540 C   0  0  0  0  0  0  0  0  0  0  0  0
   -1.2707    0.3009   -2.5573 C   0  0  0  0  0  0  0  0  0  0  0  0
   -1.2707    1.4150   -1.8453 C   0  0  0  0  0  0  0  0  0  0  0  0
   -1.2726    1.5627   -0.4886 O   0  0  0  0  0  0  0  0  0  0  0  0
   -1.2993    0.3077    0.1649 O   0  0  0  0  0  0  0  0  0  0  0  0
   -0.3967   -0.2233   -4.4487 H   0  0  0  0  0  0  0  0  0  0  0  0
   -2.1541   -0.2089   -4.4465 H   0  0  0  0  0  0  0  0  0  0  0  0
   -1.2627    1.3151   -4.4565 H   0  0  0  0  0  0  0  0  0  0  0  0
   -1.2858   -0.6526   -2.0461 H   0  0  0  0  0  0  0  0  0  0  0  0
   -1.2744    2.4083   -2.2810 H   0  0  0  0  0  0  0  0  0  0  0  0
   -0.1994    0.2082    0.5110 H   0  0  0  0  0  0  0  0  0  0  0  0
  1  2  1  0
  1  5  1  0
  1  6  1  0
  2  3  1  0
  3  4  2  3
  4  7  1  0
  4  8  1  0
  9 10  1  0
  9 14  1  0
  9 15  1  0
  9 16  1  0
 10 11  2  3
 10 17  1  0
 11 12  1  0
 11 18  1  0
 12 13  1  0
 13 19  1  0
M  RAD  1   1   2
M  END
>  <reaction>  (11) 
rmg_rxn_15699

>  <mol_properties>  (11) 
{"0": {"label": "*3", "atom_type": "Cs"}, "1": {"label": "*4", "atom_type": "O2s"}, "11": {"label": "*0", "atom_type": "O2s"}, "12": {"label": "*1", "atom_type": "O2s"}, "18": {"label": "*2", "atom_type": "H0"}}

>  <type>  (11) 
unop_7

>  <geom_source>  (11) 
Heuristics

$$$$

     RDKit          3D

 19 17  0  0  0  0  0  0  0  0999 V2000
    0.7103   -0.2208    1.9108 C   0  0  0  0  0  3  0  0  0  0  0  0
    1.4884   -0.1843    0.7306 O   0  0  0  0  0  0  0  0  0  0  0  0
    2.6124   -0.9583    0.8929 N   0  0  0  0  0  0  0  0  0  0  0  0
    3.3419   -0.9571   -0.1389 C   0  0  0  0  0  0  0  0  0  0  0  0
    0.3851   -1.2397    2.1331 H   0  0  0  0  0  0  0  0  0  0  0  0
    1.2700    0.1771    2.7603 H   0  0  0  0  0  0  0  0  0  0  0  0
    4.2491   -1.5446   -0.0920 H   0  0  0  0  0  0  0  0  0  0  0  0
    3.0858   -0.3994   -1.0372 H   0  0  0  0  0  0  0  0  0  0  0  0
   -1.6025   -0.0159   -3.0449 C   0  0  0  0  0  0  0  0  0  0  0  0
   -1.6025   -0.0159   -1.5482 C   0  0  0  0  0  0  0  0  0  0  0  0
   -1.6025    1.0982   -0.8362 C   0  0  0  0  0  0  0  0  0  0  0  0
   -1.6044    1.2459    0.5205 O   0  0  0  0  0  0  0  0  0  0  0  0
   -1.6311   -0.0091    1.1740 O   0  0  0  0  0  0  0  0  0  0  0  0
   -0.7286   -0.5401   -3.4396 H   0  0  0  0  0  0  0  0  0  0  0  0
   -2.4859   -0.5256   -3.4374 H   0  0  0  0  0  0  0  0  0  0  0  0
   -1.5945    0.9983   -3.4473 H   0  0  0  0  0  0  0  0  0  0  0  0
   -1.6177   -0.9693   -1.0369 H   0  0  0  0  0  0  0  0  0  0  0  0
   -1.6062    2.0915   -1.2719 H   0  0  0  0  0  0  0  0  0  0  0  0
   -0.5312   -0.1085    1.5202 H   0  0  0  0  0  0  0  0  0  0  0  0
  1  2  1  0
  1  5  1  0
  1  6  1  0
  2  3  1  0
  3  4  2  3
  4  7  1  0
  4  8  1  0
  9 10  1  0
  9 14  1  0
  9 15  1  0
  9 16  1  0
 10 11  2  3
 10 17  1  0
 11 12  1  0
 11 18  1  0
 12 13  1  0
 13 19  1  0
M  RAD  1   1   2
M  END
>  <reaction>  (12) 
rmg_rxn_15699

>  <mol_properties>  (12) 
{"0": {"label": "*3", "atom_type": "Cs"}, "1": {"label": "*4", "atom_type": "O2s"}, "11": {"label": "*0", "atom_type": "O2s"}, "12": {"label": "*1", "atom_type": "O2s"}, "18": {"label": "*2", "atom_type": "H0"}}

>  <type>  (12) 
unop_8

>  <geom_source>  (12) 
Heuristics

$$$$

     RDKit          3D

 19 17  0  0  0  0  0  0  0  0999 V2000
    2.0442   -0.8042   -0.4403 C   0  0  0  0  0  3  0  0  0  0  0  0
    1.8857    0.5413   -0.7234 O   0  0  0  0  0  0  0  0  0  0  0  0
    1.4731    1.4221    0.2049 N   0  0  0  0  0  0  0  0  0  0  0  0
    1.0423    1.0688    1.3375 C   0  0  0  0  0  0  0  0  0  0  0  0
    2.5764   -1.2473   -1.2743 H   0  0  0  0  0  0  0  0  0  0  0  0
    2.5001   -1.0159    0.5267 H   0  0  0  0  0  0  0  0  0  0  0  0
    0.7481    1.8675    1.9952 H   0  0  0  0  0  0  0  0  0  0  0  0
    0.9375    0.0503    1.7027 H   0  0  0  0  0  0  0  0  0  0  0  0
   -2.3587    1.6889   -0.5782 C   0  0  0  0  0  0  0  0  0  0  0  0
   -1.6245    0.3984   -0.5317 C   0  0  0  0  0  0  0  0  0  0  0  0
   -1.5967   -0.4006    0.5323 C   0  0  0  0  0  0  0  0  0  0  0  0
   -0.9194   -1.5645    0.6714 O   0  0  0  0  0  0  0  0  0  0  0  0
   -0.1846   -1.9535   -0.4149 O   0  0  0  0  0  0  0  0  0  0  0  0
   -1.6583    2.5037   -0.7614 H   0  0  0  0  0  0  0  0  0  0  0  0
   -3.0760    1.6826   -1.3981 H   0  0  0  0  0  0  0  0  0  0  0  0
   -2.8857    1.8760    0.3537 H   0  0  0  0  0  0  0  0  0  0  0  0
   -1.0803    0.1132   -1.4212 H   0  0  0  0  0  0  0  0  0  0  0  0
   -2.1162   -0.1959    1.4582 H   0  0  0  0  0  0  0  0  0  0  0  0
    0.8876   -1.3976   -0.4276 H   0  0  0  0  0  0  0  0  0  0  0  0
  1  2  1  0
  1  5  1  0
  1  6  1  0
  2  3  1  0
  3  4  2  3
  4  7  1  0
  4  8  1  0
  9 10  1  0
  9 14  1  0
  9 15  1  0
  9 16  1  0
 10 11  2  3
 10 17  1  0
 11 12  1  0
 11 18  1  0
 12 13  1  0
 13 19  1  0
M  RAD  1   1   2
M  END
>  <reaction>  (13) 
rmg_rxn_15699

>  <mol_properties>  (13) 
{"0": {"label": "*3", "atom_type": "Cs"}, "1": {"label": "*4", "atom_type": "O2s"}, "11": {"label": "*0", "atom_type": "O2s"}, "12": {"label": "*1", "atom_type": "O2s"}, "18": {"label": "*2", "atom_type": "H0"}}

>  <type>  (13) 
unop_9

>  <geom_source>  (13) 
Heuristics

$$$$

     RDKit          3D

 19 17  0  0  0  0  0  0  0  0999 V2000
    0.9727    0.1959    1.0568 C   0  0  0  0  0  3  0  0  0  0  0  0
    1.0518   -1.0446    1.7310 O   0  0  0  0  0  0  0  0  0  0  0  0
    2.3348   -1.2467    2.1800 N   0  0  0  0  0  0  0  0  0  0  0  0
    2.4557   -2.3462    2.7911 C   0  0  0  0  0  0  0  0  0  0  0  0
    1.2262    1.0211    1.7261 H   0  0  0  0  0  0  0  0  0  0  0  0
    1.6366    0.2123    0.1895 H   0  0  0  0  0  0  0  0  0  0  0  0
    3.4387   -2.5808    3.1771 H   0  0  0  0  0  0  0  0  0  0  0  0
    1.6242   -3.0336    2.9308 H   0  0  0  0  0  0  0  0  0  0  0  0
   -1.3401    0.4008   -3.8989 C   0  0  0  0  0  0  0  0  0  0  0  0
   -1.3401    0.4008   -2.4022 C   0  0  0  0  0  0  0  0  0  0  0  0
   -1.3401    1.5149   -1.6902 C   0  0  0  0  0  0  0  0  0  0  0  0
   -1.3420    1.6626   -0.3335 O   0  0  0  0  0  0  0  0  0  0  0  0
   -1.3687    0.4076    0.3200 O   0  0  0  0  0  0  0  0  0  0  0  0
   -0.4662   -0.1234   -4.2936 H   0  0  0  0  0  0  0  0  0  0  0  0
   -2.2235   -0.1089   -4.2914 H   0  0  0  0  0  0  0  0  0  0  0  0
   -1.3321    1.4151   -4.3013 H   0  0  0  0  0  0  0  0  0  0  0  0
   -1.3552   -0.5526   -1.8909 H   0  0  0  0  0  0  0  0  0  0  0  0
   -1.3438    2.5082   -2.1259 H   0  0  0  0  0  0  0  0  0  0  0  0
   -0.2688    0.3082    0.6661 H   0  0  0  0  0  0  0  0  0  0  0  0
  1  2  1  0
  1  5  1  0
  1  6  1  0
  2  3  1  0
  3  4  2  3
  4  7  1  0
  4  8  1  0
  9 10  1  0
  9 14  1  0
  9 15  1  0
  9 16  1  0
 10 11  2  3
 10 17  1  0
 11 12  1  0
 11 18  1  0
 12 13  1  0
 13 19  1  0
M  RAD  1   1   2
M  END
>  <reaction>  (14) 
rmg_rxn_15699

>  <mol_properties>  (14) 
{"0": {"label": "*3", "atom_type": "Cs"}, "1": {"label": "*4", "atom_type": "O2s"}, "11": {"label": "*0", "atom_type": "O2s"}, "12": {"label": "*1", "atom_type": "O2s"}, "18": {"label": "*2", "atom_type": "H0"}}

>  <type>  (14) 
unop_10

>  <geom_source>  (14) 
Heuristics

$$$$

     RDKit          3D

 19 17  0  0  0  0  0  0  0  0999 V2000
    2.0460   -0.8056   -0.4304 C   0  0  0  0  0  3  0  0  0  0  0  0
    1.8892    0.5390   -0.7191 O   0  0  0  0  0  0  0  0  0  0  0  0
    1.4690    1.4227    0.2029 N   0  0  0  0  0  0  0  0  0  0  0  0
    1.0319    1.0730    1.3343 C   0  0  0  0  0  0  0  0  0  0  0  0
    2.5829   -1.2515   -1.2598 H   0  0  0  0  0  0  0  0  0  0  0  0
    2.4964   -1.0140    0.5398 H   0  0  0  0  0  0  0  0  0  0  0  0
    0.7317    1.8737    1.9868 H   0  0  0  0  0  0  0  0  0  0  0  0
    0.9276    0.0559    1.7033 H   0  0  0  0  0  0  0  0  0  0  0  0
   -2.3500    1.6927   -0.5779 C   0  0  0  0  0  0  0  0  0  0  0  0
   -1.6182    0.4008   -0.5321 C   0  0  0  0  0  0  0  0  0  0  0  0
   -1.5992   -0.4032    0.5283 C   0  0  0  0  0  0  0  0  0  0  0  0
   -0.9239   -1.5683    0.6671 O   0  0  0  0  0  0  0  0  0  0  0  0
   -0.1834   -1.9542   -0.4163 O   0  0  0  0  0  0  0  0  0  0  0  0
   -2.8852    1.8754    0.3502 H   0  0  0  0  0  0  0  0  0  0  0  0
   -1.6468    2.5074   -0.7503 H   0  0  0  0  0  0  0  0  0  0  0  0
   -3.0600    1.6921   -1.4042 H   0  0  0  0  0  0  0  0  0  0  0  0
   -1.0679    0.1192   -1.4191 H   0  0  0  0  0  0  0  0  0  0  0  0
   -2.1251   -0.2021    1.4514 H   0  0  0  0  0  0  0  0  0  0  0  0
    0.8893   -1.3987   -0.4226 H   0  0  0  0  0  0  0  0  0  0  0  0
  1  2  1  0
  1  5  1  0
  1  6  1  0
  2  3  1  0
  3  4  2  3
  4  7  1  0
  4  8  1  0
  9 10  1  0
  9 14  1  0
  9 15  1  0
  9 16  1  0
 10 11  2  3
 10 17  1  0
 11 12  1  0
 11 18  1  0
 12 13  1  0
 13 19  1  0
M  RAD  1   1   2
M  END
>  <reaction>  (15) 
rmg_rxn_15699

>  <mol_properties>  (15) 
{"0": {"label": "*3", "atom_type": "Cs"}, "1": {"label": "*4", "atom_type": "O2s"}, "11": {"label": "*0", "atom_type": "O2s"}, "12": {"label": "*1", "atom_type": "O2s"}, "18": {"label": "*2", "atom_type": "H0"}}

>  <type>  (15) 
unop_11

>  <geom_source>  (15) 
Heuristics

$$$$

     RDKit          3D

 19 17  0  0  0  0  0  0  0  0999 V2000
    0.7995    0.0968    1.7805 C   0  0  0  0  0  3  0  0  0  0  0  0
    1.4769   -0.5532    0.7230 O   0  0  0  0  0  0  0  0  0  0  0  0
    2.3932   -1.4399    1.2357 N   0  0  0  0  0  0  0  0  0  0  0  0
    3.0258   -2.0472    0.3258 C   0  0  0  0  0  0  0  0  0  0  0  0
    0.2581   -0.6230    2.3985 H   0  0  0  0  0  0  0  0  0  0  0  0
    1.4975    0.6606    2.4035 H   0  0  0  0  0  0  0  0  0  0  0  0
    3.7681   -2.7652    0.6478 H   0  0  0  0  0  0  0  0  0  0  0  0
    2.8457   -1.8692   -0.7322 H   0  0  0  0  0  0  0  0  0  0  0  0
   -1.5133    0.3017   -3.1752 C   0  0  0  0  0  0  0  0  0  0  0  0
   -1.5133    0.3017   -1.6786 C   0  0  0  0  0  0  0  0  0  0  0  0
   -1.5133    1.4158   -0.9665 C   0  0  0  0  0  0  0  0  0  0  0  0
   -1.5153    1.5635    0.3902 O   0  0  0  0  0  0  0  0  0  0  0  0
   -1.5419    0.3085    1.0437 O   0  0  0  0  0  0  0  0  0  0  0  0
   -0.6394   -0.2225   -3.5699 H   0  0  0  0  0  0  0  0  0  0  0  0
   -2.3967   -0.2080   -3.5677 H   0  0  0  0  0  0  0  0  0  0  0  0
   -1.5053    1.3160   -3.5777 H   0  0  0  0  0  0  0  0  0  0  0  0
   -1.5285   -0.6517   -1.1673 H   0  0  0  0  0  0  0  0  0  0  0  0
   -1.5170    2.4091   -1.4022 H   0  0  0  0  0  0  0  0  0  0  0  0
   -0.4420    0.2091    1.3898 H   0  0  0  0  0  0  0  0  0  0  0  0
  1  2  1  0
  1  5  1  0
  1  6  1  0
  2  3  1  0
  3  4  2  3
  4  7  1  0
  4  8  1  0
  9 10  1  0
  9 14  1  0
  9 15  1  0
  9 16  1  0
 10 11  2  3
 10 17  1  0
 11 12  1  0
 11 18  1  0
 12 13  1  0
 13 19  1  0
M  RAD  1   1   2
M  END
>  <reaction>  (16) 
rmg_rxn_15699

>  <mol_properties>  (16) 
{"0": {"label": "*3", "atom_type": "Cs"}, "1": {"label": "*4", "atom_type": "O2s"}, "11": {"label": "*0", "atom_type": "O2s"}, "12": {"label": "*1", "atom_type": "O2s"}, "18": {"label": "*2", "atom_type": "H0"}}

>  <type>  (16) 
unop_12

>  <geom_source>  (16) 
Heuristics

$$$$

     RDKit          3D

 19 17  0  0  0  0  0  0  0  0999 V2000
    2.0457   -0.8041   -0.4343 C   0  0  0  0  0  3  0  0  0  0  0  0
    1.8875    0.5409   -0.7203 O   0  0  0  0  0  0  0  0  0  0  0  0
    1.4691    1.4227    0.2043 N   0  0  0  0  0  0  0  0  0  0  0  0
    1.0344    1.0707    1.3359 C   0  0  0  0  0  0  0  0  0  0  0  0
    2.5809   -1.2483   -1.2658 H   0  0  0  0  0  0  0  0  0  0  0  0
    2.4986   -1.0139    0.5344 H   0  0  0  0  0  0  0  0  0  0  0  0
    0.7351    1.8700    1.9906 H   0  0  0  0  0  0  0  0  0  0  0  0
    0.9310    0.0527    1.7030 H   0  0  0  0  0  0  0  0  0  0  0  0
   -2.3528    1.6910   -0.5781 C   0  0  0  0  0  0  0  0  0  0  0  0
   -1.6201    0.3996   -0.5320 C   0  0  0  0  0  0  0  0  0  0  0  0
   -1.5981   -0.4028    0.5295 C   0  0  0  0  0  0  0  0  0  0  0  0
   -0.9217   -1.5673    0.6683 O   0  0  0  0  0  0  0  0  0  0  0  0
   -0.1830   -1.9540   -0.4160 O   0  0  0  0  0  0  0  0  0  0  0  0
   -3.0638    1.6891   -1.4035 H   0  0  0  0  0  0  0  0  0  0  0  0
   -2.8867    1.8744    0.3505 H   0  0  0  0  0  0  0  0  0  0  0  0
   -1.6503    2.5060   -0.7523 H   0  0  0  0  0  0  0  0  0  0  0  0
   -1.0714    0.1171   -1.4197 H   0  0  0  0  0  0  0  0  0  0  0  0
   -2.1219   -0.2007    1.4536 H   0  0  0  0  0  0  0  0  0  0  0  0
    0.8893   -1.3979   -0.4249 H   0  0  0  0  0  0  0  0  0  0  0  0
  1  2  1  0
  1  5  1  0
  1  6  1  0
  2  3  1  0
  3  4  2  3
  4  7  1  0
  4  8  1  0
  9 10  1  0
  9 14  1  0
  9 15  1  0
  9 16  1  0
 10 11  2  3
 10 17  1  0
 11 12  1  0
 11 18  1  0
 12 13  1  0
 13 19  1  0
M  RAD  1   1   2
M  END
>  <reaction>  (17) 
rmg_rxn_15699

>  <mol_properties>  (17) 
{"0": {"label": "*3", "atom_type": "Cs"}, "1": {"label": "*4", "atom_type": "O2s"}, "11": {"label": "*0", "atom_type": "O2s"}, "12": {"label": "*1", "atom_type": "O2s"}, "18": {"label": "*2", "atom_type": "H0"}}

>  <type>  (17) 
unop_13

>  <geom_source>  (17) 
Heuristics

$$$$

     RDKit          3D

 19 17  0  0  0  0  0  0  0  0999 V2000
    0.8956    0.2693    1.5162 C   0  0  0  0  0  3  0  0  0  0  0  0
    1.3885   -0.9018    0.8955 O   0  0  0  0  0  0  0  0  0  0  0  0
    2.2262   -1.5662    1.7590 N   0  0  0  0  0  0  0  0  0  0  0  0
    2.6932   -2.6230    1.2474 C   0  0  0  0  0  0  0  0  0  0  0  0
    0.3239    0.0245    2.4142 H   0  0  0  0  0  0  0  0  0  0  0  0
    1.7121    0.9465    1.7768 H   0  0  0  0  0  0  0  0  0  0  0  0
    3.3637   -3.2054    1.8652 H   0  0  0  0  0  0  0  0  0  0  0  0
    2.4444   -2.9456    0.2387 H   0  0  0  0  0  0  0  0  0  0  0  0
   -1.4172    0.4742   -3.4395 C   0  0  0  0  0  0  0  0  0  0  0  0
   -1.4172    0.4742   -1.9428 C   0  0  0  0  0  0  0  0  0  0  0  0
   -1.4172    1.5883   -1.2308 C   0  0  0  0  0  0  0  0  0  0  0  0
   -1.4191    1.7360    0.1259 O   0  0  0  0  0  0  0  0  0  0  0  0
   -1.4458    0.4810    0.7794 O   0  0  0  0  0  0  0  0  0  0  0  0
   -0.5432   -0.0500   -3.8342 H   0  0  0  0  0  0  0  0  0  0  0  0
   -2.3006   -0.0355   -3.8320 H   0  0  0  0  0  0  0  0  0  0  0  0
   -1.4092    1.4885   -3.8420 H   0  0  0  0  0  0  0  0  0  0  0  0
   -1.4323   -0.4792   -1.4315 H   0  0  0  0  0  0  0  0  0  0  0  0
   -1.4209    2.5817   -1.6665 H   0  0  0  0  0  0  0  0  0  0  0  0
   -0.3459    0.3816    1.1255 H   0  0  0  0  0  0  0  0  0  0  0  0
  1  2  1  0
  1  5  1  0
  1  6  1  0
  2  3  1  0
  3  4  2  3
  4  7  1  0
  4  8  1  0
  9 10  1  0
  9 14  1  0
  9 15  1  0
  9 16  1  0
 10 11  2  3
 10 17  1  0
 11 12  1  0
 11 18  1  0
 12 13  1  0
 13 19  1  0
M  RAD  1   1   2
M  END
>  <reaction>  (18) 
rmg_rxn_15699

>  <mol_properties>  (18) 
{"0": {"label": "*3", "atom_type": "Cs"}, "1": {"label": "*4", "atom_type": "O2s"}, "11": {"label": "*0", "atom_type": "O2s"}, "12": {"label": "*1", "atom_type": "O2s"}, "18": {"label": "*2", "atom_type": "H0"}}

>  <type>  (18) 
unop_14

>  <geom_source>  (18) 
Heuristics

$$$$

     RDKit          3D

 19 17  0  0  0  0  0  0  0  0999 V2000
    2.0483   -0.8065    0.4266 C   0  0  0  0  0  3  0  0  0  0  0  0
    1.8936    0.5374    0.7194 O   0  0  0  0  0  0  0  0  0  0  0  0
    1.4729    1.4243   -0.1994 N   0  0  0  0  0  0  0  0  0  0  0  0
    1.0328    1.0786   -1.3308 C   0  0  0  0  0  0  0  0  0  0  0  0
    2.4949   -1.0128   -0.5458 H   0  0  0  0  0  0  0  0  0  0  0  0
    2.5877   -1.2552    1.2528 H   0  0  0  0  0  0  0  0  0  0  0  0
    0.7327    1.8817   -1.9804 H   0  0  0  0  0  0  0  0  0  0  0  0
    0.9259    0.0627   -1.7026 H   0  0  0  0  0  0  0  0  0  0  0  0
   -2.3589    1.6887    0.5771 C   0  0  0  0  0  0  0  0  0  0  0  0
   -1.6229    0.3992    0.5315 C   0  0  0  0  0  0  0  0  0  0  0  0
   -1.6004   -0.4042   -0.5293 C   0  0  0  0  0  0  0  0  0  0  0  0
   -0.9224   -1.5678   -0.6677 O   0  0  0  0  0  0  0  0  0  0  0  0
   -0.1823   -1.9526    0.4164 O   0  0  0  0  0  0  0  0  0  0  0  0
   -3.0704    1.6849    1.4021 H   0  0  0  0  0  0  0  0  0  0  0  0
   -1.6588    2.5057    0.7517 H   0  0  0  0  0  0  0  0  0  0  0  0
   -2.8930    1.8705   -0.3518 H   0  0  0  0  0  0  0  0  0  0  0  0
   -1.0729    0.1184    1.4189 H   0  0  0  0  0  0  0  0  0  0  0  0
   -2.1255   -0.2040   -1.4531 H   0  0  0  0  0  0  0  0  0  0  0  0
    0.8909   -1.3983    0.4213 H   0  0  0  0  0  0  0  0  0  0  0  0
  1  2  1  0
  1  5  1  0
  1  6  1  0
  2  3  1  0
  3  4  2  3
  4  7  1  0
  4  8  1  0
  9 10  1  0
  9 14  1  0
  9 15  1  0
  9 16  1  0
 10 11  2  3
 10 17  1  0
 11 12  1  0
 11 18  1  0
 12 13  1  0
 13 19  1  0
M  RAD  1   1   2
M  END
>  <reaction>  (19) 
rmg_rxn_15699

>  <mol_properties>  (19) 
{"0": {"label": "*3", "atom_type": "Cs"}, "1": {"label": "*4", "atom_type": "O2s"}, "11": {"label": "*0", "atom_type": "O2s"}, "12": {"label": "*1", "atom_type": "O2s"}, "18": {"label": "*2", "atom_type": "H0"}}

>  <type>  (19) 
unop_15

>  <geom_source>  (19) 
Heuristics

$$$$

     RDKit          3D

 19 17  0  0  0  0  0  0  0  0999 V2000
    1.0838   -0.4636    0.7159 C   0  0  0  0  0  3  0  0  0  0  0  0
    1.1351    0.1205    2.0027 O   0  0  0  0  0  0  0  0  0  0  0  0
    1.9727   -0.6110    2.8103 N   0  0  0  0  0  0  0  0  0  0  0  0
    2.0513   -0.1264    3.9746 C   0  0  0  0  0  0  0  0  0  0  0  0
    2.0723   -0.4724    0.2512 H   0  0  0  0  0  0  0  0  0  0  0  0
    0.6944   -1.4830    0.7648 H   0  0  0  0  0  0  0  0  0  0  0  0
    2.6929   -0.6459    4.6737 H   0  0  0  0  0  0  0  0  0  0  0  0
    1.5082    0.7669    4.2756 H   0  0  0  0  0  0  0  0  0  0  0  0
   -1.2290   -0.2587   -4.2398 C   0  0  0  0  0  0  0  0  0  0  0  0
   -1.2290   -0.2587   -2.7431 C   0  0  0  0  0  0  0  0  0  0  0  0
   -1.2290    0.8554   -2.0311 C   0  0  0  0  0  0  0  0  0  0  0  0
   -1.2310    1.0031   -0.6744 O   0  0  0  0  0  0  0  0  0  0  0  0
   -1.2576   -0.2519   -0.0209 O   0  0  0  0  0  0  0  0  0  0  0  0
   -0.3551   -0.7829   -4.6345 H   0  0  0  0  0  0  0  0  0  0  0  0
   -2.1124   -0.7684   -4.6323 H   0  0  0  0  0  0  0  0  0  0  0  0
   -1.2210    0.7556   -4.6423 H   0  0  0  0  0  0  0  0  0  0  0  0
   -1.2442   -1.2121   -2.2318 H   0  0  0  0  0  0  0  0  0  0  0  0
   -1.2327    1.8487   -2.4668 H   0  0  0  0  0  0  0  0  0  0  0  0
   -0.1577   -0.3513    0.3252 H   0  0  0  0  0  0  0  0  0  0  0  0
  1  2  1  0
  1  5  1  0
  1  6  1  0
  2  3  1  0
  3  4  2  3
  4  7  1  0
  4  8  1  0
  9 10  1  0
  9 14  1  0
  9 15  1  0
  9 16  1  0
 10 11  2  3
 10 17  1  0
 11 12  1  0
 11 18  1  0
 12 13  1  0
 13 19  1  0
M  RAD  1   1   2
M  END
>  <reaction>  (20) 
rmg_rxn_15699

>  <mol_properties>  (20) 
{"0": {"label": "*3", "atom_type": "Cs"}, "1": {"label": "*4", "atom_type": "O2s"}, "11": {"label": "*0", "atom_type": "O2s"}, "12": {"label": "*1", "atom_type": "O2s"}, "18": {"label": "*2", "atom_type": "H0"}}

>  <type>  (20) 
unop_16

>  <geom_source>  (20) 
Heuristics

$$$$

     RDKit          3D

 19 17  0  0  0  0  0  0  0  0999 V2000
    1.6327   -1.5496   -0.1640 C   0  0  0  0  0  3  0  0  0  0  0  0
    1.9335   -0.2410   -0.4818 O   0  0  0  0  0  0  0  0  0  0  0  0
    1.6998    0.6267    0.5655 N   0  0  0  0  0  0  0  0  0  0  0  0
    1.8820    1.8492    0.3185 C   0  0  0  0  0  0  0  0  0  0  0  0
    2.1275   -2.2018   -0.8742 H   0  0  0  0  0  0  0  0  0  0  0  0
    1.7997   -1.7941    0.8824 H   0  0  0  0  0  0  0  0  0  0  0  0
    1.7073    2.5321    1.1307 H   0  0  0  0  0  0  0  0  0  0  0  0
    2.2045    2.2383   -0.6430 H   0  0  0  0  0  0  0  0  0  0  0  0
   -1.7836    2.2439   -0.4261 C   0  0  0  0  0  0  0  0  0  0  0  0
   -1.4657    0.7903   -0.4489 C   0  0  0  0  0  0  0  0  0  0  0  0
   -1.7214   -0.0366    0.5603 C   0  0  0  0  0  0  0  0  0  0  0  0
   -1.4626   -1.3623    0.6294 O   0  0  0  0  0  0  0  0  0  0  0  0
   -0.8292   -1.8962   -0.4595 O   0  0  0  0  0  0  0  0  0  0  0  0
   -0.8834    2.8308   -0.6068 H   0  0  0  0  0  0  0  0  0  0  0  0
   -2.4947    2.4836   -1.2165 H   0  0  0  0  0  0  0  0  0  0  0  0
   -2.2093    2.5354    0.5303 H   0  0  0  0  0  0  0  0  0  0  0  0
   -1.0139    0.4008   -1.3505 H   0  0  0  0  0  0  0  0  0  0  0  0
   -2.1774    0.2701    1.4912 H   0  0  0  0  0  0  0  0  0  0  0  0
    0.3568   -1.7450   -0.3424 H   0  0  0  0  0  0  0  0  0  0  0  0
  1  2  1  0
  1  5  1  0
  1  6  1  0
  2  3  1  0
  3  4  2  3
  4  7  1  0
  4  8  1  0
  9 10  1  0
  9 14  1  0
  9 15  1  0
  9 16  1  0
 10 11  2  3
 10 17  1  0
 11 12  1  0
 11 18  1  0
 12 13  1  0
 13 19  1  0
M  RAD  1   1   2
M  END
>  <reaction>  (21) 
rmg_rxn_15699

>  <mol_properties>  (21) 
{"0": {"label": "*3", "atom_type": "Cs"}, "1": {"label": "*4", "atom_type": "O2s"}, "11": {"label": "*0", "atom_type": "O2s"}, "12": {"label": "*1", "atom_type": "O2s"}, "18": {"label": "*2", "atom_type": "H0"}}

>  <type>  (21) 
unop_17

>  <geom_source>  (21) 
Heuristics

$$$$

     RDKit          3D

 19 17  0  0  0  0  0  0  0  0999 V2000
    0.6723   -0.5899    1.8337 C   0  0  0  0  0  3  0  0  0  0  0  0
    1.4402    0.1145    0.8778 O   0  0  0  0  0  0  0  0  0  0  0  0
    2.7542   -0.2803    0.9573 N   0  0  0  0  0  0  0  0  0  0  0  0
    3.4823    0.3236    0.1195 C   0  0  0  0  0  0  0  0  0  0  0  0
    0.7096   -1.6658    1.6489 H   0  0  0  0  0  0  0  0  0  0  0  0
    1.0229   -0.3812    2.8470 H   0  0  0  0  0  0  0  0  0  0  0  0
    4.5336    0.0685    0.1181 H   0  0  0  0  0  0  0  0  0  0  0  0
    3.0886    1.0650   -0.5724 H   0  0  0  0  0  0  0  0  0  0  0  0
   -1.6405   -0.3850   -3.1220 C   0  0  0  0  0  0  0  0  0  0  0  0
   -1.6405   -0.3850   -1.6253 C   0  0  0  0  0  0  0  0  0  0  0  0
   -1.6405    0.7292   -0.9133 C   0  0  0  0  0  0  0  0  0  0  0  0
   -1.6424    0.8769    0.4434 O   0  0  0  0  0  0  0  0  0  0  0  0
   -1.6691   -0.3781    1.0969 O   0  0  0  0  0  0  0  0  0  0  0  0
   -0.7666   -0.9091   -3.5167 H   0  0  0  0  0  0  0  0  0  0  0  0
   -2.5239   -0.8947   -3.5145 H   0  0  0  0  0  0  0  0  0  0  0  0
   -1.6325    0.6293   -3.5245 H   0  0  0  0  0  0  0  0  0  0  0  0
   -1.6556   -1.3384   -1.1141 H   0  0  0  0  0  0  0  0  0  0  0  0
   -1.6442    1.7225   -1.3490 H   0  0  0  0  0  0  0  0  0  0  0  0
   -0.5692   -0.4776    1.4430 H   0  0  0  0  0  0  0  0  0  0  0  0
  1  2  1  0
  1  5  1  0
  1  6  1  0
  2  3  1  0
  3  4  2  3
  4  7  1  0
  4  8  1  0
  9 10  1  0
  9 14  1  0
  9 15  1  0
  9 16  1  0
 10 11  2  3
 10 17  1  0
 11 12  1  0
 11 18  1  0
 12 13  1  0
 13 19  1  0
M  RAD  1   1   2
M  END
>  <reaction>  (22) 
rmg_rxn_15699

>  <mol_properties>  (22) 
{"0": {"label": "*3", "atom_type": "Cs"}, "1": {"label": "*4", "atom_type": "O2s"}, "11": {"label": "*0", "atom_type": "O2s"}, "12": {"label": "*1", "atom_type": "O2s"}, "18": {"label": "*2", "atom_type": "H0"}}

>  <type>  (22) 
unop_18

>  <geom_source>  (22) 
Heuristics

$$$$

     RDKit          3D

 19 17  0  0  0  0  0  0  0  0999 V2000
    0.9895   -0.7711    0.8656 C   0  0  0  0  0  3  0  0  0  0  0  0
    1.2253    0.3341    1.7156 O   0  0  0  0  0  0  0  0  0  0  0  0
    2.1334   -0.0140    2.6867 N   0  0  0  0  0  0  0  0  0  0  0  0
    2.3772    0.9444    3.4733 C   0  0  0  0  0  0  0  0  0  0  0  0
    1.9094   -1.0832    0.3662 H   0  0  0  0  0  0  0  0  0  0  0  0
    0.5743   -1.6125    1.4249 H   0  0  0  0  0  0  0  0  0  0  0  0
    3.0845    0.7509    4.2686 H   0  0  0  0  0  0  0  0  0  0  0  0
    1.9086    1.9208    3.3706 H   0  0  0  0  0  0  0  0  0  0  0  0
   -1.3234   -0.5662   -4.0901 C   0  0  0  0  0  0  0  0  0  0  0  0
   -1.3234   -0.5662   -2.5935 C   0  0  0  0  0  0  0  0  0  0  0  0
   -1.3234    0.5480   -1.8814 C   0  0  0  0  0  0  0  0  0  0  0  0
   -1.3253    0.6957   -0.5247 O   0  0  0  0  0  0  0  0  0  0  0  0
   -1.3520   -0.5593    0.1288 O   0  0  0  0  0  0  0  0  0  0  0  0
   -0.4494   -1.0903   -4.4848 H   0  0  0  0  0  0  0  0  0  0  0  0
   -2.2068   -1.0759   -4.4826 H   0  0  0  0  0  0  0  0  0  0  0  0
   -1.3154    0.4481   -4.4926 H   0  0  0  0  0  0  0  0  0  0  0  0
   -1.3385   -1.5196   -2.0822 H   0  0  0  0  0  0  0  0  0  0  0  0
   -1.3271    1.5413   -2.3171 H   0  0  0  0  0  0  0  0  0  0  0  0
   -0.2521   -0.6588    0.4749 H   0  0  0  0  0  0  0  0  0  0  0  0
  1  2  1  0
  1  5  1  0
  1  6  1  0
  2  3  1  0
  3  4  2  3
  4  7  1  0
  4  8  1  0
  9 10  1  0
  9 14  1  0
  9 15  1  0
  9 16  1  0
 10 11  2  3
 10 17  1  0
 11 12  1  0
 11 18  1  0
 12 13  1  0
 13 19  1  0
M  RAD  1   1   2
M  END
>  <reaction>  (23) 
rmg_rxn_15699

>  <mol_properties>  (23) 
{"0": {"label": "*3", "atom_type": "Cs"}, "1": {"label": "*4", "atom_type": "O2s"}, "11": {"label": "*0", "atom_type": "O2s"}, "12": {"label": "*1", "atom_type": "O2s"}, "18": {"label": "*2", "atom_type": "H0"}}

>  <type>  (23) 
unop_19

>  <geom_source>  (23) 
Heuristics

$$$$

     RDKit          3D

 19 17  0  0  0  0  0  0  0  0999 V2000
    0.9525    0.2726    1.2373 C   0  0  0  0  0  3  0  0  0  0  0  0
    1.2263   -1.1146    1.2504 O   0  0  0  0  0  0  0  0  0  0  0  0
    2.2276   -1.3805    2.1535 N   0  0  0  0  0  0  0  0  0  0  0  0
    2.5085   -2.6116    2.2012 C   0  0  0  0  0  0  0  0  0  0  0  0
    0.6161    0.6138    2.2190 H   0  0  0  0  0  0  0  0  0  0  0  0
    1.8344    0.8421    0.9355 H   0  0  0  0  0  0  0  0  0  0  0  0
    3.2893   -2.9044    2.8903 H   0  0  0  0  0  0  0  0  0  0  0  0
    2.0010   -3.3528    1.5875 H   0  0  0  0  0  0  0  0  0  0  0  0
   -1.3603    0.4775   -3.7184 C   0  0  0  0  0  0  0  0  0  0  0  0
   -1.3603    0.4775   -2.2217 C   0  0  0  0  0  0  0  0  0  0  0  0
   -1.3603    1.5916   -1.5097 C   0  0  0  0  0  0  0  0  0  0  0  0
   -1.3622    1.7393   -0.1530 O   0  0  0  0  0  0  0  0  0  0  0  0
   -1.3889    0.4844    0.5005 O   0  0  0  0  0  0  0  0  0  0  0  0
   -0.4864   -0.0466   -4.1131 H   0  0  0  0  0  0  0  0  0  0  0  0
   -2.2437   -0.0322   -4.1109 H   0  0  0  0  0  0  0  0  0  0  0  0
   -1.3523    1.4918   -4.1208 H   0  0  0  0  0  0  0  0  0  0  0  0
   -1.3754   -0.4759   -1.7104 H   0  0  0  0  0  0  0  0  0  0  0  0
   -1.3640    2.5850   -1.9454 H   0  0  0  0  0  0  0  0  0  0  0  0
   -0.2890    0.3849    0.8466 H   0  0  0  0  0  0  0  0  0  0  0  0
  1  2  1  0
  1  5  1  0
  1  6  1  0
  2  3  1  0
  3  4  2  3
  4  7  1  0
  4  8  1  0
  9 10  1  0
  9 14  1  0
  9 15  1  0
  9 16  1  0
 10 11  2  3
 10 17  1  0
 11 12  1  0
 11 18  1  0
 12 13  1  0
 13 19  1  0
M  RAD  1   1   2
M  END
>  <reaction>  (24) 
rmg_rxn_15699

>  <mol_properties>  (24) 
{"0": {"label": "*3", "atom_type": "Cs"}, "1": {"label": "*4", "atom_type": "O2s"}, "11": {"label": "*0", "atom_type": "O2s"}, "12": {"label": "*1", "atom_type": "O2s"}, "18": {"label": "*2", "atom_type": "H0"}}

>  <type>  (24) 
unop_20

>  <geom_source>  (24) 
Heuristics

$$$$

     RDKit          3D

 19 17  0  0  0  0  0  0  0  0999 V2000
    0.7207   -0.8707    1.5510 C   0  0  0  0  0  3  0  0  0  0  0  0
    1.3703    0.3039    1.1062 O   0  0  0  0  0  0  0  0  0  0  0  0
    2.6932    0.2703    1.4771 N   0  0  0  0  0  0  0  0  0  0  0  0
    3.3176    1.3024    1.1006 C   0  0  0  0  0  0  0  0  0  0  0  0
    1.1708   -1.7596    1.1031 H   0  0  0  0  0  0  0  0  0  0  0  0
    0.7604   -0.9507    2.6397 H   0  0  0  0  0  0  0  0  0  0  0  0
    4.3680    1.3531    1.3544 H   0  0  0  0  0  0  0  0  0  0  0  0
    2.8389    2.1083    0.5486 H   0  0  0  0  0  0  0  0  0  0  0  0
   -1.5921   -0.6658   -3.4047 C   0  0  0  0  0  0  0  0  0  0  0  0
   -1.5921   -0.6658   -1.9080 C   0  0  0  0  0  0  0  0  0  0  0  0
   -1.5921    0.4483   -1.1960 C   0  0  0  0  0  0  0  0  0  0  0  0
   -1.5940    0.5960    0.1607 O   0  0  0  0  0  0  0  0  0  0  0  0
   -1.6207   -0.6590    0.8142 O   0  0  0  0  0  0  0  0  0  0  0  0
   -0.7181   -1.1900   -3.7994 H   0  0  0  0  0  0  0  0  0  0  0  0
   -2.4755   -1.1755   -3.7972 H   0  0  0  0  0  0  0  0  0  0  0  0
   -1.5841    0.3484   -3.8072 H   0  0  0  0  0  0  0  0  0  0  0  0
   -1.6072   -1.6192   -1.3967 H   0  0  0  0  0  0  0  0  0  0  0  0
   -1.5958    1.4416   -1.6317 H   0  0  0  0  0  0  0  0  0  0  0  0
   -0.5208   -0.7584    1.1603 H   0  0  0  0  0  0  0  0  0  0  0  0
  1  2  1  0
  1  5  1  0
  1  6  1  0
  2  3  1  0
  3  4  2  3
  4  7  1  0
  4  8  1  0
  9 10  1  0
  9 14  1  0
  9 15  1  0
  9 16  1  0
 10 11  2  3
 10 17  1  0
 11 12  1  0
 11 18  1  0
 12 13  1  0
 13 19  1  0
M  RAD  1   1   2
M  END
>  <reaction>  (25) 
rmg_rxn_15699

>  <mol_properties>  (25) 
{"0": {"label": "*3", "atom_type": "Cs"}, "1": {"label": "*4", "atom_type": "O2s"}, "11": {"label": "*0", "atom_type": "O2s"}, "12": {"label": "*1", "atom_type": "O2s"}, "18": {"label": "*2", "atom_type": "H0"}}

>  <type>  (25) 
unop_21

>  <geom_source>  (25) 
Heuristics

$$$$

     RDKit          3D

 19 17  0  0  0  0  0  0  0  0999 V2000
    2.3635   -0.8837    0.3193 O   0  0  0  0  0  0  0  0  0  0  0  0
   -0.9549   -0.2546   -1.5531 O   0  0  0  0  0  0  0  0  0  0  0  0
   -0.1831   -1.3236   -1.7929 O   0  0  0  0  0  0  0  0  0  0  0  0
    2.7577    0.1590   -0.4869 N   0  0  0  0  0  0  0  0  0  0  0  0
   -3.0804    1.1404    1.1937 C   0  0  0  0  0  0  0  0  0  0  0  0
   -2.3678    0.9589   -0.1074 C   0  0  0  0  0  0  0  0  0  0  0  0
   -1.6080   -0.1099   -0.3321 C   0  0  0  0  0  0  0  0  0  0  0  0
    1.5199   -1.9000   -0.1928 C   0  0  0  0  0  3  0  0  0  0  0  0
    3.5277    1.0890   -0.0271 C   0  0  0  0  0  0  0  0  0  0  0  0
   -3.6552    2.0900    1.1766 H   0  0  0  0  0  0  0  0  0  0  0  0
   -2.3462    1.1804    2.0260 H   0  0  0  0  0  0  0  0  0  0  0  0
   -3.7843    0.2980    1.3615 H   0  0  0  0  0  0  0  0  0  0  0  0
   -2.4745    1.7131   -0.8778 H   0  0  0  0  0  0  0  0  0  0  0  0
   -1.4935   -0.8713    0.4311 H   0  0  0  0  0  0  0  0  0  0  0  0
    2.0366   -2.4378   -1.0152 H   0  0  0  0  0  0  0  0  0  0  0  0
    1.2744   -2.6178    0.6165 H   0  0  0  0  0  0  0  0  0  0  0  0
    3.8307    1.9035   -0.6707 H   0  0  0  0  0  0  0  0  0  0  0  0
    3.8738    1.0614    0.9985 H   0  0  0  0  0  0  0  0  0  0  0  0
    0.7636   -1.1949   -1.0673 H   0  0  0  0  0  0  0  0  0  0  0  0
  1  8  1  0
  1  4  1  0
  2  7  1  0
  2  3  1  0
  3 19  1  0
  4  9  2  3
  5  6  1  0
  5 10  1  0
  5 11  1  0
  5 12  1  0
  6  7  2  3
  6 13  1  0
  7 14  1  0
  8 15  1  0
  8 16  1  0
  9 17  1  0
  9 18  1  0
M  RAD  1   8   2
M  END
>  <reaction>  (26) 
rmg_rxn_15699

>  <mol_properties>  (26) 
{"0": {"label": "*3", "atom_type": "Cs"}, "1": {"label": "*4", "atom_type": "O2s"}, "11": {"label": "*0", "atom_type": "O2s"}, "12": {"label": "*1", "atom_type": "O2s"}, "18": {"label": "*2", "atom_type": "H0"}}

>  <type>  (26) 
unop_22

>  <geom_source>  (26) 
AutoTST

$$$$

     RDKit          3D

 19 17  0  0  0  0  0  0  0  0999 V2000
    0.8480   -0.9361    1.1759 C   0  0  0  0  0  3  0  0  0  0  0  0
    1.3028    0.3852    1.3921 O   0  0  0  0  0  0  0  0  0  0  0  0
    2.4271    0.3646    2.1824 N   0  0  0  0  0  0  0  0  0  0  0  0
    2.8722    1.5262    2.4042 C   0  0  0  0  0  0  0  0  0  0  0  0
    1.6064   -1.5313    0.6623 H   0  0  0  0  0  0  0  0  0  0  0  0
    0.5838   -1.4177    2.1201 H   0  0  0  0  0  0  0  0  0  0  0  0
    3.7585    1.5963    3.0204 H   0  0  0  0  0  0  0  0  0  0  0  0
    2.4005    2.4210    2.0037 H   0  0  0  0  0  0  0  0  0  0  0  0
   -1.4649   -0.7312   -3.7798 C   0  0  0  0  0  0  0  0  0  0  0  0
   -1.4649   -0.7312   -2.2831 C   0  0  0  0  0  0  0  0  0  0  0  0
   -1.4649    0.3829   -1.5711 C   0  0  0  0  0  0  0  0  0  0  0  0
   -1.4668    0.5306   -0.2144 O   0  0  0  0  0  0  0  0  0  0  0  0
   -1.4934   -0.7244    0.4391 O   0  0  0  0  0  0  0  0  0  0  0  0
   -0.5909   -1.2554   -4.1745 H   0  0  0  0  0  0  0  0  0  0  0  0
   -2.3482   -1.2409   -4.1723 H   0  0  0  0  0  0  0  0  0  0  0  0
   -1.4568    0.2831   -4.1822 H   0  0  0  0  0  0  0  0  0  0  0  0
   -1.4800   -1.6846   -1.7718 H   0  0  0  0  0  0  0  0  0  0  0  0
   -1.4686    1.3762   -2.0068 H   0  0  0  0  0  0  0  0  0  0  0  0
   -0.3935   -0.8238    0.7853 H   0  0  0  0  0  0  0  0  0  0  0  0
  1  2  1  0
  1  5  1  0
  1  6  1  0
  2  3  1  0
  3  4  2  3
  4  7  1  0
  4  8  1  0
  9 10  1  0
  9 14  1  0
  9 15  1  0
  9 16  1  0
 10 11  2  3
 10 17  1  0
 11 12  1  0
 11 18  1  0
 12 13  1  0
 13 19  1  0
M  RAD  1   1   2
M  END
>  <reaction>  (27) 
rmg_rxn_15699

>  <mol_properties>  (27) 
{"0": {"label": "*3", "atom_type": "Cs"}, "1": {"label": "*4", "atom_type": "O2s"}, "11": {"label": "*0", "atom_type": "O2s"}, "12": {"label": "*1", "atom_type": "O2s"}, "18": {"label": "*2", "atom_type": "H0"}}

>  <type>  (27) 
unop_23

>  <geom_source>  (27) 
gaussian_log

$$$$
