
     RDKit          3D

 18 17  0  0  0  0  0  0  0  0999 V2000
    2.2026   -0.7213   -0.2612 C   0  0  0  0  0  0  0  0  0  0  0  0
    1.5384    0.2638    0.6915 C   0  0  0  0  0  0  0  0  0  0  0  0
    2.2584    1.5946    0.7694 C   0  0  0  0  0  0  0  0  0  0  0  0
    2.2212    2.2185   -0.4893 O   0  0  0  0  0  0  0  0  0  0  0  0
    2.8988    3.4488   -0.5204 C   0  0  0  0  0  0  0  0  0  0  0  0
    2.7981    4.0296   -1.9118 C   0  0  0  0  0  0  0  0  0  0  0  0
    3.2294   -0.9309    0.0486 H   0  0  0  0  0  0  0  0  0  0  0  0
    2.2338   -0.3181   -1.2734 H   0  0  0  0  0  0  0  0  0  0  0  0
    1.6610   -1.6680   -0.2875 H   0  0  0  0  0  0  0  0  0  0  0  0
    1.4990   -0.1566    1.7002 H   0  0  0  0  0  0  0  0  0  0  0  0
    0.5055    0.4455    0.3835 H   0  0  0  0  0  0  0  0  0  0  0  0
    3.3038    1.4410    1.0808 H   0  0  0  0  0  0  0  0  0  0  0  0
    1.7844    2.2410    1.5226 H   0  0  0  0  0  0  0  0  0  0  0  0
    2.4596    4.1376    0.2164 H   0  0  0  0  0  0  0  0  0  0  0  0
    3.9524    3.3035   -0.2397 H   0  0  0  0  0  0  0  0  0  0  0  0
    1.7543    4.1869   -2.1856 H   0  0  0  0  0  0  0  0  0  0  0  0
    3.2472    3.3545   -2.6411 H   0  0  0  0  0  0  0  0  0  0  0  0
    3.3178    4.9878   -1.9600 H   0  0  0  0  0  0  0  0  0  0  0  0
  1  2  1  0
  1  7  1  0
  1  8  1  0
  1  9  1  0
  2  3  1  0
  2 10  1  0
  2 11  1  0
  3  4  1  0
  3 12  1  0
  3 13  1  0
  4  5  1  0
  5  6  1  0
  5 14  1  0
  5 15  1  0
  6 16  1  0
  6 17  1  0
  6 18  1  0
M  END
>  <reaction>  (1) 
rmg_rxn_317

>  <mol_properties>  (1) 
{"4": {"label": "donator", "atom_type": "Cs"}, "13": {"label": "d_hydrogen", "atom_type": "H0"}}

>  <type>  (1) 
r1h

$$$$

     RDKit          3D

 11 10  0  0  0  0  0  0  0  0999 V2000
   -1.2230    0.3768   -0.0849 C   0  0  0  0  0  0  0  0  0  0  0  0
   -0.0734   -0.5533    0.2746 C   0  0  0  0  0  0  0  0  0  0  0  0
   -0.0853   -1.8426   -0.5372 C   0  0  0  0  0  0  0  0  0  0  0  0
    0.0319   -1.6944   -1.8815 O   0  0  0  0  0  1  0  0  0  0  0  0
   -2.1874   -0.0885    0.1341 H   0  0  0  0  0  0  0  0  0  0  0  0
   -1.1670    1.3099    0.4765 H   0  0  0  0  0  0  0  0  0  0  0  0
   -1.2014    0.6189   -1.1483 H   0  0  0  0  0  0  0  0  0  0  0  0
    0.8834   -0.0518    0.1071 H   0  0  0  0  0  0  0  0  0  0  0  0
   -0.1104   -0.8149    1.3362 H   0  0  0  0  0  0  0  0  0  0  0  0
    0.6767   -2.5604   -0.1861 H   0  0  0  0  0  0  0  0  0  0  0  0
   -1.0401   -2.3871   -0.3877 H   0  0  0  0  0  0  0  0  0  0  0  0
  1  2  1  0
  1  5  1  0
  1  6  1  0
  1  7  1  0
  2  3  1  0
  2  8  1  0
  2  9  1  0
  3  4  1  0
  3 10  1  0
  3 11  1  0
M  RAD  1   4   2
M  END
>  <reaction>  (2) 
rmg_rxn_317

>  <mol_properties>  (2) 
{"3": {"label": "acceptor", "atom_type": "O2s"}}

>  <type>  (2) 
r2

$$$$

     RDKit          3D

 12 11  0  0  0  0  0  0  0  0999 V2000
   -1.4643   -0.2505   -0.5284 C   0  0  0  0  0  0  0  0  0  0  0  0
   -0.3946    0.4302    0.3143 C   0  0  0  0  0  0  0  0  0  0  0  0
   -0.5959    0.2382    1.8102 C   0  0  0  0  0  0  0  0  0  0  0  0
   -0.5633   -1.1190    2.2092 O   0  0  0  0  0  0  0  0  0  0  0  0
   -2.4511    0.1644   -0.3109 H   0  0  0  0  0  0  0  0  0  0  0  0
   -1.5019   -1.3198   -0.3181 H   0  0  0  0  0  0  0  0  0  0  0  0
   -1.2720   -0.1182   -1.5941 H   0  0  0  0  0  0  0  0  0  0  0  0
    0.5965    0.0515    0.0385 H   0  0  0  0  0  0  0  0  0  0  0  0
   -0.3776    1.5047    0.1078 H   0  0  0  0  0  0  0  0  0  0  0  0
   -1.5821    0.6048    2.1034 H   0  0  0  0  0  0  0  0  0  0  0  0
    0.1495    0.8220    2.3649 H   0  0  0  0  0  0  0  0  0  0  0  0
    0.3017   -1.4750    1.9997 H   0  0  0  0  0  0  0  0  0  0  0  0
  1  2  1  0
  1  5  1  0
  1  6  1  0
  1  7  1  0
  2  3  1  0
  2  8  1  0
  2  9  1  0
  3  4  1  0
  3 10  1  0
  3 11  1  0
  4 12  1  0
M  END
>  <reaction>  (3) 
rmg_rxn_317

>  <mol_properties>  (3) 
{"3": {"label": "acceptor", "atom_type": "O2s"}, "11": {"label": "a_hydrogen", "atom_type": "H0"}}

>  <type>  (3) 
r2h

$$$$

     RDKit          3D

 29 27  0  0  0  0  0  0  0  0999 V2000
   -0.4068    3.5172    2.0261 C   0  0  0  0  0  0  0  0  0  0  0  0
    0.7914    2.7982    1.4244 C   0  0  0  0  0  0  0  0  0  0  0  0
    0.9355    1.3615    1.9172 C   0  0  0  0  0  0  0  0  0  0  0  0
   -0.1841    0.5688    1.7083 O   0  0  0  0  0  1  0  0  0  0  0  0
   -0.3145    3.5872    3.1126 H   0  0  0  0  0  0  0  0  0  0  0  0
   -0.4994    4.5302    1.6316 H   0  0  0  0  0  0  0  0  0  0  0  0
   -1.3286    2.9774    1.8068 H   0  0  0  0  0  0  0  0  0  0  0  0
    0.7082    2.7863    0.3327 H   0  0  0  0  0  0  0  0  0  0  0  0
    1.7159    3.3355    1.6565 H   0  0  0  0  0  0  0  0  0  0  0  0
    1.8379    0.9013    1.4867 H   0  0  0  0  0  0  0  0  0  0  0  0
    1.0829    1.3608    3.0082 H   0  0  0  0  0  0  0  0  0  0  0  0
    0.3768   -3.5006   -2.5634 C   0  0  0  0  0  0  0  0  0  0  0  0
    0.3778   -3.2939   -1.0547 C   0  0  0  0  0  0  0  0  0  0  0  0
    0.6316   -1.8589   -0.6473 C   0  0  0  0  0  0  0  0  0  0  0  0
   -0.4204   -1.0448   -1.1328 O   0  0  0  0  0  0  0  0  0  0  0  0
   -0.2701    0.2920   -0.8505 C   0  0  0  0  0  0  0  0  0  0  0  0
   -1.3928    1.1054   -1.4303 C   0  0  0  0  0  0  0  0  0  0  0  0
    1.3360   -3.2088   -2.9982 H   0  0  0  0  0  0  0  0  0  0  0  0
   -0.4019   -2.9019   -3.0365 H   0  0  0  0  0  0  0  0  0  0  0  0
    0.1999   -4.5470   -2.8153 H   0  0  0  0  0  0  0  0  0  0  0  0
    1.1512   -3.9116   -0.5904 H   0  0  0  0  0  0  0  0  0  0  0  0
   -0.5771   -3.6119   -0.6293 H   0  0  0  0  0  0  0  0  0  0  0  0
    1.5860   -1.5041   -1.0636 H   0  0  0  0  0  0  0  0  0  0  0  0
    0.6813   -1.7624    0.4431 H   0  0  0  0  0  0  0  0  0  0  0  0
   -0.2957    0.4296    0.3468 H   0  0  0  0  0  0  0  0  0  0  0  0
    0.7292    0.6610   -1.1282 H   0  0  0  0  0  0  0  0  0  0  0  0
   -2.3523    0.7443   -1.0601 H   0  0  0  0  0  0  0  0  0  0  0  0
   -1.3940    1.0395   -2.5207 H   0  0  0  0  0  0  0  0  0  0  0  0
   -1.2816    2.1514   -1.1430 H   0  0  0  0  0  0  0  0  0  0  0  0
  1  2  1  0
  1  5  1  0
  1  6  1  0
  1  7  1  0
  2  3  1  0
  2  8  1  0
  2  9  1  0
  3  4  1  0
  3 10  1  0
  3 11  1  0
 12 13  1  0
 12 18  1  0
 12 19  1  0
 12 20  1  0
 13 14  1  0
 13 21  1  0
 13 22  1  0
 14 15  1  0
 14 23  1  0
 14 24  1  0
 15 16  1  0
 16 17  1  0
 16 25  1  0
 16 26  1  0
 17 27  1  0
 17 28  1  0
 17 29  1  0
M  RAD  1   4   2
M  END
>  <reaction>  (4) 
rmg_rxn_317

>  <mol_properties>  (4) 
{"2": {"label": "*4", "atom_type": "Cs"}, "3": {"label": "*3", "atom_type": "O2s"}, "14": {"label": "*0", "atom_type": "O2s"}, "15": {"label": "*1", "atom_type": "Cs"}, "24": {"label": "*2", "atom_type": "H0"}}

>  <type>  (4) 
ts

$$$$

     RDKit          3D

 29 27  0  0  0  0  0  0  0  0999 V2000
   -1.2890    3.0114    1.2941 C   0  0  0  0  0  0  0  0  0  0  0  0
    0.1929    2.6840    1.4157 C   0  0  0  0  0  0  0  0  0  0  0  0
    0.4762    1.5232    2.3578 C   0  0  0  0  0  0  0  0  0  0  0  0
   -0.1312    0.3117    1.9510 O   0  0  0  0  0  0  0  0  0  0  0  0
   -1.6998    3.3127    2.2605 H   0  0  0  0  0  0  0  0  0  0  0  0
   -1.4574    3.8267    0.5890 H   0  0  0  0  0  0  0  0  0  0  0  0
   -1.8518    2.1423    0.9524 H   0  0  0  0  0  0  0  0  0  0  0  0
    0.6064    2.4481    0.4283 H   0  0  0  0  0  0  0  0  0  0  0  0
    0.7447    3.5576    1.7756 H   0  0  0  0  0  0  0  0  0  0  0  0
    1.5595    1.3926    2.4735 H   0  0  0  0  0  0  0  0  0  0  0  0
    0.0656    1.7376    3.3470 H   0  0  0  0  0  0  0  0  0  0  0  0
    0.9715   -3.0694   -2.7465 C   0  0  0  0  0  0  0  0  0  0  0  0
    0.9715   -3.0694   -1.2236 C   0  0  0  0  0  0  0  0  0  0  0  0
    0.9715   -1.6764   -0.6281 C   0  0  0  0  0  0  0  0  0  0  0  0
   -0.2115   -1.0128   -0.9957 O   0  0  0  0  0  0  0  0  0  0  0  0
   -0.2822    0.3053   -0.5148 C   0  0  0  0  0  3  0  0  0  0  0  0
   -1.5855    0.9231   -0.9656 C   0  0  0  0  0  0  0  0  0  0  0  0
    1.8536   -2.5551   -3.1361 H   0  0  0  0  0  0  0  0  0  0  0  0
    0.0888   -2.5597   -3.1326 H   0  0  0  0  0  0  0  0  0  0  0  0
    0.9770   -4.0873   -3.1392 H   0  0  0  0  0  0  0  0  0  0  0  0
    1.8530   -3.5959   -0.8473 H   0  0  0  0  0  0  0  0  0  0  0  0
    0.0971   -3.6074   -0.8483 H   0  0  0  0  0  0  0  0  0  0  0  0
    1.8457   -1.1113   -0.9885 H   0  0  0  0  0  0  0  0  0  0  0  0
    1.0463   -1.7303    0.4680 H   0  0  0  0  0  0  0  0  0  0  0  0
   -0.2015    0.3087    0.8029 H   0  0  0  0  0  0  0  0  0  0  0  0
    0.5706    0.8883   -0.8927 H   0  0  0  0  0  0  0  0  0  0  0  0
   -2.4319    0.3537   -0.5799 H   0  0  0  0  0  0  0  0  0  0  0  0
   -1.6463    0.9349   -2.0544 H   0  0  0  0  0  0  0  0  0  0  0  0
   -1.6632    1.9491   -0.6026 H   0  0  0  0  0  0  0  0  0  0  0  0
  1  2  1  0
  1  5  1  0
  1  6  1  0
  1  7  1  0
  2  3  1  0
  2  8  1  0
  2  9  1  0
  3  4  1  0
  3 10  1  0
  3 11  1  0
  4 25  1  0
 12 13  1  0
 12 18  1  0
 12 19  1  0
 12 20  1  0
 13 14  1  0
 13 21  1  0
 13 22  1  0
 14 15  1  0
 14 23  1  0
 14 24  1  0
 15 16  1  0
 16 17  1  0
 16 26  1  0
 17 27  1  0
 17 28  1  0
 17 29  1  0
M  RAD  1  16   2
M  END
>  <reaction>  (5) 
rmg_rxn_317

>  <mol_properties>  (5) 
{"2": {"label": "*4", "atom_type": "Cs"}, "3": {"label": "*3", "atom_type": "O2s"}, "14": {"label": "*0", "atom_type": "O2s"}, "15": {"label": "*1", "atom_type": "Cs"}, "24": {"label": "*2", "atom_type": "H0"}}

>  <type>  (5) 
unop_1

>  <geom_source>  (5) 
Heuristics

$$$$

     RDKit          3D

 29 27  0  0  0  0  0  0  0  0999 V2000
    1.8737    1.9553    1.0013 C   0  0  0  0  0  0  0  0  0  0  0  0
    1.5437    0.5030    1.3173 C   0  0  0  0  0  0  0  0  0  0  0  0
    0.4629    0.3495    2.3772 C   0  0  0  0  0  0  0  0  0  0  0  0
   -0.7726    0.9298    2.0042 O   0  0  0  0  0  0  0  0  0  0  0  0
    2.2582    2.4668    1.8867 H   0  0  0  0  0  0  0  0  0  0  0  0
    2.6289    2.0279    0.2174 H   0  0  0  0  0  0  0  0  0  0  0  0
    0.9844    2.4922    0.6699 H   0  0  0  0  0  0  0  0  0  0  0  0
    1.2226   -0.0147    0.4060 H   0  0  0  0  0  0  0  0  0  0  0  0
    2.4391   -0.0210    1.6651 H   0  0  0  0  0  0  0  0  0  0  0  0
    0.3322   -0.7112    2.6258 H   0  0  0  0  0  0  0  0  0  0  0  0
    0.7627    0.8649    3.2923 H   0  0  0  0  0  0  0  0  0  0  0  0
    0.3301   -2.4514   -2.6933 C   0  0  0  0  0  0  0  0  0  0  0  0
    0.3301   -2.4514   -1.1704 C   0  0  0  0  0  0  0  0  0  0  0  0
    0.3301   -1.0583   -0.5749 C   0  0  0  0  0  0  0  0  0  0  0  0
   -0.8529   -0.3947   -0.9425 O   0  0  0  0  0  0  0  0  0  0  0  0
   -0.9236    0.9233   -0.4616 C   0  0  0  0  0  3  0  0  0  0  0  0
   -2.2270    1.5411   -0.9125 C   0  0  0  0  0  0  0  0  0  0  0  0
    1.2122   -1.9371   -3.0830 H   0  0  0  0  0  0  0  0  0  0  0  0
   -0.5526   -1.9417   -3.0794 H   0  0  0  0  0  0  0  0  0  0  0  0
    0.3356   -3.4692   -3.0860 H   0  0  0  0  0  0  0  0  0  0  0  0
    1.2116   -2.9778   -0.7942 H   0  0  0  0  0  0  0  0  0  0  0  0
   -0.5443   -2.9893   -0.7952 H   0  0  0  0  0  0  0  0  0  0  0  0
    1.2043   -0.4932   -0.9353 H   0  0  0  0  0  0  0  0  0  0  0  0
    0.4049   -1.1122    0.5211 H   0  0  0  0  0  0  0  0  0  0  0  0
   -0.8429    0.9268    0.8561 H   0  0  0  0  0  0  0  0  0  0  0  0
   -0.0708    1.5063   -0.8395 H   0  0  0  0  0  0  0  0  0  0  0  0
   -3.0733    0.9717   -0.5268 H   0  0  0  0  0  0  0  0  0  0  0  0
   -2.2878    1.5530   -2.0013 H   0  0  0  0  0  0  0  0  0  0  0  0
   -2.3046    2.5671   -0.5494 H   0  0  0  0  0  0  0  0  0  0  0  0
  1  2  1  0
  1  5  1  0
  1  6  1  0
  1  7  1  0
  2  3  1  0
  2  8  1  0
  2  9  1  0
  3  4  1  0
  3 10  1  0
  3 11  1  0
  4 25  1  0
 12 13  1  0
 12 18  1  0
 12 19  1  0
 12 20  1  0
 13 14  1  0
 13 21  1  0
 13 22  1  0
 14 15  1  0
 14 23  1  0
 14 24  1  0
 15 16  1  0
 16 17  1  0
 16 26  1  0
 17 27  1  0
 17 28  1  0
 17 29  1  0
M  RAD  1  16   2
M  END
>  <reaction>  (6) 
rmg_rxn_317

>  <mol_properties>  (6) 
{"2": {"label": "*4", "atom_type": "Cs"}, "3": {"label": "*3", "atom_type": "O2s"}, "14": {"label": "*0", "atom_type": "O2s"}, "15": {"label": "*1", "atom_type": "Cs"}, "24": {"label": "*2", "atom_type": "H0"}}

>  <type>  (6) 
unop_2

>  <geom_source>  (6) 
Heuristics

$$$$

     RDKit          3D

 29 27  0  0  0  0  0  0  0  0999 V2000
   -2.3567    1.8106    2.4439 C   0  0  0  0  0  0  0  0  0  0  0  0
   -1.1381    2.4933    1.8383 C   0  0  0  0  0  0  0  0  0  0  0  0
    0.1735    1.8109    2.1978 C   0  0  0  0  0  0  0  0  0  0  0  0
    0.2479    0.4709    1.7496 O   0  0  0  0  0  0  0  0  0  0  0  0
   -2.3080    1.8278    3.5351 H   0  0  0  0  0  0  0  0  0  0  0  0
   -3.2796    2.3072    2.1413 H   0  0  0  0  0  0  0  0  0  0  0  0
   -2.4119    0.7671    2.1322 H   0  0  0  0  0  0  0  0  0  0  0  0
   -1.2322    2.5277    0.7467 H   0  0  0  0  0  0  0  0  0  0  0  0
   -1.0834    3.5341    2.1715 H   0  0  0  0  0  0  0  0  0  0  0  0
    1.0169    2.3957    1.8094 H   0  0  0  0  0  0  0  0  0  0  0  0
    0.2824    1.7618    3.2835 H   0  0  0  0  0  0  0  0  0  0  0  0
    1.3506   -2.9103   -2.9480 C   0  0  0  0  0  0  0  0  0  0  0  0
    1.3506   -2.9103   -1.4251 C   0  0  0  0  0  0  0  0  0  0  0  0
    1.3506   -1.5172   -0.8296 C   0  0  0  0  0  0  0  0  0  0  0  0
    0.1676   -0.8536   -1.1972 O   0  0  0  0  0  0  0  0  0  0  0  0
    0.0969    0.4645   -0.7163 C   0  0  0  0  0  3  0  0  0  0  0  0
   -1.2065    1.0822   -1.1671 C   0  0  0  0  0  0  0  0  0  0  0  0
    2.2326   -2.3959   -3.3376 H   0  0  0  0  0  0  0  0  0  0  0  0
    0.4678   -2.4006   -3.3341 H   0  0  0  0  0  0  0  0  0  0  0  0
    1.3560   -3.9281   -3.3407 H   0  0  0  0  0  0  0  0  0  0  0  0
    2.2321   -3.4367   -1.0488 H   0  0  0  0  0  0  0  0  0  0  0  0
    0.4762   -3.4482   -1.0498 H   0  0  0  0  0  0  0  0  0  0  0  0
    2.2248   -0.9521   -1.1900 H   0  0  0  0  0  0  0  0  0  0  0  0
    1.4254   -1.5711    0.2665 H   0  0  0  0  0  0  0  0  0  0  0  0
    0.1776    0.4679    0.6014 H   0  0  0  0  0  0  0  0  0  0  0  0
    0.9497    1.0474   -1.0942 H   0  0  0  0  0  0  0  0  0  0  0  0
   -2.0528    0.5128   -0.7814 H   0  0  0  0  0  0  0  0  0  0  0  0
   -1.2673    1.0941   -2.2559 H   0  0  0  0  0  0  0  0  0  0  0  0
   -1.2841    2.1083   -0.8041 H   0  0  0  0  0  0  0  0  0  0  0  0
  1  2  1  0
  1  5  1  0
  1  6  1  0
  1  7  1  0
  2  3  1  0
  2  8  1  0
  2  9  1  0
  3  4  1  0
  3 10  1  0
  3 11  1  0
  4 25  1  0
 12 13  1  0
 12 18  1  0
 12 19  1  0
 12 20  1  0
 13 14  1  0
 13 21  1  0
 13 22  1  0
 14 15  1  0
 14 23  1  0
 14 24  1  0
 15 16  1  0
 16 17  1  0
 16 26  1  0
 17 27  1  0
 17 28  1  0
 17 29  1  0
M  RAD  1  16   2
M  END
>  <reaction>  (7) 
rmg_rxn_317

>  <mol_properties>  (7) 
{"2": {"label": "*4", "atom_type": "Cs"}, "3": {"label": "*3", "atom_type": "O2s"}, "14": {"label": "*0", "atom_type": "O2s"}, "15": {"label": "*1", "atom_type": "Cs"}, "24": {"label": "*2", "atom_type": "H0"}}

>  <type>  (7) 
unop_3

>  <geom_source>  (7) 
Heuristics

$$$$

     RDKit          3D

 29 27  0  0  0  0  0  0  0  0999 V2000
    1.3593   -0.6544    2.9234 C   0  0  0  0  0  0  0  0  0  0  0  0
    0.1073   -0.8746    2.0856 C   0  0  0  0  0  0  0  0  0  0  0  0
   -0.8646    0.2948    2.1389 C   0  0  0  0  0  0  0  0  0  0  0  0
   -0.3118    1.5040    1.6548 O   0  0  0  0  0  0  0  0  0  0  0  0
    1.1033   -0.5353    3.9787 H   0  0  0  0  0  0  0  0  0  0  0  0
    2.0460   -1.4977    2.8378 H   0  0  0  0  0  0  0  0  0  0  0  0
    1.8843    0.2475    2.6072 H   0  0  0  0  0  0  0  0  0  0  0  0
    0.3836   -1.0585    1.0408 H   0  0  0  0  0  0  0  0  0  0  0  0
   -0.4202   -1.7720    2.4229 H   0  0  0  0  0  0  0  0  0  0  0  0
   -1.7818    0.0429    1.5917 H   0  0  0  0  0  0  0  0  0  0  0  0
   -1.1472    0.4974    3.1744 H   0  0  0  0  0  0  0  0  0  0  0  0
    0.7909   -1.8771   -3.0428 C   0  0  0  0  0  0  0  0  0  0  0  0
    0.7909   -1.8771   -1.5199 C   0  0  0  0  0  0  0  0  0  0  0  0
    0.7909   -0.4840   -0.9243 C   0  0  0  0  0  0  0  0  0  0  0  0
   -0.3921    0.1796   -1.2919 O   0  0  0  0  0  0  0  0  0  0  0  0
   -0.4628    1.4976   -0.8111 C   0  0  0  0  0  3  0  0  0  0  0  0
   -1.7661    2.1154   -1.2619 C   0  0  0  0  0  0  0  0  0  0  0  0
    1.6730   -1.3628   -3.4324 H   0  0  0  0  0  0  0  0  0  0  0  0
   -0.0918   -1.3674   -3.4288 H   0  0  0  0  0  0  0  0  0  0  0  0
    0.7964   -2.8950   -3.4354 H   0  0  0  0  0  0  0  0  0  0  0  0
    1.6724   -2.4036   -1.1436 H   0  0  0  0  0  0  0  0  0  0  0  0
   -0.0835   -2.4151   -1.1446 H   0  0  0  0  0  0  0  0  0  0  0  0
    1.6651    0.0810   -1.2847 H   0  0  0  0  0  0  0  0  0  0  0  0
    0.8657   -0.5380    0.1717 H   0  0  0  0  0  0  0  0  0  0  0  0
   -0.3821    1.5010    0.5066 H   0  0  0  0  0  0  0  0  0  0  0  0
    0.3901    2.0806   -1.1889 H   0  0  0  0  0  0  0  0  0  0  0  0
   -2.6125    1.5460   -0.8762 H   0  0  0  0  0  0  0  0  0  0  0  0
   -1.8269    2.1273   -2.3507 H   0  0  0  0  0  0  0  0  0  0  0  0
   -1.8437    3.1414   -0.8988 H   0  0  0  0  0  0  0  0  0  0  0  0
  1  2  1  0
  1  5  1  0
  1  6  1  0
  1  7  1  0
  2  3  1  0
  2  8  1  0
  2  9  1  0
  3  4  1  0
  3 10  1  0
  3 11  1  0
  4 25  1  0
 12 13  1  0
 12 18  1  0
 12 19  1  0
 12 20  1  0
 13 14  1  0
 13 21  1  0
 13 22  1  0
 14 15  1  0
 14 23  1  0
 14 24  1  0
 15 16  1  0
 16 17  1  0
 16 26  1  0
 17 27  1  0
 17 28  1  0
 17 29  1  0
M  RAD  1  16   2
M  END
>  <reaction>  (8) 
rmg_rxn_317

>  <mol_properties>  (8) 
{"2": {"label": "*4", "atom_type": "Cs"}, "3": {"label": "*3", "atom_type": "O2s"}, "14": {"label": "*0", "atom_type": "O2s"}, "15": {"label": "*1", "atom_type": "Cs"}, "24": {"label": "*2", "atom_type": "H0"}}

>  <type>  (8) 
unop_4

>  <geom_source>  (8) 
Heuristics

$$$$

     RDKit          3D

 29 27  0  0  0  0  0  0  0  0999 V2000
   -1.9348    0.4953    3.4789 C   0  0  0  0  0  0  0  0  0  0  0  0
   -1.8138    1.5525    2.3901 C   0  0  0  0  0  0  0  0  0  0  0  0
   -0.3725    1.8883    2.0364 C   0  0  0  0  0  0  0  0  0  0  0  0
    0.3565    0.7784    1.5475 O   0  0  0  0  0  0  0  0  0  0  0  0
   -1.4793    0.8429    4.4090 H   0  0  0  0  0  0  0  0  0  0  0  0
   -2.9794    0.2576    3.6852 H   0  0  0  0  0  0  0  0  0  0  0  0
   -1.4267   -0.4239    3.1857 H   0  0  0  0  0  0  0  0  0  0  0  0
   -2.3323    1.2180    1.4841 H   0  0  0  0  0  0  0  0  0  0  0  0
   -2.3120    2.4753    2.7023 H   0  0  0  0  0  0  0  0  0  0  0  0
   -0.3482    2.7146    1.3149 H   0  0  0  0  0  0  0  0  0  0  0  0
    0.1630    2.2184    2.9294 H   0  0  0  0  0  0  0  0  0  0  0  0
    1.4592   -2.6027   -3.1500 C   0  0  0  0  0  0  0  0  0  0  0  0
    1.4592   -2.6027   -1.6271 C   0  0  0  0  0  0  0  0  0  0  0  0
    1.4592   -1.2097   -1.0316 C   0  0  0  0  0  0  0  0  0  0  0  0
    0.2762   -0.5461   -1.3992 O   0  0  0  0  0  0  0  0  0  0  0  0
    0.2055    0.7720   -0.9183 C   0  0  0  0  0  3  0  0  0  0  0  0
   -1.0978    1.3898   -1.3691 C   0  0  0  0  0  0  0  0  0  0  0  0
    2.3413   -2.0884   -3.5397 H   0  0  0  0  0  0  0  0  0  0  0  0
    0.5765   -2.0930   -3.5361 H   0  0  0  0  0  0  0  0  0  0  0  0
    1.4647   -3.6206   -3.5427 H   0  0  0  0  0  0  0  0  0  0  0  0
    2.3407   -3.1292   -1.2508 H   0  0  0  0  0  0  0  0  0  0  0  0
    0.5848   -3.1407   -1.2518 H   0  0  0  0  0  0  0  0  0  0  0  0
    2.3334   -0.6446   -1.3920 H   0  0  0  0  0  0  0  0  0  0  0  0
    1.5340   -1.2636    0.0644 H   0  0  0  0  0  0  0  0  0  0  0  0
    0.2862    0.7754    0.3994 H   0  0  0  0  0  0  0  0  0  0  0  0
    1.0584    1.3550   -1.2962 H   0  0  0  0  0  0  0  0  0  0  0  0
   -1.9442    0.8204   -0.9835 H   0  0  0  0  0  0  0  0  0  0  0  0
   -1.1586    1.4016   -2.4580 H   0  0  0  0  0  0  0  0  0  0  0  0
   -1.1754    2.4158   -1.0061 H   0  0  0  0  0  0  0  0  0  0  0  0
  1  2  1  0
  1  5  1  0
  1  6  1  0
  1  7  1  0
  2  3  1  0
  2  8  1  0
  2  9  1  0
  3  4  1  0
  3 10  1  0
  3 11  1  0
  4 25  1  0
 12 13  1  0
 12 18  1  0
 12 19  1  0
 12 20  1  0
 13 14  1  0
 13 21  1  0
 13 22  1  0
 14 15  1  0
 14 23  1  0
 14 24  1  0
 15 16  1  0
 16 17  1  0
 16 26  1  0
 17 27  1  0
 17 28  1  0
 17 29  1  0
M  RAD  1  16   2
M  END
>  <reaction>  (9) 
rmg_rxn_317

>  <mol_properties>  (9) 
{"2": {"label": "*4", "atom_type": "Cs"}, "3": {"label": "*3", "atom_type": "O2s"}, "14": {"label": "*0", "atom_type": "O2s"}, "15": {"label": "*1", "atom_type": "Cs"}, "24": {"label": "*2", "atom_type": "H0"}}

>  <type>  (9) 
unop_5

>  <geom_source>  (9) 
Heuristics

$$$$

     RDKit          3D

 29 27  0  0  0  0  0  0  0  0999 V2000
    0.3690   -0.8551    3.4380 C   0  0  0  0  0  0  0  0  0  0  0  0
   -0.7262   -0.7393    2.3868 C   0  0  0  0  0  0  0  0  0  0  0  0
   -1.1001    0.7001    2.0650 C   0  0  0  0  0  0  0  0  0  0  0  0
   -0.0209    1.4564    1.5498 O   0  0  0  0  0  0  0  0  0  0  0  0
    0.0444   -0.4189    4.3855 H   0  0  0  0  0  0  0  0  0  0  0  0
    0.6326   -1.8977    3.6214 H   0  0  0  0  0  0  0  0  0  0  0  0
    1.2683   -0.3258    3.1216 H   0  0  0  0  0  0  0  0  0  0  0  0
   -0.4128   -1.2391    1.4630 H   0  0  0  0  0  0  0  0  0  0  0  0
   -1.6287   -1.2590    2.7225 H   0  0  0  0  0  0  0  0  0  0  0  0
   -1.9505    0.7185    1.3718 H   0  0  0  0  0  0  0  0  0  0  0  0
   -1.4099    1.2171    2.9759 H   0  0  0  0  0  0  0  0  0  0  0  0
    1.0818   -1.9247   -3.1478 C   0  0  0  0  0  0  0  0  0  0  0  0
    1.0818   -1.9247   -1.6249 C   0  0  0  0  0  0  0  0  0  0  0  0
    1.0818   -0.5317   -1.0293 C   0  0  0  0  0  0  0  0  0  0  0  0
   -0.1012    0.1319   -1.3969 O   0  0  0  0  0  0  0  0  0  0  0  0
   -0.1719    1.4500   -0.9160 C   0  0  0  0  0  3  0  0  0  0  0  0
   -1.4752    2.0678   -1.3669 C   0  0  0  0  0  0  0  0  0  0  0  0
    1.9639   -1.4104   -3.5374 H   0  0  0  0  0  0  0  0  0  0  0  0
    0.1991   -1.4150   -3.5338 H   0  0  0  0  0  0  0  0  0  0  0  0
    1.0873   -2.9426   -3.5404 H   0  0  0  0  0  0  0  0  0  0  0  0
    1.9633   -2.4512   -1.2486 H   0  0  0  0  0  0  0  0  0  0  0  0
    0.2074   -2.4627   -1.2496 H   0  0  0  0  0  0  0  0  0  0  0  0
    1.9560    0.0334   -1.3897 H   0  0  0  0  0  0  0  0  0  0  0  0
    1.1566   -0.5856    0.0667 H   0  0  0  0  0  0  0  0  0  0  0  0
   -0.0912    1.4534    0.4017 H   0  0  0  0  0  0  0  0  0  0  0  0
    0.6810    2.0330   -1.2939 H   0  0  0  0  0  0  0  0  0  0  0  0
   -2.3216    1.4984   -0.9812 H   0  0  0  0  0  0  0  0  0  0  0  0
   -1.5360    2.0796   -2.4557 H   0  0  0  0  0  0  0  0  0  0  0  0
   -1.5528    3.0938   -1.0038 H   0  0  0  0  0  0  0  0  0  0  0  0
  1  2  1  0
  1  5  1  0
  1  6  1  0
  1  7  1  0
  2  3  1  0
  2  8  1  0
  2  9  1  0
  3  4  1  0
  3 10  1  0
  3 11  1  0
  4 25  1  0
 12 13  1  0
 12 18  1  0
 12 19  1  0
 12 20  1  0
 13 14  1  0
 13 21  1  0
 13 22  1  0
 14 15  1  0
 14 23  1  0
 14 24  1  0
 15 16  1  0
 16 17  1  0
 16 26  1  0
 17 27  1  0
 17 28  1  0
 17 29  1  0
M  RAD  1  16   2
M  END
>  <reaction>  (10) 
rmg_rxn_317

>  <mol_properties>  (10) 
{"2": {"label": "*4", "atom_type": "Cs"}, "3": {"label": "*3", "atom_type": "O2s"}, "14": {"label": "*0", "atom_type": "O2s"}, "15": {"label": "*1", "atom_type": "Cs"}, "24": {"label": "*2", "atom_type": "H0"}}

>  <type>  (10) 
unop_6

>  <geom_source>  (10) 
Heuristics

$$$$

     RDKit          3D

 29 27  0  0  0  0  0  0  0  0999 V2000
   -0.5164   -0.6330    3.7017 C   0  0  0  0  0  0  0  0  0  0  0  0
   -1.4306   -0.2027    2.5629 C   0  0  0  0  0  0  0  0  0  0  0  0
   -1.1051    1.1815    2.0214 C   0  0  0  0  0  0  0  0  0  0  0  0
    0.2040    1.2820    1.4939 O   0  0  0  0  0  0  0  0  0  0  0  0
   -0.6135    0.0441    4.5535 H   0  0  0  0  0  0  0  0  0  0  0  0
   -0.7583   -1.6401    4.0443 H   0  0  0  0  0  0  0  0  0  0  0  0
    0.5276   -0.6204    3.3873 H   0  0  0  0  0  0  0  0  0  0  0  0
   -1.3726   -0.9270    1.7422 H   0  0  0  0  0  0  0  0  0  0  0  0
   -2.4733   -0.2024    2.8948 H   0  0  0  0  0  0  0  0  0  0  0  0
   -1.8485    1.4718    1.2684 H   0  0  0  0  0  0  0  0  0  0  0  0
   -1.1520    1.9172    2.8274 H   0  0  0  0  0  0  0  0  0  0  0  0
    1.3067   -2.0991   -3.2037 C   0  0  0  0  0  0  0  0  0  0  0  0
    1.3067   -2.0991   -1.6808 C   0  0  0  0  0  0  0  0  0  0  0  0
    1.3067   -0.7061   -1.0852 C   0  0  0  0  0  0  0  0  0  0  0  0
    0.1237   -0.0425   -1.4528 O   0  0  0  0  0  0  0  0  0  0  0  0
    0.0530    1.2756   -0.9720 C   0  0  0  0  0  3  0  0  0  0  0  0
   -1.2503    1.8934   -1.4228 C   0  0  0  0  0  0  0  0  0  0  0  0
    2.1888   -1.5848   -3.5933 H   0  0  0  0  0  0  0  0  0  0  0  0
    0.4240   -1.5895   -3.5897 H   0  0  0  0  0  0  0  0  0  0  0  0
    1.3122   -3.1170   -3.5963 H   0  0  0  0  0  0  0  0  0  0  0  0
    2.1882   -2.6256   -1.3045 H   0  0  0  0  0  0  0  0  0  0  0  0
    0.4323   -2.6371   -1.3055 H   0  0  0  0  0  0  0  0  0  0  0  0
    2.1809   -0.1410   -1.4456 H   0  0  0  0  0  0  0  0  0  0  0  0
    1.3815   -0.7600    0.0108 H   0  0  0  0  0  0  0  0  0  0  0  0
    0.1337    1.2790    0.3457 H   0  0  0  0  0  0  0  0  0  0  0  0
    0.9058    1.8586   -1.3498 H   0  0  0  0  0  0  0  0  0  0  0  0
   -2.0967    1.3240   -1.0371 H   0  0  0  0  0  0  0  0  0  0  0  0
   -1.3111    1.9052   -2.5116 H   0  0  0  0  0  0  0  0  0  0  0  0
   -1.3279    2.9194   -1.0597 H   0  0  0  0  0  0  0  0  0  0  0  0
  1  2  1  0
  1  5  1  0
  1  6  1  0
  1  7  1  0
  2  3  1  0
  2  8  1  0
  2  9  1  0
  3  4  1  0
  3 10  1  0
  3 11  1  0
  4 25  1  0
 12 13  1  0
 12 18  1  0
 12 19  1  0
 12 20  1  0
 13 14  1  0
 13 21  1  0
 13 22  1  0
 14 15  1  0
 14 23  1  0
 14 24  1  0
 15 16  1  0
 16 17  1  0
 16 26  1  0
 17 27  1  0
 17 28  1  0
 17 29  1  0
M  RAD  1  16   2
M  END
>  <reaction>  (11) 
rmg_rxn_317

>  <mol_properties>  (11) 
{"2": {"label": "*4", "atom_type": "Cs"}, "3": {"label": "*3", "atom_type": "O2s"}, "14": {"label": "*0", "atom_type": "O2s"}, "15": {"label": "*1", "atom_type": "Cs"}, "24": {"label": "*2", "atom_type": "H0"}}

>  <type>  (11) 
unop_7

>  <geom_source>  (11) 
Heuristics

$$$$

     RDKit          3D

 29 27  0  0  0  0  0  0  0  0999 V2000
    0.1037    3.1392    0.8733 C   0  0  0  0  0  0  0  0  0  0  0  0
    1.1401    2.1084    1.2987 C   0  0  0  0  0  0  0  0  0  0  0  0
    0.6470    1.1792    2.3981 C   0  0  0  0  0  0  0  0  0  0  0  0
   -0.4868    0.4205    2.0224 O   0  0  0  0  0  0  0  0  0  0  0  0
   -0.1608    3.7907    1.7094 H   0  0  0  0  0  0  0  0  0  0  0  0
    0.4794    3.7674    0.0643 H   0  0  0  0  0  0  0  0  0  0  0  0
   -0.8104    2.6526    0.5318 H   0  0  0  0  0  0  0  0  0  0  0  0
    1.4448    1.5056    0.4353 H   0  0  0  0  0  0  0  0  0  0  0  0
    2.0459    2.6080    1.6554 H   0  0  0  0  0  0  0  0  0  0  0  0
    1.4622    0.5206    2.7233 H   0  0  0  0  0  0  0  0  0  0  0  0
    0.3327    1.7630    3.2661 H   0  0  0  0  0  0  0  0  0  0  0  0
    0.6159   -2.9606   -2.6752 C   0  0  0  0  0  0  0  0  0  0  0  0
    0.6159   -2.9606   -1.1523 C   0  0  0  0  0  0  0  0  0  0  0  0
    0.6159   -1.5676   -0.5568 C   0  0  0  0  0  0  0  0  0  0  0  0
   -0.5671   -0.9040   -0.9244 O   0  0  0  0  0  0  0  0  0  0  0  0
   -0.6378    0.4141   -0.4435 C   0  0  0  0  0  3  0  0  0  0  0  0
   -1.9411    1.0319   -0.8943 C   0  0  0  0  0  0  0  0  0  0  0  0
    1.4980   -2.4463   -3.0648 H   0  0  0  0  0  0  0  0  0  0  0  0
   -0.2668   -2.4509   -3.0613 H   0  0  0  0  0  0  0  0  0  0  0  0
    0.6214   -3.9785   -3.0679 H   0  0  0  0  0  0  0  0  0  0  0  0
    1.4975   -3.4871   -0.7760 H   0  0  0  0  0  0  0  0  0  0  0  0
   -0.2584   -3.4986   -0.7770 H   0  0  0  0  0  0  0  0  0  0  0  0
    1.4901   -1.0025   -0.9172 H   0  0  0  0  0  0  0  0  0  0  0  0
    0.6907   -1.6215    0.5393 H   0  0  0  0  0  0  0  0  0  0  0  0
   -0.5571    0.4175    0.8742 H   0  0  0  0  0  0  0  0  0  0  0  0
    0.2151    0.9971   -0.8214 H   0  0  0  0  0  0  0  0  0  0  0  0
   -2.7875    0.4625   -0.5086 H   0  0  0  0  0  0  0  0  0  0  0  0
   -2.0019    1.0437   -1.9831 H   0  0  0  0  0  0  0  0  0  0  0  0
   -2.0187    2.0579   -0.5313 H   0  0  0  0  0  0  0  0  0  0  0  0
  1  2  1  0
  1  5  1  0
  1  6  1  0
  1  7  1  0
  2  3  1  0
  2  8  1  0
  2  9  1  0
  3  4  1  0
  3 10  1  0
  3 11  1  0
  4 25  1  0
 12 13  1  0
 12 18  1  0
 12 19  1  0
 12 20  1  0
 13 14  1  0
 13 21  1  0
 13 22  1  0
 14 15  1  0
 14 23  1  0
 14 24  1  0
 15 16  1  0
 16 17  1  0
 16 26  1  0
 17 27  1  0
 17 28  1  0
 17 29  1  0
M  RAD  1  16   2
M  END
>  <reaction>  (12) 
rmg_rxn_317

>  <mol_properties>  (12) 
{"2": {"label": "*4", "atom_type": "Cs"}, "3": {"label": "*3", "atom_type": "O2s"}, "14": {"label": "*0", "atom_type": "O2s"}, "15": {"label": "*1", "atom_type": "Cs"}, "24": {"label": "*2", "atom_type": "H0"}}

>  <type>  (12) 
unop_8

>  <geom_source>  (12) 
Heuristics

$$$$

     RDKit          3D

 29 27  0  0  0  0  0  0  0  0999 V2000
    1.1587    2.6911    0.8193 C   0  0  0  0  0  0  0  0  0  0  0  0
    1.5476    1.2921    1.2771 C   0  0  0  0  0  0  0  0  0  0  0  0
    0.6655    0.7595    2.3967 C   0  0  0  0  0  0  0  0  0  0  0  0
   -0.6982    0.6567    2.0333 O   0  0  0  0  0  0  0  0  0  0  0  0
    1.2596    3.4084    1.6370 H   0  0  0  0  0  0  0  0  0  0  0  0
    1.7913    3.0283   -0.0030 H   0  0  0  0  0  0  0  0  0  0  0  0
    0.1212    2.7156    0.4847 H   0  0  0  0  0  0  0  0  0  0  0  0
    1.5056    0.5962    0.4313 H   0  0  0  0  0  0  0  0  0  0  0  0
    2.5844    1.2834    1.6267 H   0  0  0  0  0  0  0  0  0  0  0  0
    1.0470   -0.2090    2.7435 H   0  0  0  0  0  0  0  0  0  0  0  0
    0.6897    1.4439    3.2476 H   0  0  0  0  0  0  0  0  0  0  0  0
    0.4045   -2.7244   -2.6642 C   0  0  0  0  0  0  0  0  0  0  0  0
    0.4045   -2.7244   -1.1413 C   0  0  0  0  0  0  0  0  0  0  0  0
    0.4045   -1.3314   -0.5458 C   0  0  0  0  0  0  0  0  0  0  0  0
   -0.7785   -0.6678   -0.9134 O   0  0  0  0  0  0  0  0  0  0  0  0
   -0.8492    0.6503   -0.4325 C   0  0  0  0  0  3  0  0  0  0  0  0
   -2.1526    1.2681   -0.8833 C   0  0  0  0  0  0  0  0  0  0  0  0
    1.2865   -2.2101   -3.0538 H   0  0  0  0  0  0  0  0  0  0  0  0
   -0.4782   -2.2147   -3.0503 H   0  0  0  0  0  0  0  0  0  0  0  0
    0.4100   -3.7423   -3.0569 H   0  0  0  0  0  0  0  0  0  0  0  0
    1.2860   -3.2509   -0.7650 H   0  0  0  0  0  0  0  0  0  0  0  0
   -0.4699   -3.2624   -0.7660 H   0  0  0  0  0  0  0  0  0  0  0  0
    1.2787   -0.7663   -0.9062 H   0  0  0  0  0  0  0  0  0  0  0  0
    0.4793   -1.3853    0.5502 H   0  0  0  0  0  0  0  0  0  0  0  0
   -0.7685    0.6537    0.8852 H   0  0  0  0  0  0  0  0  0  0  0  0
    0.0036    1.2333   -0.8104 H   0  0  0  0  0  0  0  0  0  0  0  0
   -2.9989    0.6987   -0.4976 H   0  0  0  0  0  0  0  0  0  0  0  0
   -2.2134    1.2799   -1.9722 H   0  0  0  0  0  0  0  0  0  0  0  0
   -2.2302    2.2941   -0.5203 H   0  0  0  0  0  0  0  0  0  0  0  0
  1  2  1  0
  1  5  1  0
  1  6  1  0
  1  7  1  0
  2  3  1  0
  2  8  1  0
  2  9  1  0
  3  4  1  0
  3 10  1  0
  3 11  1  0
  4 25  1  0
 12 13  1  0
 12 18  1  0
 12 19  1  0
 12 20  1  0
 13 14  1  0
 13 21  1  0
 13 22  1  0
 14 15  1  0
 14 23  1  0
 14 24  1  0
 15 16  1  0
 16 17  1  0
 16 26  1  0
 17 27  1  0
 17 28  1  0
 17 29  1  0
M  RAD  1  16   2
M  END
>  <reaction>  (13) 
rmg_rxn_317

>  <mol_properties>  (13) 
{"2": {"label": "*4", "atom_type": "Cs"}, "3": {"label": "*3", "atom_type": "O2s"}, "14": {"label": "*0", "atom_type": "O2s"}, "15": {"label": "*1", "atom_type": "Cs"}, "24": {"label": "*2", "atom_type": "H0"}}

>  <type>  (13) 
unop_9

>  <geom_source>  (13) 
Heuristics

$$$$

     RDKit          3D

 29 27  0  0  0  0  0  0  0  0999 V2000
   -1.2314   -0.1801    3.7532 C   0  0  0  0  0  0  0  0  0  0  0  0
   -1.8214    0.6064    2.5907 C   0  0  0  0  0  0  0  0  0  0  0  0
   -0.8560    1.6252    2.0032 C   0  0  0  0  0  0  0  0  0  0  0  0
    0.3249    1.0426    1.4853 O   0  0  0  0  0  0  0  0  0  0  0  0
   -0.9712    0.4859    4.5792 H   0  0  0  0  0  0  0  0  0  0  0  0
   -1.9387   -0.9206    4.1292 H   0  0  0  0  0  0  0  0  0  0  0  0
   -0.3223   -0.6994    3.4487 H   0  0  0  0  0  0  0  0  0  0  0  0
   -2.1387   -0.0799    1.7971 H   0  0  0  0  0  0  0  0  0  0  0  0
   -2.7229    1.1369    2.9121 H   0  0  0  0  0  0  0  0  0  0  0  0
   -1.3637    2.2193    1.2330 H   0  0  0  0  0  0  0  0  0  0  0  0
   -0.5234    2.3154    2.7817 H   0  0  0  0  0  0  0  0  0  0  0  0
    1.4276   -2.3385   -3.2123 C   0  0  0  0  0  0  0  0  0  0  0  0
    1.4276   -2.3385   -1.6894 C   0  0  0  0  0  0  0  0  0  0  0  0
    1.4276   -0.9455   -1.0939 C   0  0  0  0  0  0  0  0  0  0  0  0
    0.2446   -0.2819   -1.4615 O   0  0  0  0  0  0  0  0  0  0  0  0
    0.1739    1.0362   -0.9806 C   0  0  0  0  0  3  0  0  0  0  0  0
   -1.1294    1.6540   -1.4314 C   0  0  0  0  0  0  0  0  0  0  0  0
    2.3097   -1.8242   -3.6019 H   0  0  0  0  0  0  0  0  0  0  0  0
    0.5449   -1.8289   -3.5984 H   0  0  0  0  0  0  0  0  0  0  0  0
    1.4331   -3.3564   -3.6050 H   0  0  0  0  0  0  0  0  0  0  0  0
    2.3092   -2.8650   -1.3131 H   0  0  0  0  0  0  0  0  0  0  0  0
    0.5533   -2.8765   -1.3141 H   0  0  0  0  0  0  0  0  0  0  0  0
    2.3018   -0.3804   -1.4543 H   0  0  0  0  0  0  0  0  0  0  0  0
    1.5024   -0.9994    0.0022 H   0  0  0  0  0  0  0  0  0  0  0  0
    0.2546    1.0396    0.3371 H   0  0  0  0  0  0  0  0  0  0  0  0
    1.0268    1.6192   -1.3585 H   0  0  0  0  0  0  0  0  0  0  0  0
   -1.9758    1.0846   -1.0457 H   0  0  0  0  0  0  0  0  0  0  0  0
   -1.1902    1.6658   -2.5202 H   0  0  0  0  0  0  0  0  0  0  0  0
   -1.2070    2.6800   -1.0684 H   0  0  0  0  0  0  0  0  0  0  0  0
  1  2  1  0
  1  5  1  0
  1  6  1  0
  1  7  1  0
  2  3  1  0
  2  8  1  0
  2  9  1  0
  3  4  1  0
  3 10  1  0
  3 11  1  0
  4 25  1  0
 12 13  1  0
 12 18  1  0
 12 19  1  0
 12 20  1  0
 13 14  1  0
 13 21  1  0
 13 22  1  0
 14 15  1  0
 14 23  1  0
 14 24  1  0
 15 16  1  0
 16 17  1  0
 16 26  1  0
 17 27  1  0
 17 28  1  0
 17 29  1  0
M  RAD  1  16   2
M  END
>  <reaction>  (14) 
rmg_rxn_317

>  <mol_properties>  (14) 
{"2": {"label": "*4", "atom_type": "Cs"}, "3": {"label": "*3", "atom_type": "O2s"}, "14": {"label": "*0", "atom_type": "O2s"}, "15": {"label": "*1", "atom_type": "Cs"}, "24": {"label": "*2", "atom_type": "H0"}}

>  <type>  (14) 
unop_10

>  <geom_source>  (14) 
Heuristics

$$$$

     RDKit          3D

 29 25  0  0  0  0  0  0  0  0999 V2000
    2.2385    1.0404    1.4539 C   0  0  0  0  0  3  0  0  0  0  0  0
    1.2767   -0.1398    1.4521 C   0  0  0  0  0  2  0  0  0  0  0  0
    0.0530    0.0812    2.3290 C   0  0  0  0  0  3  0  0  0  0  0  0
   -0.7305    1.1887    1.9270 O   0  0  0  0  0  0  0  0  0  0  0  0
    2.6279    1.2214    2.4584 H   0  0  0  0  0  0  0  0  0  0  0  0
    3.0871    0.8602    0.7924 H   0  0  0  0  0  0  0  0  0  0  0  0
    1.7363    1.9509    1.1253 H   0  0  0  0  0  0  0  0  0  0  0  0
    0.9458   -0.3515    0.4287 H   0  0  0  0  0  0  0  0  0  0  0  0
    1.7866   -1.0434    1.7997 H   0  0  0  0  0  0  0  0  0  0  0  0
   -0.5548   -0.8320    2.3582 H   0  0  0  0  0  0  0  0  0  0  0  0
    0.3633    0.2999    3.3532 H   0  0  0  0  0  0  0  0  0  0  0  0
    0.3722   -2.1924   -2.7706 C   0  0  0  0  0  0  0  0  0  0  0  0
    0.3722   -2.1924   -1.2476 C   0  0  0  0  0  0  0  0  0  0  0  0
    0.3722   -0.7994   -0.6521 C   0  0  0  0  0  0  0  0  0  0  0  0
   -0.8108   -0.1358   -1.0197 O   0  0  0  0  0  0  0  0  0  0  0  0
   -0.8815    1.1823   -0.5388 C   0  0  0  0  0  3  0  0  0  0  0  0
   -2.1848    1.8001   -0.9897 C   0  0  0  0  0  0  0  0  0  0  0  0
    1.2543   -1.6781   -3.1602 H   0  0  0  0  0  0  0  0  0  0  0  0
   -0.5105   -1.6827   -3.1566 H   0  0  0  0  0  0  0  0  0  0  0  0
    0.3777   -3.2103   -3.1632 H   0  0  0  0  0  0  0  0  0  0  0  0
    1.2537   -2.7189   -0.8714 H   0  0  0  0  0  0  0  0  0  0  0  0
   -0.5022   -2.7304   -0.8724 H   0  0  0  0  0  0  0  0  0  0  0  0
    1.2464   -0.2343   -1.0125 H   0  0  0  0  0  0  0  0  0  0  0  0
    0.4470   -0.8533    0.4439 H   0  0  0  0  0  0  0  0  0  0  0  0
   -0.8008    1.1857    0.7789 H   0  0  0  0  0  0  0  0  0  0  0  0
   -0.0286    1.7653   -0.9167 H   0  0  0  0  0  0  0  0  0  0  0  0
   -3.0312    1.2307   -0.6040 H   0  0  0  0  0  0  0  0  0  0  0  0
   -2.2456    1.8119   -2.0785 H   0  0  0  0  0  0  0  0  0  0  0  0
   -2.2624    2.8261   -0.6266 H   0  0  0  0  0  0  0  0  0  0  0  0
  1  5  1  0
  1  6  1  0
  1  7  1  0
  2  8  1  0
  2  9  1  0
  3  4  1  0
  3 10  1  0
  3 11  1  0
  4 25  1  0
 12 13  1  0
 12 18  1  0
 12 19  1  0
 12 20  1  0
 13 14  1  0
 13 21  1  0
 13 22  1  0
 14 15  1  0
 14 23  1  0
 14 24  1  0
 15 16  1  0
 16 17  1  0
 16 26  1  0
 17 27  1  0
 17 28  1  0
 17 29  1  0
M  RAD  4   1   2   2   3   3   2  16   2
M  END
>  <reaction>  (15) 
rmg_rxn_317

>  <mol_properties>  (15) 
{"2": {"label": "*4", "atom_type": "Cs"}, "3": {"label": "*3", "atom_type": "O2s"}, "14": {"label": "*0", "atom_type": "O2s"}, "15": {"label": "*1", "atom_type": "Cs"}, "24": {"label": "*2", "atom_type": "H0"}}

>  <type>  (15) 
unop_11

>  <geom_source>  (15) 
Heuristics

$$$$

     RDKit          3D

 29 25  0  0  0  0  0  0  0  0999 V2000
    1.5819    0.4780   -0.0855 O   0  0  0  0  0  1  0  0  0  0  0  0
   -1.4887    0.7136   -1.4596 O   0  0  0  0  0  0  0  0  0  0  0  0
   -3.1306   -0.3989   -0.0838 C   0  0  0  0  0  0  0  0  0  0  0  0
    2.2682    0.1468    2.1929 C   0  0  0  0  0  0  0  0  0  0  0  0
    1.3647   -0.3230    1.0519 C   0  0  0  0  0  0  0  0  0  0  0  0
   -2.5293   -0.2231   -1.4808 C   0  0  0  0  0  0  0  0  0  0  0  0
   -3.7797    0.8875    0.4222 C   0  0  0  0  0  0  0  0  0  0  0  0
    3.7469   -0.0552    1.8675 C   0  0  0  0  0  0  0  0  0  0  0  0
    1.5890   -0.3378   -2.3360 C   0  0  0  0  0  3  0  0  0  0  0  0
    0.7561   -0.0138   -1.1073 C   0  0  0  0  0  1  0  0  0  0  0  0
   -3.9009   -1.1992   -0.1213 H   0  0  0  0  0  0  0  0  0  0  0  0
   -2.3382   -0.7175    0.6276 H   0  0  0  0  0  0  0  0  0  0  0  0
    2.0207   -0.4282    3.1113 H   0  0  0  0  0  0  0  0  0  0  0  0
    2.0791    1.2230    2.3978 H   0  0  0  0  0  0  0  0  0  0  0  0
   -3.3129    0.1210   -2.1890 H   0  0  0  0  0  0  0  0  0  0  0  0
   -2.1468   -1.2012   -1.8470 H   0  0  0  0  0  0  0  0  0  0  0  0
    0.3068   -0.2322    1.3919 H   0  0  0  0  0  0  0  0  0  0  0  0
    1.5851   -1.3955    0.8364 H   0  0  0  0  0  0  0  0  0  0  0  0
   -3.0229    1.6954    0.5119 H   0  0  0  0  0  0  0  0  0  0  0  0
   -4.5843    1.2127   -0.2712 H   0  0  0  0  0  0  0  0  0  0  0  0
   -4.2253    0.7088    1.4234 H   0  0  0  0  0  0  0  0  0  0  0  0
    4.3646    0.2769    2.7283 H   0  0  0  0  0  0  0  0  0  0  0  0
    3.9566   -1.1288    1.6738 H   0  0  0  0  0  0  0  0  0  0  0  0
    4.0341    0.5415    0.9758 H   0  0  0  0  0  0  0  0  0  0  0  0
    0.9298   -0.7346   -3.1358 H   0  0  0  0  0  0  0  0  0  0  0  0
    2.0988    0.5777   -2.7038 H   0  0  0  0  0  0  0  0  0  0  0  0
    2.3492   -1.1060   -2.0816 H   0  0  0  0  0  0  0  0  0  0  0  0
   -0.0129    0.7466   -1.3609 H   0  0  0  0  0  0  0  0  0  0  0  0
   -0.5592    0.1656   -0.9491 H   0  0  0  0  0  0  0  0  0  0  0  0
  1  5  1  0
  2  6  1  0
  2 29  1  0
  3  7  1  0
  3  6  1  0
  3 11  1  0
  3 12  1  0
  4  8  1  0
  4  5  1  0
  4 13  1  0
  4 14  1  0
  5 17  1  0
  5 18  1  0
  6 15  1  0
  6 16  1  0
  7 19  1  0
  7 20  1  0
  7 21  1  0
  8 22  1  0
  8 23  1  0
  8 24  1  0
  9 25  1  0
  9 26  1  0
  9 27  1  0
 10 28  1  0
M  RAD  3   1   2   9   2  10   2
M  END
>  <reaction>  (16) 
rmg_rxn_317

>  <mol_properties>  (16) 
{"2": {"label": "*4", "atom_type": "Cs"}, "3": {"label": "*3", "atom_type": "O2s"}, "14": {"label": "*0", "atom_type": "O2s"}, "15": {"label": "*1", "atom_type": "Cs"}, "24": {"label": "*2", "atom_type": "H0"}}

>  <type>  (16) 
unop_12

>  <geom_source>  (16) 
AutoTST

$$$$

     RDKit          3D

 29 27  0  0  0  0  0  0  0  0999 V2000
    1.8737    1.9553    1.0013 C   0  0  0  0  0  0  0  0  0  0  0  0
    1.5437    0.5030    1.3173 C   0  0  0  0  0  0  0  0  0  0  0  0
    0.4628    0.3495    2.3772 C   0  0  0  0  0  0  0  0  0  0  0  0
   -0.7726    0.9298    2.0042 O   0  0  0  0  0  0  0  0  0  0  0  0
    2.2582    2.4668    1.8867 H   0  0  0  0  0  0  0  0  0  0  0  0
    2.6289    2.0279    0.2174 H   0  0  0  0  0  0  0  0  0  0  0  0
    0.9844    2.4922    0.6699 H   0  0  0  0  0  0  0  0  0  0  0  0
    1.2226   -0.0147    0.4060 H   0  0  0  0  0  0  0  0  0  0  0  0
    2.4391   -0.0210    1.6651 H   0  0  0  0  0  0  0  0  0  0  0  0
    0.3322   -0.7112    2.6258 H   0  0  0  0  0  0  0  0  0  0  0  0
    0.7627    0.8649    3.2923 H   0  0  0  0  0  0  0  0  0  0  0  0
    0.3301   -2.4514   -2.6934 C   0  0  0  0  0  0  0  0  0  0  0  0
    0.3301   -2.4514   -1.1704 C   0  0  0  0  0  0  0  0  0  0  0  0
    0.3301   -1.0583   -0.5749 C   0  0  0  0  0  0  0  0  0  0  0  0
   -0.8529   -0.3947   -0.9425 O   0  0  0  0  0  0  0  0  0  0  0  0
   -0.9236    0.9233   -0.4616 C   0  0  0  0  0  3  0  0  0  0  0  0
   -2.2270    1.5411   -0.9124 C   0  0  0  0  0  0  0  0  0  0  0  0
    1.2122   -1.9370   -3.0830 H   0  0  0  0  0  0  0  0  0  0  0  0
   -0.5526   -1.9417   -3.0794 H   0  0  0  0  0  0  0  0  0  0  0  0
    0.3356   -3.4692   -3.0860 H   0  0  0  0  0  0  0  0  0  0  0  0
    1.2116   -2.9778   -0.7942 H   0  0  0  0  0  0  0  0  0  0  0  0
   -0.5443   -2.9893   -0.7952 H   0  0  0  0  0  0  0  0  0  0  0  0
    1.2043   -0.4932   -0.9353 H   0  0  0  0  0  0  0  0  0  0  0  0
    0.4049   -1.1122    0.5211 H   0  0  0  0  0  0  0  0  0  0  0  0
   -0.8429    0.9268    0.8561 H   0  0  0  0  0  0  0  0  0  0  0  0
   -0.0708    1.5063   -0.8395 H   0  0  0  0  0  0  0  0  0  0  0  0
   -3.0733    0.9717   -0.5268 H   0  0  0  0  0  0  0  0  0  0  0  0
   -2.2878    1.5530   -2.0013 H   0  0  0  0  0  0  0  0  0  0  0  0
   -2.3046    2.5671   -0.5494 H   0  0  0  0  0  0  0  0  0  0  0  0
  1  2  1  0
  1  5  1  0
  1  6  1  0
  1  7  1  0
  2  3  1  0
  2  8  1  0
  2  9  1  0
  3  4  1  0
  3 10  1  0
  3 11  1  0
  4 25  1  0
 12 13  1  0
 12 18  1  0
 12 19  1  0
 12 20  1  0
 13 14  1  0
 13 21  1  0
 13 22  1  0
 14 15  1  0
 14 23  1  0
 14 24  1  0
 15 16  1  0
 16 17  1  0
 16 26  1  0
 17 27  1  0
 17 28  1  0
 17 29  1  0
M  RAD  1  16   2
M  END
>  <reaction>  (17) 
rmg_rxn_317

>  <mol_properties>  (17) 
{"2": {"label": "*4", "atom_type": "Cs"}, "3": {"label": "*3", "atom_type": "O2s"}, "14": {"label": "*0", "atom_type": "O2s"}, "15": {"label": "*1", "atom_type": "Cs"}, "24": {"label": "*2", "atom_type": "H0"}}

>  <type>  (17) 
unop_13

>  <geom_source>  (17) 
gaussian_log

$$$$
