
     RDKit          3D

  9  8  0  0  0  0  0  0  0  0999 V2000
   -1.0434   -0.0834    0.0221 C   0  0  0  0  0  0  0  0  0  0  0  0
    0.4680   -0.2131    0.0785 C   0  0  0  0  0  0  0  0  0  0  0  0
    0.9450   -1.3136   -0.7058 N   0  0  0  0  0  2  0  0  0  0  0  0
   -1.5170   -0.9919    0.3960 H   0  0  0  0  0  0  0  0  0  0  0  0
   -1.3864    0.7592    0.6249 H   0  0  0  0  0  0  0  0  0  0  0  0
   -1.3736    0.0696   -1.0061 H   0  0  0  0  0  0  0  0  0  0  0  0
    0.8045   -0.3309    1.1214 H   0  0  0  0  0  0  0  0  0  0  0  0
    0.9463    0.7186   -0.2648 H   0  0  0  0  0  0  0  0  0  0  0  0
    1.9638   -1.3321   -0.6157 H   0  0  0  0  0  0  0  0  0  0  0  0
  1  2  1  0
  1  4  1  0
  1  5  1  0
  1  6  1  0
  2  3  1  0
  2  7  1  0
  2  8  1  0
  3  9  1  0
M  RAD  1   3   2
M  END
>  <reaction>  (1) 
rmg_rxn_30

>  <mol_properties>  (1) 
{"2": {"label": "donator", "atom_type": "N3s"}, "8": {"label": "d_hydrogen", "atom_type": "H0"}}

>  <type>  (1) 
r1h

$$$$

     RDKit          3D

 13 12  0  0  0  0  0  0  0  0999 V2000
    2.0654   -0.2739   -0.0844 C   0  0  0  0  0  3  0  0  0  0  0  0
    0.6326   -0.4110   -0.4406 C   0  0  0  0  0  0  0  0  0  0  0  0
   -0.3055    0.4151    0.4359 C   0  0  0  0  0  0  0  0  0  0  0  0
   -1.7714    0.2357    0.0671 C   0  0  0  0  0  0  0  0  0  0  0  0
    2.3610    0.0676    0.8995 H   0  0  0  0  0  0  0  0  0  0  0  0
    2.8408   -0.6127   -0.7582 H   0  0  0  0  0  0  0  0  0  0  0  0
    0.3313   -1.4695   -0.3768 H   0  0  0  0  0  0  0  0  0  0  0  0
    0.4826   -0.1432   -1.4940 H   0  0  0  0  0  0  0  0  0  0  0  0
   -0.1518    0.1351    1.4826 H   0  0  0  0  0  0  0  0  0  0  0  0
   -0.0303    1.4705    0.3565 H   0  0  0  0  0  0  0  0  0  0  0  0
   -2.0768   -0.8084    0.1692 H   0  0  0  0  0  0  0  0  0  0  0  0
   -1.9546    0.5339   -0.9679 H   0  0  0  0  0  0  0  0  0  0  0  0
   -2.4194    0.8370    0.7066 H   0  0  0  0  0  0  0  0  0  0  0  0
  1  2  1  0
  1  5  1  0
  1  6  1  0
  2  3  1  0
  2  7  1  0
  2  8  1  0
  3  4  1  0
  3  9  1  0
  3 10  1  0
  4 11  1  0
  4 12  1  0
  4 13  1  0
M  RAD  1   1   2
M  END
>  <reaction>  (2) 
rmg_rxn_30

>  <mol_properties>  (2) 
{"0": {"label": "acceptor", "atom_type": "Cs"}}

>  <type>  (2) 
r2

$$$$

     RDKit          3D

 14 13  0  0  0  0  0  0  0  0999 V2000
    1.8106   -0.5953    0.5577 C   0  0  0  0  0  0  0  0  0  0  0  0
    0.5197    0.2064    0.6554 C   0  0  0  0  0  0  0  0  0  0  0  0
   -0.5206   -0.2080   -0.3788 C   0  0  0  0  0  0  0  0  0  0  0  0
   -1.8114    0.5937   -0.2812 C   0  0  0  0  0  0  0  0  0  0  0  0
    2.2725   -0.4752   -0.4251 H   0  0  0  0  0  0  0  0  0  0  0  0
    1.6214   -1.6612    0.7052 H   0  0  0  0  0  0  0  0  0  0  0  0
    2.5364   -0.2784    1.3084 H   0  0  0  0  0  0  0  0  0  0  0  0
    0.0930    0.0950    1.6574 H   0  0  0  0  0  0  0  0  0  0  0  0
    0.7393    1.2723    0.5354 H   0  0  0  0  0  0  0  0  0  0  0  0
   -0.7402   -1.2739   -0.2588 H   0  0  0  0  0  0  0  0  0  0  0  0
   -0.0938   -0.0965   -1.3808 H   0  0  0  0  0  0  0  0  0  0  0  0
   -1.6222    1.6596   -0.4287 H   0  0  0  0  0  0  0  0  0  0  0  0
   -2.2734    0.4736    0.7017 H   0  0  0  0  0  0  0  0  0  0  0  0
   -2.5373    0.2768   -1.0318 H   0  0  0  0  0  0  0  0  0  0  0  0
  1  2  1  0
  1  5  1  0
  1  6  1  0
  1  7  1  0
  2  3  1  0
  2  8  1  0
  2  9  1  0
  3  4  1  0
  3 10  1  0
  3 11  1  0
  4 12  1  0
  4 13  1  0
  4 14  1  0
M  END
>  <reaction>  (3) 
rmg_rxn_30

>  <mol_properties>  (3) 
{"0": {"label": "a_hydrogen", "atom_type": "H0"}, "1": {"label": "acceptor", "atom_type": "Cs"}}

>  <type>  (3) 
r2h

$$$$

     RDKit          3D

 22 20  0  0  0  0  0  0  0  0999 V2000
   -0.3323   -1.5470   -3.0903 C   0  0  0  0  0  0  0  0  0  0  0  0
   -0.4969   -1.4245   -1.5824 C   0  0  0  0  0  0  0  0  0  0  0  0
    0.7620   -1.3768   -0.9083 N   0  0  0  0  0  2  0  0  0  0  0  0
    0.2194   -2.4532   -3.3422 H   0  0  0  0  0  0  0  0  0  0  0  0
   -1.3054   -1.5858   -3.5833 H   0  0  0  0  0  0  0  0  0  0  0  0
    0.2208   -0.6938   -3.4846 H   0  0  0  0  0  0  0  0  0  0  0  0
   -1.0867   -2.2683   -1.1902 H   0  0  0  0  0  0  0  0  0  0  0  0
   -1.0827   -0.5263   -1.3299 H   0  0  0  0  0  0  0  0  0  0  0  0
    0.4921   -1.2539    0.2484 H   0  0  0  0  0  0  0  0  0  0  0  0
    0.0283   -1.0227    1.5697 C   0  0  0  0  0  3  0  0  0  0  0  0
    0.5294    0.3471    1.9251 C   0  0  0  0  0  0  0  0  0  0  0  0
   -0.0213    1.4480    1.0232 C   0  0  0  0  0  0  0  0  0  0  0  0
    0.4471    2.8375    1.4317 C   0  0  0  0  0  0  0  0  0  0  0  0
   -1.0526   -1.1179    1.4724 H   0  0  0  0  0  0  0  0  0  0  0  0
    0.4792   -1.8542    2.1064 H   0  0  0  0  0  0  0  0  0  0  0  0
    1.6232    0.3596    1.8877 H   0  0  0  0  0  0  0  0  0  0  0  0
    0.2628    0.5727    2.9672 H   0  0  0  0  0  0  0  0  0  0  0  0
    0.2832    1.2469   -0.0080 H   0  0  0  0  0  0  0  0  0  0  0  0
   -1.1155    1.4082    1.0373 H   0  0  0  0  0  0  0  0  0  0  0  0
    1.5368    2.9069    1.3996 H   0  0  0  0  0  0  0  0  0  0  0  0
    0.1299    3.0752    2.4498 H   0  0  0  0  0  0  0  0  0  0  0  0
    0.0446    3.6047    0.7686 H   0  0  0  0  0  0  0  0  0  0  0  0
  1  2  1  0
  1  4  1  0
  1  5  1  0
  1  6  1  0
  2  3  1  0
  2  7  1  0
  2  8  1  0
  3  9  1  0
 10 11  1  0
 10 14  1  0
 10 15  1  0
 11 12  1  0
 11 16  1  0
 11 17  1  0
 12 13  1  0
 12 18  1  0
 12 19  1  0
 13 20  1  0
 13 21  1  0
 13 22  1  0
M  RAD  2   3   2  10   2
M  END
>  <reaction>  (4) 
rmg_rxn_30

>  <mol_properties>  (4) 
{"1": {"label": "*0", "atom_type": "Cs"}, "2": {"label": "*1", "atom_type": "N3s"}, "8": {"label": "*2", "atom_type": "H0"}, "9": {"label": "*3", "atom_type": "Cs"}, "10": {"label": "*4", "atom_type": "Cs"}}

>  <type>  (4) 
ts

$$$$

     RDKit          3D

 22 20  0  0  0  0  0  0  0  0999 V2000
   -0.8913   -1.4907   -3.2011 C   0  0  0  0  0  0  0  0  0  0  0  0
   -0.8913   -1.4907   -1.6831 C   0  0  0  0  0  0  0  0  0  0  0  0
   -0.8913   -0.1632   -1.1434 N   0  0  0  0  0  2  0  0  0  0  0  0
   -0.0091   -0.9743   -3.5812 H   0  0  0  0  0  0  0  0  0  0  0  0
   -0.8913   -2.5096   -3.5922 H   0  0  0  0  0  0  0  0  0  0  0  0
   -1.7735   -0.9743   -3.5812 H   0  0  0  0  0  0  0  0  0  0  0  0
   -0.0191   -2.0444   -1.2992 H   0  0  0  0  0  0  0  0  0  0  0  0
   -1.7635   -2.0444   -1.2992 H   0  0  0  0  0  0  0  0  0  0  0  0
   -0.8913   -0.2667    0.0799 H   0  0  0  0  0  0  0  0  0  0  0  0
   -0.8913   -0.3773    1.3863 C   0  0  0  0  0  3  0  0  0  0  0  0
    0.3399    0.2850    1.9897 C   0  0  0  0  0  0  0  0  0  0  0  0
    0.9900    1.3001    1.0567 C   0  0  0  0  0  0  0  0  0  0  0  0
    2.2211    1.9624    1.6601 C   0  0  0  0  0  0  0  0  0  0  0  0
   -1.6545    0.3651    1.1412 H   0  0  0  0  0  0  0  0  0  0  0  0
   -1.3359   -1.0981    2.0744 H   0  0  0  0  0  0  0  0  0  0  0  0
    1.0761   -0.4807    2.2549 H   0  0  0  0  0  0  0  0  0  0  0  0
    0.0676    0.7823    2.9263 H   0  0  0  0  0  0  0  0  0  0  0  0
    1.2622    0.8029    0.1201 H   0  0  0  0  0  0  0  0  0  0  0  0
    0.2538    2.0658    0.7915 H   0  0  0  0  0  0  0  0  0  0  0  0
    2.9844    1.2200    1.9052 H   0  0  0  0  0  0  0  0  0  0  0  0
    1.9685    2.4923    2.5816 H   0  0  0  0  0  0  0  0  0  0  0  0
    2.6658    2.6832    0.9721 H   0  0  0  0  0  0  0  0  0  0  0  0
  1  2  1  0
  1  4  1  0
  1  5  1  0
  1  6  1  0
  2  3  1  0
  2  7  1  0
  2  8  1  0
  3  9  1  0
 10 11  1  0
 10 14  1  0
 10 15  1  0
 11 12  1  0
 11 16  1  0
 11 17  1  0
 12 13  1  0
 12 18  1  0
 12 19  1  0
 13 20  1  0
 13 21  1  0
 13 22  1  0
M  RAD  2   3   2  10   2
M  END
>  <reaction>  (5) 
rmg_rxn_30

>  <mol_properties>  (5) 
{"1": {"label": "*0", "atom_type": "Cs"}, "2": {"label": "*1", "atom_type": "N3s"}, "8": {"label": "*2", "atom_type": "H0"}, "9": {"label": "*3", "atom_type": "Cs"}, "10": {"label": "*4", "atom_type": "Cs"}}

>  <type>  (5) 
unop_1

>  <geom_source>  (5) 
Heuristics

$$$$

     RDKit          3D

 22 20  0  0  0  0  0  0  0  0999 V2000
   -0.7772   -0.0040   -3.1497 C   0  0  0  0  0  0  0  0  0  0  0  0
   -0.7772   -0.0040   -1.6317 C   0  0  0  0  0  0  0  0  0  0  0  0
   -0.7772    1.3236   -1.0919 N   0  0  0  0  0  2  0  0  0  0  0  0
    0.1051    0.5125   -3.5297 H   0  0  0  0  0  0  0  0  0  0  0  0
   -0.7772   -1.0229   -3.5408 H   0  0  0  0  0  0  0  0  0  0  0  0
   -1.6594    0.5125   -3.5297 H   0  0  0  0  0  0  0  0  0  0  0  0
    0.0951   -0.5577   -1.2478 H   0  0  0  0  0  0  0  0  0  0  0  0
   -1.6494   -0.5577   -1.2478 H   0  0  0  0  0  0  0  0  0  0  0  0
   -0.7772    1.2200    0.1313 H   0  0  0  0  0  0  0  0  0  0  0  0
   -0.7772    1.1094    1.4377 C   0  0  0  0  0  3  0  0  0  0  0  0
   -0.0663   -0.1634    1.8774 C   0  0  0  0  0  0  0  0  0  0  0  0
    1.2084   -0.4386    1.0883 C   0  0  0  0  0  0  0  0  0  0  0  0
    1.9193   -1.7114    1.5279 C   0  0  0  0  0  0  0  0  0  0  0  0
   -0.1307    1.9815    1.5618 H   0  0  0  0  0  0  0  0  0  0  0  0
   -1.6850    1.2819    2.0182 H   0  0  0  0  0  0  0  0  0  0  0  0
   -0.7437   -1.0171    1.7730 H   0  0  0  0  0  0  0  0  0  0  0  0
    0.1786   -0.0981    2.9424 H   0  0  0  0  0  0  0  0  0  0  0  0
    0.9635   -0.5039    0.0232 H   0  0  0  0  0  0  0  0  0  0  0  0
    1.8858    0.4151    1.1926 H   0  0  0  0  0  0  0  0  0  0  0  0
    1.2728   -2.5835    1.4039 H   0  0  0  0  0  0  0  0  0  0  0  0
    2.2020   -1.6577    2.5819 H   0  0  0  0  0  0  0  0  0  0  0  0
    2.8271   -1.8839    0.9475 H   0  0  0  0  0  0  0  0  0  0  0  0
  1  2  1  0
  1  4  1  0
  1  5  1  0
  1  6  1  0
  2  3  1  0
  2  7  1  0
  2  8  1  0
  3  9  1  0
 10 11  1  0
 10 14  1  0
 10 15  1  0
 11 12  1  0
 11 16  1  0
 11 17  1  0
 12 13  1  0
 12 18  1  0
 12 19  1  0
 13 20  1  0
 13 21  1  0
 13 22  1  0
M  RAD  2   3   2  10   2
M  END
>  <reaction>  (6) 
rmg_rxn_30

>  <mol_properties>  (6) 
{"1": {"label": "*0", "atom_type": "Cs"}, "2": {"label": "*1", "atom_type": "N3s"}, "8": {"label": "*2", "atom_type": "H0"}, "9": {"label": "*3", "atom_type": "Cs"}, "10": {"label": "*4", "atom_type": "Cs"}}

>  <type>  (6) 
unop_2

>  <geom_source>  (6) 
Heuristics

$$$$

     RDKit          3D

 22 20  0  0  0  0  0  0  0  0999 V2000
   -0.3659   -1.8642   -3.2649 C   0  0  0  0  0  0  0  0  0  0  0  0
   -0.3659   -1.8642   -1.7469 C   0  0  0  0  0  0  0  0  0  0  0  0
   -0.3659   -0.5366   -1.2072 N   0  0  0  0  0  2  0  0  0  0  0  0
    0.5163   -1.3477   -3.6450 H   0  0  0  0  0  0  0  0  0  0  0  0
   -0.3659   -2.8830   -3.6560 H   0  0  0  0  0  0  0  0  0  0  0  0
   -1.2482   -1.3477   -3.6450 H   0  0  0  0  0  0  0  0  0  0  0  0
    0.5063   -2.4179   -1.3630 H   0  0  0  0  0  0  0  0  0  0  0  0
   -1.2382   -2.4179   -1.3630 H   0  0  0  0  0  0  0  0  0  0  0  0
   -0.3659   -0.6401    0.0160 H   0  0  0  0  0  0  0  0  0  0  0  0
   -0.3659   -0.7507    1.3225 C   0  0  0  0  0  3  0  0  0  0  0  0
    0.3449    0.4301    1.9698 C   0  0  0  0  0  0  0  0  0  0  0  0
    0.2114    1.7200    1.1686 C   0  0  0  0  0  0  0  0  0  0  0  0
    0.9223    2.9008    1.8159 C   0  0  0  0  0  0  0  0  0  0  0  0
   -1.4348   -0.5522    1.2134 H   0  0  0  0  0  0  0  0  0  0  0  0
   -0.2544   -1.6595    1.9161 H   0  0  0  0  0  0  0  0  0  0  0  0
    1.4067    0.1952    2.0964 H   0  0  0  0  0  0  0  0  0  0  0  0
   -0.0530    0.5911    2.9770 H   0  0  0  0  0  0  0  0  0  0  0  0
    0.6093    1.5589    0.1615 H   0  0  0  0  0  0  0  0  0  0  0  0
   -0.8504    1.9549    1.0421 H   0  0  0  0  0  0  0  0  0  0  0  0
    1.9911    2.7022    1.9250 H   0  0  0  0  0  0  0  0  0  0  0  0
    0.5207    3.1011    2.8121 H   0  0  0  0  0  0  0  0  0  0  0  0
    0.8107    3.8096    1.2224 H   0  0  0  0  0  0  0  0  0  0  0  0
  1  2  1  0
  1  4  1  0
  1  5  1  0
  1  6  1  0
  2  3  1  0
  2  7  1  0
  2  8  1  0
  3  9  1  0
 10 11  1  0
 10 14  1  0
 10 15  1  0
 11 12  1  0
 11 16  1  0
 11 17  1  0
 12 13  1  0
 12 18  1  0
 12 19  1  0
 13 20  1  0
 13 21  1  0
 13 22  1  0
M  RAD  2   3   2  10   2
M  END
>  <reaction>  (7) 
rmg_rxn_30

>  <mol_properties>  (7) 
{"1": {"label": "*0", "atom_type": "Cs"}, "2": {"label": "*1", "atom_type": "N3s"}, "8": {"label": "*2", "atom_type": "H0"}, "9": {"label": "*3", "atom_type": "Cs"}, "10": {"label": "*4", "atom_type": "Cs"}}

>  <type>  (7) 
unop_3

>  <geom_source>  (7) 
Heuristics

$$$$

     RDKit          3D

 22 20  0  0  0  0  0  0  0  0999 V2000
    0.6445    0.0475   -3.4356 C   0  0  0  0  0  0  0  0  0  0  0  0
    0.6445    0.0475   -1.9176 C   0  0  0  0  0  0  0  0  0  0  0  0
    0.6445    1.3751   -1.3779 N   0  0  0  0  0  2  0  0  0  0  0  0
    1.5267    0.5640   -3.8157 H   0  0  0  0  0  0  0  0  0  0  0  0
    0.6445   -0.9714   -3.8267 H   0  0  0  0  0  0  0  0  0  0  0  0
   -0.2377    0.5640   -3.8157 H   0  0  0  0  0  0  0  0  0  0  0  0
    1.5167   -0.5062   -1.5337 H   0  0  0  0  0  0  0  0  0  0  0  0
   -0.2277   -0.5062   -1.5337 H   0  0  0  0  0  0  0  0  0  0  0  0
    0.6445    1.2715   -0.1547 H   0  0  0  0  0  0  0  0  0  0  0  0
    0.6445    1.1610    1.1518 C   0  0  0  0  0  3  0  0  0  0  0  0
   -0.5867    0.4067    1.6353 C   0  0  0  0  0  0  0  0  0  0  0  0
   -0.3576   -1.0955    1.7566 C   0  0  0  0  0  0  0  0  0  0  0  0
   -1.5888   -1.8498    2.2401 C   0  0  0  0  0  0  0  0  0  0  0  0
    1.4837    1.0206    1.8372 H   0  0  0  0  0  0  0  0  0  0  0  0
    0.4528    2.2324    1.0742 H   0  0  0  0  0  0  0  0  0  0  0  0
   -1.4210    0.5877    0.9500 H   0  0  0  0  0  0  0  0  0  0  0  0
   -0.9007    0.8008    2.6073 H   0  0  0  0  0  0  0  0  0  0  0  0
   -0.0436   -1.4896    0.7846 H   0  0  0  0  0  0  0  0  0  0  0  0
    0.4767   -1.2765    2.4419 H   0  0  0  0  0  0  0  0  0  0  0  0
   -2.4280   -1.7094    1.5546 H   0  0  0  0  0  0  0  0  0  0  0  0
   -1.9038   -1.4947    3.2242 H   0  0  0  0  0  0  0  0  0  0  0  0
   -1.3971   -2.9212    2.3177 H   0  0  0  0  0  0  0  0  0  0  0  0
  1  2  1  0
  1  4  1  0
  1  5  1  0
  1  6  1  0
  2  3  1  0
  2  7  1  0
  2  8  1  0
  3  9  1  0
 10 11  1  0
 10 14  1  0
 10 15  1  0
 11 12  1  0
 11 16  1  0
 11 17  1  0
 12 13  1  0
 12 18  1  0
 12 19  1  0
 13 20  1  0
 13 21  1  0
 13 22  1  0
M  RAD  2   3   2  10   2
M  END
>  <reaction>  (8) 
rmg_rxn_30

>  <mol_properties>  (8) 
{"1": {"label": "*0", "atom_type": "Cs"}, "2": {"label": "*1", "atom_type": "N3s"}, "8": {"label": "*2", "atom_type": "H0"}, "9": {"label": "*3", "atom_type": "Cs"}, "10": {"label": "*4", "atom_type": "Cs"}}

>  <type>  (8) 
unop_4

>  <geom_source>  (8) 
Heuristics

$$$$

     RDKit          3D

 22 20  0  0  0  0  0  0  0  0999 V2000
    0.3480   -1.8425   -3.3975 C   0  0  0  0  0  0  0  0  0  0  0  0
    0.3480   -1.8425   -1.8795 C   0  0  0  0  0  0  0  0  0  0  0  0
    0.3480   -0.5150   -1.3397 N   0  0  0  0  0  2  0  0  0  0  0  0
    1.2302   -1.3261   -3.7775 H   0  0  0  0  0  0  0  0  0  0  0  0
    0.3480   -2.8614   -3.7885 H   0  0  0  0  0  0  0  0  0  0  0  0
   -0.5342   -1.3261   -3.7775 H   0  0  0  0  0  0  0  0  0  0  0  0
    1.2202   -2.3962   -1.4956 H   0  0  0  0  0  0  0  0  0  0  0  0
   -0.5242   -2.3962   -1.4956 H   0  0  0  0  0  0  0  0  0  0  0  0
    0.3480   -0.6185   -0.1165 H   0  0  0  0  0  0  0  0  0  0  0  0
    0.3480   -0.7291    1.1900 C   0  0  0  0  0  3  0  0  0  0  0  0
    0.3480    0.6415    1.8533 C   0  0  0  0  0  0  0  0  0  0  0  0
   -0.8638    1.4867    1.4784 C   0  0  0  0  0  0  0  0  0  0  0  0
   -0.8638    2.8573    2.1417 C   0  0  0  0  0  0  0  0  0  0  0  0
   -0.5392   -1.3007    1.4726 H   0  0  0  0  0  0  0  0  0  0  0  0
    1.2252   -1.3120    1.4753 H   0  0  0  0  0  0  0  0  0  0  0  0
    1.2601    1.1819    1.5800 H   0  0  0  0  0  0  0  0  0  0  0  0
    0.3794    0.5230    2.9413 H   0  0  0  0  0  0  0  0  0  0  0  0
   -0.8952    1.6052    0.3904 H   0  0  0  0  0  0  0  0  0  0  0  0
   -1.7759    0.9463    1.7517 H   0  0  0  0  0  0  0  0  0  0  0  0
    0.0234    3.4289    1.8591 H   0  0  0  0  0  0  0  0  0  0  0  0
   -0.8638    2.7651    3.2305 H   0  0  0  0  0  0  0  0  0  0  0  0
   -1.7410    3.4402    1.8564 H   0  0  0  0  0  0  0  0  0  0  0  0
  1  2  1  0
  1  4  1  0
  1  5  1  0
  1  6  1  0
  2  3  1  0
  2  7  1  0
  2  8  1  0
  3  9  1  0
 10 11  1  0
 10 14  1  0
 10 15  1  0
 11 12  1  0
 11 16  1  0
 11 17  1  0
 12 13  1  0
 12 18  1  0
 12 19  1  0
 13 20  1  0
 13 21  1  0
 13 22  1  0
M  RAD  2   3   2  10   2
M  END
>  <reaction>  (9) 
rmg_rxn_30

>  <mol_properties>  (9) 
{"1": {"label": "*0", "atom_type": "Cs"}, "2": {"label": "*1", "atom_type": "N3s"}, "8": {"label": "*2", "atom_type": "H0"}, "9": {"label": "*3", "atom_type": "Cs"}, "10": {"label": "*4", "atom_type": "Cs"}}

>  <type>  (9) 
unop_5

>  <geom_source>  (9) 
Heuristics

$$$$

     RDKit          3D

 22 20  0  0  0  0  0  0  0  0999 V2000
    0.9549   -0.3863   -3.5212 C   0  0  0  0  0  0  0  0  0  0  0  0
    0.9549   -0.3863   -2.0032 C   0  0  0  0  0  0  0  0  0  0  0  0
    0.9549    0.9412   -1.4634 N   0  0  0  0  0  2  0  0  0  0  0  0
    1.8371    0.1301   -3.9012 H   0  0  0  0  0  0  0  0  0  0  0  0
    0.9549   -1.4052   -3.9123 H   0  0  0  0  0  0  0  0  0  0  0  0
    0.0726    0.1301   -3.9012 H   0  0  0  0  0  0  0  0  0  0  0  0
    1.8271   -0.9400   -1.6193 H   0  0  0  0  0  0  0  0  0  0  0  0
    0.0826   -0.9400   -1.6193 H   0  0  0  0  0  0  0  0  0  0  0  0
    0.9549    0.8377   -0.2402 H   0  0  0  0  0  0  0  0  0  0  0  0
    0.9549    0.7271    1.0662 C   0  0  0  0  0  3  0  0  0  0  0  0
   -0.4668    0.6811    1.6097 C   0  0  0  0  0  0  0  0  0  0  0  0
   -0.9457   -0.7343    1.9109 C   0  0  0  0  0  0  0  0  0  0  0  0
   -2.3673   -0.7803    2.4544 C   0  0  0  0  0  0  0  0  0  0  0  0
    1.6610    0.2967    1.7803 H   0  0  0  0  0  0  0  0  0  0  0  0
    1.2716    1.7507    0.8596 H   0  0  0  0  0  0  0  0  0  0  0  0
   -1.1500    1.1451    0.8910 H   0  0  0  0  0  0  0  0  0  0  0  0
   -0.5309    1.2828    2.5221 H   0  0  0  0  0  0  0  0  0  0  0  0
   -0.8816   -1.3360    0.9985 H   0  0  0  0  0  0  0  0  0  0  0  0
   -0.2625   -1.1983    2.6296 H   0  0  0  0  0  0  0  0  0  0  0  0
   -3.0734   -0.3499    1.7403 H   0  0  0  0  0  0  0  0  0  0  0  0
   -2.4497   -0.2113    3.3835 H   0  0  0  0  0  0  0  0  0  0  0  0
   -2.6841   -1.8039    2.6610 H   0  0  0  0  0  0  0  0  0  0  0  0
  1  2  1  0
  1  4  1  0
  1  5  1  0
  1  6  1  0
  2  3  1  0
  2  7  1  0
  2  8  1  0
  3  9  1  0
 10 11  1  0
 10 14  1  0
 10 15  1  0
 11 12  1  0
 11 16  1  0
 11 17  1  0
 12 13  1  0
 12 18  1  0
 12 19  1  0
 13 20  1  0
 13 21  1  0
 13 22  1  0
M  RAD  2   3   2  10   2
M  END
>  <reaction>  (10) 
rmg_rxn_30

>  <mol_properties>  (10) 
{"1": {"label": "*0", "atom_type": "Cs"}, "2": {"label": "*1", "atom_type": "N3s"}, "8": {"label": "*2", "atom_type": "H0"}, "9": {"label": "*3", "atom_type": "Cs"}, "10": {"label": "*4", "atom_type": "Cs"}}

>  <type>  (10) 
unop_6

>  <geom_source>  (10) 
Heuristics

$$$$

     RDKit          3D

 22 20  0  0  0  0  0  0  0  0999 V2000
    1.0215   -0.9140   -3.5684 C   0  0  0  0  0  0  0  0  0  0  0  0
    1.0215   -0.9140   -2.0504 C   0  0  0  0  0  0  0  0  0  0  0  0
    1.0215    0.4135   -1.5107 N   0  0  0  0  0  2  0  0  0  0  0  0
    1.9037   -0.3976   -3.9485 H   0  0  0  0  0  0  0  0  0  0  0  0
    1.0215   -1.9329   -3.9595 H   0  0  0  0  0  0  0  0  0  0  0  0
    0.1393   -0.3976   -3.9485 H   0  0  0  0  0  0  0  0  0  0  0  0
    1.8937   -1.4677   -1.6665 H   0  0  0  0  0  0  0  0  0  0  0  0
    0.1493   -1.4677   -1.6665 H   0  0  0  0  0  0  0  0  0  0  0  0
    1.0215    0.3100   -0.2875 H   0  0  0  0  0  0  0  0  0  0  0  0
    1.0215    0.1994    1.0190 C   0  0  0  0  0  3  0  0  0  0  0  0
   -0.2097    0.8617    1.6224 C   0  0  0  0  0  0  0  0  0  0  0  0
   -1.3131   -0.1314    1.9685 C   0  0  0  0  0  0  0  0  0  0  0  0
   -2.5443    0.5309    2.5719 C   0  0  0  0  0  0  0  0  0  0  0  0
    1.4528   -0.5284    1.7103 H   0  0  0  0  0  0  0  0  0  0  0  0
    1.7943    0.9322    0.7812 H   0  0  0  0  0  0  0  0  0  0  0  0
   -0.6047    1.6074    0.9249 H   0  0  0  0  0  0  0  0  0  0  0  0
    0.0743    1.4109    2.5259 H   0  0  0  0  0  0  0  0  0  0  0  0
   -1.5971   -0.6806    1.0650 H   0  0  0  0  0  0  0  0  0  0  0  0
   -0.9181   -0.8771    2.6660 H   0  0  0  0  0  0  0  0  0  0  0  0
   -2.9757    1.2588    1.8806 H   0  0  0  0  0  0  0  0  0  0  0  0
   -2.2916    1.0608    3.4934 H   0  0  0  0  0  0  0  0  0  0  0  0
   -3.3171   -0.2019    2.8097 H   0  0  0  0  0  0  0  0  0  0  0  0
  1  2  1  0
  1  4  1  0
  1  5  1  0
  1  6  1  0
  2  3  1  0
  2  7  1  0
  2  8  1  0
  3  9  1  0
 10 11  1  0
 10 14  1  0
 10 15  1  0
 11 12  1  0
 11 16  1  0
 11 17  1  0
 12 13  1  0
 12 18  1  0
 12 19  1  0
 13 20  1  0
 13 21  1  0
 13 22  1  0
M  RAD  2   3   2  10   2
M  END
>  <reaction>  (11) 
rmg_rxn_30

>  <mol_properties>  (11) 
{"1": {"label": "*0", "atom_type": "Cs"}, "2": {"label": "*1", "atom_type": "N3s"}, "8": {"label": "*2", "atom_type": "H0"}, "9": {"label": "*3", "atom_type": "Cs"}, "10": {"label": "*4", "atom_type": "Cs"}}

>  <type>  (11) 
unop_7

>  <geom_source>  (11) 
Heuristics

$$$$

     RDKit          3D

 22 20  0  0  0  0  0  0  0  0999 V2000
   -1.1126   -0.9581   -3.1570 C   0  0  0  0  0  0  0  0  0  0  0  0
   -1.1126   -0.9581   -1.6390 C   0  0  0  0  0  0  0  0  0  0  0  0
   -1.1126    0.3694   -1.0992 N   0  0  0  0  0  2  0  0  0  0  0  0
   -0.2304   -0.4416   -3.5370 H   0  0  0  0  0  0  0  0  0  0  0  0
   -1.1126   -1.9770   -3.5481 H   0  0  0  0  0  0  0  0  0  0  0  0
   -1.9948   -0.4416   -3.5370 H   0  0  0  0  0  0  0  0  0  0  0  0
   -0.2404   -1.5118   -1.2551 H   0  0  0  0  0  0  0  0  0  0  0  0
   -1.9848   -1.5118   -1.2551 H   0  0  0  0  0  0  0  0  0  0  0  0
   -1.1126    0.2659    0.1240 H   0  0  0  0  0  0  0  0  0  0  0  0
   -1.1126    0.1553    1.4304 C   0  0  0  0  0  3  0  0  0  0  0  0
    0.3091    0.1093    1.9739 C   0  0  0  0  0  0  0  0  0  0  0  0
    1.3372    0.6850    1.0069 C   0  0  0  0  0  0  0  0  0  0  0  0
    2.7588    0.6390    1.5504 C   0  0  0  0  0  0  0  0  0  0  0  0
   -1.4166    1.1827    1.2161 H   0  0  0  0  0  0  0  0  0  0  0  0
   -1.8269   -0.2623    2.1418 H   0  0  0  0  0  0  0  0  0  0  0  0
    0.5789   -0.9252    2.2097 H   0  0  0  0  0  0  0  0  0  0  0  0
    0.3589    0.6595    2.9191 H   0  0  0  0  0  0  0  0  0  0  0  0
    1.2873    0.1349    0.0617 H   0  0  0  0  0  0  0  0  0  0  0  0
    1.0674    1.7195    0.7711 H   0  0  0  0  0  0  0  0  0  0  0  0
    3.0628   -0.3884    1.7647 H   0  0  0  0  0  0  0  0  0  0  0  0
    2.8413    1.2080    2.4795 H   0  0  0  0  0  0  0  0  0  0  0  0
    3.4731    1.0566    0.8390 H   0  0  0  0  0  0  0  0  0  0  0  0
  1  2  1  0
  1  4  1  0
  1  5  1  0
  1  6  1  0
  2  3  1  0
  2  7  1  0
  2  8  1  0
  3  9  1  0
 10 11  1  0
 10 14  1  0
 10 15  1  0
 11 12  1  0
 11 16  1  0
 11 17  1  0
 12 13  1  0
 12 18  1  0
 12 19  1  0
 13 20  1  0
 13 21  1  0
 13 22  1  0
M  RAD  2   3   2  10   2
M  END
>  <reaction>  (12) 
rmg_rxn_30

>  <mol_properties>  (12) 
{"1": {"label": "*0", "atom_type": "Cs"}, "2": {"label": "*1", "atom_type": "N3s"}, "8": {"label": "*2", "atom_type": "H0"}, "9": {"label": "*3", "atom_type": "Cs"}, "10": {"label": "*4", "atom_type": "Cs"}}

>  <type>  (12) 
unop_8

>  <geom_source>  (12) 
Heuristics

$$$$

     RDKit          3D

 22 20  0  0  0  0  0  0  0  0999 V2000
    0.1654    0.2760   -3.3280 C   0  0  0  0  0  0  0  0  0  0  0  0
    0.1654    0.2760   -1.8101 C   0  0  0  0  0  0  0  0  0  0  0  0
    0.1654    1.6036   -1.2703 N   0  0  0  0  0  2  0  0  0  0  0  0
    1.0477    0.7925   -3.7081 H   0  0  0  0  0  0  0  0  0  0  0  0
    0.1654   -0.7429   -3.7191 H   0  0  0  0  0  0  0  0  0  0  0  0
   -0.7168    0.7925   -3.7081 H   0  0  0  0  0  0  0  0  0  0  0  0
    1.0377   -0.2777   -1.4261 H   0  0  0  0  0  0  0  0  0  0  0  0
   -0.7068   -0.2777   -1.4261 H   0  0  0  0  0  0  0  0  0  0  0  0
    0.1654    1.5001   -0.0471 H   0  0  0  0  0  0  0  0  0  0  0  0
    0.1654    1.3895    1.2594 C   0  0  0  0  0  3  0  0  0  0  0  0
   -0.5454    0.1167    1.6990 C   0  0  0  0  0  0  0  0  0  0  0  0
    0.3100   -1.1337    1.5310 C   0  0  0  0  0  0  0  0  0  0  0  0
   -0.4008   -2.4065    1.9707 C   0  0  0  0  0  0  0  0  0  0  0  0
    1.0786    1.5476    1.8381 H   0  0  0  0  0  0  0  0  0  0  0  0
   -0.4687    2.2678    1.3902 H   0  0  0  0  0  0  0  0  0  0  0  0
   -1.4713   -0.0032    1.1272 H   0  0  0  0  0  0  0  0  0  0  0  0
   -0.8455    0.2072    2.7480 H   0  0  0  0  0  0  0  0  0  0  0  0
    0.6101   -1.2243    0.4820 H   0  0  0  0  0  0  0  0  0  0  0  0
    1.2359   -1.0139    2.1028 H   0  0  0  0  0  0  0  0  0  0  0  0
   -1.3139   -2.5647    1.3919 H   0  0  0  0  0  0  0  0  0  0  0  0
   -0.6835   -2.3528    3.0247 H   0  0  0  0  0  0  0  0  0  0  0  0
    0.2334   -3.2849    1.8398 H   0  0  0  0  0  0  0  0  0  0  0  0
  1  2  1  0
  1  4  1  0
  1  5  1  0
  1  6  1  0
  2  3  1  0
  2  7  1  0
  2  8  1  0
  3  9  1  0
 10 11  1  0
 10 14  1  0
 10 15  1  0
 11 12  1  0
 11 16  1  0
 11 17  1  0
 12 13  1  0
 12 18  1  0
 12 19  1  0
 13 20  1  0
 13 21  1  0
 13 22  1  0
M  RAD  2   3   2  10   2
M  END
>  <reaction>  (13) 
rmg_rxn_30

>  <mol_properties>  (13) 
{"1": {"label": "*0", "atom_type": "Cs"}, "2": {"label": "*1", "atom_type": "N3s"}, "8": {"label": "*2", "atom_type": "H0"}, "9": {"label": "*3", "atom_type": "Cs"}, "10": {"label": "*4", "atom_type": "Cs"}}

>  <type>  (13) 
unop_9

>  <geom_source>  (13) 
Heuristics

$$$$

     RDKit          3D

 22 20  0  0  0  0  0  0  0  0999 V2000
   -1.0540   -0.4272   -3.1333 C   0  0  0  0  0  0  0  0  0  0  0  0
   -1.0540   -0.4272   -1.6153 C   0  0  0  0  0  0  0  0  0  0  0  0
   -1.0540    0.9004   -1.0755 N   0  0  0  0  0  2  0  0  0  0  0  0
   -0.1718    0.0893   -3.5133 H   0  0  0  0  0  0  0  0  0  0  0  0
   -1.0540   -1.4461   -3.5243 H   0  0  0  0  0  0  0  0  0  0  0  0
   -1.9363    0.0893   -3.5133 H   0  0  0  0  0  0  0  0  0  0  0  0
   -0.1818   -0.9809   -1.2314 H   0  0  0  0  0  0  0  0  0  0  0  0
   -1.9263   -0.9809   -1.2314 H   0  0  0  0  0  0  0  0  0  0  0  0
   -1.0540    0.7969    0.1477 H   0  0  0  0  0  0  0  0  0  0  0  0
   -1.0540    0.6863    1.4541 C   0  0  0  0  0  3  0  0  0  0  0  0
    0.1772   -0.0680    1.9377 C   0  0  0  0  0  0  0  0  0  0  0  0
    1.3742    0.0828    1.0061 C   0  0  0  0  0  0  0  0  0  0  0  0
    2.6054   -0.6715    1.4896 C   0  0  0  0  0  0  0  0  0  0  0  0
   -0.8491    1.7561    1.3688 H   0  0  0  0  0  0  0  0  0  0  0  0
   -1.8946    0.5612    2.1386 H   0  0  0  0  0  0  0  0  0  0  0  0
   -0.0619   -1.1310    2.0447 H   0  0  0  0  0  0  0  0  0  0  0  0
    0.4543    0.2833    2.9369 H   0  0  0  0  0  0  0  0  0  0  0  0
    1.0971   -0.2685    0.0069 H   0  0  0  0  0  0  0  0  0  0  0  0
    1.6132    1.1458    0.8991 H   0  0  0  0  0  0  0  0  0  0  0  0
    2.4005   -1.7413    1.5750 H   0  0  0  0  0  0  0  0  0  0  0  0
    2.9204   -0.3165    2.4737 H   0  0  0  0  0  0  0  0  0  0  0  0
    3.4460   -0.5465    0.8051 H   0  0  0  0  0  0  0  0  0  0  0  0
  1  2  1  0
  1  4  1  0
  1  5  1  0
  1  6  1  0
  2  3  1  0
  2  7  1  0
  2  8  1  0
  3  9  1  0
 10 11  1  0
 10 14  1  0
 10 15  1  0
 11 12  1  0
 11 16  1  0
 11 17  1  0
 12 13  1  0
 12 18  1  0
 12 19  1  0
 13 20  1  0
 13 21  1  0
 13 22  1  0
M  RAD  2   3   2  10   2
M  END
>  <reaction>  (14) 
rmg_rxn_30

>  <mol_properties>  (14) 
{"1": {"label": "*0", "atom_type": "Cs"}, "2": {"label": "*1", "atom_type": "N3s"}, "8": {"label": "*2", "atom_type": "H0"}, "9": {"label": "*3", "atom_type": "Cs"}, "10": {"label": "*4", "atom_type": "Cs"}}

>  <type>  (14) 
unop_10

>  <geom_source>  (14) 
Heuristics

$$$$

     RDKit          3D

 22 20  0  0  0  0  0  0  0  0999 V2000
    0.8349   -1.4304   -3.5412 C   0  0  0  0  0  0  0  0  0  0  0  0
    0.8349   -1.4304   -2.0232 C   0  0  0  0  0  0  0  0  0  0  0  0
    0.8349   -0.1028   -1.4835 N   0  0  0  0  0  2  0  0  0  0  0  0
    1.7171   -0.9139   -3.9213 H   0  0  0  0  0  0  0  0  0  0  0  0
    0.8349   -2.4493   -3.9323 H   0  0  0  0  0  0  0  0  0  0  0  0
   -0.0473   -0.9139   -3.9213 H   0  0  0  0  0  0  0  0  0  0  0  0
    1.7071   -1.9841   -1.6393 H   0  0  0  0  0  0  0  0  0  0  0  0
   -0.0373   -1.9841   -1.6393 H   0  0  0  0  0  0  0  0  0  0  0  0
    0.8349   -0.2063   -0.2603 H   0  0  0  0  0  0  0  0  0  0  0  0
    0.8349   -0.3169    1.0462 C   0  0  0  0  0  3  0  0  0  0  0  0
    0.1241    0.8639    1.6935 C   0  0  0  0  0  0  0  0  0  0  0  0
   -1.3756    0.6432    1.8545 C   0  0  0  0  0  0  0  0  0  0  0  0
   -2.0864    1.8240    2.5018 C   0  0  0  0  0  0  0  0  0  0  0  0
    0.7082   -1.2243    1.6415 H   0  0  0  0  0  0  0  0  0  0  0  0
    1.9055   -0.1324    0.9433 H   0  0  0  0  0  0  0  0  0  0  0  0
    0.2914    1.7658    1.0960 H   0  0  0  0  0  0  0  0  0  0  0  0
    0.5642    1.0640    2.6758 H   0  0  0  0  0  0  0  0  0  0  0  0
   -1.8157    0.4431    0.8722 H   0  0  0  0  0  0  0  0  0  0  0  0
   -1.5429   -0.2587    2.4520 H   0  0  0  0  0  0  0  0  0  0  0  0
   -1.9596    2.7314    1.9064 H   0  0  0  0  0  0  0  0  0  0  0  0
   -1.6848    2.0244    3.4980 H   0  0  0  0  0  0  0  0  0  0  0  0
   -3.1569    1.6395    2.6047 H   0  0  0  0  0  0  0  0  0  0  0  0
  1  2  1  0
  1  4  1  0
  1  5  1  0
  1  6  1  0
  2  3  1  0
  2  7  1  0
  2  8  1  0
  3  9  1  0
 10 11  1  0
 10 14  1  0
 10 15  1  0
 11 12  1  0
 11 16  1  0
 11 17  1  0
 12 13  1  0
 12 18  1  0
 12 19  1  0
 13 20  1  0
 13 21  1  0
 13 22  1  0
M  RAD  2   3   2  10   2
M  END
>  <reaction>  (15) 
rmg_rxn_30

>  <mol_properties>  (15) 
{"1": {"label": "*0", "atom_type": "Cs"}, "2": {"label": "*1", "atom_type": "N3s"}, "8": {"label": "*2", "atom_type": "H0"}, "9": {"label": "*3", "atom_type": "Cs"}, "10": {"label": "*4", "atom_type": "Cs"}}

>  <type>  (15) 
unop_11

>  <geom_source>  (15) 
Heuristics

$$$$

     RDKit          3D

 22 20  0  0  0  0  0  0  0  0999 V2000
   -0.3480    0.2486   -3.2205 C   0  0  0  0  0  0  0  0  0  0  0  0
   -0.3480    0.2486   -1.7025 C   0  0  0  0  0  0  0  0  0  0  0  0
   -0.3480    1.5761   -1.1627 N   0  0  0  0  0  2  0  0  0  0  0  0
    0.5342    0.7650   -3.6005 H   0  0  0  0  0  0  0  0  0  0  0  0
   -0.3480   -0.7703   -3.6115 H   0  0  0  0  0  0  0  0  0  0  0  0
   -1.2302    0.7650   -3.6005 H   0  0  0  0  0  0  0  0  0  0  0  0
    0.5242   -0.3051   -1.3186 H   0  0  0  0  0  0  0  0  0  0  0  0
   -1.2202   -0.3051   -1.3186 H   0  0  0  0  0  0  0  0  0  0  0  0
   -0.3480    1.4726    0.0605 H   0  0  0  0  0  0  0  0  0  0  0  0
   -0.3480    1.3620    1.3669 C   0  0  0  0  0  3  0  0  0  0  0  0
   -0.3480   -0.1006    1.7905 C   0  0  0  0  0  0  0  0  0  0  0  0
    0.8638   -0.8707    1.2788 C   0  0  0  0  0  0  0  0  0  0  0  0
    0.8638   -2.3333    1.7024 C   0  0  0  0  0  0  0  0  0  0  0  0
    0.5392    1.8780    1.7416 H   0  0  0  0  0  0  0  0  0  0  0  0
   -1.2252    1.8887    1.7462 H   0  0  0  0  0  0  0  0  0  0  0  0
   -1.2601   -0.5873    1.4303 H   0  0  0  0  0  0  0  0  0  0  0  0
   -0.3794   -0.1666    2.8829 H   0  0  0  0  0  0  0  0  0  0  0  0
    0.8952   -0.8047    0.1865 H   0  0  0  0  0  0  0  0  0  0  0  0
    1.7759   -0.3840    1.6391 H   0  0  0  0  0  0  0  0  0  0  0  0
   -0.0234   -2.8493    1.3277 H   0  0  0  0  0  0  0  0  0  0  0  0
    0.8638   -2.4254    2.7911 H   0  0  0  0  0  0  0  0  0  0  0  0
    1.7411   -2.8600    1.3231 H   0  0  0  0  0  0  0  0  0  0  0  0
  1  2  1  0
  1  4  1  0
  1  5  1  0
  1  6  1  0
  2  3  1  0
  2  7  1  0
  2  8  1  0
  3  9  1  0
 10 11  1  0
 10 14  1  0
 10 15  1  0
 11 12  1  0
 11 16  1  0
 11 17  1  0
 12 13  1  0
 12 18  1  0
 12 19  1  0
 13 20  1  0
 13 21  1  0
 13 22  1  0
M  RAD  2   3   2  10   2
M  END
>  <reaction>  (16) 
rmg_rxn_30

>  <mol_properties>  (16) 
{"1": {"label": "*0", "atom_type": "Cs"}, "2": {"label": "*1", "atom_type": "N3s"}, "8": {"label": "*2", "atom_type": "H0"}, "9": {"label": "*3", "atom_type": "Cs"}, "10": {"label": "*4", "atom_type": "Cs"}}

>  <type>  (16) 
unop_12

>  <geom_source>  (16) 
Heuristics

$$$$

     RDKit          3D

 22 20  0  0  0  0  0  0  0  0999 V2000
   -0.7772   -0.0040   -3.1497 C   0  0  0  0  0  0  0  0  0  0  0  0
   -0.7772   -0.0040   -1.6317 C   0  0  0  0  0  0  0  0  0  0  0  0
   -0.7772    1.3236   -1.0919 N   0  0  0  0  0  2  0  0  0  0  0  0
    0.1051    0.5125   -3.5297 H   0  0  0  0  0  0  0  0  0  0  0  0
   -0.7772   -1.0229   -3.5408 H   0  0  0  0  0  0  0  0  0  0  0  0
   -1.6594    0.5125   -3.5297 H   0  0  0  0  0  0  0  0  0  0  0  0
    0.0951   -0.5577   -1.2478 H   0  0  0  0  0  0  0  0  0  0  0  0
   -1.6494   -0.5577   -1.2478 H   0  0  0  0  0  0  0  0  0  0  0  0
   -0.7772    1.2200    0.1313 H   0  0  0  0  0  0  0  0  0  0  0  0
   -0.7772    1.1095    1.4377 C   0  0  0  0  0  3  0  0  0  0  0  0
   -0.0663   -0.1634    1.8774 C   0  0  0  0  0  0  0  0  0  0  0  0
    1.2085   -0.4386    1.0883 C   0  0  0  0  0  0  0  0  0  0  0  0
    1.9193   -1.7114    1.5279 C   0  0  0  0  0  0  0  0  0  0  0  0
   -0.1307    1.9815    1.5618 H   0  0  0  0  0  0  0  0  0  0  0  0
   -1.6849    1.2819    2.0181 H   0  0  0  0  0  0  0  0  0  0  0  0
   -0.7437   -1.0171    1.7730 H   0  0  0  0  0  0  0  0  0  0  0  0
    0.1786   -0.0981    2.9424 H   0  0  0  0  0  0  0  0  0  0  0  0
    0.9635   -0.5039    0.0232 H   0  0  0  0  0  0  0  0  0  0  0  0
    1.8858    0.4151    1.1926 H   0  0  0  0  0  0  0  0  0  0  0  0
    1.2728   -2.5835    1.4039 H   0  0  0  0  0  0  0  0  0  0  0  0
    2.2020   -1.6577    2.5819 H   0  0  0  0  0  0  0  0  0  0  0  0
    2.8271   -1.8839    0.9475 H   0  0  0  0  0  0  0  0  0  0  0  0
  1  2  1  0
  1  4  1  0
  1  5  1  0
  1  6  1  0
  2  3  1  0
  2  7  1  0
  2  8  1  0
  3  9  1  0
 10 11  1  0
 10 14  1  0
 10 15  1  0
 11 12  1  0
 11 16  1  0
 11 17  1  0
 12 13  1  0
 12 18  1  0
 12 19  1  0
 13 20  1  0
 13 21  1  0
 13 22  1  0
M  RAD  2   3   2  10   2
M  END
>  <reaction>  (17) 
rmg_rxn_30

>  <mol_properties>  (17) 
{"1": {"label": "*0", "atom_type": "Cs"}, "2": {"label": "*1", "atom_type": "N3s"}, "8": {"label": "*2", "atom_type": "H0"}, "9": {"label": "*3", "atom_type": "Cs"}, "10": {"label": "*4", "atom_type": "Cs"}}

>  <type>  (17) 
unop_13

>  <geom_source>  (17) 
gaussian_log

$$$$
