
     RDKit          3D

 18 17  0  0  0  0  0  0  0  0999 V2000
    2.2026   -0.7213   -0.2612 C   0  0  0  0  0  0  0  0  0  0  0  0
    1.5384    0.2638    0.6915 C   0  0  0  0  0  0  0  0  0  0  0  0
    2.2584    1.5946    0.7694 C   0  0  0  0  0  0  0  0  0  0  0  0
    2.2212    2.2185   -0.4893 O   0  0  0  0  0  0  0  0  0  0  0  0
    2.8988    3.4488   -0.5204 C   0  0  0  0  0  0  0  0  0  0  0  0
    2.7981    4.0296   -1.9118 C   0  0  0  0  0  0  0  0  0  0  0  0
    3.2294   -0.9309    0.0486 H   0  0  0  0  0  0  0  0  0  0  0  0
    2.2338   -0.3181   -1.2734 H   0  0  0  0  0  0  0  0  0  0  0  0
    1.6610   -1.6680   -0.2875 H   0  0  0  0  0  0  0  0  0  0  0  0
    1.4990   -0.1566    1.7002 H   0  0  0  0  0  0  0  0  0  0  0  0
    0.5055    0.4455    0.3835 H   0  0  0  0  0  0  0  0  0  0  0  0
    3.3038    1.4410    1.0808 H   0  0  0  0  0  0  0  0  0  0  0  0
    1.7844    2.2410    1.5226 H   0  0  0  0  0  0  0  0  0  0  0  0
    2.4596    4.1376    0.2164 H   0  0  0  0  0  0  0  0  0  0  0  0
    3.9524    3.3035   -0.2397 H   0  0  0  0  0  0  0  0  0  0  0  0
    1.7543    4.1869   -2.1856 H   0  0  0  0  0  0  0  0  0  0  0  0
    3.2472    3.3545   -2.6411 H   0  0  0  0  0  0  0  0  0  0  0  0
    3.3178    4.9878   -1.9600 H   0  0  0  0  0  0  0  0  0  0  0  0
  1  2  1  0
  1  7  1  0
  1  8  1  0
  1  9  1  0
  2  3  1  0
  2 10  1  0
  2 11  1  0
  3  4  1  0
  3 12  1  0
  3 13  1  0
  4  5  1  0
  5  6  1  0
  5 14  1  0
  5 15  1  0
  6 16  1  0
  6 17  1  0
  6 18  1  0
M  END
>  <reaction>  (1) 
rmg_rxn_224

>  <mol_properties>  (1) 
{"1": {"label": "donator", "atom_type": "Cs"}, "9": {"label": "d_hydrogen", "atom_type": "H0"}}

>  <type>  (1) 
r1h

$$$$

     RDKit          3D

 17 16  0  0  0  0  0  0  0  0999 V2000
    3.3619    0.3511   -1.0290 C   0  0  0  0  0  3  0  0  0  0  0  0
    2.1806    1.0643   -0.5073 C   0  0  0  0  0  0  0  0  0  0  0  0
    1.4028    0.1998    0.2757 O   0  0  0  0  0  0  0  0  0  0  0  0
    0.2433    0.8081    0.7885 C   0  0  0  0  0  0  0  0  0  0  0  0
   -0.5040   -0.1878    1.6510 C   0  0  0  0  0  0  0  0  0  0  0  0
    0.2852   -0.6298    2.8762 C   0  0  0  0  0  0  0  0  0  0  0  0
    4.1174    0.8902   -1.5820 H   0  0  0  0  0  0  0  0  0  0  0  0
    3.4399   -0.7198   -0.9141 H   0  0  0  0  0  0  0  0  0  0  0  0
    1.5724    1.4684   -1.3398 H   0  0  0  0  0  0  0  0  0  0  0  0
    2.4896    1.9442    0.0856 H   0  0  0  0  0  0  0  0  0  0  0  0
    0.5169    1.6937    1.3835 H   0  0  0  0  0  0  0  0  0  0  0  0
   -0.3954    1.1528   -0.0379 H   0  0  0  0  0  0  0  0  0  0  0  0
   -0.7611   -1.0545    1.0367 H   0  0  0  0  0  0  0  0  0  0  0  0
   -1.4466    0.2743    1.9571 H   0  0  0  0  0  0  0  0  0  0  0  0
    0.5263    0.2245    3.5136 H   0  0  0  0  0  0  0  0  0  0  0  0
    1.2220   -1.1033    2.5825 H   0  0  0  0  0  0  0  0  0  0  0  0
   -0.2849   -1.3427    3.4737 H   0  0  0  0  0  0  0  0  0  0  0  0
  1  2  1  0
  1  7  1  0
  1  8  1  0
  2  3  1  0
  2  9  1  0
  2 10  1  0
  3  4  1  0
  4  5  1  0
  4 11  1  0
  4 12  1  0
  5  6  1  0
  5 13  1  0
  5 14  1  0
  6 15  1  0
  6 16  1  0
  6 17  1  0
M  RAD  1   1   2
M  END
>  <reaction>  (2) 
rmg_rxn_224

>  <mol_properties>  (2) 
{"0": {"label": "acceptor", "atom_type": "Cs"}}

>  <type>  (2) 
r2

$$$$

     RDKit          3D

 18 17  0  0  0  0  0  0  0  0999 V2000
    2.2026   -0.7213   -0.2612 C   0  0  0  0  0  0  0  0  0  0  0  0
    1.5384    0.2638    0.6915 C   0  0  0  0  0  0  0  0  0  0  0  0
    2.2584    1.5946    0.7694 C   0  0  0  0  0  0  0  0  0  0  0  0
    2.2212    2.2185   -0.4893 O   0  0  0  0  0  0  0  0  0  0  0  0
    2.8988    3.4488   -0.5204 C   0  0  0  0  0  0  0  0  0  0  0  0
    2.7981    4.0296   -1.9118 C   0  0  0  0  0  0  0  0  0  0  0  0
    3.2294   -0.9309    0.0486 H   0  0  0  0  0  0  0  0  0  0  0  0
    2.2338   -0.3181   -1.2734 H   0  0  0  0  0  0  0  0  0  0  0  0
    1.6610   -1.6680   -0.2875 H   0  0  0  0  0  0  0  0  0  0  0  0
    1.4990   -0.1566    1.7002 H   0  0  0  0  0  0  0  0  0  0  0  0
    0.5055    0.4455    0.3835 H   0  0  0  0  0  0  0  0  0  0  0  0
    3.3038    1.4410    1.0808 H   0  0  0  0  0  0  0  0  0  0  0  0
    1.7844    2.2410    1.5226 H   0  0  0  0  0  0  0  0  0  0  0  0
    2.4596    4.1376    0.2164 H   0  0  0  0  0  0  0  0  0  0  0  0
    3.9524    3.3035   -0.2397 H   0  0  0  0  0  0  0  0  0  0  0  0
    1.7543    4.1869   -2.1856 H   0  0  0  0  0  0  0  0  0  0  0  0
    3.2472    3.3545   -2.6411 H   0  0  0  0  0  0  0  0  0  0  0  0
    3.3178    4.9878   -1.9600 H   0  0  0  0  0  0  0  0  0  0  0  0
  1  2  1  0
  1  7  1  0
  1  8  1  0
  1  9  1  0
  2  3  1  0
  2 10  1  0
  2 11  1  0
  3  4  1  0
  3 12  1  0
  3 13  1  0
  4  5  1  0
  5  6  1  0
  5 14  1  0
  5 15  1  0
  6 16  1  0
  6 17  1  0
  6 18  1  0
M  END
>  <reaction>  (3) 
rmg_rxn_224

>  <mol_properties>  (3) 
{"0": {"label": "acceptor", "atom_type": "Cs"}, "17": {"label": "a_hydrogen", "atom_type": "H0"}}

>  <type>  (3) 
r2h

$$$$

     RDKit          3D

 35 33  0  0  0  0  0  0  0  0999 V2000
    0.5699   -0.5111    0.8445 C   0  0  0  0  0  3  0  0  0  0  0  0
    1.4777   -0.9768   -0.2510 C   0  0  0  0  0  0  0  0  0  0  0  0
    2.6910   -1.4394    0.2995 O   0  0  0  0  0  0  0  0  0  0  0  0
    3.6005   -1.8909   -0.6738 C   0  0  0  0  0  0  0  0  0  0  0  0
    4.8511   -2.4052    0.0094 C   0  0  0  0  0  0  0  0  0  0  0  0
    4.5922   -3.6105    0.9034 C   0  0  0  0  0  0  0  0  0  0  0  0
    0.2392   -1.2951    1.5218 H   0  0  0  0  0  0  0  0  0  0  0  0
    0.9133    0.3770    1.3704 H   0  0  0  0  0  0  0  0  0  0  0  0
    1.6782   -0.1559   -0.9551 H   0  0  0  0  0  0  0  0  0  0  0  0
    0.9994   -1.7849   -0.8245 H   0  0  0  0  0  0  0  0  0  0  0  0
    3.1405   -2.6923   -1.2736 H   0  0  0  0  0  0  0  0  0  0  0  0
    3.8514   -1.0704   -1.3619 H   0  0  0  0  0  0  0  0  0  0  0  0
    5.2870   -1.5910    0.5941 H   0  0  0  0  0  0  0  0  0  0  0  0
    5.5771   -2.6617   -0.7672 H   0  0  0  0  0  0  0  0  0  0  0  0
    4.1776   -4.4413    0.3269 H   0  0  0  0  0  0  0  0  0  0  0  0
    3.8810   -3.3613    1.6909 H   0  0  0  0  0  0  0  0  0  0  0  0
    5.5143   -3.9563    1.3729 H   0  0  0  0  0  0  0  0  0  0  0  0
   -1.1682    0.7523   -1.8050 C   0  0  0  0  0  0  0  0  0  0  0  0
   -1.6411    0.3207   -0.4416 C   0  0  0  0  0  0  0  0  0  0  0  0
   -2.1804    1.4097    0.4406 C   0  0  0  0  0  0  0  0  0  0  0  0
   -3.3644    1.9312   -0.1190 O   0  0  0  0  0  0  0  0  0  0  0  0
   -3.9215    2.9749    0.6413 C   0  0  0  0  0  0  0  0  0  0  0  0
   -5.1777    3.4625   -0.0422 C   0  0  0  0  0  0  0  0  0  0  0  0
   -0.4217    1.5470   -1.7256 H   0  0  0  0  0  0  0  0  0  0  0  0
   -1.9993    1.1395   -2.4003 H   0  0  0  0  0  0  0  0  0  0  0  0
   -0.7211   -0.0792   -2.3526 H   0  0  0  0  0  0  0  0  0  0  0  0
   -0.5808   -0.1093    0.2106 H   0  0  0  0  0  0  0  0  0  0  0  0
   -2.2937   -0.5525   -0.4644 H   0  0  0  0  0  0  0  0  0  0  0  0
   -1.4327    2.2121    0.5443 H   0  0  0  0  0  0  0  0  0  0  0  0
   -2.3825    1.0187    1.4485 H   0  0  0  0  0  0  0  0  0  0  0  0
   -4.1494    2.6184    1.6567 H   0  0  0  0  0  0  0  0  0  0  0  0
   -3.1947    3.7944    0.7411 H   0  0  0  0  0  0  0  0  0  0  0  0
   -5.9042    2.6538   -0.1289 H   0  0  0  0  0  0  0  0  0  0  0  0
   -4.9501    3.8294   -1.0437 H   0  0  0  0  0  0  0  0  0  0  0  0
   -5.6288    4.2744    0.5304 H   0  0  0  0  0  0  0  0  0  0  0  0
  1  2  1  0
  1  7  1  0
  1  8  1  0
  2  3  1  0
  2  9  1  0
  2 10  1  0
  3  4  1  0
  4  5  1  0
  4 11  1  0
  4 12  1  0
  5  6  1  0
  5 13  1  0
  5 14  1  0
  6 15  1  0
  6 16  1  0
  6 17  1  0
 18 19  1  0
 18 24  1  0
 18 25  1  0
 18 26  1  0
 19 20  1  0
 19 27  1  0
 19 28  1  0
 20 21  1  0
 20 29  1  0
 20 30  1  0
 21 22  1  0
 22 23  1  0
 22 31  1  0
 22 32  1  0
 23 33  1  0
 23 34  1  0
 23 35  1  0
M  RAD  1   1   2
M  END
>  <reaction>  (4) 
rmg_rxn_224

>  <mol_properties>  (4) 
{"0": {"label": "*3", "atom_type": "Cs"}, "1": {"label": "*4", "atom_type": "Cs"}, "18": {"label": "*1", "atom_type": "Cs"}, "19": {"label": "*0", "atom_type": "Cs"}, "26": {"label": "*2", "atom_type": "H0"}}

>  <type>  (4) 
ts

$$$$

     RDKit          3D

 35 33  0  0  0  0  0  0  0  0999 V2000
    0.6037   -1.6504   -0.6541 C   0  0  0  0  0  0  0  0  0  0  0  0
    1.4458   -0.7235    0.1915 C   0  0  0  0  0  0  0  0  0  0  0  0
    1.9388   -1.4362    1.2972 O   0  0  0  0  0  0  0  0  0  0  0  0
    2.7397   -0.6568    2.1493 C   0  0  0  0  0  0  0  0  0  0  0  0
    3.2530   -1.5195    3.2840 C   0  0  0  0  0  0  0  0  0  0  0  0
    4.1563   -2.6518    2.8138 C   0  0  0  0  0  0  0  0  0  0  0  0
    1.1996   -2.4927   -1.0072 H   0  0  0  0  0  0  0  0  0  0  0  0
   -0.2341   -2.0404   -0.0751 H   0  0  0  0  0  0  0  0  0  0  0  0
    0.8478    0.1340    0.5342 H   0  0  0  0  0  0  0  0  0  0  0  0
    2.2826   -0.3197   -0.3973 H   0  0  0  0  0  0  0  0  0  0  0  0
    3.5852   -0.2326    1.5848 H   0  0  0  0  0  0  0  0  0  0  0  0
    2.1554    0.1866    2.5458 H   0  0  0  0  0  0  0  0  0  0  0  0
    2.3954   -1.9245    3.8275 H   0  0  0  0  0  0  0  0  0  0  0  0
    3.7928   -0.8722    3.9808 H   0  0  0  0  0  0  0  0  0  0  0  0
    5.0312   -2.2600    2.2890 H   0  0  0  0  0  0  0  0  0  0  0  0
    3.6233   -3.3121    2.1297 H   0  0  0  0  0  0  0  0  0  0  0  0
    4.5105   -3.2474    3.6565 H   0  0  0  0  0  0  0  0  0  0  0  0
   -1.5097   -0.3883   -3.0791 C   0  0  0  0  0  0  0  0  0  0  0  0
   -1.5097   -0.3883   -1.5562 C   0  0  0  0  0  3  0  0  0  0  0  0
   -1.5097    1.0048   -0.9607 C   0  0  0  0  0  0  0  0  0  0  0  0
   -2.6926    1.6684   -1.3283 O   0  0  0  0  0  0  0  0  0  0  0  0
   -2.7634    2.9865   -0.8474 C   0  0  0  0  0  0  0  0  0  0  0  0
   -4.0667    3.6042   -1.2982 C   0  0  0  0  0  0  0  0  0  0  0  0
   -0.6276    0.1261   -3.4687 H   0  0  0  0  0  0  0  0  0  0  0  0
   -2.3924    0.1214   -3.4652 H   0  0  0  0  0  0  0  0  0  0  0  0
   -1.5042   -1.4061   -3.4718 H   0  0  0  0  0  0  0  0  0  0  0  0
   -0.4518   -1.0200   -1.1047 H   0  0  0  0  0  0  0  0  0  0  0  0
   -2.3840   -0.9262   -1.1809 H   0  0  0  0  0  0  0  0  0  0  0  0
   -0.6355    1.5699   -1.3211 H   0  0  0  0  0  0  0  0  0  0  0  0
   -1.4349    0.9509    0.1354 H   0  0  0  0  0  0  0  0  0  0  0  0
   -2.6961    2.9893    0.2507 H   0  0  0  0  0  0  0  0  0  0  0  0
   -1.9105    3.5694   -1.2253 H   0  0  0  0  0  0  0  0  0  0  0  0
   -4.9130    3.0348   -0.9125 H   0  0  0  0  0  0  0  0  0  0  0  0
   -4.1275    3.6161   -2.3870 H   0  0  0  0  0  0  0  0  0  0  0  0
   -4.1443    4.6303   -0.9352 H   0  0  0  0  0  0  0  0  0  0  0  0
  1  2  1  0
  1  7  1  0
  1  8  1  0
  1 27  1  0
  2  3  1  0
  2  9  1  0
  2 10  1  0
  3  4  1  0
  4  5  1  0
  4 11  1  0
  4 12  1  0
  5  6  1  0
  5 13  1  0
  5 14  1  0
  6 15  1  0
  6 16  1  0
  6 17  1  0
 18 19  1  0
 18 24  1  0
 18 25  1  0
 18 26  1  0
 19 20  1  0
 19 28  1  0
 20 21  1  0
 20 29  1  0
 20 30  1  0
 21 22  1  0
 22 23  1  0
 22 31  1  0
 22 32  1  0
 23 33  1  0
 23 34  1  0
 23 35  1  0
M  RAD  1  19   2
M  END
>  <reaction>  (5) 
rmg_rxn_224

>  <mol_properties>  (5) 
{"0": {"label": "*3", "atom_type": "Cs"}, "1": {"label": "*4", "atom_type": "Cs"}, "18": {"label": "*1", "atom_type": "Cs"}, "19": {"label": "*0", "atom_type": "Cs"}, "26": {"label": "*2", "atom_type": "H0"}}

>  <type>  (5) 
unop_1

>  <geom_source>  (5) 
Heuristics

$$$$

     RDKit          3D

 35 33  0  0  0  0  0  0  0  0999 V2000
    0.1142   -1.3420    0.6491 C   0  0  0  0  0  0  0  0  0  0  0  0
    1.2624   -1.2022   -0.3233 C   0  0  0  0  0  0  0  0  0  0  0  0
    2.4624   -1.5069    0.3405 O   0  0  0  0  0  0  0  0  0  0  0  0
    3.5957   -1.4060   -0.4844 C   0  0  0  0  0  0  0  0  0  0  0  0
    4.8289   -1.7898    0.3075 C   0  0  0  0  0  0  0  0  0  0  0  0
    4.8092   -3.2367    0.7823 C   0  0  0  0  0  0  0  0  0  0  0  0
    0.0620   -2.3608    1.0347 H   0  0  0  0  0  0  0  0  0  0  0  0
    0.2420   -0.6614    1.4916 H   0  0  0  0  0  0  0  0  0  0  0  0
    1.3046   -0.1784   -0.7237 H   0  0  0  0  0  0  0  0  0  0  0  0
    1.1257   -1.8790   -1.1796 H   0  0  0  0  0  0  0  0  0  0  0  0
    3.4848   -2.0700   -1.3564 H   0  0  0  0  0  0  0  0  0  0  0  0
    3.6918   -0.3789   -0.8658 H   0  0  0  0  0  0  0  0  0  0  0  0
    4.9158   -1.1152    1.1632 H   0  0  0  0  0  0  0  0  0  0  0  0
    5.7032   -1.6132   -0.3252 H   0  0  0  0  0  0  0  0  0  0  0  0
    4.7467   -3.9240   -0.0652 H   0  0  0  0  0  0  0  0  0  0  0  0
    3.9492   -3.4200    1.4263 H   0  0  0  0  0  0  0  0  0  0  0  0
    5.7133   -3.4783    1.3431 H   0  0  0  0  0  0  0  0  0  0  0  0
   -1.9991   -0.0799   -1.7759 C   0  0  0  0  0  0  0  0  0  0  0  0
   -1.9991   -0.0799   -0.2530 C   0  0  0  0  0  3  0  0  0  0  0  0
   -1.9991    1.3132    0.3426 C   0  0  0  0  0  0  0  0  0  0  0  0
   -3.1821    1.9768   -0.0250 O   0  0  0  0  0  0  0  0  0  0  0  0
   -3.2528    3.2948    0.4559 C   0  0  0  0  0  0  0  0  0  0  0  0
   -4.5561    3.9126    0.0050 C   0  0  0  0  0  0  0  0  0  0  0  0
   -1.1170    0.4344   -2.1655 H   0  0  0  0  0  0  0  0  0  0  0  0
   -2.8818    0.4298   -2.1619 H   0  0  0  0  0  0  0  0  0  0  0  0
   -1.9936   -1.0978   -2.1685 H   0  0  0  0  0  0  0  0  0  0  0  0
   -0.9412   -0.7117    0.1986 H   0  0  0  0  0  0  0  0  0  0  0  0
   -2.8735   -0.6179    0.1223 H   0  0  0  0  0  0  0  0  0  0  0  0
   -1.1249    1.8782   -0.0178 H   0  0  0  0  0  0  0  0  0  0  0  0
   -1.9243    1.2592    1.4386 H   0  0  0  0  0  0  0  0  0  0  0  0
   -3.1855    3.2977    1.5539 H   0  0  0  0  0  0  0  0  0  0  0  0
   -2.3999    3.8778    0.0780 H   0  0  0  0  0  0  0  0  0  0  0  0
   -5.4025    3.3432    0.3907 H   0  0  0  0  0  0  0  0  0  0  0  0
   -4.6169    3.9245   -1.0838 H   0  0  0  0  0  0  0  0  0  0  0  0
   -4.6337    4.9386    0.3681 H   0  0  0  0  0  0  0  0  0  0  0  0
  1  2  1  0
  1  7  1  0
  1  8  1  0
  1 27  1  0
  2  3  1  0
  2  9  1  0
  2 10  1  0
  3  4  1  0
  4  5  1  0
  4 11  1  0
  4 12  1  0
  5  6  1  0
  5 13  1  0
  5 14  1  0
  6 15  1  0
  6 16  1  0
  6 17  1  0
 18 19  1  0
 18 24  1  0
 18 25  1  0
 18 26  1  0
 19 20  1  0
 19 28  1  0
 20 21  1  0
 20 29  1  0
 20 30  1  0
 21 22  1  0
 22 23  1  0
 22 31  1  0
 22 32  1  0
 23 33  1  0
 23 34  1  0
 23 35  1  0
M  RAD  1  19   2
M  END
>  <reaction>  (6) 
rmg_rxn_224

>  <mol_properties>  (6) 
{"0": {"label": "*3", "atom_type": "Cs"}, "1": {"label": "*4", "atom_type": "Cs"}, "18": {"label": "*1", "atom_type": "Cs"}, "19": {"label": "*0", "atom_type": "Cs"}, "26": {"label": "*2", "atom_type": "H0"}}

>  <type>  (6) 
unop_2

>  <geom_source>  (6) 
Heuristics

$$$$

     RDKit          3D

 35 33  0  0  0  0  0  0  0  0999 V2000
    0.7587   -1.3308   -0.7476 C   0  0  0  0  0  0  0  0  0  0  0  0
    1.1815   -0.7578    0.5853 C   0  0  0  0  0  0  0  0  0  0  0  0
    1.8199   -1.7620    1.3319 O   0  0  0  0  0  0  0  0  0  0  0  0
    2.2540   -1.3252    2.5951 C   0  0  0  0  0  0  0  0  0  0  0  0
    2.9608   -2.4623    3.3040 C   0  0  0  0  0  0  0  0  0  0  0  0
    4.2227   -2.9228    2.5865 C   0  0  0  0  0  0  0  0  0  0  0  0
    1.6263   -1.6920   -1.3008 H   0  0  0  0  0  0  0  0  0  0  0  0
    0.0706   -2.1646   -0.6040 H   0  0  0  0  0  0  0  0  0  0  0  0
    0.3074   -0.3793    1.1358 H   0  0  0  0  0  0  0  0  0  0  0  0
    1.8646    0.0920    0.4392 H   0  0  0  0  0  0  0  0  0  0  0  0
    2.9368   -0.4683    2.4811 H   0  0  0  0  0  0  0  0  0  0  0  0
    1.3943   -0.9814    3.1889 H   0  0  0  0  0  0  0  0  0  0  0  0
    2.2614   -3.2962    3.4057 H   0  0  0  0  0  0  0  0  0  0  0  0
    3.2043   -2.1278    4.3163 H   0  0  0  0  0  0  0  0  0  0  0  0
    4.9417   -2.1044    2.4989 H   0  0  0  0  0  0  0  0  0  0  0  0
    3.9892   -3.2726    1.5809 H   0  0  0  0  0  0  0  0  0  0  0  0
    4.7069   -3.7372    3.1273 H   0  0  0  0  0  0  0  0  0  0  0  0
   -1.3547   -0.0687   -3.1725 C   0  0  0  0  0  0  0  0  0  0  0  0
   -1.3547   -0.0687   -1.6496 C   0  0  0  0  0  3  0  0  0  0  0  0
   -1.3547    1.3244   -1.0541 C   0  0  0  0  0  0  0  0  0  0  0  0
   -2.5377    1.9880   -1.4217 O   0  0  0  0  0  0  0  0  0  0  0  0
   -2.6084    3.3061   -0.9408 C   0  0  0  0  0  0  0  0  0  0  0  0
   -3.9117    3.9239   -1.3917 C   0  0  0  0  0  0  0  0  0  0  0  0
   -0.4726    0.4457   -3.5622 H   0  0  0  0  0  0  0  0  0  0  0  0
   -2.2374    0.4410   -3.5586 H   0  0  0  0  0  0  0  0  0  0  0  0
   -1.3492   -1.0865   -3.5652 H   0  0  0  0  0  0  0  0  0  0  0  0
   -0.2968   -0.7004   -1.1981 H   0  0  0  0  0  0  0  0  0  0  0  0
   -2.2290   -0.6066   -1.2744 H   0  0  0  0  0  0  0  0  0  0  0  0
   -0.4805    1.8895   -1.4145 H   0  0  0  0  0  0  0  0  0  0  0  0
   -1.2799    1.2705    0.0419 H   0  0  0  0  0  0  0  0  0  0  0  0
   -2.5411    3.3089    0.1573 H   0  0  0  0  0  0  0  0  0  0  0  0
   -1.7555    3.8890   -1.3187 H   0  0  0  0  0  0  0  0  0  0  0  0
   -4.7581    3.3544   -1.0060 H   0  0  0  0  0  0  0  0  0  0  0  0
   -3.9725    3.9357   -2.4805 H   0  0  0  0  0  0  0  0  0  0  0  0
   -3.9893    4.9499   -1.0286 H   0  0  0  0  0  0  0  0  0  0  0  0
  1  2  1  0
  1  7  1  0
  1  8  1  0
  1 27  1  0
  2  3  1  0
  2  9  1  0
  2 10  1  0
  3  4  1  0
  4  5  1  0
  4 11  1  0
  4 12  1  0
  5  6  1  0
  5 13  1  0
  5 14  1  0
  6 15  1  0
  6 16  1  0
  6 17  1  0
 18 19  1  0
 18 24  1  0
 18 25  1  0
 18 26  1  0
 19 20  1  0
 19 28  1  0
 20 21  1  0
 20 29  1  0
 20 30  1  0
 21 22  1  0
 22 23  1  0
 22 31  1  0
 22 32  1  0
 23 33  1  0
 23 34  1  0
 23 35  1  0
M  RAD  1  19   2
M  END
>  <reaction>  (7) 
rmg_rxn_224

>  <mol_properties>  (7) 
{"0": {"label": "*3", "atom_type": "Cs"}, "1": {"label": "*4", "atom_type": "Cs"}, "18": {"label": "*1", "atom_type": "Cs"}, "19": {"label": "*0", "atom_type": "Cs"}, "26": {"label": "*2", "atom_type": "H0"}}

>  <type>  (7) 
unop_3

>  <geom_source>  (7) 
Heuristics

$$$$

     RDKit          3D

 35 33  0  0  0  0  0  0  0  0999 V2000
    1.2260   -0.2107    0.1016 C   0  0  0  0  0  0  0  0  0  0  0  0
    1.2280   -1.6418   -0.3837 C   0  0  0  0  0  0  0  0  0  0  0  0
    1.8423   -2.4516    0.5860 O   0  0  0  0  0  0  0  0  0  0  0  0
    1.8928   -3.8092    0.2262 C   0  0  0  0  0  0  0  0  0  0  0  0
    2.5339   -4.6021    1.3467 C   0  0  0  0  0  0  0  0  0  0  0  0
    1.7336   -4.5626    2.6418 C   0  0  0  0  0  0  0  0  0  0  0  0
    0.6764   -0.1261    1.0397 H   0  0  0  0  0  0  0  0  0  0  0  0
    2.2459    0.1379    0.2676 H   0  0  0  0  0  0  0  0  0  0  0  0
    1.7691   -1.7233   -1.3381 H   0  0  0  0  0  0  0  0  0  0  0  0
    0.1997   -1.9880   -0.5643 H   0  0  0  0  0  0  0  0  0  0  0  0
    0.8751   -4.1837    0.0325 H   0  0  0  0  0  0  0  0  0  0  0  0
    2.4679   -3.9298   -0.7036 H   0  0  0  0  0  0  0  0  0  0  0  0
    3.5409   -4.2121    1.5158 H   0  0  0  0  0  0  0  0  0  0  0  0
    2.6471   -5.6349    1.0057 H   0  0  0  0  0  0  0  0  0  0  0  0
    0.7314   -4.9722    2.4932 H   0  0  0  0  0  0  0  0  0  0  0  0
    1.6273   -3.5383    2.9989 H   0  0  0  0  0  0  0  0  0  0  0  0
    2.2216   -5.1475    3.4229 H   0  0  0  0  0  0  0  0  0  0  0  0
   -0.8873    1.0514   -2.3234 C   0  0  0  0  0  0  0  0  0  0  0  0
   -0.8873    1.0514   -0.8005 C   0  0  0  0  0  3  0  0  0  0  0  0
   -0.8873    2.4445   -0.2050 C   0  0  0  0  0  0  0  0  0  0  0  0
   -2.0703    3.1081   -0.5726 O   0  0  0  0  0  0  0  0  0  0  0  0
   -2.1410    4.4261   -0.0917 C   0  0  0  0  0  0  0  0  0  0  0  0
   -3.4444    5.0439   -0.5425 C   0  0  0  0  0  0  0  0  0  0  0  0
   -0.0052    1.5658   -2.7130 H   0  0  0  0  0  0  0  0  0  0  0  0
   -1.7700    1.5611   -2.7095 H   0  0  0  0  0  0  0  0  0  0  0  0
   -0.8818    0.0336   -2.7161 H   0  0  0  0  0  0  0  0  0  0  0  0
    0.1705    0.4197   -0.3490 H   0  0  0  0  0  0  0  0  0  0  0  0
   -1.7617    0.5135   -0.4252 H   0  0  0  0  0  0  0  0  0  0  0  0
   -0.0131    3.0096   -0.5654 H   0  0  0  0  0  0  0  0  0  0  0  0
   -0.8125    2.3906    0.8910 H   0  0  0  0  0  0  0  0  0  0  0  0
   -2.0738    4.4290    1.0064 H   0  0  0  0  0  0  0  0  0  0  0  0
   -1.2882    5.0091   -0.4696 H   0  0  0  0  0  0  0  0  0  0  0  0
   -4.2907    4.4745   -0.1569 H   0  0  0  0  0  0  0  0  0  0  0  0
   -3.5052    5.0558   -1.6314 H   0  0  0  0  0  0  0  0  0  0  0  0
   -3.5220    6.0700   -0.1795 H   0  0  0  0  0  0  0  0  0  0  0  0
  1  2  1  0
  1  7  1  0
  1  8  1  0
  1 27  1  0
  2  3  1  0
  2  9  1  0
  2 10  1  0
  3  4  1  0
  4  5  1  0
  4 11  1  0
  4 12  1  0
  5  6  1  0
  5 13  1  0
  5 14  1  0
  6 15  1  0
  6 16  1  0
  6 17  1  0
 18 19  1  0
 18 24  1  0
 18 25  1  0
 18 26  1  0
 19 20  1  0
 19 28  1  0
 20 21  1  0
 20 29  1  0
 20 30  1  0
 21 22  1  0
 22 23  1  0
 22 31  1  0
 22 32  1  0
 23 33  1  0
 23 34  1  0
 23 35  1  0
M  RAD  1  19   2
M  END
>  <reaction>  (8) 
rmg_rxn_224

>  <mol_properties>  (8) 
{"0": {"label": "*3", "atom_type": "Cs"}, "1": {"label": "*4", "atom_type": "Cs"}, "18": {"label": "*1", "atom_type": "Cs"}, "19": {"label": "*0", "atom_type": "Cs"}, "26": {"label": "*2", "atom_type": "H0"}}

>  <type>  (8) 
unop_4

>  <geom_source>  (8) 
Heuristics

$$$$

     RDKit          3D

 35 33  0  0  0  0  0  0  0  0999 V2000
    0.7549   -1.2473   -0.7267 C   0  0  0  0  0  0  0  0  0  0  0  0
    0.7583   -1.2493    0.7844 C   0  0  0  0  0  0  0  0  0  0  0  0
    1.8996   -1.9318    1.2374 O   0  0  0  0  0  0  0  0  0  0  0  0
    1.9949   -1.9877    2.6384 C   0  0  0  0  0  0  0  0  0  0  0  0
    3.2716   -2.7051    3.0265 C   0  0  0  0  0  0  0  0  0  0  0  0
    4.5294   -1.9776    2.5703 C   0  0  0  0  0  0  0  0  0  0  0  0
    1.6462   -0.7493   -1.1101 H   0  0  0  0  0  0  0  0  0  0  0  0
    0.7393   -2.2681   -1.1101 H   0  0  0  0  0  0  0  0  0  0  0  0
   -0.1488   -1.7378    1.1702 H   0  0  0  0  0  0  0  0  0  0  0  0
    0.7599   -0.2192    1.1703 H   0  0  0  0  0  0  0  0  0  0  0  0
    1.9927   -0.9680    3.0552 H   0  0  0  0  0  0  0  0  0  0  0  0
    1.1216   -2.5123    3.0531 H   0  0  0  0  0  0  0  0  0  0  0  0
    3.2463   -3.7124    2.6029 H   0  0  0  0  0  0  0  0  0  0  0  0
    3.2761   -2.8186    4.1141 H   0  0  0  0  0  0  0  0  0  0  0  0
    4.5801   -0.9765    3.0058 H   0  0  0  0  0  0  0  0  0  0  0  0
    4.5424   -1.8720    1.4855 H   0  0  0  0  0  0  0  0  0  0  0  0
    5.4273   -2.5193    2.8713 H   0  0  0  0  0  0  0  0  0  0  0  0
   -1.3584    0.0148   -3.1517 C   0  0  0  0  0  0  0  0  0  0  0  0
   -1.3584    0.0148   -1.6288 C   0  0  0  0  0  3  0  0  0  0  0  0
   -1.3584    1.4079   -1.0333 C   0  0  0  0  0  0  0  0  0  0  0  0
   -2.5414    2.0715   -1.4009 O   0  0  0  0  0  0  0  0  0  0  0  0
   -2.6121    3.3896   -0.9200 C   0  0  0  0  0  0  0  0  0  0  0  0
   -3.9154    4.0073   -1.3708 C   0  0  0  0  0  0  0  0  0  0  0  0
   -0.4763    0.5292   -3.5413 H   0  0  0  0  0  0  0  0  0  0  0  0
   -2.2411    0.5245   -3.5378 H   0  0  0  0  0  0  0  0  0  0  0  0
   -1.3529   -1.0030   -3.5443 H   0  0  0  0  0  0  0  0  0  0  0  0
   -0.3006   -0.6169   -1.1772 H   0  0  0  0  0  0  0  0  0  0  0  0
   -2.2328   -0.5231   -1.2535 H   0  0  0  0  0  0  0  0  0  0  0  0
   -0.4842    1.9730   -1.3936 H   0  0  0  0  0  0  0  0  0  0  0  0
   -1.2836    1.3540    0.0628 H   0  0  0  0  0  0  0  0  0  0  0  0
   -2.5449    3.3924    0.1781 H   0  0  0  0  0  0  0  0  0  0  0  0
   -1.7593    3.9725   -1.2978 H   0  0  0  0  0  0  0  0  0  0  0  0
   -4.7618    3.4379   -0.9851 H   0  0  0  0  0  0  0  0  0  0  0  0
   -3.9762    4.0192   -2.4596 H   0  0  0  0  0  0  0  0  0  0  0  0
   -3.9930    5.0334   -1.0077 H   0  0  0  0  0  0  0  0  0  0  0  0
  1  2  1  0
  1  7  1  0
  1  8  1  0
  1 27  1  0
  2  3  1  0
  2  9  1  0
  2 10  1  0
  3  4  1  0
  4  5  1  0
  4 11  1  0
  4 12  1  0
  5  6  1  0
  5 13  1  0
  5 14  1  0
  6 15  1  0
  6 16  1  0
  6 17  1  0
 18 19  1  0
 18 24  1  0
 18 25  1  0
 18 26  1  0
 19 20  1  0
 19 28  1  0
 20 21  1  0
 20 29  1  0
 20 30  1  0
 21 22  1  0
 22 23  1  0
 22 31  1  0
 22 32  1  0
 23 33  1  0
 23 34  1  0
 23 35  1  0
M  RAD  1  19   2
M  END
>  <reaction>  (9) 
rmg_rxn_224

>  <mol_properties>  (9) 
{"0": {"label": "*3", "atom_type": "Cs"}, "1": {"label": "*4", "atom_type": "Cs"}, "18": {"label": "*1", "atom_type": "Cs"}, "19": {"label": "*0", "atom_type": "Cs"}, "26": {"label": "*2", "atom_type": "H0"}}

>  <type>  (9) 
unop_5

>  <geom_source>  (9) 
Heuristics

$$$$

     RDKit          3D

 35 33  0  0  0  0  0  0  0  0999 V2000
    1.3945   -0.4405   -0.4220 C   0  0  0  0  0  0  0  0  0  0  0  0
    1.0898   -1.9096   -0.2419 C   0  0  0  0  0  0  0  0  0  0  0  0
    1.7127   -2.3642    0.9324 O   0  0  0  0  0  0  0  0  0  0  0  0
    1.4869   -3.7271    1.1901 C   0  0  0  0  0  0  0  0  0  0  0  0
    2.1628   -4.1109    2.4905 C   0  0  0  0  0  0  0  0  0  0  0  0
    1.5957   -3.3777    3.6989 C   0  0  0  0  0  0  0  0  0  0  0  0
    1.0221    0.1340    0.4269 H   0  0  0  0  0  0  0  0  0  0  0  0
    2.4703   -0.2802   -0.5005 H   0  0  0  0  0  0  0  0  0  0  0  0
    1.4519   -2.4861   -1.1060 H   0  0  0  0  0  0  0  0  0  0  0  0
    0.0038   -2.0718   -0.1768 H   0  0  0  0  0  0  0  0  0  0  0  0
    0.4047   -3.9220    1.2547 H   0  0  0  0  0  0  0  0  0  0  0  0
    1.8798   -4.3355    0.3622 H   0  0  0  0  0  0  0  0  0  0  0  0
    3.2332   -3.9099    2.3980 H   0  0  0  0  0  0  0  0  0  0  0  0
    2.0532   -5.1911    2.6203 H   0  0  0  0  0  0  0  0  0  0  0  0
    0.5300   -3.5887    3.8179 H   0  0  0  0  0  0  0  0  0  0  0  0
    1.7132   -2.2999    3.5867 H   0  0  0  0  0  0  0  0  0  0  0  0
    2.1017   -3.6825    4.6162 H   0  0  0  0  0  0  0  0  0  0  0  0
   -0.7188    0.8217   -2.8470 C   0  0  0  0  0  0  0  0  0  0  0  0
   -0.7188    0.8217   -1.3241 C   0  0  0  0  0  3  0  0  0  0  0  0
   -0.7188    2.2147   -0.7286 C   0  0  0  0  0  0  0  0  0  0  0  0
   -1.9018    2.8783   -1.0962 O   0  0  0  0  0  0  0  0  0  0  0  0
   -1.9725    4.1964   -0.6153 C   0  0  0  0  0  0  0  0  0  0  0  0
   -3.2758    4.8142   -1.0661 C   0  0  0  0  0  0  0  0  0  0  0  0
    0.1633    1.3360   -3.2366 H   0  0  0  0  0  0  0  0  0  0  0  0
   -1.6015    1.3313   -3.2331 H   0  0  0  0  0  0  0  0  0  0  0  0
   -0.7133   -0.1962   -3.2397 H   0  0  0  0  0  0  0  0  0  0  0  0
    0.3390    0.1899   -0.8726 H   0  0  0  0  0  0  0  0  0  0  0  0
   -1.5932    0.2837   -0.9488 H   0  0  0  0  0  0  0  0  0  0  0  0
    0.1554    2.7798   -1.0890 H   0  0  0  0  0  0  0  0  0  0  0  0
   -0.6440    2.1608    0.3675 H   0  0  0  0  0  0  0  0  0  0  0  0
   -1.9053    4.1992    0.4828 H   0  0  0  0  0  0  0  0  0  0  0  0
   -1.1197    4.7794   -0.9932 H   0  0  0  0  0  0  0  0  0  0  0  0
   -4.1222    4.2448   -0.6804 H   0  0  0  0  0  0  0  0  0  0  0  0
   -3.3367    4.8260   -2.1549 H   0  0  0  0  0  0  0  0  0  0  0  0
   -3.3535    5.8402   -0.7031 H   0  0  0  0  0  0  0  0  0  0  0  0
  1  2  1  0
  1  7  1  0
  1  8  1  0
  1 27  1  0
  2  3  1  0
  2  9  1  0
  2 10  1  0
  3  4  1  0
  4  5  1  0
  4 11  1  0
  4 12  1  0
  5  6  1  0
  5 13  1  0
  5 14  1  0
  6 15  1  0
  6 16  1  0
  6 17  1  0
 18 19  1  0
 18 24  1  0
 18 25  1  0
 18 26  1  0
 19 20  1  0
 19 28  1  0
 20 21  1  0
 20 29  1  0
 20 30  1  0
 21 22  1  0
 22 23  1  0
 22 31  1  0
 22 32  1  0
 23 33  1  0
 23 34  1  0
 23 35  1  0
M  RAD  1  19   2
M  END
>  <reaction>  (10) 
rmg_rxn_224

>  <mol_properties>  (10) 
{"0": {"label": "*3", "atom_type": "Cs"}, "1": {"label": "*4", "atom_type": "Cs"}, "18": {"label": "*1", "atom_type": "Cs"}, "19": {"label": "*0", "atom_type": "Cs"}, "26": {"label": "*2", "atom_type": "H0"}}

>  <type>  (10) 
unop_6

>  <geom_source>  (10) 
Heuristics

$$$$

     RDKit          3D

 35 33  0  0  0  0  0  0  0  0999 V2000
    1.2966   -0.8617   -0.7755 C   0  0  0  0  0  0  0  0  0  0  0  0
    0.8798   -2.0426    0.0702 C   0  0  0  0  0  0  0  0  0  0  0  0
    1.7420   -2.1397    1.1751 O   0  0  0  0  0  0  0  0  0  0  0  0
    1.4345   -3.2133    2.0281 C   0  0  0  0  0  0  0  0  0  0  0  0
    2.3902   -3.2102    3.2036 C   0  0  0  0  0  0  0  0  0  0  0  0
    2.2681   -1.9646    4.0712 C   0  0  0  0  0  0  0  0  0  0  0  0
    1.2426    0.0610   -0.1965 H   0  0  0  0  0  0  0  0  0  0  0  0
    2.3208   -0.9869   -1.1285 H   0  0  0  0  0  0  0  0  0  0  0  0
    0.9195   -2.9707   -0.5193 H   0  0  0  0  0  0  0  0  0  0  0  0
   -0.1580   -1.9221    0.4142 H   0  0  0  0  0  0  0  0  0  0  0  0
    0.3963   -3.1231    2.3849 H   0  0  0  0  0  0  0  0  0  0  0  0
    1.5098   -4.1629    1.4781 H   0  0  0  0  0  0  0  0  0  0  0  0
    3.4103   -3.3032    2.8219 H   0  0  0  0  0  0  0  0  0  0  0  0
    2.1924   -4.1051    3.8001 H   0  0  0  0  0  0  0  0  0  0  0  0
    1.2586   -1.8716    4.4795 H   0  0  0  0  0  0  0  0  0  0  0  0
    2.4781   -1.0669    3.4896 H   0  0  0  0  0  0  0  0  0  0  0  0
    2.9660   -1.9995    4.9089 H   0  0  0  0  0  0  0  0  0  0  0  0
   -0.8168    0.4005   -3.2005 C   0  0  0  0  0  0  0  0  0  0  0  0
   -0.8168    0.4005   -1.6776 C   0  0  0  0  0  3  0  0  0  0  0  0
   -0.8168    1.7935   -1.0820 C   0  0  0  0  0  0  0  0  0  0  0  0
   -1.9998    2.4571   -1.4496 O   0  0  0  0  0  0  0  0  0  0  0  0
   -2.0705    3.7752   -0.9687 C   0  0  0  0  0  0  0  0  0  0  0  0
   -3.3738    4.3930   -1.4196 C   0  0  0  0  0  0  0  0  0  0  0  0
    0.0653    0.9148   -3.5901 H   0  0  0  0  0  0  0  0  0  0  0  0
   -1.6995    0.9102   -3.5865 H   0  0  0  0  0  0  0  0  0  0  0  0
   -0.8113   -0.6174   -3.5931 H   0  0  0  0  0  0  0  0  0  0  0  0
    0.2411   -0.2313   -1.2260 H   0  0  0  0  0  0  0  0  0  0  0  0
   -1.6911   -0.1375   -1.3023 H   0  0  0  0  0  0  0  0  0  0  0  0
    0.0574    2.3586   -1.4424 H   0  0  0  0  0  0  0  0  0  0  0  0
   -0.7420    1.7396    0.0140 H   0  0  0  0  0  0  0  0  0  0  0  0
   -2.0032    3.7780    0.1293 H   0  0  0  0  0  0  0  0  0  0  0  0
   -1.2176    4.3582   -1.3466 H   0  0  0  0  0  0  0  0  0  0  0  0
   -4.2202    3.8236   -1.0339 H   0  0  0  0  0  0  0  0  0  0  0  0
   -3.4346    4.4048   -2.5084 H   0  0  0  0  0  0  0  0  0  0  0  0
   -3.4514    5.4190   -1.0565 H   0  0  0  0  0  0  0  0  0  0  0  0
  1  2  1  0
  1  7  1  0
  1  8  1  0
  1 27  1  0
  2  3  1  0
  2  9  1  0
  2 10  1  0
  3  4  1  0
  4  5  1  0
  4 11  1  0
  4 12  1  0
  5  6  1  0
  5 13  1  0
  5 14  1  0
  6 15  1  0
  6 16  1  0
  6 17  1  0
 18 19  1  0
 18 24  1  0
 18 25  1  0
 18 26  1  0
 19 20  1  0
 19 28  1  0
 20 21  1  0
 20 29  1  0
 20 30  1  0
 21 22  1  0
 22 23  1  0
 22 31  1  0
 22 32  1  0
 23 33  1  0
 23 34  1  0
 23 35  1  0
M  RAD  1  19   2
M  END
>  <reaction>  (11) 
rmg_rxn_224

>  <mol_properties>  (11) 
{"0": {"label": "*3", "atom_type": "Cs"}, "1": {"label": "*4", "atom_type": "Cs"}, "18": {"label": "*1", "atom_type": "Cs"}, "19": {"label": "*0", "atom_type": "Cs"}, "26": {"label": "*2", "atom_type": "H0"}}

>  <type>  (11) 
unop_7

>  <geom_source>  (11) 
Heuristics

$$$$

     RDKit          3D

 35 33  0  0  0  0  0  0  0  0999 V2000
    0.3291   -1.8548   -0.3013 C   0  0  0  0  0  0  0  0  0  0  0  0
    1.4780   -0.8899   -0.1211 C   0  0  0  0  0  0  0  0  0  0  0  0
    2.1727   -1.2218    1.0539 O   0  0  0  0  0  0  0  0  0  0  0  0
    3.2667   -0.3778    1.3107 C   0  0  0  0  0  0  0  0  0  0  0  0
    3.9711   -0.8381    2.5706 C   0  0  0  0  0  0  0  0  0  0  0  0
    4.5657   -2.2347    2.4477 C   0  0  0  0  0  0  0  0  0  0  0  0
    0.6981   -2.8780   -0.3799 H   0  0  0  0  0  0  0  0  0  0  0  0
   -0.3532   -1.7994    0.5477 H   0  0  0  0  0  0  0  0  0  0  0  0
    1.1058    0.1435   -0.0577 H   0  0  0  0  0  0  0  0  0  0  0  0
    2.1582   -0.9364   -0.9844 H   0  0  0  0  0  0  0  0  0  0  0  0
    3.9644   -0.3988    0.4585 H   0  0  0  0  0  0  0  0  0  0  0  0
    2.9210    0.6601    1.4247 H   0  0  0  0  0  0  0  0  0  0  0  0
    3.2582   -0.8052    3.3985 H   0  0  0  0  0  0  0  0  0  0  0  0
    4.7571   -0.1133    2.8002 H   0  0  0  0  0  0  0  0  0  0  0  0
    5.2987   -2.2763    1.6382 H   0  0  0  0  0  0  0  0  0  0  0  0
    3.7881   -2.9679    2.2335 H   0  0  0  0  0  0  0  0  0  0  0  0
    5.0685   -2.5300    3.3698 H   0  0  0  0  0  0  0  0  0  0  0  0
   -1.7842   -0.5927   -2.7263 C   0  0  0  0  0  0  0  0  0  0  0  0
   -1.7842   -0.5927   -1.2034 C   0  0  0  0  0  3  0  0  0  0  0  0
   -1.7842    0.8004   -0.6078 C   0  0  0  0  0  0  0  0  0  0  0  0
   -2.9672    1.4640   -0.9754 O   0  0  0  0  0  0  0  0  0  0  0  0
   -3.0380    2.7820   -0.4945 C   0  0  0  0  0  0  0  0  0  0  0  0
   -4.3413    3.3998   -0.9454 C   0  0  0  0  0  0  0  0  0  0  0  0
   -0.9022   -0.0784   -3.1159 H   0  0  0  0  0  0  0  0  0  0  0  0
   -2.6670   -0.0830   -3.1123 H   0  0  0  0  0  0  0  0  0  0  0  0
   -1.7788   -1.6105   -3.1189 H   0  0  0  0  0  0  0  0  0  0  0  0
   -0.7264   -1.2244   -0.7518 H   0  0  0  0  0  0  0  0  0  0  0  0
   -2.6586   -1.1306   -0.8281 H   0  0  0  0  0  0  0  0  0  0  0  0
   -0.9100    1.3655   -0.9682 H   0  0  0  0  0  0  0  0  0  0  0  0
   -1.7095    0.7465    0.4882 H   0  0  0  0  0  0  0  0  0  0  0  0
   -2.9707    2.7849    0.6035 H   0  0  0  0  0  0  0  0  0  0  0  0
   -2.1851    3.3650   -0.8724 H   0  0  0  0  0  0  0  0  0  0  0  0
   -5.1876    2.8304   -0.5597 H   0  0  0  0  0  0  0  0  0  0  0  0
   -4.4021    3.4117   -2.0342 H   0  0  0  0  0  0  0  0  0  0  0  0
   -4.4189    4.4258   -0.5823 H   0  0  0  0  0  0  0  0  0  0  0  0
  1  2  1  0
  1  7  1  0
  1  8  1  0
  1 27  1  0
  2  3  1  0
  2  9  1  0
  2 10  1  0
  3  4  1  0
  4  5  1  0
  4 11  1  0
  4 12  1  0
  5  6  1  0
  5 13  1  0
  5 14  1  0
  6 15  1  0
  6 16  1  0
  6 17  1  0
 18 19  1  0
 18 24  1  0
 18 25  1  0
 18 26  1  0
 19 20  1  0
 19 28  1  0
 20 21  1  0
 20 29  1  0
 20 30  1  0
 21 22  1  0
 22 23  1  0
 22 31  1  0
 22 32  1  0
 23 33  1  0
 23 34  1  0
 23 35  1  0
M  RAD  1  19   2
M  END
>  <reaction>  (12) 
rmg_rxn_224

>  <mol_properties>  (12) 
{"0": {"label": "*3", "atom_type": "Cs"}, "1": {"label": "*4", "atom_type": "Cs"}, "18": {"label": "*1", "atom_type": "Cs"}, "19": {"label": "*0", "atom_type": "Cs"}, "26": {"label": "*2", "atom_type": "H0"}}

>  <type>  (12) 
unop_8

>  <geom_source>  (12) 
Heuristics

$$$$

     RDKit          3D

 35 33  0  0  0  0  0  0  0  0999 V2000
    0.8363   -0.3150    0.5897 C   0  0  0  0  0  0  0  0  0  0  0  0
    1.2577   -1.3922   -0.3828 C   0  0  0  0  0  0  0  0  0  0  0  0
    2.0962   -2.3034    0.2807 O   0  0  0  0  0  0  0  0  0  0  0  0
    2.5434   -3.3499   -0.5438 C   0  0  0  0  0  0  0  0  0  0  0  0
    3.4042   -4.2959    0.2681 C   0  0  0  0  0  0  0  0  0  0  0  0
    2.6437   -4.9765    1.3985 C   0  0  0  0  0  0  0  0  0  0  0  0
    0.2975   -0.7502    1.4321 H   0  0  0  0  0  0  0  0  0  0  0  0
    1.7085    0.2140    0.9754 H   0  0  0  0  0  0  0  0  0  0  0  0
    1.7873   -0.9505   -1.2400 H   0  0  0  0  0  0  0  0  0  0  0  0
    0.3765   -1.9160   -0.7819 H   0  0  0  0  0  0  0  0  0  0  0  0
    1.6806   -3.8906   -0.9643 H   0  0  0  0  0  0  0  0  0  0  0  0
    3.1173   -2.9425   -1.3890 H   0  0  0  0  0  0  0  0  0  0  0  0
    4.2519   -3.7352    0.6705 H   0  0  0  0  0  0  0  0  0  0  0  0
    3.8151   -5.0456   -0.4137 H   0  0  0  0  0  0  0  0  0  0  0  0
    1.8066   -5.5609    1.0083 H   0  0  0  0  0  0  0  0  0  0  0  0
    2.2421   -4.2385    2.0928 H   0  0  0  0  0  0  0  0  0  0  0  0
    3.2925   -5.6528    1.9569 H   0  0  0  0  0  0  0  0  0  0  0  0
   -1.2770    0.9471   -1.8353 C   0  0  0  0  0  0  0  0  0  0  0  0
   -1.2770    0.9471   -0.3124 C   0  0  0  0  0  3  0  0  0  0  0  0
   -1.2770    2.3402    0.2831 C   0  0  0  0  0  0  0  0  0  0  0  0
   -2.4600    3.0038   -0.0845 O   0  0  0  0  0  0  0  0  0  0  0  0
   -2.5307    4.3218    0.3964 C   0  0  0  0  0  0  0  0  0  0  0  0
   -3.8340    4.9396   -0.0544 C   0  0  0  0  0  0  0  0  0  0  0  0
   -0.3949    1.4614   -2.2250 H   0  0  0  0  0  0  0  0  0  0  0  0
   -2.1597    1.4568   -2.2214 H   0  0  0  0  0  0  0  0  0  0  0  0
   -1.2715   -0.0708   -2.2280 H   0  0  0  0  0  0  0  0  0  0  0  0
   -0.2192    0.3153    0.1391 H   0  0  0  0  0  0  0  0  0  0  0  0
   -2.1514    0.4091    0.0629 H   0  0  0  0  0  0  0  0  0  0  0  0
   -0.4028    2.9053   -0.0773 H   0  0  0  0  0  0  0  0  0  0  0  0
   -1.2022    2.2863    1.3791 H   0  0  0  0  0  0  0  0  0  0  0  0
   -2.4635    4.3247    1.4945 H   0  0  0  0  0  0  0  0  0  0  0  0
   -1.6779    4.9048    0.0185 H   0  0  0  0  0  0  0  0  0  0  0  0
   -4.6804    4.3702    0.3312 H   0  0  0  0  0  0  0  0  0  0  0  0
   -3.8948    4.9515   -1.1433 H   0  0  0  0  0  0  0  0  0  0  0  0
   -3.9116    5.9656    0.3086 H   0  0  0  0  0  0  0  0  0  0  0  0
  1  2  1  0
  1  7  1  0
  1  8  1  0
  1 27  1  0
  2  3  1  0
  2  9  1  0
  2 10  1  0
  3  4  1  0
  4  5  1  0
  4 11  1  0
  4 12  1  0
  5  6  1  0
  5 13  1  0
  5 14  1  0
  6 15  1  0
  6 16  1  0
  6 17  1  0
 18 19  1  0
 18 24  1  0
 18 25  1  0
 18 26  1  0
 19 20  1  0
 19 28  1  0
 20 21  1  0
 20 29  1  0
 20 30  1  0
 21 22  1  0
 22 23  1  0
 22 31  1  0
 22 32  1  0
 23 33  1  0
 23 34  1  0
 23 35  1  0
M  RAD  1  19   2
M  END
>  <reaction>  (13) 
rmg_rxn_224

>  <mol_properties>  (13) 
{"0": {"label": "*3", "atom_type": "Cs"}, "1": {"label": "*4", "atom_type": "Cs"}, "18": {"label": "*1", "atom_type": "Cs"}, "19": {"label": "*0", "atom_type": "Cs"}, "26": {"label": "*2", "atom_type": "H0"}}

>  <type>  (13) 
unop_9

>  <geom_source>  (13) 
Heuristics

$$$$

     RDKit          3D

 35 33  0  0  0  0  0  0  0  0999 V2000
    0.1171   -1.7596    0.2021 C   0  0  0  0  0  0  0  0  0  0  0  0
    1.3781   -1.0828   -0.2832 C   0  0  0  0  0  0  0  0  0  0  0  0
    2.3819   -1.2383    0.6872 O   0  0  0  0  0  0  0  0  0  0  0  0
    3.6016   -0.6405    0.3266 C   0  0  0  0  0  0  0  0  0  0  0  0
    4.6261   -0.8950    1.4134 C   0  0  0  0  0  0  0  0  0  0  0  0
    4.9463   -2.3721    1.6001 C   0  0  0  0  0  0  0  0  0  0  0  0
    0.2938   -2.8230    0.3680 H   0  0  0  0  0  0  0  0  0  0  0  0
   -0.2178   -1.3160    1.1403 H   0  0  0  0  0  0  0  0  0  0  0  0
    1.1947   -0.0135   -0.4653 H   0  0  0  0  0  0  0  0  0  0  0  0
    1.7074   -1.5216   -1.2367 H   0  0  0  0  0  0  0  0  0  0  0  0
    3.9545   -1.0565   -0.6303 H   0  0  0  0  0  0  0  0  0  0  0  0
    3.4608    0.4406    0.1810 H   0  0  0  0  0  0  0  0  0  0  0  0
    4.2524   -0.4708    2.3489 H   0  0  0  0  0  0  0  0  0  0  0  0
    5.5340   -0.3428    1.1554 H   0  0  0  0  0  0  0  0  0  0  0  0
    5.3439   -2.8041    0.6783 H   0  0  0  0  0  0  0  0  0  0  0  0
    4.0503   -2.9299    1.8723 H   0  0  0  0  0  0  0  0  0  0  0  0
    5.6899   -2.5164    2.3852 H   0  0  0  0  0  0  0  0  0  0  0  0
   -1.9962   -0.4975   -2.2229 C   0  0  0  0  0  0  0  0  0  0  0  0
   -1.9962   -0.4975   -0.7000 C   0  0  0  0  0  3  0  0  0  0  0  0
   -1.9962    0.8955   -0.1045 C   0  0  0  0  0  0  0  0  0  0  0  0
   -3.1792    1.5591   -0.4721 O   0  0  0  0  0  0  0  0  0  0  0  0
   -3.2499    2.8772    0.0088 C   0  0  0  0  0  0  0  0  0  0  0  0
   -4.5532    3.4950   -0.4420 C   0  0  0  0  0  0  0  0  0  0  0  0
   -1.1141    0.0168   -2.6125 H   0  0  0  0  0  0  0  0  0  0  0  0
   -2.8789    0.0122   -2.6090 H   0  0  0  0  0  0  0  0  0  0  0  0
   -1.9907   -1.5154   -2.6156 H   0  0  0  0  0  0  0  0  0  0  0  0
   -0.9383   -1.1293   -0.2484 H   0  0  0  0  0  0  0  0  0  0  0  0
   -2.8706   -1.0355   -0.3247 H   0  0  0  0  0  0  0  0  0  0  0  0
   -1.1220    1.4606   -0.4649 H   0  0  0  0  0  0  0  0  0  0  0  0
   -1.9214    0.8416    0.9916 H   0  0  0  0  0  0  0  0  0  0  0  0
   -3.1826    2.8801    1.1069 H   0  0  0  0  0  0  0  0  0  0  0  0
   -2.3970    3.4602   -0.3691 H   0  0  0  0  0  0  0  0  0  0  0  0
   -5.3996    2.9256   -0.0563 H   0  0  0  0  0  0  0  0  0  0  0  0
   -4.6140    3.5068   -1.5308 H   0  0  0  0  0  0  0  0  0  0  0  0
   -4.6308    4.5210   -0.0790 H   0  0  0  0  0  0  0  0  0  0  0  0
  1  2  1  0
  1  7  1  0
  1  8  1  0
  1 27  1  0
  2  3  1  0
  2  9  1  0
  2 10  1  0
  3  4  1  0
  4  5  1  0
  4 11  1  0
  4 12  1  0
  5  6  1  0
  5 13  1  0
  5 14  1  0
  6 15  1  0
  6 16  1  0
  6 17  1  0
 18 19  1  0
 18 24  1  0
 18 25  1  0
 18 26  1  0
 19 20  1  0
 19 28  1  0
 20 21  1  0
 20 29  1  0
 20 30  1  0
 21 22  1  0
 22 23  1  0
 22 31  1  0
 22 32  1  0
 23 33  1  0
 23 34  1  0
 23 35  1  0
M  RAD  1  19   2
M  END
>  <reaction>  (14) 
rmg_rxn_224

>  <mol_properties>  (14) 
{"0": {"label": "*3", "atom_type": "Cs"}, "1": {"label": "*4", "atom_type": "Cs"}, "18": {"label": "*1", "atom_type": "Cs"}, "19": {"label": "*0", "atom_type": "Cs"}, "26": {"label": "*2", "atom_type": "H0"}}

>  <type>  (14) 
unop_10

>  <geom_source>  (14) 
Heuristics

$$$$

     RDKit          3D

 35 33  0  0  0  0  0  0  0  0999 V2000
    0.9902   -1.2208   -0.8383 C   0  0  0  0  0  0  0  0  0  0  0  0
    0.6862   -1.8648    0.4946 C   0  0  0  0  0  0  0  0  0  0  0  0
    1.8734   -1.9520    1.2406 O   0  0  0  0  0  0  0  0  0  0  0  0
    1.6943   -2.5397    2.5045 C   0  0  0  0  0  0  0  0  0  0  0  0
    3.0165   -2.5530    3.2439 C   0  0  0  0  0  0  0  0  0  0  0  0
    3.5584   -1.1581    3.5264 C   0  0  0  0  0  0  0  0  0  0  0  0
    1.3979   -0.2195   -0.6947 H   0  0  0  0  0  0  0  0  0  0  0  0
    1.7198   -1.8132   -1.3914 H   0  0  0  0  0  0  0  0  0  0  0  0
    0.2604   -2.8685    0.3483 H   0  0  0  0  0  0  0  0  0  0  0  0
   -0.0601   -1.2739    1.0458 H   0  0  0  0  0  0  0  0  0  0  0  0
    0.9456   -1.9717    3.0792 H   0  0  0  0  0  0  0  0  0  0  0  0
    1.3107   -3.5643    2.3908 H   0  0  0  0  0  0  0  0  0  0  0  0
    3.7384   -3.1237    2.6541 H   0  0  0  0  0  0  0  0  0  0  0  0
    2.8721   -3.0975    4.1812 H   0  0  0  0  0  0  0  0  0  0  0  0
    2.8567   -0.5836    4.1363 H   0  0  0  0  0  0  0  0  0  0  0  0
    3.7203   -0.6113    2.5974 H   0  0  0  0  0  0  0  0  0  0  0  0
    4.5068   -1.2066    4.0636 H   0  0  0  0  0  0  0  0  0  0  0  0
   -1.1231    0.0414   -3.2633 C   0  0  0  0  0  0  0  0  0  0  0  0
   -1.1231    0.0414   -1.7403 C   0  0  0  0  0  3  0  0  0  0  0  0
   -1.1231    1.4344   -1.1448 C   0  0  0  0  0  0  0  0  0  0  0  0
   -2.3061    2.0980   -1.5124 O   0  0  0  0  0  0  0  0  0  0  0  0
   -2.3768    3.4161   -1.0315 C   0  0  0  0  0  0  0  0  0  0  0  0
   -3.6802    4.0339   -1.4824 C   0  0  0  0  0  0  0  0  0  0  0  0
   -0.2411    0.5557   -3.6529 H   0  0  0  0  0  0  0  0  0  0  0  0
   -2.0058    0.5511   -3.6493 H   0  0  0  0  0  0  0  0  0  0  0  0
   -1.1176   -0.9765   -3.6559 H   0  0  0  0  0  0  0  0  0  0  0  0
   -0.0653   -0.5904   -1.2888 H   0  0  0  0  0  0  0  0  0  0  0  0
   -1.9975   -0.4966   -1.3651 H   0  0  0  0  0  0  0  0  0  0  0  0
   -0.2489    1.9995   -1.5052 H   0  0  0  0  0  0  0  0  0  0  0  0
   -1.0483    1.3805   -0.0488 H   0  0  0  0  0  0  0  0  0  0  0  0
   -2.3096    3.4189    0.0665 H   0  0  0  0  0  0  0  0  0  0  0  0
   -1.5240    3.9991   -1.4094 H   0  0  0  0  0  0  0  0  0  0  0  0
   -4.5265    3.4645   -1.0967 H   0  0  0  0  0  0  0  0  0  0  0  0
   -3.7410    4.0457   -2.5712 H   0  0  0  0  0  0  0  0  0  0  0  0
   -3.7578    5.0599   -1.1193 H   0  0  0  0  0  0  0  0  0  0  0  0
  1  2  1  0
  1  7  1  0
  1  8  1  0
  1 27  1  0
  2  3  1  0
  2  9  1  0
  2 10  1  0
  3  4  1  0
  4  5  1  0
  4 11  1  0
  4 12  1  0
  5  6  1  0
  5 13  1  0
  5 14  1  0
  6 15  1  0
  6 16  1  0
  6 17  1  0
 18 19  1  0
 18 24  1  0
 18 25  1  0
 18 26  1  0
 19 20  1  0
 19 28  1  0
 20 21  1  0
 20 29  1  0
 20 30  1  0
 21 22  1  0
 22 23  1  0
 22 31  1  0
 22 32  1  0
 23 33  1  0
 23 34  1  0
 23 35  1  0
M  RAD  1  19   2
M  END
>  <reaction>  (15) 
rmg_rxn_224

>  <mol_properties>  (15) 
{"0": {"label": "*3", "atom_type": "Cs"}, "1": {"label": "*4", "atom_type": "Cs"}, "18": {"label": "*1", "atom_type": "Cs"}, "19": {"label": "*0", "atom_type": "Cs"}, "26": {"label": "*2", "atom_type": "H0"}}

>  <type>  (15) 
unop_11

>  <geom_source>  (15) 
Heuristics

$$$$

     RDKit          3D

 35 33  0  0  0  0  0  0  0  0999 V2000
    0.3886   -0.7603    0.8127 C   0  0  0  0  0  0  0  0  0  0  0  0
    1.2295   -1.2625   -0.3380 C   0  0  0  0  0  0  0  0  0  0  0  0
    2.3525   -1.9323    0.1755 O   0  0  0  0  0  0  0  0  0  0  0  0
    3.2017   -2.4404   -0.8223 C   0  0  0  0  0  0  0  0  0  0  0  0
    4.3564   -3.1751   -0.1725 C   0  0  0  0  0  0  0  0  0  0  0  0
    3.9155   -4.3905    0.6324 C   0  0  0  0  0  0  0  0  0  0  0  0
    0.0565   -1.5922    1.4348 H   0  0  0  0  0  0  0  0  0  0  0  0
    0.9636   -0.0735    1.4349 H   0  0  0  0  0  0  0  0  0  0  0  0
    1.5509   -0.4241   -0.9738 H   0  0  0  0  0  0  0  0  0  0  0  0
    0.6445   -1.9442   -0.9729 H   0  0  0  0  0  0  0  0  0  0  0  0
    2.6408   -3.1238   -1.4794 H   0  0  0  0  0  0  0  0  0  0  0  0
    3.5773   -1.6186   -1.4495 H   0  0  0  0  0  0  0  0  0  0  0  0
    4.8957   -2.4748    0.4704 H   0  0  0  0  0  0  0  0  0  0  0  0
    5.0492   -3.4781   -0.9624 H   0  0  0  0  0  0  0  0  0  0  0  0
    3.3953   -5.1112   -0.0035 H   0  0  0  0  0  0  0  0  0  0  0  0
    3.2357   -4.0978    1.4325 H   0  0  0  0  0  0  0  0  0  0  0  0
    4.7720   -4.8966    1.0803 H   0  0  0  0  0  0  0  0  0  0  0  0
   -1.7247    0.5018   -1.6123 C   0  0  0  0  0  0  0  0  0  0  0  0
   -1.7247    0.5018   -0.0893 C   0  0  0  0  0  3  0  0  0  0  0  0
   -1.7247    1.8949    0.5062 C   0  0  0  0  0  0  0  0  0  0  0  0
   -2.9077    2.5585    0.1386 O   0  0  0  0  0  0  0  0  0  0  0  0
   -2.9784    3.8766    0.6195 C   0  0  0  0  0  0  0  0  0  0  0  0
   -4.2817    4.4943    0.1686 C   0  0  0  0  0  0  0  0  0  0  0  0
   -0.8426    1.0162   -2.0019 H   0  0  0  0  0  0  0  0  0  0  0  0
   -2.6074    1.0115   -1.9983 H   0  0  0  0  0  0  0  0  0  0  0  0
   -1.7192   -0.5160   -2.0049 H   0  0  0  0  0  0  0  0  0  0  0  0
   -0.6668   -0.1299    0.3622 H   0  0  0  0  0  0  0  0  0  0  0  0
   -2.5990   -0.0361    0.2859 H   0  0  0  0  0  0  0  0  0  0  0  0
   -0.8505    2.4600    0.1458 H   0  0  0  0  0  0  0  0  0  0  0  0
   -1.6499    1.8410    1.6022 H   0  0  0  0  0  0  0  0  0  0  0  0
   -2.9111    3.8794    1.7175 H   0  0  0  0  0  0  0  0  0  0  0  0
   -2.1255    4.4595    0.2416 H   0  0  0  0  0  0  0  0  0  0  0  0
   -5.1281    3.9249    0.5543 H   0  0  0  0  0  0  0  0  0  0  0  0
   -4.3425    4.5062   -0.9202 H   0  0  0  0  0  0  0  0  0  0  0  0
   -4.3593    5.5204    0.5317 H   0  0  0  0  0  0  0  0  0  0  0  0
  1  2  1  0
  1  7  1  0
  1  8  1  0
  1 27  1  0
  2  3  1  0
  2  9  1  0
  2 10  1  0
  3  4  1  0
  4  5  1  0
  4 11  1  0
  4 12  1  0
  5  6  1  0
  5 13  1  0
  5 14  1  0
  6 15  1  0
  6 16  1  0
  6 17  1  0
 18 19  1  0
 18 24  1  0
 18 25  1  0
 18 26  1  0
 19 20  1  0
 19 28  1  0
 20 21  1  0
 20 29  1  0
 20 30  1  0
 21 22  1  0
 22 23  1  0
 22 31  1  0
 22 32  1  0
 23 33  1  0
 23 34  1  0
 23 35  1  0
M  RAD  1  19   2
M  END
>  <reaction>  (16) 
rmg_rxn_224

>  <mol_properties>  (16) 
{"0": {"label": "*3", "atom_type": "Cs"}, "1": {"label": "*4", "atom_type": "Cs"}, "18": {"label": "*1", "atom_type": "Cs"}, "19": {"label": "*0", "atom_type": "Cs"}, "26": {"label": "*2", "atom_type": "H0"}}

>  <type>  (16) 
unop_12

>  <geom_source>  (16) 
Heuristics

$$$$

     RDKit          3D

 35 33  0  0  0  0  0  0  0  0999 V2000
    2.4429    0.1283   -1.2774 O   0  0  0  0  0  0  0  0  0  0  0  0
   -3.1246    0.6382   -0.7531 O   0  0  0  0  0  0  0  0  0  0  0  0
    4.7802   -0.1390   -0.8286 C   0  0  0  0  0  0  0  0  0  0  0  0
    3.3871   -0.7545   -0.7075 C   0  0  0  0  0  0  0  0  0  0  0  0
    1.1269   -0.3487   -1.0683 C   0  0  0  0  0  0  0  0  0  0  0  0
   -3.5122    1.9240   -0.3043 C   0  0  0  0  0  0  0  0  0  0  0  0
   -3.1918   -0.3153    0.2905 C   0  0  0  0  0  0  0  0  0  0  0  0
    5.8466   -1.0546   -0.2340 C   0  0  0  0  0  0  0  0  0  0  0  0
    0.5039    0.3334    0.1433 C   0  0  0  0  0  0  0  0  0  0  0  0
   -4.9987    2.1497   -0.5589 C   0  0  0  0  0  0  0  0  0  0  0  0
   -1.8267   -1.5370    2.0309 C   0  0  0  0  0  0  0  0  0  0  0  0
   -1.8281   -0.4428    0.9704 C   0  0  0  0  0  3  0  0  0  0  0  0
    4.8004    0.8365   -0.2958 H   0  0  0  0  0  0  0  0  0  0  0  0
    5.0128    0.0417   -1.9005 H   0  0  0  0  0  0  0  0  0  0  0  0
    3.1674   -0.9299    0.3708 H   0  0  0  0  0  0  0  0  0  0  0  0
    3.3766   -1.7265   -1.2519 H   0  0  0  0  0  0  0  0  0  0  0  0
    0.5203   -0.0856   -1.9601 H   0  0  0  0  0  0  0  0  0  0  0  0
    1.0598   -1.4569   -0.9559 H   0  0  0  0  0  0  0  0  0  0  0  0
   -2.9432    2.6770   -0.8894 H   0  0  0  0  0  0  0  0  0  0  0  0
   -3.2723    2.1119    0.7685 H   0  0  0  0  0  0  0  0  0  0  0  0
    6.8446   -0.5791   -0.3383 H   0  0  0  0  0  0  0  0  0  0  0  0
    5.8600   -2.0290   -0.7674 H   0  0  0  0  0  0  0  0  0  0  0  0
    5.6476   -1.2293    0.8449 H   0  0  0  0  0  0  0  0  0  0  0  0
    1.0550    0.0602    1.0672 H   0  0  0  0  0  0  0  0  0  0  0  0
    0.5306    1.4362    0.0149 H   0  0  0  0  0  0  0  0  0  0  0  0
   -0.7331   -0.0472    0.2656 H   0  0  0  0  0  0  0  0  0  0  0  0
   -5.6060    1.4359    0.0358 H   0  0  0  0  0  0  0  0  0  0  0  0
   -5.2248    2.0092   -1.6372 H   0  0  0  0  0  0  0  0  0  0  0  0
   -5.2754    3.1843   -0.2656 H   0  0  0  0  0  0  0  0  0  0  0  0
   -3.4494   -1.2945   -0.1655 H   0  0  0  0  0  0  0  0  0  0  0  0
   -3.9874   -0.0948    1.0410 H   0  0  0  0  0  0  0  0  0  0  0  0
   -2.5632   -1.3026    2.8287 H   0  0  0  0  0  0  0  0  0  0  0  0
   -2.0774   -2.5162    1.5711 H   0  0  0  0  0  0  0  0  0  0  0  0
   -0.8161   -1.6072    2.4842 H   0  0  0  0  0  0  0  0  0  0  0  0
   -1.5323    0.5237    1.4315 H   0  0  0  0  0  0  0  0  0  0  0  0
  1  5  1  0
  1  4  1  0
  2  6  1  0
  2  7  1  0
  3  8  1  0
  3  4  1  0
  3 13  1  0
  3 14  1  0
  4 15  1  0
  4 16  1  0
  5  9  1  0
  5 17  1  0
  5 18  1  0
  6 10  1  0
  6 19  1  0
  6 20  1  0
  7 12  1  0
  7 30  1  0
  7 31  1  0
  8 21  1  0
  8 22  1  0
  8 23  1  0
  9 24  1  0
  9 25  1  0
  9 26  1  0
 10 27  1  0
 10 28  1  0
 10 29  1  0
 11 12  1  0
 11 32  1  0
 11 33  1  0
 11 34  1  0
 12 35  1  0
M  RAD  1  12   2
M  END
>  <reaction>  (17) 
rmg_rxn_224

>  <mol_properties>  (17) 
{"0": {"label": "*3", "atom_type": "Cs"}, "1": {"label": "*4", "atom_type": "Cs"}, "18": {"label": "*1", "atom_type": "Cs"}, "19": {"label": "*0", "atom_type": "Cs"}, "26": {"label": "*2", "atom_type": "H0"}}

>  <type>  (17) 
unop_13

>  <geom_source>  (17) 
AutoTST

$$$$

     RDKit          3D

 35 33  0  0  0  0  0  0  0  0999 V2000
    0.1142   -1.3420    0.6491 C   0  0  0  0  0  0  0  0  0  0  0  0
    1.2624   -1.2022   -0.3233 C   0  0  0  0  0  0  0  0  0  0  0  0
    2.4624   -1.5069    0.3405 O   0  0  0  0  0  0  0  0  0  0  0  0
    3.5957   -1.4061   -0.4844 C   0  0  0  0  0  0  0  0  0  0  0  0
    4.8289   -1.7898    0.3075 C   0  0  0  0  0  0  0  0  0  0  0  0
    4.8092   -3.2367    0.7823 C   0  0  0  0  0  0  0  0  0  0  0  0
    0.0620   -2.3608    1.0347 H   0  0  0  0  0  0  0  0  0  0  0  0
    0.2420   -0.6614    1.4916 H   0  0  0  0  0  0  0  0  0  0  0  0
    1.3046   -0.1784   -0.7237 H   0  0  0  0  0  0  0  0  0  0  0  0
    1.1257   -1.8790   -1.1796 H   0  0  0  0  0  0  0  0  0  0  0  0
    3.4848   -2.0700   -1.3564 H   0  0  0  0  0  0  0  0  0  0  0  0
    3.6919   -0.3789   -0.8658 H   0  0  0  0  0  0  0  0  0  0  0  0
    4.9158   -1.1152    1.1632 H   0  0  0  0  0  0  0  0  0  0  0  0
    5.7031   -1.6132   -0.3252 H   0  0  0  0  0  0  0  0  0  0  0  0
    4.7467   -3.9240   -0.0652 H   0  0  0  0  0  0  0  0  0  0  0  0
    3.9492   -3.4200    1.4263 H   0  0  0  0  0  0  0  0  0  0  0  0
    5.7133   -3.4783    1.3431 H   0  0  0  0  0  0  0  0  0  0  0  0
   -1.9991   -0.0799   -1.7759 C   0  0  0  0  0  0  0  0  0  0  0  0
   -1.9991   -0.0799   -0.2530 C   0  0  0  0  0  3  0  0  0  0  0  0
   -1.9991    1.3132    0.3426 C   0  0  0  0  0  0  0  0  0  0  0  0
   -3.1821    1.9768   -0.0250 O   0  0  0  0  0  0  0  0  0  0  0  0
   -3.2528    3.2948    0.4559 C   0  0  0  0  0  0  0  0  0  0  0  0
   -4.5561    3.9126    0.0050 C   0  0  0  0  0  0  0  0  0  0  0  0
   -1.1170    0.4344   -2.1655 H   0  0  0  0  0  0  0  0  0  0  0  0
   -2.8818    0.4298   -2.1619 H   0  0  0  0  0  0  0  0  0  0  0  0
   -1.9936   -1.0978   -2.1685 H   0  0  0  0  0  0  0  0  0  0  0  0
   -0.9413   -0.7117    0.1986 H   0  0  0  0  0  0  0  0  0  0  0  0
   -2.8735   -0.6179    0.1223 H   0  0  0  0  0  0  0  0  0  0  0  0
   -1.1249    1.8782   -0.0178 H   0  0  0  0  0  0  0  0  0  0  0  0
   -1.9243    1.2592    1.4386 H   0  0  0  0  0  0  0  0  0  0  0  0
   -3.1855    3.2977    1.5539 H   0  0  0  0  0  0  0  0  0  0  0  0
   -2.3999    3.8778    0.0780 H   0  0  0  0  0  0  0  0  0  0  0  0
   -5.4025    3.3432    0.3907 H   0  0  0  0  0  0  0  0  0  0  0  0
   -4.6169    3.9245   -1.0838 H   0  0  0  0  0  0  0  0  0  0  0  0
   -4.6337    4.9386    0.3681 H   0  0  0  0  0  0  0  0  0  0  0  0
  1  2  1  0
  1  7  1  0
  1  8  1  0
  1 27  1  0
  2  3  1  0
  2  9  1  0
  2 10  1  0
  3  4  1  0
  4  5  1  0
  4 11  1  0
  4 12  1  0
  5  6  1  0
  5 13  1  0
  5 14  1  0
  6 15  1  0
  6 16  1  0
  6 17  1  0
 18 19  1  0
 18 24  1  0
 18 25  1  0
 18 26  1  0
 19 20  1  0
 19 28  1  0
 20 21  1  0
 20 29  1  0
 20 30  1  0
 21 22  1  0
 22 23  1  0
 22 31  1  0
 22 32  1  0
 23 33  1  0
 23 34  1  0
 23 35  1  0
M  RAD  1  19   2
M  END
>  <reaction>  (18) 
rmg_rxn_224

>  <mol_properties>  (18) 
{"0": {"label": "*3", "atom_type": "Cs"}, "1": {"label": "*4", "atom_type": "Cs"}, "18": {"label": "*1", "atom_type": "Cs"}, "19": {"label": "*0", "atom_type": "Cs"}, "26": {"label": "*2", "atom_type": "H0"}}

>  <type>  (18) 
unop_14

>  <geom_source>  (18) 
gaussian_log

$$$$
