
     RDKit          3D

 12 11  0  0  0  0  0  0  0  0999 V2000
    1.4428    0.2441    1.3554 C   0  0  0  0  0  0  0  0  0  0  0  0
    0.3166    0.4887    0.4026 C   0  0  0  0  0  0  0  0  0  0  0  0
   -0.8306    1.0759    0.7113 C   0  0  0  0  0  0  0  0  0  0  0  0
   -1.9569    1.3205   -0.2415 C   0  0  0  0  0  0  0  0  0  0  0  0
    1.6690   -0.8228    1.4301 H   0  0  0  0  0  0  0  0  0  0  0  0
    2.3573    0.7388    1.0175 H   0  0  0  0  0  0  0  0  0  0  0  0
    1.2058    0.6125    2.3545 H   0  0  0  0  0  0  0  0  0  0  0  0
    0.4700    0.1508   -0.6205 H   0  0  0  0  0  0  0  0  0  0  0  0
   -0.9840    1.4138    1.7343 H   0  0  0  0  0  0  0  0  0  0  0  0
   -2.8714    0.8258    0.0963 H   0  0  0  0  0  0  0  0  0  0  0  0
   -2.1831    2.3874   -0.3163 H   0  0  0  0  0  0  0  0  0  0  0  0
   -1.7199    0.9521   -1.2407 H   0  0  0  0  0  0  0  0  0  0  0  0
  1  2  1  0
  1  5  1  0
  1  6  1  0
  1  7  1  0
  2  3  2  3
  2  8  1  0
  3  4  1  0
  3  9  1  0
  4 10  1  0
  4 11  1  0
  4 12  1  0
M  END
>  <reaction>  (1) 
rmg_rxn_15434

>  <mol_properties>  (1) 
{"2": {"label": "donator", "atom_type": "Cd"}, "8": {"label": "d_hydrogen", "atom_type": "H0"}}

>  <type>  (1) 
r1h

$$$$

     RDKit          3D

  5  4  0  0  0  0  0  0  0  0999 V2000
    0.8934    0.3742    0.4948 O   0  0  0  0  0  0  0  0  0  0  0  0
    0.1582   -0.1610   -0.5904 N   0  0  0  0  0  0  0  0  0  0  0  0
   -1.0297   -0.3739   -0.4689 C   0  0  0  0  0  3  0  0  0  0  0  0
    1.7804    0.4382    0.1306 H   0  0  0  0  0  0  0  0  0  0  0  0
   -1.8023   -0.2775    0.2859 H   0  0  0  0  0  0  0  0  0  0  0  0
  1  2  1  0
  1  4  1  0
  2  3  2  3
  3  5  1  0
M  RAD  1   3   2
M  END
>  <reaction>  (2) 
rmg_rxn_15434

>  <mol_properties>  (2) 
{"2": {"label": "acceptor", "atom_type": "Cd"}}

>  <type>  (2) 
r2

$$$$

     RDKit          3D

  6  5  0  0  0  0  0  0  0  0999 V2000
    1.2314    0.0428    0.5088 O   0  0  0  0  0  0  0  0  0  0  0  0
    0.2987    0.2341   -0.4915 N   0  0  0  0  0  0  0  0  0  0  0  0
   -0.8599   -0.1122   -0.1290 C   0  0  0  0  0  0  0  0  0  0  0  0
    2.0507    0.3401    0.1082 H   0  0  0  0  0  0  0  0  0  0  0  0
   -1.0700   -0.5112    0.8610 H   0  0  0  0  0  0  0  0  0  0  0  0
   -1.6509    0.0064   -0.8574 H   0  0  0  0  0  0  0  0  0  0  0  0
  1  2  1  0
  1  4  1  0
  2  3  2  3
  3  5  1  0
  3  6  1  0
M  END
>  <reaction>  (3) 
rmg_rxn_15434

>  <mol_properties>  (3) 
{"2": {"label": "acceptor", "atom_type": "Cd"}, "5": {"label": "a_hydrogen", "atom_type": "H0"}}

>  <type>  (3) 
r2h

$$$$

     RDKit          3D

 17 15  0  0  0  0  0  0  0  0999 V2000
    0.0000    2.7691   -1.6788 O   0  0  0  0  0  0  0  0  0  0  0  0
    0.0000    1.4616   -1.1805 N   0  0  0  0  0  0  0  0  0  0  0  0
   -0.0000    1.3995    0.0640 C   0  0  0  0  0  3  0  0  0  0  0  0
    0.0000    2.6349   -2.6292 H   0  0  0  0  0  0  0  0  0  0  0  0
   -0.0000    2.2396    0.7589 H   0  0  0  0  0  0  0  0  0  0  0  0
   -0.0000   -2.1073   -1.0747 C   0  0  0  0  0  0  0  0  0  0  0  0
   -0.0000   -2.0903    0.4219 C   0  0  0  0  0  0  0  0  0  0  0  0
    0.0000   -1.0212    1.1903 C   0  0  0  0  0  0  0  0  0  0  0  0
    0.0000   -0.8927    2.6693 C   0  0  0  0  0  0  0  0  0  0  0  0
    0.8782   -2.6377   -1.4514 H   0  0  0  0  0  0  0  0  0  0  0  0
   -0.8783   -2.6377   -1.4514 H   0  0  0  0  0  0  0  0  0  0  0  0
   -0.0000   -1.0995   -1.4884 H   0  0  0  0  0  0  0  0  0  0  0  0
    0.0000   -3.0644    0.9158 H   0  0  0  0  0  0  0  0  0  0  0  0
   -0.0000    0.1385    0.5978 H   0  0  0  0  0  0  0  0  0  0  0  0
    0.8804   -0.3474    3.0180 H   0  0  0  0  0  0  0  0  0  0  0  0
   -0.8804   -0.3474    3.0180 H   0  0  0  0  0  0  0  0  0  0  0  0
    0.0000   -1.8779    3.1435 H   0  0  0  0  0  0  0  0  0  0  0  0
  1  2  1  0
  1  4  1  0
  2  3  2  3
  3  5  1  0
  6  7  1  0
  6 10  1  0
  6 11  1  0
  6 12  1  0
  7  8  2  3
  7 13  1  0
  8  9  1  0
  8 14  1  0
  9 15  1  0
  9 16  1  0
  9 17  1  0
M  RAD  1   3   2
M  END
>  <reaction>  (4) 
rmg_rxn_15434

>  <mol_properties>  (4) 
{"1": {"label": "*4", "atom_type": "N3d"}, "2": {"label": "*3", "atom_type": "Cd"}, "6": {"label": "*0", "atom_type": "Cd"}, "7": {"label": "*1", "atom_type": "Cd"}, "13": {"label": "*2", "atom_type": "H0"}}

>  <type>  (4) 
ts

$$$$

     RDKit          3D

 17 15  0  0  0  0  0  0  0  0999 V2000
   -3.2143    0.0619   -0.0000 O   0  0  0  0  0  0  0  0  0  0  0  0
   -1.8095   -0.1037    0.0000 N   0  0  0  0  0  0  0  0  0  0  0  0
   -1.0697    0.8864   -0.0000 C   0  0  0  0  0  3  0  0  0  0  0  0
   -3.5617   -0.8403    0.0000 H   0  0  0  0  0  0  0  0  0  0  0  0
   -1.3202    1.9402    0.0000 H   0  0  0  0  0  0  0  0  0  0  0  0
    1.0641   -2.0528   -0.0000 C   0  0  0  0  0  0  0  0  0  0  0  0
    1.9326   -0.8368   -0.0000 C   0  0  0  0  0  0  0  0  0  0  0  0
    1.5038    0.4032   -0.0000 C   0  0  0  0  0  0  0  0  0  0  0  0
    2.2662    1.6734    0.0000 C   0  0  0  0  0  0  0  0  0  0  0  0
    1.2739   -2.6611   -0.8795 H   0  0  0  0  0  0  0  0  0  0  0  0
    1.2739   -2.6611    0.8795 H   0  0  0  0  0  0  0  0  0  0  0  0
    0.0144   -1.7750    0.0000 H   0  0  0  0  0  0  0  0  0  0  0  0
    3.0045   -1.0408    0.0000 H   0  0  0  0  0  0  0  0  0  0  0  0
    0.2170    0.6041    0.0000 H   0  0  0  0  0  0  0  0  0  0  0  0
    2.0184    2.2655   -0.8813 H   0  0  0  0  0  0  0  0  0  0  0  0
    2.0184    2.2655    0.8813 H   0  0  0  0  0  0  0  0  0  0  0  0
    3.3413    1.4853    0.0000 H   0  0  0  0  0  0  0  0  0  0  0  0
  1  2  1  0
  1  4  1  0
  2  3  2  3
  3  5  1  0
  6  7  1  0
  6 10  1  0
  6 11  1  0
  6 12  1  0
  7  8  2  3
  7 13  1  0
  8  9  1  0
  8 14  1  0
  9 15  1  0
  9 16  1  0
  9 17  1  0
M  RAD  1   3   2
M  END
>  <reaction>  (5) 
rmg_rxn_15434

>  <mol_properties>  (5) 
{"1": {"label": "*4", "atom_type": "N3d"}, "2": {"label": "*3", "atom_type": "Cd"}, "6": {"label": "*0", "atom_type": "Cd"}, "7": {"label": "*1", "atom_type": "Cd"}, "13": {"label": "*2", "atom_type": "H0"}}

>  <type>  (5) 
unop_1

>  <geom_source>  (5) 
crest_best.xyz

$$$$

     RDKit          3D

 17 15  0  0  0  0  0  0  0  0999 V2000
   -0.3452    3.2059   -0.0722 O   0  0  0  0  0  0  0  0  0  0  0  0
   -0.7446    1.9023   -0.2918 N   0  0  0  0  0  0  0  0  0  0  0  0
    0.2330    1.1460   -0.5483 C   0  0  0  0  0  0  0  0  0  0  0  0
   -1.1689    3.6632    0.1077 H   0  0  0  0  0  0  0  0  0  0  0  0
    1.2590    1.5057   -0.5855 H   0  0  0  0  0  0  0  0  0  0  0  0
    0.2330   -2.2731   -1.6559 C   0  0  0  0  0  0  0  0  0  0  0  0
    0.2330   -2.2731   -0.1605 C   0  0  0  0  0  0  0  0  0  0  0  0
    0.2330   -1.1899    0.6029 C   0  0  0  0  0  3  0  0  0  0  0  0
    0.2330   -1.1899    2.0982 C   0  0  0  0  0  0  0  0  0  0  0  0
    1.1109   -2.7931   -2.0484 H   0  0  0  0  0  0  0  0  0  0  0  0
   -0.6449   -2.7931   -2.0484 H   0  0  0  0  0  0  0  0  0  0  0  0
    0.2330   -1.2573   -2.0538 H   0  0  0  0  0  0  0  0  0  0  0  0
    0.2330   -3.2493    0.3205 H   0  0  0  0  0  0  0  0  0  0  0  0
    0.2330   -0.0185    0.0256 H   0  0  0  0  0  0  0  0  0  0  0  0
    1.1109   -0.6699    2.4908 H   0  0  0  0  0  0  0  0  0  0  0  0
   -0.6449   -0.6699    2.4908 H   0  0  0  0  0  0  0  0  0  0  0  0
    0.2330   -2.2058    2.4961 H   0  0  0  0  0  0  0  0  0  0  0  0
  1  2  1  0
  1  4  1  0
  2  3  2  3
  3  5  1  0
  3 14  1  0
  6  7  1  0
  6 10  1  0
  6 11  1  0
  6 12  1  0
  7  8  2  3
  7 13  1  0
  8  9  1  0
  9 15  1  0
  9 16  1  0
  9 17  1  0
M  RAD  1   8   2
M  END
>  <reaction>  (6) 
rmg_rxn_15434

>  <mol_properties>  (6) 
{"1": {"label": "*4", "atom_type": "N3d"}, "2": {"label": "*3", "atom_type": "Cd"}, "6": {"label": "*0", "atom_type": "Cd"}, "7": {"label": "*1", "atom_type": "Cd"}, "13": {"label": "*2", "atom_type": "H0"}}

>  <type>  (6) 
unop_2

>  <geom_source>  (6) 
Heuristics

$$$$

     RDKit          3D

 17 15  0  0  0  0  0  0  0  0999 V2000
   -3.2143   -0.0618    0.0010 O   0  0  0  0  0  0  0  0  0  0  0  0
   -1.8096    0.1036   -0.0006 N   0  0  0  0  0  0  0  0  0  0  0  0
   -1.0698   -0.8865   -0.0013 C   0  0  0  0  0  3  0  0  0  0  0  0
   -3.5616    0.8406    0.0013 H   0  0  0  0  0  0  0  0  0  0  0  0
   -1.3201   -1.9403   -0.0007 H   0  0  0  0  0  0  0  0  0  0  0  0
    1.0644    2.0529   -0.0004 C   0  0  0  0  0  0  0  0  0  0  0  0
    1.9326    0.8367    0.0006 C   0  0  0  0  0  0  0  0  0  0  0  0
    1.5037   -0.4033   -0.0002 C   0  0  0  0  0  0  0  0  0  0  0  0
    2.2661   -1.6734    0.0004 C   0  0  0  0  0  0  0  0  0  0  0  0
    1.2747    2.6607   -0.8800 H   0  0  0  0  0  0  0  0  0  0  0  0
    0.0146    1.7751   -0.0009 H   0  0  0  0  0  0  0  0  0  0  0  0
    1.2737    2.6615    0.8790 H   0  0  0  0  0  0  0  0  0  0  0  0
    3.0046    1.0405    0.0020 H   0  0  0  0  0  0  0  0  0  0  0  0
    0.2169   -0.6041   -0.0014 H   0  0  0  0  0  0  0  0  0  0  0  0
    2.0206   -2.2646   -0.8821 H   0  0  0  0  0  0  0  0  0  0  0  0
    3.3413   -1.4852    0.0033 H   0  0  0  0  0  0  0  0  0  0  0  0
    2.0162   -2.2665    0.8805 H   0  0  0  0  0  0  0  0  0  0  0  0
  1  2  1  0
  1  4  1  0
  2  3  2  3
  3  5  1  0
  6  7  1  0
  6 10  1  0
  6 11  1  0
  6 12  1  0
  7  8  2  3
  7 13  1  0
  8  9  1  0
  8 14  1  0
  9 15  1  0
  9 16  1  0
  9 17  1  0
M  RAD  1   3   2
M  END
>  <reaction>  (7) 
rmg_rxn_15434

>  <mol_properties>  (7) 
{"1": {"label": "*4", "atom_type": "N3d"}, "2": {"label": "*3", "atom_type": "Cd"}, "6": {"label": "*0", "atom_type": "Cd"}, "7": {"label": "*1", "atom_type": "Cd"}, "13": {"label": "*2", "atom_type": "H0"}}

>  <type>  (7) 
unop_3

>  <geom_source>  (7) 
Heuristics

$$$$

     RDKit          3D

 17 15  0  0  0  0  0  0  0  0999 V2000
   -3.2144    0.0617   -0.0008 O   0  0  0  0  0  0  0  0  0  0  0  0
   -1.8096   -0.1037    0.0020 N   0  0  0  0  0  0  0  0  0  0  0  0
   -1.0698    0.8863   -0.0009 C   0  0  0  0  0  3  0  0  0  0  0  0
   -3.5617   -0.8407    0.0024 H   0  0  0  0  0  0  0  0  0  0  0  0
   -1.3201    1.9402   -0.0056 H   0  0  0  0  0  0  0  0  0  0  0  0
    1.0647   -2.0529   -0.0003 C   0  0  0  0  0  0  0  0  0  0  0  0
    1.9328   -0.8366   -0.0005 C   0  0  0  0  0  0  0  0  0  0  0  0
    1.5036    0.4033    0.0004 C   0  0  0  0  0  0  0  0  0  0  0  0
    2.2659    1.6736    0.0003 C   0  0  0  0  0  0  0  0  0  0  0  0
    1.2764   -2.6621    0.8781 H   0  0  0  0  0  0  0  0  0  0  0  0
    0.0149   -1.7754    0.0020 H   0  0  0  0  0  0  0  0  0  0  0  0
    1.2731   -2.6601   -0.8809 H   0  0  0  0  0  0  0  0  0  0  0  0
    3.0048   -1.0402   -0.0015 H   0  0  0  0  0  0  0  0  0  0  0  0
    0.2169    0.6040    0.0007 H   0  0  0  0  0  0  0  0  0  0  0  0
    2.0172    2.2661   -0.8805 H   0  0  0  0  0  0  0  0  0  0  0  0
    2.0188    2.2653    0.8821 H   0  0  0  0  0  0  0  0  0  0  0  0
    3.3410    1.4856   -0.0008 H   0  0  0  0  0  0  0  0  0  0  0  0
  1  2  1  0
  1  4  1  0
  2  3  2  3
  3  5  1  0
  6  7  1  0
  6 10  1  0
  6 11  1  0
  6 12  1  0
  7  8  2  3
  7 13  1  0
  8  9  1  0
  8 14  1  0
  9 15  1  0
  9 16  1  0
  9 17  1  0
M  RAD  1   3   2
M  END
>  <reaction>  (8) 
rmg_rxn_15434

>  <mol_properties>  (8) 
{"1": {"label": "*4", "atom_type": "N3d"}, "2": {"label": "*3", "atom_type": "Cd"}, "6": {"label": "*0", "atom_type": "Cd"}, "7": {"label": "*1", "atom_type": "Cd"}, "13": {"label": "*2", "atom_type": "H0"}}

>  <type>  (8) 
unop_4

>  <geom_source>  (8) 
Heuristics

$$$$

     RDKit          3D

 17 15  0  0  0  0  0  0  0  0999 V2000
    3.2151    0.0610    0.0000 O   0  0  0  0  0  0  0  0  0  0  0  0
    1.8103   -0.1048    0.0044 N   0  0  0  0  0  0  0  0  0  0  0  0
    1.0704    0.8851   -0.0056 C   0  0  0  0  0  3  0  0  0  0  0  0
    3.5627   -0.8412    0.0102 H   0  0  0  0  0  0  0  0  0  0  0  0
    1.3207    1.9389   -0.0179 H   0  0  0  0  0  0  0  0  0  0  0  0
   -1.0678   -2.0530   -0.0015 C   0  0  0  0  0  0  0  0  0  0  0  0
   -1.9342   -0.8355   -0.0002 C   0  0  0  0  0  0  0  0  0  0  0  0
   -1.5033    0.4038    0.0004 C   0  0  0  0  0  0  0  0  0  0  0  0
   -2.2638    1.6752    0.0021 C   0  0  0  0  0  0  0  0  0  0  0  0
   -0.0176   -1.7769   -0.0002 H   0  0  0  0  0  0  0  0  0  0  0  0
   -1.2793   -2.6622    0.8769 H   0  0  0  0  0  0  0  0  0  0  0  0
   -1.2779   -2.6596   -0.8821 H   0  0  0  0  0  0  0  0  0  0  0  0
   -3.0064   -1.0377    0.0002 H   0  0  0  0  0  0  0  0  0  0  0  0
   -0.2163    0.6031   -0.0015 H   0  0  0  0  0  0  0  0  0  0  0  0
   -3.3393    1.4886   -0.0006 H   0  0  0  0  0  0  0  0  0  0  0  0
   -2.0170    2.2645    0.8856 H   0  0  0  0  0  0  0  0  0  0  0  0
   -2.0133    2.2693   -0.8770 H   0  0  0  0  0  0  0  0  0  0  0  0
  1  2  1  0
  1  4  1  0
  2  3  2  3
  3  5  1  0
  6  7  1  0
  6 10  1  0
  6 11  1  0
  6 12  1  0
  7  8  2  3
  7 13  1  0
  8  9  1  0
  8 14  1  0
  9 15  1  0
  9 16  1  0
  9 17  1  0
M  RAD  1   3   2
M  END
>  <reaction>  (9) 
rmg_rxn_15434

>  <mol_properties>  (9) 
{"1": {"label": "*4", "atom_type": "N3d"}, "2": {"label": "*3", "atom_type": "Cd"}, "6": {"label": "*0", "atom_type": "Cd"}, "7": {"label": "*1", "atom_type": "Cd"}, "13": {"label": "*2", "atom_type": "H0"}}

>  <type>  (9) 
unop_5

>  <geom_source>  (9) 
Heuristics

$$$$

     RDKit          3D

 17 15  0  0  0  0  0  0  0  0999 V2000
   -0.6356    2.7361   -1.4893 O   0  0  0  0  0  0  0  0  0  0  0  0
   -0.3367    1.4321   -1.1470 N   0  0  0  0  0  0  0  0  0  0  0  0
    0.2277    1.3573   -0.0203 C   0  0  0  0  0  0  0  0  0  0  0  0
   -1.0521    2.6501   -2.3490 H   0  0  0  0  0  0  0  0  0  0  0  0
    0.4413    2.2336    0.5881 H   0  0  0  0  0  0  0  0  0  0  0  0
    0.2277   -2.0618   -1.1279 C   0  0  0  0  0  0  0  0  0  0  0  0
    0.2277   -2.0618    0.3674 C   0  0  0  0  0  0  0  0  0  0  0  0
    0.2277   -0.9786    1.1308 C   0  0  0  0  0  3  0  0  0  0  0  0
    0.2277   -0.9786    2.6262 C   0  0  0  0  0  0  0  0  0  0  0  0
    1.1056   -2.5818   -1.5205 H   0  0  0  0  0  0  0  0  0  0  0  0
   -0.6502   -2.5818   -1.5205 H   0  0  0  0  0  0  0  0  0  0  0  0
    0.2277   -1.0460   -1.5258 H   0  0  0  0  0  0  0  0  0  0  0  0
    0.2277   -3.0380    0.8485 H   0  0  0  0  0  0  0  0  0  0  0  0
    0.2277    0.1929    0.5535 H   0  0  0  0  0  0  0  0  0  0  0  0
    1.1056   -0.4586    3.0187 H   0  0  0  0  0  0  0  0  0  0  0  0
   -0.6502   -0.4586    3.0187 H   0  0  0  0  0  0  0  0  0  0  0  0
    0.2277   -1.9944    3.0241 H   0  0  0  0  0  0  0  0  0  0  0  0
  1  2  1  0
  1  4  1  0
  2  3  2  3
  3  5  1  0
  3 14  1  0
  6  7  1  0
  6 10  1  0
  6 11  1  0
  6 12  1  0
  7  8  2  3
  7 13  1  0
  8  9  1  0
  9 15  1  0
  9 16  1  0
  9 17  1  0
M  RAD  1   8   2
M  END
>  <reaction>  (10) 
rmg_rxn_15434

>  <mol_properties>  (10) 
{"1": {"label": "*4", "atom_type": "N3d"}, "2": {"label": "*3", "atom_type": "Cd"}, "6": {"label": "*0", "atom_type": "Cd"}, "7": {"label": "*1", "atom_type": "Cd"}, "13": {"label": "*2", "atom_type": "H0"}}

>  <type>  (10) 
unop_6

>  <geom_source>  (10) 
Heuristics

$$$$

     RDKit          3D

 17 15  0  0  0  0  0  0  0  0999 V2000
   -3.2147   -0.0612   -0.0001 O   0  0  0  0  0  0  0  0  0  0  0  0
   -1.8100    0.1042    0.0015 N   0  0  0  0  0  0  0  0  0  0  0  0
   -1.0702   -0.8858   -0.0017 C   0  0  0  0  0  3  0  0  0  0  0  0
   -3.5621    0.8411    0.0030 H   0  0  0  0  0  0  0  0  0  0  0  0
   -1.3204   -1.9397   -0.0051 H   0  0  0  0  0  0  0  0  0  0  0  0
    1.0664    2.0530   -0.0001 C   0  0  0  0  0  0  0  0  0  0  0  0
    1.9334    0.8360   -0.0006 C   0  0  0  0  0  0  0  0  0  0  0  0
    1.5034   -0.4036   -0.0001 C   0  0  0  0  0  0  0  0  0  0  0  0
    2.2648   -1.6744    0.0009 C   0  0  0  0  0  0  0  0  0  0  0  0
    0.0162    1.7764   -0.0043 H   0  0  0  0  0  0  0  0  0  0  0  0
    1.2739    2.6581    0.8822 H   0  0  0  0  0  0  0  0  0  0  0  0
    1.2799    2.6640   -0.8769 H   0  0  0  0  0  0  0  0  0  0  0  0
    3.0056    1.0388   -0.0006 H   0  0  0  0  0  0  0  0  0  0  0  0
    0.2167   -0.6037   -0.0007 H   0  0  0  0  0  0  0  0  0  0  0  0
    2.0159   -2.2676   -0.8794 H   0  0  0  0  0  0  0  0  0  0  0  0
    3.3401   -1.4870   -0.0002 H   0  0  0  0  0  0  0  0  0  0  0  0
    2.0173   -2.2650    0.8834 H   0  0  0  0  0  0  0  0  0  0  0  0
  1  2  1  0
  1  4  1  0
  2  3  2  3
  3  5  1  0
  6  7  1  0
  6 10  1  0
  6 11  1  0
  6 12  1  0
  7  8  2  3
  7 13  1  0
  8  9  1  0
  8 14  1  0
  9 15  1  0
  9 16  1  0
  9 17  1  0
M  RAD  1   3   2
M  END
>  <reaction>  (11) 
rmg_rxn_15434

>  <mol_properties>  (11) 
{"1": {"label": "*4", "atom_type": "N3d"}, "2": {"label": "*3", "atom_type": "Cd"}, "6": {"label": "*0", "atom_type": "Cd"}, "7": {"label": "*1", "atom_type": "Cd"}, "13": {"label": "*2", "atom_type": "H0"}}

>  <type>  (11) 
unop_7

>  <geom_source>  (11) 
Heuristics

$$$$

     RDKit          3D

 17 15  0  0  0  0  0  0  0  0999 V2000
    0.1151    3.2599   -0.1876 O   0  0  0  0  0  0  0  0  0  0  0  0
   -0.4970    2.0437    0.0431 N   0  0  0  0  0  0  0  0  0  0  0  0
    0.0674    1.1047   -0.5840 C   0  0  0  0  0  0  0  0  0  0  0  0
   -0.4031    3.8725    0.3379 H   0  0  0  0  0  0  0  0  0  0  0  0
    0.9327    1.2636   -1.2240 H   0  0  0  0  0  0  0  0  0  0  0  0
    0.0674   -2.3144   -1.6916 C   0  0  0  0  0  0  0  0  0  0  0  0
    0.0674   -2.3144   -0.1963 C   0  0  0  0  0  0  0  0  0  0  0  0
    0.0674   -1.2312    0.5671 C   0  0  0  0  0  3  0  0  0  0  0  0
    0.0674   -1.2312    2.0625 C   0  0  0  0  0  0  0  0  0  0  0  0
    0.9452   -2.8344   -2.0842 H   0  0  0  0  0  0  0  0  0  0  0  0
   -0.8105   -2.8344   -2.0842 H   0  0  0  0  0  0  0  0  0  0  0  0
    0.0674   -1.2986   -2.0895 H   0  0  0  0  0  0  0  0  0  0  0  0
    0.0674   -3.2906    0.2848 H   0  0  0  0  0  0  0  0  0  0  0  0
    0.0674   -0.0598   -0.0102 H   0  0  0  0  0  0  0  0  0  0  0  0
    0.9452   -0.7112    2.4550 H   0  0  0  0  0  0  0  0  0  0  0  0
   -0.8105   -0.7112    2.4550 H   0  0  0  0  0  0  0  0  0  0  0  0
    0.0674   -2.2470    2.4604 H   0  0  0  0  0  0  0  0  0  0  0  0
  1  2  1  0
  1  4  1  0
  2  3  2  3
  3  5  1  0
  3 14  1  0
  6  7  1  0
  6 10  1  0
  6 11  1  0
  6 12  1  0
  7  8  2  3
  7 13  1  0
  8  9  1  0
  9 15  1  0
  9 16  1  0
  9 17  1  0
M  RAD  1   8   2
M  END
>  <reaction>  (12) 
rmg_rxn_15434

>  <mol_properties>  (12) 
{"1": {"label": "*4", "atom_type": "N3d"}, "2": {"label": "*3", "atom_type": "Cd"}, "6": {"label": "*0", "atom_type": "Cd"}, "7": {"label": "*1", "atom_type": "Cd"}, "13": {"label": "*2", "atom_type": "H0"}}

>  <type>  (12) 
unop_8

>  <geom_source>  (12) 
Heuristics

$$$$

     RDKit          3D

 17 15  0  0  0  0  0  0  0  0999 V2000
    0.9367    2.8948   -0.9457 O   0  0  0  0  0  0  0  0  0  0  0  0
    0.6183    1.5511   -0.9528 N   0  0  0  0  0  0  0  0  0  0  0  0
   -0.3593    1.2937   -0.1968 C   0  0  0  0  0  0  0  0  0  0  0  0
    1.6803    2.9499   -1.5491 H   0  0  0  0  0  0  0  0  0  0  0  0
   -0.8718    2.0600    0.3809 H   0  0  0  0  0  0  0  0  0  0  0  0
   -0.3593   -2.1254   -1.3044 C   0  0  0  0  0  0  0  0  0  0  0  0
   -0.3593   -2.1254    0.1910 C   0  0  0  0  0  0  0  0  0  0  0  0
   -0.3593   -1.0422    0.9544 C   0  0  0  0  0  3  0  0  0  0  0  0
   -0.3593   -1.0422    2.4497 C   0  0  0  0  0  0  0  0  0  0  0  0
    0.5186   -2.6454   -1.6969 H   0  0  0  0  0  0  0  0  0  0  0  0
   -1.2372   -2.6454   -1.6969 H   0  0  0  0  0  0  0  0  0  0  0  0
   -0.3593   -1.1096   -1.7023 H   0  0  0  0  0  0  0  0  0  0  0  0
   -0.3593   -3.1016    0.6720 H   0  0  0  0  0  0  0  0  0  0  0  0
   -0.3593    0.1292    0.3771 H   0  0  0  0  0  0  0  0  0  0  0  0
    0.5186   -0.5222    2.8423 H   0  0  0  0  0  0  0  0  0  0  0  0
   -1.2372   -0.5222    2.8423 H   0  0  0  0  0  0  0  0  0  0  0  0
   -0.3593   -2.0580    2.8476 H   0  0  0  0  0  0  0  0  0  0  0  0
  1  2  1  0
  1  4  1  0
  2  3  2  3
  3  5  1  0
  3 14  1  0
  6  7  1  0
  6 10  1  0
  6 11  1  0
  6 12  1  0
  7  8  2  3
  7 13  1  0
  8  9  1  0
  9 15  1  0
  9 16  1  0
  9 17  1  0
M  RAD  1   8   2
M  END
>  <reaction>  (13) 
rmg_rxn_15434

>  <mol_properties>  (13) 
{"1": {"label": "*4", "atom_type": "N3d"}, "2": {"label": "*3", "atom_type": "Cd"}, "6": {"label": "*0", "atom_type": "Cd"}, "7": {"label": "*1", "atom_type": "Cd"}, "13": {"label": "*2", "atom_type": "H0"}}

>  <type>  (13) 
unop_9

>  <geom_source>  (13) 
Heuristics

$$$$

     RDKit          3D

 17 15  0  0  0  0  0  0  0  0999 V2000
   -3.2146    0.0613    0.0012 O   0  0  0  0  0  0  0  0  0  0  0  0
   -1.8098   -0.1039    0.0018 N   0  0  0  0  0  0  0  0  0  0  0  0
   -1.0700    0.8861   -0.0045 C   0  0  0  0  0  3  0  0  0  0  0  0
   -3.5617   -0.8411    0.0071 H   0  0  0  0  0  0  0  0  0  0  0  0
   -1.3201    1.9400   -0.0114 H   0  0  0  0  0  0  0  0  0  0  0  0
    1.0656   -2.0529   -0.0013 C   0  0  0  0  0  0  0  0  0  0  0  0
    1.9331   -0.8363    0.0006 C   0  0  0  0  0  0  0  0  0  0  0  0
    1.5035    0.4035   -0.0000 C   0  0  0  0  0  0  0  0  0  0  0  0
    2.2654    1.6740    0.0017 C   0  0  0  0  0  0  0  0  0  0  0  0
    1.2762   -2.6600   -0.8815 H   0  0  0  0  0  0  0  0  0  0  0  0
    1.2755   -2.6622    0.8775 H   0  0  0  0  0  0  0  0  0  0  0  0
    0.0157   -1.7759   -0.0014 H   0  0  0  0  0  0  0  0  0  0  0  0
    3.0052   -1.0394    0.0024 H   0  0  0  0  0  0  0  0  0  0  0  0
    0.2167    0.6038   -0.0024 H   0  0  0  0  0  0  0  0  0  0  0  0
    3.3406    1.4863    0.0022 H   0  0  0  0  0  0  0  0  0  0  0  0
    2.0179    2.2669   -0.8791 H   0  0  0  0  0  0  0  0  0  0  0  0
    2.0168    2.2651    0.8834 H   0  0  0  0  0  0  0  0  0  0  0  0
  1  2  1  0
  1  4  1  0
  2  3  2  3
  3  5  1  0
  6  7  1  0
  6 10  1  0
  6 11  1  0
  6 12  1  0
  7  8  2  3
  7 13  1  0
  8  9  1  0
  8 14  1  0
  9 15  1  0
  9 16  1  0
  9 17  1  0
M  RAD  1   3   2
M  END
>  <reaction>  (14) 
rmg_rxn_15434

>  <mol_properties>  (14) 
{"1": {"label": "*4", "atom_type": "N3d"}, "2": {"label": "*3", "atom_type": "Cd"}, "6": {"label": "*0", "atom_type": "Cd"}, "7": {"label": "*1", "atom_type": "Cd"}, "13": {"label": "*2", "atom_type": "H0"}}

>  <type>  (14) 
unop_10

>  <geom_source>  (14) 
Heuristics

$$$$

     RDKit          3D

 17 15  0  0  0  0  0  0  0  0999 V2000
    0.0000    3.2806   -0.4878 O   0  0  0  0  0  0  0  0  0  0  0  0
    0.0000    2.0952    0.2207 N   0  0  0  0  0  0  0  0  0  0  0  0
    0.0000    1.0894   -0.5420 C   0  0  0  0  0  0  0  0  0  0  0  0
    0.0000    3.9499    0.1992 H   0  0  0  0  0  0  0  0  0  0  0  0
    0.0000    1.1756   -1.6265 H   0  0  0  0  0  0  0  0  0  0  0  0
   -0.0000   -2.3297   -1.6496 C   0  0  0  0  0  0  0  0  0  0  0  0
   -0.0000   -2.3297   -0.1543 C   0  0  0  0  0  0  0  0  0  0  0  0
   -0.0000   -1.2465    0.6091 C   0  0  0  0  0  3  0  0  0  0  0  0
   -0.0000   -1.2465    2.1045 C   0  0  0  0  0  0  0  0  0  0  0  0
    0.8779   -2.8497   -2.0422 H   0  0  0  0  0  0  0  0  0  0  0  0
   -0.8779   -2.8497   -2.0422 H   0  0  0  0  0  0  0  0  0  0  0  0
   -0.0000   -1.3139   -2.0475 H   0  0  0  0  0  0  0  0  0  0  0  0
   -0.0000   -3.3059    0.3268 H   0  0  0  0  0  0  0  0  0  0  0  0
   -0.0000   -0.0751    0.0319 H   0  0  0  0  0  0  0  0  0  0  0  0
    0.8779   -0.7265    2.4970 H   0  0  0  0  0  0  0  0  0  0  0  0
   -0.8779   -0.7265    2.4970 H   0  0  0  0  0  0  0  0  0  0  0  0
   -0.0000   -2.2623    2.5024 H   0  0  0  0  0  0  0  0  0  0  0  0
  1  2  1  0
  1  4  1  0
  2  3  2  3
  3  5  1  0
  3 14  1  0
  6  7  1  0
  6 10  1  0
  6 11  1  0
  6 12  1  0
  7  8  2  3
  7 13  1  0
  8  9  1  0
  9 15  1  0
  9 16  1  0
  9 17  1  0
M  RAD  1   8   2
M  END
>  <reaction>  (15) 
rmg_rxn_15434

>  <mol_properties>  (15) 
{"1": {"label": "*4", "atom_type": "N3d"}, "2": {"label": "*3", "atom_type": "Cd"}, "6": {"label": "*0", "atom_type": "Cd"}, "7": {"label": "*1", "atom_type": "Cd"}, "13": {"label": "*2", "atom_type": "H0"}}

>  <type>  (15) 
unop_11

>  <geom_source>  (15) 
Heuristics

$$$$

     RDKit          3D

 17 15  0  0  0  0  0  0  0  0999 V2000
   -3.2144    0.0616   -0.0010 O   0  0  0  0  0  0  0  0  0  0  0  0
   -1.8097   -0.1038   -0.0050 N   0  0  0  0  0  0  0  0  0  0  0  0
   -1.0699    0.8862    0.0081 C   0  0  0  0  0  3  0  0  0  0  0  0
   -3.5617   -0.8406   -0.0138 H   0  0  0  0  0  0  0  0  0  0  0  0
   -1.3202    1.9400    0.0225 H   0  0  0  0  0  0  0  0  0  0  0  0
    1.0649   -2.0529    0.0022 C   0  0  0  0  0  0  0  0  0  0  0  0
    1.9329   -0.8365   -0.0003 C   0  0  0  0  0  0  0  0  0  0  0  0
    1.5036    0.4034   -0.0004 C   0  0  0  0  0  0  0  0  0  0  0  0
    2.2657    1.6737   -0.0030 C   0  0  0  0  0  0  0  0  0  0  0  0
    1.2760   -2.6600    0.8822 H   0  0  0  0  0  0  0  0  0  0  0  0
    0.0151   -1.7754    0.0030 H   0  0  0  0  0  0  0  0  0  0  0  0
    1.2740   -2.6622   -0.8767 H   0  0  0  0  0  0  0  0  0  0  0  0
    3.0049   -1.0400   -0.0024 H   0  0  0  0  0  0  0  0  0  0  0  0
    0.2168    0.6039    0.0030 H   0  0  0  0  0  0  0  0  0  0  0  0
    2.0204    2.2661    0.8788 H   0  0  0  0  0  0  0  0  0  0  0  0
    3.3409    1.4858   -0.0061 H   0  0  0  0  0  0  0  0  0  0  0  0
    2.0153    2.2655   -0.8838 H   0  0  0  0  0  0  0  0  0  0  0  0
  1  2  1  0
  1  4  1  0
  2  3  2  3
  3  5  1  0
  6  7  1  0
  6 10  1  0
  6 11  1  0
  6 12  1  0
  7  8  2  3
  7 13  1  0
  8  9  1  0
  8 14  1  0
  9 15  1  0
  9 16  1  0
  9 17  1  0
M  RAD  1   3   2
M  END
>  <reaction>  (16) 
rmg_rxn_15434

>  <mol_properties>  (16) 
{"1": {"label": "*4", "atom_type": "N3d"}, "2": {"label": "*3", "atom_type": "Cd"}, "6": {"label": "*0", "atom_type": "Cd"}, "7": {"label": "*1", "atom_type": "Cd"}, "13": {"label": "*2", "atom_type": "H0"}}

>  <type>  (16) 
unop_12

>  <geom_source>  (16) 
Heuristics

$$$$

     RDKit          3D

 17 15  0  0  0  0  0  0  0  0999 V2000
    0.8011    3.0764   -0.3848 O   0  0  0  0  0  0  0  0  0  0  0  0
    0.7738    1.7212   -0.6488 N   0  0  0  0  0  0  0  0  0  0  0  0
   -0.3550    1.2143   -0.3991 C   0  0  0  0  0  0  0  0  0  0  0  0
    1.6978    3.3290   -0.6133 H   0  0  0  0  0  0  0  0  0  0  0  0
   -1.1903    1.7999   -0.0210 H   0  0  0  0  0  0  0  0  0  0  0  0
   -0.3550   -2.2048   -1.5067 C   0  0  0  0  0  0  0  0  0  0  0  0
   -0.3550   -2.2048   -0.0113 C   0  0  0  0  0  0  0  0  0  0  0  0
   -0.3550   -1.1216    0.7521 C   0  0  0  0  0  3  0  0  0  0  0  0
   -0.3550   -1.1216    2.2474 C   0  0  0  0  0  0  0  0  0  0  0  0
    0.5229   -2.7248   -1.8992 H   0  0  0  0  0  0  0  0  0  0  0  0
   -1.2329   -2.7248   -1.8992 H   0  0  0  0  0  0  0  0  0  0  0  0
   -0.3550   -1.1890   -1.9045 H   0  0  0  0  0  0  0  0  0  0  0  0
   -0.3550   -3.1810    0.4698 H   0  0  0  0  0  0  0  0  0  0  0  0
   -0.3550    0.0498    0.1748 H   0  0  0  0  0  0  0  0  0  0  0  0
    0.5229   -0.6016    2.6400 H   0  0  0  0  0  0  0  0  0  0  0  0
   -1.2329   -0.6016    2.6400 H   0  0  0  0  0  0  0  0  0  0  0  0
   -0.3550   -2.1374    2.6453 H   0  0  0  0  0  0  0  0  0  0  0  0
  1  2  1  0
  1  4  1  0
  2  3  2  3
  3  5  1  0
  3 14  1  0
  6  7  1  0
  6 10  1  0
  6 11  1  0
  6 12  1  0
  7  8  2  3
  7 13  1  0
  8  9  1  0
  9 15  1  0
  9 16  1  0
  9 17  1  0
M  RAD  1   8   2
M  END
>  <reaction>  (17) 
rmg_rxn_15434

>  <mol_properties>  (17) 
{"1": {"label": "*4", "atom_type": "N3d"}, "2": {"label": "*3", "atom_type": "Cd"}, "6": {"label": "*0", "atom_type": "Cd"}, "7": {"label": "*1", "atom_type": "Cd"}, "13": {"label": "*2", "atom_type": "H0"}}

>  <type>  (17) 
unop_13

>  <geom_source>  (17) 
Heuristics

$$$$

     RDKit          3D

 17 15  0  0  0  0  0  0  0  0999 V2000
   -3.2147    0.0613   -0.0016 O   0  0  0  0  0  0  0  0  0  0  0  0
   -1.8098   -0.1040   -0.0006 N   0  0  0  0  0  0  0  0  0  0  0  0
   -1.0701    0.8860    0.0038 C   0  0  0  0  0  3  0  0  0  0  0  0
   -3.5618   -0.8411   -0.0053 H   0  0  0  0  0  0  0  0  0  0  0  0
   -1.3203    1.9399    0.0071 H   0  0  0  0  0  0  0  0  0  0  0  0
    1.0659   -2.0530    0.0011 C   0  0  0  0  0  0  0  0  0  0  0  0
    1.9333   -0.8362   -0.0009 C   0  0  0  0  0  0  0  0  0  0  0  0
    1.5035    0.4035    0.0001 C   0  0  0  0  0  0  0  0  0  0  0  0
    2.2652    1.6742   -0.0013 C   0  0  0  0  0  0  0  0  0  0  0  0
    1.2778   -2.6608    0.8804 H   0  0  0  0  0  0  0  0  0  0  0  0
    0.0159   -1.7760    0.0030 H   0  0  0  0  0  0  0  0  0  0  0  0
    1.2745   -2.6614   -0.8786 H   0  0  0  0  0  0  0  0  0  0  0  0
    3.0054   -1.0392   -0.0033 H   0  0  0  0  0  0  0  0  0  0  0  0
    0.2167    0.6038    0.0027 H   0  0  0  0  0  0  0  0  0  0  0  0
    2.0117    2.2684   -0.8796 H   0  0  0  0  0  0  0  0  0  0  0  0
    2.0224    2.2639    0.8830 H   0  0  0  0  0  0  0  0  0  0  0  0
    3.3404    1.4866   -0.0083 H   0  0  0  0  0  0  0  0  0  0  0  0
  1  2  1  0
  1  4  1  0
  2  3  2  3
  3  5  1  0
  6  7  1  0
  6 10  1  0
  6 11  1  0
  6 12  1  0
  7  8  2  3
  7 13  1  0
  8  9  1  0
  8 14  1  0
  9 15  1  0
  9 16  1  0
  9 17  1  0
M  RAD  1   3   2
M  END
>  <reaction>  (18) 
rmg_rxn_15434

>  <mol_properties>  (18) 
{"1": {"label": "*4", "atom_type": "N3d"}, "2": {"label": "*3", "atom_type": "Cd"}, "6": {"label": "*0", "atom_type": "Cd"}, "7": {"label": "*1", "atom_type": "Cd"}, "13": {"label": "*2", "atom_type": "H0"}}

>  <type>  (18) 
unop_14

>  <geom_source>  (18) 
Heuristics

$$$$

     RDKit          3D

 17 15  0  0  0  0  0  0  0  0999 V2000
    0.3452    3.2059   -0.0722 O   0  0  0  0  0  0  0  0  0  0  0  0
    0.7446    1.9023   -0.2918 N   0  0  0  0  0  0  0  0  0  0  0  0
   -0.2330    1.1460   -0.5483 C   0  0  0  0  0  0  0  0  0  0  0  0
    1.1689    3.6632    0.1077 H   0  0  0  0  0  0  0  0  0  0  0  0
   -1.2590    1.5057   -0.5855 H   0  0  0  0  0  0  0  0  0  0  0  0
   -0.2330   -2.2731   -1.6559 C   0  0  0  0  0  0  0  0  0  0  0  0
   -0.2330   -2.2731   -0.1605 C   0  0  0  0  0  0  0  0  0  0  0  0
   -0.2330   -1.1899    0.6029 C   0  0  0  0  0  3  0  0  0  0  0  0
   -0.2330   -1.1899    2.0982 C   0  0  0  0  0  0  0  0  0  0  0  0
    0.6449   -2.7931   -2.0484 H   0  0  0  0  0  0  0  0  0  0  0  0
   -1.1109   -2.7931   -2.0484 H   0  0  0  0  0  0  0  0  0  0  0  0
   -0.2330   -1.2573   -2.0538 H   0  0  0  0  0  0  0  0  0  0  0  0
   -0.2330   -3.2493    0.3205 H   0  0  0  0  0  0  0  0  0  0  0  0
   -0.2330   -0.0185    0.0256 H   0  0  0  0  0  0  0  0  0  0  0  0
    0.6449   -0.6699    2.4908 H   0  0  0  0  0  0  0  0  0  0  0  0
   -1.1109   -0.6699    2.4908 H   0  0  0  0  0  0  0  0  0  0  0  0
   -0.2330   -2.2058    2.4961 H   0  0  0  0  0  0  0  0  0  0  0  0
  1  2  1  0
  1  4  1  0
  2  3  2  3
  3  5  1  0
  3 14  1  0
  6  7  1  0
  6 10  1  0
  6 11  1  0
  6 12  1  0
  7  8  2  3
  7 13  1  0
  8  9  1  0
  9 15  1  0
  9 16  1  0
  9 17  1  0
M  RAD  1   8   2
M  END
>  <reaction>  (19) 
rmg_rxn_15434

>  <mol_properties>  (19) 
{"1": {"label": "*4", "atom_type": "N3d"}, "2": {"label": "*3", "atom_type": "Cd"}, "6": {"label": "*0", "atom_type": "Cd"}, "7": {"label": "*1", "atom_type": "Cd"}, "13": {"label": "*2", "atom_type": "H0"}}

>  <type>  (19) 
unop_15

>  <geom_source>  (19) 
Heuristics

$$$$

     RDKit          3D

 17 15  0  0  0  0  0  0  0  0999 V2000
    3.2148    0.0614   -0.0011 O   0  0  0  0  0  0  0  0  0  0  0  0
    1.8100   -0.1045   -0.0021 N   0  0  0  0  0  0  0  0  0  0  0  0
    1.0701    0.8856    0.0045 C   0  0  0  0  0  3  0  0  0  0  0  0
    3.5623   -0.8408   -0.0067 H   0  0  0  0  0  0  0  0  0  0  0  0
    1.3205    1.9394    0.0121 H   0  0  0  0  0  0  0  0  0  0  0  0
   -1.0665   -2.0529    0.0011 C   0  0  0  0  0  0  0  0  0  0  0  0
   -1.9336   -0.8360   -0.0004 C   0  0  0  0  0  0  0  0  0  0  0  0
   -1.5035    0.4036    0.0001 C   0  0  0  0  0  0  0  0  0  0  0  0
   -2.2647    1.6746   -0.0018 C   0  0  0  0  0  0  0  0  0  0  0  0
   -0.0164   -1.7761    0.0008 H   0  0  0  0  0  0  0  0  0  0  0  0
   -1.2770   -2.6599    0.8815 H   0  0  0  0  0  0  0  0  0  0  0  0
   -1.2770   -2.6621   -0.8777 H   0  0  0  0  0  0  0  0  0  0  0  0
   -3.0057   -1.0389   -0.0018 H   0  0  0  0  0  0  0  0  0  0  0  0
   -0.2166    0.6035    0.0018 H   0  0  0  0  0  0  0  0  0  0  0  0
   -3.3400    1.4874    0.0031 H   0  0  0  0  0  0  0  0  0  0  0  0
   -2.0130    2.2699    0.8762 H   0  0  0  0  0  0  0  0  0  0  0  0
   -2.0198    2.2630   -0.8864 H   0  0  0  0  0  0  0  0  0  0  0  0
  1  2  1  0
  1  4  1  0
  2  3  2  3
  3  5  1  0
  6  7  1  0
  6 10  1  0
  6 11  1  0
  6 12  1  0
  7  8  2  3
  7 13  1  0
  8  9  1  0
  8 14  1  0
  9 15  1  0
  9 16  1  0
  9 17  1  0
M  RAD  1   3   2
M  END
>  <reaction>  (20) 
rmg_rxn_15434

>  <mol_properties>  (20) 
{"1": {"label": "*4", "atom_type": "N3d"}, "2": {"label": "*3", "atom_type": "Cd"}, "6": {"label": "*0", "atom_type": "Cd"}, "7": {"label": "*1", "atom_type": "Cd"}, "13": {"label": "*2", "atom_type": "H0"}}

>  <type>  (20) 
unop_16

>  <geom_source>  (20) 
Heuristics

$$$$

     RDKit          3D

 17 15  0  0  0  0  0  0  0  0999 V2000
   -0.8011    3.0764   -0.3848 O   0  0  0  0  0  0  0  0  0  0  0  0
   -0.7738    1.7212   -0.6488 N   0  0  0  0  0  0  0  0  0  0  0  0
    0.3550    1.2143   -0.3991 C   0  0  0  0  0  0  0  0  0  0  0  0
   -1.6978    3.3290   -0.6133 H   0  0  0  0  0  0  0  0  0  0  0  0
    1.1903    1.7999   -0.0210 H   0  0  0  0  0  0  0  0  0  0  0  0
    0.3550   -2.2048   -1.5067 C   0  0  0  0  0  0  0  0  0  0  0  0
    0.3550   -2.2048   -0.0113 C   0  0  0  0  0  0  0  0  0  0  0  0
    0.3550   -1.1216    0.7521 C   0  0  0  0  0  3  0  0  0  0  0  0
    0.3550   -1.1216    2.2474 C   0  0  0  0  0  0  0  0  0  0  0  0
    1.2329   -2.7248   -1.8992 H   0  0  0  0  0  0  0  0  0  0  0  0
   -0.5229   -2.7248   -1.8992 H   0  0  0  0  0  0  0  0  0  0  0  0
    0.3550   -1.1890   -1.9045 H   0  0  0  0  0  0  0  0  0  0  0  0
    0.3550   -3.1810    0.4698 H   0  0  0  0  0  0  0  0  0  0  0  0
    0.3550    0.0498    0.1748 H   0  0  0  0  0  0  0  0  0  0  0  0
    1.2329   -0.6016    2.6400 H   0  0  0  0  0  0  0  0  0  0  0  0
   -0.5229   -0.6016    2.6400 H   0  0  0  0  0  0  0  0  0  0  0  0
    0.3550   -2.1374    2.6453 H   0  0  0  0  0  0  0  0  0  0  0  0
  1  2  1  0
  1  4  1  0
  2  3  2  3
  3  5  1  0
  3 14  1  0
  6  7  1  0
  6 10  1  0
  6 11  1  0
  6 12  1  0
  7  8  2  3
  7 13  1  0
  8  9  1  0
  9 15  1  0
  9 16  1  0
  9 17  1  0
M  RAD  1   8   2
M  END
>  <reaction>  (21) 
rmg_rxn_15434

>  <mol_properties>  (21) 
{"1": {"label": "*4", "atom_type": "N3d"}, "2": {"label": "*3", "atom_type": "Cd"}, "6": {"label": "*0", "atom_type": "Cd"}, "7": {"label": "*1", "atom_type": "Cd"}, "13": {"label": "*2", "atom_type": "H0"}}

>  <type>  (21) 
unop_17

>  <geom_source>  (21) 
Heuristics

$$$$

     RDKit          3D

 17 15  0  0  0  0  0  0  0  0999 V2000
   -3.2143    0.0619   -0.0000 O   0  0  0  0  0  0  0  0  0  0  0  0
   -1.8095   -0.1037    0.0000 N   0  0  0  0  0  0  0  0  0  0  0  0
   -1.0697    0.8864   -0.0000 C   0  0  0  0  0  3  0  0  0  0  0  0
   -3.5617   -0.8403    0.0000 H   0  0  0  0  0  0  0  0  0  0  0  0
   -1.3202    1.9402    0.0000 H   0  0  0  0  0  0  0  0  0  0  0  0
    1.0641   -2.0528   -0.0000 C   0  0  0  0  0  0  0  0  0  0  0  0
    1.9326   -0.8368   -0.0000 C   0  0  0  0  0  0  0  0  0  0  0  0
    1.5038    0.4032   -0.0000 C   0  0  0  0  0  0  0  0  0  0  0  0
    2.2662    1.6734    0.0000 C   0  0  0  0  0  0  0  0  0  0  0  0
    1.2739   -2.6611   -0.8795 H   0  0  0  0  0  0  0  0  0  0  0  0
    1.2739   -2.6611    0.8795 H   0  0  0  0  0  0  0  0  0  0  0  0
    0.0144   -1.7750    0.0000 H   0  0  0  0  0  0  0  0  0  0  0  0
    3.0045   -1.0408    0.0000 H   0  0  0  0  0  0  0  0  0  0  0  0
    0.2170    0.6041    0.0000 H   0  0  0  0  0  0  0  0  0  0  0  0
    2.0184    2.2655   -0.8813 H   0  0  0  0  0  0  0  0  0  0  0  0
    2.0184    2.2655    0.8813 H   0  0  0  0  0  0  0  0  0  0  0  0
    3.3413    1.4853    0.0000 H   0  0  0  0  0  0  0  0  0  0  0  0
  1  2  1  0
  1  4  1  0
  2  3  2  3
  3  5  1  0
  6  7  1  0
  6 10  1  0
  6 11  1  0
  6 12  1  0
  7  8  2  3
  7 13  1  0
  8  9  1  0
  8 14  1  0
  9 15  1  0
  9 16  1  0
  9 17  1  0
M  RAD  1   3   2
M  END
>  <reaction>  (22) 
rmg_rxn_15434

>  <mol_properties>  (22) 
{"1": {"label": "*4", "atom_type": "N3d"}, "2": {"label": "*3", "atom_type": "Cd"}, "6": {"label": "*0", "atom_type": "Cd"}, "7": {"label": "*1", "atom_type": "Cd"}, "13": {"label": "*2", "atom_type": "H0"}}

>  <type>  (22) 
unop_18

>  <geom_source>  (22) 
Heuristics

$$$$

     RDKit          3D

 17 15  0  0  0  0  0  0  0  0999 V2000
    0.6356    2.7361   -1.4893 O   0  0  0  0  0  0  0  0  0  0  0  0
    0.3367    1.4321   -1.1470 N   0  0  0  0  0  0  0  0  0  0  0  0
   -0.2277    1.3573   -0.0203 C   0  0  0  0  0  0  0  0  0  0  0  0
    1.0521    2.6501   -2.3490 H   0  0  0  0  0  0  0  0  0  0  0  0
   -0.4413    2.2336    0.5881 H   0  0  0  0  0  0  0  0  0  0  0  0
   -0.2277   -2.0618   -1.1279 C   0  0  0  0  0  0  0  0  0  0  0  0
   -0.2277   -2.0618    0.3674 C   0  0  0  0  0  0  0  0  0  0  0  0
   -0.2277   -0.9786    1.1308 C   0  0  0  0  0  3  0  0  0  0  0  0
   -0.2277   -0.9786    2.6262 C   0  0  0  0  0  0  0  0  0  0  0  0
    0.6502   -2.5818   -1.5205 H   0  0  0  0  0  0  0  0  0  0  0  0
   -1.1056   -2.5818   -1.5205 H   0  0  0  0  0  0  0  0  0  0  0  0
   -0.2277   -1.0460   -1.5258 H   0  0  0  0  0  0  0  0  0  0  0  0
   -0.2277   -3.0380    0.8485 H   0  0  0  0  0  0  0  0  0  0  0  0
   -0.2277    0.1929    0.5535 H   0  0  0  0  0  0  0  0  0  0  0  0
    0.6502   -0.4586    3.0187 H   0  0  0  0  0  0  0  0  0  0  0  0
   -1.1056   -0.4586    3.0187 H   0  0  0  0  0  0  0  0  0  0  0  0
   -0.2277   -1.9944    3.0241 H   0  0  0  0  0  0  0  0  0  0  0  0
  1  2  1  0
  1  4  1  0
  2  3  2  3
  3  5  1  0
  3 14  1  0
  6  7  1  0
  6 10  1  0
  6 11  1  0
  6 12  1  0
  7  8  2  3
  7 13  1  0
  8  9  1  0
  9 15  1  0
  9 16  1  0
  9 17  1  0
M  RAD  1   8   2
M  END
>  <reaction>  (23) 
rmg_rxn_15434

>  <mol_properties>  (23) 
{"1": {"label": "*4", "atom_type": "N3d"}, "2": {"label": "*3", "atom_type": "Cd"}, "6": {"label": "*0", "atom_type": "Cd"}, "7": {"label": "*1", "atom_type": "Cd"}, "13": {"label": "*2", "atom_type": "H0"}}

>  <type>  (23) 
unop_19

>  <geom_source>  (23) 
Heuristics

$$$$

     RDKit          3D

 17 15  0  0  0  0  0  0  0  0999 V2000
   -0.9367    2.8948   -0.9457 O   0  0  0  0  0  0  0  0  0  0  0  0
   -0.6183    1.5511   -0.9528 N   0  0  0  0  0  0  0  0  0  0  0  0
    0.3593    1.2937   -0.1968 C   0  0  0  0  0  0  0  0  0  0  0  0
   -1.6803    2.9499   -1.5491 H   0  0  0  0  0  0  0  0  0  0  0  0
    0.8718    2.0600    0.3809 H   0  0  0  0  0  0  0  0  0  0  0  0
    0.3593   -2.1254   -1.3044 C   0  0  0  0  0  0  0  0  0  0  0  0
    0.3593   -2.1254    0.1910 C   0  0  0  0  0  0  0  0  0  0  0  0
    0.3593   -1.0422    0.9544 C   0  0  0  0  0  3  0  0  0  0  0  0
    0.3593   -1.0422    2.4497 C   0  0  0  0  0  0  0  0  0  0  0  0
    1.2372   -2.6454   -1.6969 H   0  0  0  0  0  0  0  0  0  0  0  0
   -0.5186   -2.6454   -1.6969 H   0  0  0  0  0  0  0  0  0  0  0  0
    0.3593   -1.1096   -1.7023 H   0  0  0  0  0  0  0  0  0  0  0  0
    0.3593   -3.1016    0.6720 H   0  0  0  0  0  0  0  0  0  0  0  0
    0.3593    0.1292    0.3771 H   0  0  0  0  0  0  0  0  0  0  0  0
    1.2372   -0.5222    2.8423 H   0  0  0  0  0  0  0  0  0  0  0  0
   -0.5186   -0.5222    2.8423 H   0  0  0  0  0  0  0  0  0  0  0  0
    0.3593   -2.0580    2.8476 H   0  0  0  0  0  0  0  0  0  0  0  0
  1  2  1  0
  1  4  1  0
  2  3  2  3
  3  5  1  0
  3 14  1  0
  6  7  1  0
  6 10  1  0
  6 11  1  0
  6 12  1  0
  7  8  2  3
  7 13  1  0
  8  9  1  0
  9 15  1  0
  9 16  1  0
  9 17  1  0
M  RAD  1   8   2
M  END
>  <reaction>  (24) 
rmg_rxn_15434

>  <mol_properties>  (24) 
{"1": {"label": "*4", "atom_type": "N3d"}, "2": {"label": "*3", "atom_type": "Cd"}, "6": {"label": "*0", "atom_type": "Cd"}, "7": {"label": "*1", "atom_type": "Cd"}, "13": {"label": "*2", "atom_type": "H0"}}

>  <type>  (24) 
unop_20

>  <geom_source>  (24) 
Heuristics

$$$$

     RDKit          3D

 17 15  0  0  0  0  0  0  0  0999 V2000
   -0.1151    3.2599   -0.1876 O   0  0  0  0  0  0  0  0  0  0  0  0
    0.4970    2.0437    0.0431 N   0  0  0  0  0  0  0  0  0  0  0  0
   -0.0674    1.1047   -0.5840 C   0  0  0  0  0  0  0  0  0  0  0  0
    0.4031    3.8725    0.3379 H   0  0  0  0  0  0  0  0  0  0  0  0
   -0.9327    1.2636   -1.2240 H   0  0  0  0  0  0  0  0  0  0  0  0
   -0.0674   -2.3144   -1.6916 C   0  0  0  0  0  0  0  0  0  0  0  0
   -0.0674   -2.3144   -0.1963 C   0  0  0  0  0  0  0  0  0  0  0  0
   -0.0674   -1.2312    0.5671 C   0  0  0  0  0  3  0  0  0  0  0  0
   -0.0674   -1.2312    2.0625 C   0  0  0  0  0  0  0  0  0  0  0  0
    0.8105   -2.8344   -2.0842 H   0  0  0  0  0  0  0  0  0  0  0  0
   -0.9452   -2.8344   -2.0842 H   0  0  0  0  0  0  0  0  0  0  0  0
   -0.0674   -1.2986   -2.0895 H   0  0  0  0  0  0  0  0  0  0  0  0
   -0.0674   -3.2906    0.2848 H   0  0  0  0  0  0  0  0  0  0  0  0
   -0.0674   -0.0598   -0.0102 H   0  0  0  0  0  0  0  0  0  0  0  0
    0.8105   -0.7112    2.4550 H   0  0  0  0  0  0  0  0  0  0  0  0
   -0.9452   -0.7112    2.4550 H   0  0  0  0  0  0  0  0  0  0  0  0
   -0.0674   -2.2470    2.4604 H   0  0  0  0  0  0  0  0  0  0  0  0
  1  2  1  0
  1  4  1  0
  2  3  2  3
  3  5  1  0
  3 14  1  0
  6  7  1  0
  6 10  1  0
  6 11  1  0
  6 12  1  0
  7  8  2  3
  7 13  1  0
  8  9  1  0
  9 15  1  0
  9 16  1  0
  9 17  1  0
M  RAD  1   8   2
M  END
>  <reaction>  (25) 
rmg_rxn_15434

>  <mol_properties>  (25) 
{"1": {"label": "*4", "atom_type": "N3d"}, "2": {"label": "*3", "atom_type": "Cd"}, "6": {"label": "*0", "atom_type": "Cd"}, "7": {"label": "*1", "atom_type": "Cd"}, "13": {"label": "*2", "atom_type": "H0"}}

>  <type>  (25) 
unop_21

>  <geom_source>  (25) 
Heuristics

$$$$

     RDKit          3D

 17 15  0  0  0  0  0  0  0  0999 V2000
    0.0000    2.6735   -1.7197 O   0  0  0  0  0  0  0  0  0  0  0  0
    0.0000    1.3895   -1.2113 N   0  0  0  0  0  0  0  0  0  0  0  0
    0.0000    1.3816    0.0510 C   0  0  0  0  0  0  0  0  0  0  0  0
    0.0000    2.5364   -2.6690 H   0  0  0  0  0  0  0  0  0  0  0  0
    0.0000    2.2941    0.6433 H   0  0  0  0  0  0  0  0  0  0  0  0
   -0.0000   -2.0375   -1.0566 C   0  0  0  0  0  0  0  0  0  0  0  0
   -0.0000   -2.0375    0.4387 C   0  0  0  0  0  0  0  0  0  0  0  0
   -0.0000   -0.9543    1.2021 C   0  0  0  0  0  3  0  0  0  0  0  0
   -0.0000   -0.9543    2.6975 C   0  0  0  0  0  0  0  0  0  0  0  0
    0.8779   -2.5575   -1.4492 H   0  0  0  0  0  0  0  0  0  0  0  0
   -0.8779   -2.5575   -1.4492 H   0  0  0  0  0  0  0  0  0  0  0  0
   -0.0000   -1.0217   -1.4545 H   0  0  0  0  0  0  0  0  0  0  0  0
   -0.0000   -3.0137    0.9198 H   0  0  0  0  0  0  0  0  0  0  0  0
   -0.0000    0.2171    0.6248 H   0  0  0  0  0  0  0  0  0  0  0  0
    0.8779   -0.4343    3.0900 H   0  0  0  0  0  0  0  0  0  0  0  0
   -0.8779   -0.4343    3.0900 H   0  0  0  0  0  0  0  0  0  0  0  0
   -0.0000   -1.9701    3.0954 H   0  0  0  0  0  0  0  0  0  0  0  0
  1  2  1  0
  1  4  1  0
  2  3  2  3
  3  5  1  0
  3 14  1  0
  6  7  1  0
  6 10  1  0
  6 11  1  0
  6 12  1  0
  7  8  2  3
  7 13  1  0
  8  9  1  0
  9 15  1  0
  9 16  1  0
  9 17  1  0
M  RAD  1   8   2
M  END
>  <reaction>  (26) 
rmg_rxn_15434

>  <mol_properties>  (26) 
{"1": {"label": "*4", "atom_type": "N3d"}, "2": {"label": "*3", "atom_type": "Cd"}, "6": {"label": "*0", "atom_type": "Cd"}, "7": {"label": "*1", "atom_type": "Cd"}, "13": {"label": "*2", "atom_type": "H0"}}

>  <type>  (26) 
unop_22

>  <geom_source>  (26) 
Heuristics

$$$$

     RDKit          3D

 17 15  0  0  0  0  0  0  0  0999 V2000
   -3.2143    0.0618    0.0017 O   0  0  0  0  0  0  0  0  0  0  0  0
   -1.8095   -0.1036    0.0005 N   0  0  0  0  0  0  0  0  0  0  0  0
   -1.0697    0.8865   -0.0040 C   0  0  0  0  0  3  0  0  0  0  0  0
   -3.5615   -0.8405    0.0057 H   0  0  0  0  0  0  0  0  0  0  0  0
   -1.3202    1.9404   -0.0071 H   0  0  0  0  0  0  0  0  0  0  0  0
    1.0642   -2.0529   -0.0010 C   0  0  0  0  0  0  0  0  0  0  0  0
    1.9325   -0.8368    0.0007 C   0  0  0  0  0  0  0  0  0  0  0  0
    1.5037    0.4033   -0.0002 C   0  0  0  0  0  0  0  0  0  0  0  0
    2.2663    1.6733    0.0015 C   0  0  0  0  0  0  0  0  0  0  0  0
    1.2787   -2.6634   -0.8778 H   0  0  0  0  0  0  0  0  0  0  0  0
    1.2693   -2.6589    0.8812 H   0  0  0  0  0  0  0  0  0  0  0  0
    0.0144   -1.7751   -0.0071 H   0  0  0  0  0  0  0  0  0  0  0  0
    3.0045   -1.0406    0.0033 H   0  0  0  0  0  0  0  0  0  0  0  0
    0.2169    0.6042   -0.0029 H   0  0  0  0  0  0  0  0  0  0  0  0
    2.0221    2.2646   -0.8813 H   0  0  0  0  0  0  0  0  0  0  0  0
    2.0153    2.2663    0.8813 H   0  0  0  0  0  0  0  0  0  0  0  0
    3.3414    1.4849    0.0058 H   0  0  0  0  0  0  0  0  0  0  0  0
  1  2  1  0
  1  4  1  0
  2  3  2  3
  3  5  1  0
  6  7  1  0
  6 10  1  0
  6 11  1  0
  6 12  1  0
  7  8  2  3
  7 13  1  0
  8  9  1  0
  8 14  1  0
  9 15  1  0
  9 16  1  0
  9 17  1  0
M  RAD  1   3   2
M  END
>  <reaction>  (27) 
rmg_rxn_15434

>  <mol_properties>  (27) 
{"1": {"label": "*4", "atom_type": "N3d"}, "2": {"label": "*3", "atom_type": "Cd"}, "6": {"label": "*0", "atom_type": "Cd"}, "7": {"label": "*1", "atom_type": "Cd"}, "13": {"label": "*2", "atom_type": "H0"}}

>  <type>  (27) 
unop_23

>  <geom_source>  (27) 
Heuristics

$$$$

     RDKit          3D

 17 15  0  0  0  0  0  0  0  0999 V2000
    4.1318    0.4622    1.3156 O   0  0  0  0  0  0  0  0  0  0  0  0
    2.7556    0.3958    1.2643 N   0  0  0  0  0  0  0  0  0  0  0  0
   -2.5921    1.0242   -0.1632 C   0  0  0  0  0  0  0  0  0  0  0  0
   -0.8385   -1.3723   -0.5695 C   0  0  0  0  0  0  0  0  0  0  0  0
   -1.0927    1.0854   -0.1395 C   0  0  0  0  0  0  0  0  0  0  0  0
    2.1399   -0.3009    0.3640 C   0  0  0  0  0  0  0  0  0  0  0  0
   -0.3139    0.0095   -0.3220 C   0  0  0  0  0  3  0  0  0  0  0  0
   -3.0092    2.0380    0.0115 H   0  0  0  0  0  0  0  0  0  0  0  0
   -2.9592    0.3466    0.6360 H   0  0  0  0  0  0  0  0  0  0  0  0
   -2.9438    0.6609   -1.1516 H   0  0  0  0  0  0  0  0  0  0  0  0
   -1.4437   -1.3909   -1.5002 H   0  0  0  0  0  0  0  0  0  0  0  0
   -1.4590   -1.7055    0.2887 H   0  0  0  0  0  0  0  0  0  0  0  0
    0.0168   -2.0692   -0.6847 H   0  0  0  0  0  0  0  0  0  0  0  0
   -0.6136    2.0436    0.0331 H   0  0  0  0  0  0  0  0  0  0  0  0
    2.6930   -0.8572   -0.3823 H   0  0  0  0  0  0  0  0  0  0  0  0
    0.8164   -0.3366    0.3518 H   0  0  0  0  0  0  0  0  0  0  0  0
    4.7123   -0.0337    0.6481 H   0  0  0  0  0  0  0  0  0  0  0  0
  1  2  1  0
  1 17  1  0
  2  6  2  3
  3  5  1  0
  3  8  1  0
  3  9  1  0
  3 10  1  0
  4  7  1  0
  4 11  1  0
  4 12  1  0
  4 13  1  0
  5  7  2  3
  5 14  1  0
  6 15  1  0
  6 16  1  0
M  RAD  1   7   2
M  END
>  <reaction>  (28) 
rmg_rxn_15434

>  <mol_properties>  (28) 
{"1": {"label": "*4", "atom_type": "N3d"}, "2": {"label": "*3", "atom_type": "Cd"}, "6": {"label": "*0", "atom_type": "Cd"}, "7": {"label": "*1", "atom_type": "Cd"}, "13": {"label": "*2", "atom_type": "H0"}}

>  <type>  (28) 
unop_24

>  <geom_source>  (28) 
AutoTST

$$$$

     RDKit          3D

 17 15  0  0  0  0  0  0  0  0999 V2000
   -0.6356    2.7361   -1.4893 O   0  0  0  0  0  0  0  0  0  0  0  0
   -0.3367    1.4321   -1.1470 N   0  0  0  0  0  0  0  0  0  0  0  0
    0.2277    1.3574   -0.0203 C   0  0  0  0  0  0  0  0  0  0  0  0
   -1.0521    2.6501   -2.3490 H   0  0  0  0  0  0  0  0  0  0  0  0
    0.4413    2.2336    0.5881 H   0  0  0  0  0  0  0  0  0  0  0  0
    0.2277   -2.0618   -1.1279 C   0  0  0  0  0  0  0  0  0  0  0  0
    0.2277   -2.0618    0.3674 C   0  0  0  0  0  0  0  0  0  0  0  0
    0.2277   -0.9786    1.1308 C   0  0  0  0  0  3  0  0  0  0  0  0
    0.2277   -0.9786    2.6262 C   0  0  0  0  0  0  0  0  0  0  0  0
    1.1056   -2.5818   -1.5205 H   0  0  0  0  0  0  0  0  0  0  0  0
   -0.6502   -2.5818   -1.5205 H   0  0  0  0  0  0  0  0  0  0  0  0
    0.2277   -1.0460   -1.5258 H   0  0  0  0  0  0  0  0  0  0  0  0
    0.2277   -3.0380    0.8485 H   0  0  0  0  0  0  0  0  0  0  0  0
    0.2277    0.1929    0.5535 H   0  0  0  0  0  0  0  0  0  0  0  0
    1.1056   -0.4586    3.0187 H   0  0  0  0  0  0  0  0  0  0  0  0
   -0.6502   -0.4586    3.0187 H   0  0  0  0  0  0  0  0  0  0  0  0
    0.2277   -1.9944    3.0241 H   0  0  0  0  0  0  0  0  0  0  0  0
  1  2  1  0
  1  4  1  0
  2  3  2  3
  3  5  1  0
  3 14  1  0
  6  7  1  0
  6 10  1  0
  6 11  1  0
  6 12  1  0
  7  8  2  3
  7 13  1  0
  8  9  1  0
  9 15  1  0
  9 16  1  0
  9 17  1  0
M  RAD  1   8   2
M  END
>  <reaction>  (29) 
rmg_rxn_15434

>  <mol_properties>  (29) 
{"1": {"label": "*4", "atom_type": "N3d"}, "2": {"label": "*3", "atom_type": "Cd"}, "6": {"label": "*0", "atom_type": "Cd"}, "7": {"label": "*1", "atom_type": "Cd"}, "13": {"label": "*2", "atom_type": "H0"}}

>  <type>  (29) 
unop_25

>  <geom_source>  (29) 
gaussian_log

$$$$
