
     RDKit          3D

 14 13  0  0  0  0  0  0  0  0999 V2000
    1.8106   -0.5953    0.5577 C   0  0  0  0  0  0  0  0  0  0  0  0
    0.5197    0.2064    0.6554 C   0  0  0  0  0  0  0  0  0  0  0  0
   -0.5206   -0.2080   -0.3788 C   0  0  0  0  0  0  0  0  0  0  0  0
   -1.8114    0.5937   -0.2812 C   0  0  0  0  0  0  0  0  0  0  0  0
    2.2725   -0.4752   -0.4251 H   0  0  0  0  0  0  0  0  0  0  0  0
    1.6214   -1.6612    0.7052 H   0  0  0  0  0  0  0  0  0  0  0  0
    2.5364   -0.2784    1.3084 H   0  0  0  0  0  0  0  0  0  0  0  0
    0.0930    0.0950    1.6574 H   0  0  0  0  0  0  0  0  0  0  0  0
    0.7393    1.2723    0.5354 H   0  0  0  0  0  0  0  0  0  0  0  0
   -0.7402   -1.2739   -0.2588 H   0  0  0  0  0  0  0  0  0  0  0  0
   -0.0938   -0.0965   -1.3808 H   0  0  0  0  0  0  0  0  0  0  0  0
   -1.6222    1.6596   -0.4287 H   0  0  0  0  0  0  0  0  0  0  0  0
   -2.2734    0.4736    0.7017 H   0  0  0  0  0  0  0  0  0  0  0  0
   -2.5373    0.2768   -1.0318 H   0  0  0  0  0  0  0  0  0  0  0  0
  1  2  1  0
  1  5  1  0
  1  6  1  0
  1  7  1  0
  2  3  1  0
  2  8  1  0
  2  9  1  0
  3  4  1  0
  3 10  1  0
  3 11  1  0
  4 12  1  0
  4 13  1  0
  4 14  1  0
M  END
>  <reaction>  (1) 
rmg_rxn_35

>  <mol_properties>  (1) 
{"2": {"label": "donator", "atom_type": "Cs"}, "10": {"label": "d_hydrogen", "atom_type": "H0"}}

>  <type>  (1) 
r1h

$$$$

     RDKit          3D

 13 12  0  0  0  0  0  0  0  0999 V2000
    2.0654   -0.2739   -0.0844 C   0  0  0  0  0  3  0  0  0  0  0  0
    0.6326   -0.4110   -0.4406 C   0  0  0  0  0  0  0  0  0  0  0  0
   -0.3055    0.4151    0.4359 C   0  0  0  0  0  0  0  0  0  0  0  0
   -1.7714    0.2357    0.0671 C   0  0  0  0  0  0  0  0  0  0  0  0
    2.3610    0.0676    0.8995 H   0  0  0  0  0  0  0  0  0  0  0  0
    2.8408   -0.6127   -0.7582 H   0  0  0  0  0  0  0  0  0  0  0  0
    0.3313   -1.4695   -0.3768 H   0  0  0  0  0  0  0  0  0  0  0  0
    0.4826   -0.1432   -1.4940 H   0  0  0  0  0  0  0  0  0  0  0  0
   -0.1518    0.1351    1.4826 H   0  0  0  0  0  0  0  0  0  0  0  0
   -0.0303    1.4705    0.3565 H   0  0  0  0  0  0  0  0  0  0  0  0
   -2.0768   -0.8084    0.1692 H   0  0  0  0  0  0  0  0  0  0  0  0
   -1.9546    0.5339   -0.9679 H   0  0  0  0  0  0  0  0  0  0  0  0
   -2.4194    0.8370    0.7066 H   0  0  0  0  0  0  0  0  0  0  0  0
  1  2  1  0
  1  5  1  0
  1  6  1  0
  2  3  1  0
  2  7  1  0
  2  8  1  0
  3  4  1  0
  3  9  1  0
  3 10  1  0
  4 11  1  0
  4 12  1  0
  4 13  1  0
M  RAD  1   1   2
M  END
>  <reaction>  (2) 
rmg_rxn_35

>  <mol_properties>  (2) 
{"0": {"label": "acceptor", "atom_type": "Cs"}}

>  <type>  (2) 
r2

$$$$

     RDKit          3D

 14 13  0  0  0  0  0  0  0  0999 V2000
    1.8106   -0.5953    0.5577 C   0  0  0  0  0  0  0  0  0  0  0  0
    0.5197    0.2064    0.6554 C   0  0  0  0  0  0  0  0  0  0  0  0
   -0.5206   -0.2080   -0.3788 C   0  0  0  0  0  0  0  0  0  0  0  0
   -1.8114    0.5937   -0.2812 C   0  0  0  0  0  0  0  0  0  0  0  0
    2.2725   -0.4752   -0.4251 H   0  0  0  0  0  0  0  0  0  0  0  0
    1.6214   -1.6612    0.7052 H   0  0  0  0  0  0  0  0  0  0  0  0
    2.5364   -0.2784    1.3084 H   0  0  0  0  0  0  0  0  0  0  0  0
    0.0930    0.0950    1.6574 H   0  0  0  0  0  0  0  0  0  0  0  0
    0.7393    1.2723    0.5354 H   0  0  0  0  0  0  0  0  0  0  0  0
   -0.7402   -1.2739   -0.2588 H   0  0  0  0  0  0  0  0  0  0  0  0
   -0.0938   -0.0965   -1.3808 H   0  0  0  0  0  0  0  0  0  0  0  0
   -1.6222    1.6596   -0.4287 H   0  0  0  0  0  0  0  0  0  0  0  0
   -2.2734    0.4736    0.7017 H   0  0  0  0  0  0  0  0  0  0  0  0
   -2.5373    0.2768   -1.0318 H   0  0  0  0  0  0  0  0  0  0  0  0
  1  2  1  0
  1  5  1  0
  1  6  1  0
  1  7  1  0
  2  3  1  0
  2  8  1  0
  2  9  1  0
  3  4  1  0
  3 10  1  0
  3 11  1  0
  4 12  1  0
  4 13  1  0
  4 14  1  0
M  END
>  <reaction>  (3) 
rmg_rxn_35

>  <mol_properties>  (3) 
{"0": {"label": "acceptor", "atom_type": "Cs"}, "13": {"label": "a_hydrogen", "atom_type": "H0"}}

>  <type>  (3) 
r2h

$$$$

     RDKit          3D

 27 25  0  0  0  0  0  0  0  0999 V2000
   -0.4518    1.2720   -0.5026 C   0  0  0  0  0  3  0  0  0  0  0  0
    0.8712    0.9498    0.1393 C   0  0  0  0  0  0  0  0  0  0  0  0
    1.8902    2.0878    0.0519 C   0  0  0  0  0  0  0  0  0  0  0  0
    3.2215    1.7384    0.7042 C   0  0  0  0  0  0  0  0  0  0  0  0
   -0.4206    1.3871   -1.5855 H   0  0  0  0  0  0  0  0  0  0  0  0
   -1.0031    2.0836   -0.0284 H   0  0  0  0  0  0  0  0  0  0  0  0
    1.3000    0.0569   -0.3285 H   0  0  0  0  0  0  0  0  0  0  0  0
    0.7158    0.6961    1.1938 H   0  0  0  0  0  0  0  0  0  0  0  0
    2.0496    2.3440   -0.9998 H   0  0  0  0  0  0  0  0  0  0  0  0
    1.4698    2.9807    0.5242 H   0  0  0  0  0  0  0  0  0  0  0  0
    3.6732    0.8650    0.2278 H   0  0  0  0  0  0  0  0  0  0  0  0
    3.0891    1.5055    1.7634 H   0  0  0  0  0  0  0  0  0  0  0  0
    3.9316    2.5637    0.6301 H   0  0  0  0  0  0  0  0  0  0  0  0
   -0.5309   -2.1917   -1.6384 C   0  0  0  0  0  0  0  0  0  0  0  0
   -0.9931   -2.0570   -0.1933 C   0  0  0  0  0  0  0  0  0  0  0  0
   -1.9408   -0.9028    0.0235 C   0  0  0  0  0  0  0  0  0  0  0  0
   -2.3917   -0.6797    1.4440 C   0  0  0  0  0  0  0  0  0  0  0  0
   -0.0137   -1.2881   -1.9682 H   0  0  0  0  0  0  0  0  0  0  0  0
   -1.3807   -2.3476   -2.3068 H   0  0  0  0  0  0  0  0  0  0  0  0
    0.1515   -3.0340   -1.7622 H   0  0  0  0  0  0  0  0  0  0  0  0
   -1.4761   -2.9903    0.1247 H   0  0  0  0  0  0  0  0  0  0  0  0
   -0.1246   -1.9331    0.4627 H   0  0  0  0  0  0  0  0  0  0  0  0
   -2.7654   -0.8976   -0.6929 H   0  0  0  0  0  0  0  0  0  0  0  0
   -1.2600    0.1819   -0.3026 H   0  0  0  0  0  0  0  0  0  0  0  0
   -1.5338   -0.5496    2.1092 H   0  0  0  0  0  0  0  0  0  0  0  0
   -2.9686   -1.5316    1.8203 H   0  0  0  0  0  0  0  0  0  0  0  0
   -3.0199    0.2087    1.5295 H   0  0  0  0  0  0  0  0  0  0  0  0
  1  2  1  0
  1  5  1  0
  1  6  1  0
  2  3  1  0
  2  7  1  0
  2  8  1  0
  3  4  1  0
  3  9  1  0
  3 10  1  0
  4 11  1  0
  4 12  1  0
  4 13  1  0
 14 15  1  0
 14 18  1  0
 14 19  1  0
 14 20  1  0
 15 16  1  0
 15 21  1  0
 15 22  1  0
 16 17  1  0
 16 23  1  0
 16 24  1  0
 17 25  1  0
 17 26  1  0
 17 27  1  0
M  RAD  1   1   2
M  END
>  <reaction>  (4) 
rmg_rxn_35

>  <mol_properties>  (4) 
{"0": {"label": "*3", "atom_type": "Cs"}, "1": {"label": "*4", "atom_type": "Cs"}, "14": {"label": "*0", "atom_type": "Cs"}, "15": {"label": "*1", "atom_type": "Cs"}, "23": {"label": "*2", "atom_type": "H0"}}

>  <type>  (4) 
ts

$$$$

     RDKit          3D

 27 25  0  0  0  0  0  0  0  0999 V2000
    1.0263    0.0722    0.0189 C   0  0  0  0  0  0  0  0  0  0  0  0
    0.6224    1.3247   -0.7471 C   0  0  0  0  0  0  0  0  0  0  0  0
    1.5248    2.5188   -0.4581 C   0  0  0  0  0  0  0  0  0  0  0  0
    1.1209    3.7712   -1.2241 C   0  0  0  0  0  0  0  0  0  0  0  0
    0.9914    0.2447    1.0972 H   0  0  0  0  0  0  0  0  0  0  0  0
    2.0455   -0.2296   -0.2340 H   0  0  0  0  0  0  0  0  0  0  0  0
   -0.4111    1.5887   -0.5007 H   0  0  0  0  0  0  0  0  0  0  0  0
    0.6353    1.1179   -1.8222 H   0  0  0  0  0  0  0  0  0  0  0  0
    1.5119    2.7256    0.6170 H   0  0  0  0  0  0  0  0  0  0  0  0
    2.5583    2.2548   -0.7045 H   0  0  0  0  0  0  0  0  0  0  0  0
    0.1017    4.0731   -0.9712 H   0  0  0  0  0  0  0  0  0  0  0  0
    1.1558    3.5988   -2.3024 H   0  0  0  0  0  0  0  0  0  0  0  0
    1.7825    4.6092   -0.9987 H   0  0  0  0  0  0  0  0  0  0  0  0
   -1.0703   -2.6381   -1.2211 C   0  0  0  0  0  0  0  0  0  0  0  0
   -1.0703   -2.6381    0.3016 C   0  0  0  0  0  0  0  0  0  0  0  0
   -1.0703   -1.2357    0.8990 C   0  0  0  0  0  3  0  0  0  0  0  0
   -1.0703   -1.2357    2.4217 C   0  0  0  0  0  0  0  0  0  0  0  0
   -0.1888   -2.1248   -1.6125 H   0  0  0  0  0  0  0  0  0  0  0  0
   -1.9518   -2.1248   -1.6125 H   0  0  0  0  0  0  0  0  0  0  0  0
   -1.0703   -3.6532   -1.6215 H   0  0  0  0  0  0  0  0  0  0  0  0
   -1.9453   -3.1840    0.6689 H   0  0  0  0  0  0  0  0  0  0  0  0
   -0.1953   -3.1840    0.6689 H   0  0  0  0  0  0  0  0  0  0  0  0
   -1.9453   -0.6898    0.5317 H   0  0  0  0  0  0  0  0  0  0  0  0
   -0.0203   -0.5807    0.4582 H   0  0  0  0  0  0  0  0  0  0  0  0
   -0.1888   -1.7491    2.8130 H   0  0  0  0  0  0  0  0  0  0  0  0
   -1.9518   -1.7491    2.8130 H   0  0  0  0  0  0  0  0  0  0  0  0
   -1.0703   -0.2206    2.8220 H   0  0  0  0  0  0  0  0  0  0  0  0
  1  2  1  0
  1  5  1  0
  1  6  1  0
  1 24  1  0
  2  3  1  0
  2  7  1  0
  2  8  1  0
  3  4  1  0
  3  9  1  0
  3 10  1  0
  4 11  1  0
  4 12  1  0
  4 13  1  0
 14 15  1  0
 14 18  1  0
 14 19  1  0
 14 20  1  0
 15 16  1  0
 15 21  1  0
 15 22  1  0
 16 17  1  0
 16 23  1  0
 17 25  1  0
 17 26  1  0
 17 27  1  0
M  RAD  1  16   2
M  END
>  <reaction>  (5) 
rmg_rxn_35

>  <mol_properties>  (5) 
{"0": {"label": "*3", "atom_type": "Cs"}, "1": {"label": "*4", "atom_type": "Cs"}, "14": {"label": "*0", "atom_type": "Cs"}, "15": {"label": "*1", "atom_type": "Cs"}, "23": {"label": "*2", "atom_type": "H0"}}

>  <type>  (5) 
unop_1

>  <geom_source>  (5) 
Heuristics

$$$$

     RDKit          3D

 27 25  0  0  0  0  0  0  0  0999 V2000
    0.6163    0.9927    0.5952 C   0  0  0  0  0  0  0  0  0  0  0  0
    1.0246    0.5235   -0.7947 C   0  0  0  0  0  0  0  0  0  0  0  0
    1.9289    1.5147   -1.5181 C   0  0  0  0  0  0  0  0  0  0  0  0
    2.3371    1.0455   -2.9080 C   0  0  0  0  0  0  0  0  0  0  0  0
    0.0749    1.9404    0.5450 H   0  0  0  0  0  0  0  0  0  0  0  0
    1.4926    1.1467    1.2294 H   0  0  0  0  0  0  0  0  0  0  0  0
    0.1298    0.3468   -1.4003 H   0  0  0  0  0  0  0  0  0  0  0  0
    1.5371   -0.4411   -0.7209 H   0  0  0  0  0  0  0  0  0  0  0  0
    1.4164    2.4794   -1.5919 H   0  0  0  0  0  0  0  0  0  0  0  0
    2.8236    1.6914   -0.9125 H   0  0  0  0  0  0  0  0  0  0  0  0
    1.4609    0.8916   -3.5422 H   0  0  0  0  0  0  0  0  0  0  0  0
    2.8786    0.0978   -2.8578 H   0  0  0  0  0  0  0  0  0  0  0  0
    2.9831    1.7729   -3.4024 H   0  0  0  0  0  0  0  0  0  0  0  0
   -1.4803   -1.7176   -0.6448 C   0  0  0  0  0  0  0  0  0  0  0  0
   -1.4803   -1.7176    0.8779 C   0  0  0  0  0  0  0  0  0  0  0  0
   -1.4803   -0.3152    1.4753 C   0  0  0  0  0  3  0  0  0  0  0  0
   -1.4803   -0.3152    2.9980 C   0  0  0  0  0  0  0  0  0  0  0  0
   -0.5988   -1.2043   -1.0362 H   0  0  0  0  0  0  0  0  0  0  0  0
   -2.3618   -1.2043   -1.0362 H   0  0  0  0  0  0  0  0  0  0  0  0
   -1.4803   -2.7327   -1.0452 H   0  0  0  0  0  0  0  0  0  0  0  0
   -2.3553   -2.2635    1.2452 H   0  0  0  0  0  0  0  0  0  0  0  0
   -0.6053   -2.2635    1.2452 H   0  0  0  0  0  0  0  0  0  0  0  0
   -2.3553    0.2306    1.1080 H   0  0  0  0  0  0  0  0  0  0  0  0
   -0.4302    0.3398    1.0345 H   0  0  0  0  0  0  0  0  0  0  0  0
   -0.5988   -0.8286    3.3894 H   0  0  0  0  0  0  0  0  0  0  0  0
   -2.3618   -0.8286    3.3894 H   0  0  0  0  0  0  0  0  0  0  0  0
   -1.4803    0.6999    3.3984 H   0  0  0  0  0  0  0  0  0  0  0  0
  1  2  1  0
  1  5  1  0
  1  6  1  0
  1 24  1  0
  2  3  1  0
  2  7  1  0
  2  8  1  0
  3  4  1  0
  3  9  1  0
  3 10  1  0
  4 11  1  0
  4 12  1  0
  4 13  1  0
 14 15  1  0
 14 18  1  0
 14 19  1  0
 14 20  1  0
 15 16  1  0
 15 21  1  0
 15 22  1  0
 16 17  1  0
 16 23  1  0
 17 25  1  0
 17 26  1  0
 17 27  1  0
M  RAD  1  16   2
M  END
>  <reaction>  (6) 
rmg_rxn_35

>  <mol_properties>  (6) 
{"0": {"label": "*3", "atom_type": "Cs"}, "1": {"label": "*4", "atom_type": "Cs"}, "14": {"label": "*0", "atom_type": "Cs"}, "15": {"label": "*1", "atom_type": "Cs"}, "23": {"label": "*2", "atom_type": "H0"}}

>  <type>  (6) 
unop_2

>  <geom_source>  (6) 
Heuristics

$$$$

     RDKit          3D

 27 25  0  0  0  0  0  0  0  0999 V2000
    0.8685    0.0395   -0.2979 C   0  0  0  0  0  0  0  0  0  0  0  0
    0.5976    1.5353   -0.3852 C   0  0  0  0  0  0  0  0  0  0  0  0
    1.8511    2.3815   -0.1944 C   0  0  0  0  0  0  0  0  0  0  0  0
    1.5802    3.8774   -0.2817 C   0  0  0  0  0  0  0  0  0  0  0  0
    1.2875   -0.2263    0.6755 H   0  0  0  0  0  0  0  0  0  0  0  0
    1.5842   -0.2739   -1.0617 H   0  0  0  0  0  0  0  0  0  0  0  0
   -0.1442    1.8189    0.3683 H   0  0  0  0  0  0  0  0  0  0  0  0
    0.1503    1.7716   -1.3561 H   0  0  0  0  0  0  0  0  0  0  0  0
    2.2984    2.1452    0.7766 H   0  0  0  0  0  0  0  0  0  0  0  0
    2.5929    2.0979   -0.9479 H   0  0  0  0  0  0  0  0  0  0  0  0
    0.8646    4.1907    0.4821 H   0  0  0  0  0  0  0  0  0  0  0  0
    1.1613    4.1431   -1.2551 H   0  0  0  0  0  0  0  0  0  0  0  0
    2.4932    4.4584   -0.1417 H   0  0  0  0  0  0  0  0  0  0  0  0
   -1.2282   -2.6709   -1.5379 C   0  0  0  0  0  0  0  0  0  0  0  0
   -1.2282   -2.6709   -0.0152 C   0  0  0  0  0  0  0  0  0  0  0  0
   -1.2282   -1.2685    0.5822 C   0  0  0  0  0  3  0  0  0  0  0  0
   -1.2282   -1.2685    2.1049 C   0  0  0  0  0  0  0  0  0  0  0  0
   -0.3466   -2.1575   -1.9293 H   0  0  0  0  0  0  0  0  0  0  0  0
   -2.1097   -2.1575   -1.9293 H   0  0  0  0  0  0  0  0  0  0  0  0
   -1.2282   -3.6860   -1.9383 H   0  0  0  0  0  0  0  0  0  0  0  0
   -2.1032   -3.2168    0.3521 H   0  0  0  0  0  0  0  0  0  0  0  0
   -0.3531   -3.2168    0.3521 H   0  0  0  0  0  0  0  0  0  0  0  0
   -2.1032   -0.7226    0.2148 H   0  0  0  0  0  0  0  0  0  0  0  0
   -0.1781   -0.6135    0.1414 H   0  0  0  0  0  0  0  0  0  0  0  0
   -0.3466   -1.7819    2.4962 H   0  0  0  0  0  0  0  0  0  0  0  0
   -2.1097   -1.7819    2.4962 H   0  0  0  0  0  0  0  0  0  0  0  0
   -1.2282   -0.2534    2.5052 H   0  0  0  0  0  0  0  0  0  0  0  0
  1  2  1  0
  1  5  1  0
  1  6  1  0
  1 24  1  0
  2  3  1  0
  2  7  1  0
  2  8  1  0
  3  4  1  0
  3  9  1  0
  3 10  1  0
  4 11  1  0
  4 12  1  0
  4 13  1  0
 14 15  1  0
 14 18  1  0
 14 19  1  0
 14 20  1  0
 15 16  1  0
 15 21  1  0
 15 22  1  0
 16 17  1  0
 16 23  1  0
 17 25  1  0
 17 26  1  0
 17 27  1  0
M  RAD  1  16   2
M  END
>  <reaction>  (7) 
rmg_rxn_35

>  <mol_properties>  (7) 
{"0": {"label": "*3", "atom_type": "Cs"}, "1": {"label": "*4", "atom_type": "Cs"}, "14": {"label": "*0", "atom_type": "Cs"}, "15": {"label": "*1", "atom_type": "Cs"}, "23": {"label": "*2", "atom_type": "H0"}}

>  <type>  (7) 
unop_3

>  <geom_source>  (7) 
Heuristics

$$$$

     RDKit          3D

 27 25  0  0  0  0  0  0  0  0999 V2000
    0.1040    1.1121   -0.5488 C   0  0  0  0  0  0  0  0  0  0  0  0
    1.4009    0.4167   -0.1576 C   0  0  0  0  0  0  0  0  0  0  0  0
    2.5539    1.3874    0.0704 C   0  0  0  0  0  0  0  0  0  0  0  0
    3.8509    0.6921    0.4616 C   0  0  0  0  0  0  0  0  0  0  0  0
    0.2286    1.6819   -1.4727 H   0  0  0  0  0  0  0  0  0  0  0  0
   -0.2158    1.8100    0.2287 H   0  0  0  0  0  0  0  0  0  0  0  0
    1.6836   -0.2986   -0.9367 H   0  0  0  0  0  0  0  0  0  0  0  0
    1.2425   -0.1714    0.7521 H   0  0  0  0  0  0  0  0  0  0  0  0
    2.7123    1.9756   -0.8393 H   0  0  0  0  0  0  0  0  0  0  0  0
    2.2712    2.1027    0.8495 H   0  0  0  0  0  0  0  0  0  0  0  0
    4.1706   -0.0059   -0.3159 H   0  0  0  0  0  0  0  0  0  0  0  0
    3.7262    0.1222    1.3854 H   0  0  0  0  0  0  0  0  0  0  0  0
    4.6581    1.4093    0.6184 H   0  0  0  0  0  0  0  0  0  0  0  0
   -1.9927   -1.5983   -1.7888 C   0  0  0  0  0  0  0  0  0  0  0  0
   -1.9927   -1.5983   -0.2661 C   0  0  0  0  0  0  0  0  0  0  0  0
   -1.9927   -0.1959    0.3313 C   0  0  0  0  0  3  0  0  0  0  0  0
   -1.9927   -0.1959    1.8540 C   0  0  0  0  0  0  0  0  0  0  0  0
   -1.1111   -1.0849   -2.1801 H   0  0  0  0  0  0  0  0  0  0  0  0
   -2.8742   -1.0849   -2.1801 H   0  0  0  0  0  0  0  0  0  0  0  0
   -1.9927   -2.6134   -2.1891 H   0  0  0  0  0  0  0  0  0  0  0  0
   -2.8677   -2.1442    0.1013 H   0  0  0  0  0  0  0  0  0  0  0  0
   -1.1176   -2.1442    0.1013 H   0  0  0  0  0  0  0  0  0  0  0  0
   -2.8677    0.3500   -0.0360 H   0  0  0  0  0  0  0  0  0  0  0  0
   -0.9426    0.4592   -0.1095 H   0  0  0  0  0  0  0  0  0  0  0  0
   -1.1111   -0.7093    2.2454 H   0  0  0  0  0  0  0  0  0  0  0  0
   -2.8742   -0.7093    2.2454 H   0  0  0  0  0  0  0  0  0  0  0  0
   -1.9927    0.8192    2.2544 H   0  0  0  0  0  0  0  0  0  0  0  0
  1  2  1  0
  1  5  1  0
  1  6  1  0
  1 24  1  0
  2  3  1  0
  2  7  1  0
  2  8  1  0
  3  4  1  0
  3  9  1  0
  3 10  1  0
  4 11  1  0
  4 12  1  0
  4 13  1  0
 14 15  1  0
 14 18  1  0
 14 19  1  0
 14 20  1  0
 15 16  1  0
 15 21  1  0
 15 22  1  0
 16 17  1  0
 16 23  1  0
 17 25  1  0
 17 26  1  0
 17 27  1  0
M  RAD  1  16   2
M  END
>  <reaction>  (8) 
rmg_rxn_35

>  <mol_properties>  (8) 
{"0": {"label": "*3", "atom_type": "Cs"}, "1": {"label": "*4", "atom_type": "Cs"}, "14": {"label": "*0", "atom_type": "Cs"}, "15": {"label": "*1", "atom_type": "Cs"}, "23": {"label": "*2", "atom_type": "H0"}}

>  <type>  (8) 
unop_4

>  <geom_source>  (8) 
Heuristics

$$$$

     RDKit          3D

 27 25  0  0  0  0  0  0  0  0999 V2000
    0.7166    0.0950   -0.4508 C   0  0  0  0  0  0  0  0  0  0  0  0
    0.7711    1.5081    0.1138 C   0  0  0  0  0  0  0  0  0  0  0  0
    1.9775    2.3008   -0.3755 C   0  0  0  0  0  0  0  0  0  0  0  0
    2.0320    3.7139    0.1891 C   0  0  0  0  0  0  0  0  0  0  0  0
    1.6067   -0.4732   -0.1701 H   0  0  0  0  0  0  0  0  0  0  0  0
    0.6662    0.1113   -1.5421 H   0  0  0  0  0  0  0  0  0  0  0  0
    0.7897    1.4661    1.2077 H   0  0  0  0  0  0  0  0  0  0  0  0
   -0.1439    2.0462   -0.1542 H   0  0  0  0  0  0  0  0  0  0  0  0
    2.8925    1.7627   -0.1075 H   0  0  0  0  0  0  0  0  0  0  0  0
    1.9589    2.3428   -1.4694 H   0  0  0  0  0  0  0  0  0  0  0  0
    2.0824    3.6977    1.2804 H   0  0  0  0  0  0  0  0  0  0  0  0
    1.1419    4.2821   -0.0916 H   0  0  0  0  0  0  0  0  0  0  0  0
    2.9042    4.2580   -0.1770 H   0  0  0  0  0  0  0  0  0  0  0  0
   -1.3800   -2.6153   -1.6907 C   0  0  0  0  0  0  0  0  0  0  0  0
   -1.3800   -2.6153   -0.1680 C   0  0  0  0  0  0  0  0  0  0  0  0
   -1.3800   -1.2130    0.4293 C   0  0  0  0  0  3  0  0  0  0  0  0
   -1.3800   -1.2130    1.9520 C   0  0  0  0  0  0  0  0  0  0  0  0
   -0.4985   -2.1020   -2.0821 H   0  0  0  0  0  0  0  0  0  0  0  0
   -2.2616   -2.1020   -2.0821 H   0  0  0  0  0  0  0  0  0  0  0  0
   -1.3800   -3.6305   -2.0911 H   0  0  0  0  0  0  0  0  0  0  0  0
   -2.2551   -3.1612    0.1993 H   0  0  0  0  0  0  0  0  0  0  0  0
   -0.5050   -3.1612    0.1993 H   0  0  0  0  0  0  0  0  0  0  0  0
   -2.2551   -0.6671    0.0620 H   0  0  0  0  0  0  0  0  0  0  0  0
   -0.3300   -0.5579   -0.0114 H   0  0  0  0  0  0  0  0  0  0  0  0
   -0.4985   -1.7263    2.3434 H   0  0  0  0  0  0  0  0  0  0  0  0
   -2.2616   -1.7263    2.3434 H   0  0  0  0  0  0  0  0  0  0  0  0
   -1.3800   -0.1979    2.3524 H   0  0  0  0  0  0  0  0  0  0  0  0
  1  2  1  0
  1  5  1  0
  1  6  1  0
  1 24  1  0
  2  3  1  0
  2  7  1  0
  2  8  1  0
  3  4  1  0
  3  9  1  0
  3 10  1  0
  4 11  1  0
  4 12  1  0
  4 13  1  0
 14 15  1  0
 14 18  1  0
 14 19  1  0
 14 20  1  0
 15 16  1  0
 15 21  1  0
 15 22  1  0
 16 17  1  0
 16 23  1  0
 17 25  1  0
 17 26  1  0
 17 27  1  0
M  RAD  1  16   2
M  END
>  <reaction>  (9) 
rmg_rxn_35

>  <mol_properties>  (9) 
{"0": {"label": "*3", "atom_type": "Cs"}, "1": {"label": "*4", "atom_type": "Cs"}, "14": {"label": "*0", "atom_type": "Cs"}, "15": {"label": "*1", "atom_type": "Cs"}, "23": {"label": "*2", "atom_type": "H0"}}

>  <type>  (9) 
unop_5

>  <geom_source>  (9) 
Heuristics

$$$$

     RDKit          3D

 27 25  0  0  0  0  0  0  0  0999 V2000
    0.2381    0.7798   -0.8013 C   0  0  0  0  0  0  0  0  0  0  0  0
    1.4403    0.5888    0.1135 C   0  0  0  0  0  0  0  0  0  0  0  0
    2.2593    1.8612    0.2971 C   0  0  0  0  0  0  0  0  0  0  0  0
    3.4615    1.6702    1.2119 C   0  0  0  0  0  0  0  0  0  0  0  0
    0.5513    1.1038   -1.7967 H   0  0  0  0  0  0  0  0  0  0  0  0
   -0.4387    1.5403   -0.4046 H   0  0  0  0  0  0  0  0  0  0  0  0
    2.0863   -0.1984   -0.2884 H   0  0  0  0  0  0  0  0  0  0  0  0
    1.1036    0.2349    1.0934 H   0  0  0  0  0  0  0  0  0  0  0  0
    2.5960    2.2150   -0.6827 H   0  0  0  0  0  0  0  0  0  0  0  0
    1.6132    2.6483    0.6990 H   0  0  0  0  0  0  0  0  0  0  0  0
    4.1383    0.9097    0.8152 H   0  0  0  0  0  0  0  0  0  0  0  0
    3.1483    1.3462    2.2073 H   0  0  0  0  0  0  0  0  0  0  0  0
    4.0291    2.5952    1.3256 H   0  0  0  0  0  0  0  0  0  0  0  0
   -1.8585   -1.9306   -2.0413 C   0  0  0  0  0  0  0  0  0  0  0  0
   -1.8585   -1.9306   -0.5186 C   0  0  0  0  0  0  0  0  0  0  0  0
   -1.8585   -0.5282    0.0788 C   0  0  0  0  0  3  0  0  0  0  0  0
   -1.8585   -0.5282    1.6015 C   0  0  0  0  0  0  0  0  0  0  0  0
   -0.9770   -1.4172   -2.4327 H   0  0  0  0  0  0  0  0  0  0  0  0
   -2.7401   -1.4172   -2.4327 H   0  0  0  0  0  0  0  0  0  0  0  0
   -1.8585   -2.9457   -2.4417 H   0  0  0  0  0  0  0  0  0  0  0  0
   -2.7336   -2.4765   -0.1513 H   0  0  0  0  0  0  0  0  0  0  0  0
   -0.9835   -2.4765   -0.1513 H   0  0  0  0  0  0  0  0  0  0  0  0
   -2.7336    0.0177   -0.2885 H   0  0  0  0  0  0  0  0  0  0  0  0
   -0.8085    0.1269   -0.3620 H   0  0  0  0  0  0  0  0  0  0  0  0
   -0.9770   -1.0416    1.9928 H   0  0  0  0  0  0  0  0  0  0  0  0
   -2.7401   -1.0416    1.9928 H   0  0  0  0  0  0  0  0  0  0  0  0
   -1.8585    0.4869    2.0018 H   0  0  0  0  0  0  0  0  0  0  0  0
  1  2  1  0
  1  5  1  0
  1  6  1  0
  1 24  1  0
  2  3  1  0
  2  7  1  0
  2  8  1  0
  3  4  1  0
  3  9  1  0
  3 10  1  0
  4 11  1  0
  4 12  1  0
  4 13  1  0
 14 15  1  0
 14 18  1  0
 14 19  1  0
 14 20  1  0
 15 16  1  0
 15 21  1  0
 15 22  1  0
 16 17  1  0
 16 23  1  0
 17 25  1  0
 17 26  1  0
 17 27  1  0
M  RAD  1  16   2
M  END
>  <reaction>  (10) 
rmg_rxn_35

>  <mol_properties>  (10) 
{"0": {"label": "*3", "atom_type": "Cs"}, "1": {"label": "*4", "atom_type": "Cs"}, "14": {"label": "*0", "atom_type": "Cs"}, "15": {"label": "*1", "atom_type": "Cs"}, "23": {"label": "*2", "atom_type": "H0"}}

>  <type>  (10) 
unop_6

>  <geom_source>  (10) 
Heuristics

$$$$

     RDKit          3D

 27 25  0  0  0  0  0  0  0  0999 V2000
    0.4521    0.4291   -0.8188 C   0  0  0  0  0  0  0  0  0  0  0  0
    1.3570    0.8683    0.3244 C   0  0  0  0  0  0  0  0  0  0  0  0
    1.9280    2.2682    0.1302 C   0  0  0  0  0  0  0  0  0  0  0  0
    2.8329    2.7074    1.2734 C   0  0  0  0  0  0  0  0  0  0  0  0
    0.9945    0.4235   -1.7673 H   0  0  0  0  0  0  0  0  0  0  0  0
   -0.3972    1.1076   -0.9285 H   0  0  0  0  0  0  0  0  0  0  0  0
    2.1819    0.1569    0.4340 H   0  0  0  0  0  0  0  0  0  0  0  0
    0.8004    0.8359    1.2666 H   0  0  0  0  0  0  0  0  0  0  0  0
    2.4846    2.3006   -0.8120 H   0  0  0  0  0  0  0  0  0  0  0  0
    1.1031    2.9796    0.0206 H   0  0  0  0  0  0  0  0  0  0  0  0
    3.6823    2.0289    1.3831 H   0  0  0  0  0  0  0  0  0  0  0  0
    2.2906    2.7129    2.2219 H   0  0  0  0  0  0  0  0  0  0  0  0
    3.2272    3.7114    1.1088 H   0  0  0  0  0  0  0  0  0  0  0  0
   -1.6445   -2.2813   -2.0588 C   0  0  0  0  0  0  0  0  0  0  0  0
   -1.6445   -2.2813   -0.5361 C   0  0  0  0  0  0  0  0  0  0  0  0
   -1.6445   -0.8789    0.0613 C   0  0  0  0  0  3  0  0  0  0  0  0
   -1.6445   -0.8789    1.5840 C   0  0  0  0  0  0  0  0  0  0  0  0
   -0.7630   -1.7679   -2.4501 H   0  0  0  0  0  0  0  0  0  0  0  0
   -2.5261   -1.7679   -2.4501 H   0  0  0  0  0  0  0  0  0  0  0  0
   -1.6445   -3.2964   -2.4591 H   0  0  0  0  0  0  0  0  0  0  0  0
   -2.5196   -2.8272   -0.1688 H   0  0  0  0  0  0  0  0  0  0  0  0
   -0.7695   -2.8272   -0.1688 H   0  0  0  0  0  0  0  0  0  0  0  0
   -2.5196   -0.3330   -0.3060 H   0  0  0  0  0  0  0  0  0  0  0  0
   -0.5945   -0.2238   -0.3795 H   0  0  0  0  0  0  0  0  0  0  0  0
   -0.7630   -1.3923    1.9754 H   0  0  0  0  0  0  0  0  0  0  0  0
   -2.5261   -1.3923    1.9754 H   0  0  0  0  0  0  0  0  0  0  0  0
   -1.6445    0.1362    1.9844 H   0  0  0  0  0  0  0  0  0  0  0  0
  1  2  1  0
  1  5  1  0
  1  6  1  0
  1 24  1  0
  2  3  1  0
  2  7  1  0
  2  8  1  0
  3  4  1  0
  3  9  1  0
  3 10  1  0
  4 11  1  0
  4 12  1  0
  4 13  1  0
 14 15  1  0
 14 18  1  0
 14 19  1  0
 14 20  1  0
 15 16  1  0
 15 21  1  0
 15 22  1  0
 16 17  1  0
 16 23  1  0
 17 25  1  0
 17 26  1  0
 17 27  1  0
M  RAD  1  16   2
M  END
>  <reaction>  (11) 
rmg_rxn_35

>  <mol_properties>  (11) 
{"0": {"label": "*3", "atom_type": "Cs"}, "1": {"label": "*4", "atom_type": "Cs"}, "14": {"label": "*0", "atom_type": "Cs"}, "15": {"label": "*1", "atom_type": "Cs"}, "23": {"label": "*2", "atom_type": "H0"}}

>  <type>  (11) 
unop_7

>  <geom_source>  (11) 
Heuristics

$$$$

     RDKit          3D

 27 25  0  0  0  0  0  0  0  0999 V2000
    1.0436    0.2792    0.3738 C   0  0  0  0  0  0  0  0  0  0  0  0
    0.7345    1.0273   -0.9159 C   0  0  0  0  0  0  0  0  0  0  0  0
    1.3850    2.4044   -0.9783 C   0  0  0  0  0  0  0  0  0  0  0  0
    1.0760    3.1525   -2.2680 C   0  0  0  0  0  0  0  0  0  0  0  0
    0.6916    0.8379    1.2443 H   0  0  0  0  0  0  0  0  0  0  0  0
    2.1195    0.1293    0.4911 H   0  0  0  0  0  0  0  0  0  0  0  0
   -0.3491    1.1377   -1.0259 H   0  0  0  0  0  0  0  0  0  0  0  0
    1.0683    0.4343   -1.7736 H   0  0  0  0  0  0  0  0  0  0  0  0
    1.0513    2.9975   -0.1207 H   0  0  0  0  0  0  0  0  0  0  0  0
    2.4687    2.2941   -0.8684 H   0  0  0  0  0  0  0  0  0  0  0  0
    0.0001    3.3025   -2.3853 H   0  0  0  0  0  0  0  0  0  0  0  0
    1.4280    2.5939   -3.1385 H   0  0  0  0  0  0  0  0  0  0  0  0
    1.5533    4.1336   -2.2861 H   0  0  0  0  0  0  0  0  0  0  0  0
   -1.0530   -2.4311   -0.8662 C   0  0  0  0  0  0  0  0  0  0  0  0
   -1.0530   -2.4311    0.6565 C   0  0  0  0  0  0  0  0  0  0  0  0
   -1.0530   -1.0288    1.2539 C   0  0  0  0  0  3  0  0  0  0  0  0
   -1.0530   -1.0288    2.7766 C   0  0  0  0  0  0  0  0  0  0  0  0
   -0.1715   -1.9178   -1.2576 H   0  0  0  0  0  0  0  0  0  0  0  0
   -1.9345   -1.9178   -1.2576 H   0  0  0  0  0  0  0  0  0  0  0  0
   -1.0530   -3.4462   -1.2666 H   0  0  0  0  0  0  0  0  0  0  0  0
   -1.9280   -2.9770    1.0238 H   0  0  0  0  0  0  0  0  0  0  0  0
   -0.1780   -2.9770    1.0238 H   0  0  0  0  0  0  0  0  0  0  0  0
   -1.9280   -0.4829    0.8866 H   0  0  0  0  0  0  0  0  0  0  0  0
   -0.0030   -0.3737    0.8131 H   0  0  0  0  0  0  0  0  0  0  0  0
   -0.1715   -1.5421    3.1680 H   0  0  0  0  0  0  0  0  0  0  0  0
   -1.9345   -1.5421    3.1680 H   0  0  0  0  0  0  0  0  0  0  0  0
   -1.0530   -0.0137    3.1770 H   0  0  0  0  0  0  0  0  0  0  0  0
  1  2  1  0
  1  5  1  0
  1  6  1  0
  1 24  1  0
  2  3  1  0
  2  7  1  0
  2  8  1  0
  3  4  1  0
  3  9  1  0
  3 10  1  0
  4 11  1  0
  4 12  1  0
  4 13  1  0
 14 15  1  0
 14 18  1  0
 14 19  1  0
 14 20  1  0
 15 16  1  0
 15 21  1  0
 15 22  1  0
 16 17  1  0
 16 23  1  0
 17 25  1  0
 17 26  1  0
 17 27  1  0
M  RAD  1  16   2
M  END
>  <reaction>  (12) 
rmg_rxn_35

>  <mol_properties>  (12) 
{"0": {"label": "*3", "atom_type": "Cs"}, "1": {"label": "*4", "atom_type": "Cs"}, "14": {"label": "*0", "atom_type": "Cs"}, "15": {"label": "*1", "atom_type": "Cs"}, "23": {"label": "*2", "atom_type": "H0"}}

>  <type>  (12) 
unop_8

>  <geom_source>  (12) 
Heuristics

$$$$

     RDKit          3D

 27 25  0  0  0  0  0  0  0  0999 V2000
    0.1225    1.2996   -0.1252 C   0  0  0  0  0  0  0  0  0  0  0  0
    1.2864    0.3609   -0.4128 C   0  0  0  0  0  0  0  0  0  0  0  0
    2.6272    1.0808   -0.4994 C   0  0  0  0  0  0  0  0  0  0  0  0
    3.7911    0.1421   -0.7870 C   0  0  0  0  0  0  0  0  0  0  0  0
    0.0280    2.0568   -0.9072 H   0  0  0  0  0  0  0  0  0  0  0  0
    0.2661    1.8217    0.8238 H   0  0  0  0  0  0  0  0  0  0  0  0
    1.1048   -0.1725   -1.3515 H   0  0  0  0  0  0  0  0  0  0  0  0
    1.3412   -0.4059    0.3668 H   0  0  0  0  0  0  0  0  0  0  0  0
    2.5724    1.8475   -1.2790 H   0  0  0  0  0  0  0  0  0  0  0  0
    2.8088    1.6141    0.4393 H   0  0  0  0  0  0  0  0  0  0  0  0
    3.6475   -0.3800   -1.7360 H   0  0  0  0  0  0  0  0  0  0  0  0
    3.8856   -0.6151   -0.0050 H   0  0  0  0  0  0  0  0  0  0  0  0
    4.7371    0.6829   -0.8437 H   0  0  0  0  0  0  0  0  0  0  0  0
   -1.9741   -1.4107   -1.3652 C   0  0  0  0  0  0  0  0  0  0  0  0
   -1.9741   -1.4107    0.1575 C   0  0  0  0  0  0  0  0  0  0  0  0
   -1.9741   -0.0084    0.7549 C   0  0  0  0  0  3  0  0  0  0  0  0
   -1.9741   -0.0084    2.2776 C   0  0  0  0  0  0  0  0  0  0  0  0
   -1.0926   -0.8974   -1.7566 H   0  0  0  0  0  0  0  0  0  0  0  0
   -2.8557   -0.8974   -1.7566 H   0  0  0  0  0  0  0  0  0  0  0  0
   -1.9741   -2.4259   -1.7656 H   0  0  0  0  0  0  0  0  0  0  0  0
   -2.8492   -1.9566    0.5248 H   0  0  0  0  0  0  0  0  0  0  0  0
   -1.0991   -1.9566    0.5248 H   0  0  0  0  0  0  0  0  0  0  0  0
   -2.8492    0.5375    0.3876 H   0  0  0  0  0  0  0  0  0  0  0  0
   -0.9241    0.6467    0.3141 H   0  0  0  0  0  0  0  0  0  0  0  0
   -1.0926   -0.5217    2.6690 H   0  0  0  0  0  0  0  0  0  0  0  0
   -2.8557   -0.5217    2.6690 H   0  0  0  0  0  0  0  0  0  0  0  0
   -1.9741    1.0067    2.6780 H   0  0  0  0  0  0  0  0  0  0  0  0
  1  2  1  0
  1  5  1  0
  1  6  1  0
  1 24  1  0
  2  3  1  0
  2  7  1  0
  2  8  1  0
  3  4  1  0
  3  9  1  0
  3 10  1  0
  4 11  1  0
  4 12  1  0
  4 13  1  0
 14 15  1  0
 14 18  1  0
 14 19  1  0
 14 20  1  0
 15 16  1  0
 15 21  1  0
 15 22  1  0
 16 17  1  0
 16 23  1  0
 17 25  1  0
 17 26  1  0
 17 27  1  0
M  RAD  1  16   2
M  END
>  <reaction>  (13) 
rmg_rxn_35

>  <mol_properties>  (13) 
{"0": {"label": "*3", "atom_type": "Cs"}, "1": {"label": "*4", "atom_type": "Cs"}, "14": {"label": "*0", "atom_type": "Cs"}, "15": {"label": "*1", "atom_type": "Cs"}, "23": {"label": "*2", "atom_type": "H0"}}

>  <type>  (13) 
unop_9

>  <geom_source>  (13) 
Heuristics

$$$$

     RDKit          3D

 27 25  0  0  0  0  0  0  0  0999 V2000
    0.8937    0.6213    0.6032 C   0  0  0  0  0  0  0  0  0  0  0  0
    0.8819    0.7393   -0.9148 C   0  0  0  0  0  0  0  0  0  0  0  0
    1.5326    2.0220   -1.4194 C   0  0  0  0  0  0  0  0  0  0  0  0
    1.5208    2.1400   -2.9375 C   0  0  0  0  0  0  0  0  0  0  0  0
    0.3573    1.4539    1.0647 H   0  0  0  0  0  0  0  0  0  0  0  0
    1.9159    0.6334    0.9888 H   0  0  0  0  0  0  0  0  0  0  0  0
   -0.1496    0.6936   -1.2788 H   0  0  0  0  0  0  0  0  0  0  0  0
    1.3975   -0.1208   -1.3541 H   0  0  0  0  0  0  0  0  0  0  0  0
    1.0170    2.8821   -0.9802 H   0  0  0  0  0  0  0  0  0  0  0  0
    2.5641    2.0677   -1.0555 H   0  0  0  0  0  0  0  0  0  0  0  0
    0.4985    2.1279   -3.3231 H   0  0  0  0  0  0  0  0  0  0  0  0
    2.0572    1.3074   -3.3989 H   0  0  0  0  0  0  0  0  0  0  0  0
    1.9920    3.0660   -3.2708 H   0  0  0  0  0  0  0  0  0  0  0  0
   -1.2029   -2.0890   -0.6367 C   0  0  0  0  0  0  0  0  0  0  0  0
   -1.2029   -2.0890    0.8860 C   0  0  0  0  0  0  0  0  0  0  0  0
   -1.2029   -0.6866    1.4833 C   0  0  0  0  0  3  0  0  0  0  0  0
   -1.2029   -0.6866    3.0060 C   0  0  0  0  0  0  0  0  0  0  0  0
   -0.3214   -1.5757   -1.0281 H   0  0  0  0  0  0  0  0  0  0  0  0
   -2.0845   -1.5757   -1.0281 H   0  0  0  0  0  0  0  0  0  0  0  0
   -1.2029   -3.1041   -1.0371 H   0  0  0  0  0  0  0  0  0  0  0  0
   -2.0780   -2.6349    1.2533 H   0  0  0  0  0  0  0  0  0  0  0  0
   -0.3279   -2.6349    1.2533 H   0  0  0  0  0  0  0  0  0  0  0  0
   -2.0780   -0.1408    1.1160 H   0  0  0  0  0  0  0  0  0  0  0  0
   -0.1529   -0.0316    1.0426 H   0  0  0  0  0  0  0  0  0  0  0  0
   -0.3214   -1.2000    3.3974 H   0  0  0  0  0  0  0  0  0  0  0  0
   -2.0845   -1.2000    3.3974 H   0  0  0  0  0  0  0  0  0  0  0  0
   -1.2029    0.3285    3.4064 H   0  0  0  0  0  0  0  0  0  0  0  0
  1  2  1  0
  1  5  1  0
  1  6  1  0
  1 24  1  0
  2  3  1  0
  2  7  1  0
  2  8  1  0
  3  4  1  0
  3  9  1  0
  3 10  1  0
  4 11  1  0
  4 12  1  0
  4 13  1  0
 14 15  1  0
 14 18  1  0
 14 19  1  0
 14 20  1  0
 15 16  1  0
 15 21  1  0
 15 22  1  0
 16 17  1  0
 16 23  1  0
 17 25  1  0
 17 26  1  0
 17 27  1  0
M  RAD  1  16   2
M  END
>  <reaction>  (14) 
rmg_rxn_35

>  <mol_properties>  (14) 
{"0": {"label": "*3", "atom_type": "Cs"}, "1": {"label": "*4", "atom_type": "Cs"}, "14": {"label": "*0", "atom_type": "Cs"}, "15": {"label": "*1", "atom_type": "Cs"}, "23": {"label": "*2", "atom_type": "H0"}}

>  <type>  (14) 
unop_10

>  <geom_source>  (14) 
Heuristics

$$$$

     RDKit          3D

 27 25  0  0  0  0  0  0  0  0999 V2000
    0.6355    0.1842   -0.6378 C   0  0  0  0  0  0  0  0  0  0  0  0
    1.1203    1.2105    0.3772 C   0  0  0  0  0  0  0  0  0  0  0  0
    1.8012    2.4125   -0.2672 C   0  0  0  0  0  0  0  0  0  0  0  0
    2.2860    3.4388    0.7478 C   0  0  0  0  0  0  0  0  0  0  0  0
    1.4672   -0.2012   -1.2324 H   0  0  0  0  0  0  0  0  0  0  0  0
   -0.0861    0.6273   -1.3282 H   0  0  0  0  0  0  0  0  0  0  0  0
    1.8172    0.7358    1.0755 H   0  0  0  0  0  0  0  0  0  0  0  0
    0.2753    1.5582    0.9803 H   0  0  0  0  0  0  0  0  0  0  0  0
    2.6462    2.0649   -0.8703 H   0  0  0  0  0  0  0  0  0  0  0  0
    1.1043    2.8873   -0.9654 H   0  0  0  0  0  0  0  0  0  0  0  0
    3.0076    2.9958    1.4383 H   0  0  0  0  0  0  0  0  0  0  0  0
    1.4543    3.8243    1.3424 H   0  0  0  0  0  0  0  0  0  0  0  0
    2.7686    4.2873    0.2600 H   0  0  0  0  0  0  0  0  0  0  0  0
   -1.4611   -2.5261   -1.8777 C   0  0  0  0  0  0  0  0  0  0  0  0
   -1.4611   -2.5261   -0.3550 C   0  0  0  0  0  0  0  0  0  0  0  0
   -1.4611   -1.1238    0.2423 C   0  0  0  0  0  3  0  0  0  0  0  0
   -1.4611   -1.1238    1.7650 C   0  0  0  0  0  0  0  0  0  0  0  0
   -0.5796   -2.0128   -2.2691 H   0  0  0  0  0  0  0  0  0  0  0  0
   -2.3426   -2.0128   -2.2691 H   0  0  0  0  0  0  0  0  0  0  0  0
   -1.4611   -3.5412   -2.2781 H   0  0  0  0  0  0  0  0  0  0  0  0
   -2.3362   -3.0720    0.0123 H   0  0  0  0  0  0  0  0  0  0  0  0
   -0.5861   -3.0720    0.0123 H   0  0  0  0  0  0  0  0  0  0  0  0
   -2.3362   -0.5779   -0.1250 H   0  0  0  0  0  0  0  0  0  0  0  0
   -0.4111   -0.4687   -0.1984 H   0  0  0  0  0  0  0  0  0  0  0  0
   -0.5796   -1.6371    2.1564 H   0  0  0  0  0  0  0  0  0  0  0  0
   -2.3426   -1.6371    2.1564 H   0  0  0  0  0  0  0  0  0  0  0  0
   -1.4611   -0.1087    2.1654 H   0  0  0  0  0  0  0  0  0  0  0  0
  1  2  1  0
  1  5  1  0
  1  6  1  0
  1 24  1  0
  2  3  1  0
  2  7  1  0
  2  8  1  0
  3  4  1  0
  3  9  1  0
  3 10  1  0
  4 11  1  0
  4 12  1  0
  4 13  1  0
 14 15  1  0
 14 18  1  0
 14 19  1  0
 14 20  1  0
 15 16  1  0
 15 21  1  0
 15 22  1  0
 16 17  1  0
 16 23  1  0
 17 25  1  0
 17 26  1  0
 17 27  1  0
M  RAD  1  16   2
M  END
>  <reaction>  (15) 
rmg_rxn_35

>  <mol_properties>  (15) 
{"0": {"label": "*3", "atom_type": "Cs"}, "1": {"label": "*4", "atom_type": "Cs"}, "14": {"label": "*0", "atom_type": "Cs"}, "15": {"label": "*1", "atom_type": "Cs"}, "23": {"label": "*2", "atom_type": "H0"}}

>  <type>  (15) 
unop_11

>  <geom_source>  (15) 
Heuristics

$$$$

     RDKit          3D

 27 25  0  0  0  0  0  0  0  0999 V2000
    0.3153    1.2561    0.3189 C   0  0  0  0  0  0  0  0  0  0  0  0
    1.1540    0.4001   -0.6206 C   0  0  0  0  0  0  0  0  0  0  0  0
    2.3832    1.1269   -1.1537 C   0  0  0  0  0  0  0  0  0  0  0  0
    3.2219    0.2710   -2.0932 C   0  0  0  0  0  0  0  0  0  0  0  0
   -0.0409    2.1573   -0.1858 H   0  0  0  0  0  0  0  0  0  0  0  0
    0.8996    1.5729    1.1861 H   0  0  0  0  0  0  0  0  0  0  0  0
    0.5390    0.0701   -1.4641 H   0  0  0  0  0  0  0  0  0  0  0  0
    1.4726   -0.5100   -0.1023 H   0  0  0  0  0  0  0  0  0  0  0  0
    2.0646    2.0371   -1.6720 H   0  0  0  0  0  0  0  0  0  0  0  0
    2.9982    1.4570   -0.3102 H   0  0  0  0  0  0  0  0  0  0  0  0
    2.6376   -0.0458   -2.9604 H   0  0  0  0  0  0  0  0  0  0  0  0
    3.5781   -0.6302   -1.5884 H   0  0  0  0  0  0  0  0  0  0  0  0
    4.0940    0.8150   -2.4593 H   0  0  0  0  0  0  0  0  0  0  0  0
   -1.7813   -1.4543   -0.9211 C   0  0  0  0  0  0  0  0  0  0  0  0
   -1.7813   -1.4543    0.6016 C   0  0  0  0  0  0  0  0  0  0  0  0
   -1.7813   -0.0519    1.1990 C   0  0  0  0  0  3  0  0  0  0  0  0
   -1.7813   -0.0519    2.7217 C   0  0  0  0  0  0  0  0  0  0  0  0
   -0.8998   -0.9409   -1.3124 H   0  0  0  0  0  0  0  0  0  0  0  0
   -2.6628   -0.9409   -1.3124 H   0  0  0  0  0  0  0  0  0  0  0  0
   -1.7813   -2.4694   -1.3214 H   0  0  0  0  0  0  0  0  0  0  0  0
   -2.6563   -2.0001    0.9689 H   0  0  0  0  0  0  0  0  0  0  0  0
   -0.9063   -2.0001    0.9689 H   0  0  0  0  0  0  0  0  0  0  0  0
   -2.6563    0.4940    0.8317 H   0  0  0  0  0  0  0  0  0  0  0  0
   -0.7313    0.6032    0.7582 H   0  0  0  0  0  0  0  0  0  0  0  0
   -0.8998   -0.5652    3.1131 H   0  0  0  0  0  0  0  0  0  0  0  0
   -2.6628   -0.5652    3.1131 H   0  0  0  0  0  0  0  0  0  0  0  0
   -1.7813    0.9632    3.1221 H   0  0  0  0  0  0  0  0  0  0  0  0
  1  2  1  0
  1  5  1  0
  1  6  1  0
  1 24  1  0
  2  3  1  0
  2  7  1  0
  2  8  1  0
  3  4  1  0
  3  9  1  0
  3 10  1  0
  4 11  1  0
  4 12  1  0
  4 13  1  0
 14 15  1  0
 14 18  1  0
 14 19  1  0
 14 20  1  0
 15 16  1  0
 15 21  1  0
 15 22  1  0
 16 17  1  0
 16 23  1  0
 17 25  1  0
 17 26  1  0
 17 27  1  0
M  RAD  1  16   2
M  END
>  <reaction>  (16) 
rmg_rxn_35

>  <mol_properties>  (16) 
{"0": {"label": "*3", "atom_type": "Cs"}, "1": {"label": "*4", "atom_type": "Cs"}, "14": {"label": "*0", "atom_type": "Cs"}, "15": {"label": "*1", "atom_type": "Cs"}, "23": {"label": "*2", "atom_type": "H0"}}

>  <type>  (16) 
unop_12

>  <geom_source>  (16) 
Heuristics

$$$$

     RDKit          3D

 27 25  0  0  0  0  0  0  0  0999 V2000
    3.0146   -0.6470   -0.3710 C   0  0  0  0  0  0  0  0  0  0  0  0
    1.7073    0.1469   -0.2745 C   0  0  0  0  0  0  0  0  0  0  0  0
   -2.7746    1.1130   -0.0378 C   0  0  0  0  0  0  0  0  0  0  0  0
    4.2193    0.2850   -0.4612 C   0  0  0  0  0  0  0  0  0  0  0  0
    0.5026   -0.7835   -0.1843 C   0  0  0  0  0  0  0  0  0  0  0  0
   -3.3382    0.1310   -1.0609 C   0  0  0  0  0  0  0  0  0  0  0  0
   -1.8824   -0.5190    1.7040 C   0  0  0  0  0  0  0  0  0  0  0  0
   -1.5380    0.5493    0.6694 C   0  0  0  0  0  3  0  0  0  0  0  0
    3.1272   -1.2946    0.5259 H   0  0  0  0  0  0  0  0  0  0  0  0
    2.9936   -1.2959   -1.2737 H   0  0  0  0  0  0  0  0  0  0  0  0
    1.5931    0.7941   -1.1711 H   0  0  0  0  0  0  0  0  0  0  0  0
    1.7267    0.7955    0.6281 H   0  0  0  0  0  0  0  0  0  0  0  0
   -2.4791    2.0408   -0.5734 H   0  0  0  0  0  0  0  0  0  0  0  0
   -3.5590    1.3827    0.7024 H   0  0  0  0  0  0  0  0  0  0  0  0
    4.2779    0.9284    0.4426 H   0  0  0  0  0  0  0  0  0  0  0  0
    5.1503   -0.3163   -0.5299 H   0  0  0  0  0  0  0  0  0  0  0  0
    4.1437    0.9270   -1.3646 H   0  0  0  0  0  0  0  0  0  0  0  0
    0.4423   -1.4265   -1.0882 H   0  0  0  0  0  0  0  0  0  0  0  0
    0.5766   -1.4252    0.7195 H   0  0  0  0  0  0  0  0  0  0  0  0
   -0.5837   -0.0741   -0.1042 H   0  0  0  0  0  0  0  0  0  0  0  0
   -2.5451   -0.1823   -1.7731 H   0  0  0  0  0  0  0  0  0  0  0  0
   -3.7568   -0.7647   -0.5569 H   0  0  0  0  0  0  0  0  0  0  0  0
   -4.1547    0.6206   -1.6323 H   0  0  0  0  0  0  0  0  0  0  0  0
   -2.5876   -0.1143    2.4608 H   0  0  0  0  0  0  0  0  0  0  0  0
   -2.3314   -1.4067    1.2135 H   0  0  0  0  0  0  0  0  0  0  0  0
   -0.9535   -0.8408    2.2191 H   0  0  0  0  0  0  0  0  0  0  0  0
   -0.9913    1.3764    1.1719 H   0  0  0  0  0  0  0  0  0  0  0  0
  1  4  1  0
  1  2  1  0
  1  9  1  0
  1 10  1  0
  2  5  1  0
  2 11  1  0
  2 12  1  0
  3  6  1  0
  3  8  1  0
  3 13  1  0
  3 14  1  0
  4 15  1  0
  4 16  1  0
  4 17  1  0
  5 18  1  0
  5 19  1  0
  5 20  1  0
  6 21  1  0
  6 22  1  0
  6 23  1  0
  7  8  1  0
  7 24  1  0
  7 25  1  0
  7 26  1  0
  8 27  1  0
M  RAD  1   8   2
M  END
>  <reaction>  (17) 
rmg_rxn_35

>  <mol_properties>  (17) 
{"0": {"label": "*3", "atom_type": "Cs"}, "1": {"label": "*4", "atom_type": "Cs"}, "14": {"label": "*0", "atom_type": "Cs"}, "15": {"label": "*1", "atom_type": "Cs"}, "23": {"label": "*2", "atom_type": "H0"}}

>  <type>  (17) 
unop_13

>  <geom_source>  (17) 
AutoTST

$$$$

     RDKit          3D

 27 25  0  0  0  0  0  0  0  0999 V2000
    0.6163    0.9927    0.5952 C   0  0  0  0  0  0  0  0  0  0  0  0
    1.0246    0.5235   -0.7947 C   0  0  0  0  0  0  0  0  0  0  0  0
    1.9289    1.5147   -1.5181 C   0  0  0  0  0  0  0  0  0  0  0  0
    2.3371    1.0455   -2.9080 C   0  0  0  0  0  0  0  0  0  0  0  0
    0.0749    1.9404    0.5450 H   0  0  0  0  0  0  0  0  0  0  0  0
    1.4926    1.1467    1.2294 H   0  0  0  0  0  0  0  0  0  0  0  0
    0.1298    0.3468   -1.4003 H   0  0  0  0  0  0  0  0  0  0  0  0
    1.5371   -0.4411   -0.7209 H   0  0  0  0  0  0  0  0  0  0  0  0
    1.4164    2.4794   -1.5919 H   0  0  0  0  0  0  0  0  0  0  0  0
    2.8236    1.6914   -0.9125 H   0  0  0  0  0  0  0  0  0  0  0  0
    1.4609    0.8916   -3.5422 H   0  0  0  0  0  0  0  0  0  0  0  0
    2.8786    0.0978   -2.8578 H   0  0  0  0  0  0  0  0  0  0  0  0
    2.9831    1.7729   -3.4024 H   0  0  0  0  0  0  0  0  0  0  0  0
   -1.4803   -1.7176   -0.6448 C   0  0  0  0  0  0  0  0  0  0  0  0
   -1.4803   -1.7176    0.8779 C   0  0  0  0  0  0  0  0  0  0  0  0
   -1.4803   -0.3152    1.4753 C   0  0  0  0  0  3  0  0  0  0  0  0
   -1.4803   -0.3152    2.9980 C   0  0  0  0  0  0  0  0  0  0  0  0
   -0.5988   -1.2043   -1.0361 H   0  0  0  0  0  0  0  0  0  0  0  0
   -2.3618   -1.2043   -1.0361 H   0  0  0  0  0  0  0  0  0  0  0  0
   -1.4803   -2.7327   -1.0452 H   0  0  0  0  0  0  0  0  0  0  0  0
   -2.3553   -2.2635    1.2452 H   0  0  0  0  0  0  0  0  0  0  0  0
   -0.6053   -2.2635    1.2452 H   0  0  0  0  0  0  0  0  0  0  0  0
   -2.3553    0.2306    1.1080 H   0  0  0  0  0  0  0  0  0  0  0  0
   -0.4303    0.3398    1.0345 H   0  0  0  0  0  0  0  0  0  0  0  0
   -0.5988   -0.8286    3.3893 H   0  0  0  0  0  0  0  0  0  0  0  0
   -2.3618   -0.8286    3.3893 H   0  0  0  0  0  0  0  0  0  0  0  0
   -1.4803    0.6999    3.3984 H   0  0  0  0  0  0  0  0  0  0  0  0
  1  2  1  0
  1  5  1  0
  1  6  1  0
  1 24  1  0
  2  3  1  0
  2  7  1  0
  2  8  1  0
  3  4  1  0
  3  9  1  0
  3 10  1  0
  4 11  1  0
  4 12  1  0
  4 13  1  0
 14 15  1  0
 14 18  1  0
 14 19  1  0
 14 20  1  0
 15 16  1  0
 15 21  1  0
 15 22  1  0
 16 17  1  0
 16 23  1  0
 17 25  1  0
 17 26  1  0
 17 27  1  0
M  RAD  1  16   2
M  END
>  <reaction>  (18) 
rmg_rxn_35

>  <mol_properties>  (18) 
{"0": {"label": "*3", "atom_type": "Cs"}, "1": {"label": "*4", "atom_type": "Cs"}, "14": {"label": "*0", "atom_type": "Cs"}, "15": {"label": "*1", "atom_type": "Cs"}, "23": {"label": "*2", "atom_type": "H0"}}

>  <type>  (18) 
unop_14

>  <geom_source>  (18) 
gaussian_log

$$$$
