
     RDKit          3D

  6  5  0  0  0  0  0  0  0  0999 V2000
   -0.4547   -0.0097   -0.0070 C   0  0  0  0  0  0  0  0  0  0  0  0
    0.8695   -0.1987   -0.6218 N   0  0  0  0  0  0  0  0  0  0  0  0
    1.0322   -1.2809   -1.0969 O   0  0  0  0  0  0  0  0  0  0  0  0
   -0.2820    0.2687    1.0347 H   0  0  0  0  0  0  0  0  0  0  0  0
   -1.0716   -0.9051   -0.0916 H   0  0  0  0  0  0  0  0  0  0  0  0
   -0.9130    0.8487   -0.5026 H   0  0  0  0  0  0  0  0  0  0  0  0
  1  2  1  0
  1  4  1  0
  1  5  1  0
  1  6  1  0
  2  3  2  0
M  END
>  <reaction>  (1) 
rmg_rxn_15385

>  <mol_properties>  (1) 
{"0": {"label": "donator", "atom_type": "Cs"}, "3": {"label": "d_hydrogen", "atom_type": "H0"}}

>  <type>  (1) 
r1h

$$$$

     RDKit          3D

  5  4  0  0  0  0  0  0  0  0999 V2000
    0.8934    0.3742    0.4948 O   0  0  0  0  0  0  0  0  0  0  0  0
    0.1582   -0.1610   -0.5904 N   0  0  0  0  0  0  0  0  0  0  0  0
   -1.0297   -0.3739   -0.4689 C   0  0  0  0  0  3  0  0  0  0  0  0
    1.7805    0.4382    0.1306 H   0  0  0  0  0  0  0  0  0  0  0  0
   -1.8023   -0.2775    0.2859 H   0  0  0  0  0  0  0  0  0  0  0  0
  1  2  1  0
  1  4  1  0
  2  3  2  3
  3  5  1  0
M  RAD  1   3   2
M  END
>  <reaction>  (2) 
rmg_rxn_15385

>  <mol_properties>  (2) 
{"2": {"label": "acceptor", "atom_type": "Cd"}}

>  <type>  (2) 
r2

$$$$

     RDKit          3D

  6  5  0  0  0  0  0  0  0  0999 V2000
    1.2314    0.0428    0.5088 O   0  0  0  0  0  0  0  0  0  0  0  0
    0.2987    0.2341   -0.4915 N   0  0  0  0  0  0  0  0  0  0  0  0
   -0.8599   -0.1122   -0.1290 C   0  0  0  0  0  0  0  0  0  0  0  0
    2.0507    0.3401    0.1082 H   0  0  0  0  0  0  0  0  0  0  0  0
   -1.0700   -0.5112    0.8610 H   0  0  0  0  0  0  0  0  0  0  0  0
   -1.6509    0.0064   -0.8574 H   0  0  0  0  0  0  0  0  0  0  0  0
  1  2  1  0
  1  4  1  0
  2  3  2  3
  3  5  1  0
  3  6  1  0
M  END
>  <reaction>  (3) 
rmg_rxn_15385

>  <mol_properties>  (3) 
{"2": {"label": "acceptor", "atom_type": "Cd"}, "5": {"label": "a_hydrogen", "atom_type": "H0"}}

>  <type>  (3) 
r2h

$$$$

     RDKit          3D

 11  9  0  0  0  0  0  0  0  0999 V2000
   -2.0821    0.1198    2.4411 O   0  0  0  0  0  0  0  0  0  0  0  0
   -0.8577    0.2198    1.7788 N   0  0  0  0  0  0  0  0  0  0  0  0
   -0.9142    0.2069    0.5465 C   0  0  0  0  0  3  0  0  0  0  0  0
   -1.8272    0.1465    3.3669 H   0  0  0  0  0  0  0  0  0  0  0  0
   -1.7489    0.1362   -0.1471 H   0  0  0  0  0  0  0  0  0  0  0  0
    1.5441    0.5002   -0.5946 C   0  0  0  0  0  0  0  0  0  0  0  0
    1.4345    0.0885   -1.9623 N   0  0  0  0  0  0  0  0  0  0  0  0
    0.7676    0.8042   -2.6625 O   0  0  0  0  0  0  0  0  0  0  0  0
    0.4467    0.2979   -0.1046 H   0  0  0  0  0  0  0  0  0  0  0  0
    1.6930    1.5756   -0.4869 H   0  0  0  0  0  0  0  0  0  0  0  0
    2.2609   -0.1096   -0.0524 H   0  0  0  0  0  0  0  0  0  0  0  0
  1  2  1  0
  1  4  1  0
  2  3  2  3
  3  5  1  0
  6  7  1  0
  6  9  1  0
  6 10  1  0
  6 11  1  0
  7  8  2  0
M  RAD  1   3   2
M  END
>  <reaction>  (4) 
rmg_rxn_15385

>  <mol_properties>  (4) 
{"1": {"label": "*4", "atom_type": "N3d"}, "2": {"label": "*3", "atom_type": "Cd"}, "5": {"label": "*1", "atom_type": "Cs"}, "6": {"label": "*0", "atom_type": "N3d"}, "8": {"label": "*2", "atom_type": "H0"}}

>  <type>  (4) 
ts

$$$$

     RDKit          3D

 11  9  0  0  0  0  0  0  0  0999 V2000
   -3.2442   -0.2616   -0.0468 O   0  0  0  0  0  0  0  0  0  0  0  0
   -1.9690    0.2936   -0.1544 N   0  0  0  0  0  0  0  0  0  0  0  0
   -1.0103   -0.3694    0.2967 C   0  0  0  0  0  0  0  0  0  0  0  0
   -3.8320    0.3927   -0.4498 H   0  0  0  0  0  0  0  0  0  0  0  0
   -1.0626   -1.3459    0.7657 H   0  0  0  0  0  0  0  0  0  0  0  0
    1.2688    0.9094   -0.0365 C   0  0  0  0  0  0  0  0  0  0  0  0
    2.3009    0.2115    0.2481 N   0  0  0  0  0  0  0  0  0  0  0  0
    2.9329   -0.7146   -0.2352 O   0  0  0  0  0  1  0  0  0  0  0  0
    0.0699    0.1706    0.1735 H   0  0  0  0  0  0  0  0  0  0  0  0
    1.0312    1.1230   -1.0833 H   0  0  0  0  0  0  0  0  0  0  0  0
    1.0424    1.7009    0.6673 H   0  0  0  0  0  0  0  0  0  0  0  0
  1  2  1  0
  1  4  1  0
  2  3  2  3
  3  5  1  0
  3  9  1  0
  6  7  2  3
  6 10  1  0
  6 11  1  0
  7  8  1  0
M  RAD  1   8   2
M  END
>  <reaction>  (5) 
rmg_rxn_15385

>  <mol_properties>  (5) 
{"1": {"label": "*4", "atom_type": "N3d"}, "2": {"label": "*3", "atom_type": "Cd"}, "5": {"label": "*1", "atom_type": "Cs"}, "6": {"label": "*0", "atom_type": "N3d"}, "8": {"label": "*2", "atom_type": "H0"}}

>  <type>  (5) 
unop_1

>  <geom_source>  (5) 
crest_best.xyz

$$$$

     RDKit          3D

 11  9  0  0  0  0  0  0  0  0999 V2000
   -1.6399    1.4010    2.3958 O   0  0  0  0  0  0  0  0  0  0  0  0
   -0.7481    0.4807    1.8811 N   0  0  0  0  0  0  0  0  0  0  0  0
   -0.9577    0.2538    0.6571 C   0  0  0  0  0  0  0  0  0  0  0  0
   -1.3732    1.4790    3.3138 H   0  0  0  0  0  0  0  0  0  0  0  0
   -1.7544    0.7404    0.0983 H   0  0  0  0  0  0  0  0  0  0  0  0
    1.1445    0.1117   -0.8809 C   0  0  0  0  0  0  0  0  0  0  0  0
    1.1445   -1.2340   -1.4777 N   0  0  0  0  0  0  0  0  0  0  0  0
    1.1445   -1.2340   -2.6708 O   0  0  0  0  0  1  0  0  0  0  0  0
    0.0885    0.1831   -0.1083 H   0  0  0  0  0  0  0  0  0  0  0  0
    1.1445    0.8922   -1.6426 H   0  0  0  0  0  0  0  0  0  0  0  0
    2.0245    0.1712   -0.2371 H   0  0  0  0  0  0  0  0  0  0  0  0
  1  2  1  0
  1  4  1  0
  2  3  2  3
  3  5  1  0
  3  9  1  0
  6  7  2  3
  6 10  1  0
  6 11  1  0
  7  8  1  0
M  RAD  1   8   2
M  END
>  <reaction>  (6) 
rmg_rxn_15385

>  <mol_properties>  (6) 
{"1": {"label": "*4", "atom_type": "N3d"}, "2": {"label": "*3", "atom_type": "Cd"}, "5": {"label": "*1", "atom_type": "Cs"}, "6": {"label": "*0", "atom_type": "N3d"}, "8": {"label": "*2", "atom_type": "H0"}}

>  <type>  (6) 
unop_2

>  <geom_source>  (6) 
Heuristics

$$$$

     RDKit          3D

 11  9  0  0  0  0  0  0  0  0999 V2000
   -1.9859   -0.0091    2.3915 O   0  0  0  0  0  0  0  0  0  0  0  0
   -1.1482   -0.2320    1.3165 N   0  0  0  0  0  0  0  0  0  0  0  0
   -0.7599    0.8472    0.7892 C   0  0  0  0  0  0  0  0  0  0  0  0
   -2.2019   -0.8941    2.6919 H   0  0  0  0  0  0  0  0  0  0  0  0
   -1.0651    1.8239    1.1588 H   0  0  0  0  0  0  0  0  0  0  0  0
    1.3423    0.7051   -0.7488 C   0  0  0  0  0  0  0  0  0  0  0  0
    1.3423   -0.6407   -1.3456 N   0  0  0  0  0  0  0  0  0  0  0  0
    1.3423   -0.6407   -2.5387 O   0  0  0  0  0  1  0  0  0  0  0  0
    0.2863    0.7765    0.0238 H   0  0  0  0  0  0  0  0  0  0  0  0
    1.3423    1.4855   -1.5106 H   0  0  0  0  0  0  0  0  0  0  0  0
    2.2223    0.7646   -0.1050 H   0  0  0  0  0  0  0  0  0  0  0  0
  1  2  1  0
  1  4  1  0
  2  3  2  3
  3  5  1  0
  3  9  1  0
  6  7  2  3
  6 10  1  0
  6 11  1  0
  7  8  1  0
M  RAD  1   8   2
M  END
>  <reaction>  (7) 
rmg_rxn_15385

>  <mol_properties>  (7) 
{"1": {"label": "*4", "atom_type": "N3d"}, "2": {"label": "*3", "atom_type": "Cd"}, "5": {"label": "*1", "atom_type": "Cs"}, "6": {"label": "*0", "atom_type": "N3d"}, "8": {"label": "*2", "atom_type": "H0"}}

>  <type>  (7) 
unop_3

>  <geom_source>  (7) 
Heuristics

$$$$

     RDKit          3D

 11  9  0  0  0  0  0  0  0  0999 V2000
   -1.9761    1.4757    2.0933 O   0  0  0  0  0  0  0  0  0  0  0  0
   -0.7647    0.8915    1.7799 N   0  0  0  0  0  0  0  0  0  0  0  0
   -0.8517    0.1360    0.7724 C   0  0  0  0  0  0  0  0  0  0  0  0
   -1.7716    2.0127    2.8614 H   0  0  0  0  0  0  0  0  0  0  0  0
   -1.7842   -0.0183    0.2336 H   0  0  0  0  0  0  0  0  0  0  0  0
    1.2505   -0.0062   -0.7656 C   0  0  0  0  0  0  0  0  0  0  0  0
    1.2505   -1.3519   -1.3624 N   0  0  0  0  0  0  0  0  0  0  0  0
    1.2505   -1.3519   -2.5555 O   0  0  0  0  0  1  0  0  0  0  0  0
    0.1945    0.0652    0.0070 H   0  0  0  0  0  0  0  0  0  0  0  0
    1.2505    0.7743   -1.5274 H   0  0  0  0  0  0  0  0  0  0  0  0
    2.1305    0.0533   -0.1218 H   0  0  0  0  0  0  0  0  0  0  0  0
  1  2  1  0
  1  4  1  0
  2  3  2  3
  3  5  1  0
  3  9  1  0
  6  7  2  3
  6 10  1  0
  6 11  1  0
  7  8  1  0
M  RAD  1   8   2
M  END
>  <reaction>  (8) 
rmg_rxn_15385

>  <mol_properties>  (8) 
{"1": {"label": "*4", "atom_type": "N3d"}, "2": {"label": "*3", "atom_type": "Cd"}, "5": {"label": "*1", "atom_type": "Cs"}, "6": {"label": "*0", "atom_type": "N3d"}, "8": {"label": "*2", "atom_type": "H0"}}

>  <type>  (8) 
unop_4

>  <geom_source>  (8) 
Heuristics

$$$$

     RDKit          3D

 11  9  0  0  0  0  0  0  0  0999 V2000
   -2.5887    0.9990    1.3128 O   0  0  0  0  0  0  0  0  0  0  0  0
   -1.5939    0.2615    0.7016 N   0  0  0  0  0  0  0  0  0  0  0  0
   -0.4736    0.4267    1.2593 C   0  0  0  0  0  0  0  0  0  0  0  0
   -3.3706    0.7849    0.8000 H   0  0  0  0  0  0  0  0  0  0  0  0
   -0.3367    1.0795    2.1188 H   0  0  0  0  0  0  0  0  0  0  0  0
    1.6286    0.2846   -0.2787 C   0  0  0  0  0  0  0  0  0  0  0  0
    1.6286   -1.0612   -0.8755 N   0  0  0  0  0  0  0  0  0  0  0  0
    1.6286   -1.0612   -2.0686 O   0  0  0  0  0  1  0  0  0  0  0  0
    0.5726    0.3560    0.4939 H   0  0  0  0  0  0  0  0  0  0  0  0
    1.6286    1.0650   -1.0405 H   0  0  0  0  0  0  0  0  0  0  0  0
    2.5086    0.3441    0.3651 H   0  0  0  0  0  0  0  0  0  0  0  0
  1  2  1  0
  1  4  1  0
  2  3  2  3
  3  5  1  0
  3  9  1  0
  6  7  2  3
  6 10  1  0
  6 11  1  0
  7  8  1  0
M  RAD  1   8   2
M  END
>  <reaction>  (9) 
rmg_rxn_15385

>  <mol_properties>  (9) 
{"1": {"label": "*4", "atom_type": "N3d"}, "2": {"label": "*3", "atom_type": "Cd"}, "5": {"label": "*1", "atom_type": "Cs"}, "6": {"label": "*0", "atom_type": "N3d"}, "8": {"label": "*2", "atom_type": "H0"}}

>  <type>  (9) 
unop_5

>  <geom_source>  (9) 
Heuristics

$$$$

     RDKit          3D

 11  9  0  0  0  0  0  0  0  0999 V2000
    3.2398   -0.2649    0.0532 O   0  0  0  0  0  0  0  0  0  0  0  0
    1.9634    0.2853    0.1719 N   0  0  0  0  0  0  0  0  0  0  0  0
    1.0120   -0.3486   -0.3334 C   0  0  0  0  0  0  0  0  0  0  0  0
    3.8211    0.3633    0.5044 H   0  0  0  0  0  0  0  0  0  0  0  0
    1.0718   -1.2959   -0.8580 H   0  0  0  0  0  0  0  0  0  0  0  0
   -1.2716    0.9136    0.0318 C   0  0  0  0  0  0  0  0  0  0  0  0
   -2.3021    0.2093   -0.2425 N   0  0  0  0  0  0  0  0  0  0  0  0
   -2.9211   -0.7237    0.2441 O   0  0  0  0  0  1  0  0  0  0  0  0
   -0.0700    0.1846   -0.1968 H   0  0  0  0  0  0  0  0  0  0  0  0
   -1.0212    1.1239    1.0764 H   0  0  0  0  0  0  0  0  0  0  0  0
   -1.0607    1.7101   -0.6711 H   0  0  0  0  0  0  0  0  0  0  0  0
  1  2  1  0
  1  4  1  0
  2  3  2  3
  3  5  1  0
  3  9  1  0
  6  7  2  3
  6 10  1  0
  6 11  1  0
  7  8  1  0
M  RAD  1   8   2
M  END
>  <reaction>  (10) 
rmg_rxn_15385

>  <mol_properties>  (10) 
{"1": {"label": "*4", "atom_type": "N3d"}, "2": {"label": "*3", "atom_type": "Cd"}, "5": {"label": "*1", "atom_type": "Cs"}, "6": {"label": "*0", "atom_type": "N3d"}, "8": {"label": "*2", "atom_type": "H0"}}

>  <type>  (10) 
unop_6

>  <geom_source>  (10) 
Heuristics

$$$$

     RDKit          3D

 11  9  0  0  0  0  0  0  0  0999 V2000
   -2.0904    1.2011    2.2122 O   0  0  0  0  0  0  0  0  0  0  0  0
   -0.9541    1.2308    1.4281 N   0  0  0  0  0  0  0  0  0  0  0  0
   -0.7731    0.1408    0.8178 C   0  0  0  0  0  0  0  0  0  0  0  0
   -2.1078    2.0732    2.6112 H   0  0  0  0  0  0  0  0  0  0  0  0
   -1.4490   -0.7060    0.9164 H   0  0  0  0  0  0  0  0  0  0  0  0
    1.3291   -0.0014   -0.7202 C   0  0  0  0  0  0  0  0  0  0  0  0
    1.3291   -1.3471   -1.3170 N   0  0  0  0  0  0  0  0  0  0  0  0
    1.3291   -1.3471   -2.5101 O   0  0  0  0  0  1  0  0  0  0  0  0
    0.2731    0.0700    0.0524 H   0  0  0  0  0  0  0  0  0  0  0  0
    1.3291    0.7791   -1.4820 H   0  0  0  0  0  0  0  0  0  0  0  0
    2.2091    0.0581   -0.0764 H   0  0  0  0  0  0  0  0  0  0  0  0
  1  2  1  0
  1  4  1  0
  2  3  2  3
  3  5  1  0
  3  9  1  0
  6  7  2  3
  6 10  1  0
  6 11  1  0
  7  8  1  0
M  RAD  1   8   2
M  END
>  <reaction>  (11) 
rmg_rxn_15385

>  <mol_properties>  (11) 
{"1": {"label": "*4", "atom_type": "N3d"}, "2": {"label": "*3", "atom_type": "Cd"}, "5": {"label": "*1", "atom_type": "Cs"}, "6": {"label": "*0", "atom_type": "N3d"}, "8": {"label": "*2", "atom_type": "H0"}}

>  <type>  (11) 
unop_7

>  <geom_source>  (11) 
Heuristics

$$$$

     RDKit          3D

 11  9  0  0  0  0  0  0  0  0999 V2000
    3.2464    0.2616   -0.0414 O   0  0  0  0  0  0  0  0  0  0  0  0
    1.9731   -0.2990   -0.1439 N   0  0  0  0  0  0  0  0  0  0  0  0
    1.0087    0.3784    0.2724 C   0  0  0  0  0  0  0  0  0  0  0  0
    3.8396   -0.4059   -0.4137 H   0  0  0  0  0  0  0  0  0  0  0  0
    1.0549    1.3706    0.7079 H   0  0  0  0  0  0  0  0  0  0  0  0
   -1.2688   -0.9085   -0.0413 C   0  0  0  0  0  0  0  0  0  0  0  0
   -2.2999   -0.2123    0.2516 N   0  0  0  0  0  0  0  0  0  0  0  0
   -2.9383    0.7113   -0.2278 O   0  0  0  0  0  1  0  0  0  0  0  0
   -0.0700   -0.1662    0.1564 H   0  0  0  0  0  0  0  0  0  0  0  0
   -1.0406   -1.1235   -1.0900 H   0  0  0  0  0  0  0  0  0  0  0  0
   -1.0339   -1.6981    0.6616 H   0  0  0  0  0  0  0  0  0  0  0  0
  1  2  1  0
  1  4  1  0
  2  3  2  3
  3  5  1  0
  3  9  1  0
  6  7  2  3
  6 10  1  0
  6 11  1  0
  7  8  1  0
M  RAD  1   8   2
M  END
>  <reaction>  (12) 
rmg_rxn_15385

>  <mol_properties>  (12) 
{"1": {"label": "*4", "atom_type": "N3d"}, "2": {"label": "*3", "atom_type": "Cd"}, "5": {"label": "*1", "atom_type": "Cs"}, "6": {"label": "*0", "atom_type": "N3d"}, "8": {"label": "*2", "atom_type": "H0"}}

>  <type>  (12) 
unop_8

>  <geom_source>  (12) 
Heuristics

$$$$

     RDKit          3D

 11  9  0  0  0  0  0  0  0  0999 V2000
   -2.3137    1.4707    1.5045 O   0  0  0  0  0  0  0  0  0  0  0  0
   -1.6166    0.6171    0.6724 N   0  0  0  0  0  0  0  0  0  0  0  0
   -0.5518    0.2011    1.2078 C   0  0  0  0  0  0  0  0  0  0  0  0
   -3.0845    1.7069    0.9849 H   0  0  0  0  0  0  0  0  0  0  0  0
   -0.2441    0.4967    2.2086 H   0  0  0  0  0  0  0  0  0  0  0  0
    1.5504    0.0589   -0.3302 C   0  0  0  0  0  0  0  0  0  0  0  0
    1.5504   -1.2868   -0.9270 N   0  0  0  0  0  0  0  0  0  0  0  0
    1.5504   -1.2868   -2.1201 O   0  0  0  0  0  1  0  0  0  0  0  0
    0.4943    0.1303    0.4424 H   0  0  0  0  0  0  0  0  0  0  0  0
    1.5504    0.8394   -1.0919 H   0  0  0  0  0  0  0  0  0  0  0  0
    2.4304    0.1184    0.3136 H   0  0  0  0  0  0  0  0  0  0  0  0
  1  2  1  0
  1  4  1  0
  2  3  2  3
  3  5  1  0
  3  9  1  0
  6  7  2  3
  6 10  1  0
  6 11  1  0
  7  8  1  0
M  RAD  1   8   2
M  END
>  <reaction>  (13) 
rmg_rxn_15385

>  <mol_properties>  (13) 
{"1": {"label": "*4", "atom_type": "N3d"}, "2": {"label": "*3", "atom_type": "Cd"}, "5": {"label": "*1", "atom_type": "Cs"}, "6": {"label": "*0", "atom_type": "N3d"}, "8": {"label": "*2", "atom_type": "H0"}}

>  <type>  (13) 
unop_9

>  <geom_source>  (13) 
Heuristics

$$$$

     RDKit          3D

 11  9  0  0  0  0  0  0  0  0999 V2000
    3.2418    0.2635   -0.0504 O   0  0  0  0  0  0  0  0  0  0  0  0
    1.9660   -0.2892   -0.1640 N   0  0  0  0  0  0  0  0  0  0  0  0
    1.0111    0.3581    0.3168 C   0  0  0  0  0  0  0  0  0  0  0  0
    3.8262   -0.3769   -0.4799 H   0  0  0  0  0  0  0  0  0  0  0  0
    1.0669    1.3185    0.8176 H   0  0  0  0  0  0  0  0  0  0  0  0
   -1.2705   -0.9120   -0.0337 C   0  0  0  0  0  0  0  0  0  0  0  0
   -2.3017   -0.2103    0.2451 N   0  0  0  0  0  0  0  0  0  0  0  0
   -2.9261    0.7198   -0.2404 O   0  0  0  0  0  1  0  0  0  0  0  0
   -0.0700   -0.1789    0.1870 H   0  0  0  0  0  0  0  0  0  0  0  0
   -1.0260   -1.1239   -1.0793 H   0  0  0  0  0  0  0  0  0  0  0  0
   -1.0530   -1.7063    0.6696 H   0  0  0  0  0  0  0  0  0  0  0  0
  1  2  1  0
  1  4  1  0
  2  3  2  3
  3  5  1  0
  3  9  1  0
  6  7  2  3
  6 10  1  0
  6 11  1  0
  7  8  1  0
M  RAD  1   8   2
M  END
>  <reaction>  (14) 
rmg_rxn_15385

>  <mol_properties>  (14) 
{"1": {"label": "*4", "atom_type": "N3d"}, "2": {"label": "*3", "atom_type": "Cd"}, "5": {"label": "*1", "atom_type": "Cs"}, "6": {"label": "*0", "atom_type": "N3d"}, "8": {"label": "*2", "atom_type": "H0"}}

>  <type>  (14) 
unop_10

>  <geom_source>  (14) 
Heuristics

$$$$

     RDKit          3D

 11  9  0  0  0  0  0  0  0  0999 V2000
   -1.9813    1.6168    1.9090 O   0  0  0  0  0  0  0  0  0  0  0  0
   -1.5209    0.9691    0.7796 N   0  0  0  0  0  0  0  0  0  0  0  0
   -0.6750    0.0751    1.0601 C   0  0  0  0  0  0  0  0  0  0  0  0
   -2.6042    2.2570    1.5594 H   0  0  0  0  0  0  0  0  0  0  0  0
   -0.3637   -0.1386    2.0804 H   0  0  0  0  0  0  0  0  0  0  0  0
    1.4272   -0.0670   -0.4779 C   0  0  0  0  0  0  0  0  0  0  0  0
    1.4272   -1.4128   -1.0747 N   0  0  0  0  0  0  0  0  0  0  0  0
    1.4272   -1.4128   -2.2678 O   0  0  0  0  0  1  0  0  0  0  0  0
    0.3712    0.0044    0.2947 H   0  0  0  0  0  0  0  0  0  0  0  0
    1.4272    0.7135   -1.2397 H   0  0  0  0  0  0  0  0  0  0  0  0
    2.3072   -0.0075    0.1659 H   0  0  0  0  0  0  0  0  0  0  0  0
  1  2  1  0
  1  4  1  0
  2  3  2  3
  3  5  1  0
  3  9  1  0
  6  7  2  3
  6 10  1  0
  6 11  1  0
  7  8  1  0
M  RAD  1   8   2
M  END
>  <reaction>  (15) 
rmg_rxn_15385

>  <mol_properties>  (15) 
{"1": {"label": "*4", "atom_type": "N3d"}, "2": {"label": "*3", "atom_type": "Cd"}, "5": {"label": "*1", "atom_type": "Cs"}, "6": {"label": "*0", "atom_type": "N3d"}, "8": {"label": "*2", "atom_type": "H0"}}

>  <type>  (15) 
unop_11

>  <geom_source>  (15) 
Heuristics

$$$$

     RDKit          3D

 11  9  0  0  0  0  0  0  0  0999 V2000
   -1.4962    0.9540    2.6697 O   0  0  0  0  0  0  0  0  0  0  0  0
   -0.8286    0.1190    1.7955 N   0  0  0  0  0  0  0  0  0  0  0  0
   -0.9827    0.4734    0.5937 C   0  0  0  0  0  0  0  0  0  0  0  0
   -1.2989    0.5783    3.5299 H   0  0  0  0  0  0  0  0  0  0  0  0
   -1.5769    1.3391    0.3090 H   0  0  0  0  0  0  0  0  0  0  0  0
    1.1195    0.3313   -0.9442 C   0  0  0  0  0  0  0  0  0  0  0  0
    1.1195   -1.0145   -1.5410 N   0  0  0  0  0  0  0  0  0  0  0  0
    1.1195   -1.0145   -2.7341 O   0  0  0  0  0  1  0  0  0  0  0  0
    0.0635    0.4027   -0.1716 H   0  0  0  0  0  0  0  0  0  0  0  0
    1.1195    1.1117   -1.7060 H   0  0  0  0  0  0  0  0  0  0  0  0
    1.9995    0.3908   -0.3004 H   0  0  0  0  0  0  0  0  0  0  0  0
  1  2  1  0
  1  4  1  0
  2  3  2  3
  3  5  1  0
  3  9  1  0
  6  7  2  3
  6 10  1  0
  6 11  1  0
  7  8  1  0
M  RAD  1   8   2
M  END
>  <reaction>  (16) 
rmg_rxn_15385

>  <mol_properties>  (16) 
{"1": {"label": "*4", "atom_type": "N3d"}, "2": {"label": "*3", "atom_type": "Cd"}, "5": {"label": "*1", "atom_type": "Cs"}, "6": {"label": "*0", "atom_type": "N3d"}, "8": {"label": "*2", "atom_type": "H0"}}

>  <type>  (16) 
unop_12

>  <geom_source>  (16) 
Heuristics

$$$$

     RDKit          3D

 11  9  0  0  0  0  0  0  0  0999 V2000
   -3.2442   -0.2616   -0.0468 O   0  0  0  0  0  0  0  0  0  0  0  0
   -1.9690    0.2936   -0.1544 N   0  0  0  0  0  0  0  0  0  0  0  0
   -1.0103   -0.3694    0.2967 C   0  0  0  0  0  0  0  0  0  0  0  0
   -3.8320    0.3927   -0.4498 H   0  0  0  0  0  0  0  0  0  0  0  0
   -1.0626   -1.3459    0.7657 H   0  0  0  0  0  0  0  0  0  0  0  0
    1.2688    0.9094   -0.0365 C   0  0  0  0  0  0  0  0  0  0  0  0
    2.3009    0.2115    0.2481 N   0  0  0  0  0  0  0  0  0  0  0  0
    2.9329   -0.7146   -0.2352 O   0  0  0  0  0  1  0  0  0  0  0  0
    0.0699    0.1706    0.1735 H   0  0  0  0  0  0  0  0  0  0  0  0
    1.0312    1.1230   -1.0833 H   0  0  0  0  0  0  0  0  0  0  0  0
    1.0424    1.7009    0.6673 H   0  0  0  0  0  0  0  0  0  0  0  0
  1  2  1  0
  1  4  1  0
  2  3  2  3
  3  5  1  0
  3  9  1  0
  6  7  2  3
  6 10  1  0
  6 11  1  0
  7  8  1  0
M  RAD  1   8   2
M  END
>  <reaction>  (17) 
rmg_rxn_15385

>  <mol_properties>  (17) 
{"1": {"label": "*4", "atom_type": "N3d"}, "2": {"label": "*3", "atom_type": "Cd"}, "5": {"label": "*1", "atom_type": "Cs"}, "6": {"label": "*0", "atom_type": "N3d"}, "8": {"label": "*2", "atom_type": "H0"}}

>  <type>  (17) 
unop_13

>  <geom_source>  (17) 
Heuristics

$$$$

     RDKit          3D

 11  9  0  0  0  0  0  0  0  0999 V2000
   -2.6417    0.4054    1.4569 O   0  0  0  0  0  0  0  0  0  0  0  0
   -1.4813   -0.0214    0.8418 N   0  0  0  0  0  0  0  0  0  0  0  0
   -0.4836    0.6725    1.1830 C   0  0  0  0  0  0  0  0  0  0  0  0
   -3.3074   -0.1954    1.1162 H   0  0  0  0  0  0  0  0  0  0  0  0
   -0.5581    1.5034    1.8814 H   0  0  0  0  0  0  0  0  0  0  0  0
    1.6186    0.5304   -0.3550 C   0  0  0  0  0  0  0  0  0  0  0  0
    1.6186   -0.8154   -0.9518 N   0  0  0  0  0  0  0  0  0  0  0  0
    1.6186   -0.8154   -2.1449 O   0  0  0  0  0  1  0  0  0  0  0  0
    0.5626    0.6018    0.4176 H   0  0  0  0  0  0  0  0  0  0  0  0
    1.6186    1.3109   -1.1167 H   0  0  0  0  0  0  0  0  0  0  0  0
    2.4986    0.5899    0.2889 H   0  0  0  0  0  0  0  0  0  0  0  0
  1  2  1  0
  1  4  1  0
  2  3  2  3
  3  5  1  0
  3  9  1  0
  6  7  2  3
  6 10  1  0
  6 11  1  0
  7  8  1  0
M  RAD  1   8   2
M  END
>  <reaction>  (18) 
rmg_rxn_15385

>  <mol_properties>  (18) 
{"1": {"label": "*4", "atom_type": "N3d"}, "2": {"label": "*3", "atom_type": "Cd"}, "5": {"label": "*1", "atom_type": "Cs"}, "6": {"label": "*0", "atom_type": "N3d"}, "8": {"label": "*2", "atom_type": "H0"}}

>  <type>  (18) 
unop_14

>  <geom_source>  (18) 
Heuristics

$$$$

     RDKit          3D

 11  9  0  0  0  0  0  0  0  0999 V2000
   -1.6254    0.3901    2.6858 O   0  0  0  0  0  0  0  0  0  0  0  0
   -0.9745   -0.1301    1.5845 N   0  0  0  0  0  0  0  0  0  0  0  0
   -0.9097    0.7023    0.6377 C   0  0  0  0  0  0  0  0  0  0  0  0
   -1.6044   -0.3314    3.3174 H   0  0  0  0  0  0  0  0  0  0  0  0
   -1.3262    1.7049    0.7085 H   0  0  0  0  0  0  0  0  0  0  0  0
    1.1925    0.5602   -0.9002 C   0  0  0  0  0  0  0  0  0  0  0  0
    1.1925   -0.7856   -1.4970 N   0  0  0  0  0  0  0  0  0  0  0  0
    1.1925   -0.7856   -2.6902 O   0  0  0  0  0  1  0  0  0  0  0  0
    0.1365    0.6316   -0.1277 H   0  0  0  0  0  0  0  0  0  0  0  0
    1.1925    1.3407   -1.6620 H   0  0  0  0  0  0  0  0  0  0  0  0
    2.0726    0.6197   -0.2564 H   0  0  0  0  0  0  0  0  0  0  0  0
  1  2  1  0
  1  4  1  0
  2  3  2  3
  3  5  1  0
  3  9  1  0
  6  7  2  3
  6 10  1  0
  6 11  1  0
  7  8  1  0
M  RAD  1   8   2
M  END
>  <reaction>  (19) 
rmg_rxn_15385

>  <mol_properties>  (19) 
{"1": {"label": "*4", "atom_type": "N3d"}, "2": {"label": "*3", "atom_type": "Cd"}, "5": {"label": "*1", "atom_type": "Cs"}, "6": {"label": "*0", "atom_type": "N3d"}, "8": {"label": "*2", "atom_type": "H0"}}

>  <type>  (19) 
unop_15

>  <geom_source>  (19) 
Heuristics

$$$$

     RDKit          3D

 11  9  0  0  0  0  0  0  0  0999 V2000
   -1.8428    1.3914    2.2834 O   0  0  0  0  0  0  0  0  0  0  0  0
   -1.2924    1.2250    1.0278 N   0  0  0  0  0  0  0  0  0  0  0  0
   -0.7700    0.0843    0.8889 C   0  0  0  0  0  0  0  0  0  0  0  0
   -2.1977    2.2820    2.2539 H   0  0  0  0  0  0  0  0  0  0  0  0
   -0.7681   -0.6606    1.6818 H   0  0  0  0  0  0  0  0  0  0  0  0
    1.3322   -0.0578   -0.6491 C   0  0  0  0  0  0  0  0  0  0  0  0
    1.3322   -1.4036   -1.2459 N   0  0  0  0  0  0  0  0  0  0  0  0
    1.3322   -1.4036   -2.4390 O   0  0  0  0  0  1  0  0  0  0  0  0
    0.2762    0.0136    0.1235 H   0  0  0  0  0  0  0  0  0  0  0  0
    1.3322    0.7226   -1.4108 H   0  0  0  0  0  0  0  0  0  0  0  0
    2.2122    0.0017   -0.0053 H   0  0  0  0  0  0  0  0  0  0  0  0
  1  2  1  0
  1  4  1  0
  2  3  2  3
  3  5  1  0
  3  9  1  0
  6  7  2  3
  6 10  1  0
  6 11  1  0
  7  8  1  0
M  RAD  1   8   2
M  END
>  <reaction>  (20) 
rmg_rxn_15385

>  <mol_properties>  (20) 
{"1": {"label": "*4", "atom_type": "N3d"}, "2": {"label": "*3", "atom_type": "Cd"}, "5": {"label": "*1", "atom_type": "Cs"}, "6": {"label": "*0", "atom_type": "N3d"}, "8": {"label": "*2", "atom_type": "H0"}}

>  <type>  (20) 
unop_16

>  <geom_source>  (20) 
Heuristics

$$$$

     RDKit          3D

 11  9  0  0  0  0  0  0  0  0999 V2000
   -2.4044   -0.0107    1.8951 O   0  0  0  0  0  0  0  0  0  0  0  0
   -1.3223   -0.1904    1.0562 N   0  0  0  0  0  0  0  0  0  0  0  0
   -0.5925    0.8380    1.0003 C   0  0  0  0  0  0  0  0  0  0  0  0
   -2.8652   -0.8505    1.8460 H   0  0  0  0  0  0  0  0  0  0  0  0
   -0.8139    1.7455    1.5580 H   0  0  0  0  0  0  0  0  0  0  0  0
    1.5097    0.6959   -0.5377 C   0  0  0  0  0  0  0  0  0  0  0  0
    1.5097   -0.6499   -1.1345 N   0  0  0  0  0  0  0  0  0  0  0  0
    1.5097   -0.6499   -2.3276 O   0  0  0  0  0  1  0  0  0  0  0  0
    0.4537    0.7673    0.2349 H   0  0  0  0  0  0  0  0  0  0  0  0
    1.5097    1.4764   -1.2995 H   0  0  0  0  0  0  0  0  0  0  0  0
    2.3897    0.7554    0.1061 H   0  0  0  0  0  0  0  0  0  0  0  0
  1  2  1  0
  1  4  1  0
  2  3  2  3
  3  5  1  0
  3  9  1  0
  6  7  2  3
  6 10  1  0
  6 11  1  0
  7  8  1  0
M  RAD  1   8   2
M  END
>  <reaction>  (21) 
rmg_rxn_15385

>  <mol_properties>  (21) 
{"1": {"label": "*4", "atom_type": "N3d"}, "2": {"label": "*3", "atom_type": "Cd"}, "5": {"label": "*1", "atom_type": "Cs"}, "6": {"label": "*0", "atom_type": "N3d"}, "8": {"label": "*2", "atom_type": "H0"}}

>  <type>  (21) 
unop_17

>  <geom_source>  (21) 
Heuristics

$$$$

     RDKit          3D

 11  9  0  0  0  0  0  0  0  0999 V2000
   -3.0472   -0.7957    0.1288 O   0  0  0  0  0  0  0  0  0  0  0  0
    2.8075   -1.0610    0.5444 O   0  0  0  0  0  1  0  0  0  0  0  0
   -1.9556    0.0044    0.3722 N   0  0  0  0  0  0  0  0  0  0  0  0
    2.6507    0.1203    0.6015 N   0  0  0  0  0  0  0  0  0  0  0  0
   -0.8199   -0.2464   -0.1904 C   0  0  0  0  0  0  0  0  0  0  0  0
    1.5698    0.7410   -0.1142 C   0  0  0  0  0  0  0  0  0  0  0  0
   -0.7109   -1.0893   -0.8612 H   0  0  0  0  0  0  0  0  0  0  0  0
    0.1756    0.4981    0.0428 H   0  0  0  0  0  0  0  0  0  0  0  0
    1.5560    1.8278    0.1085 H   0  0  0  0  0  0  0  0  0  0  0  0
    1.7071    0.5930   -1.2061 H   0  0  0  0  0  0  0  0  0  0  0  0
   -3.9332   -0.5922    0.5737 H   0  0  0  0  0  0  0  0  0  0  0  0
  1  3  1  0
  1 11  1  0
  2  4  1  0
  3  5  2  3
  4  6  2  3
  5  7  1  0
  5  8  1  0
  6  9  1  0
  6 10  1  0
M  RAD  1   2   2
M  END
>  <reaction>  (22) 
rmg_rxn_15385

>  <mol_properties>  (22) 
{"1": {"label": "*4", "atom_type": "N3d"}, "2": {"label": "*3", "atom_type": "Cd"}, "5": {"label": "*1", "atom_type": "Cs"}, "6": {"label": "*0", "atom_type": "N3d"}, "8": {"label": "*2", "atom_type": "H0"}}

>  <type>  (22) 
unop_18

>  <geom_source>  (22) 
AutoTST

$$$$

     RDKit          3D

 11  9  0  0  0  0  0  0  0  0999 V2000
   -1.9860   -0.0092    2.3915 O   0  0  0  0  0  0  0  0  0  0  0  0
   -1.1482   -0.2320    1.3166 N   0  0  0  0  0  0  0  0  0  0  0  0
   -0.7599    0.8472    0.7892 C   0  0  0  0  0  0  0  0  0  0  0  0
   -2.2019   -0.8941    2.6919 H   0  0  0  0  0  0  0  0  0  0  0  0
   -1.0651    1.8238    1.1588 H   0  0  0  0  0  0  0  0  0  0  0  0
    1.3423    0.7051   -0.7488 C   0  0  0  0  0  0  0  0  0  0  0  0
    1.3423   -0.6407   -1.3456 N   0  0  0  0  0  0  0  0  0  0  0  0
    1.3423   -0.6407   -2.5387 O   0  0  0  0  0  1  0  0  0  0  0  0
    0.2863    0.7765    0.0238 H   0  0  0  0  0  0  0  0  0  0  0  0
    1.3423    1.4855   -1.5106 H   0  0  0  0  0  0  0  0  0  0  0  0
    2.2223    0.7646   -0.1050 H   0  0  0  0  0  0  0  0  0  0  0  0
  1  2  1  0
  1  4  1  0
  2  3  2  3
  3  5  1  0
  3  9  1  0
  6  7  2  3
  6 10  1  0
  6 11  1  0
  7  8  1  0
M  RAD  1   8   2
M  END
>  <reaction>  (23) 
rmg_rxn_15385

>  <mol_properties>  (23) 
{"1": {"label": "*4", "atom_type": "N3d"}, "2": {"label": "*3", "atom_type": "Cd"}, "5": {"label": "*1", "atom_type": "Cs"}, "6": {"label": "*0", "atom_type": "N3d"}, "8": {"label": "*2", "atom_type": "H0"}}

>  <type>  (23) 
unop_19

>  <geom_source>  (23) 
gaussian_log

$$$$
