
     RDKit          3D

 14 14  0  0  0  0  0  0  0  0999 V2000
   -1.1778    0.2241    0.1818 C   0  0  0  0  0  0  0  0  0  0  0  0
   -0.5633   -1.1636    0.0678 C   0  0  0  0  0  0  0  0  0  0  0  0
    0.6943   -1.1996    0.7146 O   0  0  0  0  0  0  0  0  0  0  0  0
    1.5547   -0.2288    0.2011 C   0  0  0  0  0  0  0  0  0  0  0  0
    1.0729    1.0696    0.3698 O   0  0  0  0  0  0  0  0  0  0  0  0
   -0.1607    1.2493   -0.2989 C   0  0  0  0  0  0  0  0  0  0  0  0
   -2.0927    0.2866   -0.4117 H   0  0  0  0  0  0  0  0  0  0  0  0
   -1.4303    0.4248    1.2248 H   0  0  0  0  0  0  0  0  0  0  0  0
   -1.1822   -1.9235    0.5431 H   0  0  0  0  0  0  0  0  0  0  0  0
   -0.4389   -1.4347   -0.9919 H   0  0  0  0  0  0  0  0  0  0  0  0
    1.7250   -0.4207   -0.8742 H   0  0  0  0  0  0  0  0  0  0  0  0
    2.4896   -0.3010    0.7524 H   0  0  0  0  0  0  0  0  0  0  0  0
   -0.0080    1.1481   -1.3844 H   0  0  0  0  0  0  0  0  0  0  0  0
   -0.4826    2.2695   -0.0942 H   0  0  0  0  0  0  0  0  0  0  0  0
  1  2  1  0
  1  6  1  0
  1  7  1  0
  1  8  1  0
  2  3  1  0
  2  9  1  0
  2 10  1  0
  3  4  1  0
  4  5  1  0
  4 11  1  0
  4 12  1  0
  5  6  1  0
  6 13  1  0
  6 14  1  0
M  END
>  <reaction>  (1) 
rmg_rxn_266

>  <mol_properties>  (1) 
{"1": {"label": "donator", "atom_type": "Cs"}, "8": {"label": "d_hydrogen", "atom_type": "H0"}}

>  <type>  (1) 
r1h

$$$$

     RDKit          3D

  8  7  0  0  0  0  0  0  0  0999 V2000
   -1.0336    0.3440   -0.0356 C   0  0  0  0  0  3  0  0  0  0  0  0
    0.1991   -0.4326   -0.0698 C   0  0  0  0  0  0  0  0  0  0  0  0
    0.9631   -0.0368    1.2269 N   0  0  0  0  0  0  0  0  0  0  0  0
    0.8138   -0.8074    2.1160 O   0  0  0  0  0  0  0  0  0  0  0  0
   -1.0668    1.3490   -0.4321 H   0  0  0  0  0  0  0  0  0  0  0  0
   -1.8598    0.0102    0.5774 H   0  0  0  0  0  0  0  0  0  0  0  0
    0.0447   -1.5108   -0.0264 H   0  0  0  0  0  0  0  0  0  0  0  0
    0.8639   -0.1518   -0.8851 H   0  0  0  0  0  0  0  0  0  0  0  0
  1  2  1  0
  1  5  1  0
  1  6  1  0
  2  3  1  0
  2  7  1  0
  2  8  1  0
  3  4  2  0
M  RAD  1   1   2
M  END
>  <reaction>  (2) 
rmg_rxn_266

>  <mol_properties>  (2) 
{"0": {"label": "acceptor", "atom_type": "Cs"}}

>  <type>  (2) 
r2

$$$$

     RDKit          3D

  9  8  0  0  0  0  0  0  0  0999 V2000
   -1.0314    0.2323   -0.1227 C   0  0  0  0  0  0  0  0  0  0  0  0
    0.3094   -0.4511    0.0063 C   0  0  0  0  0  0  0  0  0  0  0  0
    0.3197   -1.7698    0.6841 N   0  0  0  0  0  0  0  0  0  0  0  0
   -0.7498   -2.1455    1.0557 O   0  0  0  0  0  0  0  0  0  0  0  0
   -1.4744    0.4198    0.8552 H   0  0  0  0  0  0  0  0  0  0  0  0
   -0.9073    1.1865   -0.6350 H   0  0  0  0  0  0  0  0  0  0  0  0
   -1.7319   -0.3778   -0.6927 H   0  0  0  0  0  0  0  0  0  0  0  0
    1.0375    0.1401    0.5713 H   0  0  0  0  0  0  0  0  0  0  0  0
    0.7826   -0.6494   -0.9609 H   0  0  0  0  0  0  0  0  0  0  0  0
  1  2  1  0
  1  5  1  0
  1  6  1  0
  1  7  1  0
  2  3  1  0
  2  8  1  0
  2  9  1  0
  3  4  2  0
M  END
>  <reaction>  (3) 
rmg_rxn_266

>  <mol_properties>  (3) 
{"0": {"label": "acceptor", "atom_type": "Cs"}, "8": {"label": "a_hydrogen", "atom_type": "H0"}}

>  <type>  (3) 
r2h

$$$$

     RDKit          3D

 22 21  0  0  0  0  0  0  0  0999 V2000
    0.6382   -1.7414    0.8129 C   0  0  0  0  0  3  0  0  0  0  0  0
   -0.7897   -1.6175    1.2290 C   0  0  0  0  0  0  0  0  0  0  0  0
   -1.3891   -2.7724    1.9625 N   0  0  0  0  0  0  0  0  0  0  0  0
   -0.6496   -3.6884    2.1479 O   0  0  0  0  0  0  0  0  0  0  0  0
    1.3545   -1.7834    1.6293 H   0  0  0  0  0  0  0  0  0  0  0  0
    0.8365   -2.4989    0.0582 H   0  0  0  0  0  0  0  0  0  0  0  0
   -0.9638   -0.7646    1.8920 H   0  0  0  0  0  0  0  0  0  0  0  0
   -1.4693   -1.4668    0.3840 H   0  0  0  0  0  0  0  0  0  0  0  0
    0.7124    0.4118   -1.8808 C   0  0  0  0  0  0  0  0  0  0  0  0
    1.0011    0.6076   -0.4141 C   0  0  0  0  0  0  0  0  0  0  0  0
    0.0115    1.3583    0.2228 O   0  0  0  0  0  0  0  0  0  0  0  0
   -0.2134    2.5862   -0.4239 C   0  0  0  0  0  0  0  0  0  0  0  0
   -0.6020    2.4279   -1.7493 O   0  0  0  0  0  0  0  0  0  0  0  0
    0.3962    1.7691   -2.5050 C   0  0  0  0  0  0  0  0  0  0  0  0
    1.5636   -0.0537   -2.3807 H   0  0  0  0  0  0  0  0  0  0  0  0
   -0.1553   -0.2426   -1.9983 H   0  0  0  0  0  0  0  0  0  0  0  0
    0.9221   -0.5672    0.1843 H   0  0  0  0  0  0  0  0  0  0  0  0
    2.0075    0.9844   -0.1942 H   0  0  0  0  0  0  0  0  0  0  0  0
    0.7063    3.1938   -0.3723 H   0  0  0  0  0  0  0  0  0  0  0  0
   -1.0286    3.0783    0.1014 H   0  0  0  0  0  0  0  0  0  0  0  0
    1.3029    2.3904   -2.5406 H   0  0  0  0  0  0  0  0  0  0  0  0
    0.0078    1.6686   -3.5176 H   0  0  0  0  0  0  0  0  0  0  0  0
  1  2  1  0
  1  5  1  0
  1  6  1  0
  2  3  1  0
  2  7  1  0
  2  8  1  0
  3  4  2  0
  9 10  1  0
  9 14  1  0
  9 15  1  0
  9 16  1  0
 10 11  1  0
 10 17  1  0
 10 18  1  0
 11 12  1  0
 12 13  1  0
 12 19  1  0
 12 20  1  0
 13 14  1  0
 14 21  1  0
 14 22  1  0
M  RAD  1   1   2
M  END
>  <reaction>  (4) 
rmg_rxn_266

>  <mol_properties>  (4) 
{"0": {"label": "*3", "atom_type": "Cs"}, "1": {"label": "*4", "atom_type": "Cs"}, "9": {"label": "*1", "atom_type": "Cs"}, "10": {"label": "*0", "atom_type": "O2s"}, "16": {"label": "*2", "atom_type": "H0"}}

>  <type>  (4) 
ts

$$$$

     RDKit          3D

 22 21  0  0  0  0  0  0  0  0999 V2000
   -0.0898   -1.8146    0.4949 C   0  0  0  0  0  3  0  0  0  0  0  0
    1.0953   -2.2093    1.3441 C   0  0  0  0  0  0  0  0  0  0  0  0
    0.7992   -2.9537    2.5917 N   0  0  0  0  0  0  0  0  0  0  0  0
   -0.3601   -3.1587    2.7845 O   0  0  0  0  0  0  0  0  0  0  0  0
   -0.6505   -2.6904    0.1686 H   0  0  0  0  0  0  0  0  0  0  0  0
   -0.7733   -1.1698    1.0468 H   0  0  0  0  0  0  0  0  0  0  0  0
    1.8038   -2.8550    0.8150 H   0  0  0  0  0  0  0  0  0  0  0  0
    1.6822   -1.3498    1.6843 H   0  0  0  0  0  0  0  0  0  0  0  0
    0.2918    0.5805   -2.0052 C   0  0  0  0  0  0  0  0  0  0  0  0
    0.2918    0.5805   -0.4832 C   0  0  0  0  0  0  0  0  0  0  0  0
   -0.7565    1.3931    0.0089 O   0  0  0  0  0  0  0  0  0  0  0  0
   -0.6656    2.6927   -0.4904 C   0  0  0  0  0  0  0  0  0  0  0  0
   -0.7565    2.7489   -1.8815 O   0  0  0  0  0  0  0  0  0  0  0  0
    0.2918    2.0222   -2.4933 C   0  0  0  0  0  0  0  0  0  0  0  0
    1.1658    0.0481   -2.3871 H   0  0  0  0  0  0  0  0  0  0  0  0
   -0.6048    0.0744   -2.3682 H   0  0  0  0  0  0  0  0  0  0  0  0
    0.1011   -0.6165    0.0056 H   0  0  0  0  0  0  0  0  0  0  0  0
    1.2554    0.9565   -0.1065 H   0  0  0  0  0  0  0  0  0  0  0  0
    0.2898    3.1448   -0.1662 H   0  0  0  0  0  0  0  0  0  0  0  0
   -1.5066    3.2532   -0.0884 H   0  0  0  0  0  0  0  0  0  0  0  0
    1.2554    2.4996   -2.2580 H   0  0  0  0  0  0  0  0  0  0  0  0
    0.1329    2.0881   -3.5688 H   0  0  0  0  0  0  0  0  0  0  0  0
  1  2  1  0
  1  5  1  0
  1  6  1  0
  2  3  1  0
  2  7  1  0
  2  8  1  0
  3  4  2  0
  9 10  1  0
  9 14  1  0
  9 15  1  0
  9 16  1  0
 10 11  1  0
 10 17  1  0
 10 18  1  0
 11 12  1  0
 12 13  1  0
 12 19  1  0
 12 20  1  0
 13 14  1  0
 14 21  1  0
 14 22  1  0
M  RAD  1   1   2
M  END
>  <reaction>  (5) 
rmg_rxn_266

>  <mol_properties>  (5) 
{"0": {"label": "*3", "atom_type": "Cs"}, "1": {"label": "*4", "atom_type": "Cs"}, "9": {"label": "*1", "atom_type": "Cs"}, "10": {"label": "*0", "atom_type": "O2s"}, "16": {"label": "*2", "atom_type": "H0"}}

>  <type>  (5) 
unop_1

>  <geom_source>  (5) 
Heuristics

$$$$

     RDKit          3D

 22 21  0  0  0  0  0  0  0  0999 V2000
   -0.1096   -1.5074    1.0753 C   0  0  0  0  0  3  0  0  0  0  0  0
    0.4467   -2.5381    0.1215 C   0  0  0  0  0  0  0  0  0  0  0  0
    0.6969   -3.8898    0.6773 N   0  0  0  0  0  0  0  0  0  0  0  0
    0.4256   -4.0098    1.8328 O   0  0  0  0  0  0  0  0  0  0  0  0
   -1.0709   -1.8229    1.4803 H   0  0  0  0  0  0  0  0  0  0  0  0
    0.5656   -1.3414    1.9145 H   0  0  0  0  0  0  0  0  0  0  0  0
   -0.2081   -2.7240   -0.7361 H   0  0  0  0  0  0  0  0  0  0  0  0
    1.4118   -2.2474   -0.3062 H   0  0  0  0  0  0  0  0  0  0  0  0
    0.2720    0.8877   -1.4248 C   0  0  0  0  0  0  0  0  0  0  0  0
    0.2720    0.8877    0.0972 C   0  0  0  0  0  0  0  0  0  0  0  0
   -0.7762    1.7004    0.5893 O   0  0  0  0  0  0  0  0  0  0  0  0
   -0.6853    2.9999    0.0900 C   0  0  0  0  0  0  0  0  0  0  0  0
   -0.7762    3.0561   -1.3010 O   0  0  0  0  0  0  0  0  0  0  0  0
    0.2720    2.3294   -1.9129 C   0  0  0  0  0  0  0  0  0  0  0  0
    1.1460    0.3553   -1.8067 H   0  0  0  0  0  0  0  0  0  0  0  0
   -0.6245    0.3816   -1.7878 H   0  0  0  0  0  0  0  0  0  0  0  0
    0.0813   -0.3093    0.5860 H   0  0  0  0  0  0  0  0  0  0  0  0
    1.2357    1.2637    0.4740 H   0  0  0  0  0  0  0  0  0  0  0  0
    0.2700    3.4520    0.4142 H   0  0  0  0  0  0  0  0  0  0  0  0
   -1.5264    3.5604    0.4920 H   0  0  0  0  0  0  0  0  0  0  0  0
    1.2357    2.8068   -1.6776 H   0  0  0  0  0  0  0  0  0  0  0  0
    0.1131    2.3953   -2.9884 H   0  0  0  0  0  0  0  0  0  0  0  0
  1  2  1  0
  1  5  1  0
  1  6  1  0
  2  3  1  0
  2  7  1  0
  2  8  1  0
  3  4  2  0
  9 10  1  0
  9 14  1  0
  9 15  1  0
  9 16  1  0
 10 11  1  0
 10 17  1  0
 10 18  1  0
 11 12  1  0
 12 13  1  0
 12 19  1  0
 12 20  1  0
 13 14  1  0
 14 21  1  0
 14 22  1  0
M  RAD  1   1   2
M  END
>  <reaction>  (6) 
rmg_rxn_266

>  <mol_properties>  (6) 
{"0": {"label": "*3", "atom_type": "Cs"}, "1": {"label": "*4", "atom_type": "Cs"}, "9": {"label": "*1", "atom_type": "Cs"}, "10": {"label": "*0", "atom_type": "O2s"}, "16": {"label": "*2", "atom_type": "H0"}}

>  <type>  (6) 
unop_2

>  <geom_source>  (6) 
Heuristics

$$$$

     RDKit          3D

 22 21  0  0  0  0  0  0  0  0999 V2000
    0.0936   -1.8128    0.4697 C   0  0  0  0  0  3  0  0  0  0  0  0
    0.7950   -1.9331    1.8020 C   0  0  0  0  0  0  0  0  0  0  0  0
    0.2151   -2.8919    2.7730 N   0  0  0  0  0  0  0  0  0  0  0  0
   -0.7547   -3.4675    2.3839 O   0  0  0  0  0  0  0  0  0  0  0  0
    0.0807   -2.7669   -0.0569 H   0  0  0  0  0  0  0  0  0  0  0  0
   -0.9394   -1.4892    0.5955 H   0  0  0  0  0  0  0  0  0  0  0  0
    1.8380   -2.2528    1.7084 H   0  0  0  0  0  0  0  0  0  0  0  0
    0.8282   -0.9881    2.3541 H   0  0  0  0  0  0  0  0  0  0  0  0
    0.4752    0.5824   -2.0304 C   0  0  0  0  0  0  0  0  0  0  0  0
    0.4752    0.5824   -0.5084 C   0  0  0  0  0  0  0  0  0  0  0  0
   -0.5731    1.3950   -0.0163 O   0  0  0  0  0  0  0  0  0  0  0  0
   -0.4821    2.6945   -0.5156 C   0  0  0  0  0  0  0  0  0  0  0  0
   -0.5731    2.7507   -1.9067 O   0  0  0  0  0  0  0  0  0  0  0  0
    0.4752    2.0240   -2.5185 C   0  0  0  0  0  0  0  0  0  0  0  0
    1.3492    0.0499   -2.4123 H   0  0  0  0  0  0  0  0  0  0  0  0
   -0.4213    0.0762   -2.3934 H   0  0  0  0  0  0  0  0  0  0  0  0
    0.2845   -0.6146   -0.0196 H   0  0  0  0  0  0  0  0  0  0  0  0
    1.4389    0.9584   -0.1317 H   0  0  0  0  0  0  0  0  0  0  0  0
    0.4732    3.1466   -0.1914 H   0  0  0  0  0  0  0  0  0  0  0  0
   -1.3232    3.2551   -0.1136 H   0  0  0  0  0  0  0  0  0  0  0  0
    1.4389    2.5014   -2.2832 H   0  0  0  0  0  0  0  0  0  0  0  0
    0.3163    2.0900   -3.5940 H   0  0  0  0  0  0  0  0  0  0  0  0
  1  2  1  0
  1  5  1  0
  1  6  1  0
  2  3  1  0
  2  7  1  0
  2  8  1  0
  3  4  2  0
  9 10  1  0
  9 14  1  0
  9 15  1  0
  9 16  1  0
 10 11  1  0
 10 17  1  0
 10 18  1  0
 11 12  1  0
 12 13  1  0
 12 19  1  0
 12 20  1  0
 13 14  1  0
 14 21  1  0
 14 22  1  0
M  RAD  1   1   2
M  END
>  <reaction>  (7) 
rmg_rxn_266

>  <mol_properties>  (7) 
{"0": {"label": "*3", "atom_type": "Cs"}, "1": {"label": "*4", "atom_type": "Cs"}, "9": {"label": "*1", "atom_type": "Cs"}, "10": {"label": "*0", "atom_type": "O2s"}, "16": {"label": "*2", "atom_type": "H0"}}

>  <type>  (7) 
unop_3

>  <geom_source>  (7) 
Heuristics

$$$$

     RDKit          3D

 22 21  0  0  0  0  0  0  0  0999 V2000
    0.5664   -1.7383    0.8676 C   0  0  0  0  0  3  0  0  0  0  0  0
   -0.7665   -2.2707    0.3970 C   0  0  0  0  0  0  0  0  0  0  0  0
   -1.4817   -3.1814    1.3230 N   0  0  0  0  0  0  0  0  0  0  0  0
   -0.9128   -3.3924    2.3501 O   0  0  0  0  0  0  0  0  0  0  0  0
    0.4599   -1.1679    1.7901 H   0  0  0  0  0  0  0  0  0  0  0  0
    1.2699   -2.5486    1.0579 H   0  0  0  0  0  0  0  0  0  0  0  0
   -1.4947   -1.4790    0.1928 H   0  0  0  0  0  0  0  0  0  0  0  0
   -0.6929   -2.8456   -0.5320 H   0  0  0  0  0  0  0  0  0  0  0  0
    0.9481    0.6569   -1.6325 C   0  0  0  0  0  0  0  0  0  0  0  0
    0.9481    0.6569   -0.1104 C   0  0  0  0  0  0  0  0  0  0  0  0
   -0.1002    1.4695    0.3817 O   0  0  0  0  0  0  0  0  0  0  0  0
   -0.0093    2.7690   -0.1177 C   0  0  0  0  0  0  0  0  0  0  0  0
   -0.1002    2.8252   -1.5087 O   0  0  0  0  0  0  0  0  0  0  0  0
    0.9481    2.0985   -2.1206 C   0  0  0  0  0  0  0  0  0  0  0  0
    1.8221    0.1244   -2.0144 H   0  0  0  0  0  0  0  0  0  0  0  0
    0.0515    0.1507   -1.9955 H   0  0  0  0  0  0  0  0  0  0  0  0
    0.7573   -0.5401    0.3784 H   0  0  0  0  0  0  0  0  0  0  0  0
    1.9117    1.0328    0.2663 H   0  0  0  0  0  0  0  0  0  0  0  0
    0.9460    3.2211    0.2065 H   0  0  0  0  0  0  0  0  0  0  0  0
   -0.8504    3.3296    0.2843 H   0  0  0  0  0  0  0  0  0  0  0  0
    1.9117    2.5759   -1.8853 H   0  0  0  0  0  0  0  0  0  0  0  0
    0.7891    2.1644   -3.1960 H   0  0  0  0  0  0  0  0  0  0  0  0
  1  2  1  0
  1  5  1  0
  1  6  1  0
  2  3  1  0
  2  7  1  0
  2  8  1  0
  3  4  2  0
  9 10  1  0
  9 14  1  0
  9 15  1  0
  9 16  1  0
 10 11  1  0
 10 17  1  0
 10 18  1  0
 11 12  1  0
 12 13  1  0
 12 19  1  0
 12 20  1  0
 13 14  1  0
 14 21  1  0
 14 22  1  0
M  RAD  1   1   2
M  END
>  <reaction>  (8) 
rmg_rxn_266

>  <mol_properties>  (8) 
{"0": {"label": "*3", "atom_type": "Cs"}, "1": {"label": "*4", "atom_type": "Cs"}, "9": {"label": "*1", "atom_type": "Cs"}, "10": {"label": "*0", "atom_type": "O2s"}, "16": {"label": "*2", "atom_type": "H0"}}

>  <type>  (8) 
unop_4

>  <geom_source>  (8) 
Heuristics

$$$$

     RDKit          3D

 22 21  0  0  0  0  0  0  0  0999 V2000
    0.1353   -1.7609    0.5032 C   0  0  0  0  0  3  0  0  0  0  0  0
    0.1452   -1.6988    2.0124 C   0  0  0  0  0  0  0  0  0  0  0  0
   -0.0589   -2.9798    2.7306 N   0  0  0  0  0  0  0  0  0  0  0  0
   -0.2099   -3.9277    2.0222 O   0  0  0  0  0  0  0  0  0  0  0  0
    0.9221   -2.4162    0.1302 H   0  0  0  0  0  0  0  0  0  0  0  0
   -0.8162   -2.1392    0.1302 H   0  0  0  0  0  0  0  0  0  0  0  0
    1.0881   -1.3177    2.4181 H   0  0  0  0  0  0  0  0  0  0  0  0
   -0.6326   -1.0436    2.4181 H   0  0  0  0  0  0  0  0  0  0  0  0
    0.5170    0.6343   -1.9969 C   0  0  0  0  0  0  0  0  0  0  0  0
    0.5170    0.6343   -0.4749 C   0  0  0  0  0  0  0  0  0  0  0  0
   -0.5313    1.4469    0.0172 O   0  0  0  0  0  0  0  0  0  0  0  0
   -0.4404    2.7465   -0.4821 C   0  0  0  0  0  0  0  0  0  0  0  0
   -0.5313    2.8027   -1.8731 O   0  0  0  0  0  0  0  0  0  0  0  0
    0.5170    2.0760   -2.4850 C   0  0  0  0  0  0  0  0  0  0  0  0
    1.3910    0.1019   -2.3788 H   0  0  0  0  0  0  0  0  0  0  0  0
   -0.3796    0.1282   -2.3599 H   0  0  0  0  0  0  0  0  0  0  0  0
    0.3262   -0.5627    0.0140 H   0  0  0  0  0  0  0  0  0  0  0  0
    1.4806    1.0103   -0.0981 H   0  0  0  0  0  0  0  0  0  0  0  0
    0.5149    3.1985   -0.1579 H   0  0  0  0  0  0  0  0  0  0  0  0
   -1.2815    3.3070   -0.0801 H   0  0  0  0  0  0  0  0  0  0  0  0
    1.4806    2.5534   -2.2497 H   0  0  0  0  0  0  0  0  0  0  0  0
    0.3580    2.1419   -3.5605 H   0  0  0  0  0  0  0  0  0  0  0  0
  1  2  1  0
  1  5  1  0
  1  6  1  0
  2  3  1  0
  2  7  1  0
  2  8  1  0
  3  4  2  0
  9 10  1  0
  9 14  1  0
  9 15  1  0
  9 16  1  0
 10 11  1  0
 10 17  1  0
 10 18  1  0
 11 12  1  0
 12 13  1  0
 12 19  1  0
 12 20  1  0
 13 14  1  0
 14 21  1  0
 14 22  1  0
M  RAD  1   1   2
M  END
>  <reaction>  (9) 
rmg_rxn_266

>  <mol_properties>  (9) 
{"0": {"label": "*3", "atom_type": "Cs"}, "1": {"label": "*4", "atom_type": "Cs"}, "9": {"label": "*1", "atom_type": "Cs"}, "10": {"label": "*0", "atom_type": "O2s"}, "16": {"label": "*2", "atom_type": "H0"}}

>  <type>  (9) 
unop_5

>  <geom_source>  (9) 
Heuristics

$$$$

     RDKit          3D

 22 21  0  0  0  0  0  0  0  0999 V2000
    0.5092   -1.8492    0.6435 C   0  0  0  0  0  3  0  0  0  0  0  0
   -0.9701   -2.0887    0.8327 C   0  0  0  0  0  0  0  0  0  0  0  0
   -1.3717   -2.8283    2.0535 N   0  0  0  0  0  0  0  0  0  0  0  0
   -0.4653   -3.1544    2.7573 O   0  0  0  0  0  0  0  0  0  0  0  0
    0.9236   -1.2691    1.4678 H   0  0  0  0  0  0  0  0  0  0  0  0
    1.0576   -2.7895    0.5908 H   0  0  0  0  0  0  0  0  0  0  0  0
   -1.5497   -1.1613    0.8850 H   0  0  0  0  0  0  0  0  0  0  0  0
   -1.4171   -2.6663    0.0170 H   0  0  0  0  0  0  0  0  0  0  0  0
    0.8909    0.5460   -1.8566 C   0  0  0  0  0  0  0  0  0  0  0  0
    0.8909    0.5460   -0.3346 C   0  0  0  0  0  0  0  0  0  0  0  0
   -0.1574    1.3586    0.1575 O   0  0  0  0  0  0  0  0  0  0  0  0
   -0.0665    2.6582   -0.3418 C   0  0  0  0  0  0  0  0  0  0  0  0
   -0.1574    2.7144   -1.7329 O   0  0  0  0  0  0  0  0  0  0  0  0
    0.8909    1.9877   -2.3447 C   0  0  0  0  0  0  0  0  0  0  0  0
    1.7649    0.0136   -2.2385 H   0  0  0  0  0  0  0  0  0  0  0  0
   -0.0057    0.0399   -2.2197 H   0  0  0  0  0  0  0  0  0  0  0  0
    0.7001   -0.6510    0.1542 H   0  0  0  0  0  0  0  0  0  0  0  0
    1.8545    0.9220    0.0421 H   0  0  0  0  0  0  0  0  0  0  0  0
    0.8888    3.1103   -0.0176 H   0  0  0  0  0  0  0  0  0  0  0  0
   -0.9076    3.2187    0.0602 H   0  0  0  0  0  0  0  0  0  0  0  0
    1.8545    2.4651   -2.1095 H   0  0  0  0  0  0  0  0  0  0  0  0
    0.7319    2.0536   -3.4202 H   0  0  0  0  0  0  0  0  0  0  0  0
  1  2  1  0
  1  5  1  0
  1  6  1  0
  2  3  1  0
  2  7  1  0
  2  8  1  0
  3  4  2  0
  9 10  1  0
  9 14  1  0
  9 15  1  0
  9 16  1  0
 10 11  1  0
 10 17  1  0
 10 18  1  0
 11 12  1  0
 12 13  1  0
 12 19  1  0
 12 20  1  0
 13 14  1  0
 14 21  1  0
 14 22  1  0
M  RAD  1   1   2
M  END
>  <reaction>  (10) 
rmg_rxn_266

>  <mol_properties>  (10) 
{"0": {"label": "*3", "atom_type": "Cs"}, "1": {"label": "*4", "atom_type": "Cs"}, "9": {"label": "*1", "atom_type": "Cs"}, "10": {"label": "*0", "atom_type": "O2s"}, "16": {"label": "*2", "atom_type": "H0"}}

>  <type>  (10) 
unop_6

>  <geom_source>  (10) 
Heuristics

$$$$

     RDKit          3D

 22 21  0  0  0  0  0  0  0  0999 V2000
    0.3326   -1.8820    0.4949 C   0  0  0  0  0  3  0  0  0  0  0  0
   -0.9165   -1.8887    1.3441 C   0  0  0  0  0  0  0  0  0  0  0  0
   -0.8664   -2.6884    2.5917 N   0  0  0  0  0  0  0  0  0  0  0  0
    0.1718   -3.2435    2.7845 O   0  0  0  0  0  0  0  0  0  0  0  0
    1.1827   -1.4815    1.0468 H   0  0  0  0  0  0  0  0  0  0  0  0
    0.5933   -2.8886    0.1686 H   0  0  0  0  0  0  0  0  0  0  0  0
   -1.2072   -0.8894    1.6843 H   0  0  0  0  0  0  0  0  0  0  0  0
   -1.7906   -2.2823    0.8150 H   0  0  0  0  0  0  0  0  0  0  0  0
    0.7143    0.5132   -2.0052 C   0  0  0  0  0  0  0  0  0  0  0  0
    0.7143    0.5132   -0.4832 C   0  0  0  0  0  0  0  0  0  0  0  0
   -0.3340    1.3258    0.0089 O   0  0  0  0  0  0  0  0  0  0  0  0
   -0.2431    2.6254   -0.4904 C   0  0  0  0  0  0  0  0  0  0  0  0
   -0.3340    2.6816   -1.8815 O   0  0  0  0  0  0  0  0  0  0  0  0
    0.7143    1.9549   -2.4933 C   0  0  0  0  0  0  0  0  0  0  0  0
    1.5883   -0.0192   -2.3871 H   0  0  0  0  0  0  0  0  0  0  0  0
   -0.1823    0.0071   -2.3682 H   0  0  0  0  0  0  0  0  0  0  0  0
    0.5235   -0.6838    0.0056 H   0  0  0  0  0  0  0  0  0  0  0  0
    1.6779    0.8892   -0.1065 H   0  0  0  0  0  0  0  0  0  0  0  0
    0.7122    3.0774   -0.1662 H   0  0  0  0  0  0  0  0  0  0  0  0
   -1.0842    3.1859   -0.0884 H   0  0  0  0  0  0  0  0  0  0  0  0
    1.6779    2.4323   -2.2580 H   0  0  0  0  0  0  0  0  0  0  0  0
    0.5553    2.0208   -3.5688 H   0  0  0  0  0  0  0  0  0  0  0  0
  1  2  1  0
  1  5  1  0
  1  6  1  0
  2  3  1  0
  2  7  1  0
  2  8  1  0
  3  4  2  0
  9 10  1  0
  9 14  1  0
  9 15  1  0
  9 16  1  0
 10 11  1  0
 10 17  1  0
 10 18  1  0
 11 12  1  0
 12 13  1  0
 12 19  1  0
 12 20  1  0
 13 14  1  0
 14 21  1  0
 14 22  1  0
M  RAD  1   1   2
M  END
>  <reaction>  (11) 
rmg_rxn_266

>  <mol_properties>  (11) 
{"0": {"label": "*3", "atom_type": "Cs"}, "1": {"label": "*4", "atom_type": "Cs"}, "9": {"label": "*1", "atom_type": "Cs"}, "10": {"label": "*0", "atom_type": "O2s"}, "16": {"label": "*2", "atom_type": "H0"}}

>  <type>  (11) 
unop_7

>  <geom_source>  (11) 
Heuristics

$$$$

     RDKit          3D

 22 21  0  0  0  0  0  0  0  0999 V2000
   -0.2475   -1.7286    0.6435 C   0  0  0  0  0  3  0  0  0  0  0  0
    1.0841   -2.4160    0.8327 C   0  0  0  0  0  0  0  0  0  0  0  0
    1.2359   -3.2438    2.0535 N   0  0  0  0  0  0  0  0  0  0  0  0
    0.2731   -3.2720    2.7573 O   0  0  0  0  0  0  0  0  0  0  0  0
   -1.0610   -2.4519    0.5908 H   0  0  0  0  0  0  0  0  0  0  0  0
   -0.4611   -1.0485    1.4678 H   0  0  0  0  0  0  0  0  0  0  0  0
    1.3295   -3.1039    0.0170 H   0  0  0  0  0  0  0  0  0  0  0  0
    1.9233   -1.7147    0.8850 H   0  0  0  0  0  0  0  0  0  0  0  0
    0.1341    0.6666   -1.8566 C   0  0  0  0  0  0  0  0  0  0  0  0
    0.1341    0.6666   -0.3346 C   0  0  0  0  0  0  0  0  0  0  0  0
   -0.9141    1.4792    0.1575 O   0  0  0  0  0  0  0  0  0  0  0  0
   -0.8232    2.7788   -0.3418 C   0  0  0  0  0  0  0  0  0  0  0  0
   -0.9141    2.8350   -1.7329 O   0  0  0  0  0  0  0  0  0  0  0  0
    0.1341    2.1082   -2.3447 C   0  0  0  0  0  0  0  0  0  0  0  0
    1.0081    0.1341   -2.2385 H   0  0  0  0  0  0  0  0  0  0  0  0
   -0.7624    0.1604   -2.2197 H   0  0  0  0  0  0  0  0  0  0  0  0
   -0.0566   -0.5304    0.1542 H   0  0  0  0  0  0  0  0  0  0  0  0
    1.0978    1.0426    0.0421 H   0  0  0  0  0  0  0  0  0  0  0  0
    0.1321    3.2308   -0.0176 H   0  0  0  0  0  0  0  0  0  0  0  0
   -1.6643    3.3393    0.0602 H   0  0  0  0  0  0  0  0  0  0  0  0
    1.0978    2.5856   -2.1095 H   0  0  0  0  0  0  0  0  0  0  0  0
   -0.0248    2.1742   -3.4202 H   0  0  0  0  0  0  0  0  0  0  0  0
  1  2  1  0
  1  5  1  0
  1  6  1  0
  2  3  1  0
  2  7  1  0
  2  8  1  0
  3  4  2  0
  9 10  1  0
  9 14  1  0
  9 15  1  0
  9 16  1  0
 10 11  1  0
 10 17  1  0
 10 18  1  0
 11 12  1  0
 12 13  1  0
 12 19  1  0
 12 20  1  0
 13 14  1  0
 14 21  1  0
 14 22  1  0
M  RAD  1   1   2
M  END
>  <reaction>  (12) 
rmg_rxn_266

>  <mol_properties>  (12) 
{"0": {"label": "*3", "atom_type": "Cs"}, "1": {"label": "*4", "atom_type": "Cs"}, "9": {"label": "*1", "atom_type": "Cs"}, "10": {"label": "*0", "atom_type": "O2s"}, "16": {"label": "*2", "atom_type": "H0"}}

>  <type>  (12) 
unop_8

>  <geom_source>  (12) 
Heuristics

$$$$

     RDKit          3D

 22 21  0  0  0  0  0  0  0  0999 V2000
    0.4469   -1.5961    1.0753 C   0  0  0  0  0  3  0  0  0  0  0  0
   -0.4022   -2.4029    0.1215 C   0  0  0  0  0  0  0  0  0  0  0  0
   -1.0601   -3.6098    0.6773 N   0  0  0  0  0  0  0  0  0  0  0  0
   -0.8395   -3.8082    1.8328 O   0  0  0  0  0  0  0  0  0  0  0  0
   -0.1433   -1.2285    1.9145 H   0  0  0  0  0  0  0  0  0  0  0  0
    1.2626   -2.1947    1.4803 H   0  0  0  0  0  0  0  0  0  0  0  0
   -1.2291   -1.8266   -0.3062 H   0  0  0  0  0  0  0  0  0  0  0  0
    0.1624   -2.7830   -0.7361 H   0  0  0  0  0  0  0  0  0  0  0  0
    0.8285    0.7991   -1.4248 C   0  0  0  0  0  0  0  0  0  0  0  0
    0.8285    0.7991    0.0972 C   0  0  0  0  0  0  0  0  0  0  0  0
   -0.2198    1.6117    0.5893 O   0  0  0  0  0  0  0  0  0  0  0  0
   -0.1288    2.9112    0.0900 C   0  0  0  0  0  0  0  0  0  0  0  0
   -0.2198    2.9674   -1.3010 O   0  0  0  0  0  0  0  0  0  0  0  0
    0.8285    2.2407   -1.9129 C   0  0  0  0  0  0  0  0  0  0  0  0
    1.7025    0.2666   -1.8067 H   0  0  0  0  0  0  0  0  0  0  0  0
   -0.0680    0.2929   -1.7878 H   0  0  0  0  0  0  0  0  0  0  0  0
    0.6378   -0.3979    0.5860 H   0  0  0  0  0  0  0  0  0  0  0  0
    1.7922    1.1750    0.4740 H   0  0  0  0  0  0  0  0  0  0  0  0
    0.8265    3.3633    0.4142 H   0  0  0  0  0  0  0  0  0  0  0  0
   -0.9699    3.4717    0.4920 H   0  0  0  0  0  0  0  0  0  0  0  0
    1.7922    2.7181   -1.6776 H   0  0  0  0  0  0  0  0  0  0  0  0
    0.6696    2.3066   -2.9884 H   0  0  0  0  0  0  0  0  0  0  0  0
  1  2  1  0
  1  5  1  0
  1  6  1  0
  2  3  1  0
  2  7  1  0
  2  8  1  0
  3  4  2  0
  9 10  1  0
  9 14  1  0
  9 15  1  0
  9 16  1  0
 10 11  1  0
 10 17  1  0
 10 18  1  0
 11 12  1  0
 12 13  1  0
 12 19  1  0
 12 20  1  0
 13 14  1  0
 14 21  1  0
 14 22  1  0
M  RAD  1   1   2
M  END
>  <reaction>  (13) 
rmg_rxn_266

>  <mol_properties>  (13) 
{"0": {"label": "*3", "atom_type": "Cs"}, "1": {"label": "*4", "atom_type": "Cs"}, "9": {"label": "*1", "atom_type": "Cs"}, "10": {"label": "*0", "atom_type": "O2s"}, "16": {"label": "*2", "atom_type": "H0"}}

>  <type>  (13) 
unop_9

>  <geom_source>  (13) 
Heuristics

$$$$

     RDKit          3D

 22 21  0  0  0  0  0  0  0  0999 V2000
   -0.2674   -1.6054    0.8676 C   0  0  0  0  0  3  0  0  0  0  0  0
    0.8340   -2.5257    0.3970 C   0  0  0  0  0  0  0  0  0  0  0  0
    1.2308   -3.6136    1.3230 N   0  0  0  0  0  0  0  0  0  0  0  0
    0.6245   -3.6373    2.3501 O   0  0  0  0  0  0  0  0  0  0  0  0
   -1.1879   -2.1569    1.0579 H   0  0  0  0  0  0  0  0  0  0  0  0
    0.0111   -1.0964    1.7901 H   0  0  0  0  0  0  0  0  0  0  0  0
    0.5854   -3.0493   -0.5320 H   0  0  0  0  0  0  0  0  0  0  0  0
    1.7722   -1.9995    0.1928 H   0  0  0  0  0  0  0  0  0  0  0  0
    0.1142    0.7897   -1.6325 C   0  0  0  0  0  0  0  0  0  0  0  0
    0.1142    0.7897   -0.1104 C   0  0  0  0  0  0  0  0  0  0  0  0
   -0.9341    1.6024    0.3817 O   0  0  0  0  0  0  0  0  0  0  0  0
   -0.8431    2.9019   -0.1177 C   0  0  0  0  0  0  0  0  0  0  0  0
   -0.9341    2.9581   -1.5087 O   0  0  0  0  0  0  0  0  0  0  0  0
    0.1142    2.2314   -2.1206 C   0  0  0  0  0  0  0  0  0  0  0  0
    0.9882    0.2573   -2.0144 H   0  0  0  0  0  0  0  0  0  0  0  0
   -0.7823    0.2836   -1.9955 H   0  0  0  0  0  0  0  0  0  0  0  0
   -0.0765   -0.4073    0.3784 H   0  0  0  0  0  0  0  0  0  0  0  0
    1.0779    1.1657    0.2663 H   0  0  0  0  0  0  0  0  0  0  0  0
    0.1122    3.3540    0.2065 H   0  0  0  0  0  0  0  0  0  0  0  0
   -1.6842    3.4624    0.2843 H   0  0  0  0  0  0  0  0  0  0  0  0
    1.0779    2.7088   -1.8853 H   0  0  0  0  0  0  0  0  0  0  0  0
   -0.0447    2.2973   -3.1960 H   0  0  0  0  0  0  0  0  0  0  0  0
  1  2  1  0
  1  5  1  0
  1  6  1  0
  2  3  1  0
  2  7  1  0
  2  8  1  0
  3  4  2  0
  9 10  1  0
  9 14  1  0
  9 15  1  0
  9 16  1  0
 10 11  1  0
 10 17  1  0
 10 18  1  0
 11 12  1  0
 12 13  1  0
 12 19  1  0
 12 20  1  0
 13 14  1  0
 14 21  1  0
 14 22  1  0
M  RAD  1   1   2
M  END
>  <reaction>  (14) 
rmg_rxn_266

>  <mol_properties>  (14) 
{"0": {"label": "*3", "atom_type": "Cs"}, "1": {"label": "*4", "atom_type": "Cs"}, "9": {"label": "*1", "atom_type": "Cs"}, "10": {"label": "*0", "atom_type": "O2s"}, "16": {"label": "*2", "atom_type": "H0"}}

>  <type>  (14) 
unop_10

>  <geom_source>  (14) 
Heuristics

$$$$

     RDKit          3D

 22 21  0  0  0  0  0  0  0  0999 V2000
    0.1589   -1.8232    0.4697 C   0  0  0  0  0  3  0  0  0  0  0  0
   -0.5452   -1.7195    1.8020 C   0  0  0  0  0  0  0  0  0  0  0  0
   -0.2920   -2.8111    2.7730 N   0  0  0  0  0  0  0  0  0  0  0  0
    0.4509   -3.6596    2.3839 O   0  0  0  0  0  0  0  0  0  0  0  0
    1.2413   -1.8367    0.5955 H   0  0  0  0  0  0  0  0  0  0  0  0
   -0.1254   -2.7340   -0.0569 H   0  0  0  0  0  0  0  0  0  0  0  0
   -0.2831   -0.8111    2.3541 H   0  0  0  0  0  0  0  0  0  0  0  0
   -1.6359   -1.6993    1.7084 H   0  0  0  0  0  0  0  0  0  0  0  0
    0.5405    0.5720   -2.0304 C   0  0  0  0  0  0  0  0  0  0  0  0
    0.5405    0.5720   -0.5084 C   0  0  0  0  0  0  0  0  0  0  0  0
   -0.5078    1.3846   -0.0163 O   0  0  0  0  0  0  0  0  0  0  0  0
   -0.4169    2.6841   -0.5156 C   0  0  0  0  0  0  0  0  0  0  0  0
   -0.5078    2.7403   -1.9067 O   0  0  0  0  0  0  0  0  0  0  0  0
    0.5405    2.0136   -2.5185 C   0  0  0  0  0  0  0  0  0  0  0  0
    1.4145    0.0395   -2.4123 H   0  0  0  0  0  0  0  0  0  0  0  0
   -0.3561    0.0658   -2.3934 H   0  0  0  0  0  0  0  0  0  0  0  0
    0.3498   -0.6250   -0.0196 H   0  0  0  0  0  0  0  0  0  0  0  0
    1.5041    0.9480   -0.1317 H   0  0  0  0  0  0  0  0  0  0  0  0
    0.5385    3.1362   -0.1914 H   0  0  0  0  0  0  0  0  0  0  0  0
   -1.2579    3.2447   -0.1136 H   0  0  0  0  0  0  0  0  0  0  0  0
    1.5041    2.4910   -2.2832 H   0  0  0  0  0  0  0  0  0  0  0  0
    0.3816    2.0796   -3.5940 H   0  0  0  0  0  0  0  0  0  0  0  0
  1  2  1  0
  1  5  1  0
  1  6  1  0
  2  3  1  0
  2  7  1  0
  2  8  1  0
  3  4  2  0
  9 10  1  0
  9 14  1  0
  9 15  1  0
  9 16  1  0
 10 11  1  0
 10 17  1  0
 10 18  1  0
 11 12  1  0
 12 13  1  0
 12 19  1  0
 12 20  1  0
 13 14  1  0
 14 21  1  0
 14 22  1  0
M  RAD  1   1   2
M  END
>  <reaction>  (15) 
rmg_rxn_266

>  <mol_properties>  (15) 
{"0": {"label": "*3", "atom_type": "Cs"}, "1": {"label": "*4", "atom_type": "Cs"}, "9": {"label": "*1", "atom_type": "Cs"}, "10": {"label": "*0", "atom_type": "O2s"}, "16": {"label": "*2", "atom_type": "H0"}}

>  <type>  (15) 
unop_11

>  <geom_source>  (15) 
Heuristics

$$$$

     RDKit          3D

 22 21  0  0  0  0  0  0  0  0999 V2000
    0.1771   -1.4985    1.1619 C   0  0  0  0  0  3  0  0  0  0  0  0
    0.0195   -2.4877    0.0313 C   0  0  0  0  0  0  0  0  0  0  0  0
   -0.2059   -3.9024    0.4139 N   0  0  0  0  0  0  0  0  0  0  0  0
   -0.2374   -4.0998    1.5900 O   0  0  0  0  0  0  0  0  0  0  0  0
   -0.7106   -1.4767    1.7937 H   0  0  0  0  0  0  0  0  0  0  0  0
    1.0277   -1.7537    1.7937 H   0  0  0  0  0  0  0  0  0  0  0  0
   -0.8256   -2.2553   -0.6248 H   0  0  0  0  0  0  0  0  0  0  0  0
    0.8950   -2.5295   -0.6248 H   0  0  0  0  0  0  0  0  0  0  0  0
    0.5588    0.8966   -1.3382 C   0  0  0  0  0  0  0  0  0  0  0  0
    0.5588    0.8966    0.1839 C   0  0  0  0  0  0  0  0  0  0  0  0
   -0.4895    1.7093    0.6760 O   0  0  0  0  0  0  0  0  0  0  0  0
   -0.3986    3.0088    0.1767 C   0  0  0  0  0  0  0  0  0  0  0  0
   -0.4895    3.0650   -1.2144 O   0  0  0  0  0  0  0  0  0  0  0  0
    0.5588    2.3383   -1.8263 C   0  0  0  0  0  0  0  0  0  0  0  0
    1.4328    0.3642   -1.7200 H   0  0  0  0  0  0  0  0  0  0  0  0
   -0.3378    0.3905   -1.7012 H   0  0  0  0  0  0  0  0  0  0  0  0
    0.3680   -0.3004    0.6727 H   0  0  0  0  0  0  0  0  0  0  0  0
    1.5224    1.2726    0.5606 H   0  0  0  0  0  0  0  0  0  0  0  0
    0.5567    3.4609    0.5009 H   0  0  0  0  0  0  0  0  0  0  0  0
   -1.2397    3.5693    0.5786 H   0  0  0  0  0  0  0  0  0  0  0  0
    1.5224    2.8157   -1.5910 H   0  0  0  0  0  0  0  0  0  0  0  0
    0.3998    2.4042   -2.9017 H   0  0  0  0  0  0  0  0  0  0  0  0
  1  2  1  0
  1  5  1  0
  1  6  1  0
  2  3  1  0
  2  7  1  0
  2  8  1  0
  3  4  2  0
  9 10  1  0
  9 14  1  0
  9 15  1  0
  9 16  1  0
 10 11  1  0
 10 17  1  0
 10 18  1  0
 11 12  1  0
 12 13  1  0
 12 19  1  0
 12 20  1  0
 13 14  1  0
 14 21  1  0
 14 22  1  0
M  RAD  1   1   2
M  END
>  <reaction>  (16) 
rmg_rxn_266

>  <mol_properties>  (16) 
{"0": {"label": "*3", "atom_type": "Cs"}, "1": {"label": "*4", "atom_type": "Cs"}, "9": {"label": "*1", "atom_type": "Cs"}, "10": {"label": "*0", "atom_type": "O2s"}, "16": {"label": "*2", "atom_type": "H0"}}

>  <type>  (16) 
unop_12

>  <geom_source>  (16) 
Heuristics

$$$$

     RDKit          3D

 22 21  0  0  0  0  0  0  0  0999 V2000
   -1.8911    1.4462   -0.0535 O   0  0  0  0  0  0  0  0  0  0  0  0
   -0.8843   -0.4180    1.0681 O   0  0  0  0  0  0  0  0  0  0  0  0
    2.1386    1.7313   -1.0954 O   0  0  0  0  0  0  0  0  0  0  0  0
    2.9584    1.3267   -0.3274 N   0  0  0  0  0  0  0  0  0  0  0  0
   -1.7913   -0.7110   -1.1286 C   0  0  0  0  0  0  0  0  0  0  0  0
   -2.6846    0.4202   -0.6129 C   0  0  0  0  0  0  0  0  0  0  0  0
    3.0663   -0.0820   -0.0387 C   0  0  0  0  0  0  0  0  0  0  0  0
    1.8455   -0.5648    0.7348 C   0  0  0  0  0  0  0  0  0  0  0  0
   -1.1841    0.9715    1.0917 C   0  0  0  0  0  0  0  0  0  0  0  0
   -0.5495   -0.7828   -0.2466 C   0  0  0  0  0  3  0  0  0  0  0  0
   -1.4756   -0.5076   -2.1739 H   0  0  0  0  0  0  0  0  0  0  0  0
   -2.3473   -1.6731   -1.0967 H   0  0  0  0  0  0  0  0  0  0  0  0
    3.1625   -0.6541   -0.9867 H   0  0  0  0  0  0  0  0  0  0  0  0
    3.9770   -0.2556    0.5724 H   0  0  0  0  0  0  0  0  0  0  0  0
   -3.4076    0.0341    0.1423 H   0  0  0  0  0  0  0  0  0  0  0  0
   -3.2760    0.8368   -1.4554 H   0  0  0  0  0  0  0  0  0  0  0  0
    1.9578   -1.6433    0.9741 H   0  0  0  0  0  0  0  0  0  0  0  0
    1.7434    0.0047    1.6830 H   0  0  0  0  0  0  0  0  0  0  0  0
    0.7819   -0.4063    0.0262 H   0  0  0  0  0  0  0  0  0  0  0  0
   -1.7892    1.1861    1.9977 H   0  0  0  0  0  0  0  0  0  0  0  0
   -0.2373    1.5448    1.1884 H   0  0  0  0  0  0  0  0  0  0  0  0
   -0.1135   -1.8038   -0.2629 H   0  0  0  0  0  0  0  0  0  0  0  0
  1  6  1  0
  1  9  1  0
  2 10  1  0
  2  9  1  0
  3  4  2  0
  4  7  1  0
  5 10  1  0
  5  6  1  0
  5 11  1  0
  5 12  1  0
  6 15  1  0
  6 16  1  0
  7  8  1  0
  7 13  1  0
  7 14  1  0
  8 17  1  0
  8 18  1  0
  8 19  1  0
  9 20  1  0
  9 21  1  0
 10 22  1  0
M  RAD  1  10   2
M  END
>  <reaction>  (17) 
rmg_rxn_266

>  <mol_properties>  (17) 
{"0": {"label": "*3", "atom_type": "Cs"}, "1": {"label": "*4", "atom_type": "Cs"}, "9": {"label": "*1", "atom_type": "Cs"}, "10": {"label": "*0", "atom_type": "O2s"}, "16": {"label": "*2", "atom_type": "H0"}}

>  <type>  (17) 
unop_13

>  <geom_source>  (17) 
AutoTST

$$$$

     RDKit          3D

 22 21  0  0  0  0  0  0  0  0999 V2000
   -0.1096   -1.5074    1.0753 C   0  0  0  0  0  3  0  0  0  0  0  0
    0.4467   -2.5381    0.1215 C   0  0  0  0  0  0  0  0  0  0  0  0
    0.6969   -3.8898    0.6773 N   0  0  0  0  0  0  0  0  0  0  0  0
    0.4256   -4.0098    1.8328 O   0  0  0  0  0  0  0  0  0  0  0  0
   -1.0709   -1.8229    1.4803 H   0  0  0  0  0  0  0  0  0  0  0  0
    0.5656   -1.3415    1.9145 H   0  0  0  0  0  0  0  0  0  0  0  0
   -0.2081   -2.7240   -0.7361 H   0  0  0  0  0  0  0  0  0  0  0  0
    1.4118   -2.2474   -0.3062 H   0  0  0  0  0  0  0  0  0  0  0  0
    0.2720    0.8878   -1.4248 C   0  0  0  0  0  0  0  0  0  0  0  0
    0.2720    0.8878    0.0972 C   0  0  0  0  0  0  0  0  0  0  0  0
   -0.7762    1.7004    0.5893 O   0  0  0  0  0  0  0  0  0  0  0  0
   -0.6853    2.9999    0.0900 C   0  0  0  0  0  0  0  0  0  0  0  0
   -0.7762    3.0561   -1.3010 O   0  0  0  0  0  0  0  0  0  0  0  0
    0.2720    2.3294   -1.9129 C   0  0  0  0  0  0  0  0  0  0  0  0
    1.1460    0.3553   -1.8067 H   0  0  0  0  0  0  0  0  0  0  0  0
   -0.6245    0.3816   -1.7878 H   0  0  0  0  0  0  0  0  0  0  0  0
    0.0813   -0.3093    0.5860 H   0  0  0  0  0  0  0  0  0  0  0  0
    1.2357    1.2637    0.4740 H   0  0  0  0  0  0  0  0  0  0  0  0
    0.2700    3.4520    0.4142 H   0  0  0  0  0  0  0  0  0  0  0  0
   -1.5264    3.5604    0.4920 H   0  0  0  0  0  0  0  0  0  0  0  0
    1.2357    2.8068   -1.6776 H   0  0  0  0  0  0  0  0  0  0  0  0
    0.1131    2.3953   -2.9884 H   0  0  0  0  0  0  0  0  0  0  0  0
  1  2  1  0
  1  5  1  0
  1  6  1  0
  2  3  1  0
  2  7  1  0
  2  8  1  0
  3  4  2  0
  9 10  1  0
  9 14  1  0
  9 15  1  0
  9 16  1  0
 10 11  1  0
 10 17  1  0
 10 18  1  0
 11 12  1  0
 12 13  1  0
 12 19  1  0
 12 20  1  0
 13 14  1  0
 14 21  1  0
 14 22  1  0
M  RAD  1   1   2
M  END
>  <reaction>  (18) 
rmg_rxn_266

>  <mol_properties>  (18) 
{"0": {"label": "*3", "atom_type": "Cs"}, "1": {"label": "*4", "atom_type": "Cs"}, "9": {"label": "*1", "atom_type": "Cs"}, "10": {"label": "*0", "atom_type": "O2s"}, "16": {"label": "*2", "atom_type": "H0"}}

>  <type>  (18) 
unop_14

>  <geom_source>  (18) 
gaussian_log

$$$$
