
     RDKit          3D

  8  7  0  0  0  0  0  0  0  0999 V2000
    0.9548    0.1194   -0.0790 C   0  0  0  0  0  0  0  0  0  0  0  0
   -0.4838   -0.2649    0.0193 C   0  0  0  0  0  0  0  0  0  0  0  0
   -0.8933   -1.1081    0.8664 N   0  0  0  0  0  0  0  0  0  0  0  0
    1.3360   -0.0983   -1.0800 H   0  0  0  0  0  0  0  0  0  0  0  0
    1.0698    1.1948    0.0786 H   0  0  0  0  0  0  0  0  0  0  0  0
    1.5426   -0.4219    0.6602 H   0  0  0  0  0  0  0  0  0  0  0  0
   -1.1575    0.2324   -0.6905 H   0  0  0  0  0  0  0  0  0  0  0  0
   -1.8989   -1.2455    0.7886 H   0  0  0  0  0  0  0  0  0  0  0  0
  1  2  1  0
  1  4  1  0
  1  5  1  0
  1  6  1  0
  2  3  2  3
  2  7  1  0
  3  8  1  0
M  END
>  <reaction>  (1) 
rmg_rxn_16643

>  <mol_properties>  (1) 
{"2": {"label": "donator", "atom_type": "N3d"}, "7": {"label": "d_hydrogen", "atom_type": "H0"}}

>  <type>  (1) 
r1h

$$$$

     RDKit          3D

 13 12  0  0  0  0  0  0  0  0999 V2000
    2.2389    0.7017    0.3130 C   0  0  0  0  0  3  0  0  0  0  0  0
    0.9433    0.8223   -0.0376 O   0  0  0  0  0  0  0  0  0  0  0  0
    0.4736    2.1521   -0.1615 C   0  0  0  0  0  0  0  0  0  0  0  0
   -0.9782    2.0920   -0.5770 C   0  0  0  0  0  0  0  0  0  0  0  0
   -1.6070    3.4420   -0.7601 C   0  0  0  0  0  0  0  0  0  0  0  0
   -1.0369    4.4869   -0.6064 O   0  0  0  0  0  0  0  0  0  0  0  0
    2.5950   -0.3170    0.3352 H   0  0  0  0  0  0  0  0  0  0  0  0
    2.9060    1.5360    0.1249 H   0  0  0  0  0  0  0  0  0  0  0  0
    1.0668    2.6899   -0.9083 H   0  0  0  0  0  0  0  0  0  0  0  0
    0.5827    2.6771    0.7919 H   0  0  0  0  0  0  0  0  0  0  0  0
   -1.0904    1.5380   -1.5153 H   0  0  0  0  0  0  0  0  0  0  0  0
   -1.5701    1.5405    0.1613 H   0  0  0  0  0  0  0  0  0  0  0  0
   -2.6749    3.4222   -1.0597 H   0  0  0  0  0  0  0  0  0  0  0  0
  1  2  1  0
  1  7  1  0
  1  8  1  0
  2  3  1  0
  3  4  1  0
  3  9  1  0
  3 10  1  0
  4  5  1  0
  4 11  1  0
  4 12  1  0
  5  6  2  0
  5 13  1  0
M  RAD  1   1   2
M  END
>  <reaction>  (2) 
rmg_rxn_16643

>  <mol_properties>  (2) 
{"0": {"label": "acceptor", "atom_type": "Cs"}}

>  <type>  (2) 
r2

$$$$

     RDKit          3D

 14 13  0  0  0  0  0  0  0  0999 V2000
   -2.1430    0.4492    0.2556 C   0  0  0  0  0  0  0  0  0  0  0  0
   -0.8980   -0.1952    0.2757 O   0  0  0  0  0  0  0  0  0  0  0  0
   -0.3667   -0.3041    1.5713 C   0  0  0  0  0  0  0  0  0  0  0  0
    0.9667   -1.0099    1.4715 C   0  0  0  0  0  0  0  0  0  0  0  0
    1.6584   -1.1995    2.7884 C   0  0  0  0  0  0  0  0  0  0  0  0
    1.2262   -0.8381    3.8485 O   0  0  0  0  0  0  0  0  0  0  0  0
   -2.0716    1.4724    0.6470 H   0  0  0  0  0  0  0  0  0  0  0  0
   -2.8872   -0.0973    0.8495 H   0  0  0  0  0  0  0  0  0  0  0  0
   -2.4755    0.4883   -0.7805 H   0  0  0  0  0  0  0  0  0  0  0  0
   -0.2382    0.6884    2.0233 H   0  0  0  0  0  0  0  0  0  0  0  0
   -1.0467   -0.8675    2.2240 H   0  0  0  0  0  0  0  0  0  0  0  0
    1.6454   -0.4596    0.8107 H   0  0  0  0  0  0  0  0  0  0  0  0
    0.8471   -1.9957    1.0089 H   0  0  0  0  0  0  0  0  0  0  0  0
    2.6387   -1.7165    2.7294 H   0  0  0  0  0  0  0  0  0  0  0  0
  1  2  1  0
  1  7  1  0
  1  8  1  0
  1  9  1  0
  2  3  1  0
  3  4  1  0
  3 10  1  0
  3 11  1  0
  4  5  1  0
  4 12  1  0
  4 13  1  0
  5  6  2  0
  5 14  1  0
M  END
>  <reaction>  (3) 
rmg_rxn_16643

>  <mol_properties>  (3) 
{"0": {"label": "a_hydrogen", "atom_type": "H0"}, "1": {"label": "acceptor", "atom_type": "Cs"}}

>  <type>  (3) 
r2h

$$$$

     RDKit          3D

 21 19  0  0  0  0  0  0  0  0999 V2000
   -3.5892   -0.1337   -0.2524 C   0  0  0  0  0  0  0  0  0  0  0  0
   -2.2043   -0.6275    0.0383 C   0  0  0  0  0  0  0  0  0  0  0  0
   -1.3376   -0.7859   -0.8569 N   0  0  0  0  0  0  0  0  0  0  0  0
   -3.7183    0.0488   -1.3177 H   0  0  0  0  0  0  0  0  0  0  0  0
   -4.3254   -0.8680    0.0829 H   0  0  0  0  0  0  0  0  0  0  0  0
   -3.7759    0.7885    0.3033 H   0  0  0  0  0  0  0  0  0  0  0  0
   -1.9852   -0.8338    1.0955 H   0  0  0  0  0  0  0  0  0  0  0  0
   -0.2806   -1.2098   -0.2811 H   0  0  0  0  0  0  0  0  0  0  0  0
    0.7781   -1.6243    0.4240 C   0  0  0  0  0  3  0  0  0  0  0  0
    1.9292   -1.2692   -0.2306 O   0  0  0  0  0  0  0  0  0  0  0  0
    2.3391    0.0749   -0.0782 C   0  0  0  0  0  0  0  0  0  0  0  0
    1.4035    1.0696   -0.7547 C   0  0  0  0  0  0  0  0  0  0  0  0
    0.3060    1.6304    0.1110 C   0  0  0  0  0  0  0  0  0  0  0  0
    0.2442    1.5227    1.3056 O   0  0  0  0  0  0  0  0  0  0  0  0
    0.6785   -2.7076    0.4254 H   0  0  0  0  0  0  0  0  0  0  0  0
    0.6588   -1.1619    1.4086 H   0  0  0  0  0  0  0  0  0  0  0  0
    3.3250    0.1216   -0.5376 H   0  0  0  0  0  0  0  0  0  0  0  0
    2.4356    0.3192    0.9853 H   0  0  0  0  0  0  0  0  0  0  0  0
    1.9719    1.9385   -1.1078 H   0  0  0  0  0  0  0  0  0  0  0  0
    0.9485    0.6266   -1.6447 H   0  0  0  0  0  0  0  0  0  0  0  0
   -0.4645    2.2037   -0.4411 H   0  0  0  0  0  0  0  0  0  0  0  0
  1  2  1  0
  1  4  1  0
  1  5  1  0
  1  6  1  0
  2  3  2  3
  2  7  1  0
  3  8  1  0
  9 10  1  0
  9 15  1  0
  9 16  1  0
 10 11  1  0
 11 12  1  0
 11 17  1  0
 11 18  1  0
 12 13  1  0
 12 19  1  0
 12 20  1  0
 13 14  2  0
 13 21  1  0
M  RAD  1   9   2
M  END
>  <reaction>  (4) 
rmg_rxn_16643

>  <mol_properties>  (4) 
{"1": {"label": "*0", "atom_type": "Cd"}, "2": {"label": "*1", "atom_type": "N3d"}, "7": {"label": "*2", "atom_type": "H0"}, "8": {"label": "*3", "atom_type": "Cs"}, "9": {"label": "*4", "atom_type": "O2s"}}

>  <type>  (4) 
ts

$$$$

     RDKit          3D

 21 19  0  0  0  0  0  0  0  0999 V2000
   -3.5031    0.0079   -0.2327 C   0  0  0  0  0  0  0  0  0  0  0  0
   -2.2468   -0.7311    0.1094 C   0  0  0  0  0  0  0  0  0  0  0  0
   -1.1663   -0.5177   -0.4660 N   0  0  0  0  0  0  0  0  0  0  0  0
   -3.3376    0.6713   -1.0769 H   0  0  0  0  0  0  0  0  0  0  0  0
   -4.2935   -0.7022   -0.4693 H   0  0  0  0  0  0  0  0  0  0  0  0
   -3.8152    0.5906    0.6330 H   0  0  0  0  0  0  0  0  0  0  0  0
   -2.3711   -1.4691    0.9150 H   0  0  0  0  0  0  0  0  0  0  0  0
   -0.1925   -1.1242    0.0024 H   0  0  0  0  0  0  0  0  0  0  0  0
    0.8851   -1.6282    0.5735 C   0  0  0  0  0  3  0  0  0  0  0  0
    1.9880   -1.2429   -0.1591 O   0  0  0  0  0  0  0  0  0  0  0  0
    2.3047    0.1294   -0.0964 C   0  0  0  0  0  0  0  0  0  0  0  0
    1.3282    0.9999   -0.8999 C   0  0  0  0  0  0  0  0  0  0  0  0
    0.1737    1.5270   -0.0849 C   0  0  0  0  0  0  0  0  0  0  0  0
    0.1135    1.5269    1.1152 O   0  0  0  0  0  0  0  0  0  0  0  0
    0.7935   -2.7085    0.5300 H   0  0  0  0  0  0  0  0  0  0  0  0
    0.8604   -1.2229    1.5864 H   0  0  0  0  0  0  0  0  0  0  0  0
    3.3120    0.2055   -0.5123 H   0  0  0  0  0  0  0  0  0  0  0  0
    2.3126    0.4727    0.9476 H   0  0  0  0  0  0  0  0  0  0  0  0
    1.8521    1.8756   -1.2920 H   0  0  0  0  0  0  0  0  0  0  0  0
    0.9371    0.4372   -1.7473 H   0  0  0  0  0  0  0  0  0  0  0  0
   -0.5973    2.0256   -0.6986 H   0  0  0  0  0  0  0  0  0  0  0  0
  1  2  1  0
  1  4  1  0
  1  5  1  0
  1  6  1  0
  2  3  2  3
  2  7  1  0
  3  8  1  0
  9 10  1  0
  9 15  1  0
  9 16  1  0
 10 11  1  0
 11 12  1  0
 11 17  1  0
 11 18  1  0
 12 13  1  0
 12 19  1  0
 12 20  1  0
 13 14  2  0
 13 21  1  0
M  RAD  1   9   2
M  END
>  <reaction>  (5) 
rmg_rxn_16643

>  <mol_properties>  (5) 
{"1": {"label": "*0", "atom_type": "Cd"}, "2": {"label": "*1", "atom_type": "N3d"}, "7": {"label": "*2", "atom_type": "H0"}, "8": {"label": "*3", "atom_type": "Cs"}, "9": {"label": "*4", "atom_type": "O2s"}}

>  <type>  (5) 
unop_1

>  <geom_source>  (5) 
crest_best.xyz

$$$$

     RDKit          3D

 21 19  0  0  0  0  0  0  0  0999 V2000
   -1.4133   -1.7475   -3.5190 C   0  0  0  0  0  0  0  0  0  0  0  0
   -1.4133   -1.7475   -2.0266 C   0  0  0  0  0  0  0  0  0  0  0  0
   -1.4133   -0.6749   -1.3590 N   0  0  0  0  0  0  0  0  0  0  0  0
   -0.5350   -2.2775   -3.8964 H   0  0  0  0  0  0  0  0  0  0  0  0
   -2.2915   -2.2775   -3.8964 H   0  0  0  0  0  0  0  0  0  0  0  0
   -1.4133   -0.7269   -3.8976 H   0  0  0  0  0  0  0  0  0  0  0  0
   -1.4133   -2.7372   -1.5520 H   0  0  0  0  0  0  0  0  0  0  0  0
   -1.4133   -0.9050   -0.1594 H   0  0  0  0  0  0  0  0  0  0  0  0
   -1.4133   -1.1533    1.1344 C   0  0  0  0  0  3  0  0  0  0  0  0
   -0.2830   -0.6090    1.7606 O   0  0  0  0  0  0  0  0  0  0  0  0
    0.3045    0.4240    1.0120 C   0  0  0  0  0  0  0  0  0  0  0  0
    1.5051    0.9314    1.7785 C   0  0  0  0  0  0  0  0  0  0  0  0
    2.2399    2.0463    1.0958 C   0  0  0  0  0  0  0  0  0  0  0  0
    1.9348    2.5212    0.0363 O   0  0  0  0  0  0  0  0  0  0  0  0
   -1.7994   -1.9400    1.7807 H   0  0  0  0  0  0  0  0  0  0  0  0
   -2.1943   -0.3959    0.9874 H   0  0  0  0  0  0  0  0  0  0  0  0
   -0.4120    1.2392    0.8455 H   0  0  0  0  0  0  0  0  0  0  0  0
    0.6116    0.0606    0.0224 H   0  0  0  0  0  0  0  0  0  0  0  0
    1.2072    1.2833    2.7722 H   0  0  0  0  0  0  0  0  0  0  0  0
    2.2179    0.1195    1.9595 H   0  0  0  0  0  0  0  0  0  0  0  0
    3.1237    2.4282    1.6480 H   0  0  0  0  0  0  0  0  0  0  0  0
  1  2  1  0
  1  4  1  0
  1  5  1  0
  1  6  1  0
  2  3  2  3
  2  7  1  0
  3  8  1  0
  9 10  1  0
  9 15  1  0
  9 16  1  0
 10 11  1  0
 11 12  1  0
 11 17  1  0
 11 18  1  0
 12 13  1  0
 12 19  1  0
 12 20  1  0
 13 14  2  0
 13 21  1  0
M  RAD  1   9   2
M  END
>  <reaction>  (6) 
rmg_rxn_16643

>  <mol_properties>  (6) 
{"1": {"label": "*0", "atom_type": "Cd"}, "2": {"label": "*1", "atom_type": "N3d"}, "7": {"label": "*2", "atom_type": "H0"}, "8": {"label": "*3", "atom_type": "Cs"}, "9": {"label": "*4", "atom_type": "O2s"}}

>  <type>  (6) 
unop_2

>  <geom_source>  (6) 
Heuristics

$$$$

     RDKit          3D

 21 19  0  0  0  0  0  0  0  0999 V2000
   -1.4415    0.6585   -3.2379 C   0  0  0  0  0  0  0  0  0  0  0  0
   -1.4415    0.6585   -1.7456 C   0  0  0  0  0  0  0  0  0  0  0  0
   -1.4415    1.7312   -1.0779 N   0  0  0  0  0  0  0  0  0  0  0  0
   -0.5633    0.1285   -3.6153 H   0  0  0  0  0  0  0  0  0  0  0  0
   -2.3198    0.1285   -3.6153 H   0  0  0  0  0  0  0  0  0  0  0  0
   -1.4415    1.6791   -3.6165 H   0  0  0  0  0  0  0  0  0  0  0  0
   -1.4415   -0.3312   -1.2709 H   0  0  0  0  0  0  0  0  0  0  0  0
   -1.4415    1.5010    0.1217 H   0  0  0  0  0  0  0  0  0  0  0  0
   -1.4415    1.2527    1.4155 C   0  0  0  0  0  3  0  0  0  0  0  0
   -0.7890    0.0462    1.7057 O   0  0  0  0  0  0  0  0  0  0  0  0
    0.3973   -0.1167    0.9716 C   0  0  0  0  0  0  0  0  0  0  0  0
    1.0105   -1.4421    1.3634 C   0  0  0  0  0  0  0  0  0  0  0  0
    2.2941   -1.7555    0.6543 C   0  0  0  0  0  0  0  0  0  0  0  0
    2.8203   -1.0449   -0.1578 O   0  0  0  0  0  0  0  0  0  0  0  0
   -2.3429    1.2931    2.0251 H   0  0  0  0  0  0  0  0  0  0  0  0
   -0.8095    2.1181    1.6540 H   0  0  0  0  0  0  0  0  0  0  0  0
    1.0985    0.7024    1.1795 H   0  0  0  0  0  0  0  0  0  0  0  0
    0.1926   -0.0970   -0.1070 H   0  0  0  0  0  0  0  0  0  0  0  0
    1.2049   -1.4732    2.4411 H   0  0  0  0  0  0  0  0  0  0  0  0
    0.3105   -2.2625    1.1709 H   0  0  0  0  0  0  0  0  0  0  0  0
    2.7551   -2.7259    0.9327 H   0  0  0  0  0  0  0  0  0  0  0  0
  1  2  1  0
  1  4  1  0
  1  5  1  0
  1  6  1  0
  2  3  2  3
  2  7  1  0
  3  8  1  0
  9 10  1  0
  9 15  1  0
  9 16  1  0
 10 11  1  0
 11 12  1  0
 11 17  1  0
 11 18  1  0
 12 13  1  0
 12 19  1  0
 12 20  1  0
 13 14  2  0
 13 21  1  0
M  RAD  1   9   2
M  END
>  <reaction>  (7) 
rmg_rxn_16643

>  <mol_properties>  (7) 
{"1": {"label": "*0", "atom_type": "Cd"}, "2": {"label": "*1", "atom_type": "N3d"}, "7": {"label": "*2", "atom_type": "H0"}, "8": {"label": "*3", "atom_type": "Cs"}, "9": {"label": "*4", "atom_type": "O2s"}}

>  <type>  (7) 
unop_3

>  <geom_source>  (7) 
Heuristics

$$$$

     RDKit          3D

 21 19  0  0  0  0  0  0  0  0999 V2000
   -0.4627   -2.3212   -3.7060 C   0  0  0  0  0  0  0  0  0  0  0  0
   -0.4627   -2.3212   -2.2136 C   0  0  0  0  0  0  0  0  0  0  0  0
   -0.4627   -1.2486   -1.5459 N   0  0  0  0  0  0  0  0  0  0  0  0
    0.4155   -2.8512   -4.0834 H   0  0  0  0  0  0  0  0  0  0  0  0
   -1.3410   -2.8512   -4.0834 H   0  0  0  0  0  0  0  0  0  0  0  0
   -0.4627   -1.3006   -4.0845 H   0  0  0  0  0  0  0  0  0  0  0  0
   -0.4627   -3.3109   -1.7390 H   0  0  0  0  0  0  0  0  0  0  0  0
   -0.4627   -1.4788   -0.3463 H   0  0  0  0  0  0  0  0  0  0  0  0
   -0.4627   -1.7270    0.9474 C   0  0  0  0  0  3  0  0  0  0  0  0
    0.1898   -0.7136    1.6636 O   0  0  0  0  0  0  0  0  0  0  0  0
    0.0509    0.5482    1.0625 C   0  0  0  0  0  0  0  0  0  0  0  0
    0.7892    1.5554    1.9151 C   0  0  0  0  0  0  0  0  0  0  0  0
    0.7283    2.9598    1.3931 C   0  0  0  0  0  0  0  0  0  0  0  0
    0.1558    3.2957    0.3928 O   0  0  0  0  0  0  0  0  0  0  0  0
   -0.3028   -2.6619    1.4823 H   0  0  0  0  0  0  0  0  0  0  0  0
   -1.5415   -1.5365    0.8753 H   0  0  0  0  0  0  0  0  0  0  0  0
   -1.0085    0.8247    0.9797 H   0  0  0  0  0  0  0  0  0  0  0  0
    0.4603    0.5404    0.0437 H   0  0  0  0  0  0  0  0  0  0  0  0
    0.3941    1.5584    2.9369 H   0  0  0  0  0  0  0  0  0  0  0  0
    1.8444    1.2777    2.0126 H   0  0  0  0  0  0  0  0  0  0  0  0
    1.2664    3.7096    2.0098 H   0  0  0  0  0  0  0  0  0  0  0  0
  1  2  1  0
  1  4  1  0
  1  5  1  0
  1  6  1  0
  2  3  2  3
  2  7  1  0
  3  8  1  0
  9 10  1  0
  9 15  1  0
  9 16  1  0
 10 11  1  0
 11 12  1  0
 11 17  1  0
 11 18  1  0
 12 13  1  0
 12 19  1  0
 12 20  1  0
 13 14  2  0
 13 21  1  0
M  RAD  1   9   2
M  END
>  <reaction>  (8) 
rmg_rxn_16643

>  <mol_properties>  (8) 
{"1": {"label": "*0", "atom_type": "Cd"}, "2": {"label": "*1", "atom_type": "N3d"}, "7": {"label": "*2", "atom_type": "H0"}, "8": {"label": "*3", "atom_type": "Cs"}, "9": {"label": "*4", "atom_type": "O2s"}}

>  <type>  (8) 
unop_4

>  <geom_source>  (8) 
Heuristics

$$$$

     RDKit          3D

 21 19  0  0  0  0  0  0  0  0999 V2000
    0.8188    1.1462   -3.8418 C   0  0  0  0  0  0  0  0  0  0  0  0
    0.8188    1.1462   -2.3495 C   0  0  0  0  0  0  0  0  0  0  0  0
    0.8188    2.2188   -1.6818 N   0  0  0  0  0  0  0  0  0  0  0  0
    1.6970    0.6162   -4.2192 H   0  0  0  0  0  0  0  0  0  0  0  0
   -0.0595    0.6162   -4.2192 H   0  0  0  0  0  0  0  0  0  0  0  0
    0.8188    2.1668   -4.2204 H   0  0  0  0  0  0  0  0  0  0  0  0
    0.8188    0.1565   -1.8748 H   0  0  0  0  0  0  0  0  0  0  0  0
    0.8188    1.9887   -0.4822 H   0  0  0  0  0  0  0  0  0  0  0  0
    0.8188    1.7404    0.8116 C   0  0  0  0  0  3  0  0  0  0  0  0
   -0.3115    1.0030    1.1918 O   0  0  0  0  0  0  0  0  0  0  0  0
   -0.0838   -0.3828    1.1736 C   0  0  0  0  0  0  0  0  0  0  0  0
   -1.3612   -1.0715    1.5979 C   0  0  0  0  0  0  0  0  0  0  0  0
   -1.2688   -2.5680    1.6261 C   0  0  0  0  0  0  0  0  0  0  0  0
   -0.2879   -3.2001    1.3444 O   0  0  0  0  0  0  0  0  0  0  0  0
    0.5520    2.7953    0.8545 H   0  0  0  0  0  0  0  0  0  0  0  0
    1.6635    1.5575    1.4884 H   0  0  0  0  0  0  0  0  0  0  0  0
    0.7360   -0.6508    1.8532 H   0  0  0  0  0  0  0  0  0  0  0  0
    0.2114   -0.7149    0.1694 H   0  0  0  0  0  0  0  0  0  0  0  0
   -1.6683   -0.7342    2.5939 H   0  0  0  0  0  0  0  0  0  0  0  0
   -2.1863   -0.7975    0.9314 H   0  0  0  0  0  0  0  0  0  0  0  0
   -2.2001   -3.0863    1.9360 H   0  0  0  0  0  0  0  0  0  0  0  0
  1  2  1  0
  1  4  1  0
  1  5  1  0
  1  6  1  0
  2  3  2  3
  2  7  1  0
  3  8  1  0
  9 10  1  0
  9 15  1  0
  9 16  1  0
 10 11  1  0
 11 12  1  0
 11 17  1  0
 11 18  1  0
 12 13  1  0
 12 19  1  0
 12 20  1  0
 13 14  2  0
 13 21  1  0
M  RAD  1   9   2
M  END
>  <reaction>  (9) 
rmg_rxn_16643

>  <mol_properties>  (9) 
{"1": {"label": "*0", "atom_type": "Cd"}, "2": {"label": "*1", "atom_type": "N3d"}, "7": {"label": "*2", "atom_type": "H0"}, "8": {"label": "*3", "atom_type": "Cs"}, "9": {"label": "*4", "atom_type": "O2s"}}

>  <type>  (9) 
unop_5

>  <geom_source>  (9) 
Heuristics

$$$$

     RDKit          3D

 21 19  0  0  0  0  0  0  0  0999 V2000
    0.8297   -2.1268   -3.9935 C   0  0  0  0  0  0  0  0  0  0  0  0
    0.8297   -2.1268   -2.5012 C   0  0  0  0  0  0  0  0  0  0  0  0
    0.8297   -1.0541   -1.8335 N   0  0  0  0  0  0  0  0  0  0  0  0
    1.7079   -2.6568   -4.3710 H   0  0  0  0  0  0  0  0  0  0  0  0
   -0.0486   -2.6568   -4.3710 H   0  0  0  0  0  0  0  0  0  0  0  0
    0.8297   -1.1061   -4.3721 H   0  0  0  0  0  0  0  0  0  0  0  0
    0.8297   -3.1165   -2.0266 H   0  0  0  0  0  0  0  0  0  0  0  0
    0.8297   -1.2843   -0.6339 H   0  0  0  0  0  0  0  0  0  0  0  0
    0.8297   -1.5325    0.6598 C   0  0  0  0  0  3  0  0  0  0  0  0
    0.8297   -0.3474    1.4090 O   0  0  0  0  0  0  0  0  0  0  0  0
   -0.2997    0.4494    1.1597 C   0  0  0  0  0  0  0  0  0  0  0  0
   -0.1932    1.6913    2.0157 C   0  0  0  0  0  0  0  0  0  0  0  0
   -1.3391    2.6451    1.8547 C   0  0  0  0  0  0  0  0  0  0  0  0
   -2.2755    2.4751    1.1229 O   0  0  0  0  0  0  0  0  0  0  0  0
    1.7342   -2.0822    0.9154 H   0  0  0  0  0  0  0  0  0  0  0  0
   -0.0444   -2.1545    0.8929 H   0  0  0  0  0  0  0  0  0  0  0  0
   -1.2215   -0.0978    1.3975 H   0  0  0  0  0  0  0  0  0  0  0  0
   -0.3551    0.7237    0.0979 H   0  0  0  0  0  0  0  0  0  0  0  0
   -0.1241    1.4237    3.0758 H   0  0  0  0  0  0  0  0  0  0  0  0
    0.7314    2.2349    1.7926 H   0  0  0  0  0  0  0  0  0  0  0  0
   -1.2734    3.5613    2.4776 H   0  0  0  0  0  0  0  0  0  0  0  0
  1  2  1  0
  1  4  1  0
  1  5  1  0
  1  6  1  0
  2  3  2  3
  2  7  1  0
  3  8  1  0
  9 10  1  0
  9 15  1  0
  9 16  1  0
 10 11  1  0
 11 12  1  0
 11 17  1  0
 11 18  1  0
 12 13  1  0
 12 19  1  0
 12 20  1  0
 13 14  2  0
 13 21  1  0
M  RAD  1   9   2
M  END
>  <reaction>  (10) 
rmg_rxn_16643

>  <mol_properties>  (10) 
{"1": {"label": "*0", "atom_type": "Cd"}, "2": {"label": "*1", "atom_type": "N3d"}, "7": {"label": "*2", "atom_type": "H0"}, "8": {"label": "*3", "atom_type": "Cs"}, "9": {"label": "*4", "atom_type": "O2s"}}

>  <type>  (10) 
unop_6

>  <geom_source>  (10) 
Heuristics

$$$$

     RDKit          3D

 21 19  0  0  0  0  0  0  0  0999 V2000
    1.4467    0.5462   -4.0757 C   0  0  0  0  0  0  0  0  0  0  0  0
    1.4467    0.5462   -2.5834 C   0  0  0  0  0  0  0  0  0  0  0  0
    1.4467    1.6188   -1.9157 N   0  0  0  0  0  0  0  0  0  0  0  0
    2.3250    0.0162   -4.4531 H   0  0  0  0  0  0  0  0  0  0  0  0
    0.5684    0.0162   -4.4531 H   0  0  0  0  0  0  0  0  0  0  0  0
    1.4467    1.5668   -4.4543 H   0  0  0  0  0  0  0  0  0  0  0  0
    1.4467   -0.4435   -2.1087 H   0  0  0  0  0  0  0  0  0  0  0  0
    1.4467    1.3886   -0.7161 H   0  0  0  0  0  0  0  0  0  0  0  0
    1.4467    1.1404    0.5777 C   0  0  0  0  0  3  0  0  0  0  0  0
    0.1416    1.0439    1.0809 O   0  0  0  0  0  0  0  0  0  0  0  0
   -0.2808   -0.2867    1.2357 C   0  0  0  0  0  0  0  0  0  0  0  0
   -1.6912   -0.2685    1.7803 C   0  0  0  0  0  0  0  0  0  0  0  0
   -2.2798   -1.6302    1.9991 C   0  0  0  0  0  0  0  0  0  0  0  0
   -1.7153   -2.6657    1.7748 O   0  0  0  0  0  0  0  0  0  0  0  0
    1.6875    2.1988    0.4913 H   0  0  0  0  0  0  0  0  0  0  0  0
    2.1719    0.6624    1.2491 H   0  0  0  0  0  0  0  0  0  0  0  0
    0.3842   -0.8282    1.9215 H   0  0  0  0  0  0  0  0  0  0  0  0
   -0.2513   -0.8180    0.2752 H   0  0  0  0  0  0  0  0  0  0  0  0
   -1.7296    0.2720    2.7325 H   0  0  0  0  0  0  0  0  0  0  0  0
   -2.3572    0.2821    1.1069 H   0  0  0  0  0  0  0  0  0  0  0  0
   -3.3153   -1.6312    2.3988 H   0  0  0  0  0  0  0  0  0  0  0  0
  1  2  1  0
  1  4  1  0
  1  5  1  0
  1  6  1  0
  2  3  2  3
  2  7  1  0
  3  8  1  0
  9 10  1  0
  9 15  1  0
  9 16  1  0
 10 11  1  0
 11 12  1  0
 11 17  1  0
 11 18  1  0
 12 13  1  0
 12 19  1  0
 12 20  1  0
 13 14  2  0
 13 21  1  0
M  RAD  1   9   2
M  END
>  <reaction>  (11) 
rmg_rxn_16643

>  <mol_properties>  (11) 
{"1": {"label": "*0", "atom_type": "Cd"}, "2": {"label": "*1", "atom_type": "N3d"}, "7": {"label": "*2", "atom_type": "H0"}, "8": {"label": "*3", "atom_type": "Cs"}, "9": {"label": "*4", "atom_type": "O2s"}}

>  <type>  (11) 
unop_7

>  <geom_source>  (11) 
Heuristics

$$$$

     RDKit          3D

 21 19  0  0  0  0  0  0  0  0999 V2000
    1.7163   -0.2854   -4.2429 C   0  0  0  0  0  0  0  0  0  0  0  0
    1.7163   -0.2854   -2.7505 C   0  0  0  0  0  0  0  0  0  0  0  0
    1.7163    0.7872   -2.0828 N   0  0  0  0  0  0  0  0  0  0  0  0
    2.5946   -0.8154   -4.6203 H   0  0  0  0  0  0  0  0  0  0  0  0
    0.8381   -0.8154   -4.6203 H   0  0  0  0  0  0  0  0  0  0  0  0
    1.7163    0.7352   -4.6214 H   0  0  0  0  0  0  0  0  0  0  0  0
    1.7163   -1.2751   -2.2759 H   0  0  0  0  0  0  0  0  0  0  0  0
    1.7163    0.5570   -0.8832 H   0  0  0  0  0  0  0  0  0  0  0  0
    1.7163    0.3088    0.4105 C   0  0  0  0  0  3  0  0  0  0  0  0
    0.5861    0.8531    1.0367 O   0  0  0  0  0  0  0  0  0  0  0  0
   -0.4140   -0.1042    1.2735 C   0  0  0  0  0  0  0  0  0  0  0  0
   -1.5756    0.5910    1.9470 C   0  0  0  0  0  0  0  0  0  0  0  0
   -2.7290   -0.3135    2.2641 C   0  0  0  0  0  0  0  0  0  0  0  0
   -2.7660   -1.4887    2.0216 O   0  0  0  0  0  0  0  0  0  0  0  0
    2.4329    1.1161    0.2676 H   0  0  0  0  0  0  0  0  0  0  0  0
    2.1780   -0.4742    1.0261 H   0  0  0  0  0  0  0  0  0  0  0  0
   -0.0341   -0.9134    1.9112 H   0  0  0  0  0  0  0  0  0  0  0  0
   -0.7413   -0.5652    0.3322 H   0  0  0  0  0  0  0  0  0  0  0  0
   -1.2525    1.0646    2.8805 H   0  0  0  0  0  0  0  0  0  0  0  0
   -1.9507    1.4083    1.3214 H   0  0  0  0  0  0  0  0  0  0  0  0
   -3.5888    0.1843    2.7589 H   0  0  0  0  0  0  0  0  0  0  0  0
  1  2  1  0
  1  4  1  0
  1  5  1  0
  1  6  1  0
  2  3  2  3
  2  7  1  0
  3  8  1  0
  9 10  1  0
  9 15  1  0
  9 16  1  0
 10 11  1  0
 11 12  1  0
 11 17  1  0
 11 18  1  0
 12 13  1  0
 12 19  1  0
 12 20  1  0
 13 14  2  0
 13 21  1  0
M  RAD  1   9   2
M  END
>  <reaction>  (12) 
rmg_rxn_16643

>  <mol_properties>  (12) 
{"1": {"label": "*0", "atom_type": "Cd"}, "2": {"label": "*1", "atom_type": "N3d"}, "7": {"label": "*2", "atom_type": "H0"}, "8": {"label": "*3", "atom_type": "Cs"}, "9": {"label": "*4", "atom_type": "O2s"}}

>  <type>  (12) 
unop_8

>  <geom_source>  (12) 
Heuristics

$$$$

     RDKit          3D

 21 19  0  0  0  0  0  0  0  0999 V2000
   -1.8300   -0.9007   -3.3593 C   0  0  0  0  0  0  0  0  0  0  0  0
   -1.8300   -0.9007   -1.8670 C   0  0  0  0  0  0  0  0  0  0  0  0
   -1.8300    0.1719   -1.1993 N   0  0  0  0  0  0  0  0  0  0  0  0
   -0.9517   -1.4307   -3.7367 H   0  0  0  0  0  0  0  0  0  0  0  0
   -2.7082   -1.4307   -3.7367 H   0  0  0  0  0  0  0  0  0  0  0  0
   -1.8300    0.1199   -3.7379 H   0  0  0  0  0  0  0  0  0  0  0  0
   -1.8300   -1.8904   -1.3924 H   0  0  0  0  0  0  0  0  0  0  0  0
   -1.8300   -0.0582    0.0003 H   0  0  0  0  0  0  0  0  0  0  0  0
   -1.8300   -0.3065    1.2940 C   0  0  0  0  0  3  0  0  0  0  0  0
   -0.5248   -0.4030    1.7973 O   0  0  0  0  0  0  0  0  0  0  0  0
    0.4192    0.2361    0.9769 C   0  0  0  0  0  0  0  0  0  0  0  0
    1.7804    0.0685    1.6135 C   0  0  0  0  0  0  0  0  0  0  0  0
    2.8984    0.7050    0.8430 C   0  0  0  0  0  0  0  0  0  0  0  0
    2.7664    1.3025   -0.1899 O   0  0  0  0  0  0  0  0  0  0  0  0
   -2.4886   -0.8255    1.9886 H   0  0  0  0  0  0  0  0  0  0  0  0
   -2.1514    0.7399    1.2107 H   0  0  0  0  0  0  0  0  0  0  0  0
    0.1800    1.3021    0.8669 H   0  0  0  0  0  0  0  0  0  0  0  0
    0.4154   -0.1987   -0.0314 H   0  0  0  0  0  0  0  0  0  0  0  0
    1.7870    0.4885    2.6253 H   0  0  0  0  0  0  0  0  0  0  0  0
    2.0193   -0.9934    1.7383 H   0  0  0  0  0  0  0  0  0  0  0  0
    3.9035    0.5894    1.2994 H   0  0  0  0  0  0  0  0  0  0  0  0
  1  2  1  0
  1  4  1  0
  1  5  1  0
  1  6  1  0
  2  3  2  3
  2  7  1  0
  3  8  1  0
  9 10  1  0
  9 15  1  0
  9 16  1  0
 10 11  1  0
 11 12  1  0
 11 17  1  0
 11 18  1  0
 12 13  1  0
 12 19  1  0
 12 20  1  0
 13 14  2  0
 13 21  1  0
M  RAD  1   9   2
M  END
>  <reaction>  (13) 
rmg_rxn_16643

>  <mol_properties>  (13) 
{"1": {"label": "*0", "atom_type": "Cd"}, "2": {"label": "*1", "atom_type": "N3d"}, "7": {"label": "*2", "atom_type": "H0"}, "8": {"label": "*3", "atom_type": "Cs"}, "9": {"label": "*4", "atom_type": "O2s"}}

>  <type>  (13) 
unop_9

>  <geom_source>  (13) 
Heuristics

$$$$

     RDKit          3D

 21 19  0  0  0  0  0  0  0  0999 V2000
   -3.5031    0.0079   -0.2327 C   0  0  0  0  0  0  0  0  0  0  0  0
   -2.2468   -0.7311    0.1094 C   0  0  0  0  0  0  0  0  0  0  0  0
   -1.1663   -0.5177   -0.4660 N   0  0  0  0  0  0  0  0  0  0  0  0
   -3.3376    0.6713   -1.0769 H   0  0  0  0  0  0  0  0  0  0  0  0
   -4.2935   -0.7022   -0.4693 H   0  0  0  0  0  0  0  0  0  0  0  0
   -3.8152    0.5906    0.6330 H   0  0  0  0  0  0  0  0  0  0  0  0
   -2.3711   -1.4691    0.9150 H   0  0  0  0  0  0  0  0  0  0  0  0
   -0.1925   -1.1242    0.0024 H   0  0  0  0  0  0  0  0  0  0  0  0
    0.8851   -1.6282    0.5735 C   0  0  0  0  0  3  0  0  0  0  0  0
    1.9880   -1.2429   -0.1591 O   0  0  0  0  0  0  0  0  0  0  0  0
    2.3047    0.1294   -0.0964 C   0  0  0  0  0  0  0  0  0  0  0  0
    1.3282    0.9999   -0.8999 C   0  0  0  0  0  0  0  0  0  0  0  0
    0.1737    1.5270   -0.0849 C   0  0  0  0  0  0  0  0  0  0  0  0
    0.1135    1.5269    1.1152 O   0  0  0  0  0  0  0  0  0  0  0  0
    0.7935   -2.7085    0.5300 H   0  0  0  0  0  0  0  0  0  0  0  0
    0.8604   -1.2229    1.5864 H   0  0  0  0  0  0  0  0  0  0  0  0
    3.3120    0.2055   -0.5123 H   0  0  0  0  0  0  0  0  0  0  0  0
    2.3126    0.4727    0.9476 H   0  0  0  0  0  0  0  0  0  0  0  0
    1.8521    1.8756   -1.2920 H   0  0  0  0  0  0  0  0  0  0  0  0
    0.9371    0.4372   -1.7473 H   0  0  0  0  0  0  0  0  0  0  0  0
   -0.5973    2.0256   -0.6986 H   0  0  0  0  0  0  0  0  0  0  0  0
  1  2  1  0
  1  4  1  0
  1  5  1  0
  1  6  1  0
  2  3  2  3
  2  7  1  0
  3  8  1  0
  9 10  1  0
  9 15  1  0
  9 16  1  0
 10 11  1  0
 11 12  1  0
 11 17  1  0
 11 18  1  0
 12 13  1  0
 12 19  1  0
 12 20  1  0
 13 14  2  0
 13 21  1  0
M  RAD  1   9   2
M  END
>  <reaction>  (14) 
rmg_rxn_16643

>  <mol_properties>  (14) 
{"1": {"label": "*0", "atom_type": "Cd"}, "2": {"label": "*1", "atom_type": "N3d"}, "7": {"label": "*2", "atom_type": "H0"}, "8": {"label": "*3", "atom_type": "Cs"}, "9": {"label": "*4", "atom_type": "O2s"}}

>  <type>  (14) 
unop_10

>  <geom_source>  (14) 
Heuristics

$$$$

     RDKit          3D

 21 19  0  0  0  0  0  0  0  0999 V2000
   -0.0190    1.3644   -3.5874 C   0  0  0  0  0  0  0  0  0  0  0  0
   -0.0190    1.3644   -2.0950 C   0  0  0  0  0  0  0  0  0  0  0  0
   -0.0190    2.4370   -1.4273 N   0  0  0  0  0  0  0  0  0  0  0  0
    0.8592    0.8344   -3.9648 H   0  0  0  0  0  0  0  0  0  0  0  0
   -0.8973    0.8344   -3.9648 H   0  0  0  0  0  0  0  0  0  0  0  0
   -0.0190    2.3850   -3.9660 H   0  0  0  0  0  0  0  0  0  0  0  0
   -0.0190    0.3747   -1.6204 H   0  0  0  0  0  0  0  0  0  0  0  0
   -0.0190    2.2068   -0.2278 H   0  0  0  0  0  0  0  0  0  0  0  0
   -0.0190    1.9586    1.0660 C   0  0  0  0  0  3  0  0  0  0  0  0
   -0.6716    0.7520    1.3563 O   0  0  0  0  0  0  0  0  0  0  0  0
    0.1303   -0.3717    1.0979 C   0  0  0  0  0  0  0  0  0  0  0  0
   -0.6704   -1.6065    1.4448 C   0  0  0  0  0  0  0  0  0  0  0  0
    0.0631   -2.8947    1.2183 C   0  0  0  0  0  0  0  0  0  0  0  0
    1.1853   -2.9807    0.8006 O   0  0  0  0  0  0  0  0  0  0  0  0
   -0.7100    2.7685    1.2946 H   0  0  0  0  0  0  0  0  0  0  0  0
    0.8878    2.0803    1.6727 H   0  0  0  0  0  0  0  0  0  0  0  0
    1.0519   -0.3368    1.6940 H   0  0  0  0  0  0  0  0  0  0  0  0
    0.4325   -0.3991    0.0426 H   0  0  0  0  0  0  0  0  0  0  0  0
   -0.9864   -1.5788    2.4934 H   0  0  0  0  0  0  0  0  0  0  0  0
   -1.5980   -1.6403    0.8628 H   0  0  0  0  0  0  0  0  0  0  0  0
   -0.5136   -3.8092    1.4690 H   0  0  0  0  0  0  0  0  0  0  0  0
  1  2  1  0
  1  4  1  0
  1  5  1  0
  1  6  1  0
  2  3  2  3
  2  7  1  0
  3  8  1  0
  9 10  1  0
  9 15  1  0
  9 16  1  0
 10 11  1  0
 11 12  1  0
 11 17  1  0
 11 18  1  0
 12 13  1  0
 12 19  1  0
 12 20  1  0
 13 14  2  0
 13 21  1  0
M  RAD  1   9   2
M  END
>  <reaction>  (15) 
rmg_rxn_16643

>  <mol_properties>  (15) 
{"1": {"label": "*0", "atom_type": "Cd"}, "2": {"label": "*1", "atom_type": "N3d"}, "7": {"label": "*2", "atom_type": "H0"}, "8": {"label": "*3", "atom_type": "Cs"}, "9": {"label": "*4", "atom_type": "O2s"}}

>  <type>  (15) 
unop_11

>  <geom_source>  (15) 
Heuristics

$$$$

     RDKit          3D

 21 19  0  0  0  0  0  0  0  0999 V2000
   -1.8006   -0.0526   -3.2483 C   0  0  0  0  0  0  0  0  0  0  0  0
   -1.8006   -0.0526   -1.7560 C   0  0  0  0  0  0  0  0  0  0  0  0
   -1.8006    1.0200   -1.0883 N   0  0  0  0  0  0  0  0  0  0  0  0
   -0.9223   -0.5826   -3.6257 H   0  0  0  0  0  0  0  0  0  0  0  0
   -2.6789   -0.5826   -3.6257 H   0  0  0  0  0  0  0  0  0  0  0  0
   -1.8006    0.9680   -3.6269 H   0  0  0  0  0  0  0  0  0  0  0  0
   -1.8006   -1.0423   -1.2813 H   0  0  0  0  0  0  0  0  0  0  0  0
   -1.8006    0.7899    0.1113 H   0  0  0  0  0  0  0  0  0  0  0  0
   -1.8006    0.5416    1.4051 C   0  0  0  0  0  3  0  0  0  0  0  0
   -0.6704   -0.1958    1.7854 O   0  0  0  0  0  0  0  0  0  0  0  0
    0.4385    0.0503    0.9592 C   0  0  0  0  0  0  0  0  0  0  0  0
    1.5898   -0.7923    1.4597 C   0  0  0  0  0  0  0  0  0  0  0  0
    2.8535   -0.6331    0.6681 C   0  0  0  0  0  0  0  0  0  0  0  0
    2.9807    0.0878   -0.2834 O   0  0  0  0  0  0  0  0  0  0  0  0
   -2.6043    0.2894    2.0952 H   0  0  0  0  0  0  0  0  0  0  0  0
   -1.6109    1.6217    1.4566 H   0  0  0  0  0  0  0  0  0  0  0  0
    0.7096    1.1142    0.9793 H   0  0  0  0  0  0  0  0  0  0  0  0
    0.2089   -0.2018   -0.0846 H   0  0  0  0  0  0  0  0  0  0  0  0
    1.8152   -0.5549    2.5051 H   0  0  0  0  0  0  0  0  0  0  0  0
    1.3208   -1.8543    1.4546 H   0  0  0  0  0  0  0  0  0  0  0  0
    3.7070   -1.2463    1.0250 H   0  0  0  0  0  0  0  0  0  0  0  0
  1  2  1  0
  1  4  1  0
  1  5  1  0
  1  6  1  0
  2  3  2  3
  2  7  1  0
  3  8  1  0
  9 10  1  0
  9 15  1  0
  9 16  1  0
 10 11  1  0
 11 12  1  0
 11 17  1  0
 11 18  1  0
 12 13  1  0
 12 19  1  0
 12 20  1  0
 13 14  2  0
 13 21  1  0
M  RAD  1   9   2
M  END
>  <reaction>  (16) 
rmg_rxn_16643

>  <mol_properties>  (16) 
{"1": {"label": "*0", "atom_type": "Cd"}, "2": {"label": "*1", "atom_type": "N3d"}, "7": {"label": "*2", "atom_type": "H0"}, "8": {"label": "*3", "atom_type": "Cs"}, "9": {"label": "*4", "atom_type": "O2s"}}

>  <type>  (16) 
unop_12

>  <geom_source>  (16) 
Heuristics

$$$$

     RDKit          3D

 21 19  0  0  0  0  0  0  0  0999 V2000
    1.5761   -1.2186   -4.2519 C   0  0  0  0  0  0  0  0  0  0  0  0
    1.5761   -1.2186   -2.7596 C   0  0  0  0  0  0  0  0  0  0  0  0
    1.5761   -0.1459   -2.0919 N   0  0  0  0  0  0  0  0  0  0  0  0
    2.4543   -1.7485   -4.6293 H   0  0  0  0  0  0  0  0  0  0  0  0
    0.6978   -1.7485   -4.6293 H   0  0  0  0  0  0  0  0  0  0  0  0
    1.5761   -0.1979   -4.6305 H   0  0  0  0  0  0  0  0  0  0  0  0
    1.5761   -2.2082   -2.2849 H   0  0  0  0  0  0  0  0  0  0  0  0
    1.5761   -0.3761   -0.8923 H   0  0  0  0  0  0  0  0  0  0  0  0
    1.5761   -0.6243    0.4015 C   0  0  0  0  0  3  0  0  0  0  0  0
    0.9235    0.3891    1.1177 O   0  0  0  0  0  0  0  0  0  0  0  0
   -0.4532    0.1498    1.2598 C   0  0  0  0  0  0  0  0  0  0  0  0
   -1.0484    1.2986    2.0422 C   0  0  0  0  0  0  0  0  0  0  0  0
   -2.5252    1.1802    2.2743 C   0  0  0  0  0  0  0  0  0  0  0  0
   -3.2093    0.2714    1.8901 O   0  0  0  0  0  0  0  0  0  0  0  0
    2.6299   -0.3570    0.3412 H   0  0  0  0  0  0  0  0  0  0  0  0
    1.4818   -1.5956    0.9045 H   0  0  0  0  0  0  0  0  0  0  0  0
   -0.6306   -0.7988    1.7835 H   0  0  0  0  0  0  0  0  0  0  0  0
   -0.9368    0.0684    0.2773 H   0  0  0  0  0  0  0  0  0  0  0  0
   -0.5606    1.3934    3.0186 H   0  0  0  0  0  0  0  0  0  0  0  0
   -0.8630    2.2498    1.5314 H   0  0  0  0  0  0  0  0  0  0  0  0
   -2.9751    2.0172    2.8477 H   0  0  0  0  0  0  0  0  0  0  0  0
  1  2  1  0
  1  4  1  0
  1  5  1  0
  1  6  1  0
  2  3  2  3
  2  7  1  0
  3  8  1  0
  9 10  1  0
  9 15  1  0
  9 16  1  0
 10 11  1  0
 11 12  1  0
 11 17  1  0
 11 18  1  0
 12 13  1  0
 12 19  1  0
 12 20  1  0
 13 14  2  0
 13 21  1  0
M  RAD  1   9   2
M  END
>  <reaction>  (17) 
rmg_rxn_16643

>  <mol_properties>  (17) 
{"1": {"label": "*0", "atom_type": "Cd"}, "2": {"label": "*1", "atom_type": "N3d"}, "7": {"label": "*2", "atom_type": "H0"}, "8": {"label": "*3", "atom_type": "Cs"}, "9": {"label": "*4", "atom_type": "O2s"}}

>  <type>  (17) 
unop_13

>  <geom_source>  (17) 
Heuristics

$$$$

     RDKit          3D

 21 19  0  0  0  0  0  0  0  0999 V2000
   -0.8297    1.1654   -3.3619 C   0  0  0  0  0  0  0  0  0  0  0  0
   -0.8297    1.1654   -1.8695 C   0  0  0  0  0  0  0  0  0  0  0  0
   -0.8297    2.2381   -1.2018 N   0  0  0  0  0  0  0  0  0  0  0  0
    0.0486    0.6354   -3.7393 H   0  0  0  0  0  0  0  0  0  0  0  0
   -1.7079    0.6354   -3.7393 H   0  0  0  0  0  0  0  0  0  0  0  0
   -0.8297    2.1860   -3.7405 H   0  0  0  0  0  0  0  0  0  0  0  0
   -0.8297    0.1757   -1.3949 H   0  0  0  0  0  0  0  0  0  0  0  0
   -0.8297    2.0079   -0.0023 H   0  0  0  0  0  0  0  0  0  0  0  0
   -0.8297    1.7596    1.2915 C   0  0  0  0  0  3  0  0  0  0  0  0
   -0.8297    0.3814    1.5488 O   0  0  0  0  0  0  0  0  0  0  0  0
    0.2997   -0.2666    1.0223 C   0  0  0  0  0  0  0  0  0  0  0  0
    0.1932   -1.7370    1.3579 C   0  0  0  0  0  0  0  0  0  0  0  0
    1.3391   -2.5636    0.8553 C   0  0  0  0  0  0  0  0  0  0  0  0
    2.2755   -2.1348    0.2384 O   0  0  0  0  0  0  0  0  0  0  0  0
   -1.7342    2.1757    1.7324 H   0  0  0  0  0  0  0  0  0  0  0  0
    0.0444    2.2512    1.7382 H   0  0  0  0  0  0  0  0  0  0  0  0
    1.2215    0.1538    1.4458 H   0  0  0  0  0  0  0  0  0  0  0  0
    0.3551   -0.1283   -0.0656 H   0  0  0  0  0  0  0  0  0  0  0  0
    0.1241   -1.8809    2.4417 H   0  0  0  0  0  0  0  0  0  0  0  0
   -0.7314   -2.1595    0.9494 H   0  0  0  0  0  0  0  0  0  0  0  0
    1.2734   -3.6453    1.0949 H   0  0  0  0  0  0  0  0  0  0  0  0
  1  2  1  0
  1  4  1  0
  1  5  1  0
  1  6  1  0
  2  3  2  3
  2  7  1  0
  3  8  1  0
  9 10  1  0
  9 15  1  0
  9 16  1  0
 10 11  1  0
 11 12  1  0
 11 17  1  0
 11 18  1  0
 12 13  1  0
 12 19  1  0
 12 20  1  0
 13 14  2  0
 13 21  1  0
M  RAD  1   9   2
M  END
>  <reaction>  (18) 
rmg_rxn_16643

>  <mol_properties>  (18) 
{"1": {"label": "*0", "atom_type": "Cd"}, "2": {"label": "*1", "atom_type": "N3d"}, "7": {"label": "*2", "atom_type": "H0"}, "8": {"label": "*3", "atom_type": "Cs"}, "9": {"label": "*4", "atom_type": "O2s"}}

>  <type>  (18) 
unop_14

>  <geom_source>  (18) 
Heuristics

$$$$

     RDKit          3D

 21 19  0  0  0  0  0  0  0  0999 V2000
   -1.4415    0.6585   -3.2379 C   0  0  0  0  0  0  0  0  0  0  0  0
   -1.4415    0.6585   -1.7456 C   0  0  0  0  0  0  0  0  0  0  0  0
   -1.4415    1.7311   -1.0779 N   0  0  0  0  0  0  0  0  0  0  0  0
   -0.5633    0.1285   -3.6153 H   0  0  0  0  0  0  0  0  0  0  0  0
   -2.3198    0.1285   -3.6153 H   0  0  0  0  0  0  0  0  0  0  0  0
   -1.4415    1.6791   -3.6165 H   0  0  0  0  0  0  0  0  0  0  0  0
   -1.4415   -0.3312   -1.2709 H   0  0  0  0  0  0  0  0  0  0  0  0
   -1.4415    1.5010    0.1217 H   0  0  0  0  0  0  0  0  0  0  0  0
   -1.4415    1.2528    1.4155 C   0  0  0  0  0  3  0  0  0  0  0  0
   -0.7890    0.0462    1.7057 O   0  0  0  0  0  0  0  0  0  0  0  0
    0.3973   -0.1167    0.9716 C   0  0  0  0  0  0  0  0  0  0  0  0
    1.0105   -1.4421    1.3634 C   0  0  0  0  0  0  0  0  0  0  0  0
    2.2942   -1.7554    0.6543 C   0  0  0  0  0  0  0  0  0  0  0  0
    2.8203   -1.0449   -0.1578 O   0  0  0  0  0  0  0  0  0  0  0  0
   -2.3428    1.2931    2.0251 H   0  0  0  0  0  0  0  0  0  0  0  0
   -0.8095    2.1181    1.6540 H   0  0  0  0  0  0  0  0  0  0  0  0
    1.0985    0.7024    1.1795 H   0  0  0  0  0  0  0  0  0  0  0  0
    0.1926   -0.0970   -0.1070 H   0  0  0  0  0  0  0  0  0  0  0  0
    1.2049   -1.4732    2.4411 H   0  0  0  0  0  0  0  0  0  0  0  0
    0.3105   -2.2625    1.1709 H   0  0  0  0  0  0  0  0  0  0  0  0
    2.7551   -2.7259    0.9327 H   0  0  0  0  0  0  0  0  0  0  0  0
  1  2  1  0
  1  4  1  0
  1  5  1  0
  1  6  1  0
  2  3  2  3
  2  7  1  0
  3  8  1  0
  9 10  1  0
  9 15  1  0
  9 16  1  0
 10 11  1  0
 11 12  1  0
 11 17  1  0
 11 18  1  0
 12 13  1  0
 12 19  1  0
 12 20  1  0
 13 14  2  0
 13 21  1  0
M  RAD  1   9   2
M  END
>  <reaction>  (19) 
rmg_rxn_16643

>  <mol_properties>  (19) 
{"1": {"label": "*0", "atom_type": "Cd"}, "2": {"label": "*1", "atom_type": "N3d"}, "7": {"label": "*2", "atom_type": "H0"}, "8": {"label": "*3", "atom_type": "Cs"}, "9": {"label": "*4", "atom_type": "O2s"}}

>  <type>  (19) 
unop_15

>  <geom_source>  (19) 
gaussian_log

$$$$
