
     RDKit          3D

  8  7  0  0  0  0  0  0  0  0999 V2000
    0.9548    0.1194   -0.0790 C   0  0  0  0  0  0  0  0  0  0  0  0
   -0.4838   -0.2649    0.0193 C   0  0  0  0  0  0  0  0  0  0  0  0
   -0.8933   -1.1081    0.8664 N   0  0  0  0  0  0  0  0  0  0  0  0
    1.3360   -0.0983   -1.0800 H   0  0  0  0  0  0  0  0  0  0  0  0
    1.0698    1.1948    0.0786 H   0  0  0  0  0  0  0  0  0  0  0  0
    1.5426   -0.4219    0.6602 H   0  0  0  0  0  0  0  0  0  0  0  0
   -1.1575    0.2324   -0.6905 H   0  0  0  0  0  0  0  0  0  0  0  0
   -1.8989   -1.2455    0.7886 H   0  0  0  0  0  0  0  0  0  0  0  0
  1  2  1  0
  1  4  1  0
  1  5  1  0
  1  6  1  0
  2  3  2  3
  2  7  1  0
  3  8  1  0
M  END
>  <reaction>  (1) 
rmg_rxn_16505

>  <mol_properties>  (1) 
{"2": {"label": "donator", "atom_type": "N3d"}, "7": {"label": "d_hydrogen", "atom_type": "H0"}}

>  <type>  (1) 
r1h

$$$$

     RDKit          3D

 11 10  0  0  0  0  0  0  0  0999 V2000
   -1.2539    0.3276   -0.3920 C   0  0  0  0  0  0  0  0  0  0  0  0
   -0.2906   -0.4393    0.5264 C   0  0  0  0  0  0  0  0  0  0  0  0
    1.1244   -0.0144    0.4020 C   0  0  0  0  0  3  0  0  0  0  0  0
    1.3877    1.2382    0.8815 O   0  0  0  0  0  0  0  0  0  0  0  0
   -0.9932    0.1784   -1.4417 H   0  0  0  0  0  0  0  0  0  0  0  0
   -2.2818   -0.0101   -0.2464 H   0  0  0  0  0  0  0  0  0  0  0  0
   -1.2124    1.3968   -0.1817 H   0  0  0  0  0  0  0  0  0  0  0  0
   -0.6088   -0.3094    1.5657 H   0  0  0  0  0  0  0  0  0  0  0  0
   -0.3483   -1.5082    0.3078 H   0  0  0  0  0  0  0  0  0  0  0  0
    1.7380   -0.3574   -0.4276 H   0  0  0  0  0  0  0  0  0  0  0  0
    2.2967    1.4723    0.6918 H   0  0  0  0  0  0  0  0  0  0  0  0
  1  2  1  0
  1  5  1  0
  1  6  1  0
  1  7  1  0
  2  3  1  0
  2  8  1  0
  2  9  1  0
  3  4  1  0
  3 10  1  0
  4 11  1  0
M  RAD  1   3   2
M  END
>  <reaction>  (2) 
rmg_rxn_16505

>  <mol_properties>  (2) 
{"2": {"label": "acceptor", "atom_type": "Cs"}}

>  <type>  (2) 
r2

$$$$

     RDKit          3D

 12 11  0  0  0  0  0  0  0  0999 V2000
   -1.4643   -0.2505   -0.5284 C   0  0  0  0  0  0  0  0  0  0  0  0
   -0.3946    0.4302    0.3143 C   0  0  0  0  0  0  0  0  0  0  0  0
   -0.5959    0.2382    1.8102 C   0  0  0  0  0  0  0  0  0  0  0  0
   -0.5633   -1.1190    2.2092 O   0  0  0  0  0  0  0  0  0  0  0  0
   -2.4511    0.1644   -0.3109 H   0  0  0  0  0  0  0  0  0  0  0  0
   -1.5019   -1.3198   -0.3181 H   0  0  0  0  0  0  0  0  0  0  0  0
   -1.2720   -0.1182   -1.5941 H   0  0  0  0  0  0  0  0  0  0  0  0
    0.5965    0.0515    0.0385 H   0  0  0  0  0  0  0  0  0  0  0  0
   -0.3776    1.5047    0.1078 H   0  0  0  0  0  0  0  0  0  0  0  0
   -1.5821    0.6048    2.1034 H   0  0  0  0  0  0  0  0  0  0  0  0
    0.1495    0.8220    2.3649 H   0  0  0  0  0  0  0  0  0  0  0  0
    0.3017   -1.4750    1.9997 H   0  0  0  0  0  0  0  0  0  0  0  0
  1  2  1  0
  1  5  1  0
  1  6  1  0
  1  7  1  0
  2  3  1  0
  2  8  1  0
  2  9  1  0
  3  4  1  0
  3 10  1  0
  3 11  1  0
  4 12  1  0
M  END
>  <reaction>  (3) 
rmg_rxn_16505

>  <mol_properties>  (3) 
{"0": {"label": "a_hydrogen", "atom_type": "H0"}, "3": {"label": "acceptor", "atom_type": "Cs"}}

>  <type>  (3) 
r2h

$$$$

     RDKit          3D

 19 17  0  0  0  0  0  0  0  0999 V2000
   -0.4753   -0.1370   -3.1843 C   0  0  0  0  0  0  0  0  0  0  0  0
   -0.3004    0.0789   -1.7101 C   0  0  0  0  0  0  0  0  0  0  0  0
    0.4776    0.9442   -1.2382 N   0  0  0  0  0  0  0  0  0  0  0  0
   -0.2114   -1.1653   -3.4424 H   0  0  0  0  0  0  0  0  0  0  0  0
   -1.5222    0.0073   -3.4620 H   0  0  0  0  0  0  0  0  0  0  0  0
    0.1492    0.5510   -3.7513 H   0  0  0  0  0  0  0  0  0  0  0  0
   -0.8949   -0.5729   -1.0523 H   0  0  0  0  0  0  0  0  0  0  0  0
    0.3745    0.8718    0.0238 H   0  0  0  0  0  0  0  0  0  0  0  0
    1.2684   -1.5849    1.1875 C   0  0  0  0  0  0  0  0  0  0  0  0
    1.1636   -0.2292    1.8776 C   0  0  0  0  0  0  0  0  0  0  0  0
    0.0842    0.6543    1.3181 C   0  0  0  0  0  3  0  0  0  0  0  0
   -1.1646    0.0474    1.3938 O   0  0  0  0  0  0  0  0  0  0  0  0
    1.5196   -1.4643    0.1326 H   0  0  0  0  0  0  0  0  0  0  0  0
    2.0445   -2.1940    1.6524 H   0  0  0  0  0  0  0  0  0  0  0  0
    0.3262   -2.1296    1.2532 H   0  0  0  0  0  0  0  0  0  0  0  0
    0.9792   -0.3740    2.9488 H   0  0  0  0  0  0  0  0  0  0  0  0
    2.1100    0.3100    1.7911 H   0  0  0  0  0  0  0  0  0  0  0  0
    0.0886    1.6709    1.7244 H   0  0  0  0  0  0  0  0  0  0  0  0
   -1.8385    0.6864    1.1578 H   0  0  0  0  0  0  0  0  0  0  0  0
  1  2  1  0
  1  4  1  0
  1  5  1  0
  1  6  1  0
  2  3  2  3
  2  7  1  0
  3  8  1  0
  9 10  1  0
  9 13  1  0
  9 14  1  0
  9 15  1  0
 10 11  1  0
 10 16  1  0
 10 17  1  0
 11 12  1  0
 11 18  1  0
 12 19  1  0
M  RAD  1  11   2
M  END
>  <reaction>  (4) 
rmg_rxn_16505

>  <mol_properties>  (4) 
{"1": {"label": "*0", "atom_type": "Cd"}, "2": {"label": "*1", "atom_type": "N3d"}, "7": {"label": "*2", "atom_type": "H0"}, "9": {"label": "*4", "atom_type": "Cs"}, "10": {"label": "*3", "atom_type": "Cs"}}

>  <type>  (4) 
ts

$$$$

     RDKit          3D

 19 17  0  0  0  0  0  0  0  0999 V2000
   -3.4512   -0.3662    0.1357 C   0  0  0  0  0  0  0  0  0  0  0  0
   -2.0306    0.0659   -0.0622 C   0  0  0  0  0  0  0  0  0  0  0  0
   -1.0790   -0.7313   -0.0748 N   0  0  0  0  0  0  0  0  0  0  0  0
   -4.0410   -0.0713   -0.7307 H   0  0  0  0  0  0  0  0  0  0  0  0
   -3.5039   -1.4435    0.2653 H   0  0  0  0  0  0  0  0  0  0  0  0
   -3.8636    0.1309    1.0125 H   0  0  0  0  0  0  0  0  0  0  0  0
   -1.9092    1.1528   -0.1951 H   0  0  0  0  0  0  0  0  0  0  0  0
    0.0132   -0.1754   -0.2558 H   0  0  0  0  0  0  0  0  0  0  0  0
    2.3883   -1.5380   -0.0718 C   0  0  0  0  0  0  0  0  0  0  0  0
    2.1840   -0.1007    0.3908 C   0  0  0  0  0  0  0  0  0  0  0  0
    1.0859    0.5781   -0.3961 C   0  0  0  0  0  3  0  0  0  0  0  0
    0.7435    1.8637    0.0191 O   0  0  0  0  0  0  0  0  0  0  0  0
    1.4660   -2.1006    0.0448 H   0  0  0  0  0  0  0  0  0  0  0  0
    2.6764   -1.5625   -1.1198 H   0  0  0  0  0  0  0  0  0  0  0  0
    3.1696   -2.0175    0.5126 H   0  0  0  0  0  0  0  0  0  0  0  0
    1.9221   -0.0935    1.4540 H   0  0  0  0  0  0  0  0  0  0  0  0
    3.1204    0.4606    0.2775 H   0  0  0  0  0  0  0  0  0  0  0  0
    1.2680    0.6148   -1.4690 H   0  0  0  0  0  0  0  0  0  0  0  0
    0.7717    1.8997    0.9826 H   0  0  0  0  0  0  0  0  0  0  0  0
  1  2  1  0
  1  4  1  0
  1  5  1  0
  1  6  1  0
  2  3  2  3
  2  7  1  0
  3  8  1  0
  9 10  1  0
  9 13  1  0
  9 14  1  0
  9 15  1  0
 10 11  1  0
 10 16  1  0
 10 17  1  0
 11 12  1  0
 11 18  1  0
 12 19  1  0
M  RAD  1  11   2
M  END
>  <reaction>  (5) 
rmg_rxn_16505

>  <mol_properties>  (5) 
{"1": {"label": "*0", "atom_type": "Cd"}, "2": {"label": "*1", "atom_type": "N3d"}, "7": {"label": "*2", "atom_type": "H0"}, "9": {"label": "*4", "atom_type": "Cs"}, "10": {"label": "*3", "atom_type": "Cs"}}

>  <type>  (5) 
unop_1

>  <geom_source>  (5) 
crest_best.xyz

$$$$

     RDKit          3D

 19 17  0  0  0  0  0  0  0  0999 V2000
   -0.4269   -0.3532   -3.5436 C   0  0  0  0  0  0  0  0  0  0  0  0
   -0.4269   -0.3532   -2.0513 C   0  0  0  0  0  0  0  0  0  0  0  0
   -0.4269    0.7194   -1.3836 N   0  0  0  0  0  0  0  0  0  0  0  0
    0.4514   -0.8832   -3.9210 H   0  0  0  0  0  0  0  0  0  0  0  0
   -1.3051   -0.8832   -3.9210 H   0  0  0  0  0  0  0  0  0  0  0  0
   -0.4269    0.6674   -3.9222 H   0  0  0  0  0  0  0  0  0  0  0  0
   -0.4269   -1.3429   -1.5767 H   0  0  0  0  0  0  0  0  0  0  0  0
   -0.4269    0.4892   -0.1840 H   0  0  0  0  0  0  0  0  0  0  0  0
    1.9518   -0.1491    1.9099 C   0  0  0  0  0  0  0  0  0  0  0  0
    0.8119    0.8468    1.7476 C   0  0  0  0  0  0  0  0  0  0  0  0
   -0.4269    0.2422    1.1032 C   0  0  0  0  0  3  0  0  0  0  0  0
   -0.9807   -0.8252    1.8489 O   0  0  0  0  0  0  0  0  0  0  0  0
    2.2813   -0.5229    0.9377 H   0  0  0  0  0  0  0  0  0  0  0  0
    2.8108    0.3095    2.4017 H   0  0  0  0  0  0  0  0  0  0  0  0
    1.6359   -1.0073    2.5038 H   0  0  0  0  0  0  0  0  0  0  0  0
    0.5364    1.2629    2.7236 H   0  0  0  0  0  0  0  0  0  0  0  0
    1.1349    1.6947    1.1360 H   0  0  0  0  0  0  0  0  0  0  0  0
   -1.1774    1.0241    0.9317 H   0  0  0  0  0  0  0  0  0  0  0  0
   -1.2519   -0.4878    2.7042 H   0  0  0  0  0  0  0  0  0  0  0  0
  1  2  1  0
  1  4  1  0
  1  5  1  0
  1  6  1  0
  2  3  2  3
  2  7  1  0
  3  8  1  0
  9 10  1  0
  9 13  1  0
  9 14  1  0
  9 15  1  0
 10 11  1  0
 10 16  1  0
 10 17  1  0
 11 12  1  0
 11 18  1  0
 12 19  1  0
M  RAD  1  11   2
M  END
>  <reaction>  (6) 
rmg_rxn_16505

>  <mol_properties>  (6) 
{"1": {"label": "*0", "atom_type": "Cd"}, "2": {"label": "*1", "atom_type": "N3d"}, "7": {"label": "*2", "atom_type": "H0"}, "9": {"label": "*4", "atom_type": "Cs"}, "10": {"label": "*3", "atom_type": "Cs"}}

>  <type>  (6) 
unop_2

>  <geom_source>  (6) 
Heuristics

$$$$

     RDKit          3D

 19 17  0  0  0  0  0  0  0  0999 V2000
    0.1048    0.0416   -3.3592 C   0  0  0  0  0  0  0  0  0  0  0  0
    0.1048    0.0416   -1.8669 C   0  0  0  0  0  0  0  0  0  0  0  0
    0.1048    1.1143   -1.1992 N   0  0  0  0  0  0  0  0  0  0  0  0
    0.9830   -0.4884   -3.7366 H   0  0  0  0  0  0  0  0  0  0  0  0
   -0.7735   -0.4884   -3.7366 H   0  0  0  0  0  0  0  0  0  0  0  0
    0.1048    1.0622   -3.7378 H   0  0  0  0  0  0  0  0  0  0  0  0
    0.1048   -0.9481   -1.3922 H   0  0  0  0  0  0  0  0  0  0  0  0
    0.1048    0.8841    0.0004 H   0  0  0  0  0  0  0  0  0  0  0  0
   -0.0071   -1.9008    1.1941 C   0  0  0  0  0  0  0  0  0  0  0  0
    0.8199   -0.6772    1.5638 C   0  0  0  0  0  0  0  0  0  0  0  0
    0.1048    0.6371    1.2877 C   0  0  0  0  0  3  0  0  0  0  0  0
   -1.1012    0.7809    2.0138 O   0  0  0  0  0  0  0  0  0  0  0  0
   -0.2303   -1.9089    0.1247 H   0  0  0  0  0  0  0  0  0  0  0  0
    0.5232   -2.8237    1.4332 H   0  0  0  0  0  0  0  0  0  0  0  0
   -0.9569   -1.9037    1.7297 H   0  0  0  0  0  0  0  0  0  0  0  0
    1.0925   -0.7163    2.6249 H   0  0  0  0  0  0  0  0  0  0  0  0
    1.7624   -0.6759    1.0078 H   0  0  0  0  0  0  0  0  0  0  0  0
    0.7797    1.4785    1.4889 H   0  0  0  0  0  0  0  0  0  0  0  0
   -0.8935    0.7717    2.9496 H   0  0  0  0  0  0  0  0  0  0  0  0
  1  2  1  0
  1  4  1  0
  1  5  1  0
  1  6  1  0
  2  3  2  3
  2  7  1  0
  3  8  1  0
  9 10  1  0
  9 13  1  0
  9 14  1  0
  9 15  1  0
 10 11  1  0
 10 16  1  0
 10 17  1  0
 11 12  1  0
 11 18  1  0
 12 19  1  0
M  RAD  1  11   2
M  END
>  <reaction>  (7) 
rmg_rxn_16505

>  <mol_properties>  (7) 
{"1": {"label": "*0", "atom_type": "Cd"}, "2": {"label": "*1", "atom_type": "N3d"}, "7": {"label": "*2", "atom_type": "H0"}, "9": {"label": "*4", "atom_type": "Cs"}, "10": {"label": "*3", "atom_type": "Cs"}}

>  <type>  (7) 
unop_3

>  <geom_source>  (7) 
Heuristics

$$$$

     RDKit          3D

 19 17  0  0  0  0  0  0  0  0999 V2000
   -0.4475   -0.5797   -3.5325 C   0  0  0  0  0  0  0  0  0  0  0  0
   -0.4475   -0.5797   -2.0402 C   0  0  0  0  0  0  0  0  0  0  0  0
   -0.4475    0.4930   -1.3725 N   0  0  0  0  0  0  0  0  0  0  0  0
    0.4308   -1.1097   -3.9099 H   0  0  0  0  0  0  0  0  0  0  0  0
   -1.3257   -1.1097   -3.9099 H   0  0  0  0  0  0  0  0  0  0  0  0
   -0.4475    0.4409   -3.9111 H   0  0  0  0  0  0  0  0  0  0  0  0
   -0.4475   -1.5694   -1.5656 H   0  0  0  0  0  0  0  0  0  0  0  0
   -0.4475    0.2628   -0.1729 H   0  0  0  0  0  0  0  0  0  0  0  0
    1.7776    0.9481    1.9157 C   0  0  0  0  0  0  0  0  0  0  0  0
    0.2677    1.1346    1.8573 C   0  0  0  0  0  0  0  0  0  0  0  0
   -0.4475    0.0158    1.1143 C   0  0  0  0  0  3  0  0  0  0  0  0
   -0.2613   -1.2563    1.7053 O   0  0  0  0  0  0  0  0  0  0  0  0
    2.2066    0.9439    0.9110 H   0  0  0  0  0  0  0  0  0  0  0  0
    2.2538    1.7508    2.4805 H   0  0  0  0  0  0  0  0  0  0  0  0
    2.0336   -0.0008    2.3880 H   0  0  0  0  0  0  0  0  0  0  0  0
   -0.1405    1.2034    2.8724 H   0  0  0  0  0  0  0  0  0  0  0  0
    0.0225    2.0811    1.3662 H   0  0  0  0  0  0  0  0  0  0  0  0
   -1.5162    0.2491    1.0279 H   0  0  0  0  0  0  0  0  0  0  0  0
   -0.6282   -1.2351    2.5906 H   0  0  0  0  0  0  0  0  0  0  0  0
  1  2  1  0
  1  4  1  0
  1  5  1  0
  1  6  1  0
  2  3  2  3
  2  7  1  0
  3  8  1  0
  9 10  1  0
  9 13  1  0
  9 14  1  0
  9 15  1  0
 10 11  1  0
 10 16  1  0
 10 17  1  0
 11 12  1  0
 11 18  1  0
 12 19  1  0
M  RAD  1  11   2
M  END
>  <reaction>  (8) 
rmg_rxn_16505

>  <mol_properties>  (8) 
{"1": {"label": "*0", "atom_type": "Cd"}, "2": {"label": "*1", "atom_type": "N3d"}, "7": {"label": "*2", "atom_type": "H0"}, "9": {"label": "*4", "atom_type": "Cs"}, "10": {"label": "*3", "atom_type": "Cs"}}

>  <type>  (8) 
unop_4

>  <geom_source>  (8) 
Heuristics

$$$$

     RDKit          3D

 19 17  0  0  0  0  0  0  0  0999 V2000
    0.5632   -0.5190   -3.1822 C   0  0  0  0  0  0  0  0  0  0  0  0
    0.5632   -0.5190   -1.6899 C   0  0  0  0  0  0  0  0  0  0  0  0
    0.5632    0.5536   -1.0222 N   0  0  0  0  0  0  0  0  0  0  0  0
    1.4414   -1.0490   -3.5596 H   0  0  0  0  0  0  0  0  0  0  0  0
   -0.3151   -1.0490   -3.5596 H   0  0  0  0  0  0  0  0  0  0  0  0
    0.5632    0.5016   -3.5608 H   0  0  0  0  0  0  0  0  0  0  0  0
    0.5632   -1.5087   -1.2152 H   0  0  0  0  0  0  0  0  0  0  0  0
    0.5632    0.3234    0.1774 H   0  0  0  0  0  0  0  0  0  0  0  0
   -1.8373   -0.5190    0.8771 C   0  0  0  0  0  0  0  0  0  0  0  0
   -0.6756   -0.7237    1.8395 C   0  0  0  0  0  0  0  0  0  0  0  0
    0.5632    0.0764    1.4647 C   0  0  0  0  0  3  0  0  0  0  0  0
    0.3436    1.4742    1.4527 O   0  0  0  0  0  0  0  0  0  0  0  0
   -1.5697   -0.8494   -0.1292 H   0  0  0  0  0  0  0  0  0  0  0  0
   -2.7165   -1.0826    1.1926 H   0  0  0  0  0  0  0  0  0  0  0  0
   -2.1105    0.5349    0.8169 H   0  0  0  0  0  0  0  0  0  0  0  0
   -0.9795   -0.4507    2.8567 H   0  0  0  0  0  0  0  0  0  0  0  0
   -0.3991   -1.7817    1.8786 H   0  0  0  0  0  0  0  0  0  0  0  0
    1.3904   -0.1790    2.1389 H   0  0  0  0  0  0  0  0  0  0  0  0
    0.0954    1.7489    2.3369 H   0  0  0  0  0  0  0  0  0  0  0  0
  1  2  1  0
  1  4  1  0
  1  5  1  0
  1  6  1  0
  2  3  2  3
  2  7  1  0
  3  8  1  0
  9 10  1  0
  9 13  1  0
  9 14  1  0
  9 15  1  0
 10 11  1  0
 10 16  1  0
 10 17  1  0
 11 12  1  0
 11 18  1  0
 12 19  1  0
M  RAD  1  11   2
M  END
>  <reaction>  (9) 
rmg_rxn_16505

>  <mol_properties>  (9) 
{"1": {"label": "*0", "atom_type": "Cd"}, "2": {"label": "*1", "atom_type": "N3d"}, "7": {"label": "*2", "atom_type": "H0"}, "9": {"label": "*4", "atom_type": "Cs"}, "10": {"label": "*3", "atom_type": "Cs"}}

>  <type>  (9) 
unop_5

>  <geom_source>  (9) 
Heuristics

$$$$

     RDKit          3D

 19 17  0  0  0  0  0  0  0  0999 V2000
   -0.3551   -0.8650   -3.4275 C   0  0  0  0  0  0  0  0  0  0  0  0
   -0.3551   -0.8650   -1.9352 C   0  0  0  0  0  0  0  0  0  0  0  0
   -0.3551    0.2076   -1.2675 N   0  0  0  0  0  0  0  0  0  0  0  0
    0.5231   -1.3950   -3.8049 H   0  0  0  0  0  0  0  0  0  0  0  0
   -1.2334   -1.3950   -3.8049 H   0  0  0  0  0  0  0  0  0  0  0  0
   -0.3551    0.1556   -3.8061 H   0  0  0  0  0  0  0  0  0  0  0  0
   -0.3551   -1.8547   -1.4605 H   0  0  0  0  0  0  0  0  0  0  0  0
   -0.3551   -0.0226   -0.0679 H   0  0  0  0  0  0  0  0  0  0  0  0
    0.8180    1.9438    1.6519 C   0  0  0  0  0  0  0  0  0  0  0  0
   -0.3551    1.0374    1.9985 C   0  0  0  0  0  0  0  0  0  0  0  0
   -0.3551   -0.2695    1.2193 C   0  0  0  0  0  3  0  0  0  0  0  0
    0.7954   -1.0596    1.4524 O   0  0  0  0  0  0  0  0  0  0  0  0
    0.7872    2.2318    0.5985 H   0  0  0  0  0  0  0  0  0  0  0  0
    0.8031    2.8562    2.2497 H   0  0  0  0  0  0  0  0  0  0  0  0
    1.7665    1.4354    1.8276 H   0  0  0  0  0  0  0  0  0  0  0  0
   -0.3489    0.8107    3.0709 H   0  0  0  0  0  0  0  0  0  0  0  0
   -1.3009    1.5515    1.8019 H   0  0  0  0  0  0  0  0  0  0  0  0
   -1.2663   -0.8380    1.4444 H   0  0  0  0  0  0  0  0  0  0  0  0
    0.8187   -1.2930    2.3819 H   0  0  0  0  0  0  0  0  0  0  0  0
  1  2  1  0
  1  4  1  0
  1  5  1  0
  1  6  1  0
  2  3  2  3
  2  7  1  0
  3  8  1  0
  9 10  1  0
  9 13  1  0
  9 14  1  0
  9 15  1  0
 10 11  1  0
 10 16  1  0
 10 17  1  0
 11 12  1  0
 11 18  1  0
 12 19  1  0
M  RAD  1  11   2
M  END
>  <reaction>  (10) 
rmg_rxn_16505

>  <mol_properties>  (10) 
{"1": {"label": "*0", "atom_type": "Cd"}, "2": {"label": "*1", "atom_type": "N3d"}, "7": {"label": "*2", "atom_type": "H0"}, "9": {"label": "*4", "atom_type": "Cs"}, "10": {"label": "*3", "atom_type": "Cs"}}

>  <type>  (10) 
unop_6

>  <geom_source>  (10) 
Heuristics

$$$$

     RDKit          3D

 19 17  0  0  0  0  0  0  0  0999 V2000
    0.4878   -0.7732   -3.1952 C   0  0  0  0  0  0  0  0  0  0  0  0
    0.4878   -0.7732   -1.7028 C   0  0  0  0  0  0  0  0  0  0  0  0
    0.4878    0.2994   -1.0351 N   0  0  0  0  0  0  0  0  0  0  0  0
    1.3661   -1.3032   -3.5726 H   0  0  0  0  0  0  0  0  0  0  0  0
   -0.3904   -1.3032   -3.5726 H   0  0  0  0  0  0  0  0  0  0  0  0
    0.4878    0.2474   -3.5737 H   0  0  0  0  0  0  0  0  0  0  0  0
    0.4878   -1.7629   -1.2282 H   0  0  0  0  0  0  0  0  0  0  0  0
    0.4878    0.0693    0.1645 H   0  0  0  0  0  0  0  0  0  0  0  0
   -1.9614    0.3447    1.0152 C   0  0  0  0  0  0  0  0  0  0  0  0
   -0.9425   -0.2755    1.9613 C   0  0  0  0  0  0  0  0  0  0  0  0
    0.4878   -0.1777    1.4517 C   0  0  0  0  0  3  0  0  0  0  0  0
    0.9264    1.1551    1.2687 O   0  0  0  0  0  0  0  0  0  0  0  0
   -1.9589   -0.1700    0.0516 H   0  0  0  0  0  0  0  0  0  0  0  0
   -2.9704    0.2840    1.4254 H   0  0  0  0  0  0  0  0  0  0  0  0
   -1.7304    1.3941    0.8297 H   0  0  0  0  0  0  0  0  0  0  0  0
   -1.0024    0.2064    2.9441 H   0  0  0  0  0  0  0  0  0  0  0  0
   -1.1742   -1.3321    2.1263 H   0  0  0  0  0  0  0  0  0  0  0  0
    1.1625   -0.7171    2.1283 H   0  0  0  0  0  0  0  0  0  0  0  0
    0.9055    1.5995    2.1178 H   0  0  0  0  0  0  0  0  0  0  0  0
  1  2  1  0
  1  4  1  0
  1  5  1  0
  1  6  1  0
  2  3  2  3
  2  7  1  0
  3  8  1  0
  9 10  1  0
  9 13  1  0
  9 14  1  0
  9 15  1  0
 10 11  1  0
 10 16  1  0
 10 17  1  0
 11 12  1  0
 11 18  1  0
 12 19  1  0
M  RAD  1  11   2
M  END
>  <reaction>  (11) 
rmg_rxn_16505

>  <mol_properties>  (11) 
{"1": {"label": "*0", "atom_type": "Cd"}, "2": {"label": "*1", "atom_type": "N3d"}, "7": {"label": "*2", "atom_type": "H0"}, "9": {"label": "*4", "atom_type": "Cs"}, "10": {"label": "*3", "atom_type": "Cs"}}

>  <type>  (11) 
unop_7

>  <geom_source>  (11) 
Heuristics

$$$$

     RDKit          3D

 19 17  0  0  0  0  0  0  0  0999 V2000
    0.2843   -0.9760   -3.2334 C   0  0  0  0  0  0  0  0  0  0  0  0
    0.2843   -0.9760   -1.7411 C   0  0  0  0  0  0  0  0  0  0  0  0
    0.2843    0.0966   -1.0734 N   0  0  0  0  0  0  0  0  0  0  0  0
    1.1625   -1.5060   -3.6108 H   0  0  0  0  0  0  0  0  0  0  0  0
   -0.5940   -1.5060   -3.6108 H   0  0  0  0  0  0  0  0  0  0  0  0
    0.2843    0.0446   -3.6120 H   0  0  0  0  0  0  0  0  0  0  0  0
    0.2843   -1.9657   -1.2664 H   0  0  0  0  0  0  0  0  0  0  0  0
    0.2843   -0.1335    0.1262 H   0  0  0  0  0  0  0  0  0  0  0  0
   -1.6234    1.2854    1.1953 C   0  0  0  0  0  0  0  0  0  0  0  0
   -0.9545    0.2241    2.0578 C   0  0  0  0  0  0  0  0  0  0  0  0
    0.2843   -0.3805    1.4135 C   0  0  0  0  0  3  0  0  0  0  0  0
    1.3001    0.5697    1.1540 O   0  0  0  0  0  0  0  0  0  0  0  0
   -1.9652    0.8576    0.2500 H   0  0  0  0  0  0  0  0  0  0  0  0
   -2.4884    1.7179    1.7001 H   0  0  0  0  0  0  0  0  0  0  0  0
   -0.9266    2.0907    0.9606 H   0  0  0  0  0  0  0  0  0  0  0  0
   -0.6766    0.6510    3.0284 H   0  0  0  0  0  0  0  0  0  0  0  0
   -1.6573   -0.5867    2.2724 H   0  0  0  0  0  0  0  0  0  0  0  0
    0.6690   -1.1967    2.0379 H   0  0  0  0  0  0  0  0  0  0  0  0
    1.5806    0.9480    1.9890 H   0  0  0  0  0  0  0  0  0  0  0  0
  1  2  1  0
  1  4  1  0
  1  5  1  0
  1  6  1  0
  2  3  2  3
  2  7  1  0
  3  8  1  0
  9 10  1  0
  9 13  1  0
  9 14  1  0
  9 15  1  0
 10 11  1  0
 10 16  1  0
 10 17  1  0
 11 12  1  0
 11 18  1  0
 12 19  1  0
M  RAD  1  11   2
M  END
>  <reaction>  (12) 
rmg_rxn_16505

>  <mol_properties>  (12) 
{"1": {"label": "*0", "atom_type": "Cd"}, "2": {"label": "*1", "atom_type": "N3d"}, "7": {"label": "*2", "atom_type": "H0"}, "9": {"label": "*4", "atom_type": "Cs"}, "10": {"label": "*3", "atom_type": "Cs"}}

>  <type>  (12) 
unop_8

>  <geom_source>  (12) 
Heuristics

$$$$

     RDKit          3D

 19 17  0  0  0  0  0  0  0  0999 V2000
   -0.3352   -0.1523   -3.5044 C   0  0  0  0  0  0  0  0  0  0  0  0
   -0.3352   -0.1523   -2.0121 C   0  0  0  0  0  0  0  0  0  0  0  0
   -0.3352    0.9203   -1.3444 N   0  0  0  0  0  0  0  0  0  0  0  0
    0.5431   -0.6823   -3.8818 H   0  0  0  0  0  0  0  0  0  0  0  0
   -1.2134   -0.6823   -3.8818 H   0  0  0  0  0  0  0  0  0  0  0  0
   -0.3352    0.8683   -3.8830 H   0  0  0  0  0  0  0  0  0  0  0  0
   -0.3352   -1.1420   -1.5374 H   0  0  0  0  0  0  0  0  0  0  0  0
   -0.3352    0.6901   -0.1448 H   0  0  0  0  0  0  0  0  0  0  0  0
    1.6098   -1.0855    1.7276 C   0  0  0  0  0  0  0  0  0  0  0  0
    1.0952    0.3454    1.6520 C   0  0  0  0  0  0  0  0  0  0  0  0
   -0.3352    0.4432    1.1424 C   0  0  0  0  0  3  0  0  0  0  0  0
   -1.2683   -0.2356    1.9615 O   0  0  0  0  0  0  0  0  0  0  0  0
    1.6205   -1.5462    0.7371 H   0  0  0  0  0  0  0  0  0  0  0  0
    2.6253   -1.1202    2.1249 H   0  0  0  0  0  0  0  0  0  0  0  0
    0.9712   -1.6944    2.3682 H   0  0  0  0  0  0  0  0  0  0  0  0
    1.1524    0.8165    2.6402 H   0  0  0  0  0  0  0  0  0  0  0  0
    1.7333    0.9423    0.9933 H   0  0  0  0  0  0  0  0  0  0  0  0
   -0.6183    1.4968    1.0255 H   0  0  0  0  0  0  0  0  0  0  0  0
   -1.2574    0.1682    2.8308 H   0  0  0  0  0  0  0  0  0  0  0  0
  1  2  1  0
  1  4  1  0
  1  5  1  0
  1  6  1  0
  2  3  2  3
  2  7  1  0
  3  8  1  0
  9 10  1  0
  9 13  1  0
  9 14  1  0
  9 15  1  0
 10 11  1  0
 10 16  1  0
 10 17  1  0
 11 12  1  0
 11 18  1  0
 12 19  1  0
M  RAD  1  11   2
M  END
>  <reaction>  (13) 
rmg_rxn_16505

>  <mol_properties>  (13) 
{"1": {"label": "*0", "atom_type": "Cd"}, "2": {"label": "*1", "atom_type": "N3d"}, "7": {"label": "*2", "atom_type": "H0"}, "9": {"label": "*4", "atom_type": "Cs"}, "10": {"label": "*3", "atom_type": "Cs"}}

>  <type>  (13) 
unop_9

>  <geom_source>  (13) 
Heuristics

$$$$

     RDKit          3D

 19 17  0  0  0  0  0  0  0  0999 V2000
   -3.4512   -0.3662    0.1357 C   0  0  0  0  0  0  0  0  0  0  0  0
   -2.0306    0.0659   -0.0622 C   0  0  0  0  0  0  0  0  0  0  0  0
   -1.0790   -0.7313   -0.0748 N   0  0  0  0  0  0  0  0  0  0  0  0
   -4.0410   -0.0713   -0.7307 H   0  0  0  0  0  0  0  0  0  0  0  0
   -3.5039   -1.4435    0.2653 H   0  0  0  0  0  0  0  0  0  0  0  0
   -3.8636    0.1309    1.0125 H   0  0  0  0  0  0  0  0  0  0  0  0
   -1.9092    1.1528   -0.1951 H   0  0  0  0  0  0  0  0  0  0  0  0
    0.0132   -0.1754   -0.2558 H   0  0  0  0  0  0  0  0  0  0  0  0
    2.3883   -1.5380   -0.0718 C   0  0  0  0  0  0  0  0  0  0  0  0
    2.1840   -0.1007    0.3908 C   0  0  0  0  0  0  0  0  0  0  0  0
    1.0859    0.5781   -0.3961 C   0  0  0  0  0  3  0  0  0  0  0  0
    0.7435    1.8637    0.0191 O   0  0  0  0  0  0  0  0  0  0  0  0
    1.4660   -2.1006    0.0448 H   0  0  0  0  0  0  0  0  0  0  0  0
    2.6764   -1.5625   -1.1198 H   0  0  0  0  0  0  0  0  0  0  0  0
    3.1696   -2.0175    0.5126 H   0  0  0  0  0  0  0  0  0  0  0  0
    1.9221   -0.0935    1.4540 H   0  0  0  0  0  0  0  0  0  0  0  0
    3.1204    0.4606    0.2775 H   0  0  0  0  0  0  0  0  0  0  0  0
    1.2680    0.6148   -1.4690 H   0  0  0  0  0  0  0  0  0  0  0  0
    0.7717    1.8997    0.9826 H   0  0  0  0  0  0  0  0  0  0  0  0
  1  2  1  0
  1  4  1  0
  1  5  1  0
  1  6  1  0
  2  3  2  3
  2  7  1  0
  3  8  1  0
  9 10  1  0
  9 13  1  0
  9 14  1  0
  9 15  1  0
 10 11  1  0
 10 16  1  0
 10 17  1  0
 11 12  1  0
 11 18  1  0
 12 19  1  0
M  RAD  1  11   2
M  END
>  <reaction>  (14) 
rmg_rxn_16505

>  <mol_properties>  (14) 
{"1": {"label": "*0", "atom_type": "Cd"}, "2": {"label": "*1", "atom_type": "N3d"}, "7": {"label": "*2", "atom_type": "H0"}, "9": {"label": "*4", "atom_type": "Cs"}, "10": {"label": "*3", "atom_type": "Cs"}}

>  <type>  (14) 
unop_10

>  <geom_source>  (14) 
Heuristics

$$$$

     RDKit          3D

 19 17  0  0  0  0  0  0  0  0999 V2000
    0.5175   -0.2649   -3.2065 C   0  0  0  0  0  0  0  0  0  0  0  0
    0.5175   -0.2649   -1.7142 C   0  0  0  0  0  0  0  0  0  0  0  0
    0.5175    0.8077   -1.0465 N   0  0  0  0  0  0  0  0  0  0  0  0
    1.3957   -0.7949   -3.5839 H   0  0  0  0  0  0  0  0  0  0  0  0
   -0.3608   -0.7949   -3.5839 H   0  0  0  0  0  0  0  0  0  0  0  0
    0.5175    0.7557   -3.5851 H   0  0  0  0  0  0  0  0  0  0  0  0
    0.5175   -1.2546   -1.2395 H   0  0  0  0  0  0  0  0  0  0  0  0
    0.5175    0.5776    0.1531 H   0  0  0  0  0  0  0  0  0  0  0  0
   -1.4262   -1.1948    0.8424 C   0  0  0  0  0  0  0  0  0  0  0  0
   -0.1977   -0.9837    1.7165 C   0  0  0  0  0  0  0  0  0  0  0  0
    0.5175    0.3306    1.4404 C   0  0  0  0  0  3  0  0  0  0  0  0
   -0.2926    1.4675    1.6718 O   0  0  0  0  0  0  0  0  0  0  0  0
   -1.1490   -1.2295   -0.2137 H   0  0  0  0  0  0  0  0  0  0  0  0
   -1.9304   -2.1305    1.0879 H   0  0  0  0  0  0  0  0  0  0  0  0
   -2.1384   -0.3790    0.9702 H   0  0  0  0  0  0  0  0  0  0  0  0
   -0.4811   -1.0175    2.7749 H   0  0  0  0  0  0  0  0  0  0  0  0
    0.5170   -1.7987    1.5671 H   0  0  0  0  0  0  0  0  0  0  0  0
    1.4391    0.3855    2.0334 H   0  0  0  0  0  0  0  0  0  0  0  0
   -0.5410    1.4783    2.5976 H   0  0  0  0  0  0  0  0  0  0  0  0
  1  2  1  0
  1  4  1  0
  1  5  1  0
  1  6  1  0
  2  3  2  3
  2  7  1  0
  3  8  1  0
  9 10  1  0
  9 13  1  0
  9 14  1  0
  9 15  1  0
 10 11  1  0
 10 16  1  0
 10 17  1  0
 11 12  1  0
 11 18  1  0
 12 19  1  0
M  RAD  1  11   2
M  END
>  <reaction>  (15) 
rmg_rxn_16505

>  <mol_properties>  (15) 
{"1": {"label": "*0", "atom_type": "Cd"}, "2": {"label": "*1", "atom_type": "N3d"}, "7": {"label": "*2", "atom_type": "H0"}, "9": {"label": "*4", "atom_type": "Cs"}, "10": {"label": "*3", "atom_type": "Cs"}}

>  <type>  (15) 
unop_11

>  <geom_source>  (15) 
Heuristics

$$$$

     RDKit          3D

 19 17  0  0  0  0  0  0  0  0999 V2000
   -0.1508   -0.0014   -3.4400 C   0  0  0  0  0  0  0  0  0  0  0  0
   -0.1508   -0.0014   -1.9477 C   0  0  0  0  0  0  0  0  0  0  0  0
   -0.1508    1.0712   -1.2800 N   0  0  0  0  0  0  0  0  0  0  0  0
    0.7275   -0.5314   -3.8174 H   0  0  0  0  0  0  0  0  0  0  0  0
   -1.0291   -0.5314   -3.8174 H   0  0  0  0  0  0  0  0  0  0  0  0
   -0.1508    1.0192   -3.8186 H   0  0  0  0  0  0  0  0  0  0  0  0
   -0.1508   -0.9911   -1.4731 H   0  0  0  0  0  0  0  0  0  0  0  0
   -0.1508    0.8410   -0.0804 H   0  0  0  0  0  0  0  0  0  0  0  0
    0.8875   -1.7113    1.4710 C   0  0  0  0  0  0  0  0  0  0  0  0
    1.0879   -0.2061    1.5817 C   0  0  0  0  0  0  0  0  0  0  0  0
   -0.1508    0.5940    1.2068 C   0  0  0  0  0  3  0  0  0  0  0  0
   -1.2672    0.3149    2.0302 O   0  0  0  0  0  0  0  0  0  0  0  0
    0.6557   -1.9967    0.4423 H   0  0  0  0  0  0  0  0  0  0  0  0
    1.7839   -2.2532    1.7757 H   0  0  0  0  0  0  0  0  0  0  0  0
    0.0592   -2.0398    2.0995 H   0  0  0  0  0  0  0  0  0  0  0  0
    1.3847    0.0579    2.6033 H   0  0  0  0  0  0  0  0  0  0  0  0
    1.9096    0.1144    0.9341 H   0  0  0  0  0  0  0  0  0  0  0  0
    0.0801    1.6667    1.2194 H   0  0  0  0  0  0  0  0  0  0  0  0
   -1.0460    0.5556    2.9313 H   0  0  0  0  0  0  0  0  0  0  0  0
  1  2  1  0
  1  4  1  0
  1  5  1  0
  1  6  1  0
  2  3  2  3
  2  7  1  0
  3  8  1  0
  9 10  1  0
  9 13  1  0
  9 14  1  0
  9 15  1  0
 10 11  1  0
 10 16  1  0
 10 17  1  0
 11 12  1  0
 11 18  1  0
 12 19  1  0
M  RAD  1  11   2
M  END
>  <reaction>  (16) 
rmg_rxn_16505

>  <mol_properties>  (16) 
{"1": {"label": "*0", "atom_type": "Cd"}, "2": {"label": "*1", "atom_type": "N3d"}, "7": {"label": "*2", "atom_type": "H0"}, "9": {"label": "*4", "atom_type": "Cs"}, "10": {"label": "*3", "atom_type": "Cs"}}

>  <type>  (16) 
unop_12

>  <geom_source>  (16) 
Heuristics

$$$$

     RDKit          3D

 19 17  0  0  0  0  0  0  0  0999 V2000
   -0.0381   -1.0436   -3.3014 C   0  0  0  0  0  0  0  0  0  0  0  0
   -0.0381   -1.0436   -1.8091 C   0  0  0  0  0  0  0  0  0  0  0  0
   -0.0381    0.0290   -1.1414 N   0  0  0  0  0  0  0  0  0  0  0  0
    0.8401   -1.5736   -3.6788 H   0  0  0  0  0  0  0  0  0  0  0  0
   -0.9164   -1.5736   -3.6788 H   0  0  0  0  0  0  0  0  0  0  0  0
   -0.0381   -0.0230   -3.6800 H   0  0  0  0  0  0  0  0  0  0  0  0
   -0.0381   -2.0333   -1.3345 H   0  0  0  0  0  0  0  0  0  0  0  0
   -0.0381   -0.2011    0.0582 H   0  0  0  0  0  0  0  0  0  0  0  0
   -0.6590    2.0167    1.3834 C   0  0  0  0  0  0  0  0  0  0  0  0
   -0.7533    0.6707    2.0884 C   0  0  0  0  0  0  0  0  0  0  0  0
   -0.0381   -0.4481    1.3454 C   0  0  0  0  0  3  0  0  0  0  0  0
    1.3489   -0.2172    1.1877 O   0  0  0  0  0  0  0  0  0  0  0  0
   -1.1302    1.9722    0.3988 H   0  0  0  0  0  0  0  0  0  0  0  0
   -1.1555    2.7999    1.9579 H   0  0  0  0  0  0  0  0  0  0  0  0
    0.3821    2.3069    1.2385 H   0  0  0  0  0  0  0  0  0  0  0  0
   -0.3367    0.7476    3.0994 H   0  0  0  0  0  0  0  0  0  0  0  0
   -1.8014    0.3817    2.2128 H   0  0  0  0  0  0  0  0  0  0  0  0
   -0.2154   -1.4052    1.8520 H   0  0  0  0  0  0  0  0  0  0  0  0
    1.7477   -0.1656    2.0578 H   0  0  0  0  0  0  0  0  0  0  0  0
  1  2  1  0
  1  4  1  0
  1  5  1  0
  1  6  1  0
  2  3  2  3
  2  7  1  0
  3  8  1  0
  9 10  1  0
  9 13  1  0
  9 14  1  0
  9 15  1  0
 10 11  1  0
 10 16  1  0
 10 17  1  0
 11 12  1  0
 11 18  1  0
 12 19  1  0
M  RAD  1  11   2
M  END
>  <reaction>  (17) 
rmg_rxn_16505

>  <mol_properties>  (17) 
{"1": {"label": "*0", "atom_type": "Cd"}, "2": {"label": "*1", "atom_type": "N3d"}, "7": {"label": "*2", "atom_type": "H0"}, "9": {"label": "*4", "atom_type": "Cs"}, "10": {"label": "*3", "atom_type": "Cs"}}

>  <type>  (17) 
unop_13

>  <geom_source>  (17) 
Heuristics

$$$$

     RDKit          3D

 19 17  0  0  0  0  0  0  0  0999 V2000
    0.3551   -0.0571   -3.2725 C   0  0  0  0  0  0  0  0  0  0  0  0
    0.3551   -0.0571   -1.7802 C   0  0  0  0  0  0  0  0  0  0  0  0
    0.3551    1.0155   -1.1125 N   0  0  0  0  0  0  0  0  0  0  0  0
    1.2334   -0.5871   -3.6499 H   0  0  0  0  0  0  0  0  0  0  0  0
   -0.5231   -0.5871   -3.6499 H   0  0  0  0  0  0  0  0  0  0  0  0
    0.3551    0.9635   -3.6511 H   0  0  0  0  0  0  0  0  0  0  0  0
    0.3551   -1.0468   -1.3055 H   0  0  0  0  0  0  0  0  0  0  0  0
    0.3551    0.7853    0.0871 H   0  0  0  0  0  0  0  0  0  0  0  0
   -0.8180   -1.6779    0.9570 C   0  0  0  0  0  0  0  0  0  0  0  0
    0.3551   -0.9642    1.6144 C   0  0  0  0  0  0  0  0  0  0  0  0
    0.3551    0.5383    1.3743 C   0  0  0  0  0  3  0  0  0  0  0  0
   -0.7954    1.1860    1.8833 O   0  0  0  0  0  0  0  0  0  0  0  0
   -0.7872   -1.5555   -0.1282 H   0  0  0  0  0  0  0  0  0  0  0  0
   -0.8031   -2.7468    1.1747 H   0  0  0  0  0  0  0  0  0  0  0  0
   -1.7665   -1.2707    1.3084 H   0  0  0  0  0  0  0  0  0  0  0  0
    0.3489   -1.1505    2.6946 H   0  0  0  0  0  0  0  0  0  0  0  0
    1.3009   -1.3690    1.2416 H   0  0  0  0  0  0  0  0  0  0  0  0
    1.2663    0.9831    1.7938 H   0  0  0  0  0  0  0  0  0  0  0  0
   -0.8187    1.0588    2.8331 H   0  0  0  0  0  0  0  0  0  0  0  0
  1  2  1  0
  1  4  1  0
  1  5  1  0
  1  6  1  0
  2  3  2  3
  2  7  1  0
  3  8  1  0
  9 10  1  0
  9 13  1  0
  9 14  1  0
  9 15  1  0
 10 11  1  0
 10 16  1  0
 10 17  1  0
 11 12  1  0
 11 18  1  0
 12 19  1  0
M  RAD  1  11   2
M  END
>  <reaction>  (18) 
rmg_rxn_16505

>  <mol_properties>  (18) 
{"1": {"label": "*0", "atom_type": "Cd"}, "2": {"label": "*1", "atom_type": "N3d"}, "7": {"label": "*2", "atom_type": "H0"}, "9": {"label": "*4", "atom_type": "Cs"}, "10": {"label": "*3", "atom_type": "Cs"}}

>  <type>  (18) 
unop_14

>  <geom_source>  (18) 
Heuristics

$$$$

     RDKit          3D

 19 17  0  0  0  0  0  0  0  0999 V2000
    0.1047    0.0416   -3.3592 C   0  0  0  0  0  0  0  0  0  0  0  0
    0.1047    0.0416   -1.8668 C   0  0  0  0  0  0  0  0  0  0  0  0
    0.1047    1.1142   -1.1992 N   0  0  0  0  0  0  0  0  0  0  0  0
    0.9830   -0.4884   -3.7366 H   0  0  0  0  0  0  0  0  0  0  0  0
   -0.7735   -0.4884   -3.7366 H   0  0  0  0  0  0  0  0  0  0  0  0
    0.1047    1.0622   -3.7378 H   0  0  0  0  0  0  0  0  0  0  0  0
    0.1047   -0.9481   -1.3922 H   0  0  0  0  0  0  0  0  0  0  0  0
    0.1047    0.8841    0.0004 H   0  0  0  0  0  0  0  0  0  0  0  0
   -0.0071   -1.9008    1.1941 C   0  0  0  0  0  0  0  0  0  0  0  0
    0.8199   -0.6772    1.5638 C   0  0  0  0  0  0  0  0  0  0  0  0
    0.1047    0.6371    1.2877 C   0  0  0  0  0  3  0  0  0  0  0  0
   -1.1012    0.7809    2.0138 O   0  0  0  0  0  0  0  0  0  0  0  0
   -0.2303   -1.9089    0.1247 H   0  0  0  0  0  0  0  0  0  0  0  0
    0.5232   -2.8237    1.4332 H   0  0  0  0  0  0  0  0  0  0  0  0
   -0.9569   -1.9037    1.7297 H   0  0  0  0  0  0  0  0  0  0  0  0
    1.0925   -0.7163    2.6249 H   0  0  0  0  0  0  0  0  0  0  0  0
    1.7624   -0.6759    1.0078 H   0  0  0  0  0  0  0  0  0  0  0  0
    0.7797    1.4785    1.4889 H   0  0  0  0  0  0  0  0  0  0  0  0
   -0.8935    0.7717    2.9496 H   0  0  0  0  0  0  0  0  0  0  0  0
  1  2  1  0
  1  4  1  0
  1  5  1  0
  1  6  1  0
  2  3  2  3
  2  7  1  0
  3  8  1  0
  9 10  1  0
  9 13  1  0
  9 14  1  0
  9 15  1  0
 10 11  1  0
 10 16  1  0
 10 17  1  0
 11 12  1  0
 11 18  1  0
 12 19  1  0
M  RAD  1  11   2
M  END
>  <reaction>  (19) 
rmg_rxn_16505

>  <mol_properties>  (19) 
{"1": {"label": "*0", "atom_type": "Cd"}, "2": {"label": "*1", "atom_type": "N3d"}, "7": {"label": "*2", "atom_type": "H0"}, "9": {"label": "*4", "atom_type": "Cs"}, "10": {"label": "*3", "atom_type": "Cs"}}

>  <type>  (19) 
unop_15

>  <geom_source>  (19) 
gaussian_log

$$$$
